
*** ChampSim Multicore Out-of-Order Simulator ***

Warmup Instructions: 200000000
Simulation Instructions: 200000000
Number of CPUs: 1
threads:1

L1I Configuration:
L1I_SET:64
L1I_WAY:8
L1I_RQ_SIZE:64
L1I_WQ_SIZE:64
L1I_PQ_SIZE:8
L1I_MSHR_SIZE:8

L1D Configuration:
L1D_SET:64
L1D_WAY:12
L1D_RQ_SIZE:64
L1D_WQ_SIZE:64
L1D_PQ_SIZE:8
L1D_MSHR_SIZE:16

L2C Configuration:
L2C_SET:1024
L2C_WAY:8
L2C_RQ_SIZE:32
L2C_WQ_SIZE:32
L2C_PQ_SIZE:16
L2C_MSHR_SIZE:32

LLC Configuration:
LLC_SET:4096
LLC_WAY:16
LLC SLICES:8
LLC_RQ_SIZE:64
LLC_WQ_SIZE:64
LLC_PQ_SIZE:32
LLC_MSHR_SIZE:64

Interconnect OFF
Attacker deprioritize is: OFF
Off-chip DRAM Size: 4096 MB Channels: 1 Width: 64-bit Data Rate: 3200 MT/s
PAGE SIZE in KB: 4.000000 
PAGE SIZE in MB: 0.003906 
PAGE offset in bits: 12 
CEASER-S_LLC:0
MIRAGE : 0
CEASER_LATENCY:3
REMAP : OFF
Partitions : 1
Multi-Step : OFF
BFS : OFF

CPU 0 runs /home/anubhav/gap/bc-12.trace.gz
CPU 0 Bimodal branch predictor
Initialize Hawkeye state
Initialize Hawkeye state
Initialize Hawkeye state
Initialize Hawkeye state
Initialize Hawkeye state
Initialize Hawkeye state
Initialize Hawkeye state
Initialize Hawkeye state
Heartbeat CPU 0 instructions: 10000000 cycles: 11943394 heartbeat IPC: 0.837283 cumulative IPC: 0.837283 (Simulation time: 0 hr 2 min 35 sec) 
 Total Blocks : 524288 Invalid Blocks : 300521
Heartbeat CPU 0 instructions: 20000001 cycles: 25664460 heartbeat IPC: 0.728806 cumulative IPC: 0.779288 (Simulation time: 0 hr 4 min 58 sec) 
 Total Blocks : 524288 Invalid Blocks : 269027
Heartbeat CPU 0 instructions: 30000000 cycles: 38858032 heartbeat IPC: 0.757945 cumulative IPC: 0.772041 (Simulation time: 0 hr 7 min 20 sec) 
 Total Blocks : 524288 Invalid Blocks : 248712
Heartbeat CPU 0 instructions: 40000002 cycles: 51719461 heartbeat IPC: 0.777519 cumulative IPC: 0.773403 (Simulation time: 0 hr 9 min 49 sec) 
 Total Blocks : 524288 Invalid Blocks : 236027
Heartbeat CPU 0 instructions: 50000002 cycles: 64238351 heartbeat IPC: 0.798793 cumulative IPC: 0.778351 (Simulation time: 0 hr 12 min 10 sec) 
 Total Blocks : 524288 Invalid Blocks : 227952
Heartbeat CPU 0 instructions: 60000000 cycles: 76602911 heartbeat IPC: 0.808763 cumulative IPC: 0.78326 (Simulation time: 0 hr 15 min 1 sec) 
 Total Blocks : 524288 Invalid Blocks : 222866
Heartbeat CPU 0 instructions: 70000001 cycles: 89061340 heartbeat IPC: 0.80267 cumulative IPC: 0.785975 (Simulation time: 0 hr 18 min 5 sec) 
 Total Blocks : 524288 Invalid Blocks : 218735
Heartbeat CPU 0 instructions: 80000001 cycles: 101548353 heartbeat IPC: 0.800832 cumulative IPC: 0.787802 (Simulation time: 0 hr 21 min 13 sec) 
 Total Blocks : 524288 Invalid Blocks : 215232
Heartbeat CPU 0 instructions: 90000001 cycles: 114025872 heartbeat IPC: 0.801441 cumulative IPC: 0.789295 (Simulation time: 0 hr 24 min 13 sec) 
 Total Blocks : 524288 Invalid Blocks : 212032
Heartbeat CPU 0 instructions: 100000000 cycles: 126477537 heartbeat IPC: 0.803105 cumulative IPC: 0.790654 (Simulation time: 0 hr 27 min 28 sec) 
 Total Blocks : 524288 Invalid Blocks : 209240
Heartbeat CPU 0 instructions: 110000000 cycles: 138922613 heartbeat IPC: 0.803531 cumulative IPC: 0.791808 (Simulation time: 0 hr 30 min 35 sec) 
 Total Blocks : 524288 Invalid Blocks : 206541
Heartbeat CPU 0 instructions: 120000000 cycles: 151170710 heartbeat IPC: 0.816453 cumulative IPC: 0.793805 (Simulation time: 0 hr 33 min 48 sec) 
 Total Blocks : 524288 Invalid Blocks : 204074
Heartbeat CPU 0 instructions: 130000001 cycles: 163567438 heartbeat IPC: 0.806665 cumulative IPC: 0.794779 (Simulation time: 0 hr 36 min 55 sec) 
 Total Blocks : 524288 Invalid Blocks : 201757
Heartbeat CPU 0 instructions: 140000002 cycles: 175743395 heartbeat IPC: 0.821291 cumulative IPC: 0.796616 (Simulation time: 0 hr 40 min 12 sec) 
 Total Blocks : 524288 Invalid Blocks : 199558
Heartbeat CPU 0 instructions: 150000000 cycles: 188115441 heartbeat IPC: 0.808274 cumulative IPC: 0.797383 (Simulation time: 0 hr 43 min 29 sec) 
 Total Blocks : 524288 Invalid Blocks : 197533
Heartbeat CPU 0 instructions: 160000000 cycles: 200142867 heartbeat IPC: 0.831433 cumulative IPC: 0.799429 (Simulation time: 0 hr 46 min 40 sec) 
 Total Blocks : 524288 Invalid Blocks : 195573
Heartbeat CPU 0 instructions: 170000002 cycles: 212077738 heartbeat IPC: 0.837881 cumulative IPC: 0.801593 (Simulation time: 0 hr 49 min 40 sec) 
 Total Blocks : 524288 Invalid Blocks : 193925
Heartbeat CPU 0 instructions: 180000000 cycles: 224322056 heartbeat IPC: 0.816705 cumulative IPC: 0.802418 (Simulation time: 0 hr 52 min 55 sec) 
 Total Blocks : 524288 Invalid Blocks : 192368
Heartbeat CPU 0 instructions: 190000001 cycles: 236097279 heartbeat IPC: 0.849241 cumulative IPC: 0.804753 (Simulation time: 0 hr 56 min 33 sec) 
 Total Blocks : 524288 Invalid Blocks : 190663
Heartbeat CPU 0 instructions: 200000003 cycles: 248596313 heartbeat IPC: 0.800062 cumulative IPC: 0.804517 (Simulation time: 0 hr 59 min 55 sec) 
 Total Blocks : 524288 Invalid Blocks : 187754

Warmup complete CPU 0 instructions: 200000003 cycles: 248596313 (Simulation time: 0 hr 59 min 55 sec) 

Heartbeat CPU 0 instructions: 210000000 cycles: 306840012 heartbeat IPC: 0.171692 cumulative IPC: 0.171692 (Simulation time: 1 hr 8 min 15 sec) 
 Total Blocks : 524288 Invalid Blocks : 184182
Heartbeat CPU 0 instructions: 220000000 cycles: 365245256 heartbeat IPC: 0.171218 cumulative IPC: 0.171455 (Simulation time: 1 hr 16 min 17 sec) 
 Total Blocks : 524288 Invalid Blocks : 181231
Heartbeat CPU 0 instructions: 230000000 cycles: 424130652 heartbeat IPC: 0.169821 cumulative IPC: 0.170907 (Simulation time: 1 hr 24 min 44 sec) 
 Total Blocks : 524288 Invalid Blocks : 177609
Heartbeat CPU 0 instructions: 240000000 cycles: 482804421 heartbeat IPC: 0.170434 cumulative IPC: 0.170788 (Simulation time: 1 hr 33 min 2 sec) 
 Total Blocks : 524288 Invalid Blocks : 174391
Heartbeat CPU 0 instructions: 250000000 cycles: 541226251 heartbeat IPC: 0.171169 cumulative IPC: 0.170864 (Simulation time: 1 hr 40 min 44 sec) 
 Total Blocks : 524288 Invalid Blocks : 170771
Heartbeat CPU 0 instructions: 260000000 cycles: 599555648 heartbeat IPC: 0.17144 cumulative IPC: 0.17096 (Simulation time: 1 hr 48 min 17 sec) 
 Total Blocks : 524288 Invalid Blocks : 167513
Heartbeat CPU 0 instructions: 270000002 cycles: 657894758 heartbeat IPC: 0.171412 cumulative IPC: 0.171024 (Simulation time: 1 hr 55 min 47 sec) 
 Total Blocks : 524288 Invalid Blocks : 164342
Heartbeat CPU 0 instructions: 280000002 cycles: 716371811 heartbeat IPC: 0.171007 cumulative IPC: 0.171022 (Simulation time: 2 hr 3 min 8 sec) 
 Total Blocks : 524288 Invalid Blocks : 161432
Heartbeat CPU 0 instructions: 290000003 cycles: 775035077 heartbeat IPC: 0.170464 cumulative IPC: 0.17096 (Simulation time: 2 hr 10 min 2 sec) 
 Total Blocks : 524288 Invalid Blocks : 158087
Heartbeat CPU 0 instructions: 300000001 cycles: 833663809 heartbeat IPC: 0.170565 cumulative IPC: 0.17092 (Simulation time: 2 hr 16 min 19 sec) 
 Total Blocks : 524288 Invalid Blocks : 154801
Heartbeat CPU 0 instructions: 310000001 cycles: 892898936 heartbeat IPC: 0.168819 cumulative IPC: 0.170727 (Simulation time: 2 hr 22 min 25 sec) 
 Total Blocks : 524288 Invalid Blocks : 151562
Heartbeat CPU 0 instructions: 320000002 cycles: 918929823 heartbeat IPC: 0.384159 cumulative IPC: 0.179015 (Simulation time: 2 hr 26 min 47 sec) 
 Total Blocks : 524288 Invalid Blocks : 146288
Heartbeat CPU 0 instructions: 330000000 cycles: 934925278 heartbeat IPC: 0.625177 cumulative IPC: 0.189414 (Simulation time: 2 hr 30 min 24 sec) 
 Total Blocks : 524288 Invalid Blocks : 140466
Heartbeat CPU 0 instructions: 340000001 cycles: 952050390 heartbeat IPC: 0.583938 cumulative IPC: 0.199018 (Simulation time: 2 hr 33 min 41 sec) 
 Total Blocks : 524288 Invalid Blocks : 135112
Heartbeat CPU 0 instructions: 350000000 cycles: 969918376 heartbeat IPC: 0.55966 cumulative IPC: 0.207951 (Simulation time: 2 hr 36 min 55 sec) 
 Total Blocks : 524288 Invalid Blocks : 129836
Heartbeat CPU 0 instructions: 360000001 cycles: 988077603 heartbeat IPC: 0.550684 cumulative IPC: 0.216368 (Simulation time: 2 hr 40 min 9 sec) 
 Total Blocks : 524288 Invalid Blocks : 124690
Heartbeat CPU 0 instructions: 370000002 cycles: 1007385413 heartbeat IPC: 0.517925 cumulative IPC: 0.224041 (Simulation time: 2 hr 43 min 17 sec) 
 Total Blocks : 524288 Invalid Blocks : 119542
Heartbeat CPU 0 instructions: 380000002 cycles: 1028302535 heartbeat IPC: 0.478077 cumulative IPC: 0.230856 (Simulation time: 2 hr 46 min 33 sec) 
 Total Blocks : 524288 Invalid Blocks : 113997
Heartbeat CPU 0 instructions: 390000000 cycles: 1050393509 heartbeat IPC: 0.452673 cumulative IPC: 0.236968 (Simulation time: 2 hr 49 min 48 sec) 
 Total Blocks : 524288 Invalid Blocks : 108464
Heartbeat CPU 0 instructions: 400000003 cycles: 1074335094 heartbeat IPC: 0.417683 cumulative IPC: 0.242207 (Simulation time: 2 hr 53 min 6 sec) 
 Total Blocks : 524288 Invalid Blocks : 102457
Finished CPU 0 instructions: 200000000 cycles: 825738781 cumulative IPC: 0.242207 (Simulation time: 2 hr 53 min 6 sec) 

CPU 0 Branch Prediction Accuracy: 92.124% MPKI: 17.2953 Average ROB Occupancy at Mispredict: 43.1897

ChampSim completed all CPUs

Region of Interest Statistics

CPU 0 cumulative IPC: 0.242207 instructions: 200000000 cycles: 825738781
ITLB TOTAL     ACCESS: 35391419  HIT: 35391419  MISS:     0  HIT %:   100  MISS %:     0  AVERAGE MISS PENALTY: 0
ITLB LOAD      ACCESS: 35391419  HIT: 35391419  MISS:     0  HIT %:   100  MISS %:     0  AVERAGE MISS PENALTY: 0
ITLB RFO       ACCESS:     0  HIT:     0  MISS:     0  HIT %:     0  MISS %:     0  AVERAGE MISS PENALTY: 0
ITLB PREFETCH  ACCESS:     0  HIT:     0  MISS:     0  HIT %:     0  MISS %:     0  AVERAGE MISS PENALTY: 0
ITLB WRITEBACK ACCESS:     0  HIT:     0  MISS:     0  HIT %:     0  MISS %:     0  AVERAGE MISS PENALTY: 0
ITLB PREFETCH  REQUESTED:     0  ISSUED:     0  USEFUL:     0  USELESS:     0
 USEFUL LOAD PREFETCHES:          0 PREFETCH ISSUED TO LOWER LEVEL:          0  ACCURACY: -nan
 TIMELY PREFETCHES:          0 LATE PREFETCHES: 0 DROPPED PREFETCHES: 0
ITLB AVERAGE MISS LATENCY: -nan cycles
DTLB TOTAL     ACCESS: 43209681  HIT: 29141137  MISS: 14068544  HIT %: 67.4412  MISS %: 32.5588  AVERAGE MISS PENALTY: 38.498
DTLB LOAD      ACCESS: 37829027  HIT: 25949308  MISS: 11879719  HIT %: 68.5963  MISS %: 31.4037  AVERAGE MISS PENALTY: 30.729
DTLB RFO       ACCESS: 5380654  HIT: 3191829  MISS: 2188825  HIT %: 59.3205  MISS %: 40.6795  AVERAGE MISS PENALTY: 80.6635
DTLB PREFETCH  ACCESS:     0  HIT:     0  MISS:     0  HIT %:     0  MISS %:     0  AVERAGE MISS PENALTY: 0
DTLB WRITEBACK ACCESS:     0  HIT:     0  MISS:     0  HIT %:     0  MISS %:     0  AVERAGE MISS PENALTY: 0
DTLB PREFETCH  REQUESTED:     0  ISSUED:     0  USEFUL:     0  USELESS:     0
 USEFUL LOAD PREFETCHES:          0 PREFETCH ISSUED TO LOWER LEVEL:          0  ACCURACY: -nan
 TIMELY PREFETCHES:          0 LATE PREFETCHES: 0 DROPPED PREFETCHES: 0
DTLB AVERAGE MISS LATENCY: 38.498 cycles
STLB TOTAL     ACCESS: 14068544  HIT: 11859301  MISS: 2209243  HIT %: 84.2966  MISS %: 15.7034  AVERAGE MISS PENALTY: 100
STLB LOAD      ACCESS: 11879719  HIT: 10700314  MISS: 1179405  HIT %: 90.0721  MISS %: 9.92789  AVERAGE MISS PENALTY: 100
STLB RFO       ACCESS: 2188825  HIT: 1158987  MISS: 1029838  HIT %: 52.9502  MISS %: 47.0498  AVERAGE MISS PENALTY: 100
STLB PREFETCH  ACCESS:     0  HIT:     0  MISS:     0  HIT %:     0  MISS %:     0  AVERAGE MISS PENALTY: 0
STLB WRITEBACK ACCESS:     0  HIT:     0  MISS:     0  HIT %:     0  MISS %:     0  AVERAGE MISS PENALTY: 0
STLB PREFETCH  REQUESTED:     0  ISSUED:     0  USEFUL:     0  USELESS:     0
 USEFUL LOAD PREFETCHES:          0 PREFETCH ISSUED TO LOWER LEVEL:          0  ACCURACY: -nan
 TIMELY PREFETCHES:          0 LATE PREFETCHES: 0 DROPPED PREFETCHES: 0
STLB AVERAGE MISS LATENCY: 100 cycles
L1D TOTAL     ACCESS: 95918141  HIT: 31080621  MISS: 64837520  HIT %: 32.4033  MISS %: 67.5967  AVERAGE MISS PENALTY: 300625
L1D LOAD      ACCESS: 40353735  HIT: 22872207  MISS: 17481528  HIT %: 56.6793  MISS %: 43.3207  AVERAGE MISS PENALTY: 1.11486e+06
L1D RFO       ACCESS: 6146316  HIT: 6103083  MISS: 43233  HIT %: 99.2966  MISS %: 0.703397  AVERAGE MISS PENALTY: 65.0582
L1D PREFETCH  ACCESS: 49418090  HIT: 2105331  MISS: 47312759  HIT %: 4.26024  MISS %: 95.7398  AVERAGE MISS PENALTY: 49.8741
L1D WRITEBACK ACCESS:     0  HIT:     0  MISS:     0  HIT %:     0  MISS %:     0  AVERAGE MISS PENALTY: 0
L1D PREFETCH  REQUESTED: 85721132  ISSUED: 49786813  USEFUL: 954585  USELESS: 46358239
 USEFUL LOAD PREFETCHES:     954585 PREFETCH ISSUED TO LOWER LEVEL:  151555710  ACCURACY: 0.629857
 TIMELY PREFETCHES:     954585 LATE PREFETCHES: 121006 DROPPED PREFETCHES: 35934319
L1D AVERAGE MISS LATENCY: 51.456 cycles
L1I TOTAL     ACCESS: 52103691  HIT: 52103691  MISS:     0  HIT %:   100  MISS %:     0  AVERAGE MISS PENALTY: 0
L1I LOAD      ACCESS: 52103691  HIT: 52103691  MISS:     0  HIT %:   100  MISS %:     0  AVERAGE MISS PENALTY: 0
L1I RFO       ACCESS:     0  HIT:     0  MISS:     0  HIT %:     0  MISS %:     0  AVERAGE MISS PENALTY: 0
L1I PREFETCH  ACCESS:     0  HIT:     0  MISS:     0  HIT %:     0  MISS %:     0  AVERAGE MISS PENALTY: 0
L1I WRITEBACK ACCESS:     0  HIT:     0  MISS:     0  HIT %:     0  MISS %:     0  AVERAGE MISS PENALTY: 0
L1I PREFETCH  REQUESTED:     0  ISSUED:     0  USEFUL:     0  USELESS:     0
 USEFUL LOAD PREFETCHES:          0 PREFETCH ISSUED TO LOWER LEVEL:          0  ACCURACY: -nan
 TIMELY PREFETCHES:          0 LATE PREFETCHES: 0 DROPPED PREFETCHES: 0
L1I AVERAGE MISS LATENCY: -nan cycles
L2C TOTAL     ACCESS: 121370594  HIT: 20207034  MISS: 101163560  HIT %: 16.649  MISS %: 83.351  AVERAGE MISS PENALTY: 64215.7
L2C LOAD      ACCESS: 17480612  HIT: 2115988  MISS: 15364624  HIT %: 12.1048  MISS %: 87.8952  AVERAGE MISS PENALTY: 422601
L2C RFO       ACCESS: 43232  HIT: 29118  MISS: 14114  HIT %: 67.3529  MISS %: 32.6471  AVERAGE MISS PENALTY: 123.731
L2C PREFETCH  ACCESS: 100725833  HIT: 14945857  MISS: 85779976  HIT %: 14.8382  MISS %: 85.1618  AVERAGE MISS PENALTY: 37.094
L2C WRITEBACK ACCESS: 3120917  HIT: 3116071  MISS:  4846  HIT %: 99.8447  MISS %: 0.155275  AVERAGE MISS PENALTY: 0
L2C PREFETCH  REQUESTED: 205297798  ISSUED: 188849658  USEFUL: 982473  USELESS: 84797925
 USEFUL LOAD PREFETCHES:     982473 PREFETCH ISSUED TO LOWER LEVEL:   89856739  ACCURACY: 1.09338
 TIMELY PREFETCHES:     982473 LATE PREFETCHES: 322233 DROPPED PREFETCHES: 16448140
L2C AVERAGE MISS LATENCY: 37.3674 cycles
LLC0 TOTAL     ACCESS: 13300207  HIT: 13080329  MISS: 219878  HIT %: 98.3468  MISS %: 1.65319  AVERAGE MISS PENALTY: 143.018
LLC0 LOAD      ACCESS: 1952327  HIT: 1900151  MISS: 52176  HIT %: 97.3275  MISS %: 2.6725  AVERAGE MISS PENALTY: 163.084
LLC0 RFO       ACCESS:  1766  HIT:   847  MISS:   919  HIT %: 47.9615  MISS %: 52.0385  AVERAGE MISS PENALTY: 159.901
LLC0 PREFETCH  ACCESS: 10961081  HIT: 10794349  MISS: 166732  HIT %: 98.4789  MISS %: 1.52113  AVERAGE MISS PENALTY: 136.69
LLC0 WRITEBACK ACCESS: 385033  HIT: 384982  MISS:    51  HIT %: 99.9868  MISS %: 0.0132456  AVERAGE MISS PENALTY: 0
LLC0 PREFETCH  REQUESTED:     0  ISSUED:     0  USEFUL:  7868  USELESS: 147980
 USEFUL LOAD PREFETCHES:       7868 PREFETCH ISSUED TO LOWER LEVEL:     166732  ACCURACY: 4.71895
 TIMELY PREFETCHES:       7868 LATE PREFETCHES: 0 DROPPED PREFETCHES: 0
LLC0 AVERAGE MISS LATENCY: 143.018 cycles
Deadblocks : 47683 Deadblock percentage : 91.3888

LLC1 TOTAL     ACCESS: 13342643  HIT: 13123845  MISS: 218798  HIT %: 98.3602  MISS %: 1.63984  AVERAGE MISS PENALTY: 141.406
LLC1 LOAD      ACCESS: 1906974  HIT: 1869788  MISS: 37186  HIT %: 98.05  MISS %:  1.95  AVERAGE MISS PENALTY: 164.651
LLC1 RFO       ACCESS:  1771  HIT:   883  MISS:   888  HIT %: 49.8588  MISS %: 50.1412  AVERAGE MISS PENALTY: 155.225
LLC1 PREFETCH  ACCESS: 11048384  HIT: 10867712  MISS: 180672  HIT %: 98.3647  MISS %: 1.63528  AVERAGE MISS PENALTY: 136.595
LLC1 WRITEBACK ACCESS: 385514  HIT: 385462  MISS:    52  HIT %: 99.9865  MISS %: 0.0134885  AVERAGE MISS PENALTY: 0
LLC1 PREFETCH  REQUESTED:     0  ISSUED:     0  USEFUL:  8076  USELESS: 161608
 USEFUL LOAD PREFETCHES:       8076 PREFETCH ISSUED TO LOWER LEVEL:     180672  ACCURACY: 4.46998
 TIMELY PREFETCHES:       8076 LATE PREFETCHES: 0 DROPPED PREFETCHES: 0
LLC1 AVERAGE MISS LATENCY: 141.406 cycles
LLC2 TOTAL     ACCESS: 13305790  HIT: 13087492  MISS: 218298  HIT %: 98.3594  MISS %: 1.64062  AVERAGE MISS PENALTY: 140.842
LLC2 LOAD      ACCESS: 1914319  HIT: 1878784  MISS: 35535  HIT %: 98.1437  MISS %: 1.85627  AVERAGE MISS PENALTY: 164.263
LLC2 RFO       ACCESS:  1744  HIT:   853  MISS:   891  HIT %: 48.9106  MISS %: 51.0894  AVERAGE MISS PENALTY: 153.728
LLC2 PREFETCH  ACCESS: 11004040  HIT: 10822208  MISS: 181832  HIT %: 98.3476  MISS %: 1.65241  AVERAGE MISS PENALTY: 136.233
LLC2 WRITEBACK ACCESS: 385687  HIT: 385647  MISS:    40  HIT %: 99.9896  MISS %: 0.0103711  AVERAGE MISS PENALTY: 0
LLC2 PREFETCH  REQUESTED:     0  ISSUED:     0  USEFUL:  7830  USELESS: 163398
 USEFUL LOAD PREFETCHES:       7830 PREFETCH ISSUED TO LOWER LEVEL:     181832  ACCURACY: 4.30617
 TIMELY PREFETCHES:       7830 LATE PREFETCHES: 0 DROPPED PREFETCHES: 0
LLC2 AVERAGE MISS LATENCY: 140.842 cycles
LLC3 TOTAL     ACCESS: 13206944  HIT: 12988571  MISS: 218373  HIT %: 98.3465  MISS %: 1.65347  AVERAGE MISS PENALTY: 140.89
LLC3 LOAD      ACCESS: 1967929  HIT: 1933131  MISS: 34798  HIT %: 98.2317  MISS %: 1.76825  AVERAGE MISS PENALTY: 164.103
LLC3 RFO       ACCESS:  1782  HIT:   890  MISS:   892  HIT %: 49.9439  MISS %: 50.0561  AVERAGE MISS PENALTY: 150.469
LLC3 PREFETCH  ACCESS: 10856099  HIT: 10673457  MISS: 182642  HIT %: 98.3176  MISS %: 1.68239  AVERAGE MISS PENALTY: 136.453
LLC3 WRITEBACK ACCESS: 381134  HIT: 381093  MISS:    41  HIT %: 99.9892  MISS %: 0.0107574  AVERAGE MISS PENALTY: 0
LLC3 PREFETCH  REQUESTED:     0  ISSUED:     0  USEFUL:  8274  USELESS: 163778
 USEFUL LOAD PREFETCHES:       8274 PREFETCH ISSUED TO LOWER LEVEL:     182642  ACCURACY: 4.53017
 TIMELY PREFETCHES:       8274 LATE PREFETCHES: 0 DROPPED PREFETCHES: 0
LLC3 AVERAGE MISS LATENCY: 140.89 cycles
LLC4 TOTAL     ACCESS: 13013471  HIT: 12794863  MISS: 218608  HIT %: 98.3201  MISS %: 1.67986  AVERAGE MISS PENALTY: 141.266
LLC4 LOAD      ACCESS: 1918561  HIT: 1884800  MISS: 33761  HIT %: 98.2403  MISS %: 1.7597  AVERAGE MISS PENALTY: 163.308
LLC4 RFO       ACCESS:  1776  HIT:   864  MISS:   912  HIT %: 48.6486  MISS %: 51.3514  AVERAGE MISS PENALTY: 155.067
LLC4 PREFETCH  ACCESS: 10709209  HIT: 10525315  MISS: 183894  HIT %: 98.2828  MISS %: 1.71716  AVERAGE MISS PENALTY: 137.182
LLC4 WRITEBACK ACCESS: 383925  HIT: 383884  MISS:    41  HIT %: 99.9893  MISS %: 0.0106792  AVERAGE MISS PENALTY: 0
LLC4 PREFETCH  REQUESTED:     0  ISSUED:     0  USEFUL: 11135  USELESS: 161448
 USEFUL LOAD PREFETCHES:      11135 PREFETCH ISSUED TO LOWER LEVEL:     183894  ACCURACY: 6.05512
 TIMELY PREFETCHES:      11135 LATE PREFETCHES: 0 DROPPED PREFETCHES: 0
LLC4 AVERAGE MISS LATENCY: 141.266 cycles
LLC5 TOTAL     ACCESS: 12867119  HIT: 12647563  MISS: 219556  HIT %: 98.2937  MISS %: 1.70633  AVERAGE MISS PENALTY: 142.422
LLC5 LOAD      ACCESS: 1909298  HIT: 1876022  MISS: 33276  HIT %: 98.2572  MISS %: 1.74284  AVERAGE MISS PENALTY: 163.848
LLC5 RFO       ACCESS:  1767  HIT:   852  MISS:   915  HIT %: 48.2173  MISS %: 51.7827  AVERAGE MISS PENALTY: 155.404
LLC5 PREFETCH  ACCESS: 10575048  HIT: 10389720  MISS: 185328  HIT %: 98.2475  MISS %: 1.7525  AVERAGE MISS PENALTY: 138.539
LLC5 WRITEBACK ACCESS: 381006  HIT: 380969  MISS:    37  HIT %: 99.9903  MISS %: 0.00971113  AVERAGE MISS PENALTY: 0
LLC5 PREFETCH  REQUESTED:     0  ISSUED:     0  USEFUL: 11606  USELESS: 162355
 USEFUL LOAD PREFETCHES:      11606 PREFETCH ISSUED TO LOWER LEVEL:     185328  ACCURACY: 6.26241
 TIMELY PREFETCHES:      11606 LATE PREFETCHES: 0 DROPPED PREFETCHES: 0
LLC5 AVERAGE MISS LATENCY: 142.422 cycles
LLC6 TOTAL     ACCESS: 12674162  HIT: 12445026  MISS: 229136  HIT %: 98.1921  MISS %: 1.8079  AVERAGE MISS PENALTY: 147.445
LLC6 LOAD      ACCESS: 1833941  HIT: 1796315  MISS: 37626  HIT %: 97.9484  MISS %: 2.05165  AVERAGE MISS PENALTY: 165.855
LLC6 RFO       ACCESS:  1760  HIT:   822  MISS:   938  HIT %: 46.7045  MISS %: 53.2955  AVERAGE MISS PENALTY: 164.403
LLC6 PREFETCH  ACCESS: 10451762  HIT: 10261246  MISS: 190516  HIT %: 98.1772  MISS %: 1.82281  AVERAGE MISS PENALTY: 143.768
LLC6 WRITEBACK ACCESS: 386699  HIT: 386643  MISS:    56  HIT %: 99.9855  MISS %: 0.0144815  AVERAGE MISS PENALTY: 0
LLC6 PREFETCH  REQUESTED:     0  ISSUED:     0  USEFUL: 14995  USELESS: 164338
 USEFUL LOAD PREFETCHES:      14995 PREFETCH ISSUED TO LOWER LEVEL:     190516  ACCURACY: 7.87073
 TIMELY PREFETCHES:      14995 LATE PREFETCHES: 0 DROPPED PREFETCHES: 0
LLC6 AVERAGE MISS LATENCY: 147.445 cycles
LLC7 TOTAL     ACCESS: 12521134  HIT: 12289736  MISS: 231398  HIT %: 98.1519  MISS %: 1.84806  AVERAGE MISS PENALTY: 149.189
LLC7 LOAD      ACCESS: 1958253  HIT: 1919575  MISS: 38678  HIT %: 98.0249  MISS %: 1.97513  AVERAGE MISS PENALTY: 166.78
LLC7 RFO       ACCESS:  1747  HIT:   788  MISS:   959  HIT %: 45.1059  MISS %: 54.8941  AVERAGE MISS PENALTY: 162.669
LLC7 PREFETCH  ACCESS: 10177371  HIT: 9985690  MISS: 191681  HIT %: 98.1166  MISS %: 1.8834  AVERAGE MISS PENALTY: 145.635
LLC7 WRITEBACK ACCESS: 383763  HIT: 383683  MISS:    80  HIT %: 99.9792  MISS %: 0.0208462  AVERAGE MISS PENALTY: 0
LLC7 PREFETCH  REQUESTED:     0  ISSUED:     0  USEFUL: 16374  USELESS: 163564
 USEFUL LOAD PREFETCHES:      16374 PREFETCH ISSUED TO LOWER LEVEL:     191681  ACCURACY: 8.54232
 TIMELY PREFETCHES:      16374 LATE PREFETCHES: 0 DROPPED PREFETCHES: 0
LLC7 AVERAGE MISS LATENCY: 149.189 cycles
ROI Average ROB Stall Cycles:	11.4577
ROI Total ROB Stalls Cycles:	739926161
ROI TOTAL ROB counter      :	64579020
ROI Average Load ROB Stall Cycles:	53.7838
ROI Total Load ROB Stalls Cycle  :	336684271
ROI Total Load ROB stalls Counter:	6259960
Major fault: 0 Minor fault: 37408

