
*** ChampSim Multicore Out-of-Order Simulator ***

Warmup Instructions: 200000000
Simulation Instructions: 200000000
Number of CPUs: 1
threads:1

L1I Configuration:
L1I_SET:64
L1I_WAY:8
L1I_RQ_SIZE:64
L1I_WQ_SIZE:64
L1I_PQ_SIZE:8
L1I_MSHR_SIZE:8

L1D Configuration:
L1D_SET:64
L1D_WAY:12
L1D_RQ_SIZE:64
L1D_WQ_SIZE:64
L1D_PQ_SIZE:8
L1D_MSHR_SIZE:16

L2C Configuration:
L2C_SET:1024
L2C_WAY:8
L2C_RQ_SIZE:32
L2C_WQ_SIZE:32
L2C_PQ_SIZE:16
L2C_MSHR_SIZE:32

LLC Configuration:
LLC_SET:2048
LLC_WAY:16
LLC SLICES:8
LLC_RQ_SIZE:64
LLC_WQ_SIZE:64
LLC_PQ_SIZE:32
LLC_MSHR_SIZE:64

Interconnect OFF
Attacker deprioritize is: OFF
Off-chip DRAM Size: 4096 MB Channels: 1 Width: 64-bit Data Rate: 3200 MT/s
PAGE SIZE in KB: 4.000000 
PAGE SIZE in MB: 0.003906 
PAGE offset in bits: 12 
CEASER-S_LLC:0
MIRAGE : 0
CEASER_LATENCY:3
REMAP : OFF
Partitions : 1
Multi-Step : OFF
BFS : OFF

CPU 0 runs /home/anubhav/gap/bc-3.trace.gz
CPU 0 Bimodal branch predictor
Initialize Hawkeye state
Initialize Hawkeye state
Initialize Hawkeye state
Initialize Hawkeye state
Initialize Hawkeye state
Initialize Hawkeye state
Initialize Hawkeye state
Initialize Hawkeye state
Heartbeat CPU 0 instructions: 10000001 cycles: 7843542 heartbeat IPC: 1.27493 cumulative IPC: 1.27493 (Simulation time: 0 hr 1 min 4 sec) 
 Total Blocks : 262144 Invalid Blocks : 65327
Heartbeat CPU 0 instructions: 20000000 cycles: 19637549 heartbeat IPC: 0.847888 cumulative IPC: 1.01846 (Simulation time: 0 hr 2 min 13 sec) 
 Total Blocks : 262144 Invalid Blocks : 57953
Heartbeat CPU 0 instructions: 30000001 cycles: 29929540 heartbeat IPC: 0.971629 cumulative IPC: 1.00235 (Simulation time: 0 hr 3 min 25 sec) 
 Total Blocks : 262144 Invalid Blocks : 55095
Heartbeat CPU 0 instructions: 40000003 cycles: 39783067 heartbeat IPC: 1.01487 cumulative IPC: 1.00545 (Simulation time: 0 hr 4 min 38 sec) 
 Total Blocks : 262144 Invalid Blocks : 52396
Heartbeat CPU 0 instructions: 50000000 cycles: 49595880 heartbeat IPC: 1.01908 cumulative IPC: 1.00815 (Simulation time: 0 hr 5 min 52 sec) 
 Total Blocks : 262144 Invalid Blocks : 50053
Heartbeat CPU 0 instructions: 60000000 cycles: 59390408 heartbeat IPC: 1.02098 cumulative IPC: 1.01026 (Simulation time: 0 hr 7 min 5 sec) 
 Total Blocks : 262144 Invalid Blocks : 47922
Heartbeat CPU 0 instructions: 70000002 cycles: 69095785 heartbeat IPC: 1.03036 cumulative IPC: 1.01309 (Simulation time: 0 hr 8 min 20 sec) 
 Total Blocks : 262144 Invalid Blocks : 46045
Heartbeat CPU 0 instructions: 80000003 cycles: 78740024 heartbeat IPC: 1.03689 cumulative IPC: 1.016 (Simulation time: 0 hr 9 min 35 sec) 
 Total Blocks : 262144 Invalid Blocks : 44226
Heartbeat CPU 0 instructions: 90000000 cycles: 88327019 heartbeat IPC: 1.04308 cumulative IPC: 1.01894 (Simulation time: 0 hr 10 min 51 sec) 
 Total Blocks : 262144 Invalid Blocks : 42765
Heartbeat CPU 0 instructions: 100000002 cycles: 97813039 heartbeat IPC: 1.05418 cumulative IPC: 1.02236 (Simulation time: 0 hr 12 min 8 sec) 
 Total Blocks : 262144 Invalid Blocks : 41454
Heartbeat CPU 0 instructions: 110000000 cycles: 107324285 heartbeat IPC: 1.05139 cumulative IPC: 1.02493 (Simulation time: 0 hr 13 min 27 sec) 
 Total Blocks : 262144 Invalid Blocks : 40203
Heartbeat CPU 0 instructions: 120000000 cycles: 116665631 heartbeat IPC: 1.07051 cumulative IPC: 1.02858 (Simulation time: 0 hr 14 min 48 sec) 
 Total Blocks : 262144 Invalid Blocks : 39132
Heartbeat CPU 0 instructions: 130000001 cycles: 126132999 heartbeat IPC: 1.05626 cumulative IPC: 1.03066 (Simulation time: 0 hr 16 min 13 sec) 
 Total Blocks : 262144 Invalid Blocks : 38168
Heartbeat CPU 0 instructions: 140000000 cycles: 135530212 heartbeat IPC: 1.06415 cumulative IPC: 1.03298 (Simulation time: 0 hr 17 min 40 sec) 
 Total Blocks : 262144 Invalid Blocks : 37161
Heartbeat CPU 0 instructions: 150000000 cycles: 144923124 heartbeat IPC: 1.06463 cumulative IPC: 1.03503 (Simulation time: 0 hr 19 min 7 sec) 
 Total Blocks : 262144 Invalid Blocks : 36340
Heartbeat CPU 0 instructions: 160000000 cycles: 154096617 heartbeat IPC: 1.0901 cumulative IPC: 1.03831 (Simulation time: 0 hr 20 min 38 sec) 
 Total Blocks : 262144 Invalid Blocks : 35330
Heartbeat CPU 0 instructions: 170000000 cycles: 163129095 heartbeat IPC: 1.10712 cumulative IPC: 1.04212 (Simulation time: 0 hr 22 min 8 sec) 
 Total Blocks : 262144 Invalid Blocks : 34107
Heartbeat CPU 0 instructions: 180000003 cycles: 171983737 heartbeat IPC: 1.12935 cumulative IPC: 1.04661 (Simulation time: 0 hr 23 min 32 sec) 
 Total Blocks : 262144 Invalid Blocks : 32760
Heartbeat CPU 0 instructions: 190000002 cycles: 180784610 heartbeat IPC: 1.13625 cumulative IPC: 1.05097 (Simulation time: 0 hr 24 min 53 sec) 
 Total Blocks : 262144 Invalid Blocks : 31179
Heartbeat CPU 0 instructions: 200000002 cycles: 189549780 heartbeat IPC: 1.14088 cumulative IPC: 1.05513 (Simulation time: 0 hr 26 min 14 sec) 
 Total Blocks : 262144 Invalid Blocks : 29494

Warmup complete CPU 0 instructions: 200000002 cycles: 189549780 (Simulation time: 0 hr 26 min 14 sec) 

Heartbeat CPU 0 instructions: 210000002 cycles: 228971114 heartbeat IPC: 0.25367 cumulative IPC: 0.25367 (Simulation time: 0 hr 29 min 8 sec) 
 Total Blocks : 262144 Invalid Blocks : 27798
Heartbeat CPU 0 instructions: 220000000 cycles: 268468315 heartbeat IPC: 0.253182 cumulative IPC: 0.253426 (Simulation time: 0 hr 32 min 2 sec) 
 Total Blocks : 262144 Invalid Blocks : 26531
Heartbeat CPU 0 instructions: 230000000 cycles: 307904354 heartbeat IPC: 0.253575 cumulative IPC: 0.253476 (Simulation time: 0 hr 34 min 55 sec) 
 Total Blocks : 262144 Invalid Blocks : 25248
Heartbeat CPU 0 instructions: 240000001 cycles: 347272547 heartbeat IPC: 0.254012 cumulative IPC: 0.25361 (Simulation time: 0 hr 37 min 51 sec) 
 Total Blocks : 262144 Invalid Blocks : 24008
Heartbeat CPU 0 instructions: 250000001 cycles: 386791434 heartbeat IPC: 0.253044 cumulative IPC: 0.253496 (Simulation time: 0 hr 40 min 42 sec) 
 Total Blocks : 262144 Invalid Blocks : 22941
Heartbeat CPU 0 instructions: 260000000 cycles: 426222971 heartbeat IPC: 0.253604 cumulative IPC: 0.253514 (Simulation time: 0 hr 43 min 33 sec) 
 Total Blocks : 262144 Invalid Blocks : 21974
Heartbeat CPU 0 instructions: 270000001 cycles: 465709688 heartbeat IPC: 0.25325 cumulative IPC: 0.253476 (Simulation time: 0 hr 46 min 24 sec) 
 Total Blocks : 262144 Invalid Blocks : 21095
Heartbeat CPU 0 instructions: 280000003 cycles: 505169244 heartbeat IPC: 0.253424 cumulative IPC: 0.25347 (Simulation time: 0 hr 49 min 20 sec) 
 Total Blocks : 262144 Invalid Blocks : 20134
Heartbeat CPU 0 instructions: 290000000 cycles: 544493232 heartbeat IPC: 0.254298 cumulative IPC: 0.253561 (Simulation time: 0 hr 52 min 18 sec) 
 Total Blocks : 262144 Invalid Blocks : 19345
Heartbeat CPU 0 instructions: 300000000 cycles: 583972406 heartbeat IPC: 0.253298 cumulative IPC: 0.253535 (Simulation time: 0 hr 55 min 14 sec) 
 Total Blocks : 262144 Invalid Blocks : 18631
Heartbeat CPU 0 instructions: 310000002 cycles: 623345735 heartbeat IPC: 0.253979 cumulative IPC: 0.253575 (Simulation time: 0 hr 58 min 5 sec) 
 Total Blocks : 262144 Invalid Blocks : 18062
Heartbeat CPU 0 instructions: 320000000 cycles: 662758128 heartbeat IPC: 0.253727 cumulative IPC: 0.253588 (Simulation time: 1 hr 0 min 57 sec) 
 Total Blocks : 262144 Invalid Blocks : 17470
Heartbeat CPU 0 instructions: 330000000 cycles: 706114945 heartbeat IPC: 0.230644 cumulative IPC: 0.251662 (Simulation time: 1 hr 3 min 47 sec) 
 Total Blocks : 262144 Invalid Blocks : 16290
Heartbeat CPU 0 instructions: 340000002 cycles: 752291298 heartbeat IPC: 0.216561 cumulative IPC: 0.248782 (Simulation time: 1 hr 6 min 40 sec) 
 Total Blocks : 262144 Invalid Blocks : 14959
Heartbeat CPU 0 instructions: 350000001 cycles: 798883838 heartbeat IPC: 0.214627 cumulative IPC: 0.24617 (Simulation time: 1 hr 9 min 34 sec) 
 Total Blocks : 262144 Invalid Blocks : 13465
Heartbeat CPU 0 instructions: 360000000 cycles: 839009499 heartbeat IPC: 0.249217 cumulative IPC: 0.246359 (Simulation time: 1 hr 12 min 21 sec) 
 Total Blocks : 262144 Invalid Blocks : 12063
Heartbeat CPU 0 instructions: 370000000 cycles: 863775424 heartbeat IPC: 0.403781 cumulative IPC: 0.252141 (Simulation time: 1 hr 14 min 47 sec) 
 Total Blocks : 262144 Invalid Blocks : 10968
Heartbeat CPU 0 instructions: 380000000 cycles: 890592030 heartbeat IPC: 0.372903 cumulative IPC: 0.256761 (Simulation time: 1 hr 17 min 16 sec) 
 Total Blocks : 262144 Invalid Blocks : 9772
Heartbeat CPU 0 instructions: 390000001 cycles: 923547738 heartbeat IPC: 0.303438 cumulative IPC: 0.258856 (Simulation time: 1 hr 19 min 56 sec) 
 Total Blocks : 262144 Invalid Blocks : 8484
Heartbeat CPU 0 instructions: 400000001 cycles: 963060397 heartbeat IPC: 0.253083 cumulative IPC: 0.258561 (Simulation time: 1 hr 22 min 47 sec) 
 Total Blocks : 262144 Invalid Blocks : 7037
Finished CPU 0 instructions: 200000003 cycles: 773510619 cumulative IPC: 0.258561 (Simulation time: 1 hr 22 min 47 sec) 

CPU 0 Branch Prediction Accuracy: 93.7169% MPKI: 14.5239 Average ROB Occupancy at Mispredict: 67.1203

ChampSim completed all CPUs

Region of Interest Statistics

CPU 0 cumulative IPC: 0.258561 instructions: 200000003 cycles: 773510619
ITLB TOTAL     ACCESS: 29358861  HIT: 29358861  MISS:     0  HIT %:   100  MISS %:     0  AVERAGE MISS PENALTY: 0
ITLB LOAD      ACCESS: 29358861  HIT: 29358861  MISS:     0  HIT %:   100  MISS %:     0  AVERAGE MISS PENALTY: 0
ITLB RFO       ACCESS:     0  HIT:     0  MISS:     0  HIT %:     0  MISS %:     0  AVERAGE MISS PENALTY: 0
ITLB PREFETCH  ACCESS:     0  HIT:     0  MISS:     0  HIT %:     0  MISS %:     0  AVERAGE MISS PENALTY: 0
ITLB WRITEBACK ACCESS:     0  HIT:     0  MISS:     0  HIT %:     0  MISS %:     0  AVERAGE MISS PENALTY: 0
ITLB PREFETCH  REQUESTED:     0  ISSUED:     0  USEFUL:     0  USELESS:     0
 USEFUL LOAD PREFETCHES:          0 PREFETCH ISSUED TO LOWER LEVEL:          0  ACCURACY: -nan
 TIMELY PREFETCHES:          0 LATE PREFETCHES: 0 DROPPED PREFETCHES: 0
ITLB AVERAGE MISS LATENCY: -nan cycles
DTLB TOTAL     ACCESS: 42264304  HIT: 27322639  MISS: 14941665  HIT %: 64.6471  MISS %: 35.3529  AVERAGE MISS PENALTY: 32.5712
DTLB LOAD      ACCESS: 37513753  HIT: 24699168  MISS: 12814585  HIT %: 65.8403  MISS %: 34.1597  AVERAGE MISS PENALTY: 26.6985
DTLB RFO       ACCESS: 4750551  HIT: 2623471  MISS: 2127080  HIT %: 55.2246  MISS %: 44.7754  AVERAGE MISS PENALTY: 67.9515
DTLB PREFETCH  ACCESS:     0  HIT:     0  MISS:     0  HIT %:     0  MISS %:     0  AVERAGE MISS PENALTY: 0
DTLB WRITEBACK ACCESS:     0  HIT:     0  MISS:     0  HIT %:     0  MISS %:     0  AVERAGE MISS PENALTY: 0
DTLB PREFETCH  REQUESTED:     0  ISSUED:     0  USEFUL:     0  USELESS:     0
 USEFUL LOAD PREFETCHES:          0 PREFETCH ISSUED TO LOWER LEVEL:          0  ACCURACY: -nan
 TIMELY PREFETCHES:          0 LATE PREFETCHES: 0 DROPPED PREFETCHES: 0
DTLB AVERAGE MISS LATENCY: 32.5712 cycles
STLB TOTAL     ACCESS: 14941665  HIT: 13115091  MISS: 1826574  HIT %: 87.7753  MISS %: 12.2247  AVERAGE MISS PENALTY: 100
STLB LOAD      ACCESS: 12814585  HIT: 12061228  MISS: 753357  HIT %: 94.1211  MISS %: 5.8789  AVERAGE MISS PENALTY: 100
STLB RFO       ACCESS: 2127080  HIT: 1053863  MISS: 1073217  HIT %: 49.5451  MISS %: 50.4549  AVERAGE MISS PENALTY: 100
STLB PREFETCH  ACCESS:     0  HIT:     0  MISS:     0  HIT %:     0  MISS %:     0  AVERAGE MISS PENALTY: 0
STLB WRITEBACK ACCESS:     0  HIT:     0  MISS:     0  HIT %:     0  MISS %:     0  AVERAGE MISS PENALTY: 0
STLB PREFETCH  REQUESTED:     0  ISSUED:     0  USEFUL:     0  USELESS:     0
 USEFUL LOAD PREFETCHES:          0 PREFETCH ISSUED TO LOWER LEVEL:          0  ACCURACY: -nan
 TIMELY PREFETCHES:          0 LATE PREFETCHES: 0 DROPPED PREFETCHES: 0
STLB AVERAGE MISS LATENCY: 100 cycles
L1D TOTAL     ACCESS: 89206689  HIT: 27771006  MISS: 61435683  HIT %: 31.1311  MISS %: 68.8689  AVERAGE MISS PENALTY: 208076
L1D LOAD      ACCESS: 38059805  HIT: 20383292  MISS: 17676513  HIT %: 53.556  MISS %: 46.444  AVERAGE MISS PENALTY: 723058
L1D RFO       ACCESS: 4848174  HIT: 4809018  MISS: 39156  HIT %: 99.1924  MISS %: 0.807644  AVERAGE MISS PENALTY: 70.2112
L1D PREFETCH  ACCESS: 46298710  HIT: 2578696  MISS: 43720014  HIT %: 5.56969  MISS %: 94.4303  AVERAGE MISS PENALTY: 49.4709
L1D WRITEBACK ACCESS:     0  HIT:     0  MISS:     0  HIT %:     0  MISS %:     0  AVERAGE MISS PENALTY: 0
L1D PREFETCH  REQUESTED: 88145989  ISSUED: 46593513  USEFUL: 929454  USELESS: 42790606
 USEFUL LOAD PREFETCHES:     929454 PREFETCH ISSUED TO LOWER LEVEL:  157748001  ACCURACY: 0.589202
 TIMELY PREFETCHES:     929454 LATE PREFETCHES: 97925 DROPPED PREFETCHES: 41552476
L1D AVERAGE MISS LATENCY: 52.1389 cycles
L1I TOTAL     ACCESS: 45057497  HIT: 45057497  MISS:     0  HIT %:   100  MISS %:     0  AVERAGE MISS PENALTY: 0
L1I LOAD      ACCESS: 45057497  HIT: 45057497  MISS:     0  HIT %:   100  MISS %:     0  AVERAGE MISS PENALTY: 0
L1I RFO       ACCESS:     0  HIT:     0  MISS:     0  HIT %:     0  MISS %:     0  AVERAGE MISS PENALTY: 0
L1I PREFETCH  ACCESS:     0  HIT:     0  MISS:     0  HIT %:     0  MISS %:     0  AVERAGE MISS PENALTY: 0
L1I WRITEBACK ACCESS:     0  HIT:     0  MISS:     0  HIT %:     0  MISS %:     0  AVERAGE MISS PENALTY: 0
L1I PREFETCH  REQUESTED:     0  ISSUED:     0  USEFUL:     0  USELESS:     0
 USEFUL LOAD PREFETCHES:          0 PREFETCH ISSUED TO LOWER LEVEL:          0  ACCURACY: -nan
 TIMELY PREFETCHES:          0 LATE PREFETCHES: 0 DROPPED PREFETCHES: 0
L1I AVERAGE MISS LATENCY: -nan cycles
L2C TOTAL     ACCESS: 115456839  HIT: 21928992  MISS: 93527847  HIT %: 18.9932  MISS %: 81.0068  AVERAGE MISS PENALTY: 73543.1
L2C LOAD      ACCESS: 17675694  HIT: 2462222  MISS: 15213472  HIT %: 13.93  MISS %: 86.07  AVERAGE MISS PENALTY: 451905
L2C RFO       ACCESS: 39143  HIT: 27520  MISS: 11623  HIT %: 70.3063  MISS %: 29.6937  AVERAGE MISS PENALTY: 181.213
L2C PREFETCH  ACCESS: 95283651  HIT: 16985610  MISS: 78298041  HIT %: 17.8264  MISS %: 82.1736  AVERAGE MISS PENALTY: 41.9168
L2C WRITEBACK ACCESS: 2458351  HIT: 2453640  MISS:  4711  HIT %: 99.8084  MISS %: 0.191633  AVERAGE MISS PENALTY: 0
L2C PREFETCH  REQUESTED: 199549981  ISSUED: 177239665  USEFUL: 1165602  USELESS: 77132722
 USEFUL LOAD PREFETCHES:    1165602 PREFETCH ISSUED TO LOWER LEVEL:   82520234  ACCURACY: 1.4125
 TIMELY PREFETCHES:    1165602 LATE PREFETCHES: 277705 DROPPED PREFETCHES: 22310316
L2C AVERAGE MISS LATENCY: 40.3889 cycles
LLC0 TOTAL     ACCESS: 12346988  HIT: 11999413  MISS: 347575  HIT %: 97.1849  MISS %: 2.81506  AVERAGE MISS PENALTY: 158.518
LLC0 LOAD      ACCESS: 1932772  HIT: 1821507  MISS: 111265  HIT %: 94.2432  MISS %: 5.75676  AVERAGE MISS PENALTY: 167.526
LLC0 RFO       ACCESS:  1449  HIT:   610  MISS:   839  HIT %: 42.098  MISS %: 57.902  AVERAGE MISS PENALTY: 224.199
LLC0 PREFETCH  ACCESS: 10113493  HIT: 9878257  MISS: 235236  HIT %: 97.674  MISS %: 2.32596  AVERAGE MISS PENALTY: 154.181
LLC0 WRITEBACK ACCESS: 299274  HIT: 299039  MISS:   235  HIT %: 99.9215  MISS %: 0.0785234  AVERAGE MISS PENALTY: 0
LLC0 PREFETCH  REQUESTED:     0  ISSUED:     0  USEFUL: 20669  USELESS: 210683
 USEFUL LOAD PREFETCHES:      20669 PREFETCH ISSUED TO LOWER LEVEL:     235236  ACCURACY: 8.7865
 TIMELY PREFETCHES:      20669 LATE PREFETCHES: 0 DROPPED PREFETCHES: 0
LLC0 AVERAGE MISS LATENCY: 158.518 cycles
Deadblocks : 93679 Deadblock percentage : 84.1945

LLC1 TOTAL     ACCESS: 12289470  HIT: 11939136  MISS: 350334  HIT %: 97.1493  MISS %: 2.85068  AVERAGE MISS PENALTY: 158.184
LLC1 LOAD      ACCESS: 1896312  HIT: 1800878  MISS: 95434  HIT %: 94.9674  MISS %: 5.03261  AVERAGE MISS PENALTY: 167.85
LLC1 RFO       ACCESS:  1470  HIT:   604  MISS:   866  HIT %: 41.0884  MISS %: 58.9116  AVERAGE MISS PENALTY: 228.71
LLC1 PREFETCH  ACCESS: 10089792  HIT: 9835929  MISS: 253863  HIT %: 97.484  MISS %: 2.51604  AVERAGE MISS PENALTY: 154.416
LLC1 WRITEBACK ACCESS: 301896  HIT: 301725  MISS:   171  HIT %: 99.9434  MISS %: 0.056642  AVERAGE MISS PENALTY: 0
LLC1 PREFETCH  REQUESTED:     0  ISSUED:     0  USEFUL: 23018  USELESS: 226659
 USEFUL LOAD PREFETCHES:      23018 PREFETCH ISSUED TO LOWER LEVEL:     253863  ACCURACY: 9.0671
 TIMELY PREFETCHES:      23018 LATE PREFETCHES: 0 DROPPED PREFETCHES: 0
LLC1 AVERAGE MISS LATENCY: 158.184 cycles
LLC2 TOTAL     ACCESS: 12226595  HIT: 11870432  MISS: 356163  HIT %: 97.087  MISS %: 2.91302  AVERAGE MISS PENALTY: 158.711
LLC2 LOAD      ACCESS: 1893210  HIT: 1797463  MISS: 95747  HIT %: 94.9426  MISS %: 5.05739  AVERAGE MISS PENALTY: 168.162
LLC2 RFO       ACCESS:  1456  HIT:   573  MISS:   883  HIT %: 39.3544  MISS %: 60.6456  AVERAGE MISS PENALTY: 237.727
LLC2 PREFETCH  ACCESS: 10032255  HIT: 9772890  MISS: 259365  HIT %: 97.4147  MISS %: 2.58531  AVERAGE MISS PENALTY: 155.056
LLC2 WRITEBACK ACCESS: 299674  HIT: 299506  MISS:   168  HIT %: 99.9439  MISS %: 0.0560609  AVERAGE MISS PENALTY: 0
LLC2 PREFETCH  REQUESTED:     0  ISSUED:     0  USEFUL: 24795  USELESS: 230094
 USEFUL LOAD PREFETCHES:      24795 PREFETCH ISSUED TO LOWER LEVEL:     259365  ACCURACY: 9.55989
 TIMELY PREFETCHES:      24795 LATE PREFETCHES: 0 DROPPED PREFETCHES: 0
LLC2 AVERAGE MISS LATENCY: 158.711 cycles
LLC3 TOTAL     ACCESS: 12143007  HIT: 11783820  MISS: 359187  HIT %: 97.042  MISS %: 2.95797  AVERAGE MISS PENALTY: 158.854
LLC3 LOAD      ACCESS: 1907495  HIT: 1813514  MISS: 93981  HIT %: 95.0731  MISS %: 4.92693  AVERAGE MISS PENALTY: 167.999
LLC3 RFO       ACCESS:  1464  HIT:   580  MISS:   884  HIT %: 39.6175  MISS %: 60.3825  AVERAGE MISS PENALTY: 231.457
LLC3 PREFETCH  ACCESS: 9935302  HIT: 9671178  MISS: 264124  HIT %: 97.3416  MISS %: 2.65844  AVERAGE MISS PENALTY: 155.476
LLC3 WRITEBACK ACCESS: 298746  HIT: 298548  MISS:   198  HIT %: 99.9337  MISS %: 0.066277  AVERAGE MISS PENALTY: 0
LLC3 PREFETCH  REQUESTED:     0  ISSUED:     0  USEFUL: 26638  USELESS: 233335
 USEFUL LOAD PREFETCHES:      26638 PREFETCH ISSUED TO LOWER LEVEL:     264124  ACCURACY: 10.0854
 TIMELY PREFETCHES:      26638 LATE PREFETCHES: 0 DROPPED PREFETCHES: 0
LLC3 AVERAGE MISS LATENCY: 158.854 cycles
LLC4 TOTAL     ACCESS: 12007175  HIT: 11636452  MISS: 370723  HIT %: 96.9125  MISS %: 3.08751  AVERAGE MISS PENALTY: 160.423
LLC4 LOAD      ACCESS: 1895935  HIT: 1797823  MISS: 98112  HIT %: 94.8251  MISS %: 5.17486  AVERAGE MISS PENALTY: 168.642
LLC4 RFO       ACCESS:  1443  HIT:   567  MISS:   876  HIT %: 39.2931  MISS %: 60.7069  AVERAGE MISS PENALTY: 222.789
LLC4 PREFETCH  ACCESS: 9809645  HIT: 9538151  MISS: 271494  HIT %: 97.2324  MISS %: 2.76762  AVERAGE MISS PENALTY: 157.394
LLC4 WRITEBACK ACCESS: 300152  HIT: 299911  MISS:   241  HIT %: 99.9197  MISS %: 0.0802927  AVERAGE MISS PENALTY: 0
LLC4 PREFETCH  REQUESTED:     0  ISSUED:     0  USEFUL: 29994  USELESS: 237163
 USEFUL LOAD PREFETCHES:      29994 PREFETCH ISSUED TO LOWER LEVEL:     271494  ACCURACY: 11.0478
 TIMELY PREFETCHES:      29994 LATE PREFETCHES: 0 DROPPED PREFETCHES: 0
LLC4 AVERAGE MISS LATENCY: 160.423 cycles
LLC5 TOTAL     ACCESS: 11853190  HIT: 11474039  MISS: 379151  HIT %: 96.8013  MISS %: 3.19873  AVERAGE MISS PENALTY: 161.413
LLC5 LOAD      ACCESS: 1889141  HIT: 1788231  MISS: 100910  HIT %: 94.6584  MISS %: 5.34158  AVERAGE MISS PENALTY: 169.077
LLC5 RFO       ACCESS:  1457  HIT:   553  MISS:   904  HIT %: 37.9547  MISS %: 62.0453  AVERAGE MISS PENALTY: 236.548
LLC5 PREFETCH  ACCESS: 9660087  HIT: 9383005  MISS: 277082  HIT %: 97.1317  MISS %: 2.86832  AVERAGE MISS PENALTY: 158.525
LLC5 WRITEBACK ACCESS: 302505  HIT: 302250  MISS:   255  HIT %: 99.9157  MISS %: 0.0842961  AVERAGE MISS PENALTY: 0
LLC5 PREFETCH  REQUESTED:     0  ISSUED:     0  USEFUL: 33100  USELESS: 239628
 USEFUL LOAD PREFETCHES:      33100 PREFETCH ISSUED TO LOWER LEVEL:     277082  ACCURACY: 11.9459
 TIMELY PREFETCHES:      33100 LATE PREFETCHES: 0 DROPPED PREFETCHES: 0
LLC5 AVERAGE MISS LATENCY: 161.413 cycles
LLC6 TOTAL     ACCESS: 11662619  HIT: 11274288  MISS: 388331  HIT %: 96.6703  MISS %: 3.32971  AVERAGE MISS PENALTY: 162.63
LLC6 LOAD      ACCESS: 1913734  HIT: 1809583  MISS: 104151  HIT %: 94.5577  MISS %: 5.44229  AVERAGE MISS PENALTY: 169.683
LLC6 RFO       ACCESS:  1437  HIT:   526  MISS:   911  HIT %: 36.604  MISS %: 63.396  AVERAGE MISS PENALTY: 233.143
LLC6 PREFETCH  ACCESS: 9440206  HIT: 9157218  MISS: 282988  HIT %: 97.0023  MISS %: 2.99769  AVERAGE MISS PENALTY: 159.969
LLC6 WRITEBACK ACCESS: 307242  HIT: 306961  MISS:   281  HIT %: 99.9085  MISS %: 0.0914589  AVERAGE MISS PENALTY: 0
LLC6 PREFETCH  REQUESTED:     0  ISSUED:     0  USEFUL: 36910  USELESS: 241931
 USEFUL LOAD PREFETCHES:      36910 PREFETCH ISSUED TO LOWER LEVEL:     282988  ACCURACY: 13.043
 TIMELY PREFETCHES:      36910 LATE PREFETCHES: 0 DROPPED PREFETCHES: 0
LLC6 AVERAGE MISS LATENCY: 162.63 cycles
LLC7 TOTAL     ACCESS: 11404066  HIT: 11003400  MISS: 400666  HIT %: 96.4866  MISS %: 3.51336  AVERAGE MISS PENALTY: 163.944
LLC7 LOAD      ACCESS: 1880842  HIT: 1770802  MISS: 110040  HIT %: 94.1494  MISS %: 5.85057  AVERAGE MISS PENALTY: 170.284
LLC7 RFO       ACCESS:  1447  HIT:   509  MISS:   938  HIT %: 35.1762  MISS %: 64.8238  AVERAGE MISS PENALTY: 235.682
LLC7 PREFETCH  ACCESS: 9221296  HIT: 8931928  MISS: 289368  HIT %: 96.862  MISS %: 3.13804  AVERAGE MISS PENALTY: 161.481
LLC7 WRITEBACK ACCESS: 300481  HIT: 300161  MISS:   320  HIT %: 99.8935  MISS %: 0.106496  AVERAGE MISS PENALTY: 0
LLC7 PREFETCH  REQUESTED:     0  ISSUED:     0  USEFUL: 41324  USELESS: 244074
 USEFUL LOAD PREFETCHES:      41324 PREFETCH ISSUED TO LOWER LEVEL:     289368  ACCURACY: 14.2808
 TIMELY PREFETCHES:      41324 LATE PREFETCHES: 0 DROPPED PREFETCHES: 0
LLC7 AVERAGE MISS LATENCY: 163.944 cycles
ROI Average ROB Stall Cycles:	12.182
ROI Total ROB Stalls Cycles:	701669668
ROI TOTAL ROB counter      :	57598908
ROI Average Load ROB Stall Cycles:	76.2056
ROI Total Load ROB Stalls Cycle  :	384229489
ROI Total Load ROB stalls Counter:	5042014
Major fault: 0 Minor fault: 37418

