
*** ChampSim Multicore Out-of-Order Simulator ***

Warmup Instructions: 200000000
Simulation Instructions: 200000000
Number of CPUs: 1
threads:1

L1I Configuration:
L1I_SET:64
L1I_WAY:8
L1I_RQ_SIZE:64
L1I_WQ_SIZE:64
L1I_PQ_SIZE:8
L1I_MSHR_SIZE:8

L1D Configuration:
L1D_SET:64
L1D_WAY:12
L1D_RQ_SIZE:64
L1D_WQ_SIZE:64
L1D_PQ_SIZE:8
L1D_MSHR_SIZE:16

L2C Configuration:
L2C_SET:1024
L2C_WAY:8
L2C_RQ_SIZE:32
L2C_WQ_SIZE:32
L2C_PQ_SIZE:16
L2C_MSHR_SIZE:32

LLC Configuration:
LLC_SET:4096
LLC_WAY:16
LLC SLICES:8
LLC_RQ_SIZE:64
LLC_WQ_SIZE:64
LLC_PQ_SIZE:32
LLC_MSHR_SIZE:64

Interconnect OFF
Attacker deprioritize is: OFF
Off-chip DRAM Size: 4096 MB Channels: 1 Width: 64-bit Data Rate: 3200 MT/s
PAGE SIZE in KB: 4.000000 
PAGE SIZE in MB: 0.003906 
PAGE offset in bits: 12 
CEASER-S_LLC:0
MIRAGE : 0
CEASER_LATENCY:3
REMAP : OFF
Partitions : 1
Multi-Step : OFF
BFS : OFF

CPU 0 runs /home/anubhav/gap/bc-5.trace.gz
CPU 0 Bimodal branch predictor
Initialize Hawkeye state
Initialize Hawkeye state
Initialize Hawkeye state
Initialize Hawkeye state
Initialize Hawkeye state
Initialize Hawkeye state
Initialize Hawkeye state
Initialize Hawkeye state
Heartbeat CPU 0 instructions: 10000003 cycles: 8563894 heartbeat IPC: 1.16769 cumulative IPC: 1.16769 (Simulation time: 0 hr 2 min 59 sec) 
 Total Blocks : 524288 Invalid Blocks : 304844
Heartbeat CPU 0 instructions: 20000000 cycles: 16257753 heartbeat IPC: 1.29974 cumulative IPC: 1.23018 (Simulation time: 0 hr 5 min 38 sec) 
 Total Blocks : 524288 Invalid Blocks : 277513
Heartbeat CPU 0 instructions: 30000003 cycles: 23222351 heartbeat IPC: 1.43583 cumulative IPC: 1.29186 (Simulation time: 0 hr 8 min 30 sec) 
 Total Blocks : 524288 Invalid Blocks : 261920
Heartbeat CPU 0 instructions: 40000002 cycles: 29752917 heartbeat IPC: 1.53126 cumulative IPC: 1.34441 (Simulation time: 0 hr 11 min 15 sec) 
 Total Blocks : 524288 Invalid Blocks : 254625
Heartbeat CPU 0 instructions: 50000001 cycles: 36288070 heartbeat IPC: 1.53019 cumulative IPC: 1.37786 (Simulation time: 0 hr 13 min 51 sec) 
 Total Blocks : 524288 Invalid Blocks : 249329
Heartbeat CPU 0 instructions: 60000003 cycles: 42554849 heartbeat IPC: 1.59572 cumulative IPC: 1.40995 (Simulation time: 0 hr 16 min 29 sec) 
 Total Blocks : 524288 Invalid Blocks : 244738
Heartbeat CPU 0 instructions: 70000000 cycles: 48824968 heartbeat IPC: 1.59487 cumulative IPC: 1.43369 (Simulation time: 0 hr 19 min 20 sec) 
 Total Blocks : 524288 Invalid Blocks : 240269
Heartbeat CPU 0 instructions: 80000002 cycles: 54906883 heartbeat IPC: 1.64422 cumulative IPC: 1.45701 (Simulation time: 0 hr 22 min 5 sec) 
 Total Blocks : 524288 Invalid Blocks : 236432
Heartbeat CPU 0 instructions: 90000000 cycles: 60999688 heartbeat IPC: 1.64128 cumulative IPC: 1.47542 (Simulation time: 0 hr 24 min 45 sec) 
 Total Blocks : 524288 Invalid Blocks : 232520
Heartbeat CPU 0 instructions: 100000003 cycles: 66900583 heartbeat IPC: 1.69466 cumulative IPC: 1.49476 (Simulation time: 0 hr 27 min 26 sec) 
 Total Blocks : 524288 Invalid Blocks : 229287
Heartbeat CPU 0 instructions: 110000000 cycles: 72938454 heartbeat IPC: 1.65621 cumulative IPC: 1.50812 (Simulation time: 0 hr 30 min 16 sec) 
 Total Blocks : 524288 Invalid Blocks : 226008
Heartbeat CPU 0 instructions: 120000000 cycles: 78958671 heartbeat IPC: 1.66107 cumulative IPC: 1.51978 (Simulation time: 0 hr 33 min 5 sec) 
 Total Blocks : 524288 Invalid Blocks : 222856
Heartbeat CPU 0 instructions: 130000000 cycles: 84993095 heartbeat IPC: 1.65716 cumulative IPC: 1.52954 (Simulation time: 0 hr 35 min 59 sec) 
 Total Blocks : 524288 Invalid Blocks : 219655
Heartbeat CPU 0 instructions: 140000001 cycles: 90098485 heartbeat IPC: 1.95871 cumulative IPC: 1.55386 (Simulation time: 0 hr 38 min 40 sec) 
 Total Blocks : 524288 Invalid Blocks : 209976
Heartbeat CPU 0 instructions: 150000000 cycles: 94274692 heartbeat IPC: 2.39452 cumulative IPC: 1.5911 (Simulation time: 0 hr 41 min 13 sec) 
 Total Blocks : 524288 Invalid Blocks : 192854
Heartbeat CPU 0 instructions: 160000000 cycles: 98400332 heartbeat IPC: 2.42387 cumulative IPC: 1.62601 (Simulation time: 0 hr 43 min 46 sec) 
 Total Blocks : 524288 Invalid Blocks : 178679
Heartbeat CPU 0 instructions: 170000000 cycles: 102471137 heartbeat IPC: 2.45652 cumulative IPC: 1.659 (Simulation time: 0 hr 46 min 27 sec) 
 Total Blocks : 524288 Invalid Blocks : 164827
Heartbeat CPU 0 instructions: 180000002 cycles: 106515813 heartbeat IPC: 2.47239 cumulative IPC: 1.68989 (Simulation time: 0 hr 49 min 13 sec) 
 Total Blocks : 524288 Invalid Blocks : 151998
Heartbeat CPU 0 instructions: 190000000 cycles: 110523437 heartbeat IPC: 2.49524 cumulative IPC: 1.71909 (Simulation time: 0 hr 51 min 51 sec) 
 Total Blocks : 524288 Invalid Blocks : 140836
Heartbeat CPU 0 instructions: 200000001 cycles: 114520209 heartbeat IPC: 2.50202 cumulative IPC: 1.74642 (Simulation time: 0 hr 54 min 39 sec) 
 Total Blocks : 524288 Invalid Blocks : 131033

Warmup complete CPU 0 instructions: 200000001 cycles: 114520209 (Simulation time: 0 hr 54 min 39 sec) 

Heartbeat CPU 0 instructions: 210000002 cycles: 130180813 heartbeat IPC: 0.638545 cumulative IPC: 0.638545 (Simulation time: 1 hr 0 min 53 sec) 
 Total Blocks : 524288 Invalid Blocks : 122194
Heartbeat CPU 0 instructions: 220000000 cycles: 146390002 heartbeat IPC: 0.616934 cumulative IPC: 0.627553 (Simulation time: 1 hr 6 min 59 sec) 
 Total Blocks : 524288 Invalid Blocks : 113347
Heartbeat CPU 0 instructions: 230000001 cycles: 163241243 heartbeat IPC: 0.593428 cumulative IPC: 0.61575 (Simulation time: 1 hr 12 min 51 sec) 
 Total Blocks : 524288 Invalid Blocks : 104565
Heartbeat CPU 0 instructions: 240000001 cycles: 180299390 heartbeat IPC: 0.58623 cumulative IPC: 0.608095 (Simulation time: 1 hr 18 min 48 sec) 
 Total Blocks : 524288 Invalid Blocks : 96083
Heartbeat CPU 0 instructions: 250000001 cycles: 197681263 heartbeat IPC: 0.575312 cumulative IPC: 0.601243 (Simulation time: 1 hr 24 min 43 sec) 
 Total Blocks : 524288 Invalid Blocks : 88194
Heartbeat CPU 0 instructions: 260000003 cycles: 215518806 heartbeat IPC: 0.560615 cumulative IPC: 0.594068 (Simulation time: 1 hr 30 min 29 sec) 
 Total Blocks : 524288 Invalid Blocks : 80771
Heartbeat CPU 0 instructions: 270000001 cycles: 233795475 heartbeat IPC: 0.547146 cumulative IPC: 0.586878 (Simulation time: 1 hr 36 min 16 sec) 
 Total Blocks : 524288 Invalid Blocks : 73738
Heartbeat CPU 0 instructions: 280000002 cycles: 251888952 heartbeat IPC: 0.552685 cumulative IPC: 0.582374 (Simulation time: 1 hr 41 min 40 sec) 
 Total Blocks : 524288 Invalid Blocks : 67126
Heartbeat CPU 0 instructions: 290000001 cycles: 270960991 heartbeat IPC: 0.524328 cumulative IPC: 0.575298 (Simulation time: 1 hr 47 min 18 sec) 
 Total Blocks : 524288 Invalid Blocks : 61173
Heartbeat CPU 0 instructions: 300000001 cycles: 290888676 heartbeat IPC: 0.501814 cumulative IPC: 0.566995 (Simulation time: 1 hr 52 min 51 sec) 
 Total Blocks : 524288 Invalid Blocks : 55605
Heartbeat CPU 0 instructions: 310000003 cycles: 311406484 heartbeat IPC: 0.487382 cumulative IPC: 0.558698 (Simulation time: 1 hr 58 min 0 sec) 
 Total Blocks : 524288 Invalid Blocks : 50413
Heartbeat CPU 0 instructions: 320000000 cycles: 332295905 heartbeat IPC: 0.478711 cumulative IPC: 0.551026 (Simulation time: 2 hr 2 min 56 sec) 
 Total Blocks : 524288 Invalid Blocks : 45806
Heartbeat CPU 0 instructions: 330000000 cycles: 354730861 heartbeat IPC: 0.445733 cumulative IPC: 0.541192 (Simulation time: 2 hr 8 min 14 sec) 
 Total Blocks : 524288 Invalid Blocks : 41381
Heartbeat CPU 0 instructions: 340000001 cycles: 378282019 heartbeat IPC: 0.424608 cumulative IPC: 0.530782 (Simulation time: 2 hr 13 min 32 sec) 
 Total Blocks : 524288 Invalid Blocks : 37478
Heartbeat CPU 0 instructions: 350000000 cycles: 403095638 heartbeat IPC: 0.403004 cumulative IPC: 0.519795 (Simulation time: 2 hr 18 min 51 sec) 
 Total Blocks : 524288 Invalid Blocks : 33696
Heartbeat CPU 0 instructions: 360000002 cycles: 430004445 heartbeat IPC: 0.371626 cumulative IPC: 0.507157 (Simulation time: 2 hr 24 min 17 sec) 
 Total Blocks : 524288 Invalid Blocks : 30281
Heartbeat CPU 0 instructions: 370000000 cycles: 459023560 heartbeat IPC: 0.3446 cumulative IPC: 0.493464 (Simulation time: 2 hr 29 min 34 sec) 
 Total Blocks : 524288 Invalid Blocks : 26974
Heartbeat CPU 0 instructions: 380000003 cycles: 491197661 heartbeat IPC: 0.310809 cumulative IPC: 0.477862 (Simulation time: 2 hr 34 min 37 sec) 
 Total Blocks : 524288 Invalid Blocks : 23849
Heartbeat CPU 0 instructions: 390000001 cycles: 526722275 heartbeat IPC: 0.281495 cumulative IPC: 0.460939 (Simulation time: 2 hr 39 min 39 sec) 
 Total Blocks : 524288 Invalid Blocks : 20785
Heartbeat CPU 0 instructions: 400000003 cycles: 569599622 heartbeat IPC: 0.233223 cumulative IPC: 0.439484 (Simulation time: 2 hr 44 min 44 sec) 
 Total Blocks : 524288 Invalid Blocks : 17923
Finished CPU 0 instructions: 200000002 cycles: 455079413 cumulative IPC: 0.439484 (Simulation time: 2 hr 44 min 44 sec) 

CPU 0 Branch Prediction Accuracy: 98.7961% MPKI: 3.18998 Average ROB Occupancy at Mispredict: 185.767

ChampSim completed all CPUs

Region of Interest Statistics

CPU 0 cumulative IPC: 0.439484 instructions: 200000002 cycles: 455079413
ITLB TOTAL     ACCESS: 40485411  HIT: 40485411  MISS:     0  HIT %:   100  MISS %:     0  AVERAGE MISS PENALTY: 0
ITLB LOAD      ACCESS: 40485411  HIT: 40485411  MISS:     0  HIT %:   100  MISS %:     0  AVERAGE MISS PENALTY: 0
ITLB RFO       ACCESS:     0  HIT:     0  MISS:     0  HIT %:     0  MISS %:     0  AVERAGE MISS PENALTY: 0
ITLB PREFETCH  ACCESS:     0  HIT:     0  MISS:     0  HIT %:     0  MISS %:     0  AVERAGE MISS PENALTY: 0
ITLB WRITEBACK ACCESS:     0  HIT:     0  MISS:     0  HIT %:     0  MISS %:     0  AVERAGE MISS PENALTY: 0
ITLB PREFETCH  REQUESTED:     0  ISSUED:     0  USEFUL:     0  USELESS:     0
 USEFUL LOAD PREFETCHES:          0 PREFETCH ISSUED TO LOWER LEVEL:          0  ACCURACY: -nan
 TIMELY PREFETCHES:          0 LATE PREFETCHES: 0 DROPPED PREFETCHES: 0
ITLB AVERAGE MISS LATENCY: -nan cycles
DTLB TOTAL     ACCESS: 35017343  HIT: 19935348  MISS: 15081995  HIT %: 56.9299  MISS %: 43.0701  AVERAGE MISS PENALTY: 17.2689
DTLB LOAD      ACCESS: 33957798  HIT: 19375154  MISS: 14582644  HIT %: 57.0566  MISS %: 42.9434  AVERAGE MISS PENALTY: 15.2296
DTLB RFO       ACCESS: 1059545  HIT: 560194  MISS: 499351  HIT %: 52.8712  MISS %: 47.1288  AVERAGE MISS PENALTY: 76.8247
DTLB PREFETCH  ACCESS:     0  HIT:     0  MISS:     0  HIT %:     0  MISS %:     0  AVERAGE MISS PENALTY: 0
DTLB WRITEBACK ACCESS:     0  HIT:     0  MISS:     0  HIT %:     0  MISS %:     0  AVERAGE MISS PENALTY: 0
DTLB PREFETCH  REQUESTED:     0  ISSUED:     0  USEFUL:     0  USELESS:     0
 USEFUL LOAD PREFETCHES:          0 PREFETCH ISSUED TO LOWER LEVEL:          0  ACCURACY: -nan
 TIMELY PREFETCHES:          0 LATE PREFETCHES: 0 DROPPED PREFETCHES: 0
DTLB AVERAGE MISS LATENCY: 17.2689 cycles
STLB TOTAL     ACCESS: 15081995  HIT: 14350189  MISS: 731806  HIT %: 95.1478  MISS %: 4.85218  AVERAGE MISS PENALTY: 100
STLB LOAD      ACCESS: 14582644  HIT: 14140400  MISS: 442244  HIT %: 96.9673  MISS %: 3.03267  AVERAGE MISS PENALTY: 100
STLB RFO       ACCESS: 499351  HIT: 209789  MISS: 289562  HIT %: 42.0123  MISS %: 57.9877  AVERAGE MISS PENALTY: 100
STLB PREFETCH  ACCESS:     0  HIT:     0  MISS:     0  HIT %:     0  MISS %:     0  AVERAGE MISS PENALTY: 0
STLB WRITEBACK ACCESS:     0  HIT:     0  MISS:     0  HIT %:     0  MISS %:     0  AVERAGE MISS PENALTY: 0
STLB PREFETCH  REQUESTED:     0  ISSUED:     0  USEFUL:     0  USELESS:     0
 USEFUL LOAD PREFETCHES:          0 PREFETCH ISSUED TO LOWER LEVEL:          0  ACCURACY: -nan
 TIMELY PREFETCHES:          0 LATE PREFETCHES: 0 DROPPED PREFETCHES: 0
STLB AVERAGE MISS LATENCY: 100 cycles
L1D TOTAL     ACCESS: 36170823  HIT: 16751283  MISS: 19419540  HIT %: 46.3116  MISS %: 53.6884  AVERAGE MISS PENALTY: 430596
L1D LOAD      ACCESS: 31331691  HIT: 13868239  MISS: 17463452  HIT %: 44.2627  MISS %: 55.7373  AVERAGE MISS PENALTY: 478819
L1D RFO       ACCESS: 1062661  HIT: 1045091  MISS: 17570  HIT %: 98.3466  MISS %: 1.6534  AVERAGE MISS PENALTY: 140.419
L1D PREFETCH  ACCESS: 3776471  HIT: 1837953  MISS: 1938518  HIT %: 48.6685  MISS %: 51.3315  AVERAGE MISS PENALTY: 69.8482
L1D WRITEBACK ACCESS:     0  HIT:     0  MISS:     0  HIT %:     0  MISS %:     0  AVERAGE MISS PENALTY: 0
L1D PREFETCH  REQUESTED: 3992846  ISSUED: 3988772  USEFUL: 942619  USELESS: 995692
 USEFUL LOAD PREFETCHES:     942619 PREFETCH ISSUED TO LOWER LEVEL:    2210448  ACCURACY: 42.6438
 TIMELY PREFETCHES:     942619 LATE PREFETCHES: 68948 DROPPED PREFETCHES: 4074
L1D AVERAGE MISS LATENCY: 51.3449 cycles
L1I TOTAL     ACCESS: 64226409  HIT: 64226409  MISS:     0  HIT %:   100  MISS %:     0  AVERAGE MISS PENALTY: 0
L1I LOAD      ACCESS: 64226409  HIT: 64226409  MISS:     0  HIT %:   100  MISS %:     0  AVERAGE MISS PENALTY: 0
L1I RFO       ACCESS:     0  HIT:     0  MISS:     0  HIT %:     0  MISS %:     0  AVERAGE MISS PENALTY: 0
L1I PREFETCH  ACCESS:     0  HIT:     0  MISS:     0  HIT %:     0  MISS %:     0  AVERAGE MISS PENALTY: 0
L1I WRITEBACK ACCESS:     0  HIT:     0  MISS:     0  HIT %:     0  MISS %:     0  AVERAGE MISS PENALTY: 0
L1I PREFETCH  REQUESTED:     0  ISSUED:     0  USEFUL:     0  USELESS:     0
 USEFUL LOAD PREFETCHES:          0 PREFETCH ISSUED TO LOWER LEVEL:          0  ACCURACY: -nan
 TIMELY PREFETCHES:          0 LATE PREFETCHES: 0 DROPPED PREFETCHES: 0
L1I AVERAGE MISS LATENCY: -nan cycles
L2C TOTAL     ACCESS: 24366234  HIT: 9136683  MISS: 15229551  HIT %: 37.4973  MISS %: 62.5027  AVERAGE MISS PENALTY: 259091
L2C LOAD      ACCESS: 17462454  HIT: 5021992  MISS: 12440462  HIT %: 28.7588  MISS %: 71.2412  AVERAGE MISS PENALTY: 317148
L2C RFO       ACCESS: 17570  HIT:  3363  MISS: 14207  HIT %: 19.1406  MISS %: 80.8594  AVERAGE MISS PENALTY: 152.495
L2C PREFETCH  ACCESS: 6334341  HIT: 3559536  MISS: 2774805  HIT %: 56.1943  MISS %: 43.8057  AVERAGE MISS PENALTY: 136.366
L2C WRITEBACK ACCESS: 551869  HIT: 551792  MISS:    77  HIT %: 99.986  MISS %: 0.0139526  AVERAGE MISS PENALTY: 0
L2C PREFETCH  REQUESTED: 6960323  ISSUED: 6945703  USEFUL: 97879  USELESS: 2675909
 USEFUL LOAD PREFETCHES:      97879 PREFETCH ISSUED TO LOWER LEVEL:    3046677  ACCURACY: 3.21265
 TIMELY PREFETCHES:      97879 LATE PREFETCHES: 87643 DROPPED PREFETCHES: 14620
L2C AVERAGE MISS LATENCY: 62.2334 cycles
LLC0 TOTAL     ACCESS: 1932855  HIT: 1615660  MISS: 317195  HIT %: 83.5893  MISS %: 16.4107  AVERAGE MISS PENALTY: 155.471
LLC0 LOAD      ACCESS: 1546009  HIT: 1439496  MISS: 106513  HIT %: 93.1105  MISS %: 6.88955  AVERAGE MISS PENALTY: 171.852
LLC0 RFO       ACCESS:  1777  HIT:   689  MISS:  1088  HIT %: 38.7732  MISS %: 61.2268  AVERAGE MISS PENALTY: 182.701
LLC0 PREFETCH  ACCESS: 317207  HIT: 107819  MISS: 209388  HIT %: 33.9901  MISS %: 66.0099  AVERAGE MISS PENALTY: 147.15
LLC0 WRITEBACK ACCESS: 67862  HIT: 67656  MISS:   206  HIT %: 99.6964  MISS %: 0.303557  AVERAGE MISS PENALTY: 0
LLC0 PREFETCH  REQUESTED:     0  ISSUED:     0  USEFUL: 10381  USELESS: 194234
 USEFUL LOAD PREFETCHES:      10381 PREFETCH ISSUED TO LOWER LEVEL:     209388  ACCURACY: 4.95778
 TIMELY PREFETCHES:      10381 LATE PREFETCHES: 0 DROPPED PREFETCHES: 0
LLC0 AVERAGE MISS LATENCY: 155.471 cycles
Deadblocks : 93088 Deadblock percentage : 87.3959

LLC1 TOTAL     ACCESS: 1957613  HIT: 1640151  MISS: 317462  HIT %: 83.7832  MISS %: 16.2168  AVERAGE MISS PENALTY: 155.797
LLC1 LOAD      ACCESS: 1549126  HIT: 1459537  MISS: 89589  HIT %: 94.2168  MISS %: 5.7832  AVERAGE MISS PENALTY: 172.96
LLC1 RFO       ACCESS:  1771  HIT:   677  MISS:  1094  HIT %: 38.227  MISS %: 61.773  AVERAGE MISS PENALTY: 177.913
LLC1 PREFETCH  ACCESS: 338451  HIT: 111770  MISS: 226681  HIT %: 33.024  MISS %: 66.976  AVERAGE MISS PENALTY: 148.975
LLC1 WRITEBACK ACCESS: 68265  HIT: 68167  MISS:    98  HIT %: 99.8564  MISS %: 0.143558  AVERAGE MISS PENALTY: 0
LLC1 PREFETCH  REQUESTED:     0  ISSUED:     0  USEFUL: 11045  USELESS: 210305
 USEFUL LOAD PREFETCHES:      11045 PREFETCH ISSUED TO LOWER LEVEL:     226681  ACCURACY: 4.87249
 TIMELY PREFETCHES:      11045 LATE PREFETCHES: 0 DROPPED PREFETCHES: 0
LLC1 AVERAGE MISS LATENCY: 155.797 cycles
LLC2 TOTAL     ACCESS: 1970314  HIT: 1651895  MISS: 318419  HIT %: 83.8392  MISS %: 16.1608  AVERAGE MISS PENALTY: 155.596
LLC2 LOAD      ACCESS: 1556052  HIT: 1467564  MISS: 88488  HIT %: 94.3133  MISS %: 5.6867  AVERAGE MISS PENALTY: 172.888
LLC2 RFO       ACCESS:  1770  HIT:   671  MISS:  1099  HIT %: 37.9096  MISS %: 62.0904  AVERAGE MISS PENALTY: 185.543
LLC2 PREFETCH  ACCESS: 344319  HIT: 115579  MISS: 228740  HIT %: 33.5674  MISS %: 66.4326  AVERAGE MISS PENALTY: 148.825
LLC2 WRITEBACK ACCESS: 68173  HIT: 68081  MISS:    92  HIT %: 99.865  MISS %: 0.134951  AVERAGE MISS PENALTY: 0
LLC2 PREFETCH  REQUESTED:     0  ISSUED:     0  USEFUL: 11251  USELESS: 211376
 USEFUL LOAD PREFETCHES:      11251 PREFETCH ISSUED TO LOWER LEVEL:     228740  ACCURACY: 4.91868
 TIMELY PREFETCHES:      11251 LATE PREFETCHES: 0 DROPPED PREFETCHES: 0
LLC2 AVERAGE MISS LATENCY: 155.596 cycles
LLC3 TOTAL     ACCESS: 1975393  HIT: 1654066  MISS: 321327  HIT %: 83.7335  MISS %: 16.2665  AVERAGE MISS PENALTY: 156.596
LLC3 LOAD      ACCESS: 1555856  HIT: 1466812  MISS: 89044  HIT %: 94.2768  MISS %: 5.72315  AVERAGE MISS PENALTY: 172.978
LLC3 RFO       ACCESS:  1778  HIT:   660  MISS:  1118  HIT %: 37.1204  MISS %: 62.8796  AVERAGE MISS PENALTY: 184.055
LLC3 PREFETCH  ACCESS: 349169  HIT: 118105  MISS: 231064  HIT %: 33.8246  MISS %: 66.1754  AVERAGE MISS PENALTY: 150.218
LLC3 WRITEBACK ACCESS: 68590  HIT: 68489  MISS:   101  HIT %: 99.8527  MISS %: 0.147252  AVERAGE MISS PENALTY: 0
LLC3 PREFETCH  REQUESTED:     0  ISSUED:     0  USEFUL: 11414  USELESS: 213465
 USEFUL LOAD PREFETCHES:      11414 PREFETCH ISSUED TO LOWER LEVEL:     231064  ACCURACY: 4.93976
 TIMELY PREFETCHES:      11414 LATE PREFETCHES: 0 DROPPED PREFETCHES: 0
LLC3 AVERAGE MISS LATENCY: 156.596 cycles
LLC4 TOTAL     ACCESS: 1982571  HIT: 1658946  MISS: 323625  HIT %: 83.6765  MISS %: 16.3235  AVERAGE MISS PENALTY: 157.038
LLC4 LOAD      ACCESS: 1558386  HIT: 1468097  MISS: 90289  HIT %: 94.2062  MISS %: 5.79375  AVERAGE MISS PENALTY: 172.912
LLC4 RFO       ACCESS:  1774  HIT:   654  MISS:  1120  HIT %: 36.8658  MISS %: 63.1342  AVERAGE MISS PENALTY: 181.328
LLC4 PREFETCH  ACCESS: 353569  HIT: 121442  MISS: 232127  HIT %: 34.3475  MISS %: 65.6525  AVERAGE MISS PENALTY: 150.806
LLC4 WRITEBACK ACCESS: 68842  HIT: 68753  MISS:    89  HIT %: 99.8707  MISS %: 0.129282  AVERAGE MISS PENALTY: 0
LLC4 PREFETCH  REQUESTED:     0  ISSUED:     0  USEFUL: 11465  USELESS: 214048
 USEFUL LOAD PREFETCHES:      11465 PREFETCH ISSUED TO LOWER LEVEL:     232127  ACCURACY: 4.93911
 TIMELY PREFETCHES:      11465 LATE PREFETCHES: 0 DROPPED PREFETCHES: 0
LLC4 AVERAGE MISS LATENCY: 157.038 cycles
LLC5 TOTAL     ACCESS: 1979862  HIT: 1652655  MISS: 327207  HIT %: 83.4732  MISS %: 16.5268  AVERAGE MISS PENALTY: 157.97
LLC5 LOAD      ACCESS: 1552025  HIT: 1460312  MISS: 91713  HIT %: 94.0908  MISS %: 5.90925  AVERAGE MISS PENALTY: 173.117
LLC5 RFO       ACCESS:  1780  HIT:   679  MISS:  1101  HIT %: 38.1461  MISS %: 61.8539  AVERAGE MISS PENALTY: 186.276
LLC5 PREFETCH  ACCESS: 356745  HIT: 122473  MISS: 234272  HIT %: 34.3307  MISS %: 65.6693  AVERAGE MISS PENALTY: 151.988
LLC5 WRITEBACK ACCESS: 69312  HIT: 69191  MISS:   121  HIT %: 99.8254  MISS %: 0.174573  AVERAGE MISS PENALTY: 0
LLC5 PREFETCH  REQUESTED:     0  ISSUED:     0  USEFUL: 11821  USELESS: 216152
 USEFUL LOAD PREFETCHES:      11821 PREFETCH ISSUED TO LOWER LEVEL:     234272  ACCURACY: 5.04584
 TIMELY PREFETCHES:      11821 LATE PREFETCHES: 0 DROPPED PREFETCHES: 0
LLC5 AVERAGE MISS LATENCY: 157.97 cycles
LLC6 TOTAL     ACCESS: 1987953  HIT: 1655193  MISS: 332760  HIT %: 83.2612  MISS %: 16.7388  AVERAGE MISS PENALTY: 159.468
LLC6 LOAD      ACCESS: 1558734  HIT: 1463805  MISS: 94929  HIT %: 93.9099  MISS %: 6.09013  AVERAGE MISS PENALTY: 173.62
LLC6 RFO       ACCESS:  1776  HIT:   662  MISS:  1114  HIT %: 37.2748  MISS %: 62.7252  AVERAGE MISS PENALTY: 178.649
LLC6 PREFETCH  ACCESS: 359084  HIT: 122489  MISS: 236595  HIT %: 34.1115  MISS %: 65.8885  AVERAGE MISS PENALTY: 153.782
LLC6 WRITEBACK ACCESS: 68359  HIT: 68237  MISS:   122  HIT %: 99.8215  MISS %: 0.17847  AVERAGE MISS PENALTY: 0
LLC6 PREFETCH  REQUESTED:     0  ISSUED:     0  USEFUL: 12411  USELESS: 217978
 USEFUL LOAD PREFETCHES:      12411 PREFETCH ISSUED TO LOWER LEVEL:     236595  ACCURACY: 5.24567
 TIMELY PREFETCHES:      12411 LATE PREFETCHES: 0 DROPPED PREFETCHES: 0
LLC6 AVERAGE MISS LATENCY: 159.468 cycles
LLC7 TOTAL     ACCESS: 1990545  HIT: 1655205  MISS: 335340  HIT %: 83.1534  MISS %: 16.8466  AVERAGE MISS PENALTY: 160.656
LLC7 LOAD      ACCESS: 1558300  HIT: 1461753  MISS: 96547  HIT %: 93.8043  MISS %: 6.19566  AVERAGE MISS PENALTY: 173.855
LLC7 RFO       ACCESS:  1781  HIT:   652  MISS:  1129  HIT %: 36.6086  MISS %: 63.3914  AVERAGE MISS PENALTY: 180.527
LLC7 PREFETCH  ACCESS: 362233  HIT: 124713  MISS: 237520  HIT %: 34.4289  MISS %: 65.5711  AVERAGE MISS PENALTY: 155.294
LLC7 WRITEBACK ACCESS: 68231  HIT: 68087  MISS:   144  HIT %: 99.789  MISS %: 0.211048  AVERAGE MISS PENALTY: 0
LLC7 PREFETCH  REQUESTED:     0  ISSUED:     0  USEFUL: 12888  USELESS: 217951
 USEFUL LOAD PREFETCHES:      12888 PREFETCH ISSUED TO LOWER LEVEL:     237520  ACCURACY: 5.42607
 TIMELY PREFETCHES:      12888 LATE PREFETCHES: 0 DROPPED PREFETCHES: 0
LLC7 AVERAGE MISS LATENCY: 160.656 cycles
ROI Average ROB Stall Cycles:	6.95652
ROI Total ROB Stalls Cycles:	422926149
ROI TOTAL ROB counter      :	60795627
ROI Average Load ROB Stall Cycles:	41.305
ROI Total Load ROB Stalls Cycle  :	163679427
ROI Total Load ROB stalls Counter:	3962698
Major fault: 0 Minor fault: 37424

