
*** ChampSim Multicore Out-of-Order Simulator ***

Warmup Instructions: 200000000
Simulation Instructions: 200000000
Number of CPUs: 1
threads:1

L1I Configuration:
L1I_SET:64
L1I_WAY:8
L1I_RQ_SIZE:64
L1I_WQ_SIZE:64
L1I_PQ_SIZE:8
L1I_MSHR_SIZE:8

L1D Configuration:
L1D_SET:64
L1D_WAY:12
L1D_RQ_SIZE:64
L1D_WQ_SIZE:64
L1D_PQ_SIZE:8
L1D_MSHR_SIZE:16

L2C Configuration:
L2C_SET:1024
L2C_WAY:8
L2C_RQ_SIZE:32
L2C_WQ_SIZE:32
L2C_PQ_SIZE:16
L2C_MSHR_SIZE:32

LLC Configuration:
LLC_SET:4096
LLC_WAY:16
LLC SLICES:8
LLC_RQ_SIZE:64
LLC_WQ_SIZE:64
LLC_PQ_SIZE:32
LLC_MSHR_SIZE:64

Interconnect OFF
Attacker deprioritize is: OFF
Off-chip DRAM Size: 4096 MB Channels: 1 Width: 64-bit Data Rate: 3200 MT/s
PAGE SIZE in KB: 4.000000 
PAGE SIZE in MB: 0.003906 
PAGE offset in bits: 12 
CEASER-S_LLC:0
MIRAGE : 0
CEASER_LATENCY:3
REMAP : OFF
Partitions : 1
Multi-Step : OFF
BFS : OFF

CPU 0 runs /home/anubhav/gap/bfs-14.trace.gz
CPU 0 Bimodal branch predictor
Initialize Hawkeye state
Initialize Hawkeye state
Initialize Hawkeye state
Initialize Hawkeye state
Initialize Hawkeye state
Initialize Hawkeye state
Initialize Hawkeye state
Initialize Hawkeye state
Heartbeat CPU 0 instructions: 10000003 cycles: 14730367 heartbeat IPC: 0.67887 cumulative IPC: 0.67887 (Simulation time: 0 hr 2 min 2 sec) 
 Total Blocks : 524288 Invalid Blocks : 380021
Heartbeat CPU 0 instructions: 20000001 cycles: 29325527 heartbeat IPC: 0.685158 cumulative IPC: 0.682 (Simulation time: 0 hr 5 min 6 sec) 
 Total Blocks : 524288 Invalid Blocks : 222989
Heartbeat CPU 0 instructions: 30000003 cycles: 44533039 heartbeat IPC: 0.65757 cumulative IPC: 0.673657 (Simulation time: 0 hr 9 min 8 sec) 
 Total Blocks : 524288 Invalid Blocks : 127142
Heartbeat CPU 0 instructions: 40000000 cycles: 60308338 heartbeat IPC: 0.633902 cumulative IPC: 0.663258 (Simulation time: 0 hr 14 min 9 sec) 
 Total Blocks : 524288 Invalid Blocks : 72749
Heartbeat CPU 0 instructions: 50000001 cycles: 78410814 heartbeat IPC: 0.552411 cumulative IPC: 0.637667 (Simulation time: 0 hr 16 min 30 sec) 
 Total Blocks : 524288 Invalid Blocks : 47782
Heartbeat CPU 0 instructions: 60000000 cycles: 94033003 heartbeat IPC: 0.640115 cumulative IPC: 0.638074 (Simulation time: 0 hr 18 min 38 sec) 
 Total Blocks : 524288 Invalid Blocks : 44287
Heartbeat CPU 0 instructions: 70000000 cycles: 97159326 heartbeat IPC: 3.19865 cumulative IPC: 0.720466 (Simulation time: 0 hr 19 min 56 sec) 
 Total Blocks : 524288 Invalid Blocks : 44277
Heartbeat CPU 0 instructions: 80000000 cycles: 105457587 heartbeat IPC: 1.20507 cumulative IPC: 0.758599 (Simulation time: 0 hr 22 min 7 sec) 
 Total Blocks : 524288 Invalid Blocks : 44085
Heartbeat CPU 0 instructions: 90000003 cycles: 119007319 heartbeat IPC: 0.738022 cumulative IPC: 0.756256 (Simulation time: 0 hr 24 min 16 sec) 
 Total Blocks : 524288 Invalid Blocks : 39666
Heartbeat CPU 0 instructions: 100000002 cycles: 133423904 heartbeat IPC: 0.693645 cumulative IPC: 0.749491 (Simulation time: 0 hr 26 min 34 sec) 
 Total Blocks : 524288 Invalid Blocks : 26625
Heartbeat CPU 0 instructions: 110000000 cycles: 147831278 heartbeat IPC: 0.694089 cumulative IPC: 0.744092 (Simulation time: 0 hr 28 min 47 sec) 
 Total Blocks : 524288 Invalid Blocks : 17634
Heartbeat CPU 0 instructions: 120000002 cycles: 164822855 heartbeat IPC: 0.588527 cumulative IPC: 0.728054 (Simulation time: 0 hr 31 min 13 sec) 
 Total Blocks : 524288 Invalid Blocks : 12544
Heartbeat CPU 0 instructions: 130000000 cycles: 181970688 heartbeat IPC: 0.583164 cumulative IPC: 0.714401 (Simulation time: 0 hr 33 min 29 sec) 
 Total Blocks : 524288 Invalid Blocks : 11144
Heartbeat CPU 0 instructions: 140000001 cycles: 189103156 heartbeat IPC: 1.40204 cumulative IPC: 0.740337 (Simulation time: 0 hr 35 min 9 sec) 
 Total Blocks : 524288 Invalid Blocks : 11097
Heartbeat CPU 0 instructions: 150000000 cycles: 193028765 heartbeat IPC: 2.54738 cumulative IPC: 0.777086 (Simulation time: 0 hr 36 min 58 sec) 
 Total Blocks : 524288 Invalid Blocks : 11079
Heartbeat CPU 0 instructions: 160000003 cycles: 207762685 heartbeat IPC: 0.678706 cumulative IPC: 0.770109 (Simulation time: 0 hr 39 min 6 sec) 
 Total Blocks : 524288 Invalid Blocks : 11062
Heartbeat CPU 0 instructions: 170000003 cycles: 221598012 heartbeat IPC: 0.722787 cumulative IPC: 0.767155 (Simulation time: 0 hr 41 min 22 sec) 
 Total Blocks : 524288 Invalid Blocks : 8533
Heartbeat CPU 0 instructions: 180000001 cycles: 236299606 heartbeat IPC: 0.680198 cumulative IPC: 0.761745 (Simulation time: 0 hr 43 min 45 sec) 
 Total Blocks : 524288 Invalid Blocks : 6370
Heartbeat CPU 0 instructions: 190000002 cycles: 252029109 heartbeat IPC: 0.635748 cumulative IPC: 0.753881 (Simulation time: 0 hr 46 min 11 sec) 
 Total Blocks : 524288 Invalid Blocks : 4743
Heartbeat CPU 0 instructions: 200000001 cycles: 269725239 heartbeat IPC: 0.565095 cumulative IPC: 0.741495 (Simulation time: 0 hr 48 min 39 sec) 
 Total Blocks : 524288 Invalid Blocks : 4016

Warmup complete CPU 0 instructions: 200000001 cycles: 269725239 (Simulation time: 0 hr 48 min 39 sec) 

Heartbeat CPU 0 instructions: 210000000 cycles: 294928957 heartbeat IPC: 0.396767 cumulative IPC: 0.396767 (Simulation time: 0 hr 52 min 40 sec) 
 Total Blocks : 524288 Invalid Blocks : 3931
Heartbeat CPU 0 instructions: 220000000 cycles: 301239113 heartbeat IPC: 1.58475 cumulative IPC: 0.634641 (Simulation time: 0 hr 55 min 26 sec) 
 Total Blocks : 524288 Invalid Blocks : 3931
Heartbeat CPU 0 instructions: 230000000 cycles: 321264756 heartbeat IPC: 0.49936 cumulative IPC: 0.582078 (Simulation time: 0 hr 59 min 6 sec) 
 Total Blocks : 524288 Invalid Blocks : 3923
Heartbeat CPU 0 instructions: 240000000 cycles: 350024935 heartbeat IPC: 0.347703 cumulative IPC: 0.498134 (Simulation time: 1 hr 3 min 34 sec) 
 Total Blocks : 524288 Invalid Blocks : 3604
Heartbeat CPU 0 instructions: 250000001 cycles: 384623167 heartbeat IPC: 0.289032 cumulative IPC: 0.435169 (Simulation time: 1 hr 8 min 51 sec) 
 Total Blocks : 524288 Invalid Blocks : 2803
Heartbeat CPU 0 instructions: 260000002 cycles: 419541159 heartbeat IPC: 0.286385 cumulative IPC: 0.400491 (Simulation time: 1 hr 14 min 5 sec) 
 Total Blocks : 524288 Invalid Blocks : 2143
Heartbeat CPU 0 instructions: 270000002 cycles: 460731537 heartbeat IPC: 0.242775 cumulative IPC: 0.36648 (Simulation time: 1 hr 19 min 19 sec) 
 Total Blocks : 524288 Invalid Blocks : 1870
Heartbeat CPU 0 instructions: 280000003 cycles: 470471131 heartbeat IPC: 1.02674 cumulative IPC: 0.398514 (Simulation time: 1 hr 21 min 47 sec) 
 Total Blocks : 524288 Invalid Blocks : 1854
Heartbeat CPU 0 instructions: 290000000 cycles: 487383625 heartbeat IPC: 0.591279 cumulative IPC: 0.413492 (Simulation time: 1 hr 25 min 49 sec) 
 Total Blocks : 524288 Invalid Blocks : 1818
Heartbeat CPU 0 instructions: 300000001 cycles: 513697036 heartbeat IPC: 0.380034 cumulative IPC: 0.409883 (Simulation time: 1 hr 29 min 37 sec) 
 Total Blocks : 524288 Invalid Blocks : 1799
Heartbeat CPU 0 instructions: 310000000 cycles: 551980570 heartbeat IPC: 0.261209 cumulative IPC: 0.389718 (Simulation time: 1 hr 34 min 47 sec) 
 Total Blocks : 524288 Invalid Blocks : 1558
Heartbeat CPU 0 instructions: 320000002 cycles: 591282939 heartbeat IPC: 0.254438 cumulative IPC: 0.373183 (Simulation time: 1 hr 39 min 46 sec) 
 Total Blocks : 524288 Invalid Blocks : 1341
Heartbeat CPU 0 instructions: 330000000 cycles: 632453597 heartbeat IPC: 0.242891 cumulative IPC: 0.358395 (Simulation time: 1 hr 44 min 55 sec) 
 Total Blocks : 524288 Invalid Blocks : 1147
Heartbeat CPU 0 instructions: 340000001 cycles: 676385831 heartbeat IPC: 0.227623 cumulative IPC: 0.344267 (Simulation time: 1 hr 50 min 8 sec) 
 Total Blocks : 524288 Invalid Blocks : 1037
Heartbeat CPU 0 instructions: 350000000 cycles: 705292743 heartbeat IPC: 0.345938 cumulative IPC: 0.344378 (Simulation time: 1 hr 53 min 55 sec) 
 Total Blocks : 524288 Invalid Blocks : 1024
Heartbeat CPU 0 instructions: 360000000 cycles: 710959916 heartbeat IPC: 1.76455 cumulative IPC: 0.362619 (Simulation time: 1 hr 56 min 15 sec) 
 Total Blocks : 524288 Invalid Blocks : 1024
Heartbeat CPU 0 instructions: 370000001 cycles: 728835785 heartbeat IPC: 0.559413 cumulative IPC: 0.370281 (Simulation time: 1 hr 59 min 29 sec) 
 Total Blocks : 524288 Invalid Blocks : 1023
Heartbeat CPU 0 instructions: 380000000 cycles: 755674511 heartbeat IPC: 0.372596 cumulative IPC: 0.370409 (Simulation time: 2 hr 2 min 59 sec) 
 Total Blocks : 524288 Invalid Blocks : 1004
Heartbeat CPU 0 instructions: 390000000 cycles: 783009122 heartbeat IPC: 0.365837 cumulative IPC: 0.370166 (Simulation time: 2 hr 6 min 23 sec) 
 Total Blocks : 524288 Invalid Blocks : 926
Heartbeat CPU 0 instructions: 400000000 cycles: 810524257 heartbeat IPC: 0.363436 cumulative IPC: 0.369823 (Simulation time: 2 hr 9 min 50 sec) 
 Total Blocks : 524288 Invalid Blocks : 841
Finished CPU 0 instructions: 200000000 cycles: 540799019 cumulative IPC: 0.369823 (Simulation time: 2 hr 9 min 50 sec) 

CPU 0 Branch Prediction Accuracy: 85.6275% MPKI: 31.1395 Average ROB Occupancy at Mispredict: 24.9702

ChampSim completed all CPUs

Region of Interest Statistics

CPU 0 cumulative IPC: 0.369823 instructions: 200000000 cycles: 540799019
ITLB TOTAL     ACCESS: 30010581  HIT: 30010581  MISS:     0  HIT %:   100  MISS %:     0  AVERAGE MISS PENALTY: 0
ITLB LOAD      ACCESS: 30010581  HIT: 30010581  MISS:     0  HIT %:   100  MISS %:     0  AVERAGE MISS PENALTY: 0
ITLB RFO       ACCESS:     0  HIT:     0  MISS:     0  HIT %:     0  MISS %:     0  AVERAGE MISS PENALTY: 0
ITLB PREFETCH  ACCESS:     0  HIT:     0  MISS:     0  HIT %:     0  MISS %:     0  AVERAGE MISS PENALTY: 0
ITLB WRITEBACK ACCESS:     0  HIT:     0  MISS:     0  HIT %:     0  MISS %:     0  AVERAGE MISS PENALTY: 0
ITLB PREFETCH  REQUESTED:     0  ISSUED:     0  USEFUL:     0  USELESS:     0
 USEFUL LOAD PREFETCHES:          0 PREFETCH ISSUED TO LOWER LEVEL:          0  ACCURACY: -nan
 TIMELY PREFETCHES:          0 LATE PREFETCHES: 0 DROPPED PREFETCHES: 0
ITLB AVERAGE MISS LATENCY: -nan cycles
DTLB TOTAL     ACCESS: 39394966  HIT: 39134361  MISS: 260605  HIT %: 99.3385  MISS %: 0.661519  AVERAGE MISS PENALTY: 77.3755
DTLB LOAD      ACCESS: 33282090  HIT: 33029420  MISS: 252670  HIT %: 99.2408  MISS %: 0.759177  AVERAGE MISS PENALTY: 78.2342
DTLB RFO       ACCESS: 6112876  HIT: 6104941  MISS:  7935  HIT %: 99.8702  MISS %: 0.129808  AVERAGE MISS PENALTY: 50.0331
DTLB PREFETCH  ACCESS:     0  HIT:     0  MISS:     0  HIT %:     0  MISS %:     0  AVERAGE MISS PENALTY: 0
DTLB WRITEBACK ACCESS:     0  HIT:     0  MISS:     0  HIT %:     0  MISS %:     0  AVERAGE MISS PENALTY: 0
DTLB PREFETCH  REQUESTED:     0  ISSUED:     0  USEFUL:     0  USELESS:     0
 USEFUL LOAD PREFETCHES:          0 PREFETCH ISSUED TO LOWER LEVEL:          0  ACCURACY: -nan
 TIMELY PREFETCHES:          0 LATE PREFETCHES: 0 DROPPED PREFETCHES: 0
DTLB AVERAGE MISS LATENCY: 77.3755 cycles
STLB TOTAL     ACCESS: 260605  HIT: 95653  MISS: 164952  HIT %: 36.7042  MISS %: 63.2958  AVERAGE MISS PENALTY: 100
STLB LOAD      ACCESS: 252670  HIT: 90898  MISS: 161772  HIT %: 35.975  MISS %: 64.025  AVERAGE MISS PENALTY: 100
STLB RFO       ACCESS:  7935  HIT:  4755  MISS:  3180  HIT %: 59.9244  MISS %: 40.0756  AVERAGE MISS PENALTY: 100
STLB PREFETCH  ACCESS:     0  HIT:     0  MISS:     0  HIT %:     0  MISS %:     0  AVERAGE MISS PENALTY: 0
STLB WRITEBACK ACCESS:     0  HIT:     0  MISS:     0  HIT %:     0  MISS %:     0  AVERAGE MISS PENALTY: 0
STLB PREFETCH  REQUESTED:     0  ISSUED:     0  USEFUL:     0  USELESS:     0
 USEFUL LOAD PREFETCHES:          0 PREFETCH ISSUED TO LOWER LEVEL:          0  ACCURACY: -nan
 TIMELY PREFETCHES:          0 LATE PREFETCHES: 0 DROPPED PREFETCHES: 0
STLB AVERAGE MISS LATENCY: 100 cycles
L1D TOTAL     ACCESS: 59484067  HIT: 49293091  MISS: 10190976  HIT %: 82.8677  MISS %: 17.1323  AVERAGE MISS PENALTY: 2.68584e+06
L1D LOAD      ACCESS: 32959173  HIT: 30185938  MISS: 2773235  HIT %: 91.5858  MISS %: 8.41415  AVERAGE MISS PENALTY: 9.86956e+06
L1D RFO       ACCESS: 6000554  HIT: 5765073  MISS: 235481  HIT %: 96.0757  MISS %: 3.92432  AVERAGE MISS PENALTY: 2116.91
L1D PREFETCH  ACCESS: 20524340  HIT: 13342080  MISS: 7182260  HIT %: 65.0061  MISS %: 34.9939  AVERAGE MISS PENALTY: 30.2382
L1D WRITEBACK ACCESS:     0  HIT:     0  MISS:     0  HIT %:     0  MISS %:     0  AVERAGE MISS PENALTY: 0
L1D PREFETCH  REQUESTED: 27025132  ISSUED: 22292763  USEFUL: 2841335  USELESS: 4340516
 USEFUL LOAD PREFETCHES:    2841335 PREFETCH ISSUED TO LOWER LEVEL:    8729539  ACCURACY: 32.5485
 TIMELY PREFETCHES:    2841335 LATE PREFETCHES: 96227 DROPPED PREFETCHES: 4732369
L1D AVERAGE MISS LATENCY: 79.6592 cycles
L1I TOTAL     ACCESS: 47658706  HIT: 47658704  MISS:     2  HIT %:   100  MISS %: 4.19651e-06  AVERAGE MISS PENALTY: 219
L1I LOAD      ACCESS: 47658706  HIT: 47658704  MISS:     2  HIT %:   100  MISS %: 4.19651e-06  AVERAGE MISS PENALTY: 219
L1I RFO       ACCESS:     0  HIT:     0  MISS:     0  HIT %:     0  MISS %:     0  AVERAGE MISS PENALTY: 0
L1I PREFETCH  ACCESS:     0  HIT:     0  MISS:     0  HIT %:     0  MISS %:     0  AVERAGE MISS PENALTY: 0
L1I WRITEBACK ACCESS:     0  HIT:     0  MISS:     0  HIT %:     0  MISS %:     0  AVERAGE MISS PENALTY: 0
L1I PREFETCH  REQUESTED:     0  ISSUED:     0  USEFUL:     0  USELESS:     0
 USEFUL LOAD PREFETCHES:          0 PREFETCH ISSUED TO LOWER LEVEL:          0  ACCURACY: -nan
 TIMELY PREFETCHES:          0 LATE PREFETCHES: 0 DROPPED PREFETCHES: 0
L1I AVERAGE MISS LATENCY: 219 cycles
L2C TOTAL     ACCESS: 24194367  HIT: 18587464  MISS: 5606903  HIT %: 76.8256  MISS %: 23.1744  AVERAGE MISS PENALTY: 2.81676e+06
L2C LOAD      ACCESS: 2765949  HIT: 2117200  MISS: 648749  HIT %: 76.5452  MISS %: 23.4548  AVERAGE MISS PENALTY: 2.43436e+07
L2C RFO       ACCESS: 235480  HIT:  7605  MISS: 227875  HIT %: 3.22957  MISS %: 96.7704  AVERAGE MISS PENALTY: 40.4891
L2C PREFETCH  ACCESS: 20594845  HIT: 15864580  MISS: 4730265  HIT %: 77.0318  MISS %: 22.9682  AVERAGE MISS PENALTY: 79.8599
L2C WRITEBACK ACCESS: 598093  HIT: 598079  MISS:    14  HIT %: 99.9977  MISS %: 0.00234077  AVERAGE MISS PENALTY: 0
L2C PREFETCH  REQUESTED: 28441823  ISSUED: 26282937  USEFUL: 229832  USELESS: 4503638
 USEFUL LOAD PREFETCHES:     229832 PREFETCH ISSUED TO LOWER LEVEL:    5015822  ACCURACY: 4.58214
 TIMELY PREFETCHES:     229832 LATE PREFETCHES: 73787 DROPPED PREFETCHES: 2158886
L2C AVERAGE MISS LATENCY: 78.404 cycles
LLC0 TOTAL     ACCESS: 762742  HIT: 527595  MISS: 235147  HIT %: 69.1708  MISS %: 30.8292  AVERAGE MISS PENALTY: 117.726
LLC0 LOAD      ACCESS: 112939  HIT: 80731  MISS: 32208  HIT %: 71.482  MISS %: 28.518  AVERAGE MISS PENALTY: 115.855
LLC0 RFO       ACCESS: 28497  HIT: 27309  MISS:  1188  HIT %: 95.8311  MISS %: 4.16886  AVERAGE MISS PENALTY: 128.324
LLC0 PREFETCH  ACCESS: 550399  HIT: 348841  MISS: 201558  HIT %: 63.3797  MISS %: 36.6203  AVERAGE MISS PENALTY: 118.075
LLC0 WRITEBACK ACCESS: 70907  HIT: 70714  MISS:   193  HIT %: 99.7278  MISS %: 0.272188  AVERAGE MISS PENALTY: 0
LLC0 PREFETCH  REQUESTED:     0  ISSUED:     0  USEFUL: 23543  USELESS: 177385
 USEFUL LOAD PREFETCHES:      23543 PREFETCH ISSUED TO LOWER LEVEL:     201558  ACCURACY: 11.6805
 TIMELY PREFETCHES:      23543 LATE PREFETCHES: 0 DROPPED PREFETCHES: 0
LLC0 AVERAGE MISS LATENCY: 117.726 cycles
Deadblocks : 24556 Deadblock percentage : 76.2419

LLC1 TOTAL     ACCESS: 768986  HIT: 525398  MISS: 243588  HIT %: 68.3235  MISS %: 31.6765  AVERAGE MISS PENALTY: 117.86
LLC1 LOAD      ACCESS: 76723  HIT: 47125  MISS: 29598  HIT %: 61.4223  MISS %: 38.5777  AVERAGE MISS PENALTY: 114.357
LLC1 RFO       ACCESS: 28493  HIT: 27248  MISS:  1245  HIT %: 95.6305  MISS %: 4.36949  AVERAGE MISS PENALTY: 127.727
LLC1 PREFETCH  ACCESS: 592835  HIT: 380277  MISS: 212558  HIT %: 64.1455  MISS %: 35.8545  AVERAGE MISS PENALTY: 118.394
LLC1 WRITEBACK ACCESS: 70935  HIT: 70748  MISS:   187  HIT %: 99.7364  MISS %: 0.263622  AVERAGE MISS PENALTY: 0
LLC1 PREFETCH  REQUESTED:     0  ISSUED:     0  USEFUL: 26174  USELESS: 185774
 USEFUL LOAD PREFETCHES:      26174 PREFETCH ISSUED TO LOWER LEVEL:     212558  ACCURACY: 12.3138
 TIMELY PREFETCHES:      26174 LATE PREFETCHES: 0 DROPPED PREFETCHES: 0
LLC1 AVERAGE MISS LATENCY: 117.86 cycles
LLC2 TOTAL     ACCESS: 773885  HIT: 523743  MISS: 250142  HIT %: 67.6771  MISS %: 32.3229  AVERAGE MISS PENALTY: 118.358
LLC2 LOAD      ACCESS: 73972  HIT: 44224  MISS: 29748  HIT %: 59.7848  MISS %: 40.2152  AVERAGE MISS PENALTY: 114.309
LLC2 RFO       ACCESS: 28477  HIT: 27246  MISS:  1231  HIT %: 95.6772  MISS %: 4.32279  AVERAGE MISS PENALTY: 127.268
LLC2 PREFETCH  ACCESS: 600551  HIT: 381607  MISS: 218944  HIT %: 63.5428  MISS %: 36.4572  AVERAGE MISS PENALTY: 118.977
LLC2 WRITEBACK ACCESS: 70885  HIT: 70666  MISS:   219  HIT %: 99.691  MISS %: 0.308951  AVERAGE MISS PENALTY: 0
LLC2 PREFETCH  REQUESTED:     0  ISSUED:     0  USEFUL: 26762  USELESS: 191509
 USEFUL LOAD PREFETCHES:      26762 PREFETCH ISSUED TO LOWER LEVEL:     218944  ACCURACY: 12.2232
 TIMELY PREFETCHES:      26762 LATE PREFETCHES: 0 DROPPED PREFETCHES: 0
LLC2 AVERAGE MISS LATENCY: 118.358 cycles
LLC3 TOTAL     ACCESS: 775072  HIT: 521990  MISS: 253082  HIT %: 67.3473  MISS %: 32.6527  AVERAGE MISS PENALTY: 118.323
LLC3 LOAD      ACCESS: 73279  HIT: 43577  MISS: 29702  HIT %: 59.4672  MISS %: 40.5328  AVERAGE MISS PENALTY: 114.412
LLC3 RFO       ACCESS: 28490  HIT: 27273  MISS:  1217  HIT %: 95.7283  MISS %: 4.27167  AVERAGE MISS PENALTY: 126.91
LLC3 PREFETCH  ACCESS: 602367  HIT: 380428  MISS: 221939  HIT %: 63.1555  MISS %: 36.8445  AVERAGE MISS PENALTY: 118.919
LLC3 WRITEBACK ACCESS: 70936  HIT: 70712  MISS:   224  HIT %: 99.6842  MISS %: 0.315778  AVERAGE MISS PENALTY: 0
LLC3 PREFETCH  REQUESTED:     0  ISSUED:     0  USEFUL: 27113  USELESS: 194837
 USEFUL LOAD PREFETCHES:      27113 PREFETCH ISSUED TO LOWER LEVEL:     221939  ACCURACY: 12.2164
 TIMELY PREFETCHES:      27113 LATE PREFETCHES: 0 DROPPED PREFETCHES: 0
LLC3 AVERAGE MISS LATENCY: 118.323 cycles
LLC4 TOTAL     ACCESS: 775008  HIT: 519864  MISS: 255144  HIT %: 67.0785  MISS %: 32.9215  AVERAGE MISS PENALTY: 118.44
LLC4 LOAD      ACCESS: 72115  HIT: 42631  MISS: 29484  HIT %: 59.1153  MISS %: 40.8847  AVERAGE MISS PENALTY: 113.769
LLC4 RFO       ACCESS: 28491  HIT: 27222  MISS:  1269  HIT %: 95.546  MISS %: 4.45404  AVERAGE MISS PENALTY: 127.768
LLC4 PREFETCH  ACCESS: 603598  HIT: 379441  MISS: 224157  HIT %: 62.8632  MISS %: 37.1368  AVERAGE MISS PENALTY: 119.125
LLC4 WRITEBACK ACCESS: 70804  HIT: 70570  MISS:   234  HIT %: 99.6695  MISS %: 0.33049  AVERAGE MISS PENALTY: 0
LLC4 PREFETCH  REQUESTED:     0  ISSUED:     0  USEFUL: 26839  USELESS: 197049
 USEFUL LOAD PREFETCHES:      26839 PREFETCH ISSUED TO LOWER LEVEL:     224157  ACCURACY: 11.9733
 TIMELY PREFETCHES:      26839 LATE PREFETCHES: 0 DROPPED PREFETCHES: 0
LLC4 AVERAGE MISS LATENCY: 118.44 cycles
LLC5 TOTAL     ACCESS: 773676  HIT: 517352  MISS: 256324  HIT %: 66.8693  MISS %: 33.1307  AVERAGE MISS PENALTY: 118.527
LLC5 LOAD      ACCESS: 72136  HIT: 42614  MISS: 29522  HIT %: 59.0745  MISS %: 40.9255  AVERAGE MISS PENALTY: 114.395
LLC5 RFO       ACCESS: 28474  HIT: 27224  MISS:  1250  HIT %: 95.61  MISS %: 4.38997  AVERAGE MISS PENALTY: 123.202
LLC5 PREFETCH  ACCESS: 602277  HIT: 376934  MISS: 225343  HIT %: 62.5848  MISS %: 37.4152  AVERAGE MISS PENALTY: 119.153
LLC5 WRITEBACK ACCESS: 70789  HIT: 70580  MISS:   209  HIT %: 99.7048  MISS %: 0.295244  AVERAGE MISS PENALTY: 0
LLC5 PREFETCH  REQUESTED:     0  ISSUED:     0  USEFUL: 26952  USELESS: 198023
 USEFUL LOAD PREFETCHES:      26952 PREFETCH ISSUED TO LOWER LEVEL:     225343  ACCURACY: 11.9604
 TIMELY PREFETCHES:      26952 LATE PREFETCHES: 0 DROPPED PREFETCHES: 0
LLC5 AVERAGE MISS LATENCY: 118.527 cycles
LLC6 TOTAL     ACCESS: 772257  HIT: 514688  MISS: 257569  HIT %: 66.6472  MISS %: 33.3528  AVERAGE MISS PENALTY: 118.515
LLC6 LOAD      ACCESS: 72624  HIT: 42780  MISS: 29844  HIT %: 58.9061  MISS %: 41.0939  AVERAGE MISS PENALTY: 114.377
LLC6 RFO       ACCESS: 28478  HIT: 27228  MISS:  1250  HIT %: 95.6106  MISS %: 4.38935  AVERAGE MISS PENALTY: 128.557
LLC6 PREFETCH  ACCESS: 600563  HIT: 374296  MISS: 226267  HIT %: 62.3242  MISS %: 37.6758  AVERAGE MISS PENALTY: 119.114
LLC6 WRITEBACK ACCESS: 70592  HIT: 70384  MISS:   208  HIT %: 99.7053  MISS %: 0.294651  AVERAGE MISS PENALTY: 0
LLC6 PREFETCH  REQUESTED:     0  ISSUED:     0  USEFUL: 26990  USELESS: 198682
 USEFUL LOAD PREFETCHES:      26990 PREFETCH ISSUED TO LOWER LEVEL:     226267  ACCURACY: 11.9284
 TIMELY PREFETCHES:      26990 LATE PREFETCHES: 0 DROPPED PREFETCHES: 0
LLC6 AVERAGE MISS LATENCY: 118.515 cycles
LLC7 TOTAL     ACCESS: 772066  HIT: 512420  MISS: 259646  HIT %: 66.37  MISS %: 33.63  AVERAGE MISS PENALTY: 118.373
LLC7 LOAD      ACCESS: 72825  HIT: 42691  MISS: 30134  HIT %: 58.6214  MISS %: 41.3786  AVERAGE MISS PENALTY: 114.57
LLC7 RFO       ACCESS: 28475  HIT: 27236  MISS:  1239  HIT %: 95.6488  MISS %: 4.35119  AVERAGE MISS PENALTY: 130.515
LLC7 PREFETCH  ACCESS: 599810  HIT: 371750  MISS: 228060  HIT %: 61.978  MISS %: 38.022  AVERAGE MISS PENALTY: 118.92
LLC7 WRITEBACK ACCESS: 70956  HIT: 70743  MISS:   213  HIT %: 99.6998  MISS %: 0.300186  AVERAGE MISS PENALTY: 0
LLC7 PREFETCH  REQUESTED:     0  ISSUED:     0  USEFUL: 27239  USELESS: 200321
 USEFUL LOAD PREFETCHES:      27239 PREFETCH ISSUED TO LOWER LEVEL:     228060  ACCURACY: 11.9438
 TIMELY PREFETCHES:      27239 LATE PREFETCHES: 0 DROPPED PREFETCHES: 0
LLC7 AVERAGE MISS LATENCY: 118.373 cycles
ROI Average ROB Stall Cycles:	5.3199
ROI Total ROB Stalls Cycles:	388666856
ROI TOTAL ROB counter      :	73059033
ROI Average Load ROB Stall Cycles:	10.2517
ROI Total Load ROB Stalls Cycle  :	91013829
ROI Total Load ROB stalls Counter:	8877901
Major fault: 0 Minor fault: 27221

