
*** ChampSim Multicore Out-of-Order Simulator ***

Warmup Instructions: 200000000
Simulation Instructions: 200000000
Number of CPUs: 1
threads:1

L1I Configuration:
L1I_SET:64
L1I_WAY:8
L1I_RQ_SIZE:64
L1I_WQ_SIZE:64
L1I_PQ_SIZE:8
L1I_MSHR_SIZE:8

L1D Configuration:
L1D_SET:64
L1D_WAY:12
L1D_RQ_SIZE:64
L1D_WQ_SIZE:64
L1D_PQ_SIZE:8
L1D_MSHR_SIZE:16

L2C Configuration:
L2C_SET:1024
L2C_WAY:8
L2C_RQ_SIZE:32
L2C_WQ_SIZE:32
L2C_PQ_SIZE:16
L2C_MSHR_SIZE:32

LLC Configuration:
LLC_SET:2048
LLC_WAY:16
LLC SLICES:8
LLC_RQ_SIZE:64
LLC_WQ_SIZE:64
LLC_PQ_SIZE:32
LLC_MSHR_SIZE:64

Interconnect OFF
Attacker deprioritize is: OFF
Off-chip DRAM Size: 4096 MB Channels: 1 Width: 64-bit Data Rate: 3200 MT/s
PAGE SIZE in KB: 4.000000 
PAGE SIZE in MB: 0.003906 
PAGE offset in bits: 12 
CEASER-S_LLC:0
MIRAGE : 0
CEASER_LATENCY:3
REMAP : OFF
Partitions : 1
Multi-Step : OFF
BFS : OFF

CPU 0 runs /home/anubhav/gap/bfs-8.trace.gz
CPU 0 Bimodal branch predictor
Initialize Hawkeye state
Initialize Hawkeye state
Initialize Hawkeye state
Initialize Hawkeye state
Initialize Hawkeye state
Initialize Hawkeye state
Initialize Hawkeye state
Initialize Hawkeye state
Heartbeat CPU 0 instructions: 10000001 cycles: 14705087 heartbeat IPC: 0.680037 cumulative IPC: 0.680037 (Simulation time: 0 hr 0 min 50 sec) 
 Total Blocks : 262144 Invalid Blocks : 137458
Heartbeat CPU 0 instructions: 20000001 cycles: 26500243 heartbeat IPC: 0.847806 cumulative IPC: 0.75471 (Simulation time: 0 hr 2 min 5 sec) 
 Total Blocks : 262144 Invalid Blocks : 48386
Heartbeat CPU 0 instructions: 30000002 cycles: 39343940 heartbeat IPC: 0.778592 cumulative IPC: 0.762506 (Simulation time: 0 hr 4 min 11 sec) 
 Total Blocks : 262144 Invalid Blocks : 14049
Heartbeat CPU 0 instructions: 40000000 cycles: 53905868 heartbeat IPC: 0.686722 cumulative IPC: 0.742034 (Simulation time: 0 hr 6 min 18 sec) 
 Total Blocks : 262144 Invalid Blocks : 4512
Heartbeat CPU 0 instructions: 50000000 cycles: 66579379 heartbeat IPC: 0.789047 cumulative IPC: 0.750983 (Simulation time: 0 hr 7 min 7 sec) 
 Total Blocks : 262144 Invalid Blocks : 2594
Heartbeat CPU 0 instructions: 60000001 cycles: 70584822 heartbeat IPC: 2.4966 cumulative IPC: 0.850041 (Simulation time: 0 hr 7 min 41 sec) 
 Total Blocks : 262144 Invalid Blocks : 1945
Heartbeat CPU 0 instructions: 70000000 cycles: 80189618 heartbeat IPC: 1.04115 cumulative IPC: 0.872931 (Simulation time: 0 hr 8 min 34 sec) 
 Total Blocks : 262144 Invalid Blocks : 1700
Heartbeat CPU 0 instructions: 80000001 cycles: 93520580 heartbeat IPC: 0.750134 cumulative IPC: 0.855427 (Simulation time: 0 hr 9 min 29 sec) 
 Total Blocks : 262144 Invalid Blocks : 1068
Heartbeat CPU 0 instructions: 90000001 cycles: 107711334 heartbeat IPC: 0.704684 cumulative IPC: 0.835567 (Simulation time: 0 hr 10 min 26 sec) 
 Total Blocks : 262144 Invalid Blocks : 413
Heartbeat CPU 0 instructions: 100000000 cycles: 121933163 heartbeat IPC: 0.703144 cumulative IPC: 0.820121 (Simulation time: 0 hr 11 min 24 sec) 
 Total Blocks : 262144 Invalid Blocks : 150
Heartbeat CPU 0 instructions: 110000000 cycles: 139248612 heartbeat IPC: 0.577519 cumulative IPC: 0.789954 (Simulation time: 0 hr 12 min 27 sec) 
 Total Blocks : 262144 Invalid Blocks : 67
Heartbeat CPU 0 instructions: 120000001 cycles: 156213911 heartbeat IPC: 0.589439 cumulative IPC: 0.768177 (Simulation time: 0 hr 13 min 25 sec) 
 Total Blocks : 262144 Invalid Blocks : 45
Heartbeat CPU 0 instructions: 130000000 cycles: 161515409 heartbeat IPC: 1.88626 cumulative IPC: 0.804877 (Simulation time: 0 hr 14 min 1 sec) 
 Total Blocks : 262144 Invalid Blocks : 43
Heartbeat CPU 0 instructions: 140000000 cycles: 167002726 heartbeat IPC: 1.82238 cumulative IPC: 0.83831 (Simulation time: 0 hr 14 min 48 sec) 
 Total Blocks : 262144 Invalid Blocks : 41
Heartbeat CPU 0 instructions: 150000000 cycles: 181398014 heartbeat IPC: 0.694672 cumulative IPC: 0.826911 (Simulation time: 0 hr 15 min 40 sec) 
 Total Blocks : 262144 Invalid Blocks : 32
Heartbeat CPU 0 instructions: 160000001 cycles: 195981265 heartbeat IPC: 0.685718 cumulative IPC: 0.816405 (Simulation time: 0 hr 16 min 37 sec) 
 Total Blocks : 262144 Invalid Blocks : 16
Heartbeat CPU 0 instructions: 170000001 cycles: 210568585 heartbeat IPC: 0.685527 cumulative IPC: 0.807338 (Simulation time: 0 hr 17 min 34 sec) 
 Total Blocks : 262144 Invalid Blocks : 11
Heartbeat CPU 0 instructions: 180000002 cycles: 225341755 heartbeat IPC: 0.676903 cumulative IPC: 0.798787 (Simulation time: 0 hr 18 min 31 sec) 
 Total Blocks : 262144 Invalid Blocks : 7
Heartbeat CPU 0 instructions: 190000000 cycles: 243434803 heartbeat IPC: 0.552698 cumulative IPC: 0.780496 (Simulation time: 0 hr 19 min 35 sec) 
 Total Blocks : 262144 Invalid Blocks : 4
Heartbeat CPU 0 instructions: 200000000 cycles: 260490660 heartbeat IPC: 0.586309 cumulative IPC: 0.767782 (Simulation time: 0 hr 20 min 34 sec) 
 Total Blocks : 262144 Invalid Blocks : 2

Warmup complete CPU 0 instructions: 200000003 cycles: 260490661 (Simulation time: 0 hr 20 min 34 sec) 

Heartbeat CPU 0 instructions: 210000002 cycles: 270854187 heartbeat IPC: 0.964923 cumulative IPC: 0.964922 (Simulation time: 0 hr 21 min 47 sec) 
 Total Blocks : 262144 Invalid Blocks : 2
Heartbeat CPU 0 instructions: 220000000 cycles: 282252238 heartbeat IPC: 0.877343 cumulative IPC: 0.919051 (Simulation time: 0 hr 23 min 12 sec) 
 Total Blocks : 262144 Invalid Blocks : 2
Heartbeat CPU 0 instructions: 230000003 cycles: 309259119 heartbeat IPC: 0.370276 cumulative IPC: 0.615152 (Simulation time: 0 hr 24 min 53 sec) 
 Total Blocks : 262144 Invalid Blocks : 2
Heartbeat CPU 0 instructions: 240000000 cycles: 343294010 heartbeat IPC: 0.293816 cumulative IPC: 0.483072 (Simulation time: 0 hr 26 min 59 sec) 
 Total Blocks : 262144 Invalid Blocks : 2
Heartbeat CPU 0 instructions: 250000001 cycles: 379218026 heartbeat IPC: 0.278365 cumulative IPC: 0.421133 (Simulation time: 0 hr 29 min 8 sec) 
 Total Blocks : 262144 Invalid Blocks : 1
Heartbeat CPU 0 instructions: 260000002 cycles: 419286022 heartbeat IPC: 0.249576 cumulative IPC: 0.377845 (Simulation time: 0 hr 31 min 23 sec) 
 Total Blocks : 262144 Invalid Blocks : 0
Heartbeat CPU 0 instructions: 270000002 cycles: 445316170 heartbeat IPC: 0.38417 cumulative IPC: 0.378736 (Simulation time: 0 hr 33 min 1 sec) 
 Total Blocks : 262144 Invalid Blocks : 0
Heartbeat CPU 0 instructions: 280000002 cycles: 461700963 heartbeat IPC: 0.610322 cumulative IPC: 0.397594 (Simulation time: 0 hr 34 min 34 sec) 
 Total Blocks : 262144 Invalid Blocks : 0
Heartbeat CPU 0 instructions: 290000000 cycles: 482016485 heartbeat IPC: 0.492234 cumulative IPC: 0.406273 (Simulation time: 0 hr 36 min 8 sec) 
 Total Blocks : 262144 Invalid Blocks : 0
Heartbeat CPU 0 instructions: 300000002 cycles: 515310534 heartbeat IPC: 0.300354 cumulative IPC: 0.392434 (Simulation time: 0 hr 38 min 6 sec) 
 Total Blocks : 262144 Invalid Blocks : 0
Heartbeat CPU 0 instructions: 310000001 cycles: 555155947 heartbeat IPC: 0.25097 cumulative IPC: 0.373305 (Simulation time: 0 hr 40 min 20 sec) 
 Total Blocks : 262144 Invalid Blocks : 0
Heartbeat CPU 0 instructions: 320000002 cycles: 595199651 heartbeat IPC: 0.249727 cumulative IPC: 0.35852 (Simulation time: 0 hr 42 min 35 sec) 
 Total Blocks : 262144 Invalid Blocks : 0
Heartbeat CPU 0 instructions: 330000000 cycles: 641816960 heartbeat IPC: 0.214513 cumulative IPC: 0.340915 (Simulation time: 0 hr 45 min 5 sec) 
 Total Blocks : 262144 Invalid Blocks : 0
Heartbeat CPU 0 instructions: 340000000 cycles: 681334357 heartbeat IPC: 0.253053 cumulative IPC: 0.332665 (Simulation time: 0 hr 47 min 13 sec) 
 Total Blocks : 262144 Invalid Blocks : 0
Heartbeat CPU 0 instructions: 350000000 cycles: 697260469 heartbeat IPC: 0.6279 cumulative IPC: 0.34343 (Simulation time: 0 hr 48 min 34 sec) 
 Total Blocks : 262144 Invalid Blocks : 0
Heartbeat CPU 0 instructions: 360000002 cycles: 705214594 heartbeat IPC: 1.25721 cumulative IPC: 0.359774 (Simulation time: 0 hr 49 min 53 sec) 
 Total Blocks : 262144 Invalid Blocks : 0
Heartbeat CPU 0 instructions: 370000000 cycles: 730919459 heartbeat IPC: 0.389031 cumulative IPC: 0.361372 (Simulation time: 0 hr 51 min 28 sec) 
 Total Blocks : 262144 Invalid Blocks : 0
Heartbeat CPU 0 instructions: 380000001 cycles: 761474905 heartbeat IPC: 0.327274 cumulative IPC: 0.359293 (Simulation time: 0 hr 53 min 29 sec) 
 Total Blocks : 262144 Invalid Blocks : 0
Heartbeat CPU 0 instructions: 390000000 cycles: 796766698 heartbeat IPC: 0.283352 cumulative IPC: 0.354295 (Simulation time: 0 hr 55 min 37 sec) 
 Total Blocks : 262144 Invalid Blocks : 0
Heartbeat CPU 0 instructions: 400000000 cycles: 834653111 heartbeat IPC: 0.263947 cumulative IPC: 0.348333 (Simulation time: 0 hr 57 min 49 sec) 
 Total Blocks : 262144 Invalid Blocks : 0
Finished CPU 0 instructions: 200000000 cycles: 574162451 cumulative IPC: 0.348333 (Simulation time: 0 hr 57 min 49 sec) 

CPU 0 Branch Prediction Accuracy: 84.9687% MPKI: 31.6895 Average ROB Occupancy at Mispredict: 24.4799

ChampSim completed all CPUs

Region of Interest Statistics

CPU 0 cumulative IPC: 0.348333 instructions: 200000000 cycles: 574162451
ITLB TOTAL     ACCESS: 29920410  HIT: 29920410  MISS:     0  HIT %:   100  MISS %:     0  AVERAGE MISS PENALTY: 0
ITLB LOAD      ACCESS: 29920410  HIT: 29920410  MISS:     0  HIT %:   100  MISS %:     0  AVERAGE MISS PENALTY: 0
ITLB RFO       ACCESS:     0  HIT:     0  MISS:     0  HIT %:     0  MISS %:     0  AVERAGE MISS PENALTY: 0
ITLB PREFETCH  ACCESS:     0  HIT:     0  MISS:     0  HIT %:     0  MISS %:     0  AVERAGE MISS PENALTY: 0
ITLB WRITEBACK ACCESS:     0  HIT:     0  MISS:     0  HIT %:     0  MISS %:     0  AVERAGE MISS PENALTY: 0
ITLB PREFETCH  REQUESTED:     0  ISSUED:     0  USEFUL:     0  USELESS:     0
 USEFUL LOAD PREFETCHES:          0 PREFETCH ISSUED TO LOWER LEVEL:          0  ACCURACY: -nan
 TIMELY PREFETCHES:          0 LATE PREFETCHES: 0 DROPPED PREFETCHES: 0
ITLB AVERAGE MISS LATENCY: -nan cycles
DTLB TOTAL     ACCESS: 39748942  HIT: 39444756  MISS: 304186  HIT %: 99.2347  MISS %: 0.765268  AVERAGE MISS PENALTY: 72.8284
DTLB LOAD      ACCESS: 32748092  HIT: 32455063  MISS: 293029  HIT %: 99.1052  MISS %: 0.894797  AVERAGE MISS PENALTY: 74.0768
DTLB RFO       ACCESS: 7000850  HIT: 6989693  MISS: 11157  HIT %: 99.8406  MISS %: 0.159366  AVERAGE MISS PENALTY: 40.0405
DTLB PREFETCH  ACCESS:     0  HIT:     0  MISS:     0  HIT %:     0  MISS %:     0  AVERAGE MISS PENALTY: 0
DTLB WRITEBACK ACCESS:     0  HIT:     0  MISS:     0  HIT %:     0  MISS %:     0  AVERAGE MISS PENALTY: 0
DTLB PREFETCH  REQUESTED:     0  ISSUED:     0  USEFUL:     0  USELESS:     0
 USEFUL LOAD PREFETCHES:          0 PREFETCH ISSUED TO LOWER LEVEL:          0  ACCURACY: -nan
 TIMELY PREFETCHES:          0 LATE PREFETCHES: 0 DROPPED PREFETCHES: 0
DTLB AVERAGE MISS LATENCY: 72.8284 cycles
STLB TOTAL     ACCESS: 304186  HIT: 121075  MISS: 183111  HIT %: 39.8029  MISS %: 60.1971  AVERAGE MISS PENALTY: 100
STLB LOAD      ACCESS: 293029  HIT: 113273  MISS: 179756  HIT %: 38.6559  MISS %: 61.3441  AVERAGE MISS PENALTY: 100
STLB RFO       ACCESS: 11157  HIT:  7802  MISS:  3355  HIT %: 69.9292  MISS %: 30.0708  AVERAGE MISS PENALTY: 100
STLB PREFETCH  ACCESS:     0  HIT:     0  MISS:     0  HIT %:     0  MISS %:     0  AVERAGE MISS PENALTY: 0
STLB WRITEBACK ACCESS:     0  HIT:     0  MISS:     0  HIT %:     0  MISS %:     0  AVERAGE MISS PENALTY: 0
STLB PREFETCH  REQUESTED:     0  ISSUED:     0  USEFUL:     0  USELESS:     0
 USEFUL LOAD PREFETCHES:          0 PREFETCH ISSUED TO LOWER LEVEL:          0  ACCURACY: -nan
 TIMELY PREFETCHES:          0 LATE PREFETCHES: 0 DROPPED PREFETCHES: 0
STLB AVERAGE MISS LATENCY: 100 cycles
L1D TOTAL     ACCESS: 56080362  HIT: 47703966  MISS: 8376396  HIT %: 85.0636  MISS %: 14.9364  AVERAGE MISS PENALTY: 5.3267e+06
L1D LOAD      ACCESS: 32445395  HIT: 29984152  MISS: 2461243  HIT %: 92.4142  MISS %: 7.5858  AVERAGE MISS PENALTY: 1.81283e+07
L1D RFO       ACCESS: 6917536  HIT: 6672475  MISS: 245061  HIT %: 96.4574  MISS %: 3.54261  AVERAGE MISS PENALTY: 70.5769
L1D PREFETCH  ACCESS: 16717431  HIT: 11047339  MISS: 5670092  HIT %: 66.0828  MISS %: 33.9172  AVERAGE MISS PENALTY: 45.3359
L1D WRITEBACK ACCESS:     0  HIT:     0  MISS:     0  HIT %:     0  MISS %:     0  AVERAGE MISS PENALTY: 0
L1D PREFETCH  REQUESTED: 19070710  ISSUED: 18560553  USEFUL: 2687480  USELESS: 2982475
 USEFUL LOAD PREFETCHES:    2687480 PREFETCH ISSUED TO LOWER LEVEL:    7151111  ACCURACY: 37.5813
 TIMELY PREFETCHES:    2687480 LATE PREFETCHES: 140034 DROPPED PREFETCHES: 510157
L1D AVERAGE MISS LATENCY: 47.8677 cycles
L1I TOTAL     ACCESS: 47131618  HIT: 47131618  MISS:     0  HIT %:   100  MISS %:     0  AVERAGE MISS PENALTY: 0
L1I LOAD      ACCESS: 47131618  HIT: 47131618  MISS:     0  HIT %:   100  MISS %:     0  AVERAGE MISS PENALTY: 0
L1I RFO       ACCESS:     0  HIT:     0  MISS:     0  HIT %:     0  MISS %:     0  AVERAGE MISS PENALTY: 0
L1I PREFETCH  ACCESS:     0  HIT:     0  MISS:     0  HIT %:     0  MISS %:     0  AVERAGE MISS PENALTY: 0
L1I WRITEBACK ACCESS:     0  HIT:     0  MISS:     0  HIT %:     0  MISS %:     0  AVERAGE MISS PENALTY: 0
L1I PREFETCH  REQUESTED:     0  ISSUED:     0  USEFUL:     0  USELESS:     0
 USEFUL LOAD PREFETCHES:          0 PREFETCH ISSUED TO LOWER LEVEL:          0  ACCURACY: -nan
 TIMELY PREFETCHES:          0 LATE PREFETCHES: 0 DROPPED PREFETCHES: 0
L1I AVERAGE MISS LATENCY: -nan cycles
L2C TOTAL     ACCESS: 19385260  HIT: 12864024  MISS: 6521236  HIT %: 66.3598  MISS %: 33.6402  AVERAGE MISS PENALTY: 4.47859e+06
L2C LOAD      ACCESS: 2451026  HIT: 1660474  MISS: 790552  HIT %: 67.7461  MISS %: 32.2539  AVERAGE MISS PENALTY: 3.69429e+07
L2C RFO       ACCESS: 245061  HIT:  9223  MISS: 235838  HIT %: 3.76355  MISS %: 96.2364  AVERAGE MISS PENALTY: 57.4154
L2C PREFETCH  ACCESS: 15960194  HIT: 10465369  MISS: 5494825  HIT %: 65.5717  MISS %: 34.4283  AVERAGE MISS PENALTY: 108.909
L2C WRITEBACK ACCESS: 728979  HIT: 728958  MISS:    21  HIT %: 99.9971  MISS %: 0.00288074  AVERAGE MISS PENALTY: 0
L2C PREFETCH  REQUESTED: 18113703  ISSUED: 17875340  USEFUL: 229047  USELESS: 5267332
 USEFUL LOAD PREFETCHES:     229047 PREFETCH ISSUED TO LOWER LEVEL:    5951056  ACCURACY: 3.84885
 TIMELY PREFETCHES:     229047 LATE PREFETCHES: 119689 DROPPED PREFETCHES: 238363
L2C AVERAGE MISS LATENCY: 107.381 cycles
LLC0 TOTAL     ACCESS: 887735  HIT: 462910  MISS: 424825  HIT %: 52.1451  MISS %: 47.8549  AVERAGE MISS PENALTY: 130.284
LLC0 LOAD      ACCESS: 129260  HIT: 57168  MISS: 72092  HIT %: 44.2271  MISS %: 55.7729  AVERAGE MISS PENALTY: 131.181
LLC0 RFO       ACCESS: 29502  HIT: 24972  MISS:  4530  HIT %: 84.6451  MISS %: 15.3549  AVERAGE MISS PENALTY: 140.15
LLC0 PREFETCH  ACCESS: 644285  HIT: 296607  MISS: 347678  HIT %: 46.0366  MISS %: 53.9634  AVERAGE MISS PENALTY: 130.166
LLC0 WRITEBACK ACCESS: 84688  HIT: 84163  MISS:   525  HIT %: 99.3801  MISS %: 0.619923  AVERAGE MISS PENALTY: 0
LLC0 PREFETCH  REQUESTED:     0  ISSUED:     0  USEFUL: 24541  USELESS: 323658
 USEFUL LOAD PREFETCHES:      24541 PREFETCH ISSUED TO LOWER LEVEL:     347678  ACCURACY: 7.05854
 TIMELY PREFETCHES:      24541 LATE PREFETCHES: 0 DROPPED PREFETCHES: 0
LLC0 AVERAGE MISS LATENCY: 130.284 cycles
Deadblocks : 58733 Deadblock percentage : 81.4695

LLC1 TOTAL     ACCESS: 897524  HIT: 460107  MISS: 437417  HIT %: 51.264  MISS %: 48.736  AVERAGE MISS PENALTY: 130.837
LLC1 LOAD      ACCESS: 93422  HIT: 38027  MISS: 55395  HIT %: 40.7045  MISS %: 59.2955  AVERAGE MISS PENALTY: 128.564
LLC1 RFO       ACCESS: 29480  HIT: 24805  MISS:  4675  HIT %: 84.1418  MISS %: 15.8582  AVERAGE MISS PENALTY: 139.596
LLC1 PREFETCH  ACCESS: 689967  HIT: 313165  MISS: 376802  HIT %: 45.3884  MISS %: 54.6116  AVERAGE MISS PENALTY: 131.251
LLC1 WRITEBACK ACCESS: 84655  HIT: 84110  MISS:   545  HIT %: 99.3562  MISS %: 0.643789  AVERAGE MISS PENALTY: 0
LLC1 PREFETCH  REQUESTED:     0  ISSUED:     0  USEFUL: 27610  USELESS: 350095
 USEFUL LOAD PREFETCHES:      27610 PREFETCH ISSUED TO LOWER LEVEL:     376802  ACCURACY: 7.32746
 TIMELY PREFETCHES:      27610 LATE PREFETCHES: 0 DROPPED PREFETCHES: 0
LLC1 AVERAGE MISS LATENCY: 130.837 cycles
LLC2 TOTAL     ACCESS: 903705  HIT: 455695  MISS: 448010  HIT %: 50.4252  MISS %: 49.5748  AVERAGE MISS PENALTY: 131.632
LLC2 LOAD      ACCESS: 89328  HIT: 35488  MISS: 53840  HIT %: 39.7277  MISS %: 60.2723  AVERAGE MISS PENALTY: 128.502
LLC2 RFO       ACCESS: 29463  HIT: 24766  MISS:  4697  HIT %: 84.058  MISS %: 15.942  AVERAGE MISS PENALTY: 140.476
LLC2 PREFETCH  ACCESS: 700181  HIT: 311243  MISS: 388938  HIT %: 44.4518  MISS %: 55.5482  AVERAGE MISS PENALTY: 132.14
LLC2 WRITEBACK ACCESS: 84733  HIT: 84198  MISS:   535  HIT %: 99.3686  MISS %: 0.631395  AVERAGE MISS PENALTY: 0
LLC2 PREFETCH  REQUESTED:     0  ISSUED:     0  USEFUL: 27556  USELESS: 362265
 USEFUL LOAD PREFETCHES:      27556 PREFETCH ISSUED TO LOWER LEVEL:     388938  ACCURACY: 7.08493
 TIMELY PREFETCHES:      27556 LATE PREFETCHES: 0 DROPPED PREFETCHES: 0
LLC2 AVERAGE MISS LATENCY: 131.632 cycles
LLC3 TOTAL     ACCESS: 904023  HIT: 453549  MISS: 450474  HIT %: 50.1701  MISS %: 49.8299  AVERAGE MISS PENALTY: 130.937
LLC3 LOAD      ACCESS: 88067  HIT: 35384  MISS: 52683  HIT %: 40.1785  MISS %: 59.8215  AVERAGE MISS PENALTY: 129.406
LLC3 RFO       ACCESS: 29470  HIT: 24727  MISS:  4743  HIT %: 83.9057  MISS %: 16.0943  AVERAGE MISS PENALTY: 139.837
LLC3 PREFETCH  ACCESS: 701600  HIT: 309119  MISS: 392481  HIT %: 44.0592  MISS %: 55.9408  AVERAGE MISS PENALTY: 131.224
LLC3 WRITEBACK ACCESS: 84886  HIT: 84319  MISS:   567  HIT %: 99.332  MISS %: 0.667955  AVERAGE MISS PENALTY: 0
LLC3 PREFETCH  REQUESTED:     0  ISSUED:     0  USEFUL: 27559  USELESS: 365630
 USEFUL LOAD PREFETCHES:      27559 PREFETCH ISSUED TO LOWER LEVEL:     392481  ACCURACY: 7.02174
 TIMELY PREFETCHES:      27559 LATE PREFETCHES: 0 DROPPED PREFETCHES: 0
LLC3 AVERAGE MISS LATENCY: 130.937 cycles
LLC4 TOTAL     ACCESS: 903113  HIT: 451105  MISS: 452008  HIT %: 49.95  MISS %: 50.05  AVERAGE MISS PENALTY: 131.264
LLC4 LOAD      ACCESS: 86619  HIT: 34708  MISS: 51911  HIT %: 40.0697  MISS %: 59.9303  AVERAGE MISS PENALTY: 128.777
LLC4 RFO       ACCESS: 29465  HIT: 24770  MISS:  4695  HIT %: 84.0658  MISS %: 15.9342  AVERAGE MISS PENALTY: 141.134
LLC4 PREFETCH  ACCESS: 702302  HIT: 307448  MISS: 394854  HIT %: 43.7772  MISS %: 56.2228  AVERAGE MISS PENALTY: 131.656
LLC4 WRITEBACK ACCESS: 84727  HIT: 84179  MISS:   548  HIT %: 99.3532  MISS %: 0.646783  AVERAGE MISS PENALTY: 0
LLC4 PREFETCH  REQUESTED:     0  ISSUED:     0  USEFUL: 27633  USELESS: 367924
 USEFUL LOAD PREFETCHES:      27633 PREFETCH ISSUED TO LOWER LEVEL:     394854  ACCURACY: 6.99828
 TIMELY PREFETCHES:      27633 LATE PREFETCHES: 0 DROPPED PREFETCHES: 0
LLC4 AVERAGE MISS LATENCY: 131.264 cycles
LLC5 TOTAL     ACCESS: 902531  HIT: 449139  MISS: 453392  HIT %: 49.7644  MISS %: 50.2356  AVERAGE MISS PENALTY: 130.881
LLC5 LOAD      ACCESS: 87745  HIT: 34749  MISS: 52996  HIT %: 39.6023  MISS %: 60.3977  AVERAGE MISS PENALTY: 128.924
LLC5 RFO       ACCESS: 29486  HIT: 24690  MISS:  4796  HIT %: 83.7347  MISS %: 16.2653  AVERAGE MISS PENALTY: 140.05
LLC5 PREFETCH  ACCESS: 700695  HIT: 305653  MISS: 395042  HIT %: 43.6214  MISS %: 56.3786  AVERAGE MISS PENALTY: 131.217
LLC5 WRITEBACK ACCESS: 84605  HIT: 84047  MISS:   558  HIT %: 99.3405  MISS %: 0.659535  AVERAGE MISS PENALTY: 0
LLC5 PREFETCH  REQUESTED:     0  ISSUED:     0  USEFUL: 27504  USELESS: 368240
 USEFUL LOAD PREFETCHES:      27504 PREFETCH ISSUED TO LOWER LEVEL:     395043  ACCURACY: 6.96228
 TIMELY PREFETCHES:      27504 LATE PREFETCHES: 0 DROPPED PREFETCHES: 0
LLC5 AVERAGE MISS LATENCY: 130.881 cycles
LLC6 TOTAL     ACCESS: 901197  HIT: 445501  MISS: 455696  HIT %: 49.4344  MISS %: 50.5656  AVERAGE MISS PENALTY: 131.396
LLC6 LOAD      ACCESS: 88251  HIT: 35204  MISS: 53047  HIT %: 39.8908  MISS %: 60.1092  AVERAGE MISS PENALTY: 129.384
LLC6 RFO       ACCESS: 29482  HIT: 24717  MISS:  4765  HIT %: 83.8376  MISS %: 16.1624  AVERAGE MISS PENALTY: 140.875
LLC6 PREFETCH  ACCESS: 698460  HIT: 301157  MISS: 397303  HIT %: 43.1173  MISS %: 56.8827  AVERAGE MISS PENALTY: 131.744
LLC6 WRITEBACK ACCESS: 85004  HIT: 84423  MISS:   581  HIT %: 99.3165  MISS %: 0.683497  AVERAGE MISS PENALTY: 0
LLC6 PREFETCH  REQUESTED:     0  ISSUED:     0  USEFUL: 27566  USELESS: 370395
 USEFUL LOAD PREFETCHES:      27566 PREFETCH ISSUED TO LOWER LEVEL:     397303  ACCURACY: 6.93828
 TIMELY PREFETCHES:      27566 LATE PREFETCHES: 0 DROPPED PREFETCHES: 0
LLC6 AVERAGE MISS LATENCY: 131.396 cycles
LLC7 TOTAL     ACCESS: 899609  HIT: 443815  MISS: 455794  HIT %: 49.3342  MISS %: 50.6658  AVERAGE MISS PENALTY: 131.119
LLC7 LOAD      ACCESS: 87570  HIT: 35176  MISS: 52394  HIT %: 40.169  MISS %: 59.831  AVERAGE MISS PENALTY: 129.378
LLC7 RFO       ACCESS: 29490  HIT: 24625  MISS:  4865  HIT %: 83.5029  MISS %: 16.4971  AVERAGE MISS PENALTY: 139.893
LLC7 PREFETCH  ACCESS: 697623  HIT: 299660  MISS: 397963  HIT %: 42.9544  MISS %: 57.0456  AVERAGE MISS PENALTY: 131.429
LLC7 WRITEBACK ACCESS: 84926  HIT: 84354  MISS:   572  HIT %: 99.3265  MISS %: 0.673528  AVERAGE MISS PENALTY: 0
LLC7 PREFETCH  REQUESTED:     0  ISSUED:     0  USEFUL: 27644  USELESS: 370942
 USEFUL LOAD PREFETCHES:      27644 PREFETCH ISSUED TO LOWER LEVEL:     397963  ACCURACY: 6.94637
 TIMELY PREFETCHES:      27644 LATE PREFETCHES: 0 DROPPED PREFETCHES: 0
LLC7 AVERAGE MISS LATENCY: 131.119 cycles
ROI Average ROB Stall Cycles:	5.90472
ROI Total ROB Stalls Cycles:	418552717
ROI TOTAL ROB counter      :	70884456
ROI Average Load ROB Stall Cycles:	12.3315
ROI Total Load ROB Stalls Cycle  :	103482951
ROI Total Load ROB stalls Counter:	8391784
Major fault: 0 Minor fault: 27397

