
*** ChampSim Multicore Out-of-Order Simulator ***

Warmup Instructions: 200000000
Simulation Instructions: 200000000
Number of CPUs: 1
threads:1

L1I Configuration:
L1I_SET:64
L1I_WAY:8
L1I_RQ_SIZE:64
L1I_WQ_SIZE:64
L1I_PQ_SIZE:8
L1I_MSHR_SIZE:8

L1D Configuration:
L1D_SET:64
L1D_WAY:12
L1D_RQ_SIZE:64
L1D_WQ_SIZE:64
L1D_PQ_SIZE:8
L1D_MSHR_SIZE:16

L2C Configuration:
L2C_SET:1024
L2C_WAY:8
L2C_RQ_SIZE:32
L2C_WQ_SIZE:32
L2C_PQ_SIZE:16
L2C_MSHR_SIZE:32

LLC Configuration:
LLC_SET:2048
LLC_WAY:16
LLC SLICES:8
LLC_RQ_SIZE:64
LLC_WQ_SIZE:64
LLC_PQ_SIZE:32
LLC_MSHR_SIZE:64

Interconnect OFF
Attacker deprioritize is: OFF
Off-chip DRAM Size: 4096 MB Channels: 1 Width: 64-bit Data Rate: 3200 MT/s
PAGE SIZE in KB: 4.000000 
PAGE SIZE in MB: 0.003906 
PAGE offset in bits: 12 
CEASER-S_LLC:0
MIRAGE : 0
CEASER_LATENCY:3
REMAP : OFF
Partitions : 1
Multi-Step : OFF
BFS : OFF

CPU 0 runs /home/anubhav/gap/bfs-10.trace.gz
CPU 0 Bimodal branch predictor
Initialize Hawkeye state
Initialize Hawkeye state
Initialize Hawkeye state
Initialize Hawkeye state
Initialize Hawkeye state
Initialize Hawkeye state
Initialize Hawkeye state
Initialize Hawkeye state
Heartbeat CPU 0 instructions: 10000001 cycles: 14732902 heartbeat IPC: 0.678753 cumulative IPC: 0.678753 (Simulation time: 0 hr 0 min 51 sec) 
 Total Blocks : 262144 Invalid Blocks : 139447
Heartbeat CPU 0 instructions: 20000000 cycles: 25585787 heartbeat IPC: 0.921414 cumulative IPC: 0.781684 (Simulation time: 0 hr 1 min 57 sec) 
 Total Blocks : 262144 Invalid Blocks : 62008
Heartbeat CPU 0 instructions: 30000000 cycles: 36356644 heartbeat IPC: 0.928431 cumulative IPC: 0.825159 (Simulation time: 0 hr 3 min 17 sec) 
 Total Blocks : 262144 Invalid Blocks : 27354
Heartbeat CPU 0 instructions: 40000001 cycles: 47104108 heartbeat IPC: 0.930452 cumulative IPC: 0.849183 (Simulation time: 0 hr 4 min 51 sec) 
 Total Blocks : 262144 Invalid Blocks : 12153
Heartbeat CPU 0 instructions: 50000001 cycles: 57853140 heartbeat IPC: 0.930316 cumulative IPC: 0.864257 (Simulation time: 0 hr 6 min 39 sec) 
 Total Blocks : 262144 Invalid Blocks : 5310
Heartbeat CPU 0 instructions: 60000000 cycles: 71258098 heartbeat IPC: 0.745993 cumulative IPC: 0.84201 (Simulation time: 0 hr 8 min 9 sec) 
 Total Blocks : 262144 Invalid Blocks : 1795
Heartbeat CPU 0 instructions: 70000002 cycles: 87155773 heartbeat IPC: 0.629023 cumulative IPC: 0.80316 (Simulation time: 0 hr 9 min 12 sec) 
 Total Blocks : 262144 Invalid Blocks : 518
Heartbeat CPU 0 instructions: 80000001 cycles: 103887412 heartbeat IPC: 0.59767 cumulative IPC: 0.770064 (Simulation time: 0 hr 10 min 11 sec) 
 Total Blocks : 262144 Invalid Blocks : 278
Heartbeat CPU 0 instructions: 90000003 cycles: 107733347 heartbeat IPC: 2.60015 cumulative IPC: 0.835396 (Simulation time: 0 hr 10 min 43 sec) 
 Total Blocks : 262144 Invalid Blocks : 266
Heartbeat CPU 0 instructions: 100000000 cycles: 114301970 heartbeat IPC: 1.52239 cumulative IPC: 0.874876 (Simulation time: 0 hr 11 min 32 sec) 
 Total Blocks : 262144 Invalid Blocks : 232
Heartbeat CPU 0 instructions: 110000000 cycles: 128649299 heartbeat IPC: 0.696994 cumulative IPC: 0.855038 (Simulation time: 0 hr 12 min 25 sec) 
 Total Blocks : 262144 Invalid Blocks : 184
Heartbeat CPU 0 instructions: 120000002 cycles: 143821629 heartbeat IPC: 0.659095 cumulative IPC: 0.834367 (Simulation time: 0 hr 13 min 26 sec) 
 Total Blocks : 262144 Invalid Blocks : 76
Heartbeat CPU 0 instructions: 130000000 cycles: 158992051 heartbeat IPC: 0.659177 cumulative IPC: 0.817651 (Simulation time: 0 hr 14 min 27 sec) 
 Total Blocks : 262144 Invalid Blocks : 36
Heartbeat CPU 0 instructions: 140000001 cycles: 175217600 heartbeat IPC: 0.616312 cumulative IPC: 0.799007 (Simulation time: 0 hr 15 min 30 sec) 
 Total Blocks : 262144 Invalid Blocks : 18
Heartbeat CPU 0 instructions: 150000001 cycles: 193175841 heartbeat IPC: 0.556847 cumulative IPC: 0.776495 (Simulation time: 0 hr 16 min 35 sec) 
 Total Blocks : 262144 Invalid Blocks : 10
Heartbeat CPU 0 instructions: 160000000 cycles: 207196598 heartbeat IPC: 0.713228 cumulative IPC: 0.772213 (Simulation time: 0 hr 17 min 27 sec) 
 Total Blocks : 262144 Invalid Blocks : 9
Heartbeat CPU 0 instructions: 170000000 cycles: 210370025 heartbeat IPC: 3.15117 cumulative IPC: 0.8081 (Simulation time: 0 hr 17 min 59 sec) 
 Total Blocks : 262144 Invalid Blocks : 9
Heartbeat CPU 0 instructions: 180000000 cycles: 219994577 heartbeat IPC: 1.03901 cumulative IPC: 0.818202 (Simulation time: 0 hr 18 min 53 sec) 
 Total Blocks : 262144 Invalid Blocks : 8
Heartbeat CPU 0 instructions: 190000001 cycles: 234448456 heartbeat IPC: 0.691856 cumulative IPC: 0.810413 (Simulation time: 0 hr 19 min 49 sec) 
 Total Blocks : 262144 Invalid Blocks : 6
Heartbeat CPU 0 instructions: 200000000 cycles: 249567999 heartbeat IPC: 0.661396 cumulative IPC: 0.801385 (Simulation time: 0 hr 20 min 50 sec) 
 Total Blocks : 262144 Invalid Blocks : 3

Warmup complete CPU 0 instructions: 200000002 cycles: 249568000 (Simulation time: 0 hr 20 min 50 sec) 

Heartbeat CPU 0 instructions: 210000001 cycles: 289140479 heartbeat IPC: 0.252701 cumulative IPC: 0.252701 (Simulation time: 0 hr 23 min 9 sec) 
 Total Blocks : 262144 Invalid Blocks : 3
Heartbeat CPU 0 instructions: 220000000 cycles: 334387510 heartbeat IPC: 0.221009 cumulative IPC: 0.235795 (Simulation time: 0 hr 25 min 40 sec) 
 Total Blocks : 262144 Invalid Blocks : 2
Heartbeat CPU 0 instructions: 230000002 cycles: 376565674 heartbeat IPC: 0.23709 cumulative IPC: 0.236225 (Simulation time: 0 hr 27 min 59 sec) 
 Total Blocks : 262144 Invalid Blocks : 0
Heartbeat CPU 0 instructions: 240000001 cycles: 397120726 heartbeat IPC: 0.486498 cumulative IPC: 0.27109 (Simulation time: 0 hr 29 min 29 sec) 
 Total Blocks : 262144 Invalid Blocks : 0
Heartbeat CPU 0 instructions: 250000000 cycles: 404351703 heartbeat IPC: 1.38294 cumulative IPC: 0.323031 (Simulation time: 0 hr 30 min 42 sec) 
 Total Blocks : 262144 Invalid Blocks : 0
Heartbeat CPU 0 instructions: 260000003 cycles: 427322206 heartbeat IPC: 0.435341 cumulative IPC: 0.337545 (Simulation time: 0 hr 32 min 17 sec) 
 Total Blocks : 262144 Invalid Blocks : 0
Heartbeat CPU 0 instructions: 270000003 cycles: 451482993 heartbeat IPC: 0.413894 cumulative IPC: 0.346681 (Simulation time: 0 hr 34 min 8 sec) 
 Total Blocks : 262144 Invalid Blocks : 0
Heartbeat CPU 0 instructions: 280000002 cycles: 486151783 heartbeat IPC: 0.288444 cumulative IPC: 0.338147 (Simulation time: 0 hr 36 min 19 sec) 
 Total Blocks : 262144 Invalid Blocks : 0
Heartbeat CPU 0 instructions: 290000000 cycles: 521625952 heartbeat IPC: 0.281895 cumulative IPC: 0.330812 (Simulation time: 0 hr 38 min 33 sec) 
 Total Blocks : 262144 Invalid Blocks : 0
Heartbeat CPU 0 instructions: 300000001 cycles: 558965795 heartbeat IPC: 0.26781 cumulative IPC: 0.323209 (Simulation time: 0 hr 40 min 37 sec) 
 Total Blocks : 262144 Invalid Blocks : 0
Heartbeat CPU 0 instructions: 310000002 cycles: 566442048 heartbeat IPC: 1.33757 cumulative IPC: 0.347141 (Simulation time: 0 hr 41 min 40 sec) 
 Total Blocks : 262144 Invalid Blocks : 0
Heartbeat CPU 0 instructions: 320000002 cycles: 582275842 heartbeat IPC: 0.631561 cumulative IPC: 0.360677 (Simulation time: 0 hr 43 min 16 sec) 
 Total Blocks : 262144 Invalid Blocks : 0
Heartbeat CPU 0 instructions: 330000000 cycles: 610428921 heartbeat IPC: 0.355201 cumulative IPC: 0.36025 (Simulation time: 0 hr 45 min 3 sec) 
 Total Blocks : 262144 Invalid Blocks : 0
Heartbeat CPU 0 instructions: 340000000 cycles: 633892283 heartbeat IPC: 0.426196 cumulative IPC: 0.364276 (Simulation time: 0 hr 47 min 3 sec) 
 Total Blocks : 262144 Invalid Blocks : 0
Heartbeat CPU 0 instructions: 350000002 cycles: 662425656 heartbeat IPC: 0.350467 cumulative IPC: 0.363321 (Simulation time: 0 hr 49 min 2 sec) 
 Total Blocks : 262144 Invalid Blocks : 0
Heartbeat CPU 0 instructions: 360000000 cycles: 700826429 heartbeat IPC: 0.260411 cumulative IPC: 0.354564 (Simulation time: 0 hr 51 min 21 sec) 
 Total Blocks : 262144 Invalid Blocks : 0
Heartbeat CPU 0 instructions: 370000001 cycles: 737072431 heartbeat IPC: 0.275893 cumulative IPC: 0.348715 (Simulation time: 0 hr 53 min 24 sec) 
 Total Blocks : 262144 Invalid Blocks : 0
Heartbeat CPU 0 instructions: 380000002 cycles: 747398805 heartbeat IPC: 0.968394 cumulative IPC: 0.361569 (Simulation time: 0 hr 54 min 35 sec) 
 Total Blocks : 262144 Invalid Blocks : 0
Heartbeat CPU 0 instructions: 390000000 cycles: 760266007 heartbeat IPC: 0.77717 cumulative IPC: 0.37204 (Simulation time: 0 hr 56 min 4 sec) 
 Total Blocks : 262144 Invalid Blocks : 0
Heartbeat CPU 0 instructions: 400000001 cycles: 786546295 heartbeat IPC: 0.380513 cumulative IPC: 0.372455 (Simulation time: 0 hr 57 min 44 sec) 
 Total Blocks : 262144 Invalid Blocks : 0
Finished CPU 0 instructions: 200000003 cycles: 536978297 cumulative IPC: 0.372455 (Simulation time: 0 hr 57 min 44 sec) 

CPU 0 Branch Prediction Accuracy: 85.9319% MPKI: 29.9017 Average ROB Occupancy at Mispredict: 25.0965

ChampSim completed all CPUs

Region of Interest Statistics

CPU 0 cumulative IPC: 0.372455 instructions: 200000003 cycles: 536978297
ITLB TOTAL     ACCESS: 30278844  HIT: 30278844  MISS:     0  HIT %:   100  MISS %:     0  AVERAGE MISS PENALTY: 0
ITLB LOAD      ACCESS: 30278844  HIT: 30278844  MISS:     0  HIT %:   100  MISS %:     0  AVERAGE MISS PENALTY: 0
ITLB RFO       ACCESS:     0  HIT:     0  MISS:     0  HIT %:     0  MISS %:     0  AVERAGE MISS PENALTY: 0
ITLB PREFETCH  ACCESS:     0  HIT:     0  MISS:     0  HIT %:     0  MISS %:     0  AVERAGE MISS PENALTY: 0
ITLB WRITEBACK ACCESS:     0  HIT:     0  MISS:     0  HIT %:     0  MISS %:     0  AVERAGE MISS PENALTY: 0
ITLB PREFETCH  REQUESTED:     0  ISSUED:     0  USEFUL:     0  USELESS:     0
 USEFUL LOAD PREFETCHES:          0 PREFETCH ISSUED TO LOWER LEVEL:          0  ACCURACY: -nan
 TIMELY PREFETCHES:          0 LATE PREFETCHES: 0 DROPPED PREFETCHES: 0
ITLB AVERAGE MISS LATENCY: -nan cycles
DTLB TOTAL     ACCESS: 38889025  HIT: 38413918  MISS: 475107  HIT %: 98.7783  MISS %: 1.2217  AVERAGE MISS PENALTY: 48.3257
DTLB LOAD      ACCESS: 31885171  HIT: 31424914  MISS: 460257  HIT %: 98.5565  MISS %: 1.44348  AVERAGE MISS PENALTY: 48.7517
DTLB RFO       ACCESS: 7003854  HIT: 6989004  MISS: 14850  HIT %: 99.788  MISS %: 0.212026  AVERAGE MISS PENALTY: 35.1224
DTLB PREFETCH  ACCESS:     0  HIT:     0  MISS:     0  HIT %:     0  MISS %:     0  AVERAGE MISS PENALTY: 0
DTLB WRITEBACK ACCESS:     0  HIT:     0  MISS:     0  HIT %:     0  MISS %:     0  AVERAGE MISS PENALTY: 0
DTLB PREFETCH  REQUESTED:     0  ISSUED:     0  USEFUL:     0  USELESS:     0
 USEFUL LOAD PREFETCHES:          0 PREFETCH ISSUED TO LOWER LEVEL:          0  ACCURACY: -nan
 TIMELY PREFETCHES:          0 LATE PREFETCHES: 0 DROPPED PREFETCHES: 0
DTLB AVERAGE MISS LATENCY: 48.3257 cycles
STLB TOTAL     ACCESS: 475107  HIT: 308164  MISS: 166943  HIT %: 64.862  MISS %: 35.138  AVERAGE MISS PENALTY: 100
STLB LOAD      ACCESS: 460257  HIT: 297071  MISS: 163186  HIT %: 64.5446  MISS %: 35.4554  AVERAGE MISS PENALTY: 100
STLB RFO       ACCESS: 14850  HIT: 11093  MISS:  3757  HIT %: 74.7003  MISS %: 25.2997  AVERAGE MISS PENALTY: 100
STLB PREFETCH  ACCESS:     0  HIT:     0  MISS:     0  HIT %:     0  MISS %:     0  AVERAGE MISS PENALTY: 0
STLB WRITEBACK ACCESS:     0  HIT:     0  MISS:     0  HIT %:     0  MISS %:     0  AVERAGE MISS PENALTY: 0
STLB PREFETCH  REQUESTED:     0  ISSUED:     0  USEFUL:     0  USELESS:     0
 USEFUL LOAD PREFETCHES:          0 PREFETCH ISSUED TO LOWER LEVEL:          0  ACCURACY: -nan
 TIMELY PREFETCHES:          0 LATE PREFETCHES: 0 DROPPED PREFETCHES: 0
STLB AVERAGE MISS LATENCY: 100 cycles
L1D TOTAL     ACCESS: 62939909  HIT: 49457332  MISS: 13482577  HIT %: 78.5787  MISS %: 21.4213  AVERAGE MISS PENALTY: 5.04684e+06
L1D LOAD      ACCESS: 30885998  HIT: 28310622  MISS: 2575376  HIT %: 91.6617  MISS %: 8.33833  AVERAGE MISS PENALTY: 2.64209e+07
L1D RFO       ACCESS: 6967104  HIT: 6692515  MISS: 274589  HIT %: 96.0588  MISS %: 3.94122  AVERAGE MISS PENALTY: 78.8929
L1D PREFETCH  ACCESS: 25086807  HIT: 14454195  MISS: 10632612  HIT %: 57.6167  MISS %: 42.3833  AVERAGE MISS PENALTY: 58.4719
L1D WRITEBACK ACCESS:     0  HIT:     0  MISS:     0  HIT %:     0  MISS %:     0  AVERAGE MISS PENALTY: 0
L1D PREFETCH  REQUESTED: 31766217  ISSUED: 27777687  USEFUL: 3013023  USELESS: 7619502
 USEFUL LOAD PREFETCHES:    3013023 PREFETCH ISSUED TO LOWER LEVEL:   16965393  ACCURACY: 17.7598
 TIMELY PREFETCHES:    3013023 LATE PREFETCHES: 327722 DROPPED PREFETCHES: 3988530
L1D AVERAGE MISS LATENCY: 39.3669 cycles
L1I TOTAL     ACCESS: 46712134  HIT: 46712132  MISS:     2  HIT %:   100  MISS %: 4.28154e-06  AVERAGE MISS PENALTY: 115
L1I LOAD      ACCESS: 46712134  HIT: 46712132  MISS:     2  HIT %:   100  MISS %: 4.28154e-06  AVERAGE MISS PENALTY: 115
L1I RFO       ACCESS:     0  HIT:     0  MISS:     0  HIT %:     0  MISS %:     0  AVERAGE MISS PENALTY: 0
L1I PREFETCH  ACCESS:     0  HIT:     0  MISS:     0  HIT %:     0  MISS %:     0  AVERAGE MISS PENALTY: 0
L1I WRITEBACK ACCESS:     0  HIT:     0  MISS:     0  HIT %:     0  MISS %:     0  AVERAGE MISS PENALTY: 0
L1I PREFETCH  REQUESTED:     0  ISSUED:     0  USEFUL:     0  USELESS:     0
 USEFUL LOAD PREFETCHES:          0 PREFETCH ISSUED TO LOWER LEVEL:          0  ACCURACY: -nan
 TIMELY PREFETCHES:          0 LATE PREFETCHES: 0 DROPPED PREFETCHES: 0
L1I AVERAGE MISS LATENCY: 115 cycles
L2C TOTAL     ACCESS: 30437380  HIT: 20093764  MISS: 10343616  HIT %: 66.0167  MISS %: 33.9833  AVERAGE MISS PENALTY: 3.26177e+06
L2C LOAD      ACCESS: 2558815  HIT: 1194955  MISS: 1363860  HIT %: 46.6995  MISS %: 53.3005  AVERAGE MISS PENALTY: 2.4737e+07
L2C RFO       ACCESS: 274589  HIT:  8576  MISS: 266013  HIT %: 3.12321  MISS %: 96.8768  AVERAGE MISS PENALTY: 65.4635
L2C PREFETCH  ACCESS: 26510935  HIT: 17797235  MISS: 8713700  HIT %: 67.1317  MISS %: 32.8683  AVERAGE MISS PENALTY: 74.0889
L2C WRITEBACK ACCESS: 1093041  HIT: 1092998  MISS:    43  HIT %: 99.9961  MISS %: 0.00393398  AVERAGE MISS PENALTY: 0
L2C PREFETCH  REQUESTED: 45797676  ISSUED: 44116118  USEFUL: 230063  USELESS: 8481033
 USEFUL LOAD PREFETCHES:     230063 PREFETCH ISSUED TO LOWER LEVEL:    9504915  ACCURACY: 2.42046
 TIMELY PREFETCHES:     230063 LATE PREFETCHES: 305420 DROPPED PREFETCHES: 1681558
L2C AVERAGE MISS LATENCY: 73.4063 cycles
LLC0 TOTAL     ACCESS: 1406892  HIT: 1042980  MISS: 363912  HIT %: 74.1336  MISS %: 25.8664  AVERAGE MISS PENALTY: 129.925
LLC0 LOAD      ACCESS: 204817  HIT: 143982  MISS: 60835  HIT %: 70.2979  MISS %: 29.7021  AVERAGE MISS PENALTY: 131.109
LLC0 RFO       ACCESS: 33282  HIT: 26503  MISS:  6779  HIT %: 79.6316  MISS %: 20.3684  AVERAGE MISS PENALTY: 145.22
LLC0 PREFETCH  ACCESS: 1053633  HIT: 758300  MISS: 295333  HIT %: 71.97  MISS %: 28.03  AVERAGE MISS PENALTY: 129.754
LLC0 WRITEBACK ACCESS: 115160  HIT: 114195  MISS:   965  HIT %: 99.162  MISS %: 0.837965  AVERAGE MISS PENALTY: 0
LLC0 PREFETCH  REQUESTED:     0  ISSUED:     0  USEFUL: 24934  USELESS: 275053
 USEFUL LOAD PREFETCHES:      24934 PREFETCH ISSUED TO LOWER LEVEL:     295333  ACCURACY: 8.44267
 TIMELY PREFETCHES:      24934 LATE PREFETCHES: 0 DROPPED PREFETCHES: 0
LLC0 AVERAGE MISS LATENCY: 129.925 cycles
Deadblocks : 49552 Deadblock percentage : 81.4531

LLC1 TOTAL     ACCESS: 1412568  HIT: 1037911  MISS: 374657  HIT %: 73.4769  MISS %: 26.5231  AVERAGE MISS PENALTY: 130.35
LLC1 LOAD      ACCESS: 164655  HIT: 121374  MISS: 43281  HIT %: 73.7141  MISS %: 26.2859  AVERAGE MISS PENALTY: 128.767
LLC1 RFO       ACCESS: 33240  HIT: 26376  MISS:  6864  HIT %: 79.3502  MISS %: 20.6498  AVERAGE MISS PENALTY: 146.207
LLC1 PREFETCH  ACCESS: 1099748  HIT: 776197  MISS: 323551  HIT %: 70.5795  MISS %: 29.4205  AVERAGE MISS PENALTY: 130.612
LLC1 WRITEBACK ACCESS: 114925  HIT: 113964  MISS:   961  HIT %: 99.1638  MISS %: 0.836198  AVERAGE MISS PENALTY: 0
LLC1 PREFETCH  REQUESTED:     0  ISSUED:     0  USEFUL: 27680  USELESS: 300749
 USEFUL LOAD PREFETCHES:      27680 PREFETCH ISSUED TO LOWER LEVEL:     323551  ACCURACY: 8.55507
 TIMELY PREFETCHES:      27680 LATE PREFETCHES: 0 DROPPED PREFETCHES: 0
LLC1 AVERAGE MISS LATENCY: 130.35 cycles
LLC2 TOTAL     ACCESS: 1418176  HIT: 1035670  MISS: 382506  HIT %: 73.0283  MISS %: 26.9717  AVERAGE MISS PENALTY: 130.832
LLC2 LOAD      ACCESS: 162198  HIT: 120617  MISS: 41581  HIT %: 74.364  MISS %: 25.636  AVERAGE MISS PENALTY: 128.844
LLC2 RFO       ACCESS: 33230  HIT: 26359  MISS:  6871  HIT %: 79.3229  MISS %: 20.6771  AVERAGE MISS PENALTY: 147.244
LLC2 PREFETCH  ACCESS: 1107378  HIT: 774318  MISS: 333060  HIT %: 69.9235  MISS %: 30.0765  AVERAGE MISS PENALTY: 131.132
LLC2 WRITEBACK ACCESS: 115370  HIT: 114376  MISS:   994  HIT %: 99.1384  MISS %: 0.861576  AVERAGE MISS PENALTY: 0
LLC2 PREFETCH  REQUESTED:     0  ISSUED:     0  USEFUL: 27860  USELESS: 310120
 USEFUL LOAD PREFETCHES:      27860 PREFETCH ISSUED TO LOWER LEVEL:     333060  ACCURACY: 8.36486
 TIMELY PREFETCHES:      27860 LATE PREFETCHES: 0 DROPPED PREFETCHES: 0
LLC2 AVERAGE MISS LATENCY: 130.832 cycles
LLC3 TOTAL     ACCESS: 1415551  HIT: 1032159  MISS: 383392  HIT %: 72.9157  MISS %: 27.0843  AVERAGE MISS PENALTY: 129.573
LLC3 LOAD      ACCESS: 158549  HIT: 117029  MISS: 41520  HIT %: 73.8125  MISS %: 26.1875  AVERAGE MISS PENALTY: 128.334
LLC3 RFO       ACCESS: 33239  HIT: 26435  MISS:  6804  HIT %: 79.5301  MISS %: 20.4699  AVERAGE MISS PENALTY: 146.006
LLC3 PREFETCH  ACCESS: 1108149  HIT: 774045  MISS: 334104  HIT %: 69.8503  MISS %: 30.1497  AVERAGE MISS PENALTY: 129.766
LLC3 WRITEBACK ACCESS: 115614  HIT: 114650  MISS:   964  HIT %: 99.1662  MISS %: 0.833809  AVERAGE MISS PENALTY: 0
LLC3 PREFETCH  REQUESTED:     0  ISSUED:     0  USEFUL: 28012  USELESS: 311274
 USEFUL LOAD PREFETCHES:      28012 PREFETCH ISSUED TO LOWER LEVEL:     334104  ACCURACY: 8.38422
 TIMELY PREFETCHES:      28012 LATE PREFETCHES: 0 DROPPED PREFETCHES: 0
LLC3 AVERAGE MISS LATENCY: 129.573 cycles
LLC4 TOTAL     ACCESS: 1414416  HIT: 1029902  MISS: 384514  HIT %: 72.8146  MISS %: 27.1854  AVERAGE MISS PENALTY: 129.505
LLC4 LOAD      ACCESS: 160875  HIT: 119264  MISS: 41611  HIT %: 74.1346  MISS %: 25.8654  AVERAGE MISS PENALTY: 128.253
LLC4 RFO       ACCESS: 33259  HIT: 26471  MISS:  6788  HIT %: 79.5905  MISS %: 20.4095  AVERAGE MISS PENALTY: 146.683
LLC4 PREFETCH  ACCESS: 1105039  HIT: 769876  MISS: 335163  HIT %: 69.6696  MISS %: 30.3304  AVERAGE MISS PENALTY: 129.68
LLC4 WRITEBACK ACCESS: 115243  HIT: 114291  MISS:   952  HIT %: 99.1739  MISS %: 0.826081  AVERAGE MISS PENALTY: 0
LLC4 PREFETCH  REQUESTED:     0  ISSUED:     0  USEFUL: 28085  USELESS: 312381
 USEFUL LOAD PREFETCHES:      28085 PREFETCH ISSUED TO LOWER LEVEL:     335163  ACCURACY: 8.3795
 TIMELY PREFETCHES:      28085 LATE PREFETCHES: 0 DROPPED PREFETCHES: 0
LLC4 AVERAGE MISS LATENCY: 129.505 cycles
LLC5 TOTAL     ACCESS: 1406445  HIT: 1021221  MISS: 385224  HIT %: 72.6101  MISS %: 27.3899  AVERAGE MISS PENALTY: 129.231
LLC5 LOAD      ACCESS: 158217  HIT: 116931  MISS: 41286  HIT %: 73.9055  MISS %: 26.0945  AVERAGE MISS PENALTY: 128.386
LLC5 RFO       ACCESS: 33244  HIT: 26509  MISS:  6735  HIT %: 79.7407  MISS %: 20.2593  AVERAGE MISS PENALTY: 147.45
LLC5 PREFETCH  ACCESS: 1099624  HIT: 763360  MISS: 336264  HIT %: 69.4201  MISS %: 30.5799  AVERAGE MISS PENALTY: 129.331
LLC5 WRITEBACK ACCESS: 115360  HIT: 114421  MISS:   939  HIT %: 99.186  MISS %: 0.813974  AVERAGE MISS PENALTY: 0
LLC5 PREFETCH  REQUESTED:     0  ISSUED:     0  USEFUL: 28169  USELESS: 313227
 USEFUL LOAD PREFETCHES:      28169 PREFETCH ISSUED TO LOWER LEVEL:     336264  ACCURACY: 8.37705
 TIMELY PREFETCHES:      28169 LATE PREFETCHES: 0 DROPPED PREFETCHES: 0
LLC5 AVERAGE MISS LATENCY: 129.231 cycles
LLC6 TOTAL     ACCESS: 1399304  HIT: 1012725  MISS: 386579  HIT %: 72.3735  MISS %: 27.6265  AVERAGE MISS PENALTY: 129.899
LLC6 LOAD      ACCESS: 157874  HIT: 116774  MISS: 41100  HIT %: 73.9666  MISS %: 26.0334  AVERAGE MISS PENALTY: 128.434
LLC6 RFO       ACCESS: 33257  HIT: 26345  MISS:  6912  HIT %: 79.2164  MISS %: 20.7836  AVERAGE MISS PENALTY: 147.139
LLC6 PREFETCH  ACCESS: 1093155  HIT: 755519  MISS: 337636  HIT %: 69.1136  MISS %: 30.8864  AVERAGE MISS PENALTY: 130.083
LLC6 WRITEBACK ACCESS: 115018  HIT: 114087  MISS:   931  HIT %: 99.1906  MISS %: 0.809439  AVERAGE MISS PENALTY: 0
LLC6 PREFETCH  REQUESTED:     0  ISSUED:     0  USEFUL: 28129  USELESS: 314579
 USEFUL LOAD PREFETCHES:      28129 PREFETCH ISSUED TO LOWER LEVEL:     337636  ACCURACY: 8.33116
 TIMELY PREFETCHES:      28129 LATE PREFETCHES: 0 DROPPED PREFETCHES: 0
LLC6 AVERAGE MISS LATENCY: 129.899 cycles
LLC7 TOTAL     ACCESS: 1392229  HIT: 1004923  MISS: 387306  HIT %: 72.1809  MISS %: 27.8191  AVERAGE MISS PENALTY: 130.461
LLC7 LOAD      ACCESS: 160070  HIT: 118713  MISS: 41357  HIT %: 74.1632  MISS %: 25.8368  AVERAGE MISS PENALTY: 129.481
LLC7 RFO       ACCESS: 33262  HIT: 26465  MISS:  6797  HIT %: 79.5653  MISS %: 20.4347  AVERAGE MISS PENALTY: 148.262
LLC7 PREFETCH  ACCESS: 1083582  HIT: 745345  MISS: 338237  HIT %: 68.7853  MISS %: 31.2147  AVERAGE MISS PENALTY: 130.576
LLC7 WRITEBACK ACCESS: 115315  HIT: 114400  MISS:   915  HIT %: 99.2065  MISS %: 0.793479  AVERAGE MISS PENALTY: 0
LLC7 PREFETCH  REQUESTED:     0  ISSUED:     0  USEFUL: 28240  USELESS: 315141
 USEFUL LOAD PREFETCHES:      28240 PREFETCH ISSUED TO LOWER LEVEL:     338237  ACCURACY: 8.34918
 TIMELY PREFETCHES:      28240 LATE PREFETCHES: 0 DROPPED PREFETCHES: 0
LLC7 AVERAGE MISS LATENCY: 130.461 cycles
ROI Average ROB Stall Cycles:	5.66921
ROI Total ROB Stalls Cycles:	388281825
ROI TOTAL ROB counter      :	68489545
ROI Average Load ROB Stall Cycles:	12.533
ROI Total Load ROB Stalls Cycle  :	96628117
ROI Total Load ROB stalls Counter:	7709892
Major fault: 0 Minor fault: 28227

