
*** ChampSim Multicore Out-of-Order Simulator ***

Warmup Instructions: 200000000
Simulation Instructions: 200000000
Number of CPUs: 1
threads:1

L1I Configuration:
L1I_SET:64
L1I_WAY:8
L1I_RQ_SIZE:64
L1I_WQ_SIZE:64
L1I_PQ_SIZE:8
L1I_MSHR_SIZE:8

L1D Configuration:
L1D_SET:64
L1D_WAY:12
L1D_RQ_SIZE:64
L1D_WQ_SIZE:64
L1D_PQ_SIZE:8
L1D_MSHR_SIZE:16

L2C Configuration:
L2C_SET:1024
L2C_WAY:8
L2C_RQ_SIZE:32
L2C_WQ_SIZE:32
L2C_PQ_SIZE:16
L2C_MSHR_SIZE:32

LLC Configuration:
LLC_SET:2048
LLC_WAY:16
LLC SLICES:8
LLC_RQ_SIZE:64
LLC_WQ_SIZE:64
LLC_PQ_SIZE:32
LLC_MSHR_SIZE:64

Interconnect OFF
Attacker deprioritize is: OFF
Off-chip DRAM Size: 4096 MB Channels: 1 Width: 64-bit Data Rate: 3200 MT/s
PAGE SIZE in KB: 4.000000 
PAGE SIZE in MB: 0.003906 
PAGE offset in bits: 12 
CEASER-S_LLC:0
MIRAGE : 0
CEASER_LATENCY:3
REMAP : OFF
Partitions : 1
Multi-Step : OFF
BFS : OFF

CPU 0 runs /home/anubhav/gap/cc-14.trace.gz
CPU 0 Bimodal branch predictor
Initialize Hawkeye state
Initialize Hawkeye state
Initialize Hawkeye state
Initialize Hawkeye state
Initialize Hawkeye state
Initialize Hawkeye state
Initialize Hawkeye state
Initialize Hawkeye state
Heartbeat CPU 0 instructions: 10000000 cycles: 10747740 heartbeat IPC: 0.930428 cumulative IPC: 0.930428 (Simulation time: 0 hr 0 min 55 sec) 
 Total Blocks : 262144 Invalid Blocks : 164267
Heartbeat CPU 0 instructions: 20000000 cycles: 21380808 heartbeat IPC: 0.940462 cumulative IPC: 0.935418 (Simulation time: 0 hr 2 min 8 sec) 
 Total Blocks : 262144 Invalid Blocks : 157607
Heartbeat CPU 0 instructions: 30000000 cycles: 31231706 heartbeat IPC: 1.01514 cumulative IPC: 0.960562 (Simulation time: 0 hr 3 min 19 sec) 
 Total Blocks : 262144 Invalid Blocks : 156538
Heartbeat CPU 0 instructions: 40000002 cycles: 40705358 heartbeat IPC: 1.05556 cumulative IPC: 0.982672 (Simulation time: 0 hr 4 min 29 sec) 
 Total Blocks : 262144 Invalid Blocks : 155570
Heartbeat CPU 0 instructions: 50000001 cycles: 50103282 heartbeat IPC: 1.06406 cumulative IPC: 0.997939 (Simulation time: 0 hr 5 min 40 sec) 
 Total Blocks : 262144 Invalid Blocks : 154400
Heartbeat CPU 0 instructions: 60000002 cycles: 59334435 heartbeat IPC: 1.08329 cumulative IPC: 1.01122 (Simulation time: 0 hr 6 min 51 sec) 
 Total Blocks : 262144 Invalid Blocks : 153399
Heartbeat CPU 0 instructions: 70000000 cycles: 68508100 heartbeat IPC: 1.09008 cumulative IPC: 1.02178 (Simulation time: 0 hr 8 min 2 sec) 
 Total Blocks : 262144 Invalid Blocks : 152398
Heartbeat CPU 0 instructions: 80000000 cycles: 77925253 heartbeat IPC: 1.06189 cumulative IPC: 1.02662 (Simulation time: 0 hr 9 min 15 sec) 
 Total Blocks : 262144 Invalid Blocks : 151252
Heartbeat CPU 0 instructions: 90000000 cycles: 86892181 heartbeat IPC: 1.11521 cumulative IPC: 1.03577 (Simulation time: 0 hr 10 min 27 sec) 
 Total Blocks : 262144 Invalid Blocks : 150238
Heartbeat CPU 0 instructions: 100000002 cycles: 95910351 heartbeat IPC: 1.10887 cumulative IPC: 1.04264 (Simulation time: 0 hr 11 min 40 sec) 
 Total Blocks : 262144 Invalid Blocks : 149249
Heartbeat CPU 0 instructions: 110000000 cycles: 105133233 heartbeat IPC: 1.08426 cumulative IPC: 1.04629 (Simulation time: 0 hr 12 min 53 sec) 
 Total Blocks : 262144 Invalid Blocks : 148392
Heartbeat CPU 0 instructions: 120000000 cycles: 114485773 heartbeat IPC: 1.06923 cumulative IPC: 1.04817 (Simulation time: 0 hr 14 min 6 sec) 
 Total Blocks : 262144 Invalid Blocks : 147563
Heartbeat CPU 0 instructions: 130000002 cycles: 124030410 heartbeat IPC: 1.04771 cumulative IPC: 1.04813 (Simulation time: 0 hr 15 min 22 sec) 
 Total Blocks : 262144 Invalid Blocks : 146538
Heartbeat CPU 0 instructions: 140000000 cycles: 133206914 heartbeat IPC: 1.08974 cumulative IPC: 1.051 (Simulation time: 0 hr 16 min 36 sec) 
 Total Blocks : 262144 Invalid Blocks : 145597
Heartbeat CPU 0 instructions: 150000000 cycles: 142146385 heartbeat IPC: 1.11863 cumulative IPC: 1.05525 (Simulation time: 0 hr 17 min 50 sec) 
 Total Blocks : 262144 Invalid Blocks : 144769
Heartbeat CPU 0 instructions: 160000003 cycles: 151257596 heartbeat IPC: 1.09755 cumulative IPC: 1.0578 (Simulation time: 0 hr 19 min 4 sec) 
 Total Blocks : 262144 Invalid Blocks : 143898
Heartbeat CPU 0 instructions: 170000001 cycles: 160752714 heartbeat IPC: 1.05317 cumulative IPC: 1.05752 (Simulation time: 0 hr 20 min 19 sec) 
 Total Blocks : 262144 Invalid Blocks : 142987
Heartbeat CPU 0 instructions: 180000001 cycles: 169918038 heartbeat IPC: 1.09107 cumulative IPC: 1.05933 (Simulation time: 0 hr 21 min 34 sec) 
 Total Blocks : 262144 Invalid Blocks : 142039
Heartbeat CPU 0 instructions: 190000000 cycles: 178876340 heartbeat IPC: 1.11628 cumulative IPC: 1.06219 (Simulation time: 0 hr 22 min 48 sec) 
 Total Blocks : 262144 Invalid Blocks : 141213
Heartbeat CPU 0 instructions: 200000000 cycles: 188154533 heartbeat IPC: 1.0778 cumulative IPC: 1.06296 (Simulation time: 0 hr 24 min 3 sec) 
 Total Blocks : 262144 Invalid Blocks : 140511

Warmup complete CPU 0 instructions: 200000001 cycles: 188154534 (Simulation time: 0 hr 24 min 3 sec) 

Heartbeat CPU 0 instructions: 210000000 cycles: 219006301 heartbeat IPC: 0.324131 cumulative IPC: 0.324131 (Simulation time: 0 hr 26 min 37 sec) 
 Total Blocks : 262144 Invalid Blocks : 138822
Heartbeat CPU 0 instructions: 220000000 cycles: 249131889 heartbeat IPC: 0.331944 cumulative IPC: 0.327991 (Simulation time: 0 hr 29 min 8 sec) 
 Total Blocks : 262144 Invalid Blocks : 137239
Heartbeat CPU 0 instructions: 230000002 cycles: 280812241 heartbeat IPC: 0.315653 cumulative IPC: 0.323772 (Simulation time: 0 hr 31 min 44 sec) 
 Total Blocks : 262144 Invalid Blocks : 135658
Heartbeat CPU 0 instructions: 240000002 cycles: 311170158 heartbeat IPC: 0.329403 cumulative IPC: 0.325162 (Simulation time: 0 hr 34 min 17 sec) 
 Total Blocks : 262144 Invalid Blocks : 134179
Heartbeat CPU 0 instructions: 250000001 cycles: 341812640 heartbeat IPC: 0.326344 cumulative IPC: 0.325398 (Simulation time: 0 hr 36 min 51 sec) 
 Total Blocks : 262144 Invalid Blocks : 132973
Heartbeat CPU 0 instructions: 260000000 cycles: 372607286 heartbeat IPC: 0.324732 cumulative IPC: 0.325287 (Simulation time: 0 hr 39 min 24 sec) 
 Total Blocks : 262144 Invalid Blocks : 131702
Heartbeat CPU 0 instructions: 270000001 cycles: 402794093 heartbeat IPC: 0.331271 cumulative IPC: 0.326128 (Simulation time: 0 hr 41 min 57 sec) 
 Total Blocks : 262144 Invalid Blocks : 130530
Heartbeat CPU 0 instructions: 280000001 cycles: 433539491 heartbeat IPC: 0.325252 cumulative IPC: 0.326018 (Simulation time: 0 hr 44 min 31 sec) 
 Total Blocks : 262144 Invalid Blocks : 129403
Heartbeat CPU 0 instructions: 290000002 cycles: 465493165 heartbeat IPC: 0.312953 cumulative IPC: 0.324513 (Simulation time: 0 hr 47 min 9 sec) 
 Total Blocks : 262144 Invalid Blocks : 128401
Heartbeat CPU 0 instructions: 300000002 cycles: 495665816 heartbeat IPC: 0.331426 cumulative IPC: 0.325191 (Simulation time: 0 hr 49 min 44 sec) 
 Total Blocks : 262144 Invalid Blocks : 127302
Heartbeat CPU 0 instructions: 310000001 cycles: 523498977 heartbeat IPC: 0.359284 cumulative IPC: 0.328021 (Simulation time: 0 hr 52 min 13 sec) 
 Total Blocks : 262144 Invalid Blocks : 126323
Heartbeat CPU 0 instructions: 320000001 cycles: 553738489 heartbeat IPC: 0.330693 cumulative IPC: 0.328242 (Simulation time: 0 hr 54 min 49 sec) 
 Total Blocks : 262144 Invalid Blocks : 125281
Heartbeat CPU 0 instructions: 330000000 cycles: 584306031 heartbeat IPC: 0.327144 cumulative IPC: 0.328157 (Simulation time: 0 hr 57 min 25 sec) 
 Total Blocks : 262144 Invalid Blocks : 124368
Heartbeat CPU 0 instructions: 340000000 cycles: 614508687 heartbeat IPC: 0.331097 cumulative IPC: 0.328366 (Simulation time: 0 hr 59 min 57 sec) 
 Total Blocks : 262144 Invalid Blocks : 123553
Heartbeat CPU 0 instructions: 350000001 cycles: 645253937 heartbeat IPC: 0.325254 cumulative IPC: 0.328156 (Simulation time: 1 hr 2 min 31 sec) 
 Total Blocks : 262144 Invalid Blocks : 122600
Heartbeat CPU 0 instructions: 360000000 cycles: 675978722 heartbeat IPC: 0.32547 cumulative IPC: 0.327987 (Simulation time: 1 hr 5 min 5 sec) 
 Total Blocks : 262144 Invalid Blocks : 121721
Heartbeat CPU 0 instructions: 370000002 cycles: 705848511 heartbeat IPC: 0.334787 cumulative IPC: 0.328379 (Simulation time: 1 hr 7 min 37 sec) 
 Total Blocks : 262144 Invalid Blocks : 120838
Heartbeat CPU 0 instructions: 380000002 cycles: 735015215 heartbeat IPC: 0.342857 cumulative IPC: 0.329151 (Simulation time: 1 hr 10 min 8 sec) 
 Total Blocks : 262144 Invalid Blocks : 120003
Heartbeat CPU 0 instructions: 390000003 cycles: 765453974 heartbeat IPC: 0.328529 cumulative IPC: 0.329119 (Simulation time: 1 hr 12 min 43 sec) 
 Total Blocks : 262144 Invalid Blocks : 119172
Heartbeat CPU 0 instructions: 400000001 cycles: 794768067 heartbeat IPC: 0.341133 cumulative IPC: 0.329699 (Simulation time: 1 hr 15 min 14 sec) 
 Total Blocks : 262144 Invalid Blocks : 118378
Finished CPU 0 instructions: 200000000 cycles: 606613533 cumulative IPC: 0.329699 (Simulation time: 1 hr 15 min 14 sec) 

CPU 0 Branch Prediction Accuracy: 90.7092% MPKI: 18.9196 Average ROB Occupancy at Mispredict: 42.4902

ChampSim completed all CPUs

Region of Interest Statistics

CPU 0 cumulative IPC: 0.329699 instructions: 200000000 cycles: 606613533
ITLB TOTAL     ACCESS: 29135392  HIT: 29135392  MISS:     0  HIT %:   100  MISS %:     0  AVERAGE MISS PENALTY: 0
ITLB LOAD      ACCESS: 29135392  HIT: 29135392  MISS:     0  HIT %:   100  MISS %:     0  AVERAGE MISS PENALTY: 0
ITLB RFO       ACCESS:     0  HIT:     0  MISS:     0  HIT %:     0  MISS %:     0  AVERAGE MISS PENALTY: 0
ITLB PREFETCH  ACCESS:     0  HIT:     0  MISS:     0  HIT %:     0  MISS %:     0  AVERAGE MISS PENALTY: 0
ITLB WRITEBACK ACCESS:     0  HIT:     0  MISS:     0  HIT %:     0  MISS %:     0  AVERAGE MISS PENALTY: 0
ITLB PREFETCH  REQUESTED:     0  ISSUED:     0  USEFUL:     0  USELESS:     0
 USEFUL LOAD PREFETCHES:          0 PREFETCH ISSUED TO LOWER LEVEL:          0  ACCURACY: -nan
 TIMELY PREFETCHES:          0 LATE PREFETCHES: 0 DROPPED PREFETCHES: 0
ITLB AVERAGE MISS LATENCY: -nan cycles
DTLB TOTAL     ACCESS: 45600345  HIT: 35787473  MISS: 9812872  HIT %: 78.4807  MISS %: 21.5193  AVERAGE MISS PENALTY: 9.46187
DTLB LOAD      ACCESS: 45535610  HIT: 35722738  MISS: 9812872  HIT %: 78.4501  MISS %: 21.5499  AVERAGE MISS PENALTY: 9.46187
DTLB RFO       ACCESS: 64735  HIT: 64735  MISS:     0  HIT %:   100  MISS %:     0  AVERAGE MISS PENALTY: 0
DTLB PREFETCH  ACCESS:     0  HIT:     0  MISS:     0  HIT %:     0  MISS %:     0  AVERAGE MISS PENALTY: 0
DTLB WRITEBACK ACCESS:     0  HIT:     0  MISS:     0  HIT %:     0  MISS %:     0  AVERAGE MISS PENALTY: 0
DTLB PREFETCH  REQUESTED:     0  ISSUED:     0  USEFUL:     0  USELESS:     0
 USEFUL LOAD PREFETCHES:          0 PREFETCH ISSUED TO LOWER LEVEL:          0  ACCURACY: -nan
 TIMELY PREFETCHES:          0 LATE PREFETCHES: 0 DROPPED PREFETCHES: 0
DTLB AVERAGE MISS LATENCY: 9.46187 cycles
STLB TOTAL     ACCESS: 9812872  HIT: 9798111  MISS: 14761  HIT %: 99.8496  MISS %: 0.150425  AVERAGE MISS PENALTY: 100
STLB LOAD      ACCESS: 9812872  HIT: 9798111  MISS: 14761  HIT %: 99.8496  MISS %: 0.150425  AVERAGE MISS PENALTY: 100
STLB RFO       ACCESS:     0  HIT:     0  MISS:     0  HIT %:     0  MISS %:     0  AVERAGE MISS PENALTY: 0
STLB PREFETCH  ACCESS:     0  HIT:     0  MISS:     0  HIT %:     0  MISS %:     0  AVERAGE MISS PENALTY: 0
STLB WRITEBACK ACCESS:     0  HIT:     0  MISS:     0  HIT %:     0  MISS %:     0  AVERAGE MISS PENALTY: 0
STLB PREFETCH  REQUESTED:     0  ISSUED:     0  USEFUL:     0  USELESS:     0
 USEFUL LOAD PREFETCHES:          0 PREFETCH ISSUED TO LOWER LEVEL:          0  ACCURACY: -nan
 TIMELY PREFETCHES:          0 LATE PREFETCHES: 0 DROPPED PREFETCHES: 0
STLB AVERAGE MISS LATENCY: 100 cycles
L1D TOTAL     ACCESS: 120946475  HIT: 56818251  MISS: 64128224  HIT %: 46.978  MISS %: 53.022  AVERAGE MISS PENALTY: 1.22433e+06
L1D LOAD      ACCESS: 42804192  HIT: 28578677  MISS: 14225515  HIT %: 66.7661  MISS %: 33.2339  AVERAGE MISS PENALTY: 5.51909e+06
L1D RFO       ACCESS: 64741  HIT: 64741  MISS:     0  HIT %:   100  MISS %:     0  AVERAGE MISS PENALTY: 0
L1D PREFETCH  ACCESS: 78077542  HIT: 28174833  MISS: 49902709  HIT %: 36.0857  MISS %: 63.9143  AVERAGE MISS PENALTY: 43.5384
L1D WRITEBACK ACCESS:     0  HIT:     0  MISS:     0  HIT %:     0  MISS %:     0  AVERAGE MISS PENALTY: 0
L1D PREFETCH  REQUESTED: 120159846  ISSUED: 80759804  USEFUL: 1426714  USELESS: 48475993
 USEFUL LOAD PREFETCHES:    1426714 PREFETCH ISSUED TO LOWER LEVEL:  138663101  ACCURACY: 1.02891
 TIMELY PREFETCHES:    1426714 LATE PREFETCHES: 490971 DROPPED PREFETCHES: 39400042
L1D AVERAGE MISS LATENCY: 43.5975 cycles
L1I TOTAL     ACCESS: 41258625  HIT: 41258625  MISS:     0  HIT %:   100  MISS %:     0  AVERAGE MISS PENALTY: 0
L1I LOAD      ACCESS: 41258625  HIT: 41258625  MISS:     0  HIT %:   100  MISS %:     0  AVERAGE MISS PENALTY: 0
L1I RFO       ACCESS:     0  HIT:     0  MISS:     0  HIT %:     0  MISS %:     0  AVERAGE MISS PENALTY: 0
L1I PREFETCH  ACCESS:     0  HIT:     0  MISS:     0  HIT %:     0  MISS %:     0  AVERAGE MISS PENALTY: 0
L1I WRITEBACK ACCESS:     0  HIT:     0  MISS:     0  HIT %:     0  MISS %:     0  AVERAGE MISS PENALTY: 0
L1I PREFETCH  REQUESTED:     0  ISSUED:     0  USEFUL:     0  USELESS:     0
 USEFUL LOAD PREFETCHES:          0 PREFETCH ISSUED TO LOWER LEVEL:          0  ACCURACY: -nan
 TIMELY PREFETCHES:          0 LATE PREFETCHES: 0 DROPPED PREFETCHES: 0
L1I AVERAGE MISS LATENCY: -nan cycles
L2C TOTAL     ACCESS: 117294649  HIT: 22265147  MISS: 95029502  HIT %: 18.9822  MISS %: 81.0178  AVERAGE MISS PENALTY: 619759
L2C LOAD      ACCESS: 14207138  HIT: 2291043  MISS: 11916095  HIT %: 16.126  MISS %: 83.874  AVERAGE MISS PENALTY: 4.94226e+06
L2C RFO       ACCESS:     0  HIT:     0  MISS:     0  HIT %:     0  MISS %:     0  AVERAGE MISS PENALTY: 0
L2C PREFETCH  ACCESS: 103032974  HIT: 19922011  MISS: 83110963  HIT %: 19.3356  MISS %: 80.6644  AVERAGE MISS PENALTY: 35.0084
L2C WRITEBACK ACCESS: 54537  HIT: 52093  MISS:  2444  HIT %: 95.5186  MISS %: 4.48136  AVERAGE MISS PENALTY: 0
L2C PREFETCH  REQUESTED: 226518831  ISSUED: 210682782  USEFUL: 1148946  USELESS: 81961791
 USEFUL LOAD PREFETCHES:    1148946 PREFETCH ISSUED TO LOWER LEVEL:   87467605  ACCURACY: 1.31357
 TIMELY PREFETCHES:    1148946 LATE PREFETCHES: 863317 DROPPED PREFETCHES: 15836049
L2C AVERAGE MISS LATENCY: 34.9085 cycles
LLC0 TOTAL     ACCESS: 12168963  HIT: 12050608  MISS: 118355  HIT %: 99.0274  MISS %: 0.972597  AVERAGE MISS PENALTY: 81.0418
LLC0 LOAD      ACCESS: 1514491  HIT: 1499689  MISS: 14802  HIT %: 99.0226  MISS %: 0.977358  AVERAGE MISS PENALTY: 84.3879
LLC0 RFO       ACCESS:     0  HIT:     0  MISS:     0  HIT %:     0  MISS %:     0  AVERAGE MISS PENALTY: 0
LLC0 PREFETCH  ACCESS: 10647601  HIT: 10544048  MISS: 103553  HIT %: 99.0275  MISS %: 0.972548  AVERAGE MISS PENALTY: 80.5636
LLC0 WRITEBACK ACCESS:  6871  HIT:  6871  MISS:     0  HIT %:   100  MISS %:     0  AVERAGE MISS PENALTY: 0
LLC0 PREFETCH  REQUESTED:     0  ISSUED:     0  USEFUL:   592  USELESS: 102066
 USEFUL LOAD PREFETCHES:        592 PREFETCH ISSUED TO LOWER LEVEL:     103553  ACCURACY: 0.571688
 TIMELY PREFETCHES:        592 LATE PREFETCHES: 0 DROPPED PREFETCHES: 0
LLC0 AVERAGE MISS LATENCY: 81.0418 cycles
Deadblocks : 14622 Deadblock percentage : 98.7839

LLC1 TOTAL     ACCESS: 12152448  HIT: 12033652  MISS: 118796  HIT %: 99.0225  MISS %: 0.977548  AVERAGE MISS PENALTY: 82.2442
LLC1 LOAD      ACCESS: 1505563  HIT: 1505192  MISS:   371  HIT %: 99.9754  MISS %: 0.0246419  AVERAGE MISS PENALTY: 105.938
LLC1 RFO       ACCESS:     0  HIT:     0  MISS:     0  HIT %:     0  MISS %:     0  AVERAGE MISS PENALTY: 0
LLC1 PREFETCH  ACCESS: 10640000  HIT: 10521575  MISS: 118425  HIT %: 98.887  MISS %: 1.11302  AVERAGE MISS PENALTY: 82.17
LLC1 WRITEBACK ACCESS:  6885  HIT:  6885  MISS:     0  HIT %:   100  MISS %:     0  AVERAGE MISS PENALTY: 0
LLC1 PREFETCH  REQUESTED:     0  ISSUED:     0  USEFUL:  1006  USELESS: 115682
 USEFUL LOAD PREFETCHES:       1006 PREFETCH ISSUED TO LOWER LEVEL:     118425  ACCURACY: 0.849483
 TIMELY PREFETCHES:       1006 LATE PREFETCHES: 0 DROPPED PREFETCHES: 0
LLC1 AVERAGE MISS LATENCY: 82.2442 cycles
LLC2 TOTAL     ACCESS: 12097910  HIT: 11978830  MISS: 119080  HIT %: 99.0157  MISS %: 0.984302  AVERAGE MISS PENALTY: 83.7149
LLC2 LOAD      ACCESS: 1481200  HIT: 1481078  MISS:   122  HIT %: 99.9918  MISS %: 0.00823656  AVERAGE MISS PENALTY: 167.385
LLC2 RFO       ACCESS:     0  HIT:     0  MISS:     0  HIT %:     0  MISS %:     0  AVERAGE MISS PENALTY: 0
LLC2 PREFETCH  ACCESS: 10609822  HIT: 10490864  MISS: 118958  HIT %: 98.8788  MISS %: 1.12121  AVERAGE MISS PENALTY: 83.6291
LLC2 WRITEBACK ACCESS:  6888  HIT:  6888  MISS:     0  HIT %:   100  MISS %:     0  AVERAGE MISS PENALTY: 0
LLC2 PREFETCH  REQUESTED:     0  ISSUED:     0  USEFUL:  1286  USELESS: 115404
 USEFUL LOAD PREFETCHES:       1286 PREFETCH ISSUED TO LOWER LEVEL:     118958  ACCURACY: 1.08105
 TIMELY PREFETCHES:       1286 LATE PREFETCHES: 0 DROPPED PREFETCHES: 0
LLC2 AVERAGE MISS LATENCY: 83.7149 cycles
LLC3 TOTAL     ACCESS: 12030349  HIT: 11910480  MISS: 119869  HIT %: 99.0036  MISS %: 0.996388  AVERAGE MISS PENALTY: 86.1859
LLC3 LOAD      ACCESS: 1484986  HIT: 1484787  MISS:   199  HIT %: 99.9866  MISS %: 0.0134008  AVERAGE MISS PENALTY: 173.683
LLC3 RFO       ACCESS:     0  HIT:     0  MISS:     0  HIT %:     0  MISS %:     0  AVERAGE MISS PENALTY: 0
LLC3 PREFETCH  ACCESS: 10538554  HIT: 10418884  MISS: 119670  HIT %: 98.8645  MISS %: 1.13554  AVERAGE MISS PENALTY: 86.0404
LLC3 WRITEBACK ACCESS:  6809  HIT:  6809  MISS:     0  HIT %:   100  MISS %:     0  AVERAGE MISS PENALTY: 0
LLC3 PREFETCH  REQUESTED:     0  ISSUED:     0  USEFUL:  1909  USELESS: 114964
 USEFUL LOAD PREFETCHES:       1909 PREFETCH ISSUED TO LOWER LEVEL:     119670  ACCURACY: 1.59522
 TIMELY PREFETCHES:       1909 LATE PREFETCHES: 0 DROPPED PREFETCHES: 0
LLC3 AVERAGE MISS LATENCY: 86.1859 cycles
LLC4 TOTAL     ACCESS: 11912632  HIT: 11792201  MISS: 120431  HIT %: 98.989  MISS %: 1.01095  AVERAGE MISS PENALTY: 87.7383
LLC4 LOAD      ACCESS: 1486298  HIT: 1486024  MISS:   274  HIT %: 99.9816  MISS %: 0.0184351  AVERAGE MISS PENALTY: 171.792
LLC4 RFO       ACCESS:     0  HIT:     0  MISS:     0  HIT %:     0  MISS %:     0  AVERAGE MISS PENALTY: 0
LLC4 PREFETCH  ACCESS: 10419609  HIT: 10299452  MISS: 120157  HIT %: 98.8468  MISS %: 1.15318  AVERAGE MISS PENALTY: 87.5466
LLC4 WRITEBACK ACCESS:  6725  HIT:  6725  MISS:     0  HIT %:   100  MISS %:     0  AVERAGE MISS PENALTY: 0
LLC4 PREFETCH  REQUESTED:     0  ISSUED:     0  USEFUL:  2433  USELESS: 114504
 USEFUL LOAD PREFETCHES:       2433 PREFETCH ISSUED TO LOWER LEVEL:     120157  ACCURACY: 2.02485
 TIMELY PREFETCHES:       2433 LATE PREFETCHES: 0 DROPPED PREFETCHES: 0
LLC4 AVERAGE MISS LATENCY: 87.7383 cycles
LLC5 TOTAL     ACCESS: 11769365  HIT: 11649359  MISS: 120006  HIT %: 98.9804  MISS %: 1.01965  AVERAGE MISS PENALTY: 87.1176
LLC5 LOAD      ACCESS: 1482738  HIT: 1482494  MISS:   244  HIT %: 99.9835  MISS %: 0.016456  AVERAGE MISS PENALTY: 174.758
LLC5 RFO       ACCESS:     0  HIT:     0  MISS:     0  HIT %:     0  MISS %:     0  AVERAGE MISS PENALTY: 0
LLC5 PREFETCH  ACCESS: 10279858  HIT: 10160096  MISS: 119762  HIT %: 98.835  MISS %: 1.16502  AVERAGE MISS PENALTY: 86.939
LLC5 WRITEBACK ACCESS:  6769  HIT:  6769  MISS:     0  HIT %:   100  MISS %:     0  AVERAGE MISS PENALTY: 0
LLC5 PREFETCH  REQUESTED:     0  ISSUED:     0  USEFUL:  2022  USELESS: 114210
 USEFUL LOAD PREFETCHES:       2022 PREFETCH ISSUED TO LOWER LEVEL:     119762  ACCURACY: 1.68835
 TIMELY PREFETCHES:       2022 LATE PREFETCHES: 0 DROPPED PREFETCHES: 0
LLC5 AVERAGE MISS LATENCY: 87.1176 cycles
LLC6 TOTAL     ACCESS: 11579626  HIT: 11459262  MISS: 120364  HIT %: 98.9606  MISS %: 1.03945  AVERAGE MISS PENALTY: 88.2949
LLC6 LOAD      ACCESS: 1478034  HIT: 1477735  MISS:   299  HIT %: 99.9798  MISS %: 0.0202296  AVERAGE MISS PENALTY: 173.452
LLC6 RFO       ACCESS:     0  HIT:     0  MISS:     0  HIT %:     0  MISS %:     0  AVERAGE MISS PENALTY: 0
LLC6 PREFETCH  ACCESS: 10094936  HIT: 9974872  MISS: 120064  HIT %: 98.8107  MISS %: 1.18935  AVERAGE MISS PENALTY: 88.0836
LLC6 WRITEBACK ACCESS:  6656  HIT:  6655  MISS:     1  HIT %: 99.985  MISS %: 0.015024  AVERAGE MISS PENALTY: 0
LLC6 PREFETCH  REQUESTED:     0  ISSUED:     0  USEFUL:  2254  USELESS: 114245
 USEFUL LOAD PREFETCHES:       2254 PREFETCH ISSUED TO LOWER LEVEL:     120064  ACCURACY: 1.87733
 TIMELY PREFETCHES:       2254 LATE PREFETCHES: 0 DROPPED PREFETCHES: 0
LLC6 AVERAGE MISS LATENCY: 88.2949 cycles
LLC7 TOTAL     ACCESS: 11370310  HIT: 11249424  MISS: 120886  HIT %: 98.9368  MISS %: 1.06317  AVERAGE MISS PENALTY: 89.2984
LLC7 LOAD      ACCESS: 1463184  HIT: 1462769  MISS:   415  HIT %: 99.9716  MISS %: 0.0283628  AVERAGE MISS PENALTY: 175.017
LLC7 RFO       ACCESS:     0  HIT:     0  MISS:     0  HIT %:     0  MISS %:     0  AVERAGE MISS PENALTY: 0
LLC7 PREFETCH  ACCESS: 9900183  HIT: 9779712  MISS: 120471  HIT %: 98.7831  MISS %: 1.21686  AVERAGE MISS PENALTY: 89.0031
LLC7 WRITEBACK ACCESS:  6943  HIT:  6943  MISS:     0  HIT %:   100  MISS %:     0  AVERAGE MISS PENALTY: 0
LLC7 PREFETCH  REQUESTED:     0  ISSUED:     0  USEFUL:  2593  USELESS: 114453
 USEFUL LOAD PREFETCHES:       2593 PREFETCH ISSUED TO LOWER LEVEL:     120471  ACCURACY: 2.15239
 TIMELY PREFETCHES:       2593 LATE PREFETCHES: 0 DROPPED PREFETCHES: 0
LLC7 AVERAGE MISS LATENCY: 89.2984 cycles
ROI Average ROB Stall Cycles:	6.40148
ROI Total ROB Stalls Cycles:	509510103
ROI TOTAL ROB counter      :	79592505
ROI Average Load ROB Stall Cycles:	19.3629
ROI Total Load ROB Stalls Cycle  :	130018397
ROI Total Load ROB stalls Counter:	6714830
Major fault: 0 Minor fault: 30182

