
*** ChampSim Multicore Out-of-Order Simulator ***

Warmup Instructions: 200000000
Simulation Instructions: 200000000
Number of CPUs: 1
threads:1

L1I Configuration:
L1I_SET:64
L1I_WAY:8
L1I_RQ_SIZE:64
L1I_WQ_SIZE:64
L1I_PQ_SIZE:8
L1I_MSHR_SIZE:8

L1D Configuration:
L1D_SET:64
L1D_WAY:12
L1D_RQ_SIZE:64
L1D_WQ_SIZE:64
L1D_PQ_SIZE:8
L1D_MSHR_SIZE:16

L2C Configuration:
L2C_SET:1024
L2C_WAY:8
L2C_RQ_SIZE:32
L2C_WQ_SIZE:32
L2C_PQ_SIZE:16
L2C_MSHR_SIZE:32

LLC Configuration:
LLC_SET:2048
LLC_WAY:16
LLC SLICES:8
LLC_RQ_SIZE:64
LLC_WQ_SIZE:64
LLC_PQ_SIZE:32
LLC_MSHR_SIZE:64

Interconnect OFF
Attacker deprioritize is: OFF
Off-chip DRAM Size: 4096 MB Channels: 1 Width: 64-bit Data Rate: 3200 MT/s
PAGE SIZE in KB: 4.000000 
PAGE SIZE in MB: 0.003906 
PAGE offset in bits: 12 
CEASER-S_LLC:0
MIRAGE : 0
CEASER_LATENCY:3
REMAP : OFF
Partitions : 1
Multi-Step : OFF
BFS : OFF

CPU 0 runs /home/anubhav/gap/cc-5.trace.gz
CPU 0 Bimodal branch predictor
Initialize Hawkeye state
Initialize Hawkeye state
Initialize Hawkeye state
Initialize Hawkeye state
Initialize Hawkeye state
Initialize Hawkeye state
Initialize Hawkeye state
Initialize Hawkeye state
Heartbeat CPU 0 instructions: 10000000 cycles: 10329102 heartbeat IPC: 0.968138 cumulative IPC: 0.968138 (Simulation time: 0 hr 0 min 50 sec) 
 Total Blocks : 262144 Invalid Blocks : 167260
Heartbeat CPU 0 instructions: 20000000 cycles: 19472312 heartbeat IPC: 1.09371 cumulative IPC: 1.0271 (Simulation time: 0 hr 1 min 42 sec) 
 Total Blocks : 262144 Invalid Blocks : 142601
Heartbeat CPU 0 instructions: 30000001 cycles: 27941319 heartbeat IPC: 1.18078 cumulative IPC: 1.07368 (Simulation time: 0 hr 2 min 33 sec) 
 Total Blocks : 262144 Invalid Blocks : 130067
Heartbeat CPU 0 instructions: 40000003 cycles: 36188536 heartbeat IPC: 1.21253 cumulative IPC: 1.10532 (Simulation time: 0 hr 3 min 24 sec) 
 Total Blocks : 262144 Invalid Blocks : 123561
Heartbeat CPU 0 instructions: 50000001 cycles: 44039154 heartbeat IPC: 1.27378 cumulative IPC: 1.13535 (Simulation time: 0 hr 4 min 25 sec) 
 Total Blocks : 262144 Invalid Blocks : 120811
Heartbeat CPU 0 instructions: 60000000 cycles: 52366357 heartbeat IPC: 1.20088 cumulative IPC: 1.14577 (Simulation time: 0 hr 5 min 33 sec) 
 Total Blocks : 262144 Invalid Blocks : 119916
Heartbeat CPU 0 instructions: 70000001 cycles: 60218769 heartbeat IPC: 1.27349 cumulative IPC: 1.16243 (Simulation time: 0 hr 6 min 41 sec) 
 Total Blocks : 262144 Invalid Blocks : 119150
Heartbeat CPU 0 instructions: 80000000 cycles: 68198329 heartbeat IPC: 1.2532 cumulative IPC: 1.17305 (Simulation time: 0 hr 7 min 50 sec) 
 Total Blocks : 262144 Invalid Blocks : 118340
Heartbeat CPU 0 instructions: 90000003 cycles: 76358457 heartbeat IPC: 1.22547 cumulative IPC: 1.17865 (Simulation time: 0 hr 9 min 0 sec) 
 Total Blocks : 262144 Invalid Blocks : 117496
Heartbeat CPU 0 instructions: 100000002 cycles: 84186602 heartbeat IPC: 1.27744 cumulative IPC: 1.18784 (Simulation time: 0 hr 10 min 9 sec) 
 Total Blocks : 262144 Invalid Blocks : 116723
Heartbeat CPU 0 instructions: 110000000 cycles: 92120326 heartbeat IPC: 1.26044 cumulative IPC: 1.19409 (Simulation time: 0 hr 11 min 20 sec) 
 Total Blocks : 262144 Invalid Blocks : 115991
Heartbeat CPU 0 instructions: 120000000 cycles: 100031757 heartbeat IPC: 1.26399 cumulative IPC: 1.19962 (Simulation time: 0 hr 12 min 31 sec) 
 Total Blocks : 262144 Invalid Blocks : 115325
Heartbeat CPU 0 instructions: 130000003 cycles: 107382308 heartbeat IPC: 1.36044 cumulative IPC: 1.21063 (Simulation time: 0 hr 13 min 39 sec) 
 Total Blocks : 262144 Invalid Blocks : 114742
Heartbeat CPU 0 instructions: 140000002 cycles: 115246473 heartbeat IPC: 1.27159 cumulative IPC: 1.21479 (Simulation time: 0 hr 14 min 50 sec) 
 Total Blocks : 262144 Invalid Blocks : 114088
Heartbeat CPU 0 instructions: 150000000 cycles: 123029863 heartbeat IPC: 1.28479 cumulative IPC: 1.21922 (Simulation time: 0 hr 16 min 0 sec) 
 Total Blocks : 262144 Invalid Blocks : 113436
Heartbeat CPU 0 instructions: 160000000 cycles: 130909414 heartbeat IPC: 1.26911 cumulative IPC: 1.22222 (Simulation time: 0 hr 17 min 12 sec) 
 Total Blocks : 262144 Invalid Blocks : 112824
Heartbeat CPU 0 instructions: 170000000 cycles: 138732186 heartbeat IPC: 1.27832 cumulative IPC: 1.22538 (Simulation time: 0 hr 18 min 23 sec) 
 Total Blocks : 262144 Invalid Blocks : 112196
Heartbeat CPU 0 instructions: 180000001 cycles: 146670264 heartbeat IPC: 1.25975 cumulative IPC: 1.22724 (Simulation time: 0 hr 19 min 34 sec) 
 Total Blocks : 262144 Invalid Blocks : 111572
Heartbeat CPU 0 instructions: 190000002 cycles: 154427980 heartbeat IPC: 1.28904 cumulative IPC: 1.23035 (Simulation time: 0 hr 20 min 46 sec) 
 Total Blocks : 262144 Invalid Blocks : 111021
Heartbeat CPU 0 instructions: 200000002 cycles: 162195037 heartbeat IPC: 1.28749 cumulative IPC: 1.23308 (Simulation time: 0 hr 21 min 58 sec) 
 Total Blocks : 262144 Invalid Blocks : 110413

Warmup complete CPU 0 instructions: 200000002 cycles: 162195037 (Simulation time: 0 hr 21 min 58 sec) 

Heartbeat CPU 0 instructions: 210000002 cycles: 187861198 heartbeat IPC: 0.389618 cumulative IPC: 0.389618 (Simulation time: 0 hr 24 min 21 sec) 
 Total Blocks : 262144 Invalid Blocks : 109481
Heartbeat CPU 0 instructions: 220000000 cycles: 213033989 heartbeat IPC: 0.397254 cumulative IPC: 0.393399 (Simulation time: 0 hr 26 min 43 sec) 
 Total Blocks : 262144 Invalid Blocks : 108644
Heartbeat CPU 0 instructions: 230000000 cycles: 238244327 heartbeat IPC: 0.396663 cumulative IPC: 0.394481 (Simulation time: 0 hr 29 min 5 sec) 
 Total Blocks : 262144 Invalid Blocks : 107745
Heartbeat CPU 0 instructions: 240000001 cycles: 263053936 heartbeat IPC: 0.40307 cumulative IPC: 0.396594 (Simulation time: 0 hr 31 min 27 sec) 
 Total Blocks : 262144 Invalid Blocks : 106939
Heartbeat CPU 0 instructions: 250000002 cycles: 287481021 heartbeat IPC: 0.409382 cumulative IPC: 0.399087 (Simulation time: 0 hr 33 min 48 sec) 
 Total Blocks : 262144 Invalid Blocks : 106083
Heartbeat CPU 0 instructions: 260000000 cycles: 311681208 heartbeat IPC: 0.41322 cumulative IPC: 0.401375 (Simulation time: 0 hr 36 min 9 sec) 
 Total Blocks : 262144 Invalid Blocks : 105341
Heartbeat CPU 0 instructions: 270000000 cycles: 336620297 heartbeat IPC: 0.400977 cumulative IPC: 0.401318 (Simulation time: 0 hr 38 min 32 sec) 
 Total Blocks : 262144 Invalid Blocks : 104631
Heartbeat CPU 0 instructions: 280000001 cycles: 362704288 heartbeat IPC: 0.383377 cumulative IPC: 0.398984 (Simulation time: 0 hr 40 min 57 sec) 
 Total Blocks : 262144 Invalid Blocks : 103920
Heartbeat CPU 0 instructions: 290000002 cycles: 388134021 heartbeat IPC: 0.393241 cumulative IPC: 0.398338 (Simulation time: 0 hr 43 min 21 sec) 
 Total Blocks : 262144 Invalid Blocks : 103178
Heartbeat CPU 0 instructions: 300000002 cycles: 413856255 heartbeat IPC: 0.388769 cumulative IPC: 0.39736 (Simulation time: 0 hr 45 min 46 sec) 
 Total Blocks : 262144 Invalid Blocks : 102547
Heartbeat CPU 0 instructions: 310000001 cycles: 438880541 heartbeat IPC: 0.399612 cumulative IPC: 0.397563 (Simulation time: 0 hr 48 min 9 sec) 
 Total Blocks : 262144 Invalid Blocks : 101873
Heartbeat CPU 0 instructions: 320000003 cycles: 463946017 heartbeat IPC: 0.398955 cumulative IPC: 0.397679 (Simulation time: 0 hr 50 min 33 sec) 
 Total Blocks : 262144 Invalid Blocks : 101236
Heartbeat CPU 0 instructions: 330000000 cycles: 489792251 heartbeat IPC: 0.386903 cumulative IPC: 0.396829 (Simulation time: 0 hr 52 min 58 sec) 
 Total Blocks : 262144 Invalid Blocks : 100731
Heartbeat CPU 0 instructions: 340000001 cycles: 515515151 heartbeat IPC: 0.388759 cumulative IPC: 0.396241 (Simulation time: 0 hr 55 min 26 sec) 
 Total Blocks : 262144 Invalid Blocks : 100075
Heartbeat CPU 0 instructions: 350000002 cycles: 540227303 heartbeat IPC: 0.404659 cumulative IPC: 0.396792 (Simulation time: 0 hr 57 min 50 sec) 
 Total Blocks : 262144 Invalid Blocks : 99468
Heartbeat CPU 0 instructions: 360000001 cycles: 565762980 heartbeat IPC: 0.391609 cumulative IPC: 0.396464 (Simulation time: 1 hr 0 min 15 sec) 
 Total Blocks : 262144 Invalid Blocks : 98847
Heartbeat CPU 0 instructions: 370000000 cycles: 590388475 heartbeat IPC: 0.406083 cumulative IPC: 0.397017 (Simulation time: 1 hr 2 min 37 sec) 
 Total Blocks : 262144 Invalid Blocks : 98236
Heartbeat CPU 0 instructions: 380000002 cycles: 615755133 heartbeat IPC: 0.394218 cumulative IPC: 0.39686 (Simulation time: 1 hr 5 min 0 sec) 
 Total Blocks : 262144 Invalid Blocks : 97620
Heartbeat CPU 0 instructions: 390000003 cycles: 640693612 heartbeat IPC: 0.400987 cumulative IPC: 0.397075 (Simulation time: 1 hr 7 min 22 sec) 
 Total Blocks : 262144 Invalid Blocks : 97118
Heartbeat CPU 0 instructions: 400000000 cycles: 665753781 heartbeat IPC: 0.399039 cumulative IPC: 0.397173 (Simulation time: 1 hr 9 min 46 sec) 
 Total Blocks : 262144 Invalid Blocks : 96674
Finished CPU 0 instructions: 200000000 cycles: 503558760 cumulative IPC: 0.397173 (Simulation time: 1 hr 9 min 46 sec) 

CPU 0 Branch Prediction Accuracy: 93.0717% MPKI: 13.9943 Average ROB Occupancy at Mispredict: 54.7316

ChampSim completed all CPUs

Region of Interest Statistics

CPU 0 cumulative IPC: 0.397173 instructions: 200000000 cycles: 503558760
ITLB TOTAL     ACCESS: 30150710  HIT: 30150710  MISS:     0  HIT %:   100  MISS %:     0  AVERAGE MISS PENALTY: 0
ITLB LOAD      ACCESS: 30150710  HIT: 30150710  MISS:     0  HIT %:   100  MISS %:     0  AVERAGE MISS PENALTY: 0
ITLB RFO       ACCESS:     0  HIT:     0  MISS:     0  HIT %:     0  MISS %:     0  AVERAGE MISS PENALTY: 0
ITLB PREFETCH  ACCESS:     0  HIT:     0  MISS:     0  HIT %:     0  MISS %:     0  AVERAGE MISS PENALTY: 0
ITLB WRITEBACK ACCESS:     0  HIT:     0  MISS:     0  HIT %:     0  MISS %:     0  AVERAGE MISS PENALTY: 0
ITLB PREFETCH  REQUESTED:     0  ISSUED:     0  USEFUL:     0  USELESS:     0
 USEFUL LOAD PREFETCHES:          0 PREFETCH ISSUED TO LOWER LEVEL:          0  ACCURACY: -nan
 TIMELY PREFETCHES:          0 LATE PREFETCHES: 0 DROPPED PREFETCHES: 0
ITLB AVERAGE MISS LATENCY: -nan cycles
DTLB TOTAL     ACCESS: 44769834  HIT: 35244460  MISS: 9525374  HIT %: 78.7237  MISS %: 21.2763  AVERAGE MISS PENALTY: 26.5063
DTLB LOAD      ACCESS: 44703265  HIT: 35177891  MISS: 9525374  HIT %: 78.692  MISS %: 21.308  AVERAGE MISS PENALTY: 26.5063
DTLB RFO       ACCESS: 66569  HIT: 66569  MISS:     0  HIT %:   100  MISS %:     0  AVERAGE MISS PENALTY: 0
DTLB PREFETCH  ACCESS:     0  HIT:     0  MISS:     0  HIT %:     0  MISS %:     0  AVERAGE MISS PENALTY: 0
DTLB WRITEBACK ACCESS:     0  HIT:     0  MISS:     0  HIT %:     0  MISS %:     0  AVERAGE MISS PENALTY: 0
DTLB PREFETCH  REQUESTED:     0  ISSUED:     0  USEFUL:     0  USELESS:     0
 USEFUL LOAD PREFETCHES:          0 PREFETCH ISSUED TO LOWER LEVEL:          0  ACCURACY: -nan
 TIMELY PREFETCHES:          0 LATE PREFETCHES: 0 DROPPED PREFETCHES: 0
DTLB AVERAGE MISS LATENCY: 9.47864 cycles
STLB TOTAL     ACCESS: 9525373  HIT: 9511020  MISS: 14353  HIT %: 99.8493  MISS %: 0.150682  AVERAGE MISS PENALTY: 100
STLB LOAD      ACCESS: 9525373  HIT: 9511020  MISS: 14353  HIT %: 99.8493  MISS %: 0.150682  AVERAGE MISS PENALTY: 100
STLB RFO       ACCESS:     0  HIT:     0  MISS:     0  HIT %:     0  MISS %:     0  AVERAGE MISS PENALTY: 0
STLB PREFETCH  ACCESS:     0  HIT:     0  MISS:     0  HIT %:     0  MISS %:     0  AVERAGE MISS PENALTY: 0
STLB WRITEBACK ACCESS:     0  HIT:     0  MISS:     0  HIT %:     0  MISS %:     0  AVERAGE MISS PENALTY: 0
STLB PREFETCH  REQUESTED:     0  ISSUED:     0  USEFUL:     0  USELESS:     0
 USEFUL LOAD PREFETCHES:          0 PREFETCH ISSUED TO LOWER LEVEL:          0  ACCURACY: -nan
 TIMELY PREFETCHES:          0 LATE PREFETCHES: 0 DROPPED PREFETCHES: 0
STLB AVERAGE MISS LATENCY: 100 cycles
L1D TOTAL     ACCESS: 115900153  HIT: 55316943  MISS: 60583210  HIT %: 47.7281  MISS %: 52.2719  AVERAGE MISS PENALTY: 1.13168e+06
L1D LOAD      ACCESS: 41821746  HIT: 27773406  MISS: 14048340  HIT %: 66.409  MISS %: 33.591  AVERAGE MISS PENALTY: 4.88011e+06
L1D RFO       ACCESS: 66571  HIT: 66571  MISS:     0  HIT %:   100  MISS %:     0  AVERAGE MISS PENALTY: 0
L1D PREFETCH  ACCESS: 74011836  HIT: 27476966  MISS: 46534870  HIT %: 37.1251  MISS %: 62.8749  AVERAGE MISS PENALTY: 74.1901
L1D WRITEBACK ACCESS:     0  HIT:     0  MISS:     0  HIT %:     0  MISS %:     0  AVERAGE MISS PENALTY: 0
L1D PREFETCH  REQUESTED: 119846981  ISSUED: 76132534  USEFUL: 1462993  USELESS: 45071849
 USEFUL LOAD PREFETCHES:    1462993 PREFETCH ISSUED TO LOWER LEVEL:  144882982  ACCURACY: 1.00978
 TIMELY PREFETCHES:    1462993 LATE PREFETCHES: 526896 DROPPED PREFETCHES: 43714447
L1D AVERAGE MISS LATENCY: 42.9936 cycles
L1I TOTAL     ACCESS: 41392904  HIT: 41392904  MISS:     0  HIT %:   100  MISS %:     0  AVERAGE MISS PENALTY: 0
L1I LOAD      ACCESS: 41392904  HIT: 41392904  MISS:     0  HIT %:   100  MISS %:     0  AVERAGE MISS PENALTY: 0
L1I RFO       ACCESS:     0  HIT:     0  MISS:     0  HIT %:     0  MISS %:     0  AVERAGE MISS PENALTY: 0
L1I PREFETCH  ACCESS:     0  HIT:     0  MISS:     0  HIT %:     0  MISS %:     0  AVERAGE MISS PENALTY: 0
L1I WRITEBACK ACCESS:     0  HIT:     0  MISS:     0  HIT %:     0  MISS %:     0  AVERAGE MISS PENALTY: 0
L1I PREFETCH  REQUESTED:     0  ISSUED:     0  USEFUL:     0  USELESS:     0
 USEFUL LOAD PREFETCHES:          0 PREFETCH ISSUED TO LOWER LEVEL:          0  ACCURACY: -nan
 TIMELY PREFETCHES:          0 LATE PREFETCHES: 0 DROPPED PREFETCHES: 0
L1I AVERAGE MISS LATENCY: -nan cycles
L2C TOTAL     ACCESS: 111609456  HIT: 22834586  MISS: 88774870  HIT %: 20.4594  MISS %: 79.5406  AVERAGE MISS PENALTY: 568527
L2C LOAD      ACCESS: 14030730  HIT: 2371448  MISS: 11659282  HIT %: 16.9018  MISS %: 83.0982  AVERAGE MISS PENALTY: 4.32859e+06
L2C RFO       ACCESS:     0  HIT:     0  MISS:     0  HIT %:     0  MISS %:     0  AVERAGE MISS PENALTY: 0
L2C PREFETCH  ACCESS: 97523050  HIT: 20409899  MISS: 77113151  HIT %: 20.9283  MISS %: 79.0717  AVERAGE MISS PENALTY: 35.0635
L2C WRITEBACK ACCESS: 55676  HIT: 53239  MISS:  2437  HIT %: 95.6229  MISS %: 4.37711  AVERAGE MISS PENALTY: 0
L2C PREFETCH  REQUESTED: 209990041  ISSUED: 193162217  USEFUL: 1089204  USELESS: 76023770
 USEFUL LOAD PREFETCHES:    1089204 PREFETCH ISSUED TO LOWER LEVEL:   81886657  ACCURACY: 1.33014
 TIMELY PREFETCHES:    1089204 LATE PREFETCHES: 918179 DROPPED PREFETCHES: 16827824
L2C AVERAGE MISS LATENCY: 34.9528 cycles
LLC0 TOTAL     ACCESS: 11368548  HIT: 11253440  MISS: 115108  HIT %: 98.9875  MISS %: 1.01251  AVERAGE MISS PENALTY: 81.3001
LLC0 LOAD      ACCESS: 1475795  HIT: 1461416  MISS: 14379  HIT %: 99.0257  MISS %: 0.974322  AVERAGE MISS PENALTY: 84.4899
LLC0 RFO       ACCESS:     0  HIT:     0  MISS:     0  HIT %:     0  MISS %:     0  AVERAGE MISS PENALTY: 0
LLC0 PREFETCH  ACCESS: 9885752  HIT: 9785023  MISS: 100729  HIT %: 98.9811  MISS %: 1.01893  AVERAGE MISS PENALTY: 80.8448
LLC0 WRITEBACK ACCESS:  7001  HIT:  7001  MISS:     0  HIT %:   100  MISS %:     0  AVERAGE MISS PENALTY: 0
LLC0 PREFETCH  REQUESTED:     0  ISSUED:     0  USEFUL:   580  USELESS: 99509
 USEFUL LOAD PREFETCHES:        580 PREFETCH ISSUED TO LOWER LEVEL:     100729  ACCURACY: 0.575802
 TIMELY PREFETCHES:        580 LATE PREFETCHES: 0 DROPPED PREFETCHES: 0
LLC0 AVERAGE MISS LATENCY: 81.3001 cycles
Deadblocks : 14193 Deadblock percentage : 98.7064

LLC1 TOTAL     ACCESS: 11341107  HIT: 11225796  MISS: 115311  HIT %: 98.9832  MISS %: 1.01675  AVERAGE MISS PENALTY: 82.0085
LLC1 LOAD      ACCESS: 1468449  HIT: 1468043  MISS:   406  HIT %: 99.9724  MISS %: 0.0276482  AVERAGE MISS PENALTY: 98.6084
LLC1 RFO       ACCESS:     0  HIT:     0  MISS:     0  HIT %:     0  MISS %:     0  AVERAGE MISS PENALTY: 0
LLC1 PREFETCH  ACCESS: 9865672  HIT: 9750767  MISS: 114905  HIT %: 98.8353  MISS %: 1.1647  AVERAGE MISS PENALTY: 81.9498
LLC1 WRITEBACK ACCESS:  6986  HIT:  6986  MISS:     0  HIT %:   100  MISS %:     0  AVERAGE MISS PENALTY: 0
LLC1 PREFETCH  REQUESTED:     0  ISSUED:     0  USEFUL:   795  USELESS: 113270
 USEFUL LOAD PREFETCHES:        795 PREFETCH ISSUED TO LOWER LEVEL:     114905  ACCURACY: 0.691876
 TIMELY PREFETCHES:        795 LATE PREFETCHES: 0 DROPPED PREFETCHES: 0
LLC1 AVERAGE MISS LATENCY: 82.0085 cycles
LLC2 TOTAL     ACCESS: 11300214  HIT: 11184622  MISS: 115592  HIT %: 98.9771  MISS %: 1.02292  AVERAGE MISS PENALTY: 83.4545
LLC2 LOAD      ACCESS: 1441992  HIT: 1441897  MISS:    95  HIT %: 99.9934  MISS %: 0.00658811  AVERAGE MISS PENALTY: 170.958
LLC2 RFO       ACCESS:     0  HIT:     0  MISS:     0  HIT %:     0  MISS %:     0  AVERAGE MISS PENALTY: 0
LLC2 PREFETCH  ACCESS: 9851200  HIT: 9735703  MISS: 115497  HIT %: 98.8276  MISS %: 1.17242  AVERAGE MISS PENALTY: 83.3825
LLC2 WRITEBACK ACCESS:  7022  HIT:  7022  MISS:     0  HIT %:   100  MISS %:     0  AVERAGE MISS PENALTY: 0
LLC2 PREFETCH  REQUESTED:     0  ISSUED:     0  USEFUL:  1040  USELESS: 113337
 USEFUL LOAD PREFETCHES:       1040 PREFETCH ISSUED TO LOWER LEVEL:     115497  ACCURACY: 0.900456
 TIMELY PREFETCHES:       1040 LATE PREFETCHES: 0 DROPPED PREFETCHES: 0
LLC2 AVERAGE MISS LATENCY: 83.4545 cycles
LLC3 TOTAL     ACCESS: 11234324  HIT: 11117856  MISS: 116468  HIT %: 98.9633  MISS %: 1.03672  AVERAGE MISS PENALTY: 86.1616
LLC3 LOAD      ACCESS: 1430319  HIT: 1430118  MISS:   201  HIT %: 99.9859  MISS %: 0.0140528  AVERAGE MISS PENALTY: 174.542
LLC3 RFO       ACCESS:     0  HIT:     0  MISS:     0  HIT %:     0  MISS %:     0  AVERAGE MISS PENALTY: 0
LLC3 PREFETCH  ACCESS: 9797178  HIT: 9680912  MISS: 116266  HIT %: 98.8133  MISS %: 1.18673  AVERAGE MISS PENALTY: 86.0095
LLC3 WRITEBACK ACCESS:  6827  HIT:  6826  MISS:     1  HIT %: 99.9854  MISS %: 0.0146477  AVERAGE MISS PENALTY: 0
LLC3 PREFETCH  REQUESTED:     0  ISSUED:     0  USEFUL:  1818  USELESS: 112957
 USEFUL LOAD PREFETCHES:       1818 PREFETCH ISSUED TO LOWER LEVEL:     116266  ACCURACY: 1.56366
 TIMELY PREFETCHES:       1818 LATE PREFETCHES: 0 DROPPED PREFETCHES: 0
LLC3 AVERAGE MISS LATENCY: 86.1616 cycles
LLC4 TOTAL     ACCESS: 11161559  HIT: 11045196  MISS: 116363  HIT %: 98.9575  MISS %: 1.04253  AVERAGE MISS PENALTY: 86.4654
LLC4 LOAD      ACCESS: 1469253  HIT: 1469051  MISS:   202  HIT %: 99.9863  MISS %: 0.0137485  AVERAGE MISS PENALTY: 171.594
LLC4 RFO       ACCESS:     0  HIT:     0  MISS:     0  HIT %:     0  MISS %:     0  AVERAGE MISS PENALTY: 0
LLC4 PREFETCH  ACCESS: 9685321  HIT: 9569161  MISS: 116160  HIT %: 98.8007  MISS %: 1.19934  AVERAGE MISS PENALTY: 86.3181
LLC4 WRITEBACK ACCESS:  6985  HIT:  6984  MISS:     1  HIT %: 99.9857  MISS %: 0.0143164  AVERAGE MISS PENALTY: 0
LLC4 PREFETCH  REQUESTED:     0  ISSUED:     0  USEFUL:  1669  USELESS: 112582
 USEFUL LOAD PREFETCHES:       1669 PREFETCH ISSUED TO LOWER LEVEL:     116160  ACCURACY: 1.43681
 TIMELY PREFETCHES:       1669 LATE PREFETCHES: 0 DROPPED PREFETCHES: 0
LLC4 AVERAGE MISS LATENCY: 86.4654 cycles
LLC5 TOTAL     ACCESS: 11007747  HIT: 10891062  MISS: 116685  HIT %: 98.94  MISS %: 1.06003  AVERAGE MISS PENALTY: 87.2366
LLC5 LOAD      ACCESS: 1464967  HIT: 1464735  MISS:   232  HIT %: 99.9842  MISS %: 0.0158365  AVERAGE MISS PENALTY: 173.341
LLC5 RFO       ACCESS:     0  HIT:     0  MISS:     0  HIT %:     0  MISS %:     0  AVERAGE MISS PENALTY: 0
LLC5 PREFETCH  ACCESS: 9535908  HIT: 9419455  MISS: 116453  HIT %: 98.7788  MISS %: 1.22121  AVERAGE MISS PENALTY: 87.0651
LLC5 WRITEBACK ACCESS:  6872  HIT:  6872  MISS:     0  HIT %:   100  MISS %:     0  AVERAGE MISS PENALTY: 0
LLC5 PREFETCH  REQUESTED:     0  ISSUED:     0  USEFUL:  1943  USELESS: 112171
 USEFUL LOAD PREFETCHES:       1943 PREFETCH ISSUED TO LOWER LEVEL:     116453  ACCURACY: 1.66848
 TIMELY PREFETCHES:       1943 LATE PREFETCHES: 0 DROPPED PREFETCHES: 0
LLC5 AVERAGE MISS LATENCY: 87.2366 cycles
LLC6 TOTAL     ACCESS: 10810890  HIT: 10694006  MISS: 116884  HIT %: 98.9188  MISS %: 1.08117  AVERAGE MISS PENALTY: 88.2247
LLC6 LOAD      ACCESS: 1449973  HIT: 1449698  MISS:   275  HIT %: 99.981  MISS %: 0.0189659  AVERAGE MISS PENALTY: 173.375
LLC6 RFO       ACCESS:     0  HIT:     0  MISS:     0  HIT %:     0  MISS %:     0  AVERAGE MISS PENALTY: 0
LLC6 PREFETCH  ACCESS: 9353873  HIT: 9237264  MISS: 116609  HIT %: 98.7534  MISS %: 1.24664  AVERAGE MISS PENALTY: 88.0239
LLC6 WRITEBACK ACCESS:  7044  HIT:  7044  MISS:     0  HIT %:   100  MISS %:     0  AVERAGE MISS PENALTY: 0
LLC6 PREFETCH  REQUESTED:     0  ISSUED:     0  USEFUL:  2050  USELESS: 112109
 USEFUL LOAD PREFETCHES:       2050 PREFETCH ISSUED TO LOWER LEVEL:     116609  ACCURACY: 1.75801
 TIMELY PREFETCHES:       2050 LATE PREFETCHES: 0 DROPPED PREFETCHES: 0
LLC6 AVERAGE MISS LATENCY: 88.2247 cycles
LLC7 TOTAL     ACCESS: 10603716  HIT: 10486339  MISS: 117377  HIT %: 98.8931  MISS %: 1.10694  AVERAGE MISS PENALTY: 89.181
LLC7 LOAD      ACCESS: 1438344  HIT: 1437946  MISS:   398  HIT %: 99.9723  MISS %: 0.0276707  AVERAGE MISS PENALTY: 173.796
LLC7 RFO       ACCESS:     0  HIT:     0  MISS:     0  HIT %:     0  MISS %:     0  AVERAGE MISS PENALTY: 0
LLC7 PREFETCH  ACCESS: 9158433  HIT: 9041454  MISS: 116979  HIT %: 98.7227  MISS %: 1.27728  AVERAGE MISS PENALTY: 88.8932
LLC7 WRITEBACK ACCESS:  6939  HIT:  6939  MISS:     0  HIT %:   100  MISS %:     0  AVERAGE MISS PENALTY: 0
LLC7 PREFETCH  REQUESTED:     0  ISSUED:     0  USEFUL:  2396  USELESS: 112207
 USEFUL LOAD PREFETCHES:       2396 PREFETCH ISSUED TO LOWER LEVEL:     116979  ACCURACY: 2.04823
 TIMELY PREFETCHES:       2396 LATE PREFETCHES: 0 DROPPED PREFETCHES: 0
LLC7 AVERAGE MISS LATENCY: 89.181 cycles
ROI Average ROB Stall Cycles:	5.77005
ROI Total ROB Stalls Cycles:	425581398
ROI TOTAL ROB counter      :	73757000
ROI Average Load ROB Stall Cycles:	16.9293
ROI Total Load ROB Stalls Cycle  :	100952842
ROI Total Load ROB stalls Counter:	5963196
Major fault: 0 Minor fault: 29430

