
*** ChampSim Multicore Out-of-Order Simulator ***

Warmup Instructions: 200000000
Simulation Instructions: 200000000
Number of CPUs: 1
threads:1

L1I Configuration:
L1I_SET:64
L1I_WAY:8
L1I_RQ_SIZE:64
L1I_WQ_SIZE:64
L1I_PQ_SIZE:8
L1I_MSHR_SIZE:8

L1D Configuration:
L1D_SET:64
L1D_WAY:12
L1D_RQ_SIZE:64
L1D_WQ_SIZE:64
L1D_PQ_SIZE:8
L1D_MSHR_SIZE:16

L2C Configuration:
L2C_SET:1024
L2C_WAY:8
L2C_RQ_SIZE:32
L2C_WQ_SIZE:32
L2C_PQ_SIZE:16
L2C_MSHR_SIZE:32

LLC Configuration:
LLC_SET:4096
LLC_WAY:16
LLC SLICES:8
LLC_RQ_SIZE:64
LLC_WQ_SIZE:64
LLC_PQ_SIZE:32
LLC_MSHR_SIZE:64

Interconnect OFF
Attacker deprioritize is: OFF
Off-chip DRAM Size: 4096 MB Channels: 1 Width: 64-bit Data Rate: 3200 MT/s
PAGE SIZE in KB: 4.000000 
PAGE SIZE in MB: 0.003906 
PAGE offset in bits: 12 
CEASER-S_LLC:0
MIRAGE : 0
CEASER_LATENCY:3
REMAP : OFF
Partitions : 1
Multi-Step : OFF
BFS : OFF

CPU 0 runs /home/anubhav/gap/cc-5.trace.gz
CPU 0 Bimodal branch predictor
Initialize Hawkeye state
Initialize Hawkeye state
Initialize Hawkeye state
Initialize Hawkeye state
Initialize Hawkeye state
Initialize Hawkeye state
Initialize Hawkeye state
Initialize Hawkeye state
Heartbeat CPU 0 instructions: 10000000 cycles: 10322830 heartbeat IPC: 0.968727 cumulative IPC: 0.968727 (Simulation time: 0 hr 2 min 29 sec) 
 Total Blocks : 524288 Invalid Blocks : 424681
Heartbeat CPU 0 instructions: 20000000 cycles: 19464405 heartbeat IPC: 1.0939 cumulative IPC: 1.02752 (Simulation time: 0 hr 4 min 51 sec) 
 Total Blocks : 524288 Invalid Blocks : 398144
Heartbeat CPU 0 instructions: 30000001 cycles: 27932535 heartbeat IPC: 1.1809 cumulative IPC: 1.07402 (Simulation time: 0 hr 7 min 19 sec) 
 Total Blocks : 524288 Invalid Blocks : 380633
Heartbeat CPU 0 instructions: 40000003 cycles: 36179337 heartbeat IPC: 1.21259 cumulative IPC: 1.1056 (Simulation time: 0 hr 9 min 53 sec) 
 Total Blocks : 524288 Invalid Blocks : 369988
Heartbeat CPU 0 instructions: 50000001 cycles: 44029851 heartbeat IPC: 1.2738 cumulative IPC: 1.13559 (Simulation time: 0 hr 12 min 59 sec) 
 Total Blocks : 524288 Invalid Blocks : 365701
Heartbeat CPU 0 instructions: 60000000 cycles: 52357033 heartbeat IPC: 1.20089 cumulative IPC: 1.14598 (Simulation time: 0 hr 16 min 21 sec) 
 Total Blocks : 524288 Invalid Blocks : 364561
Heartbeat CPU 0 instructions: 70000001 cycles: 60209398 heartbeat IPC: 1.2735 cumulative IPC: 1.16261 (Simulation time: 0 hr 19 min 32 sec) 
 Total Blocks : 524288 Invalid Blocks : 363581
Heartbeat CPU 0 instructions: 80000000 cycles: 68188934 heartbeat IPC: 1.25321 cumulative IPC: 1.17321 (Simulation time: 0 hr 22 min 38 sec) 
 Total Blocks : 524288 Invalid Blocks : 362763
Heartbeat CPU 0 instructions: 90000003 cycles: 76349019 heartbeat IPC: 1.22548 cumulative IPC: 1.1788 (Simulation time: 0 hr 25 min 59 sec) 
 Total Blocks : 524288 Invalid Blocks : 361817
Heartbeat CPU 0 instructions: 100000002 cycles: 84177110 heartbeat IPC: 1.27745 cumulative IPC: 1.18797 (Simulation time: 0 hr 29 min 9 sec) 
 Total Blocks : 524288 Invalid Blocks : 360906
Heartbeat CPU 0 instructions: 110000000 cycles: 92110739 heartbeat IPC: 1.26046 cumulative IPC: 1.19421 (Simulation time: 0 hr 32 min 23 sec) 
 Total Blocks : 524288 Invalid Blocks : 360066
Heartbeat CPU 0 instructions: 120000000 cycles: 100022133 heartbeat IPC: 1.264 cumulative IPC: 1.19973 (Simulation time: 0 hr 35 min 38 sec) 
 Total Blocks : 524288 Invalid Blocks : 359210
Heartbeat CPU 0 instructions: 130000003 cycles: 107372663 heartbeat IPC: 1.36045 cumulative IPC: 1.21074 (Simulation time: 0 hr 38 min 40 sec) 
 Total Blocks : 524288 Invalid Blocks : 358524
Heartbeat CPU 0 instructions: 140000002 cycles: 115236811 heartbeat IPC: 1.27159 cumulative IPC: 1.21489 (Simulation time: 0 hr 41 min 57 sec) 
 Total Blocks : 524288 Invalid Blocks : 357773
Heartbeat CPU 0 instructions: 150000000 cycles: 123020201 heartbeat IPC: 1.28479 cumulative IPC: 1.21931 (Simulation time: 0 hr 45 min 15 sec) 
 Total Blocks : 524288 Invalid Blocks : 356976
Heartbeat CPU 0 instructions: 160000000 cycles: 130899712 heartbeat IPC: 1.26911 cumulative IPC: 1.22231 (Simulation time: 0 hr 48 min 36 sec) 
 Total Blocks : 524288 Invalid Blocks : 356232
Heartbeat CPU 0 instructions: 170000000 cycles: 138722447 heartbeat IPC: 1.27833 cumulative IPC: 1.22547 (Simulation time: 0 hr 51 min 54 sec) 
 Total Blocks : 524288 Invalid Blocks : 355399
Heartbeat CPU 0 instructions: 180000001 cycles: 146660505 heartbeat IPC: 1.25975 cumulative IPC: 1.22732 (Simulation time: 0 hr 55 min 21 sec) 
 Total Blocks : 524288 Invalid Blocks : 354589
Heartbeat CPU 0 instructions: 190000002 cycles: 154418169 heartbeat IPC: 1.28905 cumulative IPC: 1.23043 (Simulation time: 0 hr 58 min 59 sec) 
 Total Blocks : 524288 Invalid Blocks : 353884
Heartbeat CPU 0 instructions: 200000002 cycles: 162185193 heartbeat IPC: 1.28749 cumulative IPC: 1.23316 (Simulation time: 1 hr 2 min 22 sec) 
 Total Blocks : 524288 Invalid Blocks : 353144

Warmup complete CPU 0 instructions: 200000002 cycles: 162185193 (Simulation time: 1 hr 2 min 22 sec) 

Heartbeat CPU 0 instructions: 210000002 cycles: 187839090 heartbeat IPC: 0.389804 cumulative IPC: 0.389804 (Simulation time: 1 hr 8 min 53 sec) 
 Total Blocks : 524288 Invalid Blocks : 351994
Heartbeat CPU 0 instructions: 220000000 cycles: 213004133 heartbeat IPC: 0.397377 cumulative IPC: 0.393554 (Simulation time: 1 hr 15 min 39 sec) 
 Total Blocks : 524288 Invalid Blocks : 350694
Heartbeat CPU 0 instructions: 230000000 cycles: 238204422 heartbeat IPC: 0.396821 cumulative IPC: 0.394637 (Simulation time: 1 hr 22 min 23 sec) 
 Total Blocks : 524288 Invalid Blocks : 349393
Heartbeat CPU 0 instructions: 240000001 cycles: 263003972 heartbeat IPC: 0.403233 cumulative IPC: 0.396751 (Simulation time: 1 hr 29 min 4 sec) 
 Total Blocks : 524288 Invalid Blocks : 347968
Heartbeat CPU 0 instructions: 250000002 cycles: 287419868 heartbeat IPC: 0.409569 cumulative IPC: 0.39925 (Simulation time: 1 hr 35 min 41 sec) 
 Total Blocks : 524288 Invalid Blocks : 346744
Heartbeat CPU 0 instructions: 260000000 cycles: 311612608 heartbeat IPC: 0.413347 cumulative IPC: 0.401533 (Simulation time: 1 hr 42 min 11 sec) 
 Total Blocks : 524288 Invalid Blocks : 345467
Heartbeat CPU 0 instructions: 270000000 cycles: 336543546 heartbeat IPC: 0.401108 cumulative IPC: 0.401472 (Simulation time: 1 hr 48 min 31 sec) 
 Total Blocks : 524288 Invalid Blocks : 344130
Heartbeat CPU 0 instructions: 280000001 cycles: 362620467 heartbeat IPC: 0.383481 cumulative IPC: 0.399131 (Simulation time: 1 hr 54 min 50 sec) 
 Total Blocks : 524288 Invalid Blocks : 342919
Heartbeat CPU 0 instructions: 290000002 cycles: 388045456 heartbeat IPC: 0.393314 cumulative IPC: 0.398476 (Simulation time: 2 hr 0 min 57 sec) 
 Total Blocks : 524288 Invalid Blocks : 341712
Heartbeat CPU 0 instructions: 300000002 cycles: 413760280 heartbeat IPC: 0.388881 cumulative IPC: 0.397496 (Simulation time: 2 hr 6 min 59 sec) 
 Total Blocks : 524288 Invalid Blocks : 340495
Heartbeat CPU 0 instructions: 310000001 cycles: 438775395 heartbeat IPC: 0.399758 cumulative IPC: 0.3977 (Simulation time: 2 hr 12 min 48 sec) 
 Total Blocks : 524288 Invalid Blocks : 339373
Heartbeat CPU 0 instructions: 320000003 cycles: 463835039 heartbeat IPC: 0.399048 cumulative IPC: 0.397812 (Simulation time: 2 hr 18 min 40 sec) 
 Total Blocks : 524288 Invalid Blocks : 338223
Heartbeat CPU 0 instructions: 330000000 cycles: 489675674 heartbeat IPC: 0.386987 cumulative IPC: 0.396958 (Simulation time: 2 hr 24 min 24 sec) 
 Total Blocks : 524288 Invalid Blocks : 337077
Heartbeat CPU 0 instructions: 340000001 cycles: 515391419 heartbeat IPC: 0.388867 cumulative IPC: 0.396369 (Simulation time: 2 hr 29 min 59 sec) 
 Total Blocks : 524288 Invalid Blocks : 335926
Heartbeat CPU 0 instructions: 350000002 cycles: 540097339 heartbeat IPC: 0.404761 cumulative IPC: 0.396918 (Simulation time: 2 hr 35 min 11 sec) 
 Total Blocks : 524288 Invalid Blocks : 334733
Heartbeat CPU 0 instructions: 360000001 cycles: 565622834 heartbeat IPC: 0.391765 cumulative IPC: 0.396592 (Simulation time: 2 hr 39 min 49 sec) 
 Total Blocks : 524288 Invalid Blocks : 333563
Heartbeat CPU 0 instructions: 370000000 cycles: 590243384 heartbeat IPC: 0.406165 cumulative IPC: 0.397142 (Simulation time: 2 hr 44 min 30 sec) 
 Total Blocks : 524288 Invalid Blocks : 332446
Heartbeat CPU 0 instructions: 380000002 cycles: 615601543 heartbeat IPC: 0.39435 cumulative IPC: 0.396986 (Simulation time: 2 hr 48 min 37 sec) 
 Total Blocks : 524288 Invalid Blocks : 331341
Heartbeat CPU 0 instructions: 390000003 cycles: 640531715 heartbeat IPC: 0.40112 cumulative IPC: 0.397202 (Simulation time: 2 hr 53 min 11 sec) 
 Total Blocks : 524288 Invalid Blocks : 330426
Heartbeat CPU 0 instructions: 400000000 cycles: 665585480 heartbeat IPC: 0.399141 cumulative IPC: 0.397298 (Simulation time: 2 hr 55 min 51 sec) 
 Total Blocks : 524288 Invalid Blocks : 329381
Finished CPU 0 instructions: 200000000 cycles: 503400303 cumulative IPC: 0.397298 (Simulation time: 2 hr 55 min 51 sec) 

CPU 0 Branch Prediction Accuracy: 93.0717% MPKI: 13.9943 Average ROB Occupancy at Mispredict: 54.7316

ChampSim completed all CPUs

Region of Interest Statistics

CPU 0 cumulative IPC: 0.397298 instructions: 200000000 cycles: 503400303
ITLB TOTAL     ACCESS: 30150799  HIT: 30150799  MISS:     0  HIT %:   100  MISS %:     0  AVERAGE MISS PENALTY: 0
ITLB LOAD      ACCESS: 30150799  HIT: 30150799  MISS:     0  HIT %:   100  MISS %:     0  AVERAGE MISS PENALTY: 0
ITLB RFO       ACCESS:     0  HIT:     0  MISS:     0  HIT %:     0  MISS %:     0  AVERAGE MISS PENALTY: 0
ITLB PREFETCH  ACCESS:     0  HIT:     0  MISS:     0  HIT %:     0  MISS %:     0  AVERAGE MISS PENALTY: 0
ITLB WRITEBACK ACCESS:     0  HIT:     0  MISS:     0  HIT %:     0  MISS %:     0  AVERAGE MISS PENALTY: 0
ITLB PREFETCH  REQUESTED:     0  ISSUED:     0  USEFUL:     0  USELESS:     0
 USEFUL LOAD PREFETCHES:          0 PREFETCH ISSUED TO LOWER LEVEL:          0  ACCURACY: -nan
 TIMELY PREFETCHES:          0 LATE PREFETCHES: 0 DROPPED PREFETCHES: 0
ITLB AVERAGE MISS LATENCY: -nan cycles
DTLB TOTAL     ACCESS: 44769434  HIT: 35244061  MISS: 9525373  HIT %: 78.7235  MISS %: 21.2765  AVERAGE MISS PENALTY: 26.5053
DTLB LOAD      ACCESS: 44702865  HIT: 35177492  MISS: 9525373  HIT %: 78.6918  MISS %: 21.3082  AVERAGE MISS PENALTY: 26.5053
DTLB RFO       ACCESS: 66569  HIT: 66569  MISS:     0  HIT %:   100  MISS %:     0  AVERAGE MISS PENALTY: 0
DTLB PREFETCH  ACCESS:     0  HIT:     0  MISS:     0  HIT %:     0  MISS %:     0  AVERAGE MISS PENALTY: 0
DTLB WRITEBACK ACCESS:     0  HIT:     0  MISS:     0  HIT %:     0  MISS %:     0  AVERAGE MISS PENALTY: 0
DTLB PREFETCH  REQUESTED:     0  ISSUED:     0  USEFUL:     0  USELESS:     0
 USEFUL LOAD PREFETCHES:          0 PREFETCH ISSUED TO LOWER LEVEL:          0  ACCURACY: -nan
 TIMELY PREFETCHES:          0 LATE PREFETCHES: 0 DROPPED PREFETCHES: 0
DTLB AVERAGE MISS LATENCY: 9.47867 cycles
STLB TOTAL     ACCESS: 9525372  HIT: 9511019  MISS: 14353  HIT %: 99.8493  MISS %: 0.150682  AVERAGE MISS PENALTY: 100
STLB LOAD      ACCESS: 9525372  HIT: 9511019  MISS: 14353  HIT %: 99.8493  MISS %: 0.150682  AVERAGE MISS PENALTY: 100
STLB RFO       ACCESS:     0  HIT:     0  MISS:     0  HIT %:     0  MISS %:     0  AVERAGE MISS PENALTY: 0
STLB PREFETCH  ACCESS:     0  HIT:     0  MISS:     0  HIT %:     0  MISS %:     0  AVERAGE MISS PENALTY: 0
STLB WRITEBACK ACCESS:     0  HIT:     0  MISS:     0  HIT %:     0  MISS %:     0  AVERAGE MISS PENALTY: 0
STLB PREFETCH  REQUESTED:     0  ISSUED:     0  USEFUL:     0  USELESS:     0
 USEFUL LOAD PREFETCHES:          0 PREFETCH ISSUED TO LOWER LEVEL:          0  ACCURACY: -nan
 TIMELY PREFETCHES:          0 LATE PREFETCHES: 0 DROPPED PREFETCHES: 0
STLB AVERAGE MISS LATENCY: 100 cycles
L1D TOTAL     ACCESS: 115898335  HIT: 55314981  MISS: 60583354  HIT %: 47.7272  MISS %: 52.2728  AVERAGE MISS PENALTY: 1.13177e+06
L1D LOAD      ACCESS: 41821237  HIT: 27772863  MISS: 14048374  HIT %: 66.4085  MISS %: 33.5915  AVERAGE MISS PENALTY: 4.8805e+06
L1D RFO       ACCESS: 66571  HIT: 66571  MISS:     0  HIT %:   100  MISS %:     0  AVERAGE MISS PENALTY: 0
L1D PREFETCH  ACCESS: 74010527  HIT: 27475547  MISS: 46534980  HIT %: 37.1238  MISS %: 62.8762  AVERAGE MISS PENALTY: 74.1766
L1D WRITEBACK ACCESS:     0  HIT:     0  MISS:     0  HIT %:     0  MISS %:     0  AVERAGE MISS PENALTY: 0
L1D PREFETCH  REQUESTED: 119846776  ISSUED: 76131351  USEFUL: 1462984  USELESS: 45071968
 USEFUL LOAD PREFETCHES:    1462984 PREFETCH ISSUED TO LOWER LEVEL:  144864924  ACCURACY: 1.0099
 TIMELY PREFETCHES:    1462984 LATE PREFETCHES: 526953 DROPPED PREFETCHES: 43715425
L1D AVERAGE MISS LATENCY: 42.9817 cycles
L1I TOTAL     ACCESS: 41392997  HIT: 41392997  MISS:     0  HIT %:   100  MISS %:     0  AVERAGE MISS PENALTY: 0
L1I LOAD      ACCESS: 41392997  HIT: 41392997  MISS:     0  HIT %:   100  MISS %:     0  AVERAGE MISS PENALTY: 0
L1I RFO       ACCESS:     0  HIT:     0  MISS:     0  HIT %:     0  MISS %:     0  AVERAGE MISS PENALTY: 0
L1I PREFETCH  ACCESS:     0  HIT:     0  MISS:     0  HIT %:     0  MISS %:     0  AVERAGE MISS PENALTY: 0
L1I WRITEBACK ACCESS:     0  HIT:     0  MISS:     0  HIT %:     0  MISS %:     0  AVERAGE MISS PENALTY: 0
L1I PREFETCH  REQUESTED:     0  ISSUED:     0  USEFUL:     0  USELESS:     0
 USEFUL LOAD PREFETCHES:          0 PREFETCH ISSUED TO LOWER LEVEL:          0  ACCURACY: -nan
 TIMELY PREFETCHES:          0 LATE PREFETCHES: 0 DROPPED PREFETCHES: 0
L1I AVERAGE MISS LATENCY: -nan cycles
L2C TOTAL     ACCESS: 111609282  HIT: 22833789  MISS: 88775493  HIT %: 20.4587  MISS %: 79.5413  AVERAGE MISS PENALTY: 568215
L2C LOAD      ACCESS: 14030740  HIT: 2371453  MISS: 11659287  HIT %: 16.9018  MISS %: 83.0982  AVERAGE MISS PENALTY: 4.32624e+06
L2C RFO       ACCESS:     0  HIT:     0  MISS:     0  HIT %:     0  MISS %:     0  AVERAGE MISS PENALTY: 0
L2C PREFETCH  ACCESS: 97522866  HIT: 20409096  MISS: 77113770  HIT %: 20.9275  MISS %: 79.0725  AVERAGE MISS PENALTY: 35.0365
L2C WRITEBACK ACCESS: 55676  HIT: 53240  MISS:  2436  HIT %: 95.6247  MISS %: 4.37531  AVERAGE MISS PENALTY: 0
L2C PREFETCH  REQUESTED: 209993382  ISSUED: 193163632  USEFUL: 1089234  USELESS: 76024359
 USEFUL LOAD PREFETCHES:    1089234 PREFETCH ISSUED TO LOWER LEVEL:   81885237  ACCURACY: 1.3302
 TIMELY PREFETCHES:    1089234 LATE PREFETCHES: 918146 DROPPED PREFETCHES: 16829750
L2C AVERAGE MISS LATENCY: 34.9273 cycles
LLC0 TOTAL     ACCESS: 11368593  HIT: 11253690  MISS: 114903  HIT %: 98.9893  MISS %: 1.01071  AVERAGE MISS PENALTY: 80.9051
LLC0 LOAD      ACCESS: 1475791  HIT: 1461426  MISS: 14365  HIT %: 99.0266  MISS %: 0.973376  AVERAGE MISS PENALTY: 84.1089
LLC0 RFO       ACCESS:     0  HIT:     0  MISS:     0  HIT %:     0  MISS %:     0  AVERAGE MISS PENALTY: 0
LLC0 PREFETCH  ACCESS: 9885801  HIT: 9785263  MISS: 100538  HIT %: 98.983  MISS %: 1.01699  AVERAGE MISS PENALTY: 80.4473
LLC0 WRITEBACK ACCESS:  7001  HIT:  7001  MISS:     0  HIT %:   100  MISS %:     0  AVERAGE MISS PENALTY: 0
LLC0 PREFETCH  REQUESTED:     0  ISSUED:     0  USEFUL:   406  USELESS: 98302
 USEFUL LOAD PREFETCHES:        406 PREFETCH ISSUED TO LOWER LEVEL:     100538  ACCURACY: 0.403827
 TIMELY PREFETCHES:        406 LATE PREFETCHES: 0 DROPPED PREFETCHES: 0
LLC0 AVERAGE MISS LATENCY: 80.9051 cycles
Deadblocks : 14268 Deadblock percentage : 99.3247

LLC1 TOTAL     ACCESS: 11341224  HIT: 11226268  MISS: 114956  HIT %: 98.9864  MISS %: 1.01361  AVERAGE MISS PENALTY: 81.2648
LLC1 LOAD      ACCESS: 1468457  HIT: 1468099  MISS:   358  HIT %: 99.9756  MISS %: 0.0243793  AVERAGE MISS PENALTY: 87.6871
LLC1 RFO       ACCESS:     0  HIT:     0  MISS:     0  HIT %:     0  MISS %:     0  AVERAGE MISS PENALTY: 0
LLC1 PREFETCH  ACCESS: 9865781  HIT: 9751183  MISS: 114598  HIT %: 98.8384  MISS %: 1.16157  AVERAGE MISS PENALTY: 81.2448
LLC1 WRITEBACK ACCESS:  6986  HIT:  6986  MISS:     0  HIT %:   100  MISS %:     0  AVERAGE MISS PENALTY: 0
LLC1 PREFETCH  REQUESTED:     0  ISSUED:     0  USEFUL:   498  USELESS: 111756
 USEFUL LOAD PREFETCHES:        498 PREFETCH ISSUED TO LOWER LEVEL:     114598  ACCURACY: 0.434563
 TIMELY PREFETCHES:        498 LATE PREFETCHES: 0 DROPPED PREFETCHES: 0
LLC1 AVERAGE MISS LATENCY: 81.2648 cycles
LLC2 TOTAL     ACCESS: 11300294  HIT: 11185276  MISS: 115018  HIT %: 98.9822  MISS %: 1.01783  AVERAGE MISS PENALTY: 82.2642
LLC2 LOAD      ACCESS: 1441977  HIT: 1441948  MISS:    29  HIT %: 99.998  MISS %: 0.00201113  AVERAGE MISS PENALTY: 171.241
LLC2 RFO       ACCESS:     0  HIT:     0  MISS:     0  HIT %:     0  MISS %:     0  AVERAGE MISS PENALTY: 0
LLC2 PREFETCH  ACCESS: 9851295  HIT: 9736306  MISS: 114989  HIT %: 98.8328  MISS %: 1.16725  AVERAGE MISS PENALTY: 82.2417
LLC2 WRITEBACK ACCESS:  7022  HIT:  7022  MISS:     0  HIT %:   100  MISS %:     0  AVERAGE MISS PENALTY: 0
LLC2 PREFETCH  REQUESTED:     0  ISSUED:     0  USEFUL:   545  USELESS: 112189
 USEFUL LOAD PREFETCHES:        545 PREFETCH ISSUED TO LOWER LEVEL:     114989  ACCURACY: 0.473958
 TIMELY PREFETCHES:        545 LATE PREFETCHES: 0 DROPPED PREFETCHES: 0
LLC2 AVERAGE MISS LATENCY: 82.2642 cycles
LLC3 TOTAL     ACCESS: 11234484  HIT: 11119217  MISS: 115267  HIT %: 98.974  MISS %: 1.02601  AVERAGE MISS PENALTY: 83.7799
LLC3 LOAD      ACCESS: 1430333  HIT: 1430285  MISS:    48  HIT %: 99.9966  MISS %: 0.00335586  AVERAGE MISS PENALTY: 177.854
LLC3 RFO       ACCESS:     0  HIT:     0  MISS:     0  HIT %:     0  MISS %:     0  AVERAGE MISS PENALTY: 0
LLC3 PREFETCH  ACCESS: 9797324  HIT: 9682105  MISS: 115219  HIT %: 98.824  MISS %: 1.17603  AVERAGE MISS PENALTY: 83.7407
LLC3 WRITEBACK ACCESS:  6827  HIT:  6827  MISS:     0  HIT %:   100  MISS %:     0  AVERAGE MISS PENALTY: 0
LLC3 PREFETCH  REQUESTED:     0  ISSUED:     0  USEFUL:   811  USELESS: 111773
 USEFUL LOAD PREFETCHES:        811 PREFETCH ISSUED TO LOWER LEVEL:     115219  ACCURACY: 0.703877
 TIMELY PREFETCHES:        811 LATE PREFETCHES: 0 DROPPED PREFETCHES: 0
LLC3 AVERAGE MISS LATENCY: 83.7799 cycles
LLC4 TOTAL     ACCESS: 11161578  HIT: 11046141  MISS: 115437  HIT %: 98.9658  MISS %: 1.03424  AVERAGE MISS PENALTY: 84.6886
LLC4 LOAD      ACCESS: 1469256  HIT: 1469182  MISS:    74  HIT %: 99.995  MISS %: 0.00503656  AVERAGE MISS PENALTY: 172.595
LLC4 RFO       ACCESS:     0  HIT:     0  MISS:     0  HIT %:     0  MISS %:     0  AVERAGE MISS PENALTY: 0
LLC4 PREFETCH  ACCESS: 9685337  HIT: 9569975  MISS: 115362  HIT %: 98.8089  MISS %: 1.1911  AVERAGE MISS PENALTY: 84.633
LLC4 WRITEBACK ACCESS:  6985  HIT:  6984  MISS:     1  HIT %: 99.9857  MISS %: 0.0143164  AVERAGE MISS PENALTY: 0
LLC4 PREFETCH  REQUESTED:     0  ISSUED:     0  USEFUL:   934  USELESS: 111346
 USEFUL LOAD PREFETCHES:        934 PREFETCH ISSUED TO LOWER LEVEL:     115362  ACCURACY: 0.809625
 TIMELY PREFETCHES:        934 LATE PREFETCHES: 0 DROPPED PREFETCHES: 0
LLC4 AVERAGE MISS LATENCY: 84.6886 cycles
LLC5 TOTAL     ACCESS: 11007920  HIT: 10892204  MISS: 115716  HIT %: 98.9488  MISS %: 1.05121  AVERAGE MISS PENALTY: 85.4293
LLC5 LOAD      ACCESS: 1464970  HIT: 1464861  MISS:   109  HIT %: 99.9926  MISS %: 0.00744043  AVERAGE MISS PENALTY: 169.294
LLC5 RFO       ACCESS:     0  HIT:     0  MISS:     0  HIT %:     0  MISS %:     0  AVERAGE MISS PENALTY: 0
LLC5 PREFETCH  ACCESS: 9536078  HIT: 9420471  MISS: 115607  HIT %: 98.7877  MISS %: 1.21231  AVERAGE MISS PENALTY: 85.3502
LLC5 WRITEBACK ACCESS:  6872  HIT:  6872  MISS:     0  HIT %:   100  MISS %:     0  AVERAGE MISS PENALTY: 0
LLC5 PREFETCH  REQUESTED:     0  ISSUED:     0  USEFUL:  1133  USELESS: 110996
 USEFUL LOAD PREFETCHES:       1133 PREFETCH ISSUED TO LOWER LEVEL:     115607  ACCURACY: 0.980044
 TIMELY PREFETCHES:       1133 LATE PREFETCHES: 0 DROPPED PREFETCHES: 0
LLC5 AVERAGE MISS LATENCY: 85.4293 cycles
LLC6 TOTAL     ACCESS: 10810977  HIT: 10695411  MISS: 115566  HIT %: 98.931  MISS %: 1.06897  AVERAGE MISS PENALTY: 85.825
LLC6 LOAD      ACCESS: 1449971  HIT: 1449884  MISS:    87  HIT %: 99.994  MISS %: 0.00600012  AVERAGE MISS PENALTY: 174.736
LLC6 RFO       ACCESS:     0  HIT:     0  MISS:     0  HIT %:     0  MISS %:     0  AVERAGE MISS PENALTY: 0
LLC6 PREFETCH  ACCESS: 9353962  HIT: 9238483  MISS: 115479  HIT %: 98.7655  MISS %: 1.23455  AVERAGE MISS PENALTY: 85.758
LLC6 WRITEBACK ACCESS:  7044  HIT:  7044  MISS:     0  HIT %:   100  MISS %:     0  AVERAGE MISS PENALTY: 0
LLC6 PREFETCH  REQUESTED:     0  ISSUED:     0  USEFUL:   981  USELESS: 110917
 USEFUL LOAD PREFETCHES:        981 PREFETCH ISSUED TO LOWER LEVEL:     115479  ACCURACY: 0.849505
 TIMELY PREFETCHES:        981 LATE PREFETCHES: 0 DROPPED PREFETCHES: 0
LLC6 AVERAGE MISS LATENCY: 85.825 cycles
LLC7 TOTAL     ACCESS: 10603659  HIT: 10488085  MISS: 115574  HIT %: 98.9101  MISS %: 1.08994  AVERAGE MISS PENALTY: 85.9371
LLC7 LOAD      ACCESS: 1438354  HIT: 1438239  MISS:   115  HIT %: 99.992  MISS %: 0.00799525  AVERAGE MISS PENALTY: 173.852
LLC7 RFO       ACCESS:     0  HIT:     0  MISS:     0  HIT %:     0  MISS %:     0  AVERAGE MISS PENALTY: 0
LLC7 PREFETCH  ACCESS: 9158366  HIT: 9042907  MISS: 115459  HIT %: 98.7393  MISS %: 1.26069  AVERAGE MISS PENALTY: 85.8495
LLC7 WRITEBACK ACCESS:  6939  HIT:  6939  MISS:     0  HIT %:   100  MISS %:     0  AVERAGE MISS PENALTY: 0
LLC7 PREFETCH  REQUESTED:     0  ISSUED:     0  USEFUL:   965  USELESS: 111066
 USEFUL LOAD PREFETCHES:        965 PREFETCH ISSUED TO LOWER LEVEL:     115459  ACCURACY: 0.835795
 TIMELY PREFETCHES:        965 LATE PREFETCHES: 0 DROPPED PREFETCHES: 0
LLC7 AVERAGE MISS LATENCY: 85.9371 cycles
ROI Average ROB Stall Cycles:	5.76798
ROI Total ROB Stalls Cycles:	425421936
ROI TOTAL ROB counter      :	73755777
ROI Average Load ROB Stall Cycles:	16.908
ROI Total Load ROB Stalls Cycle  :	100827775
ROI Total Load ROB stalls Counter:	5963324
Major fault: 0 Minor fault: 29430

