
*** ChampSim Multicore Out-of-Order Simulator ***

Warmup Instructions: 200000000
Simulation Instructions: 200000000
Number of CPUs: 1
threads:1

L1I Configuration:
L1I_SET:64
L1I_WAY:8
L1I_RQ_SIZE:64
L1I_WQ_SIZE:64
L1I_PQ_SIZE:8
L1I_MSHR_SIZE:8

L1D Configuration:
L1D_SET:64
L1D_WAY:12
L1D_RQ_SIZE:64
L1D_WQ_SIZE:64
L1D_PQ_SIZE:8
L1D_MSHR_SIZE:16

L2C Configuration:
L2C_SET:1024
L2C_WAY:8
L2C_RQ_SIZE:32
L2C_WQ_SIZE:32
L2C_PQ_SIZE:16
L2C_MSHR_SIZE:32

LLC Configuration:
LLC_SET:2048
LLC_WAY:16
LLC SLICES:8
LLC_RQ_SIZE:64
LLC_WQ_SIZE:64
LLC_PQ_SIZE:32
LLC_MSHR_SIZE:64

Interconnect OFF
Attacker deprioritize is: OFF
Off-chip DRAM Size: 4096 MB Channels: 1 Width: 64-bit Data Rate: 3200 MT/s
PAGE SIZE in KB: 4.000000 
PAGE SIZE in MB: 0.003906 
PAGE offset in bits: 12 
CEASER-S_LLC:0
MIRAGE : 0
CEASER_LATENCY:3
REMAP : OFF
Partitions : 1
Multi-Step : OFF
BFS : OFF

CPU 0 runs /home/anubhav/gap/pr-3.trace.gz
CPU 0 Bimodal branch predictor
Initialize Hawkeye state
Initialize Hawkeye state
Initialize Hawkeye state
Initialize Hawkeye state
Initialize Hawkeye state
Initialize Hawkeye state
Initialize Hawkeye state
Initialize Hawkeye state
Heartbeat CPU 0 instructions: 10000001 cycles: 3641882 heartbeat IPC: 2.74583 cumulative IPC: 2.74583 (Simulation time: 0 hr 1 min 0 sec) 
 Total Blocks : 262144 Invalid Blocks : 120847
Heartbeat CPU 0 instructions: 20000001 cycles: 12552498 heartbeat IPC: 1.12226 cumulative IPC: 1.59331 (Simulation time: 0 hr 2 min 24 sec) 
 Total Blocks : 262144 Invalid Blocks : 60536
Heartbeat CPU 0 instructions: 30000000 cycles: 23341750 heartbeat IPC: 0.926848 cumulative IPC: 1.28525 (Simulation time: 0 hr 4 min 29 sec) 
 Total Blocks : 262144 Invalid Blocks : 44728
Heartbeat CPU 0 instructions: 40000000 cycles: 34360373 heartbeat IPC: 0.907554 cumulative IPC: 1.16413 (Simulation time: 0 hr 6 min 43 sec) 
 Total Blocks : 262144 Invalid Blocks : 36052
Heartbeat CPU 0 instructions: 50000000 cycles: 45403928 heartbeat IPC: 0.905506 cumulative IPC: 1.10123 (Simulation time: 0 hr 8 min 58 sec) 
 Total Blocks : 262144 Invalid Blocks : 29667
Heartbeat CPU 0 instructions: 60000002 cycles: 56204295 heartbeat IPC: 0.925895 cumulative IPC: 1.06753 (Simulation time: 0 hr 11 min 12 sec) 
 Total Blocks : 262144 Invalid Blocks : 24927
Heartbeat CPU 0 instructions: 70000000 cycles: 67175621 heartbeat IPC: 0.911467 cumulative IPC: 1.04204 (Simulation time: 0 hr 13 min 29 sec) 
 Total Blocks : 262144 Invalid Blocks : 20203
Heartbeat CPU 0 instructions: 80000002 cycles: 78196010 heartbeat IPC: 0.907409 cumulative IPC: 1.02307 (Simulation time: 0 hr 15 min 48 sec) 
 Total Blocks : 262144 Invalid Blocks : 17113
Heartbeat CPU 0 instructions: 90000000 cycles: 89190813 heartbeat IPC: 0.90952 cumulative IPC: 1.00907 (Simulation time: 0 hr 18 min 10 sec) 
 Total Blocks : 262144 Invalid Blocks : 13961
Heartbeat CPU 0 instructions: 100000001 cycles: 100202707 heartbeat IPC: 0.908109 cumulative IPC: 0.997977 (Simulation time: 0 hr 20 min 40 sec) 
 Total Blocks : 262144 Invalid Blocks : 11560
Heartbeat CPU 0 instructions: 110000000 cycles: 111165374 heartbeat IPC: 0.912187 cumulative IPC: 0.989517 (Simulation time: 0 hr 23 min 10 sec) 
 Total Blocks : 262144 Invalid Blocks : 9241
Heartbeat CPU 0 instructions: 120000000 cycles: 122118223 heartbeat IPC: 0.913004 cumulative IPC: 0.982654 (Simulation time: 0 hr 25 min 40 sec) 
 Total Blocks : 262144 Invalid Blocks : 7590
Heartbeat CPU 0 instructions: 130000000 cycles: 133092511 heartbeat IPC: 0.911221 cumulative IPC: 0.976764 (Simulation time: 0 hr 28 min 6 sec) 
 Total Blocks : 262144 Invalid Blocks : 5900
Heartbeat CPU 0 instructions: 140000001 cycles: 144128963 heartbeat IPC: 0.906088 cumulative IPC: 0.971352 (Simulation time: 0 hr 30 min 34 sec) 
 Total Blocks : 262144 Invalid Blocks : 4996
Heartbeat CPU 0 instructions: 150000000 cycles: 155122871 heartbeat IPC: 0.909595 cumulative IPC: 0.966975 (Simulation time: 0 hr 33 min 3 sec) 
 Total Blocks : 262144 Invalid Blocks : 4114
Heartbeat CPU 0 instructions: 160000001 cycles: 166162417 heartbeat IPC: 0.905834 cumulative IPC: 0.962913 (Simulation time: 0 hr 35 min 33 sec) 
 Total Blocks : 262144 Invalid Blocks : 3394
Heartbeat CPU 0 instructions: 170000002 cycles: 177176304 heartbeat IPC: 0.907945 cumulative IPC: 0.959496 (Simulation time: 0 hr 38 min 8 sec) 
 Total Blocks : 262144 Invalid Blocks : 2771
Heartbeat CPU 0 instructions: 180000001 cycles: 188287889 heartbeat IPC: 0.899962 cumulative IPC: 0.955983 (Simulation time: 0 hr 40 min 49 sec) 
 Total Blocks : 262144 Invalid Blocks : 2253
Heartbeat CPU 0 instructions: 190000002 cycles: 197133974 heartbeat IPC: 1.13044 cumulative IPC: 0.963812 (Simulation time: 0 hr 43 min 0 sec) 
 Total Blocks : 262144 Invalid Blocks : 1625
Heartbeat CPU 0 instructions: 200000000 cycles: 201903600 heartbeat IPC: 2.0966 cumulative IPC: 0.990572 (Simulation time: 0 hr 44 min 10 sec) 
 Total Blocks : 262144 Invalid Blocks : 980

Warmup complete CPU 0 instructions: 200000001 cycles: 201903601 (Simulation time: 0 hr 44 min 10 sec) 

Heartbeat CPU 0 instructions: 210000002 cycles: 326858457 heartbeat IPC: 0.0800289 cumulative IPC: 0.0800289 (Simulation time: 0 hr 53 min 44 sec) 
 Total Blocks : 262144 Invalid Blocks : 761
Heartbeat CPU 0 instructions: 220000000 cycles: 450637360 heartbeat IPC: 0.0807892 cumulative IPC: 0.0804073 (Simulation time: 1 hr 3 min 7 sec) 
 Total Blocks : 262144 Invalid Blocks : 613
Heartbeat CPU 0 instructions: 230000003 cycles: 577012290 heartbeat IPC: 0.0791296 cumulative IPC: 0.0799768 (Simulation time: 1 hr 12 min 29 sec) 
 Total Blocks : 262144 Invalid Blocks : 487
Heartbeat CPU 0 instructions: 240000002 cycles: 701431179 heartbeat IPC: 0.0803736 cumulative IPC: 0.0800757 (Simulation time: 1 hr 21 min 31 sec) 
 Total Blocks : 262144 Invalid Blocks : 392
Heartbeat CPU 0 instructions: 250000000 cycles: 823190284 heartbeat IPC: 0.0821294 cumulative IPC: 0.0804781 (Simulation time: 1 hr 29 min 48 sec) 
 Total Blocks : 262144 Invalid Blocks : 318
Heartbeat CPU 0 instructions: 260000001 cycles: 946339398 heartbeat IPC: 0.0812024 cumulative IPC: 0.080598 (Simulation time: 1 hr 37 min 35 sec) 
 Total Blocks : 262144 Invalid Blocks : 246
Heartbeat CPU 0 instructions: 270000000 cycles: 1071532181 heartbeat IPC: 0.0798768 cumulative IPC: 0.0804941 (Simulation time: 1 hr 44 min 55 sec) 
 Total Blocks : 262144 Invalid Blocks : 191
Heartbeat CPU 0 instructions: 280000002 cycles: 1196120368 heartbeat IPC: 0.0802644 cumulative IPC: 0.0804654 (Simulation time: 1 hr 52 min 9 sec) 
 Total Blocks : 262144 Invalid Blocks : 157
Heartbeat CPU 0 instructions: 290000002 cycles: 1318403698 heartbeat IPC: 0.0817773 cumulative IPC: 0.080609 (Simulation time: 1 hr 59 min 16 sec) 
 Total Blocks : 262144 Invalid Blocks : 129
Heartbeat CPU 0 instructions: 300000002 cycles: 1444644620 heartbeat IPC: 0.0792136 cumulative IPC: 0.0804673 (Simulation time: 2 hr 6 min 34 sec) 
 Total Blocks : 262144 Invalid Blocks : 103
Heartbeat CPU 0 instructions: 310000000 cycles: 1568657533 heartbeat IPC: 0.0806367 cumulative IPC: 0.0804827 (Simulation time: 2 hr 13 min 46 sec) 
 Total Blocks : 262144 Invalid Blocks : 85
Heartbeat CPU 0 instructions: 320000000 cycles: 1692810883 heartbeat IPC: 0.0805456 cumulative IPC: 0.0804879 (Simulation time: 2 hr 20 min 58 sec) 
 Total Blocks : 262144 Invalid Blocks : 76
Heartbeat CPU 0 instructions: 330000000 cycles: 1816009530 heartbeat IPC: 0.0811697 cumulative IPC: 0.0805399 (Simulation time: 2 hr 28 min 8 sec) 
 Total Blocks : 262144 Invalid Blocks : 62
Heartbeat CPU 0 instructions: 340000000 cycles: 1941725888 heartbeat IPC: 0.0795441 cumulative IPC: 0.080468 (Simulation time: 2 hr 35 min 24 sec) 
 Total Blocks : 262144 Invalid Blocks : 52
Heartbeat CPU 0 instructions: 350000003 cycles: 2066846971 heartbeat IPC: 0.0799226 cumulative IPC: 0.0804314 (Simulation time: 2 hr 42 min 39 sec) 
 Total Blocks : 262144 Invalid Blocks : 42
Heartbeat CPU 0 instructions: 360000000 cycles: 2192146544 heartbeat IPC: 0.0798087 cumulative IPC: 0.0803922 (Simulation time: 2 hr 49 min 55 sec) 
 Total Blocks : 262144 Invalid Blocks : 37
Heartbeat CPU 0 instructions: 370000001 cycles: 2317543775 heartbeat IPC: 0.0797466 cumulative IPC: 0.0803539 (Simulation time: 2 hr 57 min 11 sec) 
 Total Blocks : 262144 Invalid Blocks : 28
Heartbeat CPU 0 instructions: 380000002 cycles: 2372795202 heartbeat IPC: 0.180991 cumulative IPC: 0.0829152 (Simulation time: 3 hr 0 min 42 sec) 
 Total Blocks : 262144 Invalid Blocks : 18
Heartbeat CPU 0 instructions: 390000000 cycles: 2431549847 heartbeat IPC: 0.170199 cumulative IPC: 0.0852153 (Simulation time: 3 hr 4 min 25 sec) 
 Total Blocks : 262144 Invalid Blocks : 11
Heartbeat CPU 0 instructions: 400000001 cycles: 2555851991 heartbeat IPC: 0.0804491 cumulative IPC: 0.0849636 (Simulation time: 3 hr 11 min 37 sec) 
 Total Blocks : 262144 Invalid Blocks : 9
Finished CPU 0 instructions: 200000000 cycles: 2353948390 cumulative IPC: 0.0849636 (Simulation time: 3 hr 11 min 37 sec) 

CPU 0 Branch Prediction Accuracy: 96.43% MPKI: 6.60878 Average ROB Occupancy at Mispredict: 145.696

ChampSim completed all CPUs

Region of Interest Statistics

CPU 0 cumulative IPC: 0.0849636 instructions: 200000000 cycles: 2353948390
ITLB TOTAL     ACCESS: 34108489  HIT: 34108489  MISS:     0  HIT %:   100  MISS %:     0  AVERAGE MISS PENALTY: 0
ITLB LOAD      ACCESS: 34108489  HIT: 34108489  MISS:     0  HIT %:   100  MISS %:     0  AVERAGE MISS PENALTY: 0
ITLB RFO       ACCESS:     0  HIT:     0  MISS:     0  HIT %:     0  MISS %:     0  AVERAGE MISS PENALTY: 0
ITLB PREFETCH  ACCESS:     0  HIT:     0  MISS:     0  HIT %:     0  MISS %:     0  AVERAGE MISS PENALTY: 0
ITLB WRITEBACK ACCESS:     0  HIT:     0  MISS:     0  HIT %:     0  MISS %:     0  AVERAGE MISS PENALTY: 0
ITLB PREFETCH  REQUESTED:     0  ISSUED:     0  USEFUL:     0  USELESS:     0
 USEFUL LOAD PREFETCHES:          0 PREFETCH ISSUED TO LOWER LEVEL:          0  ACCURACY: -nan
 TIMELY PREFETCHES:          0 LATE PREFETCHES: 0 DROPPED PREFETCHES: 0
ITLB AVERAGE MISS LATENCY: -nan cycles
DTLB TOTAL     ACCESS: 78328034  HIT: 55401282  MISS: 22926752  HIT %: 70.7298  MISS %: 29.2702  AVERAGE MISS PENALTY: 9.18697
DTLB LOAD      ACCESS: 75588339  HIT: 52666526  MISS: 22921813  HIT %: 69.6755  MISS %: 30.3245  AVERAGE MISS PENALTY: 9.18362
DTLB RFO       ACCESS: 2739695  HIT: 2734756  MISS:  4939  HIT %: 99.8197  MISS %: 0.180276  AVERAGE MISS PENALTY: 24.772
DTLB PREFETCH  ACCESS:     0  HIT:     0  MISS:     0  HIT %:     0  MISS %:     0  AVERAGE MISS PENALTY: 0
DTLB WRITEBACK ACCESS:     0  HIT:     0  MISS:     0  HIT %:     0  MISS %:     0  AVERAGE MISS PENALTY: 0
DTLB PREFETCH  REQUESTED:     0  ISSUED:     0  USEFUL:     0  USELESS:     0
 USEFUL LOAD PREFETCHES:          0 PREFETCH ISSUED TO LOWER LEVEL:          0  ACCURACY: -nan
 TIMELY PREFETCHES:          0 LATE PREFETCHES: 0 DROPPED PREFETCHES: 0
DTLB AVERAGE MISS LATENCY: 9.18697 cycles
STLB TOTAL     ACCESS: 22926752  HIT: 22885936  MISS: 40816  HIT %: 99.822  MISS %: 0.178028  AVERAGE MISS PENALTY: 100
STLB LOAD      ACCESS: 22921813  HIT: 22881774  MISS: 40039  HIT %: 99.8253  MISS %: 0.174676  AVERAGE MISS PENALTY: 100
STLB RFO       ACCESS:  4939  HIT:  4162  MISS:   777  HIT %: 84.2681  MISS %: 15.7319  AVERAGE MISS PENALTY: 100
STLB PREFETCH  ACCESS:     0  HIT:     0  MISS:     0  HIT %:     0  MISS %:     0  AVERAGE MISS PENALTY: 0
STLB WRITEBACK ACCESS:     0  HIT:     0  MISS:     0  HIT %:     0  MISS %:     0  AVERAGE MISS PENALTY: 0
STLB PREFETCH  REQUESTED:     0  ISSUED:     0  USEFUL:     0  USELESS:     0
 USEFUL LOAD PREFETCHES:          0 PREFETCH ISSUED TO LOWER LEVEL:          0  ACCURACY: -nan
 TIMELY PREFETCHES:          0 LATE PREFETCHES: 0 DROPPED PREFETCHES: 0
STLB AVERAGE MISS LATENCY: 100 cycles
L1D TOTAL     ACCESS: 258261256  HIT: 48346718  MISS: 209914538  HIT %: 18.7201  MISS %: 81.2799  AVERAGE MISS PENALTY: 4.31881e+06
L1D LOAD      ACCESS: 66605829  HIT: 34924320  MISS: 31681509  HIT %: 52.4343  MISS %: 47.5657  AVERAGE MISS PENALTY: 2.8615e+07
L1D RFO       ACCESS: 2881606  HIT: 2816046  MISS: 65560  HIT %: 97.7249  MISS %: 2.27512  AVERAGE MISS PENALTY: 59.5701
L1D PREFETCH  ACCESS: 188773821  HIT: 10606352  MISS: 178167469  HIT %: 5.61855  MISS %: 94.3814  AVERAGE MISS PENALTY: 70.7578
L1D WRITEBACK ACCESS:     0  HIT:     0  MISS:     0  HIT %:     0  MISS %:     0  AVERAGE MISS PENALTY: 0
L1D PREFETCH  REQUESTED: 193818605  ISSUED: 192843194  USEFUL: 4163691  USELESS: 174003743
 USEFUL LOAD PREFETCHES:    4163691 PREFETCH ISSUED TO LOWER LEVEL:  182027537  ACCURACY: 2.2874
 TIMELY PREFETCHES:    4163691 LATE PREFETCHES: 664580 DROPPED PREFETCHES: 975411
L1D AVERAGE MISS LATENCY: 52.4288 cycles
L1I TOTAL     ACCESS: 35854818  HIT: 35854805  MISS:    13  HIT %:   100  MISS %: 3.62573e-05  AVERAGE MISS PENALTY: 133.692
L1I LOAD      ACCESS: 35854818  HIT: 35854805  MISS:    13  HIT %:   100  MISS %: 3.62573e-05  AVERAGE MISS PENALTY: 133.692
L1I RFO       ACCESS:     0  HIT:     0  MISS:     0  HIT %:     0  MISS %:     0  AVERAGE MISS PENALTY: 0
L1I PREFETCH  ACCESS:     0  HIT:     0  MISS:     0  HIT %:     0  MISS %:     0  AVERAGE MISS PENALTY: 0
L1I WRITEBACK ACCESS:     0  HIT:     0  MISS:     0  HIT %:     0  MISS %:     0  AVERAGE MISS PENALTY: 0
L1I PREFETCH  REQUESTED:     0  ISSUED:     0  USEFUL:     0  USELESS:     0
 USEFUL LOAD PREFETCHES:          0 PREFETCH ISSUED TO LOWER LEVEL:          0  ACCURACY: -nan
 TIMELY PREFETCHES:          0 LATE PREFETCHES: 0 DROPPED PREFETCHES: 0
L1I AVERAGE MISS LATENCY: 133.692 cycles
L2C TOTAL     ACCESS: 351487215  HIT: 24860774  MISS: 326626441  HIT %: 7.07302  MISS %: 92.927  AVERAGE MISS PENALTY: 2.31683e+06
L2C LOAD      ACCESS: 31579509  HIT: 1816467  MISS: 29763042  HIT %: 5.75204  MISS %: 94.248  AVERAGE MISS PENALTY: 2.5425e+07
L2C RFO       ACCESS: 65560  HIT:    89  MISS: 65471  HIT %: 0.135754  MISS %: 99.8642  AVERAGE MISS PENALTY: 41.7704
L2C PREFETCH  ACCESS: 319604828  HIT: 22806952  MISS: 296797876  HIT %: 7.13598  MISS %: 92.864  AVERAGE MISS PENALTY: 40.84
L2C WRITEBACK ACCESS: 237318  HIT: 237266  MISS:    52  HIT %: 99.9781  MISS %: 0.0219115  AVERAGE MISS PENALTY: 0
L2C PREFETCH  REQUESTED: 786386707  ISSUED: 786370735  USEFUL: 1364756  USELESS: 295432311
 USEFUL LOAD PREFETCHES:    1364756 PREFETCH ISSUED TO LOWER LEVEL:  300682562  ACCURACY: 0.453886
 TIMELY PREFETCHES:    1364756 LATE PREFETCHES: 680634 DROPPED PREFETCHES: 15972
L2C AVERAGE MISS LATENCY: 39.4079 cycles
LLC0 TOTAL     ACCESS: 41986482  HIT: 41148217  MISS: 838265  HIT %: 98.0035  MISS %: 1.99651  AVERAGE MISS PENALTY: 165.731
LLC0 LOAD      ACCESS: 3740766  HIT: 3656863  MISS: 83903  HIT %: 97.7571  MISS %: 2.24294  AVERAGE MISS PENALTY: 171.692
LLC0 RFO       ACCESS:  8187  HIT:  7965  MISS:   222  HIT %: 97.2884  MISS %: 2.71162  AVERAGE MISS PENALTY: 142.608
LLC0 PREFETCH  ACCESS: 38220515  HIT: 37466398  MISS: 754117  HIT %: 98.0269  MISS %: 1.97307  AVERAGE MISS PENALTY: 165.08
LLC0 WRITEBACK ACCESS: 17014  HIT: 16991  MISS:    23  HIT %: 99.8648  MISS %: 0.135183  AVERAGE MISS PENALTY: 0
LLC0 PREFETCH  REQUESTED:     0  ISSUED:     0  USEFUL: 255560  USELESS: 497335
 USEFUL LOAD PREFETCHES:     255560 PREFETCH ISSUED TO LOWER LEVEL:     754117  ACCURACY: 33.8886
 TIMELY PREFETCHES:     255560 LATE PREFETCHES: 0 DROPPED PREFETCHES: 0
LLC0 AVERAGE MISS LATENCY: 165.731 cycles
Deadblocks : 56633 Deadblock percentage : 67.4982

LLC1 TOTAL     ACCESS: 42113678  HIT: 41169631  MISS: 944047  HIT %: 97.7583  MISS %: 2.24166  AVERAGE MISS PENALTY: 167.916
LLC1 LOAD      ACCESS: 3822098  HIT: 3763042  MISS: 59056  HIT %: 98.4549  MISS %: 1.54512  AVERAGE MISS PENALTY: 173.005
LLC1 RFO       ACCESS:  8187  HIT:  7920  MISS:   267  HIT %: 96.7387  MISS %: 3.26127  AVERAGE MISS PENALTY: 150.386
LLC1 PREFETCH  ACCESS: 38266381  HIT: 37381666  MISS: 884715  HIT %: 97.688  MISS %: 2.31199  AVERAGE MISS PENALTY: 167.583
LLC1 WRITEBACK ACCESS: 17012  HIT: 17003  MISS:     9  HIT %: 99.9471  MISS %: 0.0529038  AVERAGE MISS PENALTY: 0
LLC1 PREFETCH  REQUESTED:     0  ISSUED:     0  USEFUL: 289091  USELESS: 594406
 USEFUL LOAD PREFETCHES:     289091 PREFETCH ISSUED TO LOWER LEVEL:     884715  ACCURACY: 32.6762
 TIMELY PREFETCHES:     289091 LATE PREFETCHES: 0 DROPPED PREFETCHES: 0
LLC1 AVERAGE MISS LATENCY: 167.916 cycles
LLC2 TOTAL     ACCESS: 41596894  HIT: 40504402  MISS: 1092492  HIT %: 97.3736  MISS %: 2.62638  AVERAGE MISS PENALTY: 169.546
LLC2 LOAD      ACCESS: 3583018  HIT: 3516783  MISS: 66235  HIT %: 98.1514  MISS %: 1.84858  AVERAGE MISS PENALTY: 170.088
LLC2 RFO       ACCESS:  8185  HIT:  7852  MISS:   333  HIT %: 95.9316  MISS %: 4.06842  AVERAGE MISS PENALTY: 151.162
LLC2 PREFETCH  ACCESS: 37988676  HIT: 36962761  MISS: 1025915  HIT %: 97.2994  MISS %: 2.70058  AVERAGE MISS PENALTY: 169.518
LLC2 WRITEBACK ACCESS: 17015  HIT: 17006  MISS:     9  HIT %: 99.9471  MISS %: 0.0528945  AVERAGE MISS PENALTY: 0
LLC2 PREFETCH  REQUESTED:     0  ISSUED:     0  USEFUL: 327263  USELESS: 697069
 USEFUL LOAD PREFETCHES:     327263 PREFETCH ISSUED TO LOWER LEVEL:    1025915  ACCURACY: 31.8996
 TIMELY PREFETCHES:     327263 LATE PREFETCHES: 0 DROPPED PREFETCHES: 0
LLC2 AVERAGE MISS LATENCY: 169.546 cycles
LLC3 TOTAL     ACCESS: 41078953  HIT: 39836744  MISS: 1242209  HIT %: 96.976  MISS %: 3.02395  AVERAGE MISS PENALTY: 170.345
LLC3 LOAD      ACCESS: 3766194  HIT: 3685498  MISS: 80696  HIT %: 97.8574  MISS %: 2.14264  AVERAGE MISS PENALTY: 169.784
LLC3 RFO       ACCESS:  8184  HIT:  7772  MISS:   412  HIT %: 94.9658  MISS %: 5.03421  AVERAGE MISS PENALTY: 152.386
LLC3 PREFETCH  ACCESS: 37287562  HIT: 36126471  MISS: 1161091  HIT %: 96.8861  MISS %: 3.11388  AVERAGE MISS PENALTY: 170.392
LLC3 WRITEBACK ACCESS: 17013  HIT: 17003  MISS:    10  HIT %: 99.9412  MISS %: 0.0587786  AVERAGE MISS PENALTY: 0
LLC3 PREFETCH  REQUESTED:     0  ISSUED:     0  USEFUL: 361801  USELESS: 797758
 USEFUL LOAD PREFETCHES:     361801 PREFETCH ISSUED TO LOWER LEVEL:    1161091  ACCURACY: 31.1604
 TIMELY PREFETCHES:     361801 LATE PREFETCHES: 0 DROPPED PREFETCHES: 0
LLC3 AVERAGE MISS LATENCY: 170.345 cycles
LLC4 TOTAL     ACCESS: 40799931  HIT: 39413220  MISS: 1386711  HIT %: 96.6012  MISS %: 3.39881  AVERAGE MISS PENALTY: 170.454
LLC4 LOAD      ACCESS: 3512910  HIT: 3420607  MISS: 92303  HIT %: 97.3725  MISS %: 2.62754  AVERAGE MISS PENALTY: 169.56
LLC4 RFO       ACCESS:  8183  HIT:  7737  MISS:   446  HIT %: 94.5497  MISS %: 5.45032  AVERAGE MISS PENALTY: 141.011
LLC4 PREFETCH  ACCESS: 37261820  HIT: 35967867  MISS: 1293953  HIT %: 96.5274  MISS %: 3.4726  AVERAGE MISS PENALTY: 170.529
LLC4 WRITEBACK ACCESS: 17018  HIT: 17009  MISS:     9  HIT %: 99.9471  MISS %: 0.0528852  AVERAGE MISS PENALTY: 0
LLC4 PREFETCH  REQUESTED:     0  ISSUED:     0  USEFUL: 394248  USELESS: 898132
 USEFUL LOAD PREFETCHES:     394248 PREFETCH ISSUED TO LOWER LEVEL:    1293953  ACCURACY: 30.4685
 TIMELY PREFETCHES:     394248 LATE PREFETCHES: 0 DROPPED PREFETCHES: 0
LLC4 AVERAGE MISS LATENCY: 170.454 cycles
LLC5 TOTAL     ACCESS: 40518165  HIT: 39009230  MISS: 1508935  HIT %: 96.2759  MISS %: 3.7241  AVERAGE MISS PENALTY: 170.44
LLC5 LOAD      ACCESS: 3754650  HIT: 3647863  MISS: 106787  HIT %: 97.1559  MISS %: 2.84413  AVERAGE MISS PENALTY: 169.472
LLC5 RFO       ACCESS:  8181  HIT:  7666  MISS:   515  HIT %: 93.7049  MISS %: 6.29507  AVERAGE MISS PENALTY: 143.315
LLC5 PREFETCH  ACCESS: 36738321  HIT: 35336700  MISS: 1401621  HIT %: 96.1849  MISS %: 3.81515  AVERAGE MISS PENALTY: 170.525
LLC5 WRITEBACK ACCESS: 17013  HIT: 17001  MISS:    12  HIT %: 99.9295  MISS %: 0.0705343  AVERAGE MISS PENALTY: 0
LLC5 PREFETCH  REQUESTED:     0  ISSUED:     0  USEFUL: 421405  USELESS: 978486
 USEFUL LOAD PREFETCHES:     421405 PREFETCH ISSUED TO LOWER LEVEL:    1401621  ACCURACY: 30.0655
 TIMELY PREFETCHES:     421405 LATE PREFETCHES: 0 DROPPED PREFETCHES: 0
LLC5 AVERAGE MISS LATENCY: 170.44 cycles
LLC6 TOTAL     ACCESS: 39695395  HIT: 38064176  MISS: 1631219  HIT %: 95.8907  MISS %: 4.10934  AVERAGE MISS PENALTY: 169.989
LLC6 LOAD      ACCESS: 3778673  HIT: 3659354  MISS: 119319  HIT %: 96.8423  MISS %: 3.1577  AVERAGE MISS PENALTY: 169.208
LLC6 RFO       ACCESS:  8182  HIT:  7641  MISS:   541  HIT %: 93.3879  MISS %: 6.61208  AVERAGE MISS PENALTY: 139.887
LLC6 PREFETCH  ACCESS: 35891528  HIT: 34380180  MISS: 1511348  HIT %: 95.7891  MISS %: 4.21088  AVERAGE MISS PENALTY: 170.062
LLC6 WRITEBACK ACCESS: 17012  HIT: 17001  MISS:    11  HIT %: 99.9353  MISS %: 0.0646602  AVERAGE MISS PENALTY: 0
LLC6 PREFETCH  REQUESTED:     0  ISSUED:     0  USEFUL: 444819  USELESS: 1064787
 USEFUL LOAD PREFETCHES:     444819 PREFETCH ISSUED TO LOWER LEVEL:    1511348  ACCURACY: 29.4319
 TIMELY PREFETCHES:     444819 LATE PREFETCHES: 0 DROPPED PREFETCHES: 0
LLC6 AVERAGE MISS LATENCY: 169.989 cycles
LLC7 TOTAL     ACCESS: 38972999  HIT: 37229858  MISS: 1743141  HIT %: 95.5273  MISS %: 4.47269  AVERAGE MISS PENALTY: 169.372
LLC7 LOAD      ACCESS: 3639961  HIT: 3505786  MISS: 134175  HIT %: 96.3138  MISS %: 3.68617  AVERAGE MISS PENALTY: 168.542
LLC7 RFO       ACCESS:  8182  HIT:  7563  MISS:   619  HIT %: 92.4346  MISS %: 7.56539  AVERAGE MISS PENALTY: 151.258
LLC7 PREFETCH  ACCESS: 35307844  HIT: 33699510  MISS: 1608334  HIT %: 95.4448  MISS %: 4.55517  AVERAGE MISS PENALTY: 169.449
LLC7 WRITEBACK ACCESS: 17012  HIT: 16999  MISS:    13  HIT %: 99.9236  MISS %: 0.0764166  AVERAGE MISS PENALTY: 0
LLC7 PREFETCH  REQUESTED:     0  ISSUED:     0  USEFUL: 460981  USELESS: 1145409
 USEFUL LOAD PREFETCHES:     460981 PREFETCH ISSUED TO LOWER LEVEL:    1608334  ACCURACY: 28.662
 TIMELY PREFETCHES:     460981 LATE PREFETCHES: 0 DROPPED PREFETCHES: 0
LLC7 AVERAGE MISS LATENCY: 169.372 cycles
ROI Average ROB Stall Cycles:	54.3936
ROI Total ROB Stalls Cycles:	2315340370
ROI TOTAL ROB counter      :	42566377
ROI Average Load ROB Stall Cycles:	63.5288
ROI Total Load ROB Stalls Cycle  :	2233110644
ROI Total Load ROB stalls Counter:	35151176
Major fault: 0 Minor fault: 34813

