
*** ChampSim Multicore Out-of-Order Simulator ***

Warmup Instructions: 200000000
Simulation Instructions: 200000000
Number of CPUs: 1
threads:1

L1I Configuration:
L1I_SET:64
L1I_WAY:8
L1I_RQ_SIZE:64
L1I_WQ_SIZE:64
L1I_PQ_SIZE:8
L1I_MSHR_SIZE:8

L1D Configuration:
L1D_SET:64
L1D_WAY:12
L1D_RQ_SIZE:64
L1D_WQ_SIZE:64
L1D_PQ_SIZE:8
L1D_MSHR_SIZE:16

L2C Configuration:
L2C_SET:1024
L2C_WAY:8
L2C_RQ_SIZE:32
L2C_WQ_SIZE:32
L2C_PQ_SIZE:16
L2C_MSHR_SIZE:32

LLC Configuration:
LLC_SET:2048
LLC_WAY:16
LLC SLICES:8
LLC_RQ_SIZE:64
LLC_WQ_SIZE:64
LLC_PQ_SIZE:32
LLC_MSHR_SIZE:64

Interconnect OFF
Attacker deprioritize is: OFF
Off-chip DRAM Size: 4096 MB Channels: 1 Width: 64-bit Data Rate: 3200 MT/s
PAGE SIZE in KB: 4.000000 
PAGE SIZE in MB: 0.003906 
PAGE offset in bits: 12 
CEASER-S_LLC:0
MIRAGE : 0
CEASER_LATENCY:3
REMAP : OFF
Partitions : 1
Multi-Step : OFF
BFS : OFF

CPU 0 runs /home/anubhav/gap/pr-5.trace.gz
CPU 0 Bimodal branch predictor
Initialize Hawkeye state
Initialize Hawkeye state
Initialize Hawkeye state
Initialize Hawkeye state
Initialize Hawkeye state
Initialize Hawkeye state
Initialize Hawkeye state
Initialize Hawkeye state
Heartbeat CPU 0 instructions: 10000001 cycles: 3863805 heartbeat IPC: 2.58812 cumulative IPC: 2.58812 (Simulation time: 0 hr 1 min 1 sec) 
 Total Blocks : 262144 Invalid Blocks : 122308
Heartbeat CPU 0 instructions: 20000000 cycles: 12833958 heartbeat IPC: 1.11481 cumulative IPC: 1.55837 (Simulation time: 0 hr 2 min 25 sec) 
 Total Blocks : 262144 Invalid Blocks : 61754
Heartbeat CPU 0 instructions: 30000000 cycles: 22957649 heartbeat IPC: 0.987782 cumulative IPC: 1.30675 (Simulation time: 0 hr 4 min 7 sec) 
 Total Blocks : 262144 Invalid Blocks : 43667
Heartbeat CPU 0 instructions: 40000001 cycles: 33994973 heartbeat IPC: 0.906017 cumulative IPC: 1.17664 (Simulation time: 0 hr 6 min 20 sec) 
 Total Blocks : 262144 Invalid Blocks : 34190
Heartbeat CPU 0 instructions: 50000002 cycles: 45030236 heartbeat IPC: 0.906186 cumulative IPC: 1.11037 (Simulation time: 0 hr 8 min 33 sec) 
 Total Blocks : 262144 Invalid Blocks : 27725
Heartbeat CPU 0 instructions: 60000000 cycles: 55841927 heartbeat IPC: 0.924924 cumulative IPC: 1.07446 (Simulation time: 0 hr 10 min 47 sec) 
 Total Blocks : 262144 Invalid Blocks : 23332
Heartbeat CPU 0 instructions: 70000001 cycles: 66936122 heartbeat IPC: 0.901372 cumulative IPC: 1.04577 (Simulation time: 0 hr 13 min 4 sec) 
 Total Blocks : 262144 Invalid Blocks : 18795
Heartbeat CPU 0 instructions: 80000000 cycles: 77957598 heartbeat IPC: 0.907319 cumulative IPC: 1.0262 (Simulation time: 0 hr 15 min 22 sec) 
 Total Blocks : 262144 Invalid Blocks : 16041
Heartbeat CPU 0 instructions: 90000000 cycles: 88886641 heartbeat IPC: 0.914993 cumulative IPC: 1.01253 (Simulation time: 0 hr 17 min 41 sec) 
 Total Blocks : 262144 Invalid Blocks : 12904
Heartbeat CPU 0 instructions: 100000000 cycles: 99880967 heartbeat IPC: 0.90956 cumulative IPC: 1.00119 (Simulation time: 0 hr 20 min 2 sec) 
 Total Blocks : 262144 Invalid Blocks : 10546
Heartbeat CPU 0 instructions: 110000000 cycles: 110904623 heartbeat IPC: 0.90714 cumulative IPC: 0.991843 (Simulation time: 0 hr 22 min 26 sec) 
 Total Blocks : 262144 Invalid Blocks : 8116
Heartbeat CPU 0 instructions: 120000001 cycles: 121939409 heartbeat IPC: 0.906225 cumulative IPC: 0.984095 (Simulation time: 0 hr 24 min 49 sec) 
 Total Blocks : 262144 Invalid Blocks : 6722
Heartbeat CPU 0 instructions: 130000002 cycles: 132903738 heartbeat IPC: 0.912049 cumulative IPC: 0.978152 (Simulation time: 0 hr 27 min 15 sec) 
 Total Blocks : 262144 Invalid Blocks : 5539
Heartbeat CPU 0 instructions: 140000000 cycles: 143904604 heartbeat IPC: 0.909019 cumulative IPC: 0.972867 (Simulation time: 0 hr 29 min 42 sec) 
 Total Blocks : 262144 Invalid Blocks : 4643
Heartbeat CPU 0 instructions: 150000000 cycles: 154930676 heartbeat IPC: 0.906941 cumulative IPC: 0.968175 (Simulation time: 0 hr 32 min 9 sec) 
 Total Blocks : 262144 Invalid Blocks : 3853
Heartbeat CPU 0 instructions: 160000000 cycles: 165887361 heartbeat IPC: 0.912685 cumulative IPC: 0.96451 (Simulation time: 0 hr 34 min 38 sec) 
 Total Blocks : 262144 Invalid Blocks : 3158
Heartbeat CPU 0 instructions: 170000000 cycles: 176908798 heartbeat IPC: 0.907323 cumulative IPC: 0.960947 (Simulation time: 0 hr 37 min 9 sec) 
 Total Blocks : 262144 Invalid Blocks : 2545
Heartbeat CPU 0 instructions: 180000000 cycles: 187975758 heartbeat IPC: 0.903591 cumulative IPC: 0.95757 (Simulation time: 0 hr 39 min 42 sec) 
 Total Blocks : 262144 Invalid Blocks : 2081
Heartbeat CPU 0 instructions: 190000003 cycles: 196881797 heartbeat IPC: 1.12283 cumulative IPC: 0.965046 (Simulation time: 0 hr 41 min 48 sec) 
 Total Blocks : 262144 Invalid Blocks : 1408
Heartbeat CPU 0 instructions: 200000002 cycles: 201775810 heartbeat IPC: 2.04331 cumulative IPC: 0.991199 (Simulation time: 0 hr 42 min 56 sec) 
 Total Blocks : 262144 Invalid Blocks : 838

Warmup complete CPU 0 instructions: 200000002 cycles: 201775810 (Simulation time: 0 hr 42 min 56 sec) 

Heartbeat CPU 0 instructions: 210000000 cycles: 328448465 heartbeat IPC: 0.0789436 cumulative IPC: 0.0789436 (Simulation time: 0 hr 52 min 22 sec) 
 Total Blocks : 262144 Invalid Blocks : 623
Heartbeat CPU 0 instructions: 220000000 cycles: 451766200 heartbeat IPC: 0.0810913 cumulative IPC: 0.0800031 (Simulation time: 1 hr 1 min 34 sec) 
 Total Blocks : 262144 Invalid Blocks : 492
Heartbeat CPU 0 instructions: 230000000 cycles: 576056031 heartbeat IPC: 0.0804571 cumulative IPC: 0.0801538 (Simulation time: 1 hr 10 min 44 sec) 
 Total Blocks : 262144 Invalid Blocks : 399
Heartbeat CPU 0 instructions: 240000000 cycles: 700784714 heartbeat IPC: 0.080174 cumulative IPC: 0.0801589 (Simulation time: 1 hr 19 min 52 sec) 
 Total Blocks : 262144 Invalid Blocks : 314
Heartbeat CPU 0 instructions: 250000002 cycles: 822196276 heartbeat IPC: 0.0823645 cumulative IPC: 0.0805905 (Simulation time: 1 hr 28 min 17 sec) 
 Total Blocks : 262144 Invalid Blocks : 244
Heartbeat CPU 0 instructions: 260000003 cycles: 947466483 heartbeat IPC: 0.0798275 cumulative IPC: 0.0804623 (Simulation time: 1 hr 36 min 10 sec) 
 Total Blocks : 262144 Invalid Blocks : 197
Heartbeat CPU 0 instructions: 270000000 cycles: 1071078367 heartbeat IPC: 0.0808983 cumulative IPC: 0.0805243 (Simulation time: 1 hr 43 min 29 sec) 
 Total Blocks : 262144 Invalid Blocks : 155
Heartbeat CPU 0 instructions: 280000000 cycles: 1194773665 heartbeat IPC: 0.0808438 cumulative IPC: 0.0805641 (Simulation time: 1 hr 50 min 40 sec) 
 Total Blocks : 262144 Invalid Blocks : 118
Heartbeat CPU 0 instructions: 290000001 cycles: 1319850052 heartbeat IPC: 0.0799512 cumulative IPC: 0.0804956 (Simulation time: 1 hr 57 min 53 sec) 
 Total Blocks : 262144 Invalid Blocks : 100
Heartbeat CPU 0 instructions: 300000000 cycles: 1444861031 heartbeat IPC: 0.079993 cumulative IPC: 0.080445 (Simulation time: 2 hr 5 min 6 sec) 
 Total Blocks : 262144 Invalid Blocks : 82
Heartbeat CPU 0 instructions: 310000002 cycles: 1569295014 heartbeat IPC: 0.0803639 cumulative IPC: 0.0804376 (Simulation time: 2 hr 12 min 16 sec) 
 Total Blocks : 262144 Invalid Blocks : 73
Heartbeat CPU 0 instructions: 320000001 cycles: 1693414599 heartbeat IPC: 0.0805675 cumulative IPC: 0.0804484 (Simulation time: 2 hr 19 min 26 sec) 
 Total Blocks : 262144 Invalid Blocks : 58
Heartbeat CPU 0 instructions: 330000000 cycles: 1817949288 heartbeat IPC: 0.0802989 cumulative IPC: 0.0804369 (Simulation time: 2 hr 26 min 37 sec) 
 Total Blocks : 262144 Invalid Blocks : 45
Heartbeat CPU 0 instructions: 340000000 cycles: 1941545685 heartbeat IPC: 0.0809085 cumulative IPC: 0.0804704 (Simulation time: 2 hr 33 min 44 sec) 
 Total Blocks : 262144 Invalid Blocks : 35
Heartbeat CPU 0 instructions: 350000000 cycles: 2066028571 heartbeat IPC: 0.0803323 cumulative IPC: 0.0804612 (Simulation time: 2 hr 40 min 55 sec) 
 Total Blocks : 262144 Invalid Blocks : 31
Heartbeat CPU 0 instructions: 360000001 cycles: 2190613145 heartbeat IPC: 0.0802668 cumulative IPC: 0.080449 (Simulation time: 2 hr 48 min 9 sec) 
 Total Blocks : 262144 Invalid Blocks : 26
Heartbeat CPU 0 instructions: 370000000 cycles: 2316924258 heartbeat IPC: 0.0791696 cumulative IPC: 0.0803726 (Simulation time: 2 hr 55 min 27 sec) 
 Total Blocks : 262144 Invalid Blocks : 23
Heartbeat CPU 0 instructions: 380000001 cycles: 2370625765 heartbeat IPC: 0.186215 cumulative IPC: 0.0829933 (Simulation time: 2 hr 58 min 53 sec) 
 Total Blocks : 262144 Invalid Blocks : 12
Heartbeat CPU 0 instructions: 390000000 cycles: 2430560536 heartbeat IPC: 0.166848 cumulative IPC: 0.0852482 (Simulation time: 3 hr 2 min 39 sec) 
 Total Blocks : 262144 Invalid Blocks : 7
Heartbeat CPU 0 instructions: 400000000 cycles: 2555264597 heartbeat IPC: 0.0801899 cumulative IPC: 0.0849802 (Simulation time: 3 hr 9 min 53 sec) 
 Total Blocks : 262144 Invalid Blocks : 5
Finished CPU 0 instructions: 200000003 cycles: 2353488801 cumulative IPC: 0.0849802 (Simulation time: 3 hr 9 min 53 sec) 

CPU 0 Branch Prediction Accuracy: 96.4308% MPKI: 6.60772 Average ROB Occupancy at Mispredict: 145.56

ChampSim completed all CPUs

Region of Interest Statistics

CPU 0 cumulative IPC: 0.0849802 instructions: 200000003 cycles: 2353488801
ITLB TOTAL     ACCESS: 34180727  HIT: 34180727  MISS:     0  HIT %:   100  MISS %:     0  AVERAGE MISS PENALTY: 0
ITLB LOAD      ACCESS: 34180727  HIT: 34180727  MISS:     0  HIT %:   100  MISS %:     0  AVERAGE MISS PENALTY: 0
ITLB RFO       ACCESS:     0  HIT:     0  MISS:     0  HIT %:     0  MISS %:     0  AVERAGE MISS PENALTY: 0
ITLB PREFETCH  ACCESS:     0  HIT:     0  MISS:     0  HIT %:     0  MISS %:     0  AVERAGE MISS PENALTY: 0
ITLB WRITEBACK ACCESS:     0  HIT:     0  MISS:     0  HIT %:     0  MISS %:     0  AVERAGE MISS PENALTY: 0
ITLB PREFETCH  REQUESTED:     0  ISSUED:     0  USEFUL:     0  USELESS:     0
 USEFUL LOAD PREFETCHES:          0 PREFETCH ISSUED TO LOWER LEVEL:          0  ACCURACY: -nan
 TIMELY PREFETCHES:          0 LATE PREFETCHES: 0 DROPPED PREFETCHES: 0
ITLB AVERAGE MISS LATENCY: -nan cycles
DTLB TOTAL     ACCESS: 78326224  HIT: 55379506  MISS: 22946718  HIT %: 70.7037  MISS %: 29.2963  AVERAGE MISS PENALTY: 9.1868
DTLB LOAD      ACCESS: 75590648  HIT: 52648923  MISS: 22941725  HIT %: 69.65  MISS %: 30.35  AVERAGE MISS PENALTY: 9.18353
DTLB RFO       ACCESS: 2735576  HIT: 2730583  MISS:  4993  HIT %: 99.8175  MISS %: 0.182521  AVERAGE MISS PENALTY: 24.1813
DTLB PREFETCH  ACCESS:     0  HIT:     0  MISS:     0  HIT %:     0  MISS %:     0  AVERAGE MISS PENALTY: 0
DTLB WRITEBACK ACCESS:     0  HIT:     0  MISS:     0  HIT %:     0  MISS %:     0  AVERAGE MISS PENALTY: 0
DTLB PREFETCH  REQUESTED:     0  ISSUED:     0  USEFUL:     0  USELESS:     0
 USEFUL LOAD PREFETCHES:          0 PREFETCH ISSUED TO LOWER LEVEL:          0  ACCURACY: -nan
 TIMELY PREFETCHES:          0 LATE PREFETCHES: 0 DROPPED PREFETCHES: 0
DTLB AVERAGE MISS LATENCY: 9.1868 cycles
STLB TOTAL     ACCESS: 22946718  HIT: 22905905  MISS: 40813  HIT %: 99.8221  MISS %: 0.17786  AVERAGE MISS PENALTY: 100
STLB LOAD      ACCESS: 22941725  HIT: 22901670  MISS: 40055  HIT %: 99.8254  MISS %: 0.174595  AVERAGE MISS PENALTY: 100
STLB RFO       ACCESS:  4993  HIT:  4235  MISS:   758  HIT %: 84.8187  MISS %: 15.1813  AVERAGE MISS PENALTY: 100
STLB PREFETCH  ACCESS:     0  HIT:     0  MISS:     0  HIT %:     0  MISS %:     0  AVERAGE MISS PENALTY: 0
STLB WRITEBACK ACCESS:     0  HIT:     0  MISS:     0  HIT %:     0  MISS %:     0  AVERAGE MISS PENALTY: 0
STLB PREFETCH  REQUESTED:     0  ISSUED:     0  USEFUL:     0  USELESS:     0
 USEFUL LOAD PREFETCHES:          0 PREFETCH ISSUED TO LOWER LEVEL:          0  ACCURACY: -nan
 TIMELY PREFETCHES:          0 LATE PREFETCHES: 0 DROPPED PREFETCHES: 0
STLB AVERAGE MISS LATENCY: 100 cycles
L1D TOTAL     ACCESS: 257430639  HIT: 47967663  MISS: 209462976  HIT %: 18.6332  MISS %: 81.3668  AVERAGE MISS PENALTY: 4.28811e+06
L1D LOAD      ACCESS: 66632239  HIT: 34996421  MISS: 31635818  HIT %: 52.5218  MISS %: 47.4782  AVERAGE MISS PENALTY: 2.83915e+07
L1D RFO       ACCESS: 2646537  HIT: 2580976  MISS: 65561  HIT %: 97.5228  MISS %: 2.47724  AVERAGE MISS PENALTY: 60.3219
L1D PREFETCH  ACCESS: 188151863  HIT: 10390266  MISS: 177761597  HIT %: 5.52228  MISS %: 94.4777  AVERAGE MISS PENALTY: 70.813
L1D WRITEBACK ACCESS:     0  HIT:     0  MISS:     0  HIT %:     0  MISS %:     0  AVERAGE MISS PENALTY: 0
L1D PREFETCH  REQUESTED: 193234819  ISSUED: 191986651  USEFUL: 4153454  USELESS: 173608115
 USEFUL LOAD PREFETCHES:    4153454 PREFETCH ISSUED TO LOWER LEVEL:  181476522  ACCURACY: 2.2887
 TIMELY PREFETCHES:    4153454 LATE PREFETCHES: 658417 DROPPED PREFETCHES: 1248168
L1D AVERAGE MISS LATENCY: 52.4567 cycles
L1I TOTAL     ACCESS: 35924476  HIT: 35924463  MISS:    13  HIT %:   100  MISS %: 3.6187e-05  AVERAGE MISS PENALTY: 118.077
L1I LOAD      ACCESS: 35924476  HIT: 35924463  MISS:    13  HIT %:   100  MISS %: 3.6187e-05  AVERAGE MISS PENALTY: 118.077
L1I RFO       ACCESS:     0  HIT:     0  MISS:     0  HIT %:     0  MISS %:     0  AVERAGE MISS PENALTY: 0
L1I PREFETCH  ACCESS:     0  HIT:     0  MISS:     0  HIT %:     0  MISS %:     0  AVERAGE MISS PENALTY: 0
L1I WRITEBACK ACCESS:     0  HIT:     0  MISS:     0  HIT %:     0  MISS %:     0  AVERAGE MISS PENALTY: 0
L1I PREFETCH  REQUESTED:     0  ISSUED:     0  USEFUL:     0  USELESS:     0
 USEFUL LOAD PREFETCHES:          0 PREFETCH ISSUED TO LOWER LEVEL:          0  ACCURACY: -nan
 TIMELY PREFETCHES:          0 LATE PREFETCHES: 0 DROPPED PREFETCHES: 0
L1I AVERAGE MISS LATENCY: 118.077 cycles
L2C TOTAL     ACCESS: 350847813  HIT: 24507322  MISS: 326340491  HIT %: 6.98517  MISS %: 93.0148  AVERAGE MISS PENALTY: 2.32571e+06
L2C LOAD      ACCESS: 31537693  HIT: 1758453  MISS: 29779240  HIT %: 5.57572  MISS %: 94.4243  AVERAGE MISS PENALTY: 2.54862e+07
L2C RFO       ACCESS: 65561  HIT:    75  MISS: 65486  HIT %: 0.114397  MISS %: 99.8856  AVERAGE MISS PENALTY: 44.0822
L2C PREFETCH  ACCESS: 319009142  HIT: 22513382  MISS: 296495760  HIT %: 7.05728  MISS %: 92.9427  AVERAGE MISS PENALTY: 40.1665
L2C WRITEBACK ACCESS: 235417  HIT: 235412  MISS:     5  HIT %: 99.9979  MISS %: 0.00212389  AVERAGE MISS PENALTY: 0
L2C PREFETCH  REQUESTED: 784050652  ISSUED: 784033533  USEFUL: 1365602  USELESS: 295129200
 USEFUL LOAD PREFETCHES:    1365602 PREFETCH ISSUED TO LOWER LEVEL:  300358452  ACCURACY: 0.454657
 TIMELY PREFETCHES:    1365602 LATE PREFETCHES: 681438 DROPPED PREFETCHES: 17119
L2C AVERAGE MISS LATENCY: 39.4112 cycles
LLC0 TOTAL     ACCESS: 42026357  HIT: 41191932  MISS: 834425  HIT %: 98.0145  MISS %: 1.98548  AVERAGE MISS PENALTY: 165.682
LLC0 LOAD      ACCESS: 3840926  HIT: 3758055  MISS: 82871  HIT %: 97.8424  MISS %: 2.15758  AVERAGE MISS PENALTY: 171.356
LLC0 RFO       ACCESS:  8186  HIT:  7964  MISS:   222  HIT %: 97.2881  MISS %: 2.71195  AVERAGE MISS PENALTY: 154.396
LLC0 PREFETCH  ACCESS: 38160256  HIT: 37408942  MISS: 751314  HIT %: 98.0312  MISS %: 1.96884  AVERAGE MISS PENALTY: 165.063
LLC0 WRITEBACK ACCESS: 16989  HIT: 16971  MISS:    18  HIT %: 99.894  MISS %: 0.105951  AVERAGE MISS PENALTY: 0
LLC0 PREFETCH  REQUESTED:     0  ISSUED:     0  USEFUL: 255488  USELESS: 494776
 USEFUL LOAD PREFETCHES:     255488 PREFETCH ISSUED TO LOWER LEVEL:     751314  ACCURACY: 34.0055
 TIMELY PREFETCHES:     255488 LATE PREFETCHES: 0 DROPPED PREFETCHES: 0
LLC0 AVERAGE MISS LATENCY: 165.682 cycles
Deadblocks : 55737 Deadblock percentage : 67.2575

LLC1 TOTAL     ACCESS: 42131497  HIT: 41175977  MISS: 955520  HIT %: 97.7321  MISS %: 2.26795  AVERAGE MISS PENALTY: 168.053
LLC1 LOAD      ACCESS: 3783817  HIT: 3724702  MISS: 59115  HIT %: 98.4377  MISS %: 1.56231  AVERAGE MISS PENALTY: 172.804
LLC1 RFO       ACCESS:  8188  HIT:  7928  MISS:   260  HIT %: 96.8246  MISS %: 3.17538  AVERAGE MISS PENALTY: 164.635
LLC1 PREFETCH  ACCESS: 38322500  HIT: 37426366  MISS: 896134  HIT %: 97.6616  MISS %: 2.3384  AVERAGE MISS PENALTY: 167.742
LLC1 WRITEBACK ACCESS: 16992  HIT: 16981  MISS:    11  HIT %: 99.9353  MISS %: 0.0647363  AVERAGE MISS PENALTY: 0
LLC1 PREFETCH  REQUESTED:     0  ISSUED:     0  USEFUL: 291101  USELESS: 603966
 USEFUL LOAD PREFETCHES:     291101 PREFETCH ISSUED TO LOWER LEVEL:     896134  ACCURACY: 32.4841
 TIMELY PREFETCHES:     291101 LATE PREFETCHES: 0 DROPPED PREFETCHES: 0
LLC1 AVERAGE MISS LATENCY: 168.053 cycles
LLC2 TOTAL     ACCESS: 41756870  HIT: 40662621  MISS: 1094249  HIT %: 97.3795  MISS %: 2.62052  AVERAGE MISS PENALTY: 169.603
LLC2 LOAD      ACCESS: 3601045  HIT: 3535704  MISS: 65341  HIT %: 98.1855  MISS %: 1.8145  AVERAGE MISS PENALTY: 170.163
LLC2 RFO       ACCESS:  8185  HIT:  7901  MISS:   284  HIT %: 96.5302  MISS %: 3.46976  AVERAGE MISS PENALTY: 159.507
LLC2 PREFETCH  ACCESS: 38130648  HIT: 37102035  MISS: 1028613  HIT %: 97.3024  MISS %: 2.6976  AVERAGE MISS PENALTY: 169.572
LLC2 WRITEBACK ACCESS: 16992  HIT: 16981  MISS:    11  HIT %: 99.9353  MISS %: 0.0647363  AVERAGE MISS PENALTY: 0
LLC2 PREFETCH  REQUESTED:     0  ISSUED:     0  USEFUL: 326895  USELESS: 700404
 USEFUL LOAD PREFETCHES:     326895 PREFETCH ISSUED TO LOWER LEVEL:    1028613  ACCURACY: 31.7802
 TIMELY PREFETCHES:     326895 LATE PREFETCHES: 0 DROPPED PREFETCHES: 0
LLC2 AVERAGE MISS LATENCY: 169.603 cycles
LLC3 TOTAL     ACCESS: 40987264  HIT: 39750349  MISS: 1236915  HIT %: 96.9822  MISS %: 3.0178  AVERAGE MISS PENALTY: 170.425
LLC3 LOAD      ACCESS: 3689846  HIT: 3610483  MISS: 79363  HIT %: 97.8492  MISS %: 2.15085  AVERAGE MISS PENALTY: 169.938
LLC3 RFO       ACCESS:  8185  HIT:  7786  MISS:   399  HIT %: 95.1252  MISS %: 4.87477  AVERAGE MISS PENALTY: 151.278
LLC3 PREFETCH  ACCESS: 37272241  HIT: 36115097  MISS: 1157144  HIT %: 96.8954  MISS %: 3.10457  AVERAGE MISS PENALTY: 170.467
LLC3 WRITEBACK ACCESS: 16992  HIT: 16983  MISS:     9  HIT %: 99.947  MISS %: 0.0529661  AVERAGE MISS PENALTY: 0
LLC3 PREFETCH  REQUESTED:     0  ISSUED:     0  USEFUL: 362142  USELESS: 793572
 USEFUL LOAD PREFETCHES:     362142 PREFETCH ISSUED TO LOWER LEVEL:    1157144  ACCURACY: 31.2962
 TIMELY PREFETCHES:     362142 LATE PREFETCHES: 0 DROPPED PREFETCHES: 0
LLC3 AVERAGE MISS LATENCY: 170.425 cycles
LLC4 TOTAL     ACCESS: 40808255  HIT: 39427557  MISS: 1380698  HIT %: 96.6166  MISS %: 3.38338  AVERAGE MISS PENALTY: 170.298
LLC4 LOAD      ACCESS: 3686877  HIT: 3592561  MISS: 94316  HIT %: 97.4418  MISS %: 2.55815  AVERAGE MISS PENALTY: 169.585
LLC4 RFO       ACCESS:  8185  HIT:  7738  MISS:   447  HIT %: 94.5388  MISS %: 5.46121  AVERAGE MISS PENALTY: 140.291
LLC4 PREFETCH  ACCESS: 37096202  HIT: 35810277  MISS: 1285925  HIT %: 96.5335  MISS %: 3.46646  AVERAGE MISS PENALTY: 170.362
LLC4 WRITEBACK ACCESS: 16991  HIT: 16981  MISS:    10  HIT %: 99.9411  MISS %: 0.0588547  AVERAGE MISS PENALTY: 0
LLC4 PREFETCH  REQUESTED:     0  ISSUED:     0  USEFUL: 395166  USELESS: 889283
 USEFUL LOAD PREFETCHES:     395166 PREFETCH ISSUED TO LOWER LEVEL:    1285925  ACCURACY: 30.7301
 TIMELY PREFETCHES:     395166 LATE PREFETCHES: 0 DROPPED PREFETCHES: 0
LLC4 AVERAGE MISS LATENCY: 170.298 cycles
LLC5 TOTAL     ACCESS: 40366820  HIT: 38857582  MISS: 1509238  HIT %: 96.2612  MISS %: 3.73881  AVERAGE MISS PENALTY: 170.145
LLC5 LOAD      ACCESS: 3574671  HIT: 3469372  MISS: 105299  HIT %: 97.0543  MISS %: 2.9457  AVERAGE MISS PENALTY: 169.248
LLC5 RFO       ACCESS:  8186  HIT:  7687  MISS:   499  HIT %: 93.9042  MISS %: 6.09577  AVERAGE MISS PENALTY: 130.798
LLC5 PREFETCH  ACCESS: 36766972  HIT: 35363542  MISS: 1403430  HIT %: 96.1829  MISS %: 3.81709  AVERAGE MISS PENALTY: 170.228
LLC5 WRITEBACK ACCESS: 16991  HIT: 16981  MISS:    10  HIT %: 99.9411  MISS %: 0.0588547  AVERAGE MISS PENALTY: 0
LLC5 PREFETCH  REQUESTED:     0  ISSUED:     0  USEFUL: 422311  USELESS: 979735
 USEFUL LOAD PREFETCHES:     422311 PREFETCH ISSUED TO LOWER LEVEL:    1403430  ACCURACY: 30.0913
 TIMELY PREFETCHES:     422311 LATE PREFETCHES: 0 DROPPED PREFETCHES: 0
LLC5 AVERAGE MISS LATENCY: 170.145 cycles
LLC6 TOTAL     ACCESS: 39647625  HIT: 38016146  MISS: 1631479  HIT %: 95.8851  MISS %: 4.11495  AVERAGE MISS PENALTY: 169.899
LLC6 LOAD      ACCESS: 3803777  HIT: 3682491  MISS: 121286  HIT %: 96.8114  MISS %: 3.18857  AVERAGE MISS PENALTY: 168.932
LLC6 RFO       ACCESS:  8186  HIT:  7588  MISS:   598  HIT %: 92.6948  MISS %: 7.30516  AVERAGE MISS PENALTY: 140.194
LLC6 PREFETCH  ACCESS: 35818670  HIT: 34309085  MISS: 1509585  HIT %: 95.7855  MISS %: 4.21452  AVERAGE MISS PENALTY: 169.989
LLC6 WRITEBACK ACCESS: 16992  HIT: 16982  MISS:    10  HIT %: 99.9411  MISS %: 0.0588512  AVERAGE MISS PENALTY: 0
LLC6 PREFETCH  REQUESTED:     0  ISSUED:     0  USEFUL: 445637  USELESS: 1062452
 USEFUL LOAD PREFETCHES:     445637 PREFETCH ISSUED TO LOWER LEVEL:    1509585  ACCURACY: 29.5205
 TIMELY PREFETCHES:     445637 LATE PREFETCHES: 0 DROPPED PREFETCHES: 0
LLC6 AVERAGE MISS LATENCY: 169.899 cycles
LLC7 TOTAL     ACCESS: 38751728  HIT: 37006250  MISS: 1745478  HIT %: 95.4957  MISS %: 4.50426  AVERAGE MISS PENALTY: 169.174
LLC7 LOAD      ACCESS: 3634380  HIT: 3502222  MISS: 132158  HIT %: 96.3637  MISS %: 3.63633  AVERAGE MISS PENALTY: 168.49
LLC7 RFO       ACCESS:  8185  HIT:  7523  MISS:   662  HIT %: 91.912  MISS %: 8.08797  AVERAGE MISS PENALTY: 142.778
LLC7 PREFETCH  ACCESS: 35092173  HIT: 33479526  MISS: 1612647  HIT %: 95.4045  MISS %: 4.59546  AVERAGE MISS PENALTY: 169.242
LLC7 WRITEBACK ACCESS: 16990  HIT: 16979  MISS:    11  HIT %: 99.9353  MISS %: 0.064744  AVERAGE MISS PENALTY: 0
LLC7 PREFETCH  REQUESTED:     0  ISSUED:     0  USEFUL: 465081  USELESS: 1145909
 USEFUL LOAD PREFETCHES:     465081 PREFETCH ISSUED TO LOWER LEVEL:    1612647  ACCURACY: 28.8396
 TIMELY PREFETCHES:     465081 LATE PREFETCHES: 0 DROPPED PREFETCHES: 0
LLC7 AVERAGE MISS LATENCY: 169.174 cycles
ROI Average ROB Stall Cycles:	54.2598
ROI Total ROB Stalls Cycles:	2314939476
ROI TOTAL ROB counter      :	42663952
ROI Average Load ROB Stall Cycles:	63.5378
ROI Total Load ROB Stalls Cycle  :	2233686203
ROI Total Load ROB stalls Counter:	35155220
Major fault: 0 Minor fault: 34808

