
*** ChampSim Multicore Out-of-Order Simulator ***

Warmup Instructions: 200000000
Simulation Instructions: 200000000
Number of CPUs: 1
threads:1

L1I Configuration:
L1I_SET:64
L1I_WAY:8
L1I_RQ_SIZE:64
L1I_WQ_SIZE:64
L1I_PQ_SIZE:8
L1I_MSHR_SIZE:8

L1D Configuration:
L1D_SET:64
L1D_WAY:12
L1D_RQ_SIZE:64
L1D_WQ_SIZE:64
L1D_PQ_SIZE:8
L1D_MSHR_SIZE:16

L2C Configuration:
L2C_SET:1024
L2C_WAY:8
L2C_RQ_SIZE:32
L2C_WQ_SIZE:32
L2C_PQ_SIZE:16
L2C_MSHR_SIZE:32

LLC Configuration:
LLC_SET:2048
LLC_WAY:16
LLC SLICES:8
LLC_RQ_SIZE:64
LLC_WQ_SIZE:64
LLC_PQ_SIZE:32
LLC_MSHR_SIZE:64

Interconnect OFF
Attacker deprioritize is: OFF
Off-chip DRAM Size: 4096 MB Channels: 1 Width: 64-bit Data Rate: 3200 MT/s
PAGE SIZE in KB: 4.000000 
PAGE SIZE in MB: 0.003906 
PAGE offset in bits: 12 
CEASER-S_LLC:0
MIRAGE : 0
CEASER_LATENCY:3
REMAP : OFF
Partitions : 1
Multi-Step : OFF
BFS : OFF

CPU 0 runs /home/anubhav/gap/sssp-3.trace.gz
CPU 0 Bimodal branch predictor
Initialize Hawkeye state
Initialize Hawkeye state
Initialize Hawkeye state
Initialize Hawkeye state
Initialize Hawkeye state
Initialize Hawkeye state
Initialize Hawkeye state
Initialize Hawkeye state
Heartbeat CPU 0 instructions: 10000001 cycles: 7203328 heartbeat IPC: 1.38825 cumulative IPC: 1.38825 (Simulation time: 0 hr 0 min 50 sec) 
 Total Blocks : 262144 Invalid Blocks : 161268
Heartbeat CPU 0 instructions: 20000000 cycles: 15607054 heartbeat IPC: 1.18995 cumulative IPC: 1.28147 (Simulation time: 0 hr 1 min 45 sec) 
 Total Blocks : 262144 Invalid Blocks : 120654
Heartbeat CPU 0 instructions: 30000001 cycles: 23158486 heartbeat IPC: 1.32425 cumulative IPC: 1.29542 (Simulation time: 0 hr 2 min 52 sec) 
 Total Blocks : 262144 Invalid Blocks : 106834
Heartbeat CPU 0 instructions: 40000000 cycles: 30520572 heartbeat IPC: 1.35831 cumulative IPC: 1.31059 (Simulation time: 0 hr 3 min 57 sec) 
 Total Blocks : 262144 Invalid Blocks : 100881
Heartbeat CPU 0 instructions: 50000001 cycles: 37539158 heartbeat IPC: 1.42479 cumulative IPC: 1.33194 (Simulation time: 0 hr 5 min 3 sec) 
 Total Blocks : 262144 Invalid Blocks : 95070
Heartbeat CPU 0 instructions: 60000003 cycles: 44178718 heartbeat IPC: 1.50612 cumulative IPC: 1.35812 (Simulation time: 0 hr 6 min 12 sec) 
 Total Blocks : 262144 Invalid Blocks : 91519
Heartbeat CPU 0 instructions: 70000003 cycles: 50602635 heartbeat IPC: 1.55668 cumulative IPC: 1.38333 (Simulation time: 0 hr 7 min 23 sec) 
 Total Blocks : 262144 Invalid Blocks : 88581
Heartbeat CPU 0 instructions: 80000003 cycles: 56859549 heartbeat IPC: 1.59823 cumulative IPC: 1.40698 (Simulation time: 0 hr 8 min 37 sec) 
 Total Blocks : 262144 Invalid Blocks : 85962
Heartbeat CPU 0 instructions: 90000001 cycles: 63019767 heartbeat IPC: 1.62332 cumulative IPC: 1.42812 (Simulation time: 0 hr 9 min 52 sec) 
 Total Blocks : 262144 Invalid Blocks : 82993
Heartbeat CPU 0 instructions: 100000001 cycles: 69047602 heartbeat IPC: 1.65897 cumulative IPC: 1.44828 (Simulation time: 0 hr 11 min 8 sec) 
 Total Blocks : 262144 Invalid Blocks : 80793
Heartbeat CPU 0 instructions: 110000000 cycles: 75032701 heartbeat IPC: 1.67082 cumulative IPC: 1.46603 (Simulation time: 0 hr 12 min 25 sec) 
 Total Blocks : 262144 Invalid Blocks : 78606
Heartbeat CPU 0 instructions: 120000003 cycles: 80871847 heartbeat IPC: 1.71258 cumulative IPC: 1.48383 (Simulation time: 0 hr 13 min 47 sec) 
 Total Blocks : 262144 Invalid Blocks : 76710
Heartbeat CPU 0 instructions: 130000001 cycles: 86683059 heartbeat IPC: 1.72081 cumulative IPC: 1.49972 (Simulation time: 0 hr 15 min 9 sec) 
 Total Blocks : 262144 Invalid Blocks : 74790
Heartbeat CPU 0 instructions: 140000001 cycles: 92379288 heartbeat IPC: 1.75555 cumulative IPC: 1.51549 (Simulation time: 0 hr 16 min 34 sec) 
 Total Blocks : 262144 Invalid Blocks : 72697
Heartbeat CPU 0 instructions: 150000000 cycles: 98053079 heartbeat IPC: 1.76249 cumulative IPC: 1.52978 (Simulation time: 0 hr 17 min 58 sec) 
 Total Blocks : 262144 Invalid Blocks : 71140
Heartbeat CPU 0 instructions: 160000000 cycles: 103673784 heartbeat IPC: 1.77914 cumulative IPC: 1.5433 (Simulation time: 0 hr 19 min 25 sec) 
 Total Blocks : 262144 Invalid Blocks : 69748
Heartbeat CPU 0 instructions: 170000002 cycles: 109248077 heartbeat IPC: 1.79395 cumulative IPC: 1.55609 (Simulation time: 0 hr 20 min 54 sec) 
 Total Blocks : 262144 Invalid Blocks : 67879
Heartbeat CPU 0 instructions: 180000001 cycles: 114796386 heartbeat IPC: 1.80235 cumulative IPC: 1.56799 (Simulation time: 0 hr 22 min 23 sec) 
 Total Blocks : 262144 Invalid Blocks : 66409
Heartbeat CPU 0 instructions: 190000000 cycles: 120300874 heartbeat IPC: 1.8167 cumulative IPC: 1.57937 (Simulation time: 0 hr 23 min 56 sec) 
 Total Blocks : 262144 Invalid Blocks : 64964
Heartbeat CPU 0 instructions: 200000001 cycles: 125779981 heartbeat IPC: 1.82512 cumulative IPC: 1.59008 (Simulation time: 0 hr 25 min 29 sec) 
 Total Blocks : 262144 Invalid Blocks : 63637

Warmup complete CPU 0 instructions: 200000001 cycles: 125779981 (Simulation time: 0 hr 25 min 29 sec) 

Heartbeat CPU 0 instructions: 210000003 cycles: 140003801 heartbeat IPC: 0.703046 cumulative IPC: 0.703046 (Simulation time: 0 hr 27 min 43 sec) 
 Total Blocks : 262144 Invalid Blocks : 61490
Heartbeat CPU 0 instructions: 220000000 cycles: 154178184 heartbeat IPC: 0.705498 cumulative IPC: 0.70427 (Simulation time: 0 hr 29 min 57 sec) 
 Total Blocks : 262144 Invalid Blocks : 59667
Heartbeat CPU 0 instructions: 230000002 cycles: 168141418 heartbeat IPC: 0.716167 cumulative IPC: 0.708191 (Simulation time: 0 hr 32 min 11 sec) 
 Total Blocks : 262144 Invalid Blocks : 58437
Heartbeat CPU 0 instructions: 240000003 cycles: 182548558 heartbeat IPC: 0.6941 cumulative IPC: 0.704615 (Simulation time: 0 hr 34 min 32 sec) 
 Total Blocks : 262144 Invalid Blocks : 56677
Heartbeat CPU 0 instructions: 250000000 cycles: 196814738 heartbeat IPC: 0.700958 cumulative IPC: 0.703881 (Simulation time: 0 hr 36 min 54 sec) 
 Total Blocks : 262144 Invalid Blocks : 55119
Heartbeat CPU 0 instructions: 260000002 cycles: 211304241 heartbeat IPC: 0.690155 cumulative IPC: 0.701555 (Simulation time: 0 hr 39 min 20 sec) 
 Total Blocks : 262144 Invalid Blocks : 53025
Heartbeat CPU 0 instructions: 270000002 cycles: 225588494 heartbeat IPC: 0.700072 cumulative IPC: 0.701343 (Simulation time: 0 hr 41 min 44 sec) 
 Total Blocks : 262144 Invalid Blocks : 51356
Heartbeat CPU 0 instructions: 280000001 cycles: 239884050 heartbeat IPC: 0.699518 cumulative IPC: 0.701114 (Simulation time: 0 hr 44 min 9 sec) 
 Total Blocks : 262144 Invalid Blocks : 49874
Heartbeat CPU 0 instructions: 290000003 cycles: 254145346 heartbeat IPC: 0.701199 cumulative IPC: 0.701124 (Simulation time: 0 hr 46 min 35 sec) 
 Total Blocks : 262144 Invalid Blocks : 48787
Heartbeat CPU 0 instructions: 300000001 cycles: 268422337 heartbeat IPC: 0.700428 cumulative IPC: 0.701054 (Simulation time: 0 hr 49 min 2 sec) 
 Total Blocks : 262144 Invalid Blocks : 47663
Heartbeat CPU 0 instructions: 310000003 cycles: 282798911 heartbeat IPC: 0.695576 cumulative IPC: 0.700552 (Simulation time: 0 hr 51 min 32 sec) 
 Total Blocks : 262144 Invalid Blocks : 45827
Heartbeat CPU 0 instructions: 320000001 cycles: 297122226 heartbeat IPC: 0.698162 cumulative IPC: 0.700353 (Simulation time: 0 hr 54 min 1 sec) 
 Total Blocks : 262144 Invalid Blocks : 44580
Heartbeat CPU 0 instructions: 330000000 cycles: 311464373 heartbeat IPC: 0.697246 cumulative IPC: 0.700113 (Simulation time: 0 hr 56 min 31 sec) 
 Total Blocks : 262144 Invalid Blocks : 43329
Heartbeat CPU 0 instructions: 340000001 cycles: 325892988 heartbeat IPC: 0.693067 cumulative IPC: 0.699605 (Simulation time: 0 hr 59 min 4 sec) 
 Total Blocks : 262144 Invalid Blocks : 42216
Heartbeat CPU 0 instructions: 350000001 cycles: 340463413 heartbeat IPC: 0.686322 cumulative IPC: 0.698703 (Simulation time: 1 hr 1 min 37 sec) 
 Total Blocks : 262144 Invalid Blocks : 40961
Heartbeat CPU 0 instructions: 360000003 cycles: 355170768 heartbeat IPC: 0.679932 cumulative IPC: 0.6975 (Simulation time: 1 hr 4 min 10 sec) 
 Total Blocks : 262144 Invalid Blocks : 39584
Heartbeat CPU 0 instructions: 370000001 cycles: 369845411 heartbeat IPC: 0.681447 cumulative IPC: 0.696535 (Simulation time: 1 hr 6 min 41 sec) 
 Total Blocks : 262144 Invalid Blocks : 38354
Heartbeat CPU 0 instructions: 380000001 cycles: 384794795 heartbeat IPC: 0.668924 cumulative IPC: 0.694941 (Simulation time: 1 hr 9 min 16 sec) 
 Total Blocks : 262144 Invalid Blocks : 36381
Heartbeat CPU 0 instructions: 390000000 cycles: 399737821 heartbeat IPC: 0.669208 cumulative IPC: 0.693537 (Simulation time: 1 hr 11 min 48 sec) 
 Total Blocks : 262144 Invalid Blocks : 35022
Heartbeat CPU 0 instructions: 400000002 cycles: 414974116 heartbeat IPC: 0.656328 cumulative IPC: 0.691577 (Simulation time: 1 hr 14 min 22 sec) 
 Total Blocks : 262144 Invalid Blocks : 33532
Finished CPU 0 instructions: 200000001 cycles: 289194135 cumulative IPC: 0.691577 (Simulation time: 1 hr 14 min 22 sec) 

CPU 0 Branch Prediction Accuracy: 98.7688% MPKI: 1.83727 Average ROB Occupancy at Mispredict: 256.561

ChampSim completed all CPUs

Region of Interest Statistics

CPU 0 cumulative IPC: 0.691577 instructions: 200000001 cycles: 289194135
ITLB TOTAL     ACCESS: 31174894  HIT: 31174894  MISS:     0  HIT %:   100  MISS %:     0  AVERAGE MISS PENALTY: 0
ITLB LOAD      ACCESS: 31174894  HIT: 31174894  MISS:     0  HIT %:   100  MISS %:     0  AVERAGE MISS PENALTY: 0
ITLB RFO       ACCESS:     0  HIT:     0  MISS:     0  HIT %:     0  MISS %:     0  AVERAGE MISS PENALTY: 0
ITLB PREFETCH  ACCESS:     0  HIT:     0  MISS:     0  HIT %:     0  MISS %:     0  AVERAGE MISS PENALTY: 0
ITLB WRITEBACK ACCESS:     0  HIT:     0  MISS:     0  HIT %:     0  MISS %:     0  AVERAGE MISS PENALTY: 0
ITLB PREFETCH  REQUESTED:     0  ISSUED:     0  USEFUL:     0  USELESS:     0
 USEFUL LOAD PREFETCHES:          0 PREFETCH ISSUED TO LOWER LEVEL:          0  ACCURACY: -nan
 TIMELY PREFETCHES:          0 LATE PREFETCHES: 0 DROPPED PREFETCHES: 0
ITLB AVERAGE MISS LATENCY: -nan cycles
DTLB TOTAL     ACCESS: 54542615  HIT: 48005416  MISS: 6537199  HIT %: 88.0145  MISS %: 11.9855  AVERAGE MISS PENALTY: 10.8673
DTLB LOAD      ACCESS: 53474610  HIT: 47240909  MISS: 6233701  HIT %: 88.3427  MISS %: 11.6573  AVERAGE MISS PENALTY: 10.6752
DTLB RFO       ACCESS: 1068005  HIT: 764507  MISS: 303498  HIT %: 71.5827  MISS %: 28.4173  AVERAGE MISS PENALTY: 14.814
DTLB PREFETCH  ACCESS:     0  HIT:     0  MISS:     0  HIT %:     0  MISS %:     0  AVERAGE MISS PENALTY: 0
DTLB WRITEBACK ACCESS:     0  HIT:     0  MISS:     0  HIT %:     0  MISS %:     0  AVERAGE MISS PENALTY: 0
DTLB PREFETCH  REQUESTED:     0  ISSUED:     0  USEFUL:     0  USELESS:     0
 USEFUL LOAD PREFETCHES:          0 PREFETCH ISSUED TO LOWER LEVEL:          0  ACCURACY: -nan
 TIMELY PREFETCHES:          0 LATE PREFETCHES: 0 DROPPED PREFETCHES: 0
DTLB AVERAGE MISS LATENCY: 10.8673 cycles
STLB TOTAL     ACCESS: 6537199  HIT: 6442284  MISS: 94915  HIT %: 98.5481  MISS %: 1.45192  AVERAGE MISS PENALTY: 100
STLB LOAD      ACCESS: 6233701  HIT: 6156332  MISS: 77369  HIT %: 98.7589  MISS %: 1.24114  AVERAGE MISS PENALTY: 100
STLB RFO       ACCESS: 303498  HIT: 285952  MISS: 17546  HIT %: 94.2187  MISS %: 5.78126  AVERAGE MISS PENALTY: 100
STLB PREFETCH  ACCESS:     0  HIT:     0  MISS:     0  HIT %:     0  MISS %:     0  AVERAGE MISS PENALTY: 0
STLB WRITEBACK ACCESS:     0  HIT:     0  MISS:     0  HIT %:     0  MISS %:     0  AVERAGE MISS PENALTY: 0
STLB PREFETCH  REQUESTED:     0  ISSUED:     0  USEFUL:     0  USELESS:     0
 USEFUL LOAD PREFETCHES:          0 PREFETCH ISSUED TO LOWER LEVEL:          0  ACCURACY: -nan
 TIMELY PREFETCHES:          0 LATE PREFETCHES: 0 DROPPED PREFETCHES: 0
STLB AVERAGE MISS LATENCY: 100 cycles
L1D TOTAL     ACCESS: 89840238  HIT: 47599855  MISS: 42240383  HIT %: 52.9828  MISS %: 47.0172  AVERAGE MISS PENALTY: 773366
L1D LOAD      ACCESS: 51116230  HIT: 41294581  MISS: 9821649  HIT %: 80.7857  MISS %: 19.2143  AVERAGE MISS PENALTY: 3.32572e+06
L1D RFO       ACCESS: 1070158  HIT: 741911  MISS: 328247  HIT %: 69.3272  MISS %: 30.6728  AVERAGE MISS PENALTY: 74.2121
L1D PREFETCH  ACCESS: 37653850  HIT: 5563363  MISS: 32090487  HIT %: 14.775  MISS %: 85.225  AVERAGE MISS PENALTY: 101.005
L1D WRITEBACK ACCESS:     0  HIT:     0  MISS:     0  HIT %:     0  MISS %:     0  AVERAGE MISS PENALTY: 0
L1D PREFETCH  REQUESTED: 60571912  ISSUED: 38788415  USEFUL: 1257193  USELESS: 30833310
 USEFUL LOAD PREFETCHES:    1257193 PREFETCH ISSUED TO LOWER LEVEL:   96319457  ACCURACY: 1.30523
 TIMELY PREFETCHES:    1257193 LATE PREFETCHES: 315272 DROPPED PREFETCHES: 21783497
L1D AVERAGE MISS LATENCY: 46.7309 cycles
L1I TOTAL     ACCESS: 45053360  HIT: 45053360  MISS:     0  HIT %:   100  MISS %:     0  AVERAGE MISS PENALTY: 0
L1I LOAD      ACCESS: 45053360  HIT: 45053360  MISS:     0  HIT %:   100  MISS %:     0  AVERAGE MISS PENALTY: 0
L1I RFO       ACCESS:     0  HIT:     0  MISS:     0  HIT %:     0  MISS %:     0  AVERAGE MISS PENALTY: 0
L1I PREFETCH  ACCESS:     0  HIT:     0  MISS:     0  HIT %:     0  MISS %:     0  AVERAGE MISS PENALTY: 0
L1I WRITEBACK ACCESS:     0  HIT:     0  MISS:     0  HIT %:     0  MISS %:     0  AVERAGE MISS PENALTY: 0
L1I PREFETCH  REQUESTED:     0  ISSUED:     0  USEFUL:     0  USELESS:     0
 USEFUL LOAD PREFETCHES:          0 PREFETCH ISSUED TO LOWER LEVEL:          0  ACCURACY: -nan
 TIMELY PREFETCHES:          0 LATE PREFETCHES: 0 DROPPED PREFETCHES: 0
L1I AVERAGE MISS LATENCY: -nan cycles
L2C TOTAL     ACCESS: 78465995  HIT: 12517590  MISS: 65948405  HIT %: 15.9529  MISS %: 84.0471  AVERAGE MISS PENALTY: 460304
L2C LOAD      ACCESS: 9797404  HIT: 1164486  MISS: 8632918  HIT %: 11.8857  MISS %: 88.1143  AVERAGE MISS PENALTY: 3.51608e+06
L2C RFO       ACCESS: 328237  HIT: 87949  MISS: 240288  HIT %: 26.7944  MISS %: 73.2056  AVERAGE MISS PENALTY: 80.4813
L2C PREFETCH  ACCESS: 67436372  HIT: 10361796  MISS: 57074576  HIT %: 15.3653  MISS %: 84.6347  AVERAGE MISS PENALTY: 39.2768
L2C WRITEBACK ACCESS: 903982  HIT: 903359  MISS:   623  HIT %: 99.9311  MISS %: 0.0689173  AVERAGE MISS PENALTY: 0
L2C PREFETCH  REQUESTED: 142651215  ISSUED: 131280958  USEFUL: 522871  USELESS: 56551874
 USEFUL LOAD PREFETCHES:     522871 PREFETCH ISSUED TO LOWER LEVEL:   60655124  ACCURACY: 0.862039
 TIMELY PREFETCHES:     522871 LATE PREFETCHES: 641723 DROPPED PREFETCHES: 11370257
L2C AVERAGE MISS LATENCY: 37.2142 cycles
LLC0 TOTAL     ACCESS: 8488332  HIT: 8293821  MISS: 194511  HIT %: 97.7085  MISS %: 2.29151  AVERAGE MISS PENALTY: 114.552
LLC0 LOAD      ACCESS: 1115403  HIT: 1086136  MISS: 29267  HIT %: 97.3761  MISS %: 2.62389  AVERAGE MISS PENALTY: 142.123
LLC0 RFO       ACCESS: 30059  HIT: 24853  MISS:  5206  HIT %: 82.6807  MISS %: 17.3193  AVERAGE MISS PENALTY: 262.439
LLC0 PREFETCH  ACCESS: 7256217  HIT: 7096232  MISS: 159985  HIT %: 97.7952  MISS %: 2.2048  AVERAGE MISS PENALTY: 104.733
LLC0 WRITEBACK ACCESS: 86653  HIT: 86600  MISS:    53  HIT %: 99.9388  MISS %: 0.0611635  AVERAGE MISS PENALTY: 0
LLC0 PREFETCH  REQUESTED:     0  ISSUED:     0  USEFUL:  6793  USELESS: 149145
 USEFUL LOAD PREFETCHES:       6793 PREFETCH ISSUED TO LOWER LEVEL:     159985  ACCURACY: 4.24602
 TIMELY PREFETCHES:       6793 LATE PREFETCHES: 0 DROPPED PREFETCHES: 0
LLC0 AVERAGE MISS LATENCY: 114.552 cycles
Deadblocks : 27079 Deadblock percentage : 92.524

LLC1 TOTAL     ACCESS: 8454521  HIT: 8259645  MISS: 194876  HIT %: 97.695  MISS %: 2.30499  AVERAGE MISS PENALTY: 114.952
LLC1 LOAD      ACCESS: 1045359  HIT: 1034767  MISS: 10592  HIT %: 98.9868  MISS %: 1.01324  AVERAGE MISS PENALTY: 170.543
LLC1 RFO       ACCESS: 30252  HIT: 25016  MISS:  5236  HIT %: 82.6921  MISS %: 17.3079  AVERAGE MISS PENALTY: 259.669
LLC1 PREFETCH  ACCESS: 7291982  HIT: 7112971  MISS: 179011  HIT %: 97.5451  MISS %: 2.4549  AVERAGE MISS PENALTY: 107.453
LLC1 WRITEBACK ACCESS: 86928  HIT: 86891  MISS:    37  HIT %: 99.9574  MISS %: 0.042564  AVERAGE MISS PENALTY: 0
LLC1 PREFETCH  REQUESTED:     0  ISSUED:     0  USEFUL:  6994  USELESS: 167312
 USEFUL LOAD PREFETCHES:       6994 PREFETCH ISSUED TO LOWER LEVEL:     179011  ACCURACY: 3.90702
 TIMELY PREFETCHES:       6994 LATE PREFETCHES: 0 DROPPED PREFETCHES: 0
LLC1 AVERAGE MISS LATENCY: 114.952 cycles
LLC2 TOTAL     ACCESS: 8465170  HIT: 8269457  MISS: 195713  HIT %: 97.688  MISS %: 2.31198  AVERAGE MISS PENALTY: 115.834
LLC2 LOAD      ACCESS: 1092186  HIT: 1081389  MISS: 10797  HIT %: 99.0114  MISS %: 0.988568  AVERAGE MISS PENALTY: 169.685
LLC2 RFO       ACCESS: 30556  HIT: 25357  MISS:  5199  HIT %: 82.9853  MISS %: 17.0147  AVERAGE MISS PENALTY: 259.487
LLC2 PREFETCH  ACCESS: 7255175  HIT: 7075499  MISS: 179676  HIT %: 97.5235  MISS %: 2.47652  AVERAGE MISS PENALTY: 108.468
LLC2 WRITEBACK ACCESS: 87253  HIT: 87212  MISS:    41  HIT %: 99.953  MISS %: 0.0469898  AVERAGE MISS PENALTY: 0
LLC2 PREFETCH  REQUESTED:     0  ISSUED:     0  USEFUL:  7210  USELESS: 167849
 USEFUL LOAD PREFETCHES:       7210 PREFETCH ISSUED TO LOWER LEVEL:     179676  ACCURACY: 4.01278
 TIMELY PREFETCHES:       7210 LATE PREFETCHES: 0 DROPPED PREFETCHES: 0
LLC2 AVERAGE MISS LATENCY: 115.834 cycles
LLC3 TOTAL     ACCESS: 8420705  HIT: 8224053  MISS: 196652  HIT %: 97.6647  MISS %: 2.33534  AVERAGE MISS PENALTY: 117.29
LLC3 LOAD      ACCESS: 1037283  HIT: 1026482  MISS: 10801  HIT %: 98.9587  MISS %: 1.04128  AVERAGE MISS PENALTY: 170.562
LLC3 RFO       ACCESS: 30469  HIT: 25102  MISS:  5367  HIT %: 82.3854  MISS %: 17.6146  AVERAGE MISS PENALTY: 259.448
LLC3 PREFETCH  ACCESS: 7265819  HIT: 7085384  MISS: 180435  HIT %: 97.5167  MISS %: 2.48334  AVERAGE MISS PENALTY: 109.905
LLC3 WRITEBACK ACCESS: 87134  HIT: 87085  MISS:    49  HIT %: 99.9438  MISS %: 0.0562352  AVERAGE MISS PENALTY: 0
LLC3 PREFETCH  REQUESTED:     0  ISSUED:     0  USEFUL:  7401  USELESS: 168548
 USEFUL LOAD PREFETCHES:       7401 PREFETCH ISSUED TO LOWER LEVEL:     180435  ACCURACY: 4.10175
 TIMELY PREFETCHES:       7401 LATE PREFETCHES: 0 DROPPED PREFETCHES: 0
LLC3 AVERAGE MISS LATENCY: 117.29 cycles
LLC4 TOTAL     ACCESS: 8385550  HIT: 8188023  MISS: 197527  HIT %: 97.6444  MISS %: 2.35556  AVERAGE MISS PENALTY: 118.311
LLC4 LOAD      ACCESS: 1093742  HIT: 1082745  MISS: 10997  HIT %: 98.9946  MISS %: 1.00545  AVERAGE MISS PENALTY: 171.526
LLC4 RFO       ACCESS: 30398  HIT: 25106  MISS:  5292  HIT %: 82.591  MISS %: 17.409  AVERAGE MISS PENALTY: 261.474
LLC4 PREFETCH  ACCESS: 7174375  HIT: 6993196  MISS: 181179  HIT %: 97.4746  MISS %: 2.52536  AVERAGE MISS PENALTY: 110.937
LLC4 WRITEBACK ACCESS: 87035  HIT: 86976  MISS:    59  HIT %: 99.9322  MISS %: 0.0677888  AVERAGE MISS PENALTY: 0
LLC4 PREFETCH  REQUESTED:     0  ISSUED:     0  USEFUL:  7923  USELESS: 168907
 USEFUL LOAD PREFETCHES:       7923 PREFETCH ISSUED TO LOWER LEVEL:     181180  ACCURACY: 4.373
 TIMELY PREFETCHES:       7923 LATE PREFETCHES: 0 DROPPED PREFETCHES: 0
LLC4 AVERAGE MISS LATENCY: 118.311 cycles
LLC5 TOTAL     ACCESS: 8278782  HIT: 8080068  MISS: 198714  HIT %: 97.5997  MISS %: 2.40028  AVERAGE MISS PENALTY: 119.481
LLC5 LOAD      ACCESS: 1089860  HIT: 1078574  MISS: 11286  HIT %: 98.9645  MISS %: 1.03555  AVERAGE MISS PENALTY: 172.15
LLC5 RFO       ACCESS: 29975  HIT: 24773  MISS:  5202  HIT %: 82.6455  MISS %: 17.3545  AVERAGE MISS PENALTY: 261.673
LLC5 PREFETCH  ACCESS: 7073177  HIT: 6891001  MISS: 182176  HIT %: 97.4244  MISS %: 2.57559  AVERAGE MISS PENALTY: 112.191
LLC5 WRITEBACK ACCESS: 85770  HIT: 85720  MISS:    50  HIT %: 99.9417  MISS %: 0.0582954  AVERAGE MISS PENALTY: 0
LLC5 PREFETCH  REQUESTED:     0  ISSUED:     0  USEFUL:  8717  USELESS: 169192
 USEFUL LOAD PREFETCHES:       8717 PREFETCH ISSUED TO LOWER LEVEL:     182176  ACCURACY: 4.78493
 TIMELY PREFETCHES:       8717 LATE PREFETCHES: 0 DROPPED PREFETCHES: 0
LLC5 AVERAGE MISS LATENCY: 119.481 cycles
LLC6 TOTAL     ACCESS: 8149859  HIT: 7948441  MISS: 201418  HIT %: 97.5286  MISS %: 2.47143  AVERAGE MISS PENALTY: 121.764
LLC6 LOAD      ACCESS: 1062625  HIT: 1050976  MISS: 11649  HIT %: 98.9038  MISS %: 1.09625  AVERAGE MISS PENALTY: 173.64
LLC6 RFO       ACCESS: 29423  HIT: 24165  MISS:  5258  HIT %: 82.1296  MISS %: 17.8704  AVERAGE MISS PENALTY: 259.952
LLC6 PREFETCH  ACCESS: 6972727  HIT: 6788269  MISS: 184458  HIT %: 97.3546  MISS %: 2.64542  AVERAGE MISS PENALTY: 114.584
LLC6 WRITEBACK ACCESS: 85084  HIT: 85031  MISS:    53  HIT %: 99.9377  MISS %: 0.0622914  AVERAGE MISS PENALTY: 0
LLC6 PREFETCH  REQUESTED:     0  ISSUED:     0  USEFUL: 10320  USELESS: 169891
 USEFUL LOAD PREFETCHES:      10320 PREFETCH ISSUED TO LOWER LEVEL:     184458  ACCURACY: 5.59477
 TIMELY PREFETCHES:      10320 LATE PREFETCHES: 0 DROPPED PREFETCHES: 0
LLC6 AVERAGE MISS LATENCY: 121.764 cycles
LLC7 TOTAL     ACCESS: 7994016  HIT: 7790090  MISS: 203926  HIT %: 97.449  MISS %: 2.55098  AVERAGE MISS PENALTY: 123.867
LLC7 LOAD      ACCESS: 1060269  HIT: 1048016  MISS: 12253  HIT %: 98.8443  MISS %: 1.15565  AVERAGE MISS PENALTY: 174.908
LLC7 RFO       ACCESS: 29144  HIT: 23895  MISS:  5249  HIT %: 81.9894  MISS %: 18.0106  AVERAGE MISS PENALTY: 259.837
LLC7 PREFETCH  ACCESS: 6821286  HIT: 6634913  MISS: 186373  HIT %: 97.2678  MISS %: 2.73223  AVERAGE MISS PENALTY: 116.716
LLC7 WRITEBACK ACCESS: 83317  HIT: 83266  MISS:    51  HIT %: 99.9388  MISS %: 0.061212  AVERAGE MISS PENALTY: 0
LLC7 PREFETCH  REQUESTED:     0  ISSUED:     0  USEFUL: 11839  USELESS: 170641
 USEFUL LOAD PREFETCHES:      11839 PREFETCH ISSUED TO LOWER LEVEL:     186373  ACCURACY: 6.35231
 TIMELY PREFETCHES:      11839 LATE PREFETCHES: 0 DROPPED PREFETCHES: 0
LLC7 AVERAGE MISS LATENCY: 123.867 cycles
ROI Average ROB Stall Cycles:	7.35147
ROI Total ROB Stalls Cycles:	246845552
ROI TOTAL ROB counter      :	33577736
ROI Average Load ROB Stall Cycles:	29.8125
ROI Total Load ROB Stalls Cycle  :	159659162
ROI Total Load ROB stalls Counter:	5355445
Major fault: 0 Minor fault: 58226

