
*** ChampSim Multicore Out-of-Order Simulator ***

Warmup Instructions: 200000000
Simulation Instructions: 200000000
Number of CPUs: 1
threads:1

L1I Configuration:
L1I_SET:64
L1I_WAY:8
L1I_RQ_SIZE:64
L1I_WQ_SIZE:64
L1I_PQ_SIZE:8
L1I_MSHR_SIZE:8

L1D Configuration:
L1D_SET:64
L1D_WAY:12
L1D_RQ_SIZE:64
L1D_WQ_SIZE:64
L1D_PQ_SIZE:8
L1D_MSHR_SIZE:16

L2C Configuration:
L2C_SET:1024
L2C_WAY:8
L2C_RQ_SIZE:32
L2C_WQ_SIZE:32
L2C_PQ_SIZE:16
L2C_MSHR_SIZE:32

LLC Configuration:
LLC_SET:2048
LLC_WAY:16
LLC SLICES:8
LLC_RQ_SIZE:64
LLC_WQ_SIZE:64
LLC_PQ_SIZE:32
LLC_MSHR_SIZE:64

Interconnect OFF
Attacker deprioritize is: OFF
Off-chip DRAM Size: 4096 MB Channels: 1 Width: 64-bit Data Rate: 3200 MT/s
PAGE SIZE in KB: 4.000000 
PAGE SIZE in MB: 0.003906 
PAGE offset in bits: 12 
CEASER-S_LLC:0
MIRAGE : 0
CEASER_LATENCY:3
REMAP : OFF
Partitions : 1
Multi-Step : OFF
BFS : OFF

CPU 0 runs /home/anubhav/gap/sssp-14.trace.gz
CPU 0 Bimodal branch predictor
Initialize Hawkeye state
Initialize Hawkeye state
Initialize Hawkeye state
Initialize Hawkeye state
Initialize Hawkeye state
Initialize Hawkeye state
Initialize Hawkeye state
Initialize Hawkeye state
Heartbeat CPU 0 instructions: 10000000 cycles: 7221328 heartbeat IPC: 1.38479 cumulative IPC: 1.38479 (Simulation time: 0 hr 0 min 49 sec) 
 Total Blocks : 262144 Invalid Blocks : 160982
Heartbeat CPU 0 instructions: 20000002 cycles: 15538819 heartbeat IPC: 1.20229 cumulative IPC: 1.2871 (Simulation time: 0 hr 1 min 47 sec) 
 Total Blocks : 262144 Invalid Blocks : 125662
Heartbeat CPU 0 instructions: 30000000 cycles: 23080454 heartbeat IPC: 1.32597 cumulative IPC: 1.2998 (Simulation time: 0 hr 2 min 51 sec) 
 Total Blocks : 262144 Invalid Blocks : 116152
Heartbeat CPU 0 instructions: 40000002 cycles: 30163043 heartbeat IPC: 1.41191 cumulative IPC: 1.32613 (Simulation time: 0 hr 3 min 57 sec) 
 Total Blocks : 262144 Invalid Blocks : 110276
Heartbeat CPU 0 instructions: 50000003 cycles: 36847848 heartbeat IPC: 1.49593 cumulative IPC: 1.35693 (Simulation time: 0 hr 5 min 5 sec) 
 Total Blocks : 262144 Invalid Blocks : 105209
Heartbeat CPU 0 instructions: 60000001 cycles: 43421812 heartbeat IPC: 1.52115 cumulative IPC: 1.38179 (Simulation time: 0 hr 6 min 12 sec) 
 Total Blocks : 262144 Invalid Blocks : 101014
Heartbeat CPU 0 instructions: 70000000 cycles: 49750586 heartbeat IPC: 1.58008 cumulative IPC: 1.40702 (Simulation time: 0 hr 7 min 22 sec) 
 Total Blocks : 262144 Invalid Blocks : 98029
Heartbeat CPU 0 instructions: 80000002 cycles: 55825723 heartbeat IPC: 1.64605 cumulative IPC: 1.43303 (Simulation time: 0 hr 8 min 36 sec) 
 Total Blocks : 262144 Invalid Blocks : 94686
Heartbeat CPU 0 instructions: 90000002 cycles: 61774962 heartbeat IPC: 1.68089 cumulative IPC: 1.4569 (Simulation time: 0 hr 9 min 52 sec) 
 Total Blocks : 262144 Invalid Blocks : 91801
Heartbeat CPU 0 instructions: 100000001 cycles: 67638956 heartbeat IPC: 1.70532 cumulative IPC: 1.47844 (Simulation time: 0 hr 11 min 8 sec) 
 Total Blocks : 262144 Invalid Blocks : 89116
Heartbeat CPU 0 instructions: 110000000 cycles: 73456754 heartbeat IPC: 1.71886 cumulative IPC: 1.49748 (Simulation time: 0 hr 12 min 25 sec) 
 Total Blocks : 262144 Invalid Blocks : 86984
Heartbeat CPU 0 instructions: 120000001 cycles: 79172142 heartbeat IPC: 1.74966 cumulative IPC: 1.51568 (Simulation time: 0 hr 13 min 45 sec) 
 Total Blocks : 262144 Invalid Blocks : 84674
Heartbeat CPU 0 instructions: 130000002 cycles: 84789261 heartbeat IPC: 1.78027 cumulative IPC: 1.53321 (Simulation time: 0 hr 15 min 9 sec) 
 Total Blocks : 262144 Invalid Blocks : 82304
Heartbeat CPU 0 instructions: 140000002 cycles: 90432312 heartbeat IPC: 1.77209 cumulative IPC: 1.54812 (Simulation time: 0 hr 16 min 29 sec) 
 Total Blocks : 262144 Invalid Blocks : 80079
Heartbeat CPU 0 instructions: 150000003 cycles: 95977977 heartbeat IPC: 1.80321 cumulative IPC: 1.56286 (Simulation time: 0 hr 17 min 56 sec) 
 Total Blocks : 262144 Invalid Blocks : 77766
Heartbeat CPU 0 instructions: 160000001 cycles: 101486801 heartbeat IPC: 1.81527 cumulative IPC: 1.57656 (Simulation time: 0 hr 19 min 21 sec) 
 Total Blocks : 262144 Invalid Blocks : 75909
Heartbeat CPU 0 instructions: 170000001 cycles: 106966164 heartbeat IPC: 1.82503 cumulative IPC: 1.58929 (Simulation time: 0 hr 20 min 48 sec) 
 Total Blocks : 262144 Invalid Blocks : 74427
Heartbeat CPU 0 instructions: 180000002 cycles: 112399166 heartbeat IPC: 1.8406 cumulative IPC: 1.60144 (Simulation time: 0 hr 22 min 17 sec) 
 Total Blocks : 262144 Invalid Blocks : 72687
Heartbeat CPU 0 instructions: 190000000 cycles: 117806404 heartbeat IPC: 1.84937 cumulative IPC: 1.61282 (Simulation time: 0 hr 23 min 46 sec) 
 Total Blocks : 262144 Invalid Blocks : 71022
Heartbeat CPU 0 instructions: 200000000 cycles: 123191446 heartbeat IPC: 1.857 cumulative IPC: 1.62349 (Simulation time: 0 hr 25 min 19 sec) 
 Total Blocks : 262144 Invalid Blocks : 69162

Warmup complete CPU 0 instructions: 200000004 cycles: 123191447 (Simulation time: 0 hr 25 min 19 sec) 

Heartbeat CPU 0 instructions: 210000002 cycles: 137276270 heartbeat IPC: 0.709984 cumulative IPC: 0.709984 (Simulation time: 0 hr 27 min 29 sec) 
 Total Blocks : 262144 Invalid Blocks : 67025
Heartbeat CPU 0 instructions: 220000000 cycles: 151609627 heartbeat IPC: 0.697673 cumulative IPC: 0.703775 (Simulation time: 0 hr 29 min 46 sec) 
 Total Blocks : 262144 Invalid Blocks : 64914
Heartbeat CPU 0 instructions: 230000000 cycles: 165721326 heartbeat IPC: 0.708632 cumulative IPC: 0.705386 (Simulation time: 0 hr 32 min 1 sec) 
 Total Blocks : 262144 Invalid Blocks : 63417
Heartbeat CPU 0 instructions: 240000003 cycles: 180080737 heartbeat IPC: 0.696408 cumulative IPC: 0.70312 (Simulation time: 0 hr 34 min 21 sec) 
 Total Blocks : 262144 Invalid Blocks : 60865
Heartbeat CPU 0 instructions: 250000000 cycles: 194406108 heartbeat IPC: 0.698062 cumulative IPC: 0.702103 (Simulation time: 0 hr 36 min 42 sec) 
 Total Blocks : 262144 Invalid Blocks : 58877
Heartbeat CPU 0 instructions: 260000000 cycles: 208706055 heartbeat IPC: 0.699303 cumulative IPC: 0.701634 (Simulation time: 0 hr 39 min 5 sec) 
 Total Blocks : 262144 Invalid Blocks : 57234
Heartbeat CPU 0 instructions: 270000001 cycles: 222969881 heartbeat IPC: 0.701074 cumulative IPC: 0.701554 (Simulation time: 0 hr 41 min 30 sec) 
 Total Blocks : 262144 Invalid Blocks : 55688
Heartbeat CPU 0 instructions: 280000000 cycles: 237371509 heartbeat IPC: 0.694366 cumulative IPC: 0.700648 (Simulation time: 0 hr 43 min 57 sec) 
 Total Blocks : 262144 Invalid Blocks : 53919
Heartbeat CPU 0 instructions: 290000002 cycles: 251556473 heartbeat IPC: 0.704972 cumulative IPC: 0.701126 (Simulation time: 0 hr 46 min 21 sec) 
 Total Blocks : 262144 Invalid Blocks : 52686
Heartbeat CPU 0 instructions: 300000001 cycles: 266011341 heartbeat IPC: 0.691808 cumulative IPC: 0.700183 (Simulation time: 0 hr 48 min 50 sec) 
 Total Blocks : 262144 Invalid Blocks : 50022
Heartbeat CPU 0 instructions: 310000002 cycles: 280277194 heartbeat IPC: 0.700975 cumulative IPC: 0.700254 (Simulation time: 0 hr 51 min 18 sec) 
 Total Blocks : 262144 Invalid Blocks : 48784
Heartbeat CPU 0 instructions: 320000001 cycles: 294800390 heartbeat IPC: 0.688554 cumulative IPC: 0.699264 (Simulation time: 0 hr 53 min 49 sec) 
 Total Blocks : 262144 Invalid Blocks : 47375
Heartbeat CPU 0 instructions: 330000000 cycles: 309206699 heartbeat IPC: 0.69414 cumulative IPC: 0.698867 (Simulation time: 0 hr 56 min 18 sec) 
 Total Blocks : 262144 Invalid Blocks : 45898
Heartbeat CPU 0 instructions: 340000002 cycles: 323674570 heartbeat IPC: 0.691187 cumulative IPC: 0.698313 (Simulation time: 0 hr 58 min 50 sec) 
 Total Blocks : 262144 Invalid Blocks : 44611
Heartbeat CPU 0 instructions: 350000000 cycles: 338150455 heartbeat IPC: 0.690804 cumulative IPC: 0.697807 (Simulation time: 1 hr 1 min 22 sec) 
 Total Blocks : 262144 Invalid Blocks : 42731
Heartbeat CPU 0 instructions: 360000000 cycles: 352716532 heartbeat IPC: 0.686527 cumulative IPC: 0.697092 (Simulation time: 1 hr 3 min 53 sec) 
 Total Blocks : 262144 Invalid Blocks : 41317
Heartbeat CPU 0 instructions: 370000003 cycles: 367448146 heartbeat IPC: 0.678812 cumulative IPC: 0.695989 (Simulation time: 1 hr 6 min 25 sec) 
 Total Blocks : 262144 Invalid Blocks : 39935
Heartbeat CPU 0 instructions: 380000001 cycles: 382094279 heartbeat IPC: 0.682774 cumulative IPC: 0.695242 (Simulation time: 1 hr 8 min 57 sec) 
 Total Blocks : 262144 Invalid Blocks : 38649
Heartbeat CPU 0 instructions: 390000000 cycles: 396863988 heartbeat IPC: 0.677061 cumulative IPC: 0.69426 (Simulation time: 1 hr 11 min 28 sec) 
 Total Blocks : 262144 Invalid Blocks : 37395
Heartbeat CPU 0 instructions: 400000001 cycles: 411660207 heartbeat IPC: 0.675848 cumulative IPC: 0.693316 (Simulation time: 1 hr 13 min 58 sec) 
 Total Blocks : 262144 Invalid Blocks : 35960
Finished CPU 0 instructions: 200000002 cycles: 288468762 cumulative IPC: 0.693316 (Simulation time: 1 hr 13 min 58 sec) 

CPU 0 Branch Prediction Accuracy: 98.7741% MPKI: 1.82943 Average ROB Occupancy at Mispredict: 256.732

ChampSim completed all CPUs

Region of Interest Statistics

CPU 0 cumulative IPC: 0.693316 instructions: 200000002 cycles: 288468762
ITLB TOTAL     ACCESS: 31214227  HIT: 31214227  MISS:     0  HIT %:   100  MISS %:     0  AVERAGE MISS PENALTY: 0
ITLB LOAD      ACCESS: 31214227  HIT: 31214227  MISS:     0  HIT %:   100  MISS %:     0  AVERAGE MISS PENALTY: 0
ITLB RFO       ACCESS:     0  HIT:     0  MISS:     0  HIT %:     0  MISS %:     0  AVERAGE MISS PENALTY: 0
ITLB PREFETCH  ACCESS:     0  HIT:     0  MISS:     0  HIT %:     0  MISS %:     0  AVERAGE MISS PENALTY: 0
ITLB WRITEBACK ACCESS:     0  HIT:     0  MISS:     0  HIT %:     0  MISS %:     0  AVERAGE MISS PENALTY: 0
ITLB PREFETCH  REQUESTED:     0  ISSUED:     0  USEFUL:     0  USELESS:     0
 USEFUL LOAD PREFETCHES:          0 PREFETCH ISSUED TO LOWER LEVEL:          0  ACCURACY: -nan
 TIMELY PREFETCHES:          0 LATE PREFETCHES: 0 DROPPED PREFETCHES: 0
ITLB AVERAGE MISS LATENCY: -nan cycles
DTLB TOTAL     ACCESS: 55248428  HIT: 48724375  MISS: 6524053  HIT %: 88.1914  MISS %: 11.8086  AVERAGE MISS PENALTY: 10.8473
DTLB LOAD      ACCESS: 54186519  HIT: 47964434  MISS: 6222085  HIT %: 88.5173  MISS %: 11.4827  AVERAGE MISS PENALTY: 10.6535
DTLB RFO       ACCESS: 1061909  HIT: 759941  MISS: 301968  HIT %: 71.5637  MISS %: 28.4363  AVERAGE MISS PENALTY: 14.8412
DTLB PREFETCH  ACCESS:     0  HIT:     0  MISS:     0  HIT %:     0  MISS %:     0  AVERAGE MISS PENALTY: 0
DTLB WRITEBACK ACCESS:     0  HIT:     0  MISS:     0  HIT %:     0  MISS %:     0  AVERAGE MISS PENALTY: 0
DTLB PREFETCH  REQUESTED:     0  ISSUED:     0  USEFUL:     0  USELESS:     0
 USEFUL LOAD PREFETCHES:          0 PREFETCH ISSUED TO LOWER LEVEL:          0  ACCURACY: -nan
 TIMELY PREFETCHES:          0 LATE PREFETCHES: 0 DROPPED PREFETCHES: 0
DTLB AVERAGE MISS LATENCY: 10.8473 cycles
STLB TOTAL     ACCESS: 6524053  HIT: 6429586  MISS: 94467  HIT %: 98.552  MISS %: 1.44798  AVERAGE MISS PENALTY: 100
STLB LOAD      ACCESS: 6222085  HIT: 6145190  MISS: 76895  HIT %: 98.7642  MISS %: 1.23584  AVERAGE MISS PENALTY: 100
STLB RFO       ACCESS: 301968  HIT: 284396  MISS: 17572  HIT %: 94.1808  MISS %: 5.81916  AVERAGE MISS PENALTY: 100
STLB PREFETCH  ACCESS:     0  HIT:     0  MISS:     0  HIT %:     0  MISS %:     0  AVERAGE MISS PENALTY: 0
STLB WRITEBACK ACCESS:     0  HIT:     0  MISS:     0  HIT %:     0  MISS %:     0  AVERAGE MISS PENALTY: 0
STLB PREFETCH  REQUESTED:     0  ISSUED:     0  USEFUL:     0  USELESS:     0
 USEFUL LOAD PREFETCHES:          0 PREFETCH ISSUED TO LOWER LEVEL:          0  ACCURACY: -nan
 TIMELY PREFETCHES:          0 LATE PREFETCHES: 0 DROPPED PREFETCHES: 0
STLB AVERAGE MISS LATENCY: 100 cycles
L1D TOTAL     ACCESS: 84866876  HIT: 42540152  MISS: 42326724  HIT %: 50.1257  MISS %: 49.8743  AVERAGE MISS PENALTY: 747097
L1D LOAD      ACCESS: 46025194  HIT: 36210874  MISS: 9814320  HIT %: 78.6762  MISS %: 21.3238  AVERAGE MISS PENALTY: 3.22176e+06
L1D RFO       ACCESS: 1063958  HIT: 739884  MISS: 324074  HIT %: 69.5407  MISS %: 30.4593  AVERAGE MISS PENALTY: 72.3131
L1D PREFETCH  ACCESS: 37777724  HIT: 5589394  MISS: 32188330  HIT %: 14.7955  MISS %: 85.2045  AVERAGE MISS PENALTY: 84.4147
L1D WRITEBACK ACCESS:     0  HIT:     0  MISS:     0  HIT %:     0  MISS %:     0  AVERAGE MISS PENALTY: 0
L1D PREFETCH  REQUESTED: 60680163  ISSUED: 38928030  USEFUL: 1265111  USELESS: 30923211
 USEFUL LOAD PREFETCHES:    1265111 PREFETCH ISSUED TO LOWER LEVEL:   97023091  ACCURACY: 1.30393
 TIMELY PREFETCHES:    1265111 LATE PREFETCHES: 314224 DROPPED PREFETCHES: 21752133
L1D AVERAGE MISS LATENCY: 46.7202 cycles
L1I TOTAL     ACCESS: 45128652  HIT: 45128652  MISS:     0  HIT %:   100  MISS %:     0  AVERAGE MISS PENALTY: 0
L1I LOAD      ACCESS: 45128652  HIT: 45128652  MISS:     0  HIT %:   100  MISS %:     0  AVERAGE MISS PENALTY: 0
L1I RFO       ACCESS:     0  HIT:     0  MISS:     0  HIT %:     0  MISS %:     0  AVERAGE MISS PENALTY: 0
L1I PREFETCH  ACCESS:     0  HIT:     0  MISS:     0  HIT %:     0  MISS %:     0  AVERAGE MISS PENALTY: 0
L1I WRITEBACK ACCESS:     0  HIT:     0  MISS:     0  HIT %:     0  MISS %:     0  AVERAGE MISS PENALTY: 0
L1I PREFETCH  REQUESTED:     0  ISSUED:     0  USEFUL:     0  USELESS:     0
 USEFUL LOAD PREFETCHES:          0 PREFETCH ISSUED TO LOWER LEVEL:          0  ACCURACY: -nan
 TIMELY PREFETCHES:          0 LATE PREFETCHES: 0 DROPPED PREFETCHES: 0
L1I AVERAGE MISS LATENCY: -nan cycles
L2C TOTAL     ACCESS: 78440643  HIT: 12464015  MISS: 65976628  HIT %: 15.8897  MISS %: 84.1103  AVERAGE MISS PENALTY: 425046
L2C LOAD      ACCESS: 9788900  HIT: 1159906  MISS: 8628994  HIT %: 11.8492  MISS %: 88.1508  AVERAGE MISS PENALTY: 3.24961e+06
L2C RFO       ACCESS: 324066  HIT: 87776  MISS: 236290  HIT %: 27.0858  MISS %: 72.9142  AVERAGE MISS PENALTY: 78.2333
L2C PREFETCH  ACCESS: 67427276  HIT: 10316373  MISS: 57110903  HIT %:  15.3  MISS %:  84.7  AVERAGE MISS PENALTY: 39.2338
L2C WRITEBACK ACCESS: 900401  HIT: 899960  MISS:   441  HIT %: 99.951  MISS %: 0.0489782  AVERAGE MISS PENALTY: 0
L2C PREFETCH  REQUESTED: 142820662  ISSUED: 131336383  USEFUL: 524377  USELESS: 56586532
 USEFUL LOAD PREFETCHES:     524377 PREFETCH ISSUED TO LOWER LEVEL:   60668313  ACCURACY: 0.864334
 TIMELY PREFETCHES:     524377 LATE PREFETCHES: 631936 DROPPED PREFETCHES: 11484279
L2C AVERAGE MISS LATENCY: 37.2035 cycles
LLC0 TOTAL     ACCESS: 8475983  HIT: 8282248  MISS: 193735  HIT %: 97.7143  MISS %: 2.28569  AVERAGE MISS PENALTY: 114.258
LLC0 LOAD      ACCESS: 1105782  HIT: 1076715  MISS: 29067  HIT %: 97.3714  MISS %: 2.62864  AVERAGE MISS PENALTY: 142.291
LLC0 RFO       ACCESS: 29635  HIT: 24712  MISS:  4923  HIT %: 83.3879  MISS %: 16.6121  AVERAGE MISS PENALTY: 259.921
LLC0 PREFETCH  ACCESS: 7255746  HIT: 7096049  MISS: 159697  HIT %: 97.799  MISS %: 2.20097  AVERAGE MISS PENALTY: 104.7
LLC0 WRITEBACK ACCESS: 84820  HIT: 84772  MISS:    48  HIT %: 99.9434  MISS %: 0.0565904  AVERAGE MISS PENALTY: 0
LLC0 PREFETCH  REQUESTED:     0  ISSUED:     0  USEFUL:  6789  USELESS: 148581
 USEFUL LOAD PREFETCHES:       6789 PREFETCH ISSUED TO LOWER LEVEL:     159697  ACCURACY: 4.25118
 TIMELY PREFETCHES:       6789 LATE PREFETCHES: 0 DROPPED PREFETCHES: 0
LLC0 AVERAGE MISS LATENCY: 114.258 cycles
Deadblocks : 26887 Deadblock percentage : 92.5001

LLC1 TOTAL     ACCESS: 8462853  HIT: 8268549  MISS: 194304  HIT %: 97.704  MISS %: 2.29596  AVERAGE MISS PENALTY: 114.49
LLC1 LOAD      ACCESS: 1052414  HIT: 1041735  MISS: 10679  HIT %: 98.9853  MISS %: 1.01471  AVERAGE MISS PENALTY: 169.757
LLC1 RFO       ACCESS: 29596  HIT: 24725  MISS:  4871  HIT %: 83.5417  MISS %: 16.4583  AVERAGE MISS PENALTY: 260.611
LLC1 PREFETCH  ACCESS: 7294351  HIT: 7115642  MISS: 178709  HIT %: 97.55  MISS %: 2.44996  AVERAGE MISS PENALTY: 107.233
LLC1 WRITEBACK ACCESS: 86492  HIT: 86447  MISS:    45  HIT %: 99.948  MISS %: 0.0520279  AVERAGE MISS PENALTY: 0
LLC1 PREFETCH  REQUESTED:     0  ISSUED:     0  USEFUL:  6922  USELESS: 166711
 USEFUL LOAD PREFETCHES:       6922 PREFETCH ISSUED TO LOWER LEVEL:     178710  ACCURACY: 3.87331
 TIMELY PREFETCHES:       6922 LATE PREFETCHES: 0 DROPPED PREFETCHES: 0
LLC1 AVERAGE MISS LATENCY: 114.49 cycles
LLC2 TOTAL     ACCESS: 8465869  HIT: 8270540  MISS: 195329  HIT %: 97.6927  MISS %: 2.30725  AVERAGE MISS PENALTY: 115.621
LLC2 LOAD      ACCESS: 1073640  HIT: 1062921  MISS: 10719  HIT %: 99.0016  MISS %: 0.998379  AVERAGE MISS PENALTY: 170.062
LLC2 RFO       ACCESS: 29775  HIT: 24852  MISS:  4923  HIT %: 83.466  MISS %: 16.534  AVERAGE MISS PENALTY: 258.763
LLC2 PREFETCH  ACCESS: 7275606  HIT: 7095966  MISS: 179640  HIT %: 97.5309  MISS %: 2.46907  AVERAGE MISS PENALTY: 108.48
LLC2 WRITEBACK ACCESS: 86848  HIT: 86801  MISS:    47  HIT %: 99.9459  MISS %: 0.0541175  AVERAGE MISS PENALTY: 0
LLC2 PREFETCH  REQUESTED:     0  ISSUED:     0  USEFUL:  7311  USELESS: 167464
 USEFUL LOAD PREFETCHES:       7311 PREFETCH ISSUED TO LOWER LEVEL:     179640  ACCURACY: 4.06981
 TIMELY PREFETCHES:       7311 LATE PREFETCHES: 0 DROPPED PREFETCHES: 0
LLC2 AVERAGE MISS LATENCY: 115.621 cycles
LLC3 TOTAL     ACCESS: 8436176  HIT: 8239575  MISS: 196601  HIT %: 97.6695  MISS %: 2.33045  AVERAGE MISS PENALTY: 117.298
LLC3 LOAD      ACCESS: 1084529  HIT: 1073629  MISS: 10900  HIT %: 98.995  MISS %: 1.00504  AVERAGE MISS PENALTY: 170.654
LLC3 RFO       ACCESS: 29685  HIT: 24708  MISS:  4977  HIT %: 83.234  MISS %: 16.766  AVERAGE MISS PENALTY: 261.09
LLC3 PREFETCH  ACCESS: 7235508  HIT: 7054830  MISS: 180678  HIT %: 97.5029  MISS %: 2.4971  AVERAGE MISS PENALTY: 110.148
LLC3 WRITEBACK ACCESS: 86454  HIT: 86408  MISS:    46  HIT %: 99.9468  MISS %: 0.0532075  AVERAGE MISS PENALTY: 0
LLC3 PREFETCH  REQUESTED:     0  ISSUED:     0  USEFUL:  7914  USELESS: 168129
 USEFUL LOAD PREFETCHES:       7914 PREFETCH ISSUED TO LOWER LEVEL:     180678  ACCURACY: 4.38017
 TIMELY PREFETCHES:       7914 LATE PREFETCHES: 0 DROPPED PREFETCHES: 0
LLC3 AVERAGE MISS LATENCY: 117.298 cycles
LLC4 TOTAL     ACCESS: 8369070  HIT: 8171814  MISS: 197256  HIT %: 97.643  MISS %: 2.35696  AVERAGE MISS PENALTY: 117.968
LLC4 LOAD      ACCESS: 1071602  HIT: 1060634  MISS: 10968  HIT %: 98.9765  MISS %: 1.02351  AVERAGE MISS PENALTY: 171.468
LLC4 RFO       ACCESS: 29709  HIT: 24756  MISS:  4953  HIT %: 83.3283  MISS %: 16.6717  AVERAGE MISS PENALTY: 258.119
LLC4 PREFETCH  ACCESS: 7181258  HIT: 6999966  MISS: 181292  HIT %: 97.4755  MISS %: 2.52452  AVERAGE MISS PENALTY: 110.93
LLC4 WRITEBACK ACCESS: 86501  HIT: 86458  MISS:    43  HIT %: 99.9503  MISS %: 0.0497104  AVERAGE MISS PENALTY: 0
LLC4 PREFETCH  REQUESTED:     0  ISSUED:     0  USEFUL:  8062  USELESS: 168495
 USEFUL LOAD PREFETCHES:       8062 PREFETCH ISSUED TO LOWER LEVEL:     181292  ACCURACY: 4.44697
 TIMELY PREFETCHES:       8062 LATE PREFETCHES: 0 DROPPED PREFETCHES: 0
LLC4 AVERAGE MISS LATENCY: 117.968 cycles
LLC5 TOTAL     ACCESS: 8279805  HIT: 8080922  MISS: 198883  HIT %: 97.598  MISS %: 2.40203  AVERAGE MISS PENALTY: 119.365
LLC5 LOAD      ACCESS: 1072758  HIT: 1061515  MISS: 11243  HIT %: 98.952  MISS %: 1.04805  AVERAGE MISS PENALTY: 172.12
LLC5 RFO       ACCESS: 29633  HIT: 24735  MISS:  4898  HIT %: 83.4711  MISS %: 16.5289  AVERAGE MISS PENALTY: 258.031
LLC5 PREFETCH  ACCESS: 7091667  HIT: 6908973  MISS: 182694  HIT %: 97.4238  MISS %: 2.57618  AVERAGE MISS PENALTY: 112.433
LLC5 WRITEBACK ACCESS: 85747  HIT: 85699  MISS:    48  HIT %: 99.944  MISS %: 0.0559786  AVERAGE MISS PENALTY: 0
LLC5 PREFETCH  REQUESTED:     0  ISSUED:     0  USEFUL:  9161  USELESS: 168947
 USEFUL LOAD PREFETCHES:       9161 PREFETCH ISSUED TO LOWER LEVEL:     182694  ACCURACY: 5.0144
 TIMELY PREFETCHES:       9161 LATE PREFETCHES: 0 DROPPED PREFETCHES: 0
LLC5 AVERAGE MISS LATENCY: 119.365 cycles
LLC6 TOTAL     ACCESS: 8157486  HIT: 7956212  MISS: 201274  HIT %: 97.5326  MISS %: 2.46735  AVERAGE MISS PENALTY: 121.512
LLC6 LOAD      ACCESS: 1069741  HIT: 1058108  MISS: 11633  HIT %: 98.9125  MISS %: 1.08746  AVERAGE MISS PENALTY: 173.253
LLC6 RFO       ACCESS: 29291  HIT: 24326  MISS:  4965  HIT %: 83.0494  MISS %: 16.9506  AVERAGE MISS PENALTY: 261.393
LLC6 PREFETCH  ACCESS: 6972864  HIT: 6788240  MISS: 184624  HIT %: 97.3523  MISS %: 2.64775  AVERAGE MISS PENALTY: 114.524
LLC6 WRITEBACK ACCESS: 85590  HIT: 85538  MISS:    52  HIT %: 99.9392  MISS %: 0.0607548  AVERAGE MISS PENALTY: 0
LLC6 PREFETCH  REQUESTED:     0  ISSUED:     0  USEFUL: 10521  USELESS: 169470
 USEFUL LOAD PREFETCHES:      10521 PREFETCH ISSUED TO LOWER LEVEL:     184624  ACCURACY: 5.69861
 TIMELY PREFETCHES:      10521 LATE PREFETCHES: 0 DROPPED PREFETCHES: 0
LLC6 AVERAGE MISS LATENCY: 121.512 cycles
LLC7 TOTAL     ACCESS: 8015912  HIT: 7812199  MISS: 203713  HIT %: 97.4586  MISS %: 2.54136  AVERAGE MISS PENALTY: 123.644
LLC7 LOAD      ACCESS: 1063686  HIT: 1051339  MISS: 12347  HIT %: 98.8392  MISS %: 1.16077  AVERAGE MISS PENALTY: 174.207
LLC7 RFO       ACCESS: 28954  HIT: 23973  MISS:  4981  HIT %: 82.7969  MISS %: 17.2031  AVERAGE MISS PENALTY: 258.075
LLC7 PREFETCH  ACCESS: 6838744  HIT: 6652417  MISS: 186327  HIT %: 97.2754  MISS %: 2.72458  AVERAGE MISS PENALTY: 116.738
LLC7 WRITEBACK ACCESS: 84528  HIT: 84470  MISS:    58  HIT %: 99.9314  MISS %: 0.0686163  AVERAGE MISS PENALTY: 0
LLC7 PREFETCH  REQUESTED:     0  ISSUED:     0  USEFUL: 11953  USELESS: 170038
 USEFUL LOAD PREFETCHES:      11953 PREFETCH ISSUED TO LOWER LEVEL:     186327  ACCURACY: 6.41507
 TIMELY PREFETCHES:      11953 LATE PREFETCHES: 0 DROPPED PREFETCHES: 0
LLC7 AVERAGE MISS LATENCY: 123.644 cycles
ROI Average ROB Stall Cycles:	7.33947
ROI Total ROB Stalls Cycles:	246142629
ROI TOTAL ROB counter      :	33536851
ROI Average Load ROB Stall Cycles:	29.8907
ROI Total Load ROB Stalls Cycle  :	158708511
ROI Total Load ROB stalls Counter:	5309632
Major fault: 0 Minor fault: 58148

