
*** ChampSim Multicore Out-of-Order Simulator ***

Warmup Instructions: 200000000
Simulation Instructions: 200000000
Number of CPUs: 8
threads:1

L1I Configuration:
L1I_SET:64
L1I_WAY:8
L1I_RQ_SIZE:64
L1I_WQ_SIZE:64
L1I_PQ_SIZE:8
L1I_MSHR_SIZE:8

L1D Configuration:
L1D_SET:64
L1D_WAY:12
L1D_RQ_SIZE:64
L1D_WQ_SIZE:64
L1D_PQ_SIZE:8
L1D_MSHR_SIZE:16

L2C Configuration:
L2C_SET:1024
L2C_WAY:8
L2C_RQ_SIZE:32
L2C_WQ_SIZE:32
L2C_PQ_SIZE:16
L2C_MSHR_SIZE:32

LLC Configuration:
LLC_SET:2048
LLC_WAY:16
LLC SLICES:8
LLC_RQ_SIZE:64
LLC_WQ_SIZE:64
LLC_PQ_SIZE:32
LLC_MSHR_SIZE:64

Interconnect OFF
Attacker deprioritize is: OFF
Off-chip DRAM Size: 8192 MB Channels: 2 Width: 64-bit Data Rate: 3200 MT/s
PAGE SIZE in KB: 4.000000 
PAGE SIZE in MB: 0.003906 
PAGE offset in bits: 12 
CEASER-S_LLC:0
MIRAGE : 0
CEASER_LATENCY:3
REMAP : OFF
Partitions : 1
Multi-Step : OFF
BFS : OFF

CPU 0 runs /home/anubhav/gap/bc-0.trace.gz
CPU 1 runs /home/anubhav/gap/bc-0.trace.gz
CPU 2 runs /home/anubhav/gap/bc-0.trace.gz
CPU 3 runs /home/anubhav/gap/bc-0.trace.gz
CPU 4 runs /home/anubhav/gap/bc-0.trace.gz
CPU 5 runs /home/anubhav/gap/bc-0.trace.gz
CPU 6 runs /home/anubhav/gap/bc-0.trace.gz
CPU 7 runs /home/anubhav/gap/bc-0.trace.gz
CPU 0 Bimodal branch predictor
Initialize Hawkeye state
Initialize Hawkeye state
Initialize Hawkeye state
Initialize Hawkeye state
Initialize Hawkeye state
Initialize Hawkeye state
Initialize Hawkeye state
Initialize Hawkeye state
CPU 1 Bimodal branch predictor
Initialize Hawkeye state
Initialize Hawkeye state
Initialize Hawkeye state
Initialize Hawkeye state
Initialize Hawkeye state
Initialize Hawkeye state
Initialize Hawkeye state
Initialize Hawkeye state
CPU 2 Bimodal branch predictor
Initialize Hawkeye state
Initialize Hawkeye state
Initialize Hawkeye state
Initialize Hawkeye state
Initialize Hawkeye state
Initialize Hawkeye state
Initialize Hawkeye state
Initialize Hawkeye state
CPU 3 Bimodal branch predictor
Initialize Hawkeye state
Initialize Hawkeye state
Initialize Hawkeye state
Initialize Hawkeye state
Initialize Hawkeye state
Initialize Hawkeye state
Initialize Hawkeye state
Initialize Hawkeye state
CPU 4 Bimodal branch predictor
Initialize Hawkeye state
Initialize Hawkeye state
Initialize Hawkeye state
Initialize Hawkeye state
Initialize Hawkeye state
Initialize Hawkeye state
Initialize Hawkeye state
Initialize Hawkeye state
CPU 5 Bimodal branch predictor
Initialize Hawkeye state
Initialize Hawkeye state
Initialize Hawkeye state
Initialize Hawkeye state
Initialize Hawkeye state
Initialize Hawkeye state
Initialize Hawkeye state
Initialize Hawkeye state
CPU 6 Bimodal branch predictor
Initialize Hawkeye state
Initialize Hawkeye state
Initialize Hawkeye state
Initialize Hawkeye state
Initialize Hawkeye state
Initialize Hawkeye state
Initialize Hawkeye state
Initialize Hawkeye state
CPU 7 Bimodal branch predictor
Initialize Hawkeye state
Initialize Hawkeye state
Initialize Hawkeye state
Initialize Hawkeye state
Initialize Hawkeye state
Initialize Hawkeye state
Initialize Hawkeye state
Initialize Hawkeye state
Heartbeat CPU 0 instructions: 10000002 cycles: 10590683 heartbeat IPC: 0.944226 cumulative IPC: 0.944226 (Simulation time: 0 hr 25 min 33 sec) 
 Total Blocks : 262144 Invalid Blocks : 0
Heartbeat CPU 1 instructions: 10000002 cycles: 10592108 heartbeat IPC: 0.944099 cumulative IPC: 0.944099 (Simulation time: 0 hr 25 min 33 sec) 
 Total Blocks : 262144 Invalid Blocks : 0
Heartbeat CPU 2 instructions: 10000002 cycles: 10592206 heartbeat IPC: 0.944091 cumulative IPC: 0.944091 (Simulation time: 0 hr 25 min 34 sec) 
 Total Blocks : 262144 Invalid Blocks : 0
Heartbeat CPU 3 instructions: 10000002 cycles: 10592981 heartbeat IPC: 0.944022 cumulative IPC: 0.944022 (Simulation time: 0 hr 25 min 34 sec) 
 Total Blocks : 262144 Invalid Blocks : 0
Heartbeat CPU 4 instructions: 10000002 cycles: 10593788 heartbeat IPC: 0.94395 cumulative IPC: 0.94395 (Simulation time: 0 hr 25 min 34 sec) 
 Total Blocks : 262144 Invalid Blocks : 0
Heartbeat CPU 5 instructions: 10000002 cycles: 10594674 heartbeat IPC: 0.943871 cumulative IPC: 0.943871 (Simulation time: 0 hr 25 min 34 sec) 
 Total Blocks : 262144 Invalid Blocks : 0
Heartbeat CPU 6 instructions: 10000002 cycles: 10595122 heartbeat IPC: 0.943831 cumulative IPC: 0.943831 (Simulation time: 0 hr 25 min 34 sec) 
 Total Blocks : 262144 Invalid Blocks : 0
Heartbeat CPU 7 instructions: 10000002 cycles: 10596093 heartbeat IPC: 0.943744 cumulative IPC: 0.943744 (Simulation time: 0 hr 25 min 34 sec) 
 Total Blocks : 262144 Invalid Blocks : 0
Heartbeat CPU 0 instructions: 20000001 cycles: 23888132 heartbeat IPC: 0.752024 cumulative IPC: 0.837236 (Simulation time: 0 hr 45 min 40 sec) 
 Total Blocks : 262144 Invalid Blocks : 0
Heartbeat CPU 1 instructions: 20000001 cycles: 23893400 heartbeat IPC: 0.751807 cumulative IPC: 0.837051 (Simulation time: 0 hr 45 min 40 sec) 
 Total Blocks : 262144 Invalid Blocks : 0
Heartbeat CPU 2 instructions: 20000001 cycles: 23894749 heartbeat IPC: 0.751736 cumulative IPC: 0.837004 (Simulation time: 0 hr 45 min 40 sec) 
 Total Blocks : 262144 Invalid Blocks : 0
Heartbeat CPU 3 instructions: 20000001 cycles: 23896428 heartbeat IPC: 0.751685 cumulative IPC: 0.836945 (Simulation time: 0 hr 45 min 40 sec) 
 Total Blocks : 262144 Invalid Blocks : 0
Heartbeat CPU 4 instructions: 20000001 cycles: 23900315 heartbeat IPC: 0.751511 cumulative IPC: 0.836809 (Simulation time: 0 hr 45 min 41 sec) 
 Total Blocks : 262144 Invalid Blocks : 0
Heartbeat CPU 5 instructions: 20000001 cycles: 23904301 heartbeat IPC: 0.751336 cumulative IPC: 0.83667 (Simulation time: 0 hr 45 min 41 sec) 
 Total Blocks : 262144 Invalid Blocks : 0
Heartbeat CPU 6 instructions: 20000001 cycles: 23906578 heartbeat IPC: 0.751233 cumulative IPC: 0.83659 (Simulation time: 0 hr 45 min 41 sec) 
 Total Blocks : 262144 Invalid Blocks : 0
Heartbeat CPU 7 instructions: 20000001 cycles: 23909290 heartbeat IPC: 0.751134 cumulative IPC: 0.836495 (Simulation time: 0 hr 45 min 42 sec) 
 Total Blocks : 262144 Invalid Blocks : 0
Heartbeat CPU 0 instructions: 30000000 cycles: 36615137 heartbeat IPC: 0.785731 cumulative IPC: 0.819333 (Simulation time: 1 hr 7 min 41 sec) 
 Total Blocks : 262144 Invalid Blocks : 0
Heartbeat CPU 1 instructions: 30000000 cycles: 36623784 heartbeat IPC: 0.785522 cumulative IPC: 0.81914 (Simulation time: 1 hr 7 min 43 sec) 
 Total Blocks : 262144 Invalid Blocks : 0
Heartbeat CPU 2 instructions: 30000000 cycles: 36626915 heartbeat IPC: 0.785412 cumulative IPC: 0.81907 (Simulation time: 1 hr 7 min 43 sec) 
 Total Blocks : 262144 Invalid Blocks : 0
Heartbeat CPU 3 instructions: 30000000 cycles: 36630561 heartbeat IPC: 0.785291 cumulative IPC: 0.818988 (Simulation time: 1 hr 7 min 44 sec) 
 Total Blocks : 262144 Invalid Blocks : 0
Heartbeat CPU 4 instructions: 30000000 cycles: 36637687 heartbeat IPC: 0.785091 cumulative IPC: 0.818829 (Simulation time: 1 hr 7 min 45 sec) 
 Total Blocks : 262144 Invalid Blocks : 0
Heartbeat CPU 5 instructions: 30000000 cycles: 36644406 heartbeat IPC: 0.784923 cumulative IPC: 0.818679 (Simulation time: 1 hr 7 min 46 sec) 
 Total Blocks : 262144 Invalid Blocks : 0
Heartbeat CPU 6 instructions: 30000000 cycles: 36649850 heartbeat IPC: 0.784728 cumulative IPC: 0.818557 (Simulation time: 1 hr 7 min 46 sec) 
 Total Blocks : 262144 Invalid Blocks : 0
Heartbeat CPU 7 instructions: 30000000 cycles: 36654436 heartbeat IPC: 0.784612 cumulative IPC: 0.818455 (Simulation time: 1 hr 7 min 47 sec) 
 Total Blocks : 262144 Invalid Blocks : 0
Heartbeat CPU 0 instructions: 40000001 cycles: 49115116 heartbeat IPC: 0.800001 cumulative IPC: 0.814413 (Simulation time: 1 hr 30 min 49 sec) 
 Total Blocks : 262144 Invalid Blocks : 0
Heartbeat CPU 1 instructions: 40000001 cycles: 49127191 heartbeat IPC: 0.799782 cumulative IPC: 0.814213 (Simulation time: 1 hr 30 min 51 sec) 
 Total Blocks : 262144 Invalid Blocks : 0
Heartbeat CPU 2 instructions: 40000001 cycles: 49132442 heartbeat IPC: 0.799646 cumulative IPC: 0.814126 (Simulation time: 1 hr 30 min 51 sec) 
 Total Blocks : 262144 Invalid Blocks : 0
Heartbeat CPU 3 instructions: 40000001 cycles: 49137337 heartbeat IPC: 0.799567 cumulative IPC: 0.814045 (Simulation time: 1 hr 30 min 52 sec) 
 Total Blocks : 262144 Invalid Blocks : 0
Heartbeat CPU 4 instructions: 40000001 cycles: 49147701 heartbeat IPC: 0.79936 cumulative IPC: 0.813873 (Simulation time: 1 hr 30 min 53 sec) 
 Total Blocks : 262144 Invalid Blocks : 0
Heartbeat CPU 5 instructions: 40000001 cycles: 49157368 heartbeat IPC: 0.799171 cumulative IPC: 0.813713 (Simulation time: 1 hr 30 min 55 sec) 
 Total Blocks : 262144 Invalid Blocks : 0
Heartbeat CPU 6 instructions: 40000001 cycles: 49165203 heartbeat IPC: 0.799019 cumulative IPC: 0.813584 (Simulation time: 1 hr 30 min 56 sec) 
 Total Blocks : 262144 Invalid Blocks : 0
Heartbeat CPU 7 instructions: 40000001 cycles: 49171447 heartbeat IPC: 0.798913 cumulative IPC: 0.81348 (Simulation time: 1 hr 30 min 57 sec) 
 Total Blocks : 262144 Invalid Blocks : 0
Heartbeat CPU 0 instructions: 50000000 cycles: 61487394 heartbeat IPC: 0.808259 cumulative IPC: 0.813175 (Simulation time: 1 hr 53 min 30 sec) 
 Total Blocks : 262144 Invalid Blocks : 0
Heartbeat CPU 1 instructions: 50000000 cycles: 61503272 heartbeat IPC: 0.80801 cumulative IPC: 0.812965 (Simulation time: 1 hr 53 min 33 sec) 
 Total Blocks : 262144 Invalid Blocks : 0
Heartbeat CPU 2 instructions: 50000000 cycles: 61511044 heartbeat IPC: 0.807846 cumulative IPC: 0.812862 (Simulation time: 1 hr 53 min 34 sec) 
 Total Blocks : 262144 Invalid Blocks : 0
Heartbeat CPU 3 instructions: 50000000 cycles: 61517211 heartbeat IPC: 0.807763 cumulative IPC: 0.812781 (Simulation time: 1 hr 53 min 35 sec) 
 Total Blocks : 262144 Invalid Blocks : 0
Heartbeat CPU 4 instructions: 50000000 cycles: 61530358 heartbeat IPC: 0.807581 cumulative IPC: 0.812607 (Simulation time: 1 hr 53 min 37 sec) 
 Total Blocks : 262144 Invalid Blocks : 0
Heartbeat CPU 5 instructions: 50000000 cycles: 61542929 heartbeat IPC: 0.807392 cumulative IPC: 0.812441 (Simulation time: 1 hr 53 min 39 sec) 
 Total Blocks : 262144 Invalid Blocks : 0
Heartbeat CPU 6 instructions: 50000000 cycles: 61553253 heartbeat IPC: 0.807229 cumulative IPC: 0.812305 (Simulation time: 1 hr 53 min 41 sec) 
 Total Blocks : 262144 Invalid Blocks : 0
Heartbeat CPU 7 instructions: 50000000 cycles: 61561639 heartbeat IPC: 0.80709 cumulative IPC: 0.812194 (Simulation time: 1 hr 53 min 42 sec) 
 Total Blocks : 262144 Invalid Blocks : 0
Heartbeat CPU 0 instructions: 60000000 cycles: 73758809 heartbeat IPC: 0.814902 cumulative IPC: 0.813462 (Simulation time: 2 hr 17 min 8 sec) 
 Total Blocks : 262144 Invalid Blocks : 0
Heartbeat CPU 1 instructions: 60000000 cycles: 73778277 heartbeat IPC: 0.814664 cumulative IPC: 0.813248 (Simulation time: 2 hr 17 min 11 sec) 
 Total Blocks : 262144 Invalid Blocks : 0
Heartbeat CPU 2 instructions: 60000000 cycles: 73788048 heartbeat IPC: 0.814531 cumulative IPC: 0.81314 (Simulation time: 2 hr 17 min 12 sec) 
 Total Blocks : 262144 Invalid Blocks : 0
Heartbeat CPU 3 instructions: 60000000 cycles: 73796072 heartbeat IPC: 0.814408 cumulative IPC: 0.813051 (Simulation time: 2 hr 17 min 13 sec) 
 Total Blocks : 262144 Invalid Blocks : 0
Heartbeat CPU 4 instructions: 60000000 cycles: 73812518 heartbeat IPC: 0.814189 cumulative IPC: 0.81287 (Simulation time: 2 hr 17 min 14 sec) 
 Total Blocks : 262144 Invalid Blocks : 0
Heartbeat CPU 5 instructions: 60000000 cycles: 73827751 heartbeat IPC: 0.814013 cumulative IPC: 0.812703 (Simulation time: 2 hr 17 min 16 sec) 
 Total Blocks : 262144 Invalid Blocks : 0
Heartbeat CPU 6 instructions: 60000000 cycles: 73840708 heartbeat IPC: 0.813838 cumulative IPC: 0.81256 (Simulation time: 2 hr 17 min 16 sec) 
 Total Blocks : 262144 Invalid Blocks : 0
Heartbeat CPU 7 instructions: 60000000 cycles: 73850996 heartbeat IPC: 0.813712 cumulative IPC: 0.812447 (Simulation time: 2 hr 17 min 17 sec) 
 Total Blocks : 262144 Invalid Blocks : 0
Heartbeat CPU 0 instructions: 70000000 cycles: 85971555 heartbeat IPC: 0.818817 cumulative IPC: 0.814223 (Simulation time: 2 hr 42 min 19 sec) 
 Total Blocks : 262144 Invalid Blocks : 0
Heartbeat CPU 1 instructions: 70000000 cycles: 85994191 heartbeat IPC: 0.818604 cumulative IPC: 0.814008 (Simulation time: 2 hr 42 min 21 sec) 
 Total Blocks : 262144 Invalid Blocks : 0
Heartbeat CPU 2 instructions: 70000000 cycles: 86006447 heartbeat IPC: 0.818438 cumulative IPC: 0.813892 (Simulation time: 2 hr 42 min 22 sec) 
 Total Blocks : 262144 Invalid Blocks : 0
Heartbeat CPU 3 instructions: 70000000 cycles: 86015626 heartbeat IPC: 0.81836 cumulative IPC: 0.813806 (Simulation time: 2 hr 42 min 23 sec) 
 Total Blocks : 262144 Invalid Blocks : 0
Heartbeat CPU 4 instructions: 70000000 cycles: 86035536 heartbeat IPC: 0.818129 cumulative IPC: 0.813617 (Simulation time: 2 hr 42 min 25 sec) 
 Total Blocks : 262144 Invalid Blocks : 0
Heartbeat CPU 5 instructions: 70000000 cycles: 86053596 heartbeat IPC: 0.817939 cumulative IPC: 0.813447 (Simulation time: 2 hr 42 min 26 sec) 
 Total Blocks : 262144 Invalid Blocks : 0
Heartbeat CPU 6 instructions: 70000000 cycles: 86068711 heartbeat IPC: 0.817795 cumulative IPC: 0.813304 (Simulation time: 2 hr 42 min 28 sec) 
 Total Blocks : 262144 Invalid Blocks : 0
Heartbeat CPU 7 instructions: 70000000 cycles: 86080461 heartbeat IPC: 0.817697 cumulative IPC: 0.813193 (Simulation time: 2 hr 42 min 29 sec) 
 Total Blocks : 262144 Invalid Blocks : 0
Heartbeat CPU 0 instructions: 80000000 cycles: 98040346 heartbeat IPC: 0.828583 cumulative IPC: 0.815991 (Simulation time: 3 hr 8 min 29 sec) 
 Total Blocks : 262144 Invalid Blocks : 0
Heartbeat CPU 1 instructions: 80000000 cycles: 98067083 heartbeat IPC: 0.828302 cumulative IPC: 0.815768 (Simulation time: 3 hr 8 min 33 sec) 
 Total Blocks : 262144 Invalid Blocks : 0
Heartbeat CPU 2 instructions: 80000000 cycles: 98081350 heartbeat IPC: 0.828164 cumulative IPC: 0.815649 (Simulation time: 3 hr 8 min 36 sec) 
 Total Blocks : 262144 Invalid Blocks : 0
Heartbeat CPU 3 instructions: 80000000 cycles: 98091950 heartbeat IPC: 0.828067 cumulative IPC: 0.815561 (Simulation time: 3 hr 8 min 38 sec) 
 Total Blocks : 262144 Invalid Blocks : 0
Heartbeat CPU 4 instructions: 80000000 cycles: 98115308 heartbeat IPC: 0.82783 cumulative IPC: 0.815367 (Simulation time: 3 hr 8 min 41 sec) 
 Total Blocks : 262144 Invalid Blocks : 0
Heartbeat CPU 5 instructions: 80000000 cycles: 98137140 heartbeat IPC: 0.827572 cumulative IPC: 0.815186 (Simulation time: 3 hr 8 min 44 sec) 
 Total Blocks : 262144 Invalid Blocks : 0
Heartbeat CPU 6 instructions: 80000000 cycles: 98154637 heartbeat IPC: 0.827409 cumulative IPC: 0.81504 (Simulation time: 3 hr 8 min 46 sec) 
 Total Blocks : 262144 Invalid Blocks : 0
Heartbeat CPU 7 instructions: 80000000 cycles: 98168052 heartbeat IPC: 0.827295 cumulative IPC: 0.814929 (Simulation time: 3 hr 8 min 48 sec) 
 Total Blocks : 262144 Invalid Blocks : 0
Heartbeat CPU 0 instructions: 90000001 cycles: 110167476 heartbeat IPC: 0.824597 cumulative IPC: 0.816938 (Simulation time: 3 hr 36 min 1 sec) 
 Total Blocks : 262144 Invalid Blocks : 0
Heartbeat CPU 1 instructions: 90000001 cycles: 110198492 heartbeat IPC: 0.824307 cumulative IPC: 0.816708 (Simulation time: 3 hr 36 min 7 sec) 
 Total Blocks : 262144 Invalid Blocks : 0
Heartbeat CPU 2 instructions: 90000001 cycles: 110215218 heartbeat IPC: 0.82414 cumulative IPC: 0.816584 (Simulation time: 3 hr 36 min 10 sec) 
 Total Blocks : 262144 Invalid Blocks : 0
Heartbeat CPU 3 instructions: 90000001 cycles: 110227529 heartbeat IPC: 0.824023 cumulative IPC: 0.816493 (Simulation time: 3 hr 36 min 11 sec) 
 Total Blocks : 262144 Invalid Blocks : 0
Heartbeat CPU 4 instructions: 90000001 cycles: 110254330 heartbeat IPC: 0.82379 cumulative IPC: 0.816294 (Simulation time: 3 hr 36 min 15 sec) 
 Total Blocks : 262144 Invalid Blocks : 0
Heartbeat CPU 5 instructions: 90000001 cycles: 110279124 heartbeat IPC: 0.823589 cumulative IPC: 0.816111 (Simulation time: 3 hr 36 min 19 sec) 
 Total Blocks : 262144 Invalid Blocks : 0
Heartbeat CPU 6 instructions: 90000001 cycles: 110299041 heartbeat IPC: 0.823425 cumulative IPC: 0.815964 (Simulation time: 3 hr 36 min 23 sec) 
 Total Blocks : 262144 Invalid Blocks : 0
Heartbeat CPU 7 instructions: 90000001 cycles: 110314781 heartbeat IPC: 0.823267 cumulative IPC: 0.815847 (Simulation time: 3 hr 36 min 25 sec) 
 Total Blocks : 262144 Invalid Blocks : 0
Heartbeat CPU 0 instructions: 100000000 cycles: 122160842 heartbeat IPC: 0.833794 cumulative IPC: 0.818593 (Simulation time: 4 hr 4 min 48 sec) 
 Total Blocks : 262144 Invalid Blocks : 0
Heartbeat CPU 1 instructions: 100000000 cycles: 122195653 heartbeat IPC: 0.83353 cumulative IPC: 0.81836 (Simulation time: 4 hr 4 min 52 sec) 
 Total Blocks : 262144 Invalid Blocks : 0
Heartbeat CPU 2 instructions: 100000000 cycles: 122214934 heartbeat IPC: 0.833353 cumulative IPC: 0.818231 (Simulation time: 4 hr 4 min 53 sec) 
 Total Blocks : 262144 Invalid Blocks : 0
Heartbeat CPU 3 instructions: 100000000 cycles: 122229363 heartbeat IPC: 0.833206 cumulative IPC: 0.818134 (Simulation time: 4 hr 4 min 54 sec) 
 Total Blocks : 262144 Invalid Blocks : 0
Heartbeat CPU 4 instructions: 100000000 cycles: 122259023 heartbeat IPC: 0.833007 cumulative IPC: 0.817936 (Simulation time: 4 hr 4 min 57 sec) 
 Total Blocks : 262144 Invalid Blocks : 0
Heartbeat CPU 5 instructions: 100000000 cycles: 122287291 heartbeat IPC: 0.832766 cumulative IPC: 0.817746 (Simulation time: 4 hr 4 min 59 sec) 
 Total Blocks : 262144 Invalid Blocks : 0
Heartbeat CPU 6 instructions: 100000000 cycles: 122309662 heartbeat IPC: 0.832596 cumulative IPC: 0.817597 (Simulation time: 4 hr 5 min 1 sec) 
 Total Blocks : 262144 Invalid Blocks : 0
Heartbeat CPU 7 instructions: 100000000 cycles: 122327865 heartbeat IPC: 0.832426 cumulative IPC: 0.817475 (Simulation time: 4 hr 5 min 3 sec) 
 Total Blocks : 262144 Invalid Blocks : 0
Heartbeat CPU 0 instructions: 110000000 cycles: 134094131 heartbeat IPC: 0.837992 cumulative IPC: 0.820319 (Simulation time: 4 hr 30 min 18 sec) 
 Total Blocks : 262144 Invalid Blocks : 0
Heartbeat CPU 1 instructions: 110000000 cycles: 134133251 heartbeat IPC: 0.837689 cumulative IPC: 0.82008 (Simulation time: 4 hr 30 min 24 sec) 
 Total Blocks : 262144 Invalid Blocks : 0
Heartbeat CPU 2 instructions: 110000000 cycles: 134155609 heartbeat IPC: 0.837474 cumulative IPC: 0.819943 (Simulation time: 4 hr 30 min 27 sec) 
 Total Blocks : 262144 Invalid Blocks : 0
Heartbeat CPU 3 instructions: 110000000 cycles: 134171057 heartbeat IPC: 0.837402 cumulative IPC: 0.819849 (Simulation time: 4 hr 30 min 28 sec) 
 Total Blocks : 262144 Invalid Blocks : 0
Heartbeat CPU 4 instructions: 110000000 cycles: 134204673 heartbeat IPC: 0.837125 cumulative IPC: 0.819644 (Simulation time: 4 hr 30 min 32 sec) 
 Total Blocks : 262144 Invalid Blocks : 0
Heartbeat CPU 5 instructions: 110000000 cycles: 134237250 heartbeat IPC: 0.836823 cumulative IPC: 0.819445 (Simulation time: 4 hr 30 min 36 sec) 
 Total Blocks : 262144 Invalid Blocks : 0
Heartbeat CPU 6 instructions: 110000000 cycles: 134262497 heartbeat IPC: 0.836622 cumulative IPC: 0.819291 (Simulation time: 4 hr 30 min 39 sec) 
 Total Blocks : 262144 Invalid Blocks : 0
Heartbeat CPU 7 instructions: 110000000 cycles: 134283118 heartbeat IPC: 0.836452 cumulative IPC: 0.819165 (Simulation time: 4 hr 30 min 41 sec) 
 Total Blocks : 262144 Invalid Blocks : 0
Heartbeat CPU 0 instructions: 120000000 cycles: 145889494 heartbeat IPC: 0.847791 cumulative IPC: 0.82254 (Simulation time: 5 hr 3 min 31 sec) 
 Total Blocks : 262144 Invalid Blocks : 0
Heartbeat CPU 1 instructions: 120000000 cycles: 145933034 heartbeat IPC: 0.847473 cumulative IPC: 0.822295 (Simulation time: 5 hr 3 min 41 sec) 
 Total Blocks : 262144 Invalid Blocks : 0
Heartbeat CPU 2 instructions: 120000000 cycles: 145958457 heartbeat IPC: 0.847253 cumulative IPC: 0.822152 (Simulation time: 5 hr 3 min 47 sec) 
 Total Blocks : 262144 Invalid Blocks : 0
Heartbeat CPU 3 instructions: 120000000 cycles: 145974960 heartbeat IPC: 0.847177 cumulative IPC: 0.822059 (Simulation time: 5 hr 3 min 51 sec) 
 Total Blocks : 262144 Invalid Blocks : 0
Heartbeat CPU 4 instructions: 120000000 cycles: 146012143 heartbeat IPC: 0.846922 cumulative IPC: 0.821849 (Simulation time: 5 hr 4 min 0 sec) 
 Total Blocks : 262144 Invalid Blocks : 0
Heartbeat CPU 5 instructions: 120000000 cycles: 146049377 heartbeat IPC: 0.846588 cumulative IPC: 0.82164 (Simulation time: 5 hr 4 min 8 sec) 
 Total Blocks : 262144 Invalid Blocks : 0
Heartbeat CPU 6 instructions: 120000000 cycles: 146077703 heartbeat IPC: 0.846367 cumulative IPC: 0.821481 (Simulation time: 5 hr 4 min 13 sec) 
 Total Blocks : 262144 Invalid Blocks : 0
Heartbeat CPU 7 instructions: 120000000 cycles: 146100526 heartbeat IPC: 0.846209 cumulative IPC: 0.821352 (Simulation time: 5 hr 4 min 17 sec) 
 Total Blocks : 262144 Invalid Blocks : 0
Heartbeat CPU 0 instructions: 130000001 cycles: 157694646 heartbeat IPC: 0.847088 cumulative IPC: 0.824378 (Simulation time: 5 hr 40 min 49 sec) 
 Total Blocks : 262144 Invalid Blocks : 0
Heartbeat CPU 1 instructions: 130000001 cycles: 157742385 heartbeat IPC: 0.846787 cumulative IPC: 0.824129 (Simulation time: 5 hr 41 min 0 sec) 
 Total Blocks : 262144 Invalid Blocks : 0
Heartbeat CPU 2 instructions: 130000001 cycles: 157771687 heartbeat IPC: 0.846509 cumulative IPC: 0.823976 (Simulation time: 5 hr 41 min 7 sec) 
 Total Blocks : 262144 Invalid Blocks : 0
Heartbeat CPU 3 instructions: 130000001 cycles: 157788956 heartbeat IPC: 0.846454 cumulative IPC: 0.823885 (Simulation time: 5 hr 41 min 10 sec) 
 Total Blocks : 262144 Invalid Blocks : 0
Heartbeat CPU 4 instructions: 130000001 cycles: 157830052 heartbeat IPC: 0.846173 cumulative IPC: 0.823671 (Simulation time: 5 hr 41 min 17 sec) 
 Total Blocks : 262144 Invalid Blocks : 0
Heartbeat CPU 5 instructions: 130000001 cycles: 157871614 heartbeat IPC: 0.845864 cumulative IPC: 0.823454 (Simulation time: 5 hr 41 min 25 sec) 
 Total Blocks : 262144 Invalid Blocks : 0
Heartbeat CPU 6 instructions: 130000001 cycles: 157902861 heartbeat IPC: 0.845655 cumulative IPC: 0.823291 (Simulation time: 5 hr 41 min 31 sec) 
 Total Blocks : 262144 Invalid Blocks : 0
Heartbeat CPU 7 instructions: 130000001 cycles: 157928056 heartbeat IPC: 0.845485 cumulative IPC: 0.82316 (Simulation time: 5 hr 41 min 36 sec) 
 Total Blocks : 262144 Invalid Blocks : 0
Heartbeat CPU 0 instructions: 140000000 cycles: 169491764 heartbeat IPC: 0.847665 cumulative IPC: 0.825999 (Simulation time: 6 hr 19 min 50 sec) 
 Total Blocks : 262144 Invalid Blocks : 0
Heartbeat CPU 1 instructions: 140000000 cycles: 169543389 heartbeat IPC: 0.847385 cumulative IPC: 0.825747 (Simulation time: 6 hr 20 min 1 sec) 
 Total Blocks : 262144 Invalid Blocks : 0
Heartbeat CPU 2 instructions: 140000000 cycles: 169575938 heartbeat IPC: 0.847152 cumulative IPC: 0.825589 (Simulation time: 6 hr 20 min 7 sec) 
 Total Blocks : 262144 Invalid Blocks : 0
Heartbeat CPU 3 instructions: 140000000 cycles: 169594193 heartbeat IPC: 0.847082 cumulative IPC: 0.8255 (Simulation time: 6 hr 20 min 10 sec) 
 Total Blocks : 262144 Invalid Blocks : 0
Heartbeat CPU 4 instructions: 140000000 cycles: 169639372 heartbeat IPC: 0.846789 cumulative IPC: 0.82528 (Simulation time: 6 hr 20 min 19 sec) 
 Total Blocks : 262144 Invalid Blocks : 0
Heartbeat CPU 5 instructions: 140000000 cycles: 169685236 heartbeat IPC: 0.84648 cumulative IPC: 0.825057 (Simulation time: 6 hr 20 min 26 sec) 
 Total Blocks : 262144 Invalid Blocks : 0
Heartbeat CPU 6 instructions: 140000000 cycles: 169719725 heartbeat IPC: 0.846248 cumulative IPC: 0.824889 (Simulation time: 6 hr 20 min 32 sec) 
 Total Blocks : 262144 Invalid Blocks : 0
Heartbeat CPU 7 instructions: 140000000 cycles: 169746553 heartbeat IPC: 0.846131 cumulative IPC: 0.824759 (Simulation time: 6 hr 20 min 36 sec) 
 Total Blocks : 262144 Invalid Blocks : 0
Heartbeat CPU 0 instructions: 150000003 cycles: 181275315 heartbeat IPC: 0.848641 cumulative IPC: 0.827471 (Simulation time: 7 hr 0 min 47 sec) 
 Total Blocks : 262144 Invalid Blocks : 0
Heartbeat CPU 1 instructions: 150000003 cycles: 181331472 heartbeat IPC: 0.848315 cumulative IPC: 0.827214 (Simulation time: 7 hr 0 min 59 sec) 
 Total Blocks : 262144 Invalid Blocks : 0
Heartbeat CPU 2 instructions: 150000003 cycles: 181367213 heartbeat IPC: 0.848085 cumulative IPC: 0.827051 (Simulation time: 7 hr 1 min 6 sec) 
 Total Blocks : 262144 Invalid Blocks : 0
Heartbeat CPU 3 instructions: 150000003 cycles: 181387010 heartbeat IPC: 0.847974 cumulative IPC: 0.826961 (Simulation time: 7 hr 1 min 9 sec) 
 Total Blocks : 262144 Invalid Blocks : 0
Heartbeat CPU 4 instructions: 150000003 cycles: 181435960 heartbeat IPC: 0.847703 cumulative IPC: 0.826738 (Simulation time: 7 hr 1 min 19 sec) 
 Total Blocks : 262144 Invalid Blocks : 0
Heartbeat CPU 5 instructions: 150000003 cycles: 181485895 heartbeat IPC: 0.847411 cumulative IPC: 0.826511 (Simulation time: 7 hr 1 min 30 sec) 
 Total Blocks : 262144 Invalid Blocks : 0
Heartbeat CPU 6 instructions: 150000003 cycles: 181523377 heartbeat IPC: 0.847196 cumulative IPC: 0.82634 (Simulation time: 7 hr 1 min 38 sec) 
 Total Blocks : 262144 Invalid Blocks : 0
Heartbeat CPU 7 instructions: 150000003 cycles: 181552741 heartbeat IPC: 0.847014 cumulative IPC: 0.826206 (Simulation time: 7 hr 1 min 44 sec) 
 Total Blocks : 262144 Invalid Blocks : 0
Heartbeat CPU 0 instructions: 160000000 cycles: 192876703 heartbeat IPC: 0.861966 cumulative IPC: 0.829545 (Simulation time: 7 hr 43 min 29 sec) 
 Total Blocks : 262144 Invalid Blocks : 0
Heartbeat CPU 1 instructions: 160000000 cycles: 192938347 heartbeat IPC: 0.861558 cumulative IPC: 0.82928 (Simulation time: 7 hr 43 min 44 sec) 
 Total Blocks : 262144 Invalid Blocks : 0
Heartbeat CPU 2 instructions: 160000000 cycles: 192976656 heartbeat IPC: 0.861368 cumulative IPC: 0.829116 (Simulation time: 7 hr 43 min 51 sec) 
 Total Blocks : 262144 Invalid Blocks : 0
Heartbeat CPU 3 instructions: 160000000 cycles: 192997332 heartbeat IPC: 0.861302 cumulative IPC: 0.829027 (Simulation time: 7 hr 43 min 56 sec) 
 Total Blocks : 262144 Invalid Blocks : 0
Heartbeat CPU 4 instructions: 160000000 cycles: 193050204 heartbeat IPC: 0.861011 cumulative IPC: 0.8288 (Simulation time: 7 hr 44 min 8 sec) 
 Total Blocks : 262144 Invalid Blocks : 0
Heartbeat CPU 5 instructions: 160000000 cycles: 193104839 heartbeat IPC: 0.860663 cumulative IPC: 0.828565 (Simulation time: 7 hr 44 min 21 sec) 
 Total Blocks : 262144 Invalid Blocks : 0
Heartbeat CPU 6 instructions: 160000000 cycles: 193145633 heartbeat IPC: 0.860418 cumulative IPC: 0.82839 (Simulation time: 7 hr 44 min 29 sec) 
 Total Blocks : 262144 Invalid Blocks : 0
Heartbeat CPU 7 instructions: 160000000 cycles: 193177414 heartbeat IPC: 0.860239 cumulative IPC: 0.828254 (Simulation time: 7 hr 44 min 36 sec) 
 Total Blocks : 262144 Invalid Blocks : 0
Heartbeat CPU 0 instructions: 170000000 cycles: 204502040 heartbeat IPC: 0.86019 cumulative IPC: 0.831288 (Simulation time: 8 hr 25 min 31 sec) 
 Total Blocks : 262144 Invalid Blocks : 0
Heartbeat CPU 1 instructions: 170000000 cycles: 204567867 heartbeat IPC: 0.859881 cumulative IPC: 0.83102 (Simulation time: 8 hr 25 min 46 sec) 
 Total Blocks : 262144 Invalid Blocks : 0
Heartbeat CPU 2 instructions: 170000000 cycles: 204609108 heartbeat IPC: 0.859664 cumulative IPC: 0.830853 (Simulation time: 8 hr 25 min 54 sec) 
 Total Blocks : 262144 Invalid Blocks : 0
Heartbeat CPU 3 instructions: 170000000 cycles: 204630840 heartbeat IPC: 0.859586 cumulative IPC: 0.830764 (Simulation time: 8 hr 25 min 58 sec) 
 Total Blocks : 262144 Invalid Blocks : 0
Heartbeat CPU 4 instructions: 170000000 cycles: 204688013 heartbeat IPC: 0.859268 cumulative IPC: 0.830532 (Simulation time: 8 hr 26 min 10 sec) 
 Total Blocks : 262144 Invalid Blocks : 0
Heartbeat CPU 5 instructions: 170000000 cycles: 204747071 heartbeat IPC: 0.858942 cumulative IPC: 0.830293 (Simulation time: 8 hr 26 min 21 sec) 
 Total Blocks : 262144 Invalid Blocks : 0
Heartbeat CPU 6 instructions: 170000000 cycles: 204791211 heartbeat IPC: 0.858695 cumulative IPC: 0.830114 (Simulation time: 8 hr 26 min 29 sec) 
 Total Blocks : 262144 Invalid Blocks : 0
Heartbeat CPU 7 instructions: 170000000 cycles: 204824812 heartbeat IPC: 0.858561 cumulative IPC: 0.829978 (Simulation time: 8 hr 26 min 37 sec) 
 Total Blocks : 262144 Invalid Blocks : 0
Heartbeat CPU 0 instructions: 180000000 cycles: 216120977 heartbeat IPC: 0.860664 cumulative IPC: 0.832867 (Simulation time: 9 hr 9 min 21 sec) 
 Total Blocks : 262144 Invalid Blocks : 0
Heartbeat CPU 1 instructions: 180000000 cycles: 216191309 heartbeat IPC: 0.86033 cumulative IPC: 0.832596 (Simulation time: 9 hr 9 min 38 sec) 
 Total Blocks : 262144 Invalid Blocks : 0
Heartbeat CPU 2 instructions: 180000000 cycles: 216235398 heartbeat IPC: 0.86012 cumulative IPC: 0.832426 (Simulation time: 9 hr 9 min 50 sec) 
 Total Blocks : 262144 Invalid Blocks : 0
Heartbeat CPU 3 instructions: 180000000 cycles: 216258485 heartbeat IPC: 0.860019 cumulative IPC: 0.832337 (Simulation time: 9 hr 9 min 55 sec) 
 Total Blocks : 262144 Invalid Blocks : 0
Heartbeat CPU 4 instructions: 180000000 cycles: 216319383 heartbeat IPC: 0.859744 cumulative IPC: 0.832103 (Simulation time: 9 hr 10 min 10 sec) 
 Total Blocks : 262144 Invalid Blocks : 0
Heartbeat CPU 5 instructions: 180000000 cycles: 216383214 heartbeat IPC: 0.859391 cumulative IPC: 0.831858 (Simulation time: 9 hr 10 min 25 sec) 
 Total Blocks : 262144 Invalid Blocks : 0
Heartbeat CPU 6 instructions: 180000000 cycles: 216430273 heartbeat IPC: 0.859176 cumulative IPC: 0.831677 (Simulation time: 9 hr 10 min 36 sec) 
 Total Blocks : 262144 Invalid Blocks : 0
Heartbeat CPU 7 instructions: 180000000 cycles: 216466146 heartbeat IPC: 0.859008 cumulative IPC: 0.831539 (Simulation time: 9 hr 10 min 43 sec) 
 Total Blocks : 262144 Invalid Blocks : 0
Heartbeat CPU 0 instructions: 190000003 cycles: 227730845 heartbeat IPC: 0.861336 cumulative IPC: 0.834318 (Simulation time: 9 hr 55 min 33 sec) 
 Total Blocks : 262144 Invalid Blocks : 0
Heartbeat CPU 1 instructions: 190000003 cycles: 227805212 heartbeat IPC: 0.861037 cumulative IPC: 0.834046 (Simulation time: 9 hr 55 min 52 sec) 
 Total Blocks : 262144 Invalid Blocks : 0
Heartbeat CPU 2 instructions: 190000003 cycles: 227851885 heartbeat IPC: 0.860846 cumulative IPC: 0.833875 (Simulation time: 9 hr 56 min 3 sec) 
 Total Blocks : 262144 Invalid Blocks : 0
Heartbeat CPU 3 instructions: 190000003 cycles: 227876562 heartbeat IPC: 0.860728 cumulative IPC: 0.833785 (Simulation time: 9 hr 56 min 11 sec) 
 Total Blocks : 262144 Invalid Blocks : 0
Heartbeat CPU 4 instructions: 190000003 cycles: 227941080 heartbeat IPC: 0.86046 cumulative IPC: 0.833549 (Simulation time: 9 hr 56 min 27 sec) 
 Total Blocks : 262144 Invalid Blocks : 0
Heartbeat CPU 5 instructions: 190000003 cycles: 228010102 heartbeat IPC: 0.860076 cumulative IPC: 0.833296 (Simulation time: 9 hr 56 min 45 sec) 
 Total Blocks : 262144 Invalid Blocks : 0
Heartbeat CPU 6 instructions: 190000003 cycles: 228060382 heartbeat IPC: 0.859837 cumulative IPC: 0.833113 (Simulation time: 9 hr 56 min 59 sec) 
 Total Blocks : 262144 Invalid Blocks : 0
Heartbeat CPU 7 instructions: 190000003 cycles: 228098465 heartbeat IPC: 0.859674 cumulative IPC: 0.832974 (Simulation time: 9 hr 57 min 10 sec) 
 Total Blocks : 262144 Invalid Blocks : 0
Heartbeat CPU 0 instructions: 200000002 cycles: 239369893 heartbeat IPC: 0.859177 cumulative IPC: 0.835527 (Simulation time: 10 hr 42 min 32 sec) 
 Total Blocks : 262144 Invalid Blocks : 0
Heartbeat CPU 1 instructions: 200000002 cycles: 239448802 heartbeat IPC: 0.858842 cumulative IPC: 0.835252 (Simulation time: 10 hr 42 min 51 sec) 
 Total Blocks : 262144 Invalid Blocks : 0
Heartbeat CPU 2 instructions: 200000002 cycles: 239498250 heartbeat IPC: 0.858637 cumulative IPC: 0.835079 (Simulation time: 10 hr 43 min 5 sec) 
 Total Blocks : 262144 Invalid Blocks : 0
Heartbeat CPU 3 instructions: 200000002 cycles: 239524298 heartbeat IPC: 0.858536 cumulative IPC: 0.834988 (Simulation time: 10 hr 43 min 11 sec) 
 Total Blocks : 262144 Invalid Blocks : 0
Heartbeat CPU 4 instructions: 200000002 cycles: 239592700 heartbeat IPC: 0.85825 cumulative IPC: 0.83475 (Simulation time: 10 hr 43 min 29 sec) 
 Total Blocks : 262144 Invalid Blocks : 0
Heartbeat CPU 5 instructions: 200000002 cycles: 239665960 heartbeat IPC: 0.857938 cumulative IPC: 0.834495 (Simulation time: 10 hr 43 min 50 sec) 
 Total Blocks : 262144 Invalid Blocks : 0
Heartbeat CPU 6 instructions: 200000002 cycles: 239719241 heartbeat IPC: 0.857717 cumulative IPC: 0.834309 (Simulation time: 10 hr 44 min 5 sec) 
 Total Blocks : 262144 Invalid Blocks : 0
Heartbeat CPU 7 instructions: 200000002 cycles: 239759543 heartbeat IPC: 0.857554 cumulative IPC: 0.834169 (Simulation time: 10 hr 44 min 17 sec) 
 Total Blocks : 262144 Invalid Blocks : 0

Warmup complete CPU 0 instructions: 200344636 cycles: 239759543 (Simulation time: 10 hr 44 min 17 sec) 
Warmup complete CPU 1 instructions: 200274184 cycles: 239759543 (Simulation time: 10 hr 44 min 17 sec) 
Warmup complete CPU 2 instructions: 200230267 cycles: 239759543 (Simulation time: 10 hr 44 min 17 sec) 
Warmup complete CPU 3 instructions: 200207638 cycles: 239759543 (Simulation time: 10 hr 44 min 17 sec) 
Warmup complete CPU 4 instructions: 200147168 cycles: 239759543 (Simulation time: 10 hr 44 min 17 sec) 
Warmup complete CPU 5 instructions: 200082560 cycles: 239759543 (Simulation time: 10 hr 44 min 17 sec) 
Warmup complete CPU 6 instructions: 200036361 cycles: 239759543 (Simulation time: 10 hr 44 min 17 sec) 
Warmup complete CPU 7 instructions: 200000002 cycles: 239759543 (Simulation time: 10 hr 44 min 17 sec) 

Heartbeat CPU 0 instructions: 210000001 cycles: 458104159 heartbeat IPC: 0.0457176 cumulative IPC: 0.0442208 (Simulation time: 12 hr 46 min 22 sec) 
 Total Blocks : 262144 Invalid Blocks : 0
Heartbeat CPU 1 instructions: 210000001 cycles: 459938807 heartbeat IPC: 0.0453535 cumulative IPC: 0.0441723 (Simulation time: 12 hr 47 min 24 sec) 
 Total Blocks : 262144 Invalid Blocks : 0
Heartbeat CPU 2 instructions: 210000001 cycles: 460695025 heartbeat IPC: 0.0452086 cumulative IPC: 0.0442199 (Simulation time: 12 hr 47 min 51 sec) 
 Total Blocks : 262144 Invalid Blocks : 0
Heartbeat CPU 3 instructions: 210000001 cycles: 460802046 heartbeat IPC: 0.0451921 cumulative IPC: 0.0443008 (Simulation time: 12 hr 47 min 54 sec) 
 Total Blocks : 262144 Invalid Blocks : 0
Heartbeat CPU 4 instructions: 210000001 cycles: 461814758 heartbeat IPC: 0.045 cumulative IPC: 0.0443711 (Simulation time: 12 hr 48 min 33 sec) 
 Total Blocks : 262144 Invalid Blocks : 0
Heartbeat CPU 5 instructions: 210000001 cycles: 464098760 heartbeat IPC: 0.0445568 cumulative IPC: 0.0442073 (Simulation time: 12 hr 49 min 54 sec) 
 Total Blocks : 262144 Invalid Blocks : 0
Heartbeat CPU 6 instructions: 210000003 cycles: 465320348 heartbeat IPC: 0.044326 cumulative IPC: 0.0441728 (Simulation time: 12 hr 50 min 36 sec) 
 Total Blocks : 262144 Invalid Blocks : 0
Heartbeat CPU 7 instructions: 210000001 cycles: 465539667 heartbeat IPC: 0.0442909 cumulative IPC: 0.0442909 (Simulation time: 12 hr 50 min 43 sec) 
 Total Blocks : 262144 Invalid Blocks : 0
Heartbeat CPU 0 instructions: 220000000 cycles: 682371180 heartbeat IPC: 0.0445897 cumulative IPC: 0.0444077 (Simulation time: 14 hr 25 min 41 sec) 
 Total Blocks : 262144 Invalid Blocks : 0
Heartbeat CPU 1 instructions: 220000000 cycles: 684144790 heartbeat IPC: 0.0446018 cumulative IPC: 0.044389 (Simulation time: 14 hr 26 min 20 sec) 
 Total Blocks : 262144 Invalid Blocks : 0
Heartbeat CPU 3 instructions: 220000000 cycles: 684320473 heartbeat IPC: 0.044739 cumulative IPC: 0.0445211 (Simulation time: 14 hr 26 min 23 sec) 
 Total Blocks : 262144 Invalid Blocks : 0
Heartbeat CPU 2 instructions: 220000000 cycles: 684860275 heartbeat IPC: 0.0446099 cumulative IPC: 0.0444163 (Simulation time: 14 hr 26 min 34 sec) 
 Total Blocks : 262144 Invalid Blocks : 0
Heartbeat CPU 4 instructions: 220000000 cycles: 686391261 heartbeat IPC: 0.0445282 cumulative IPC: 0.0444501 (Simulation time: 14 hr 27 min 6 sec) 
 Total Blocks : 262144 Invalid Blocks : 0
Heartbeat CPU 5 instructions: 220000000 cycles: 688686292 heartbeat IPC: 0.0445261 cumulative IPC: 0.0443668 (Simulation time: 14 hr 27 min 55 sec) 
 Total Blocks : 262144 Invalid Blocks : 0
Heartbeat CPU 6 instructions: 220000000 cycles: 689767163 heartbeat IPC: 0.044554 cumulative IPC: 0.0443629 (Simulation time: 14 hr 28 min 18 sec) 
 Total Blocks : 262144 Invalid Blocks : 0
Heartbeat CPU 7 instructions: 220000000 cycles: 690377571 heartbeat IPC: 0.0444765 cumulative IPC: 0.0443835 (Simulation time: 14 hr 28 min 32 sec) 
 Total Blocks : 262144 Invalid Blocks : 0
Heartbeat CPU 0 instructions: 230000001 cycles: 904424523 heartbeat IPC: 0.0450342 cumulative IPC: 0.044617 (Simulation time: 15 hr 45 min 0 sec) 
 Total Blocks : 262144 Invalid Blocks : 0
Heartbeat CPU 3 instructions: 230000001 cycles: 906595401 heartbeat IPC: 0.0449893 cumulative IPC: 0.0446772 (Simulation time: 15 hr 45 min 46 sec) 
 Total Blocks : 262144 Invalid Blocks : 0
Heartbeat CPU 1 instructions: 230000000 cycles: 906851330 heartbeat IPC: 0.0449021 cumulative IPC: 0.0445603 (Simulation time: 15 hr 45 min 51 sec) 
 Total Blocks : 262144 Invalid Blocks : 0
Heartbeat CPU 2 instructions: 230000000 cycles: 907833814 heartbeat IPC: 0.0448484 cumulative IPC: 0.0445605 (Simulation time: 15 hr 46 min 11 sec) 
 Total Blocks : 262144 Invalid Blocks : 0
Heartbeat CPU 4 instructions: 230000000 cycles: 909290576 heartbeat IPC: 0.0448633 cumulative IPC: 0.0445877 (Simulation time: 15 hr 46 min 43 sec) 
 Total Blocks : 262144 Invalid Blocks : 0
Heartbeat CPU 5 instructions: 230000001 cycles: 911689627 heartbeat IPC: 0.0448424 cumulative IPC: 0.0445246 (Simulation time: 15 hr 47 min 31 sec) 
 Total Blocks : 262144 Invalid Blocks : 0
Heartbeat CPU 6 instructions: 230000001 cycles: 912407679 heartbeat IPC: 0.0449155 cumulative IPC: 0.0445458 (Simulation time: 15 hr 47 min 45 sec) 
 Total Blocks : 262144 Invalid Blocks : 0
Heartbeat CPU 7 instructions: 230000000 cycles: 913111620 heartbeat IPC: 0.0448966 cumulative IPC: 0.0445532 (Simulation time: 15 hr 47 min 59 sec) 
 Total Blocks : 262144 Invalid Blocks : 0
Heartbeat CPU 0 instructions: 240000002 cycles: 1126487485 heartbeat IPC: 0.0450323 cumulative IPC: 0.044721 (Simulation time: 17 hr 2 min 37 sec) 
 Total Blocks : 262144 Invalid Blocks : 0
Heartbeat CPU 3 instructions: 240000002 cycles: 1128343569 heartbeat IPC: 0.0450962 cumulative IPC: 0.0447818 (Simulation time: 17 hr 3 min 14 sec) 
 Total Blocks : 262144 Invalid Blocks : 0
Heartbeat CPU 1 instructions: 240000001 cycles: 1128834641 heartbeat IPC: 0.0450484 cumulative IPC: 0.0446822 (Simulation time: 17 hr 3 min 24 sec) 
 Total Blocks : 262144 Invalid Blocks : 0
Heartbeat CPU 2 instructions: 240000002 cycles: 1130112079 heartbeat IPC: 0.0449887 cumulative IPC: 0.0446674 (Simulation time: 17 hr 3 min 51 sec) 
 Total Blocks : 262144 Invalid Blocks : 0
Heartbeat CPU 4 instructions: 240000002 cycles: 1131010635 heartbeat IPC: 0.0451019 cumulative IPC: 0.0447156 (Simulation time: 17 hr 4 min 10 sec) 
 Total Blocks : 262144 Invalid Blocks : 0
Heartbeat CPU 5 instructions: 240000002 cycles: 1133537532 heartbeat IPC: 0.0450759 cumulative IPC: 0.0446615 (Simulation time: 17 hr 5 min 2 sec) 
 Total Blocks : 262144 Invalid Blocks : 0
Heartbeat CPU 7 instructions: 240000002 cycles: 1135107952 heartbeat IPC: 0.0450458 cumulative IPC: 0.0446753 (Simulation time: 17 hr 5 min 33 sec) 
 Total Blocks : 262144 Invalid Blocks : 0
Heartbeat CPU 6 instructions: 240000001 cycles: 1135242363 heartbeat IPC: 0.0448763 cumulative IPC: 0.044628 (Simulation time: 17 hr 5 min 36 sec) 
 Total Blocks : 262144 Invalid Blocks : 0
Heartbeat CPU 0 instructions: 250000002 cycles: 1347762611 heartbeat IPC: 0.0451926 cumulative IPC: 0.0448152 (Simulation time: 18 hr 19 min 23 sec) 
 Total Blocks : 262144 Invalid Blocks : 0
Heartbeat CPU 3 instructions: 250000003 cycles: 1349597506 heartbeat IPC: 0.0451969 cumulative IPC: 0.0448645 (Simulation time: 18 hr 19 min 59 sec) 
 Total Blocks : 262144 Invalid Blocks : 0
Heartbeat CPU 1 instructions: 250000003 cycles: 1350589601 heartbeat IPC: 0.0450948 cumulative IPC: 0.0447646 (Simulation time: 18 hr 20 min 18 sec) 
 Total Blocks : 262144 Invalid Blocks : 0
Heartbeat CPU 2 instructions: 250000002 cycles: 1351605967 heartbeat IPC: 0.045148 cumulative IPC: 0.0447631 (Simulation time: 18 hr 20 min 40 sec) 
 Total Blocks : 262144 Invalid Blocks : 0
Heartbeat CPU 4 instructions: 250000002 cycles: 1352106746 heartbeat IPC: 0.0452292 cumulative IPC: 0.0448177 (Simulation time: 18 hr 20 min 50 sec) 
 Total Blocks : 262144 Invalid Blocks : 0
Heartbeat CPU 5 instructions: 250000002 cycles: 1355049716 heartbeat IPC: 0.0451442 cumulative IPC: 0.0447574 (Simulation time: 18 hr 21 min 49 sec) 
 Total Blocks : 262144 Invalid Blocks : 0
Heartbeat CPU 7 instructions: 250000003 cycles: 1356665029 heartbeat IPC: 0.0451351 cumulative IPC: 0.0447665 (Simulation time: 18 hr 22 min 23 sec) 
 Total Blocks : 262144 Invalid Blocks : 0
Heartbeat CPU 6 instructions: 250000001 cycles: 1357059763 heartbeat IPC: 0.0450821 cumulative IPC: 0.0447182 (Simulation time: 18 hr 22 min 31 sec) 
 Total Blocks : 262144 Invalid Blocks : 0
Heartbeat CPU 0 instructions: 260000000 cycles: 1568600134 heartbeat IPC: 0.0452822 cumulative IPC: 0.0448928 (Simulation time: 19 hr 34 min 2 sec) 
 Total Blocks : 262144 Invalid Blocks : 0
Heartbeat CPU 3 instructions: 260000000 cycles: 1570715799 heartbeat IPC: 0.0452246 cumulative IPC: 0.0449244 (Simulation time: 19 hr 34 min 44 sec) 
 Total Blocks : 262144 Invalid Blocks : 0
Heartbeat CPU 1 instructions: 260000000 cycles: 1571886435 heartbeat IPC: 0.0451882 cumulative IPC: 0.0448349 (Simulation time: 19 hr 35 min 7 sec) 
 Total Blocks : 262144 Invalid Blocks : 0
Heartbeat CPU 4 instructions: 260000000 cycles: 1573056470 heartbeat IPC: 0.0452592 cumulative IPC: 0.0448909 (Simulation time: 19 hr 35 min 32 sec) 
 Total Blocks : 262144 Invalid Blocks : 0
Heartbeat CPU 2 instructions: 260000000 cycles: 1573165553 heartbeat IPC: 0.0451346 cumulative IPC: 0.0448249 (Simulation time: 19 hr 35 min 34 sec) 
 Total Blocks : 262144 Invalid Blocks : 0
Heartbeat CPU 5 instructions: 260000000 cycles: 1576428535 heartbeat IPC: 0.0451714 cumulative IPC: 0.0448259 (Simulation time: 19 hr 36 min 40 sec) 
 Total Blocks : 262144 Invalid Blocks : 0
Heartbeat CPU 7 instructions: 260000000 cycles: 1577790931 heartbeat IPC: 0.0452231 cumulative IPC: 0.044842 (Simulation time: 19 hr 37 min 10 sec) 
 Total Blocks : 262144 Invalid Blocks : 0
Heartbeat CPU 6 instructions: 260000000 cycles: 1578559012 heartbeat IPC: 0.0451469 cumulative IPC: 0.0447891 (Simulation time: 19 hr 37 min 26 sec) 
 Total Blocks : 262144 Invalid Blocks : 0
Heartbeat CPU 0 instructions: 270000001 cycles: 1788587030 heartbeat IPC: 0.0454573 cumulative IPC: 0.044973 (Simulation time: 20 hr 45 min 53 sec) 
 Total Blocks : 262144 Invalid Blocks : 0
Heartbeat CPU 3 instructions: 270000000 cycles: 1791224761 heartbeat IPC: 0.0453496 cumulative IPC: 0.0449848 (Simulation time: 20 hr 46 min 41 sec) 
 Total Blocks : 262144 Invalid Blocks : 0
Heartbeat CPU 1 instructions: 270000001 cycles: 1792296111 heartbeat IPC: 0.0453701 cumulative IPC: 0.0449109 (Simulation time: 20 hr 46 min 59 sec) 
 Total Blocks : 262144 Invalid Blocks : 0
Heartbeat CPU 4 instructions: 270000000 cycles: 1793494439 heartbeat IPC: 0.0453642 cumulative IPC: 0.044958 (Simulation time: 20 hr 47 min 19 sec) 
 Total Blocks : 262144 Invalid Blocks : 0
Heartbeat CPU 2 instructions: 270000001 cycles: 1793716090 heartbeat IPC: 0.0453411 cumulative IPC: 0.0448981 (Simulation time: 20 hr 47 min 24 sec) 
 Total Blocks : 262144 Invalid Blocks : 0
Heartbeat CPU 5 instructions: 270000001 cycles: 1797251367 heartbeat IPC: 0.0452852 cumulative IPC: 0.044891 (Simulation time: 20 hr 48 min 27 sec) 
 Total Blocks : 262144 Invalid Blocks : 0
Heartbeat CPU 7 instructions: 270000001 cycles: 1798501444 heartbeat IPC: 0.0453082 cumulative IPC: 0.044908 (Simulation time: 20 hr 48 min 48 sec) 
 Total Blocks : 262144 Invalid Blocks : 0
Heartbeat CPU 6 instructions: 270000001 cycles: 1799422825 heartbeat IPC: 0.0452768 cumulative IPC: 0.0448582 (Simulation time: 20 hr 49 min 3 sec) 
 Total Blocks : 262144 Invalid Blocks : 0
Heartbeat CPU 0 instructions: 280000001 cycles: 2007900060 heartbeat IPC: 0.0455969 cumulative IPC: 0.0450504 (Simulation time: 21 hr 51 min 25 sec) 
 Total Blocks : 262144 Invalid Blocks : 0
Heartbeat CPU 3 instructions: 280000002 cycles: 2011114599 heartbeat IPC: 0.0454773 cumulative IPC: 0.0450459 (Simulation time: 21 hr 52 min 23 sec) 
 Total Blocks : 262144 Invalid Blocks : 0
Heartbeat CPU 1 instructions: 280000002 cycles: 2012205159 heartbeat IPC: 0.0454733 cumulative IPC: 0.0449807 (Simulation time: 21 hr 52 min 43 sec) 
 Total Blocks : 262144 Invalid Blocks : 0
Heartbeat CPU 4 instructions: 280000001 cycles: 2013535842 heartbeat IPC: 0.045446 cumulative IPC: 0.0450185 (Simulation time: 21 hr 53 min 7 sec) 
 Total Blocks : 262144 Invalid Blocks : 0
Heartbeat CPU 2 instructions: 280000002 cycles: 2013629898 heartbeat IPC: 0.0454724 cumulative IPC: 0.0449693 (Simulation time: 21 hr 53 min 9 sec) 
 Total Blocks : 262144 Invalid Blocks : 0
Heartbeat CPU 5 instructions: 280000002 cycles: 2017366255 heartbeat IPC: 0.0454308 cumulative IPC: 0.0449579 (Simulation time: 21 hr 54 min 16 sec) 
 Total Blocks : 262144 Invalid Blocks : 0
Heartbeat CPU 7 instructions: 280000001 cycles: 2018230032 heartbeat IPC: 0.0455107 cumulative IPC: 0.0449825 (Simulation time: 21 hr 54 min 31 sec) 
 Total Blocks : 262144 Invalid Blocks : 0
Heartbeat CPU 6 instructions: 280000001 cycles: 2019857461 heartbeat IPC: 0.0453649 cumulative IPC: 0.0449209 (Simulation time: 21 hr 55 min 2 sec) 
 Total Blocks : 262144 Invalid Blocks : 0
Heartbeat CPU 0 instructions: 290000003 cycles: 2228077741 heartbeat IPC: 0.0454179 cumulative IPC: 0.0450911 (Simulation time: 22 hr 57 min 46 sec) 
 Total Blocks : 262144 Invalid Blocks : 0
Heartbeat CPU 3 instructions: 290000000 cycles: 2230589024 heartbeat IPC: 0.0455634 cumulative IPC: 0.045103 (Simulation time: 22 hr 58 min 32 sec) 
 Total Blocks : 262144 Invalid Blocks : 0
Heartbeat CPU 1 instructions: 290000003 cycles: 2231848974 heartbeat IPC: 0.0455283 cumulative IPC: 0.0450411 (Simulation time: 22 hr 58 min 55 sec) 
 Total Blocks : 262144 Invalid Blocks : 0
Heartbeat CPU 4 instructions: 290000003 cycles: 2233710934 heartbeat IPC: 0.0454184 cumulative IPC: 0.0450627 (Simulation time: 22 hr 59 min 27 sec) 
 Total Blocks : 262144 Invalid Blocks : 0
Heartbeat CPU 2 instructions: 290000000 cycles: 2233854440 heartbeat IPC: 0.0454082 cumulative IPC: 0.0450178 (Simulation time: 22 hr 59 min 30 sec) 
 Total Blocks : 262144 Invalid Blocks : 0
Heartbeat CPU 5 instructions: 290000000 cycles: 2237438060 heartbeat IPC: 0.0454397 cumulative IPC: 0.045011 (Simulation time: 23 hr 0 min 35 sec) 
 Total Blocks : 262144 Invalid Blocks : 0
Heartbeat CPU 7 instructions: 290000003 cycles: 2238324082 heartbeat IPC: 0.0454351 cumulative IPC: 0.0450323 (Simulation time: 23 hr 0 min 50 sec) 
 Total Blocks : 262144 Invalid Blocks : 0
Heartbeat CPU 6 instructions: 290000000 cycles: 2240022484 heartbeat IPC: 0.0454205 cumulative IPC: 0.0449759 (Simulation time: 23 hr 1 min 20 sec) 
 Total Blocks : 262144 Invalid Blocks : 0
Heartbeat CPU 0 instructions: 300000003 cycles: 2447148637 heartbeat IPC: 0.0456473 cumulative IPC: 0.0451463 (Simulation time: 24 hr 3 min 39 sec) 
 Total Blocks : 262144 Invalid Blocks : 0
Heartbeat CPU 3 instructions: 300000003 cycles: 2450375882 heartbeat IPC: 0.0454986 cumulative IPC: 0.0451423 (Simulation time: 24 hr 4 min 40 sec) 
 Total Blocks : 262144 Invalid Blocks : 0
Heartbeat CPU 1 instructions: 300000003 cycles: 2451486826 heartbeat IPC: 0.0455295 cumulative IPC: 0.0450896 (Simulation time: 24 hr 5 min 0 sec) 
 Total Blocks : 262144 Invalid Blocks : 0
Heartbeat CPU 4 instructions: 300000003 cycles: 2453433970 heartbeat IPC: 0.0455118 cumulative IPC: 0.0451073 (Simulation time: 24 hr 5 min 37 sec) 
 Total Blocks : 262144 Invalid Blocks : 0
Heartbeat CPU 2 instructions: 300000003 cycles: 2453943009 heartbeat IPC: 0.0454363 cumulative IPC: 0.0450594 (Simulation time: 24 hr 5 min 47 sec) 
 Total Blocks : 262144 Invalid Blocks : 0
Heartbeat CPU 5 instructions: 300000003 cycles: 2457149833 heartbeat IPC: 0.0455142 cumulative IPC: 0.0450608 (Simulation time: 24 hr 6 min 46 sec) 
 Total Blocks : 262144 Invalid Blocks : 0
Heartbeat CPU 7 instructions: 300000003 cycles: 2458662138 heartbeat IPC: 0.0453848 cumulative IPC: 0.0450673 (Simulation time: 24 hr 7 min 16 sec) 
 Total Blocks : 262144 Invalid Blocks : 0
Heartbeat CPU 6 instructions: 300000003 cycles: 2459707049 heartbeat IPC: 0.0455198 cumulative IPC: 0.0450297 (Simulation time: 24 hr 7 min 37 sec) 
 Total Blocks : 262144 Invalid Blocks : 0
Heartbeat CPU 0 instructions: 310000003 cycles: 2666648559 heartbeat IPC: 0.0455581 cumulative IPC: 0.0451835 (Simulation time: 25 hr 10 min 32 sec) 
 Total Blocks : 262144 Invalid Blocks : 0
Heartbeat CPU 3 instructions: 310000000 cycles: 2669971702 heartbeat IPC: 0.0455382 cumulative IPC: 0.0451781 (Simulation time: 25 hr 11 min 31 sec) 
 Total Blocks : 262144 Invalid Blocks : 0
Heartbeat CPU 1 instructions: 310000003 cycles: 2671726234 heartbeat IPC: 0.0454051 cumulative IPC: 0.0451181 (Simulation time: 25 hr 12 min 3 sec) 
 Total Blocks : 262144 Invalid Blocks : 0
Heartbeat CPU 4 instructions: 310000003 cycles: 2672946545 heartbeat IPC: 0.0455555 cumulative IPC: 0.0451477 (Simulation time: 25 hr 12 min 24 sec) 
 Total Blocks : 262144 Invalid Blocks : 0
Heartbeat CPU 2 instructions: 310000003 cycles: 2673960547 heartbeat IPC: 0.0454509 cumulative IPC: 0.0450948 (Simulation time: 25 hr 12 min 42 sec) 
 Total Blocks : 262144 Invalid Blocks : 0
Heartbeat CPU 5 instructions: 310000003 cycles: 2677467026 heartbeat IPC: 0.0453891 cumulative IPC: 0.0450905 (Simulation time: 25 hr 13 min 44 sec) 
 Total Blocks : 262144 Invalid Blocks : 0
Heartbeat CPU 7 instructions: 310000003 cycles: 2678685128 heartbeat IPC: 0.0454498 cumulative IPC: 0.0451018 (Simulation time: 25 hr 14 min 6 sec) 
 Total Blocks : 262144 Invalid Blocks : 0
Heartbeat CPU 6 instructions: 310000003 cycles: 2680028388 heartbeat IPC: 0.0453883 cumulative IPC: 0.0450621 (Simulation time: 25 hr 14 min 30 sec) 
 Total Blocks : 262144 Invalid Blocks : 0
Heartbeat CPU 0 instructions: 320000000 cycles: 2887211829 heartbeat IPC: 0.0453385 cumulative IPC: 0.0451964 (Simulation time: 26 hr 14 min 49 sec) 
 Total Blocks : 262144 Invalid Blocks : 0
Heartbeat CPU 3 instructions: 320000000 cycles: 2890430971 heartbeat IPC: 0.0453599 cumulative IPC: 0.0451932 (Simulation time: 26 hr 15 min 38 sec) 
 Total Blocks : 262144 Invalid Blocks : 0
Heartbeat CPU 1 instructions: 320000000 cycles: 2892938969 heartbeat IPC: 0.0452053 cumulative IPC: 0.0451254 (Simulation time: 26 hr 16 min 17 sec) 
 Total Blocks : 262144 Invalid Blocks : 0
Heartbeat CPU 4 instructions: 320000000 cycles: 2893486708 heartbeat IPC: 0.0453432 cumulative IPC: 0.045164 (Simulation time: 26 hr 16 min 26 sec) 
 Total Blocks : 262144 Invalid Blocks : 0
Heartbeat CPU 2 instructions: 320000000 cycles: 2895025262 heartbeat IPC: 0.0452356 cumulative IPC: 0.0451065 (Simulation time: 26 hr 16 min 50 sec) 
 Total Blocks : 262144 Invalid Blocks : 0
Heartbeat CPU 5 instructions: 320000000 cycles: 2898733781 heartbeat IPC: 0.0451943 cumulative IPC: 0.0450991 (Simulation time: 26 hr 17 min 46 sec) 
 Total Blocks : 262144 Invalid Blocks : 0
Heartbeat CPU 7 instructions: 320000000 cycles: 2899448044 heartbeat IPC: 0.0452974 cumulative IPC: 0.0451181 (Simulation time: 26 hr 17 min 57 sec) 
 Total Blocks : 262144 Invalid Blocks : 0
Heartbeat CPU 6 instructions: 320000000 cycles: 2901095138 heartbeat IPC: 0.0452352 cumulative IPC: 0.0450765 (Simulation time: 26 hr 18 min 24 sec) 
 Total Blocks : 262144 Invalid Blocks : 0
Heartbeat CPU 0 instructions: 330000000 cycles: 3108576486 heartbeat IPC: 0.0451743 cumulative IPC: 0.0451947 (Simulation time: 27 hr 12 min 31 sec) 
 Total Blocks : 262144 Invalid Blocks : 0
Heartbeat CPU 3 instructions: 330000000 cycles: 3111507013 heartbeat IPC: 0.0452333 cumulative IPC: 0.0451963 (Simulation time: 27 hr 13 min 16 sec) 
 Total Blocks : 262144 Invalid Blocks : 0
Heartbeat CPU 1 instructions: 330000000 cycles: 3114822528 heartbeat IPC: 0.0450687 cumulative IPC: 0.045121 (Simulation time: 27 hr 14 min 5 sec) 
 Total Blocks : 262144 Invalid Blocks : 0
Heartbeat CPU 4 instructions: 330000000 cycles: 3114895195 heartbeat IPC: 0.0451654 cumulative IPC: 0.0451641 (Simulation time: 27 hr 14 min 6 sec) 
 Total Blocks : 262144 Invalid Blocks : 0
Heartbeat CPU 2 instructions: 330000000 cycles: 3116458230 heartbeat IPC: 0.0451604 cumulative IPC: 0.0451106 (Simulation time: 27 hr 14 min 30 sec) 
 Total Blocks : 262144 Invalid Blocks : 0
Heartbeat CPU 5 instructions: 330000000 cycles: 3120515752 heartbeat IPC: 0.0450893 cumulative IPC: 0.0450984 (Simulation time: 27 hr 15 min 32 sec) 
 Total Blocks : 262144 Invalid Blocks : 0
Heartbeat CPU 7 instructions: 330000000 cycles: 3121344989 heartbeat IPC: 0.045066 cumulative IPC: 0.0451141 (Simulation time: 27 hr 15 min 44 sec) 
 Total Blocks : 262144 Invalid Blocks : 0
Heartbeat CPU 6 instructions: 330000000 cycles: 3123402379 heartbeat IPC: 0.0449828 cumulative IPC: 0.0450693 (Simulation time: 27 hr 16 min 15 sec) 
 Total Blocks : 262144 Invalid Blocks : 0
Heartbeat CPU 0 instructions: 340000002 cycles: 3329744995 heartbeat IPC: 0.0452144 cumulative IPC: 0.0451961 (Simulation time: 28 hr 29 min 0 sec) 
 Total Blocks : 262144 Invalid Blocks : 0
Heartbeat CPU 3 instructions: 340000002 cycles: 3332656951 heartbeat IPC: 0.0452182 cumulative IPC: 0.0451979 (Simulation time: 28 hr 29 min 50 sec) 
 Total Blocks : 262144 Invalid Blocks : 0
Heartbeat CPU 4 instructions: 340000002 cycles: 3336448177 heartbeat IPC: 0.0451359 cumulative IPC: 0.0451621 (Simulation time: 28 hr 31 min 1 sec) 
 Total Blocks : 262144 Invalid Blocks : 0
Heartbeat CPU 1 instructions: 340000002 cycles: 3337642888 heartbeat IPC: 0.0448792 cumulative IPC: 0.0451036 (Simulation time: 28 hr 31 min 26 sec) 
 Total Blocks : 262144 Invalid Blocks : 0
Heartbeat CPU 2 instructions: 340000002 cycles: 3338801631 heartbeat IPC: 0.0449755 cumulative IPC: 0.0451009 (Simulation time: 28 hr 31 min 53 sec) 
 Total Blocks : 262144 Invalid Blocks : 0
Heartbeat CPU 5 instructions: 340000002 cycles: 3343533003 heartbeat IPC: 0.0448396 cumulative IPC: 0.0450798 (Simulation time: 28 hr 33 min 46 sec) 
 Total Blocks : 262144 Invalid Blocks : 0
Heartbeat CPU 7 instructions: 340000002 cycles: 3344430175 heartbeat IPC: 0.0448259 cumulative IPC: 0.0450934 (Simulation time: 28 hr 34 min 11 sec) 
 Total Blocks : 262144 Invalid Blocks : 0
Heartbeat CPU 6 instructions: 340000002 cycles: 3346833822 heartbeat IPC: 0.0447565 cumulative IPC: 0.0450468 (Simulation time: 28 hr 35 min 20 sec) 
 Total Blocks : 262144 Invalid Blocks : 0
Heartbeat CPU 0 instructions: 350000002 cycles: 3462123968 heartbeat IPC: 0.0755407 cumulative IPC: 0.0464427 (Simulation time: 29 hr 30 min 5 sec) 
 Total Blocks : 262144 Invalid Blocks : 0
Heartbeat CPU 3 instructions: 350000002 cycles: 3465623053 heartbeat IPC: 0.0752071 cumulative IPC: 0.0464348 (Simulation time: 29 hr 31 min 44 sec) 
 Total Blocks : 262144 Invalid Blocks : 0
Heartbeat CPU 4 instructions: 350000002 cycles: 3469643925 heartbeat IPC: 0.0750775 cumulative IPC: 0.0463957 (Simulation time: 29 hr 33 min 36 sec) 
 Total Blocks : 262144 Invalid Blocks : 0
Heartbeat CPU 1 instructions: 350000002 cycles: 3471180853 heartbeat IPC: 0.0748851 cumulative IPC: 0.0463344 (Simulation time: 29 hr 34 min 20 sec) 
 Total Blocks : 262144 Invalid Blocks : 0
Heartbeat CPU 2 instructions: 350000002 cycles: 3472144663 heartbeat IPC: 0.0749945 cumulative IPC: 0.0463341 (Simulation time: 29 hr 34 min 47 sec) 
 Total Blocks : 262144 Invalid Blocks : 0
Heartbeat CPU 5 instructions: 350000002 cycles: 3477153723 heartbeat IPC: 0.0748387 cumulative IPC: 0.0463081 (Simulation time: 29 hr 37 min 4 sec) 
 Total Blocks : 262144 Invalid Blocks : 0
Heartbeat CPU 7 instructions: 350000002 cycles: 3477814500 heartbeat IPC: 0.0749713 cumulative IPC: 0.0463241 (Simulation time: 29 hr 37 min 24 sec) 
 Total Blocks : 262144 Invalid Blocks : 0
Heartbeat CPU 6 instructions: 350000002 cycles: 3480522342 heartbeat IPC: 0.0748007 cumulative IPC: 0.0462742 (Simulation time: 29 hr 38 min 37 sec) 
 Total Blocks : 262144 Invalid Blocks : 0
Heartbeat CPU 0 instructions: 360000001 cycles: 3597141716 heartbeat IPC: 0.0740643 cumulative IPC: 0.0475535 (Simulation time: 31 hr 13 min 47 sec) 
 Total Blocks : 262144 Invalid Blocks : 0
Heartbeat CPU 3 instructions: 360000001 cycles: 3599539886 heartbeat IPC: 0.0746732 cumulative IPC: 0.0475604 (Simulation time: 31 hr 16 min 6 sec) 
 Total Blocks : 262144 Invalid Blocks : 0
Heartbeat CPU 4 instructions: 360000001 cycles: 3603971850 heartbeat IPC: 0.0744447 cumulative IPC: 0.0475157 (Simulation time: 31 hr 19 min 29 sec) 
 Total Blocks : 262144 Invalid Blocks : 0
Heartbeat CPU 1 instructions: 360000001 cycles: 3605089498 heartbeat IPC: 0.0746778 cumulative IPC: 0.0474622 (Simulation time: 31 hr 20 min 19 sec) 
 Total Blocks : 262144 Invalid Blocks : 0
Heartbeat CPU 2 instructions: 360000001 cycles: 3606259486 heartbeat IPC: 0.074563 cumulative IPC: 0.0474587 (Simulation time: 31 hr 21 min 11 sec) 
 Total Blocks : 262144 Invalid Blocks : 0
Heartbeat CPU 5 instructions: 360000001 cycles: 3610916322 heartbeat IPC: 0.0747593 cumulative IPC: 0.047437 (Simulation time: 31 hr 25 min 19 sec) 
 Total Blocks : 262144 Invalid Blocks : 0
Heartbeat CPU 7 instructions: 360000001 cycles: 3612050768 heartbeat IPC: 0.0744955 cumulative IPC: 0.0474455 (Simulation time: 31 hr 26 min 17 sec) 
 Total Blocks : 262144 Invalid Blocks : 0
Heartbeat CPU 6 instructions: 360000001 cycles: 3614733043 heartbeat IPC: 0.0745097 cumulative IPC: 0.047397 (Simulation time: 31 hr 28 min 53 sec) 
 Total Blocks : 262144 Invalid Blocks : 0
Heartbeat CPU 0 instructions: 370000001 cycles: 3732712464 heartbeat IPC: 0.0737622 cumulative IPC: 0.0485708 (Simulation time: 33 hr 10 min 38 sec) 
 Total Blocks : 262144 Invalid Blocks : 0
Heartbeat CPU 3 instructions: 370000001 cycles: 3734999265 heartbeat IPC: 0.0738229 cumulative IPC: 0.0485782 (Simulation time: 33 hr 12 min 45 sec) 
 Total Blocks : 262144 Invalid Blocks : 0
Heartbeat CPU 4 instructions: 370000001 cycles: 3739720650 heartbeat IPC: 0.0736655 cumulative IPC: 0.0485299 (Simulation time: 33 hr 16 min 27 sec) 
 Total Blocks : 262144 Invalid Blocks : 0
Heartbeat CPU 1 instructions: 370000001 cycles: 3740950300 heartbeat IPC: 0.0736047 cumulative IPC: 0.0484766 (Simulation time: 33 hr 17 min 23 sec) 
 Total Blocks : 262144 Invalid Blocks : 0
Heartbeat CPU 2 instructions: 370000001 cycles: 3742087523 heartbeat IPC: 0.0736225 cumulative IPC: 0.0484734 (Simulation time: 33 hr 18 min 21 sec) 
 Total Blocks : 262144 Invalid Blocks : 0
Heartbeat CPU 5 instructions: 370000001 cycles: 3746551962 heartbeat IPC: 0.0737269 cumulative IPC: 0.0484538 (Simulation time: 33 hr 21 min 51 sec) 
 Total Blocks : 262144 Invalid Blocks : 0
Heartbeat CPU 7 instructions: 370000001 cycles: 3747896621 heartbeat IPC: 0.0736128 cumulative IPC: 0.0484588 (Simulation time: 33 hr 22 min 51 sec) 
 Total Blocks : 262144 Invalid Blocks : 0
Heartbeat CPU 6 instructions: 370000001 cycles: 3750363734 heartbeat IPC: 0.0737296 cumulative IPC: 0.0484144 (Simulation time: 33 hr 24 min 43 sec) 
 Total Blocks : 262144 Invalid Blocks : 0
Heartbeat CPU 0 instructions: 380000003 cycles: 3869549667 heartbeat IPC: 0.0730796 cumulative IPC: 0.0494947 (Simulation time: 35 hr 4 min 36 sec) 
 Total Blocks : 262144 Invalid Blocks : 0
Heartbeat CPU 3 instructions: 380000003 cycles: 3872091503 heartbeat IPC: 0.0729436 cumulative IPC: 0.0494978 (Simulation time: 35 hr 6 min 52 sec) 
 Total Blocks : 262144 Invalid Blocks : 0
Heartbeat CPU 4 instructions: 380000003 cycles: 3876713936 heartbeat IPC: 0.0729963 cumulative IPC: 0.0494515 (Simulation time: 35 hr 10 min 54 sec) 
 Total Blocks : 262144 Invalid Blocks : 0
Heartbeat CPU 1 instructions: 380000003 cycles: 3877831849 heartbeat IPC: 0.0730559 cumulative IPC: 0.0494014 (Simulation time: 35 hr 11 min 44 sec) 
 Total Blocks : 262144 Invalid Blocks : 0
Heartbeat CPU 2 instructions: 380000003 cycles: 3878814269 heartbeat IPC: 0.0731386 cumulative IPC: 0.0494001 (Simulation time: 35 hr 12 min 31 sec) 
 Total Blocks : 262144 Invalid Blocks : 0
Heartbeat CPU 5 instructions: 380000003 cycles: 3883645969 heartbeat IPC: 0.0729427 cumulative IPC: 0.0493752 (Simulation time: 35 hr 16 min 54 sec) 
 Total Blocks : 262144 Invalid Blocks : 0
Heartbeat CPU 7 instructions: 380000003 cycles: 3884848126 heartbeat IPC: 0.0730186 cumulative IPC: 0.0493815 (Simulation time: 35 hr 18 min 0 sec) 
 Total Blocks : 262144 Invalid Blocks : 0
Heartbeat CPU 6 instructions: 380000003 cycles: 3887753306 heartbeat IPC: 0.0727857 cumulative IPC: 0.0493322 (Simulation time: 35 hr 20 min 23 sec) 
 Total Blocks : 262144 Invalid Blocks : 0
Heartbeat CPU 0 instructions: 390000001 cycles: 4007056693 heartbeat IPC: 0.0727235 cumulative IPC: 0.0503426 (Simulation time: 37 hr 1 min 53 sec) 
 Total Blocks : 262144 Invalid Blocks : 0
Heartbeat CPU 3 instructions: 390000001 cycles: 4009392370 heartbeat IPC: 0.0728327 cumulative IPC: 0.0503477 (Simulation time: 37 hr 3 min 43 sec) 
 Total Blocks : 262144 Invalid Blocks : 0
Heartbeat CPU 4 instructions: 390000001 cycles: 4014338468 heartbeat IPC: 0.0726615 cumulative IPC: 0.0502978 (Simulation time: 37 hr 7 min 45 sec) 
 Total Blocks : 262144 Invalid Blocks : 0
Heartbeat CPU 1 instructions: 390000001 cycles: 4015006184 heartbeat IPC: 0.0728999 cumulative IPC: 0.0502552 (Simulation time: 37 hr 8 min 20 sec) 
 Total Blocks : 262144 Invalid Blocks : 0
Heartbeat CPU 2 instructions: 390000001 cycles: 4015847003 heartbeat IPC: 0.0729752 cumulative IPC: 0.0502557 (Simulation time: 37 hr 8 min 57 sec) 
 Total Blocks : 262144 Invalid Blocks : 0
Heartbeat CPU 5 instructions: 390000001 cycles: 4020284001 heartbeat IPC: 0.0731861 cumulative IPC: 0.0502357 (Simulation time: 37 hr 12 min 19 sec) 
 Total Blocks : 262144 Invalid Blocks : 0
Heartbeat CPU 7 instructions: 390000001 cycles: 4020859403 heartbeat IPC: 0.0735233 cumulative IPC: 0.0502499 (Simulation time: 37 hr 12 min 46 sec) 
 Total Blocks : 262144 Invalid Blocks : 0
Heartbeat CPU 6 instructions: 390000001 cycles: 4024148100 heartbeat IPC: 0.0733166 cumulative IPC: 0.0501967 (Simulation time: 37 hr 15 min 27 sec) 
 Total Blocks : 262144 Invalid Blocks : 0
Heartbeat CPU 0 instructions: 400000000 cycles: 4149626767 heartbeat IPC: 0.0701409 cumulative IPC: 0.0510645 (Simulation time: 38 hr 47 min 37 sec) 
 Total Blocks : 262144 Invalid Blocks : 0
Heartbeat CPU 3 instructions: 400000000 cycles: 4152015623 heartbeat IPC: 0.0701148 cumulative IPC: 0.0510683 (Simulation time: 38 hr 49 min 24 sec) 
 Total Blocks : 262144 Invalid Blocks : 0
Finished CPU 0 instructions: 200000002 cycles: 3914777980 cumulative IPC: 0.0510885 (Simulation time: 38 hr 51 min 21 sec) 
Finished CPU 3 instructions: 200000000 cycles: 3915212824 cumulative IPC: 0.0510828 (Simulation time: 38 hr 51 min 42 sec) 
Heartbeat CPU 4 instructions: 400000000 cycles: 4156914397 heartbeat IPC: 0.0701381 cumulative IPC: 0.0510199 (Simulation time: 38 hr 53 min 10 sec) 
 Total Blocks : 262144 Invalid Blocks : 0
Heartbeat CPU 1 instructions: 400000000 cycles: 4157294329 heartbeat IPC: 0.0702799 cumulative IPC: 0.0509825 (Simulation time: 38 hr 53 min 26 sec) 
 Total Blocks : 262144 Invalid Blocks : 0
Heartbeat CPU 2 instructions: 400000000 cycles: 4158078059 heartbeat IPC: 0.0703081 cumulative IPC: 0.0509835 (Simulation time: 38 hr 53 min 59 sec) 
 Total Blocks : 262144 Invalid Blocks : 0
Finished CPU 4 instructions: 200000002 cycles: 3919277366 cumulative IPC: 0.0510298 (Simulation time: 38 hr 54 min 45 sec) 
Finished CPU 1 instructions: 200000001 cycles: 3921447656 cumulative IPC: 0.0510016 (Simulation time: 38 hr 56 min 9 sec) 
Finished CPU 2 instructions: 200000000 cycles: 3921587084 cumulative IPC: 0.0509998 (Simulation time: 38 hr 56 min 15 sec) 
Heartbeat CPU 5 instructions: 400000000 cycles: 4162514116 heartbeat IPC: 0.0703086 cumulative IPC: 0.0509635 (Simulation time: 38 hr 57 min 9 sec) 
 Total Blocks : 262144 Invalid Blocks : 0
Heartbeat CPU 7 instructions: 400000000 cycles: 4163144226 heartbeat IPC: 0.0702816 cumulative IPC: 0.0509764 (Simulation time: 38 hr 57 min 38 sec) 
 Total Blocks : 262144 Invalid Blocks : 0
Finished CPU 7 instructions: 200000002 cycles: 3923384685 cumulative IPC: 0.0509764 (Simulation time: 38 hr 57 min 38 sec) 
Finished CPU 5 instructions: 200000002 cycles: 3923939578 cumulative IPC: 0.0509692 (Simulation time: 38 hr 58 min 0 sec) 
Heartbeat CPU 6 instructions: 400000000 cycles: 4166514355 heartbeat IPC: 0.0702414 cumulative IPC: 0.0509234 (Simulation time: 39 hr 0 min 18 sec) 
 Total Blocks : 262144 Invalid Blocks : 0
Finished CPU 6 instructions: 200000001 cycles: 3927282932 cumulative IPC: 0.0509258 (Simulation time: 39 hr 0 min 47 sec) 

CPU 0 Branch Prediction Accuracy: 91.7396% MPKI: 18.2038 Average ROB Occupancy at Mispredict: 59.8199

CPU 1 Branch Prediction Accuracy: 91.716% MPKI: 18.2515 Average ROB Occupancy at Mispredict: 59.6055

CPU 2 Branch Prediction Accuracy: 91.7129% MPKI: 18.2611 Average ROB Occupancy at Mispredict: 59.5933

CPU 3 Branch Prediction Accuracy: 91.7301% MPKI: 18.233 Average ROB Occupancy at Mispredict: 59.7775

CPU 4 Branch Prediction Accuracy: 91.7145% MPKI: 18.2659 Average ROB Occupancy at Mispredict: 59.7356

CPU 5 Branch Prediction Accuracy: 91.6967% MPKI: 18.3029 Average ROB Occupancy at Mispredict: 59.6016

CPU 6 Branch Prediction Accuracy: 91.6834% MPKI: 18.3305 Average ROB Occupancy at Mispredict: 59.5406

CPU 7 Branch Prediction Accuracy: 91.6931% MPKI: 18.3168 Average ROB Occupancy at Mispredict: 59.5493

ChampSim completed all CPUs

Total Simulation Statistics (not including warmup)

CPU 0 cumulative IPC: 0.0511453 instructions: 200861935 cycles: 3927282932
ITLB TOTAL     ACCESS: 32284616  HIT: 32284616  MISS:     0  HIT %:   100  MISS %:     0  AVERAGE MISS PENALTY: 0
ITLB LOAD      ACCESS: 32284616  HIT: 32284616  MISS:     0  HIT %:   100  MISS %:     0  AVERAGE MISS PENALTY: 0
ITLB RFO       ACCESS:     0  HIT:     0  MISS:     0  HIT %:     0  MISS %:     0  AVERAGE MISS PENALTY: 0
ITLB PREFETCH  ACCESS:     0  HIT:     0  MISS:     0  HIT %:     0  MISS %:     0  AVERAGE MISS PENALTY: 0
ITLB WRITEBACK ACCESS:     0  HIT:     0  MISS:     0  HIT %:     0  MISS %:     0  AVERAGE MISS PENALTY: 0

DTLB TOTAL     ACCESS: 44364829  HIT: 29752448  MISS: 14612381  HIT %: 67.0631  MISS %: 32.9369  AVERAGE MISS PENALTY: 53.8118
DTLB LOAD      ACCESS: 38677715  HIT: 26518851  MISS: 12158864  HIT %: 68.5636  MISS %: 31.4364  AVERAGE MISS PENALTY: 49.8105
DTLB RFO       ACCESS: 5687114  HIT: 3233597  MISS: 2453517  HIT %: 56.8583  MISS %: 43.1417  AVERAGE MISS PENALTY: 73.6408
DTLB PREFETCH  ACCESS:     0  HIT:     0  MISS:     0  HIT %:     0  MISS %:     0  AVERAGE MISS PENALTY: 0
DTLB WRITEBACK ACCESS:     0  HIT:     0  MISS:     0  HIT %:     0  MISS %:     0  AVERAGE MISS PENALTY: 0

STLB TOTAL     ACCESS: 14612380  HIT: 12385838  MISS: 2226542  HIT %: 84.7626  MISS %: 15.2374  AVERAGE MISS PENALTY: 100
STLB LOAD      ACCESS: 12158863  HIT: 11115726  MISS: 1043137  HIT %: 91.4208  MISS %: 8.57923  AVERAGE MISS PENALTY: 100
STLB RFO       ACCESS: 2453517  HIT: 1270112  MISS: 1183405  HIT %: 51.767  MISS %: 48.233  AVERAGE MISS PENALTY: 100
STLB PREFETCH  ACCESS:     0  HIT:     0  MISS:     0  HIT %:     0  MISS %:     0  AVERAGE MISS PENALTY: 0
STLB WRITEBACK ACCESS:     0  HIT:     0  MISS:     0  HIT %:     0  MISS %:     0  AVERAGE MISS PENALTY: 0

L1D TOTAL     ACCESS: 89261595  HIT: 30486072  MISS: 58775523  HIT %: 34.1536  MISS %: 65.8464  AVERAGE MISS PENALTY: 1.51362e+06
L1D LOAD      ACCESS: 40502500  HIT: 22879113  MISS: 17623387  HIT %: 56.4882  MISS %: 43.5118  AVERAGE MISS PENALTY: 5.04686e+06
L1D RFO       ACCESS: 6038854  HIT: 5999184  MISS: 39670  HIT %: 99.3431  MISS %: 0.656913  AVERAGE MISS PENALTY: 84177.8
L1D PREFETCH  ACCESS: 42720241  HIT: 1607775  MISS: 41112466  HIT %: 3.7635  MISS %: 96.2365  AVERAGE MISS PENALTY: 437.766
L1D WRITEBACK ACCESS:     0  HIT:     0  MISS:     0  HIT %:     0  MISS %:     0  AVERAGE MISS PENALTY: 0

L1I TOTAL     ACCESS: 48162490  HIT: 48162490  MISS:     0  HIT %:   100  MISS %:     0  AVERAGE MISS PENALTY: 0
L1I LOAD      ACCESS: 48162490  HIT: 48162490  MISS:     0  HIT %:   100  MISS %:     0  AVERAGE MISS PENALTY: 0
L1I RFO       ACCESS:     0  HIT:     0  MISS:     0  HIT %:     0  MISS %:     0  AVERAGE MISS PENALTY: 0
L1I PREFETCH  ACCESS:     0  HIT:     0  MISS:     0  HIT %:     0  MISS %:     0  AVERAGE MISS PENALTY: 0
L1I WRITEBACK ACCESS:     0  HIT:     0  MISS:     0  HIT %:     0  MISS %:     0  AVERAGE MISS PENALTY: 0

L2C TOTAL     ACCESS: 95944844  HIT: 5724267  MISS: 90220577  HIT %: 5.96621  MISS %: 94.0338  AVERAGE MISS PENALTY: 864257
L2C LOAD      ACCESS: 17622368  HIT: 202066  MISS: 17420302  HIT %: 1.14664  MISS %: 98.8534  AVERAGE MISS PENALTY: 4.47421e+06
L2C RFO       ACCESS: 39658  HIT: 16361  MISS: 23297  HIT %: 41.2552  MISS %: 58.7448  AVERAGE MISS PENALTY: 410.513
L2C PREFETCH  ACCESS: 75209515  HIT: 4573854  MISS: 70635661  HIT %: 6.08148  MISS %: 93.9185  AVERAGE MISS PENALTY: 448.729
L2C WRITEBACK ACCESS: 3073303  HIT: 931986  MISS: 2141317  HIT %: 30.3252  MISS %: 69.6748  AVERAGE MISS PENALTY: 0


LLC0 TOTAL     ACCESS: 11589034  HIT: 5508920  MISS: 6080114  HIT %: 47.5356  MISS %: 52.4644  AVERAGE MISS PENALTY: 763.711
LLC0 LOAD      ACCESS: 2174916  HIT: 956630  MISS: 1218286  HIT %: 43.9847  MISS %: 56.0153  AVERAGE MISS PENALTY: 745.574
LLC0 RFO       ACCESS:  3008  HIT:  1437  MISS:  1571  HIT %: 47.7726  MISS %: 52.2274  AVERAGE MISS PENALTY: 711.376
LLC0 PREFETCH  ACCESS: 9027989  HIT: 4177036  MISS: 4850953  HIT %: 46.2676  MISS %: 53.7324  AVERAGE MISS PENALTY: 769.748
LLC0 WRITEBACK ACCESS: 383121  HIT: 373817  MISS:  9304  HIT %: 97.5715  MISS %: 2.42848  AVERAGE MISS PENALTY: 0

LLC1 TOTAL     ACCESS: 11771559  HIT: 5526949  MISS: 6244610  HIT %: 46.9517  MISS %: 53.0483  AVERAGE MISS PENALTY: 768.24
LLC1 LOAD      ACCESS: 2112616  HIT: 910153  MISS: 1202463  HIT %: 43.0818  MISS %: 56.9182  AVERAGE MISS PENALTY: 752.87
LLC1 RFO       ACCESS:  2996  HIT:  1417  MISS:  1579  HIT %: 47.2964  MISS %: 52.7036  AVERAGE MISS PENALTY: 725.63
LLC1 PREFETCH  ACCESS: 9269644  HIT: 4237507  MISS: 5032137  HIT %: 45.7138  MISS %: 54.2862  AVERAGE MISS PENALTY: 773.213
LLC1 WRITEBACK ACCESS: 386303  HIT: 377872  MISS:  8431  HIT %: 97.8175  MISS %: 2.18248  AVERAGE MISS PENALTY: 0

LLC2 TOTAL     ACCESS: 11772226  HIT: 5496536  MISS: 6275690  HIT %: 46.6907  MISS %: 53.3093  AVERAGE MISS PENALTY: 751.859
LLC2 LOAD      ACCESS: 2281559  HIT: 1043320  MISS: 1238239  HIT %: 45.7284  MISS %: 54.2716  AVERAGE MISS PENALTY: 744.796
LLC2 RFO       ACCESS:  2966  HIT:  1386  MISS:  1580  HIT %: 46.7296  MISS %: 53.2704  AVERAGE MISS PENALTY: 683.389
LLC2 PREFETCH  ACCESS: 9103403  HIT: 4077023  MISS: 5026380  HIT %: 44.7857  MISS %: 55.2143  AVERAGE MISS PENALTY: 755.04
LLC2 WRITEBACK ACCESS: 384298  HIT: 374807  MISS:  9491  HIT %: 97.5303  MISS %: 2.4697  AVERAGE MISS PENALTY: 0

LLC3 TOTAL     ACCESS: 11455047  HIT: 5311560  MISS: 6143487  HIT %: 46.3687  MISS %: 53.6313  AVERAGE MISS PENALTY: 760.111
LLC3 LOAD      ACCESS: 2141684  HIT: 920774  MISS: 1220910  HIT %: 42.993  MISS %: 57.007  AVERAGE MISS PENALTY: 752.117
LLC3 RFO       ACCESS:  2934  HIT:  1370  MISS:  1564  HIT %: 46.6939  MISS %: 53.3061  AVERAGE MISS PENALTY: 707.597
LLC3 PREFETCH  ACCESS: 8927318  HIT: 4015386  MISS: 4911932  HIT %: 44.9786  MISS %: 55.0214  AVERAGE MISS PENALTY: 763.52
LLC3 WRITEBACK ACCESS: 383111  HIT: 374030  MISS:  9081  HIT %: 97.6297  MISS %: 2.37033  AVERAGE MISS PENALTY: 0

LLC4 TOTAL     ACCESS: 11397356  HIT: 5311291  MISS: 6086065  HIT %: 46.6011  MISS %: 53.3989  AVERAGE MISS PENALTY: 737.395
LLC4 LOAD      ACCESS: 2162124  HIT: 931417  MISS: 1230707  HIT %: 43.0788  MISS %: 56.9212  AVERAGE MISS PENALTY: 717.396
LLC4 RFO       ACCESS:  2930  HIT:  1349  MISS:  1581  HIT %: 46.041  MISS %: 53.959  AVERAGE MISS PENALTY: 703.3
LLC4 PREFETCH  ACCESS: 8847836  HIT: 4001758  MISS: 4846078  HIT %: 45.2287  MISS %: 54.7713  AVERAGE MISS PENALTY: 743.657
LLC4 WRITEBACK ACCESS: 384466  HIT: 376767  MISS:  7699  HIT %: 97.9975  MISS %: 2.00252  AVERAGE MISS PENALTY: 0

LLC5 TOTAL     ACCESS: 11245734  HIT: 5258451  MISS: 5987283  HIT %: 46.7595  MISS %: 53.2405  AVERAGE MISS PENALTY: 720.237
LLC5 LOAD      ACCESS: 2167089  HIT: 954250  MISS: 1212839  HIT %: 44.0337  MISS %: 55.9663  AVERAGE MISS PENALTY: 695.493
LLC5 RFO       ACCESS:  2844  HIT:  1280  MISS:  1564  HIT %: 45.007  MISS %: 54.993  AVERAGE MISS PENALTY: 658.366
LLC5 PREFETCH  ACCESS: 8702018  HIT: 3936932  MISS: 4765086  HIT %: 45.2416  MISS %: 54.7584  AVERAGE MISS PENALTY: 727.733
LLC5 WRITEBACK ACCESS: 373783  HIT: 365989  MISS:  7794  HIT %: 97.9148  MISS %: 2.08517  AVERAGE MISS PENALTY: 0

LLC6 TOTAL     ACCESS: 11040722  HIT: 5157861  MISS: 5882861  HIT %: 46.7167  MISS %: 53.2833  AVERAGE MISS PENALTY: 732.257
LLC6 LOAD      ACCESS: 2134047  HIT: 920227  MISS: 1213820  HIT %: 43.1212  MISS %: 56.8788  AVERAGE MISS PENALTY: 717.371
LLC6 RFO       ACCESS:  2777  HIT:  1214  MISS:  1563  HIT %: 43.7162  MISS %: 56.2838  AVERAGE MISS PENALTY: 675.332
LLC6 PREFETCH  ACCESS: 8525371  HIT: 3868086  MISS: 4657285  HIT %: 45.3715  MISS %: 54.6285  AVERAGE MISS PENALTY: 737.758
LLC6 WRITEBACK ACCESS: 378527  HIT: 368334  MISS: 10193  HIT %: 97.3072  MISS %: 2.69281  AVERAGE MISS PENALTY: 0

LLC7 TOTAL     ACCESS: 10863111  HIT: 5083884  MISS: 5779227  HIT %: 46.7995  MISS %: 53.2005  AVERAGE MISS PENALTY: 717.637
LLC7 LOAD      ACCESS: 2205119  HIT: 986024  MISS: 1219095  HIT %: 44.7152  MISS %: 55.2848  AVERAGE MISS PENALTY: 694.792
LLC7 RFO       ACCESS:  2833  HIT:  1270  MISS:  1563  HIT %: 44.8288  MISS %: 55.1712  AVERAGE MISS PENALTY: 657.788
LLC7 PREFETCH  ACCESS: 8273228  HIT: 3729881  MISS: 4543347  HIT %: 45.0837  MISS %: 54.9163  AVERAGE MISS PENALTY: 726.192
LLC7 WRITEBACK ACCESS: 381931  HIT: 366709  MISS: 15222  HIT %: 96.0145  MISS %: 3.98554  AVERAGE MISS PENALTY: 0

Total Rob stall cycles : 	3856668821
Total Load Rob Stall cycles : 	3133434411
Average Rob Stall cycles : 	 70
Average Load Rob Stall cycles : 	 473

CPU 1 cumulative IPC: 0.0510301 instructions: 200409547 cycles: 3927282932
ITLB TOTAL     ACCESS: 32186719  HIT: 32186719  MISS:     0  HIT %:   100  MISS %:     0  AVERAGE MISS PENALTY: 0
ITLB LOAD      ACCESS: 32186719  HIT: 32186719  MISS:     0  HIT %:   100  MISS %:     0  AVERAGE MISS PENALTY: 0
ITLB RFO       ACCESS:     0  HIT:     0  MISS:     0  HIT %:     0  MISS %:     0  AVERAGE MISS PENALTY: 0
ITLB PREFETCH  ACCESS:     0  HIT:     0  MISS:     0  HIT %:     0  MISS %:     0  AVERAGE MISS PENALTY: 0
ITLB WRITEBACK ACCESS:     0  HIT:     0  MISS:     0  HIT %:     0  MISS %:     0  AVERAGE MISS PENALTY: 0

DTLB TOTAL     ACCESS: 44288354  HIT: 29716291  MISS: 14572063  HIT %: 67.0973  MISS %: 32.9027  AVERAGE MISS PENALTY: 53.9256
DTLB LOAD      ACCESS: 38600697  HIT: 26482862  MISS: 12117835  HIT %: 68.6072  MISS %: 31.3928  AVERAGE MISS PENALTY: 30.147
DTLB RFO       ACCESS: 5687657  HIT: 3233429  MISS: 2454228  HIT %: 56.8499  MISS %: 43.1501  AVERAGE MISS PENALTY: 171.333
DTLB PREFETCH  ACCESS:     0  HIT:     0  MISS:     0  HIT %:     0  MISS %:     0  AVERAGE MISS PENALTY: 0
DTLB WRITEBACK ACCESS:     0  HIT:     0  MISS:     0  HIT %:     0  MISS %:     0  AVERAGE MISS PENALTY: 0

STLB TOTAL     ACCESS: 14572062  HIT: 12347594  MISS: 2224468  HIT %: 84.7347  MISS %: 15.2653  AVERAGE MISS PENALTY: 100
STLB LOAD      ACCESS: 12117835  HIT: 11076927  MISS: 1040908  HIT %: 91.4101  MISS %: 8.58988  AVERAGE MISS PENALTY: 100
STLB RFO       ACCESS: 2454227  HIT: 1270667  MISS: 1183560  HIT %: 51.7746  MISS %: 48.2254  AVERAGE MISS PENALTY: 100
STLB PREFETCH  ACCESS:     0  HIT:     0  MISS:     0  HIT %:     0  MISS %:     0  AVERAGE MISS PENALTY: 0
STLB WRITEBACK ACCESS:     0  HIT:     0  MISS:     0  HIT %:     0  MISS %:     0  AVERAGE MISS PENALTY: 0

L1D TOTAL     ACCESS: 89122841  HIT: 30460408  MISS: 58662433  HIT %: 34.178  MISS %: 65.822  AVERAGE MISS PENALTY: 1.51665e+06
L1D LOAD      ACCESS: 40440646  HIT: 22858241  MISS: 17582405  HIT %: 56.5229  MISS %: 43.4771  AVERAGE MISS PENALTY: 5.05918e+06
L1D RFO       ACCESS: 6039634  HIT: 6000031  MISS: 39603  HIT %: 99.3443  MISS %: 0.655719  AVERAGE MISS PENALTY: 251.229
L1D PREFETCH  ACCESS: 42642561  HIT: 1602136  MISS: 41040425  HIT %: 3.75713  MISS %: 96.2429  AVERAGE MISS PENALTY: 433.153
L1D WRITEBACK ACCESS:     0  HIT:     0  MISS:     0  HIT %:     0  MISS %:     0  AVERAGE MISS PENALTY: 0

L1I TOTAL     ACCESS: 48006119  HIT: 48006119  MISS:     0  HIT %:   100  MISS %:     0  AVERAGE MISS PENALTY: 0
L1I LOAD      ACCESS: 48006119  HIT: 48006119  MISS:     0  HIT %:   100  MISS %:     0  AVERAGE MISS PENALTY: 0
L1I RFO       ACCESS:     0  HIT:     0  MISS:     0  HIT %:     0  MISS %:     0  AVERAGE MISS PENALTY: 0
L1I PREFETCH  ACCESS:     0  HIT:     0  MISS:     0  HIT %:     0  MISS %:     0  AVERAGE MISS PENALTY: 0
L1I WRITEBACK ACCESS:     0  HIT:     0  MISS:     0  HIT %:     0  MISS %:     0  AVERAGE MISS PENALTY: 0

L2C TOTAL     ACCESS: 95752525  HIT: 8002013  MISS: 87750512  HIT %: 8.35697  MISS %: 91.643  AVERAGE MISS PENALTY: 886241
L2C LOAD      ACCESS: 17581420  HIT: 264912  MISS: 17316508  HIT %: 1.50677  MISS %: 98.4932  AVERAGE MISS PENALTY: 4.48915e+06
L2C RFO       ACCESS: 39589  HIT: 22416  MISS: 17173  HIT %: 56.6218  MISS %: 43.3782  AVERAGE MISS PENALTY: 540.517
L2C PREFETCH  ACCESS: 75057454  HIT: 4705741  MISS: 70351713  HIT %: 6.26952  MISS %: 93.7305  AVERAGE MISS PENALTY: 450.798
L2C WRITEBACK ACCESS: 3074062  HIT: 3008944  MISS: 65118  HIT %: 97.8817  MISS %: 2.1183  AVERAGE MISS PENALTY: 0


LLC0 TOTAL     ACCESS: 11534495  HIT: 5396227  MISS: 6138268  HIT %: 46.7834  MISS %: 53.2166  AVERAGE MISS PENALTY: 757.665
LLC0 LOAD      ACCESS: 2160959  HIT: 944374  MISS: 1216585  HIT %: 43.7016  MISS %: 56.2984  AVERAGE MISS PENALTY: 746.416
LLC0 RFO       ACCESS:  2168  HIT:   610  MISS:  1558  HIT %: 28.1365  MISS %: 71.8635  AVERAGE MISS PENALTY: 693.664
LLC0 PREFETCH  ACCESS: 8992898  HIT: 4131932  MISS: 4860966  HIT %: 45.9466  MISS %: 54.0534  AVERAGE MISS PENALTY: 769.722
LLC0 WRITEBACK ACCESS: 378470  HIT: 319311  MISS: 59159  HIT %: 84.3689  MISS %: 15.6311  AVERAGE MISS PENALTY: 0

LLC1 TOTAL     ACCESS: 11718627  HIT: 5423297  MISS: 6295330  HIT %: 46.2793  MISS %: 53.7207  AVERAGE MISS PENALTY: 762.612
LLC1 LOAD      ACCESS: 2099467  HIT: 898474  MISS: 1200993  HIT %: 42.7953  MISS %: 57.2047  AVERAGE MISS PENALTY: 752.657
LLC1 RFO       ACCESS:  2188  HIT:   631  MISS:  1557  HIT %: 28.8391  MISS %: 71.1609  AVERAGE MISS PENALTY: 735.412
LLC1 PREFETCH  ACCESS: 9234647  HIT: 4196623  MISS: 5038024  HIT %: 45.4443  MISS %: 54.5557  AVERAGE MISS PENALTY: 773.282
LLC1 WRITEBACK ACCESS: 382325  HIT: 327569  MISS: 54756  HIT %: 85.6782  MISS %: 14.3218  AVERAGE MISS PENALTY: 0

LLC2 TOTAL     ACCESS: 11722294  HIT: 5395389  MISS: 6326905  HIT %: 46.0267  MISS %: 53.9733  AVERAGE MISS PENALTY: 746.495
LLC2 LOAD      ACCESS: 2269934  HIT: 1029864  MISS: 1240070  HIT %: 45.3698  MISS %: 54.6302  AVERAGE MISS PENALTY: 744.934
LLC2 RFO       ACCESS:  2211  HIT:   645  MISS:  1566  HIT %: 29.1723  MISS %: 70.8277  AVERAGE MISS PENALTY: 706.212
[...]
LLC2 RFO       ACCESS:  1715  HIT:   158  MISS:  1557  HIT %: 9.21283  MISS %: 90.7872  AVERAGE MISS PENALTY: 716.579
LLC2 PREFETCH  ACCESS: 9055061  HIT: 4026608  MISS: 5028453  HIT %: 44.468  MISS %: 55.532  AVERAGE MISS PENALTY: 754.629
LLC2 WRITEBACK ACCESS: 380138  HIT: 327542  MISS: 52596  HIT %: 86.164  MISS %: 13.836  AVERAGE MISS PENALTY: 0
LLC2 PREFETCH  REQUESTED:     0  ISSUED:     0  USEFUL: 3054997  USELESS: 37177060
 USEFUL LOAD PREFETCHES:    3054997 PREFETCH ISSUED TO LOWER LEVEL:  377633924  ACCURACY: 0.808984
 TIMELY PREFETCHES:    3054997 LATE PREFETCHES: 0 DROPPED PREFETCHES: 0
LLC2 AVERAGE MISS LATENCY: 746.364 cycles
LLC3 TOTAL     ACCESS: 11390117  HIT: 5203543  MISS: 6186574  HIT %: 45.6847  MISS %: 54.3153  AVERAGE MISS PENALTY: 754.728
LLC3 LOAD      ACCESS: 2132400  HIT: 913489  MISS: 1218911  HIT %: 42.8385  MISS %: 57.1615  AVERAGE MISS PENALTY: 752.564
LLC3 RFO       ACCESS:  1726  HIT:   174  MISS:  1552  HIT %: 10.0811  MISS %: 89.9189  AVERAGE MISS PENALTY: 734.361
LLC3 PREFETCH  ACCESS: 8877107  HIT: 3962453  MISS: 4914654  HIT %: 44.6368  MISS %: 55.3632  AVERAGE MISS PENALTY: 763.174
LLC3 WRITEBACK ACCESS: 378884  HIT: 327427  MISS: 51457  HIT %: 86.4188  MISS %: 13.5812  AVERAGE MISS PENALTY: 0
LLC3 PREFETCH  REQUESTED:     0  ISSUED:     0  USEFUL: 3035517  USELESS: 36282008
 USEFUL LOAD PREFETCHES:    3035517 PREFETCH ISSUED TO LOWER LEVEL:  330350232  ACCURACY: 0.918878
 TIMELY PREFETCHES:    3035517 LATE PREFETCHES: 0 DROPPED PREFETCHES: 0
LLC3 AVERAGE MISS LATENCY: 754.728 cycles
LLC4 TOTAL     ACCESS: 11345321  HIT: 5212799  MISS: 6132522  HIT %: 45.9467  MISS %: 54.0533  AVERAGE MISS PENALTY: 731.937
LLC4 LOAD      ACCESS: 2152336  HIT: 923145  MISS: 1229191  HIT %: 42.8904  MISS %: 57.1096  AVERAGE MISS PENALTY: 716.513
LLC4 RFO       ACCESS:  1750  HIT:   199  MISS:  1551  HIT %: 11.3714  MISS %: 88.6286  AVERAGE MISS PENALTY: 698.13
LLC4 PREFETCH  ACCESS: 8798008  HIT: 3947723  MISS: 4850285  HIT %: 44.8706  MISS %: 55.1294  AVERAGE MISS PENALTY: 743.627
LLC4 WRITEBACK ACCESS: 393227  HIT: 341732  MISS: 51495  HIT %: 86.9045  MISS %: 13.0955  AVERAGE MISS PENALTY: 0
LLC4 PREFETCH  REQUESTED:     0  ISSUED:     0  USEFUL: 3010882  USELESS: 35792608
 USEFUL LOAD PREFETCHES:    3010882 PREFETCH ISSUED TO LOWER LEVEL:  537287784  ACCURACY: 0.560385
 TIMELY PREFETCHES:    3010882 LATE PREFETCHES: 0 DROPPED PREFETCHES: 0
LLC4 AVERAGE MISS LATENCY: 731.937 cycles
LLC5 TOTAL     ACCESS: 11171830  HIT: 5143579  MISS: 6028251  HIT %: 46.0406  MISS %: 53.9594  AVERAGE MISS PENALTY: 715.515
LLC5 LOAD      ACCESS: 2149537  HIT: 939384  MISS: 1210153  HIT %: 43.7017  MISS %: 56.2983  AVERAGE MISS PENALTY: 695.389
LLC5 RFO       ACCESS:  1717  HIT:   172  MISS:  1545  HIT %: 10.0175  MISS %: 89.9825  AVERAGE MISS PENALTY: 681.757
LLC5 PREFETCH  ACCESS: 8650763  HIT: 3883222  MISS: 4767541  HIT %: 44.8888  MISS %: 55.1112  AVERAGE MISS PENALTY: 727.991
LLC5 WRITEBACK ACCESS: 369813  HIT: 320801  MISS: 49012  HIT %: 86.7468  MISS %: 13.2532  AVERAGE MISS PENALTY: 0
LLC5 PREFETCH  REQUESTED:     0  ISSUED:     0  USEFUL: 2966256  USELESS: 35180668
 USEFUL LOAD PREFETCHES:    2966256 PREFETCH ISSUED TO LOWER LEVEL:  463834887  ACCURACY: 0.639507
 TIMELY PREFETCHES:    2966256 LATE PREFETCHES: 0 DROPPED PREFETCHES: 0
LLC5 AVERAGE MISS LATENCY: 715.515 cycles
LLC6 TOTAL     ACCESS: 10985574  HIT: 5062662  MISS: 5922912  HIT %: 46.0846  MISS %: 53.9154  AVERAGE MISS PENALTY: 727.37
LLC6 LOAD      ACCESS: 2134270  HIT: 921715  MISS: 1212555  HIT %: 43.1864  MISS %: 56.8136  AVERAGE MISS PENALTY: 717.716
LLC6 RFO       ACCESS:  1699  HIT:   149  MISS:  1550  HIT %: 8.76986  MISS %: 91.2301  AVERAGE MISS PENALTY: 679.561
LLC6 PREFETCH  ACCESS: 8474973  HIT: 3816354  MISS: 4658619  HIT %: 45.0309  MISS %: 54.9691  AVERAGE MISS PENALTY: 737.735
LLC6 WRITEBACK ACCESS: 374632  HIT: 324444  MISS: 50188  HIT %: 86.6034  MISS %: 13.3966  AVERAGE MISS PENALTY: 0
LLC6 PREFETCH  REQUESTED:     0  ISSUED:     0  USEFUL: 2889923  USELESS: 34379135
 USEFUL LOAD PREFETCHES:    2889923 PREFETCH ISSUED TO LOWER LEVEL:  752028910  ACCURACY: 0.384283
 TIMELY PREFETCHES:    2889923 LATE PREFETCHES: 0 DROPPED PREFETCHES: 0
LLC6 AVERAGE MISS LATENCY: 727.37 cycles
LLC7 TOTAL     ACCESS: 10790375  HIT: 4975819  MISS: 5814556  HIT %: 46.1135  MISS %: 53.8865  AVERAGE MISS PENALTY: 712.775
LLC7 LOAD      ACCESS: 2185875  HIT: 968510  MISS: 1217365  HIT %: 44.3077  MISS %: 55.6923  AVERAGE MISS PENALTY: 693.831
LLC7 RFO       ACCESS:  1708  HIT:   159  MISS:  1549  HIT %: 9.30913  MISS %: 90.6909  AVERAGE MISS PENALTY: 659.03
LLC7 PREFETCH  ACCESS: 8224808  HIT: 3682902  MISS: 4541906  HIT %: 44.778  MISS %: 55.222  AVERAGE MISS PENALTY: 726.303
LLC7 WRITEBACK ACCESS: 377984  HIT: 324248  MISS: 53736  HIT %: 85.7835  MISS %: 14.2165  AVERAGE MISS PENALTY: 0
LLC7 PREFETCH  REQUESTED:     0  ISSUED:     0  USEFUL: 2802990  USELESS: 33553740
 USEFUL LOAD PREFETCHES:    2802990 PREFETCH ISSUED TO LOWER LEVEL:  639245441  ACCURACY: 0.438484
 TIMELY PREFETCHES:    2802990 LATE PREFETCHES: 0 DROPPED PREFETCHES: 0
LLC7 AVERAGE MISS LATENCY: 712.775 cycles
ROI Average ROB Stall Cycles:	70.9741
ROI Total ROB Stalls Cycles:	3856555237
ROI TOTAL ROB counter      :	54337538
ROI Average Load ROB Stall Cycles:	473.698
ROI Total Load ROB Stalls Cycle  :	3136156638
ROI Total Load ROB stalls Counter:	6620576
Major fault: 0 Minor fault: 37417

CPU 7 cumulative IPC: 0.0509764 instructions: 200000002 cycles: 3923384685
ITLB TOTAL     ACCESS: 32078600  HIT: 32078600  MISS:     0  HIT %:   100  MISS %:     0  AVERAGE MISS PENALTY: 0
ITLB LOAD      ACCESS: 32078600  HIT: 32078600  MISS:     0  HIT %:   100  MISS %:     0  AVERAGE MISS PENALTY: 0
ITLB RFO       ACCESS:     0  HIT:     0  MISS:     0  HIT %:     0  MISS %:     0  AVERAGE MISS PENALTY: 0
ITLB PREFETCH  ACCESS:     0  HIT:     0  MISS:     0  HIT %:     0  MISS %:     0  AVERAGE MISS PENALTY: 0
ITLB WRITEBACK ACCESS:     0  HIT:     0  MISS:     0  HIT %:     0  MISS %:     0  AVERAGE MISS PENALTY: 0
ITLB PREFETCH  REQUESTED:     0  ISSUED:     0  USEFUL:     0  USELESS:     0
 USEFUL LOAD PREFETCHES:          0 PREFETCH ISSUED TO LOWER LEVEL:          0  ACCURACY: -nan
 TIMELY PREFETCHES:          0 LATE PREFETCHES: 0 DROPPED PREFETCHES: 0
ITLB AVERAGE MISS LATENCY: -nan cycles
DTLB TOTAL     ACCESS: 44232829  HIT: 29700962  MISS: 14531867  HIT %: 67.1469  MISS %: 32.8531  AVERAGE MISS PENALTY: 37.5709
DTLB LOAD      ACCESS: 38537222  HIT: 26463345  MISS: 12073877  HIT %: 68.6696  MISS %: 31.3304  AVERAGE MISS PENALTY: 30.2307
DTLB RFO       ACCESS: 5695607  HIT: 3237617  MISS: 2457990  HIT %: 56.8441  MISS %: 43.1559  AVERAGE MISS PENALTY: 73.6267
DTLB PREFETCH  ACCESS:     0  HIT:     0  MISS:     0  HIT %:     0  MISS %:     0  AVERAGE MISS PENALTY: 0
DTLB WRITEBACK ACCESS:     0  HIT:     0  MISS:     0  HIT %:     0  MISS %:     0  AVERAGE MISS PENALTY: 0
DTLB PREFETCH  REQUESTED:     0  ISSUED:     0  USEFUL:     0  USELESS:     0
 USEFUL LOAD PREFETCHES:          0 PREFETCH ISSUED TO LOWER LEVEL:          0  ACCURACY: -nan
 TIMELY PREFETCHES:          0 LATE PREFETCHES: 0 DROPPED PREFETCHES: 0
DTLB AVERAGE MISS LATENCY: 37.5709 cycles
STLB TOTAL     ACCESS: 14531867  HIT: 12306812  MISS: 2225055  HIT %: 84.6884  MISS %: 15.3116  AVERAGE MISS PENALTY: 100
STLB LOAD      ACCESS: 12073877  HIT: 11033929  MISS: 1039948  HIT %: 91.3868  MISS %: 8.61321  AVERAGE MISS PENALTY: 100
STLB RFO       ACCESS: 2457990  HIT: 1272883  MISS: 1185107  HIT %: 51.7855  MISS %: 48.2145  AVERAGE MISS PENALTY: 100
STLB PREFETCH  ACCESS:     0  HIT:     0  MISS:     0  HIT %:     0  MISS %:     0  AVERAGE MISS PENALTY: 0
STLB WRITEBACK ACCESS:     0  HIT:     0  MISS:     0  HIT %:     0  MISS %:     0  AVERAGE MISS PENALTY: 0
STLB PREFETCH  REQUESTED:     0  ISSUED:     0  USEFUL:     0  USELESS:     0
 USEFUL LOAD PREFETCHES:          0 PREFETCH ISSUED TO LOWER LEVEL:          0  ACCURACY: -nan
 TIMELY PREFETCHES:          0 LATE PREFETCHES: 0 DROPPED PREFETCHES: 0
STLB AVERAGE MISS LATENCY: 100 cycles
L1D TOTAL     ACCESS: 89020463  HIT: 30457252  MISS: 58563211  HIT %: 34.2138  MISS %: 65.7862  AVERAGE MISS PENALTY: 1.51801e+06
L1D LOAD      ACCESS: 40398287  HIT: 22853637  MISS: 17544650  HIT %: 56.5708  MISS %: 43.4292  AVERAGE MISS PENALTY: 5.06603e+06
L1D RFO       ACCESS: 6048371  HIT: 6008872  MISS: 39499  HIT %: 99.3469  MISS %: 0.653052  AVERAGE MISS PENALTY: 245.881
L1D PREFETCH  ACCESS: 42573805  HIT: 1594743  MISS: 40979062  HIT %: 3.74583  MISS %: 96.2542  AVERAGE MISS PENALTY: 433.575
L1D WRITEBACK ACCESS:     0  HIT:     0  MISS:     0  HIT %:     0  MISS %:     0  AVERAGE MISS PENALTY: 0
L1D PREFETCH  REQUESTED: 60185470  ISSUED: 42855661  USEFUL: 915672  USELESS: 40063485
 USEFUL LOAD PREFETCHES:     915672 PREFETCH ISSUED TO LOWER LEVEL:  525331889  ACCURACY: 0.174304
 TIMELY PREFETCHES:     915672 LATE PREFETCHES: 118036 DROPPED PREFETCHES: 17329809
L1D AVERAGE MISS LATENCY: 441.914 cycles
L1I TOTAL     ACCESS: 47830686  HIT: 47830686  MISS:     0  HIT %:   100  MISS %:     0  AVERAGE MISS PENALTY: 0
L1I LOAD      ACCESS: 47830686  HIT: 47830686  MISS:     0  HIT %:   100  MISS %:     0  AVERAGE MISS PENALTY: 0
L1I RFO       ACCESS:     0  HIT:     0  MISS:     0  HIT %:     0  MISS %:     0  AVERAGE MISS PENALTY: 0
L1I PREFETCH  ACCESS:     0  HIT:     0  MISS:     0  HIT %:     0  MISS %:     0  AVERAGE MISS PENALTY: 0
L1I WRITEBACK ACCESS:     0  HIT:     0  MISS:     0  HIT %:     0  MISS %:     0  AVERAGE MISS PENALTY: 0
L1I PREFETCH  REQUESTED:     0  ISSUED:     0  USEFUL:     0  USELESS:     0
 USEFUL LOAD PREFETCHES:          0 PREFETCH ISSUED TO LOWER LEVEL:          0  ACCURACY: -nan
 TIMELY PREFETCHES:          0 LATE PREFETCHES: 0 DROPPED PREFETCHES: 0
L1I AVERAGE MISS LATENCY: -nan cycles
L2C TOTAL     ACCESS: 95582475  HIT: 8021256  MISS: 87561219  HIT %: 8.39197  MISS %: 91.608  AVERAGE MISS PENALTY: 891280
L2C LOAD      ACCESS: 17543683  HIT: 273083  MISS: 17270600  HIT %: 1.55659  MISS %: 98.4434  AVERAGE MISS PENALTY: 4.51692e+06
L2C RFO       ACCESS: 39493  HIT: 25637  MISS: 13856  HIT %: 64.9153  MISS %: 35.0847  AVERAGE MISS PENALTY: 652.89
L2C PREFETCH  ACCESS: 74920434  HIT: 4700142  MISS: 70220292  HIT %: 6.27351  MISS %: 93.7265  AVERAGE MISS PENALTY: 451.315
L2C WRITEBACK ACCESS: 3078865  HIT: 3022394  MISS: 56471  HIT %: 98.1659  MISS %: 1.83415  AVERAGE MISS PENALTY: 0
L2C PREFETCH  REQUESTED: 97109926  ISSUED: 96540558  USEFUL: 134834  USELESS: 70086924
 USEFUL LOAD PREFETCHES:     134834 PREFETCH ISSUED TO LOWER LEVEL:   92186839  ACCURACY: 0.146262
 TIMELY PREFETCHES:     134834 LATE PREFETCHES: 268115 DROPPED PREFETCHES: 569368
L2C AVERAGE MISS LATENCY: 450.423 cycles
LLC0 TOTAL     ACCESS: 11510991  HIT: 5377707  MISS: 6133284  HIT %: 46.718  MISS %: 53.282  AVERAGE MISS PENALTY: 757.617
LLC0 LOAD      ACCESS: 2155599  HIT: 939303  MISS: 1216296  HIT %: 43.575  MISS %: 56.425  AVERAGE MISS PENALTY: 745.793
LLC0 RFO       ACCESS:  1698  HIT:   148  MISS:  1550  HIT %: 8.71614  MISS %: 91.2839  AVERAGE MISS PENALTY: 727.014
LLC0 PREFETCH  ACCESS: 8975741  HIT: 4119955  MISS: 4855786  HIT %: 45.901  MISS %: 54.099  AVERAGE MISS PENALTY: 769.895
LLC0 WRITEBACK ACCESS: 377953  HIT: 318301  MISS: 59652  HIT %: 84.2171  MISS %: 15.7829  AVERAGE MISS PENALTY: 0
LLC0 PREFETCH  REQUESTED:     0  ISSUED:     0  USEFUL: 3045627  USELESS: 35794596
 USEFUL LOAD PREFETCHES:    3045627 PREFETCH ISSUED TO LOWER LEVEL:  258891132  ACCURACY: 1.17641
 TIMELY PREFETCHES:    3045627 LATE PREFETCHES: 0 DROPPED PREFETCHES: 0
LLC0 AVERAGE MISS LATENCY: 757.617 cycles
Deadblocks : 8773316 Deadblock percentage : 721.314

LLC1 TOTAL     ACCESS: 11694637  HIT: 5403797  MISS: 6290840  HIT %: 46.2075  MISS %: 53.7925  AVERAGE MISS PENALTY: 762.46
LLC1 LOAD      ACCESS: 2094522  HIT: 893666  MISS: 1200856  HIT %: 42.6668  MISS %: 57.3332  AVERAGE MISS PENALTY: 751.97
LLC1 RFO       ACCESS:  1743  HIT:   191  MISS:  1552  HIT %: 10.9581  MISS %: 89.0419  AVERAGE MISS PENALTY: 716.075
LLC1 PREFETCH  ACCESS: 9216530  HIT: 4182488  MISS: 5034042  HIT %: 45.3803  MISS %: 54.6197  AVERAGE MISS PENALTY: 773.214
LLC1 WRITEBACK ACCESS: 381842  HIT: 327452  MISS: 54390  HIT %: 85.7559  MISS %: 14.2441  AVERAGE MISS PENALTY: 0
LLC1 PREFETCH  REQUESTED:     0  ISSUED:     0  USEFUL: 3053993  USELESS: 37227057
 USEFUL LOAD PREFETCHES:    3053993 PREFETCH ISSUED TO LOWER LEVEL:  237690932  ACCURACY: 1.28486
 TIMELY PREFETCHES:    3053993 LATE PREFETCHES: 0 DROPPED PREFETCHES: 0
LLC1 AVERAGE MISS LATENCY: 762.46 cycles
LLC2 TOTAL     ACCESS: 11695943  HIT: 5378625  MISS: 6317318  HIT %: 45.9871  MISS %: 54.0129  AVERAGE MISS PENALTY: 746.93
LLC2 LOAD      ACCESS: 2262274  HIT: 1025068  MISS: 1237206  HIT %: 45.3114  MISS %: 54.6886  AVERAGE MISS PENALTY: 745.086
LLC2 RFO       ACCESS:  1746  HIT:   187  MISS:  1559  HIT %: 10.7102  MISS %: 89.2898  AVERAGE MISS PENALTY: 680.57
LLC2 PREFETCH  ACCESS: 9051752  HIT: 4026215  MISS: 5025537  HIT %: 44.48  MISS %: 55.52  AVERAGE MISS PENALTY: 755.284
LLC2 WRITEBACK ACCESS: 380171  HIT: 327155  MISS: 53016  HIT %: 86.0547  MISS %: 13.9453  AVERAGE MISS PENALTY: 0
LLC2 PREFETCH  REQUESTED:     0  ISSUED:     0  USEFUL: 3054997  USELESS: 37177060
 USEFUL LOAD PREFETCHES:    3054997 PREFETCH ISSUED TO LOWER LEVEL:  377633924  ACCURACY: 0.808984
 TIMELY PREFETCHES:    3054997 LATE PREFETCHES: 0 DROPPED PREFETCHES: 0
LLC2 AVERAGE MISS LATENCY: 746.93 cycles
LLC3 TOTAL     ACCESS: 11379888  HIT: 5195745  MISS: 6184143  HIT %: 45.6573  MISS %: 54.3427  AVERAGE MISS PENALTY: 754.868
LLC3 LOAD      ACCESS: 2124126  HIT: 905204  MISS: 1218922  HIT %: 42.6154  MISS %: 57.3846  AVERAGE MISS PENALTY: 752.663
LLC3 RFO       ACCESS:  1759  HIT:   209  MISS:  1550  HIT %: 11.8818  MISS %: 88.1182  AVERAGE MISS PENALTY: 711.048
LLC3 PREFETCH  ACCESS: 8875005  HIT: 3963175  MISS: 4911830  HIT %: 44.6555  MISS %: 55.3445  AVERAGE MISS PENALTY: 763.396
LLC3 WRITEBACK ACCESS: 378998  HIT: 327157  MISS: 51841  HIT %: 86.3216  MISS %: 13.6784  AVERAGE MISS PENALTY: 0
LLC3 PREFETCH  REQUESTED:     0  ISSUED:     0  USEFUL: 3035517  USELESS: 36282008
 USEFUL LOAD PREFETCHES:    3035517 PREFETCH ISSUED TO LOWER LEVEL:  330350232  ACCURACY: 0.918878
 TIMELY PREFETCHES:    3035517 LATE PREFETCHES: 0 DROPPED PREFETCHES: 0
LLC3 AVERAGE MISS LATENCY: 754.868 cycles
LLC4 TOTAL     ACCESS: 11319843  HIT: 5189830  MISS: 6130013  HIT %: 45.8472  MISS %: 54.1528  AVERAGE MISS PENALTY: 732.162
LLC4 LOAD      ACCESS: 2143234  HIT: 914340  MISS: 1228894  HIT %: 42.6617  MISS %: 57.3383  AVERAGE MISS PENALTY: 716.237
LLC4 RFO       ACCESS:  1744  HIT:   193  MISS:  1551  HIT %: 11.0665  MISS %: 88.9335  AVERAGE MISS PENALTY: 695.071
LLC4 PREFETCH  ACCESS: 8794740  HIT: 3946027  MISS: 4848713  HIT %: 44.868  MISS %: 55.132  AVERAGE MISS PENALTY: 743.889
LLC4 WRITEBACK ACCESS: 380125  HIT: 329270  MISS: 50855  HIT %: 86.6215  MISS %: 13.3785  AVERAGE MISS PENALTY: 0
LLC4 PREFETCH  REQUESTED:     0  ISSUED:     0  USEFUL: 3010882  USELESS: 35792608
 USEFUL LOAD PREFETCHES:    3010882 PREFETCH ISSUED TO LOWER LEVEL:  537287784  ACCURACY: 0.560385
 TIMELY PREFETCHES:    3010882 LATE PREFETCHES: 0 DROPPED PREFETCHES: 0
LLC4 AVERAGE MISS LATENCY: 732.162 cycles
LLC5 TOTAL     ACCESS: 11170233  HIT: 5142499  MISS: 6027734  HIT %: 46.0375  MISS %: 53.9625  AVERAGE MISS PENALTY: 715.187
LLC5 LOAD      ACCESS: 2149205  HIT: 940175  MISS: 1209030  HIT %: 43.7452  MISS %: 56.2548  AVERAGE MISS PENALTY: 695.13
LLC5 RFO       ACCESS:  1720  HIT:   173  MISS:  1547  HIT %: 10.0581  MISS %: 89.9419  AVERAGE MISS PENALTY: 658.183
LLC5 PREFETCH  ACCESS: 8649361  HIT: 3881321  MISS: 4768040  HIT %: 44.8741  MISS %: 55.1259  AVERAGE MISS PENALTY: 727.658
LLC5 WRITEBACK ACCESS: 369947  HIT: 320830  MISS: 49117  HIT %: 86.7232  MISS %: 13.2768  AVERAGE MISS PENALTY: 0
LLC5 PREFETCH  REQUESTED:     0  ISSUED:     0  USEFUL: 2966256  USELESS: 35180668
 USEFUL LOAD PREFETCHES:    2966256 PREFETCH ISSUED TO LOWER LEVEL:  463834887  ACCURACY: 0.639507
 TIMELY PREFETCHES:    2966256 LATE PREFETCHES: 0 DROPPED PREFETCHES: 0
LLC5 AVERAGE MISS LATENCY: 715.187 cycles
LLC6 TOTAL     ACCESS: 10965285  HIT: 5042927  MISS: 5922358  HIT %: 45.9899  MISS %: 54.0101  AVERAGE MISS PENALTY: 727.039
LLC6 LOAD      ACCESS: 2115385  HIT: 904155  MISS: 1211230  HIT %: 42.7419  MISS %: 57.2581  AVERAGE MISS PENALTY: 717.066
LLC6 RFO       ACCESS:  1718  HIT:   168  MISS:  1550  HIT %: 9.77881  MISS %: 90.2212  AVERAGE MISS PENALTY: 663.481
LLC6 PREFETCH  ACCESS: 8473748  HIT: 3815059  MISS: 4658689  HIT %: 45.0221  MISS %: 54.9779  AVERAGE MISS PENALTY: 737.594
LLC6 WRITEBACK ACCESS: 374434  HIT: 323545  MISS: 50889  HIT %: 86.4091  MISS %: 13.5909  AVERAGE MISS PENALTY: 0
LLC6 PREFETCH  REQUESTED:     0  ISSUED:     0  USEFUL: 2889923  USELESS: 34379135
 USEFUL LOAD PREFETCHES:    2889923 PREFETCH ISSUED TO LOWER LEVEL:  752028910  ACCURACY: 0.384283
 TIMELY PREFETCHES:    2889923 LATE PREFETCHES: 0 DROPPED PREFETCHES: 0
LLC6 AVERAGE MISS LATENCY: 727.039 cycles
LLC7 TOTAL     ACCESS: 10789347  HIT: 4973894  MISS: 5815453  HIT %:  46.1  MISS %:  53.9  AVERAGE MISS PENALTY: 712.414
LLC7 LOAD      ACCESS: 2185105  HIT: 969769  MISS: 1215336  HIT %: 44.3809  MISS %: 55.6191  AVERAGE MISS PENALTY: 693.49
LLC7 RFO       ACCESS:  1727  HIT:   180  MISS:  1547  HIT %: 10.4227  MISS %: 89.5773  AVERAGE MISS PENALTY: 643.392
LLC7 PREFETCH  ACCESS: 8224565  HIT: 3680017  MISS: 4544548  HIT %: 44.7442  MISS %: 55.2558  AVERAGE MISS PENALTY: 725.967
LLC7 WRITEBACK ACCESS: 377950  HIT: 323928  MISS: 54022  HIT %: 85.7066  MISS %: 14.2934  AVERAGE MISS PENALTY: 0
LLC7 PREFETCH  REQUESTED:     0  ISSUED:     0  USEFUL: 2802990  USELESS: 33553740
 USEFUL LOAD PREFETCHES:    2802990 PREFETCH ISSUED TO LOWER LEVEL:  639245441  ACCURACY: 0.438484
 TIMELY PREFETCHES:    2802990 LATE PREFETCHES: 0 DROPPED PREFETCHES: 0
LLC7 AVERAGE MISS LATENCY: 712.414 cycles
ROI Average ROB Stall Cycles:	70.8419
ROI Total ROB Stalls Cycles:	3852620711
ROI TOTAL ROB counter      :	54383333
ROI Average Load ROB Stall Cycles:	473.004
ROI Total Load ROB Stalls Cycle  :	3131184885
ROI Total Load ROB stalls Counter:	6619788
Major fault: 0 Minor fault: 37417








Interconnect Stats 
LINK 0 BW : 0LINK 1 BW : 0LINK 2 BW : 0LINK 3 BW : 0LINK 4 BW : 0LINK 5 BW : 0LINK 6 BW : 0LINK 7 BW : 0
DRAM Statistics
 CHANNEL 0
 RQ ROW_BUFFER_HIT: 54078508  ROW_BUFFER_MISS: 140286234
 DBUS_CONGESTED: 111220754
 WQ ROW_BUFFER_HIT: 471791  ROW_BUFFER_MISS: 11090972  FULL:     0

 CHANNEL 1
 RQ ROW_BUFFER_HIT: 53330002  ROW_BUFFER_MISS: 139609300
 DBUS_CONGESTED: 111220754
 WQ ROW_BUFFER_HIT: 469947  ROW_BUFFER_MISS: 11049271  FULL:     0

 AVG_CONGESTED_CYCLE: 5
DRAM PAGES: 2097152
Allocated PAGES: 299336
L2C destructor called
L1D destructor called
L1I destructor called
STLB destructor called
DTLB destructor called
ITLB destructor called
L2C destructor called
L1D destructor called
L1I destructor called
STLB destructor called
DTLB destructor called
ITLB destructor called
L2C destructor called
L1D destructor called
L1I destructor called
STLB destructor called
DTLB destructor called
ITLB destructor called
L2C destructor called
L1D destructor called
L1I destructor called
STLB destructor called
DTLB destructor called
ITLB destructor called
L2C destructor called
L1D destructor called
L1I destructor called
STLB destructor called
DTLB destructor called
ITLB destructor called
L2C destructor called
L1D destructor called
L1I destructor called
STLB destructor called
DTLB destructor called
ITLB destructor called
L2C destructor called
L1D destructor called
L1I destructor called
STLB destructor called
DTLB destructor called
ITLB destructor called
L2C destructor called
L1D destructor called
L1I destructor called
STLB destructor called
DTLB destructor called
ITLB destructor called
