
*** ChampSim Multicore Out-of-Order Simulator ***

Warmup Instructions: 200000000
Simulation Instructions: 200000000
Number of CPUs: 8
threads:1

L1I Configuration:
L1I_SET:64
L1I_WAY:8
L1I_RQ_SIZE:64
L1I_WQ_SIZE:64
L1I_PQ_SIZE:8
L1I_MSHR_SIZE:8

L1D Configuration:
L1D_SET:64
L1D_WAY:12
L1D_RQ_SIZE:64
L1D_WQ_SIZE:64
L1D_PQ_SIZE:8
L1D_MSHR_SIZE:16

L2C Configuration:
L2C_SET:1024
L2C_WAY:8
L2C_RQ_SIZE:32
L2C_WQ_SIZE:32
L2C_PQ_SIZE:16
L2C_MSHR_SIZE:32

LLC Configuration:
LLC_SET:2048
LLC_WAY:16
LLC SLICES:8
LLC_RQ_SIZE:64
LLC_WQ_SIZE:64
LLC_PQ_SIZE:32
LLC_MSHR_SIZE:64

Interconnect OFF
Attacker deprioritize is: OFF
Off-chip DRAM Size: 8192 MB Channels: 2 Width: 64-bit Data Rate: 3200 MT/s
PAGE SIZE in KB: 4.000000 
PAGE SIZE in MB: 0.003906 
PAGE offset in bits: 12 
CEASER-S_LLC:0
MIRAGE : 0
CEASER_LATENCY:3
REMAP : OFF
Partitions : 1
Multi-Step : OFF
BFS : OFF

CPU 0 runs /home/anubhav/gap/bfs-8.trace.gz
CPU 1 runs /home/anubhav/gap/bfs-8.trace.gz
CPU 2 runs /home/anubhav/gap/bfs-8.trace.gz
CPU 3 runs /home/anubhav/gap/bfs-8.trace.gz
CPU 4 runs /home/anubhav/gap/bfs-8.trace.gz
CPU 5 runs /home/anubhav/gap/bfs-8.trace.gz
CPU 6 runs /home/anubhav/gap/bfs-8.trace.gz
CPU 7 runs /home/anubhav/gap/bfs-8.trace.gz
CPU 0 Bimodal branch predictor
Initialize Hawkeye state
Initialize Hawkeye state
Initialize Hawkeye state
Initialize Hawkeye state
Initialize Hawkeye state
Initialize Hawkeye state
Initialize Hawkeye state
Initialize Hawkeye state
CPU 1 Bimodal branch predictor
Initialize Hawkeye state
Initialize Hawkeye state
Initialize Hawkeye state
Initialize Hawkeye state
Initialize Hawkeye state
Initialize Hawkeye state
Initialize Hawkeye state
Initialize Hawkeye state
CPU 2 Bimodal branch predictor
Initialize Hawkeye state
Initialize Hawkeye state
Initialize Hawkeye state
Initialize Hawkeye state
Initialize Hawkeye state
Initialize Hawkeye state
Initialize Hawkeye state
Initialize Hawkeye state
CPU 3 Bimodal branch predictor
Initialize Hawkeye state
Initialize Hawkeye state
Initialize Hawkeye state
Initialize Hawkeye state
Initialize Hawkeye state
Initialize Hawkeye state
Initialize Hawkeye state
Initialize Hawkeye state
CPU 4 Bimodal branch predictor
Initialize Hawkeye state
Initialize Hawkeye state
Initialize Hawkeye state
Initialize Hawkeye state
Initialize Hawkeye state
Initialize Hawkeye state
Initialize Hawkeye state
Initialize Hawkeye state
CPU 5 Bimodal branch predictor
Initialize Hawkeye state
Initialize Hawkeye state
Initialize Hawkeye state
Initialize Hawkeye state
Initialize Hawkeye state
Initialize Hawkeye state
Initialize Hawkeye state
Initialize Hawkeye state
CPU 6 Bimodal branch predictor
Initialize Hawkeye state
Initialize Hawkeye state
Initialize Hawkeye state
Initialize Hawkeye state
Initialize Hawkeye state
Initialize Hawkeye state
Initialize Hawkeye state
Initialize Hawkeye state
CPU 7 Bimodal branch predictor
Initialize Hawkeye state
Initialize Hawkeye state
Initialize Hawkeye state
Initialize Hawkeye state
Initialize Hawkeye state
Initialize Hawkeye state
Initialize Hawkeye state
Initialize Hawkeye state
Heartbeat CPU 0 instructions: 10000001 cycles: 14705102 heartbeat IPC: 0.680036 cumulative IPC: 0.680036 (Simulation time: 0 hr 11 min 58 sec) 
 Total Blocks : 262144 Invalid Blocks : 5999
Heartbeat CPU 1 instructions: 10000001 cycles: 14705106 heartbeat IPC: 0.680036 cumulative IPC: 0.680036 (Simulation time: 0 hr 11 min 58 sec) 
 Total Blocks : 262144 Invalid Blocks : 5999
Heartbeat CPU 2 instructions: 10000001 cycles: 14705114 heartbeat IPC: 0.680036 cumulative IPC: 0.680036 (Simulation time: 0 hr 11 min 58 sec) 
 Total Blocks : 262144 Invalid Blocks : 5999
Heartbeat CPU 3 instructions: 10000001 cycles: 14705117 heartbeat IPC: 0.680035 cumulative IPC: 0.680035 (Simulation time: 0 hr 11 min 58 sec) 
 Total Blocks : 262144 Invalid Blocks : 5999
Heartbeat CPU 4 instructions: 10000001 cycles: 14705120 heartbeat IPC: 0.680035 cumulative IPC: 0.680035 (Simulation time: 0 hr 11 min 58 sec) 
 Total Blocks : 262144 Invalid Blocks : 5999
Heartbeat CPU 5 instructions: 10000001 cycles: 14705124 heartbeat IPC: 0.680035 cumulative IPC: 0.680035 (Simulation time: 0 hr 11 min 58 sec) 
 Total Blocks : 262144 Invalid Blocks : 5999
Heartbeat CPU 6 instructions: 10000001 cycles: 14705127 heartbeat IPC: 0.680035 cumulative IPC: 0.680035 (Simulation time: 0 hr 11 min 58 sec) 
 Total Blocks : 262144 Invalid Blocks : 5999
Heartbeat CPU 7 instructions: 10000001 cycles: 14705130 heartbeat IPC: 0.680035 cumulative IPC: 0.680035 (Simulation time: 0 hr 11 min 58 sec) 
 Total Blocks : 262144 Invalid Blocks : 5999
Heartbeat CPU 5 instructions: 20000001 cycles: 26563304 heartbeat IPC: 0.8433 cumulative IPC: 0.752918 (Simulation time: 1 hr 7 min 41 sec) 
 Total Blocks : 262144 Invalid Blocks : 0
Heartbeat CPU 7 instructions: 20000001 cycles: 26564132 heartbeat IPC: 0.843241 cumulative IPC: 0.752895 (Simulation time: 1 hr 7 min 41 sec) 
 Total Blocks : 262144 Invalid Blocks : 0
Heartbeat CPU 6 instructions: 20000001 cycles: 26578284 heartbeat IPC: 0.842236 cumulative IPC: 0.752494 (Simulation time: 1 hr 7 min 49 sec) 
 Total Blocks : 262144 Invalid Blocks : 0
Heartbeat CPU 1 instructions: 20000001 cycles: 26580634 heartbeat IPC: 0.842068 cumulative IPC: 0.752428 (Simulation time: 1 hr 7 min 50 sec) 
 Total Blocks : 262144 Invalid Blocks : 0
Heartbeat CPU 0 instructions: 20000001 cycles: 26580690 heartbeat IPC: 0.842064 cumulative IPC: 0.752426 (Simulation time: 1 hr 7 min 50 sec) 
 Total Blocks : 262144 Invalid Blocks : 0
Heartbeat CPU 4 instructions: 20000001 cycles: 26580905 heartbeat IPC: 0.84205 cumulative IPC: 0.75242 (Simulation time: 1 hr 7 min 50 sec) 
 Total Blocks : 262144 Invalid Blocks : 0
Heartbeat CPU 2 instructions: 20000001 cycles: 26581184 heartbeat IPC: 0.842029 cumulative IPC: 0.752412 (Simulation time: 1 hr 7 min 50 sec) 
 Total Blocks : 262144 Invalid Blocks : 0
Heartbeat CPU 3 instructions: 20000001 cycles: 26581321 heartbeat IPC: 0.84202 cumulative IPC: 0.752408 (Simulation time: 1 hr 7 min 50 sec) 
 Total Blocks : 262144 Invalid Blocks : 0
Heartbeat CPU 5 instructions: 30000002 cycles: 39466615 heartbeat IPC: 0.774995 cumulative IPC: 0.760136 (Simulation time: 3 hr 42 min 58 sec) 
 Total Blocks : 262144 Invalid Blocks : 0
Heartbeat CPU 7 instructions: 30000002 cycles: 39466761 heartbeat IPC: 0.775036 cumulative IPC: 0.760133 (Simulation time: 3 hr 42 min 58 sec) 
 Total Blocks : 262144 Invalid Blocks : 0
Heartbeat CPU 6 instructions: 30000002 cycles: 39500472 heartbeat IPC: 0.773863 cumulative IPC: 0.759485 (Simulation time: 3 hr 43 min 28 sec) 
 Total Blocks : 262144 Invalid Blocks : 0
Heartbeat CPU 1 instructions: 30000002 cycles: 39508243 heartbeat IPC: 0.773538 cumulative IPC: 0.759335 (Simulation time: 3 hr 43 min 35 sec) 
 Total Blocks : 262144 Invalid Blocks : 0
Heartbeat CPU 0 instructions: 30000002 cycles: 39508293 heartbeat IPC: 0.773539 cumulative IPC: 0.759334 (Simulation time: 3 hr 43 min 35 sec) 
 Total Blocks : 262144 Invalid Blocks : 0
Heartbeat CPU 4 instructions: 30000002 cycles: 39508548 heartbeat IPC: 0.773536 cumulative IPC: 0.759329 (Simulation time: 3 hr 43 min 35 sec) 
 Total Blocks : 262144 Invalid Blocks : 0
Heartbeat CPU 2 instructions: 30000002 cycles: 39508972 heartbeat IPC: 0.773528 cumulative IPC: 0.759321 (Simulation time: 3 hr 43 min 36 sec) 
 Total Blocks : 262144 Invalid Blocks : 0
Heartbeat CPU 3 instructions: 30000002 cycles: 39509001 heartbeat IPC: 0.773534 cumulative IPC: 0.759321 (Simulation time: 3 hr 43 min 36 sec) 
 Total Blocks : 262144 Invalid Blocks : 0
Heartbeat CPU 7 instructions: 40000000 cycles: 54071150 heartbeat IPC: 0.684726 cumulative IPC: 0.739766 (Simulation time: 6 hr 21 min 27 sec) 
 Total Blocks : 262144 Invalid Blocks : 0
Heartbeat CPU 5 instructions: 40000000 cycles: 54074531 heartbeat IPC: 0.68456 cumulative IPC: 0.73972 (Simulation time: 6 hr 21 min 27 sec) 
 Total Blocks : 262144 Invalid Blocks : 0
Heartbeat CPU 6 instructions: 40000000 cycles: 54117178 heartbeat IPC: 0.684149 cumulative IPC: 0.739137 (Simulation time: 6 hr 21 min 28 sec) 
 Total Blocks : 262144 Invalid Blocks : 0
Heartbeat CPU 0 instructions: 40000000 cycles: 54131338 heartbeat IPC: 0.683852 cumulative IPC: 0.738944 (Simulation time: 6 hr 21 min 28 sec) 
 Total Blocks : 262144 Invalid Blocks : 0
Heartbeat CPU 1 instructions: 40000000 cycles: 54131382 heartbeat IPC: 0.683848 cumulative IPC: 0.738943 (Simulation time: 6 hr 21 min 28 sec) 
 Total Blocks : 262144 Invalid Blocks : 0
Heartbeat CPU 4 instructions: 40000000 cycles: 54131841 heartbeat IPC: 0.68384 cumulative IPC: 0.738937 (Simulation time: 6 hr 21 min 28 sec) 
 Total Blocks : 262144 Invalid Blocks : 0
Heartbeat CPU 2 instructions: 40000000 cycles: 54132182 heartbeat IPC: 0.683844 cumulative IPC: 0.738932 (Simulation time: 6 hr 21 min 28 sec) 
 Total Blocks : 262144 Invalid Blocks : 0
Heartbeat CPU 3 instructions: 40000000 cycles: 54132306 heartbeat IPC: 0.68384 cumulative IPC: 0.73893 (Simulation time: 6 hr 21 min 28 sec) 
 Total Blocks : 262144 Invalid Blocks : 0
Heartbeat CPU 7 instructions: 50000000 cycles: 66754959 heartbeat IPC: 0.788407 cumulative IPC: 0.749008 (Simulation time: 6 hr 28 min 42 sec) 
 Total Blocks : 262144 Invalid Blocks : 0
Heartbeat CPU 5 instructions: 50000000 cycles: 66764205 heartbeat IPC: 0.788042 cumulative IPC: 0.748904 (Simulation time: 6 hr 28 min 43 sec) 
 Total Blocks : 262144 Invalid Blocks : 0
Heartbeat CPU 6 instructions: 50000000 cycles: 66800993 heartbeat IPC: 0.788406 cumulative IPC: 0.748492 (Simulation time: 6 hr 28 min 46 sec) 
 Total Blocks : 262144 Invalid Blocks : 0
Heartbeat CPU 0 instructions: 50000000 cycles: 66820875 heartbeat IPC: 0.788051 cumulative IPC: 0.748269 (Simulation time: 6 hr 28 min 48 sec) 
 Total Blocks : 262144 Invalid Blocks : 0
Heartbeat CPU 1 instructions: 50000000 cycles: 66821075 heartbeat IPC: 0.788041 cumulative IPC: 0.748267 (Simulation time: 6 hr 28 min 48 sec) 
 Total Blocks : 262144 Invalid Blocks : 0
Heartbeat CPU 4 instructions: 50000000 cycles: 66821575 heartbeat IPC: 0.788039 cumulative IPC: 0.748261 (Simulation time: 6 hr 28 min 48 sec) 
 Total Blocks : 262144 Invalid Blocks : 0
Heartbeat CPU 2 instructions: 50000000 cycles: 66821916 heartbeat IPC: 0.788039 cumulative IPC: 0.748258 (Simulation time: 6 hr 28 min 48 sec) 
 Total Blocks : 262144 Invalid Blocks : 0
Heartbeat CPU 3 instructions: 50000000 cycles: 66821959 heartbeat IPC: 0.788044 cumulative IPC: 0.748257 (Simulation time: 6 hr 28 min 48 sec) 
 Total Blocks : 262144 Invalid Blocks : 0
Heartbeat CPU 7 instructions: 60000001 cycles: 70776305 heartbeat IPC: 2.48673 cumulative IPC: 0.847741 (Simulation time: 6 hr 37 min 3 sec) 
 Total Blocks : 262144 Invalid Blocks : 0
Heartbeat CPU 5 instructions: 60000001 cycles: 70784675 heartbeat IPC: 2.48727 cumulative IPC: 0.847641 (Simulation time: 6 hr 37 min 5 sec) 
 Total Blocks : 262144 Invalid Blocks : 0
Heartbeat CPU 6 instructions: 60000001 cycles: 70822274 heartbeat IPC: 2.48677 cumulative IPC: 0.847191 (Simulation time: 6 hr 37 min 13 sec) 
 Total Blocks : 262144 Invalid Blocks : 0
Heartbeat CPU 0 instructions: 60000001 cycles: 70839360 heartbeat IPC: 2.4885 cumulative IPC: 0.846987 (Simulation time: 6 hr 37 min 17 sec) 
 Total Blocks : 262144 Invalid Blocks : 0
Heartbeat CPU 1 instructions: 60000001 cycles: 70839929 heartbeat IPC: 2.48827 cumulative IPC: 0.84698 (Simulation time: 6 hr 37 min 17 sec) 
 Total Blocks : 262144 Invalid Blocks : 0
Heartbeat CPU 2 instructions: 60000001 cycles: 70841327 heartbeat IPC: 2.48793 cumulative IPC: 0.846963 (Simulation time: 6 hr 37 min 18 sec) 
 Total Blocks : 262144 Invalid Blocks : 0
Heartbeat CPU 4 instructions: 60000001 cycles: 70841787 heartbeat IPC: 2.48743 cumulative IPC: 0.846958 (Simulation time: 6 hr 37 min 18 sec) 
 Total Blocks : 262144 Invalid Blocks : 0
Heartbeat CPU 3 instructions: 60000001 cycles: 70841831 heartbeat IPC: 2.48764 cumulative IPC: 0.846957 (Simulation time: 6 hr 37 min 18 sec) 
 Total Blocks : 262144 Invalid Blocks : 0
Heartbeat CPU 7 instructions: 70000000 cycles: 80379965 heartbeat IPC: 1.04127 cumulative IPC: 0.870864 (Simulation time: 6 hr 48 min 4 sec) 
 Total Blocks : 262144 Invalid Blocks : 0
Heartbeat CPU 5 instructions: 70000000 cycles: 80388317 heartbeat IPC: 1.04127 cumulative IPC: 0.870773 (Simulation time: 6 hr 48 min 4 sec) 
 Total Blocks : 262144 Invalid Blocks : 0
Heartbeat CPU 6 instructions: 70000000 cycles: 80425909 heartbeat IPC: 1.04127 cumulative IPC: 0.870366 (Simulation time: 6 hr 48 min 5 sec) 
 Total Blocks : 262144 Invalid Blocks : 0
Heartbeat CPU 0 instructions: 70000000 cycles: 80442986 heartbeat IPC: 1.04127 cumulative IPC: 0.870182 (Simulation time: 6 hr 48 min 5 sec) 
 Total Blocks : 262144 Invalid Blocks : 0
Heartbeat CPU 1 instructions: 70000000 cycles: 80443569 heartbeat IPC: 1.04127 cumulative IPC: 0.870175 (Simulation time: 6 hr 48 min 5 sec) 
 Total Blocks : 262144 Invalid Blocks : 0
Heartbeat CPU 2 instructions: 70000000 cycles: 80445003 heartbeat IPC: 1.04127 cumulative IPC: 0.87016 (Simulation time: 6 hr 48 min 5 sec) 
 Total Blocks : 262144 Invalid Blocks : 0
Heartbeat CPU 4 instructions: 70000000 cycles: 80445427 heartbeat IPC: 1.04127 cumulative IPC: 0.870155 (Simulation time: 6 hr 48 min 5 sec) 
 Total Blocks : 262144 Invalid Blocks : 0
Heartbeat CPU 3 instructions: 70000000 cycles: 80445466 heartbeat IPC: 1.04127 cumulative IPC: 0.870155 (Simulation time: 6 hr 48 min 6 sec) 
 Total Blocks : 262144 Invalid Blocks : 0
Heartbeat CPU 7 instructions: 80000001 cycles: 93742377 heartbeat IPC: 0.748368 cumulative IPC: 0.853403 (Simulation time: 6 hr 57 min 42 sec) 
 Total Blocks : 262144 Invalid Blocks : 0
Heartbeat CPU 5 instructions: 80000001 cycles: 93749168 heartbeat IPC: 0.748455 cumulative IPC: 0.853341 (Simulation time: 6 hr 57 min 43 sec) 
 Total Blocks : 262144 Invalid Blocks : 0
Heartbeat CPU 6 instructions: 80000001 cycles: 93796234 heartbeat IPC: 0.747925 cumulative IPC: 0.852913 (Simulation time: 6 hr 57 min 44 sec) 
 Total Blocks : 262144 Invalid Blocks : 0
Heartbeat CPU 0 instructions: 80000001 cycles: 93815272 heartbeat IPC: 0.747815 cumulative IPC: 0.85274 (Simulation time: 6 hr 57 min 45 sec) 
 Total Blocks : 262144 Invalid Blocks : 0
Heartbeat CPU 1 instructions: 80000001 cycles: 93815543 heartbeat IPC: 0.747833 cumulative IPC: 0.852737 (Simulation time: 6 hr 57 min 45 sec) 
 Total Blocks : 262144 Invalid Blocks : 0
Heartbeat CPU 2 instructions: 80000001 cycles: 93817310 heartbeat IPC: 0.747814 cumulative IPC: 0.852721 (Simulation time: 6 hr 57 min 45 sec) 
 Total Blocks : 262144 Invalid Blocks : 0
Heartbeat CPU 4 instructions: 80000001 cycles: 93817596 heartbeat IPC: 0.747822 cumulative IPC: 0.852719 (Simulation time: 6 hr 57 min 45 sec) 
 Total Blocks : 262144 Invalid Blocks : 0
Heartbeat CPU 3 instructions: 80000001 cycles: 93817832 heartbeat IPC: 0.747811 cumulative IPC: 0.852716 (Simulation time: 6 hr 57 min 45 sec) 
 Total Blocks : 262144 Invalid Blocks : 0
Heartbeat CPU 7 instructions: 90000001 cycles: 108004340 heartbeat IPC: 0.701166 cumulative IPC: 0.8333 (Simulation time: 7 hr 7 min 31 sec) 
 Total Blocks : 262144 Invalid Blocks : 0
Heartbeat CPU 5 instructions: 90000001 cycles: 108012524 heartbeat IPC: 0.701097 cumulative IPC: 0.833237 (Simulation time: 7 hr 7 min 32 sec) 
 Total Blocks : 262144 Invalid Blocks : 0
Heartbeat CPU 6 instructions: 90000001 cycles: 108081440 heartbeat IPC: 0.700025 cumulative IPC: 0.832705 (Simulation time: 7 hr 7 min 34 sec) 
 Total Blocks : 262144 Invalid Blocks : 0
Heartbeat CPU 0 instructions: 90000001 cycles: 108106949 heartbeat IPC: 0.699708 cumulative IPC: 0.832509 (Simulation time: 7 hr 7 min 35 sec) 
 Total Blocks : 262144 Invalid Blocks : 0
Heartbeat CPU 1 instructions: 90000001 cycles: 108107003 heartbeat IPC: 0.699719 cumulative IPC: 0.832509 (Simulation time: 7 hr 7 min 35 sec) 
 Total Blocks : 262144 Invalid Blocks : 0
Heartbeat CPU 4 instructions: 90000001 cycles: 108108837 heartbeat IPC: 0.699729 cumulative IPC: 0.832494 (Simulation time: 7 hr 7 min 35 sec) 
 Total Blocks : 262144 Invalid Blocks : 0
Heartbeat CPU 2 instructions: 90000001 cycles: 108108959 heartbeat IPC: 0.699709 cumulative IPC: 0.832493 (Simulation time: 7 hr 7 min 35 sec) 
 Total Blocks : 262144 Invalid Blocks : 0
Heartbeat CPU 3 instructions: 90000001 cycles: 108109020 heartbeat IPC: 0.699732 cumulative IPC: 0.832493 (Simulation time: 7 hr 7 min 35 sec) 
 Total Blocks : 262144 Invalid Blocks : 0
Heartbeat CPU 7 instructions: 100000000 cycles: 122297392 heartbeat IPC: 0.699641 cumulative IPC: 0.817679 (Simulation time: 7 hr 16 min 58 sec) 
 Total Blocks : 262144 Invalid Blocks : 0
Heartbeat CPU 5 instructions: 100000000 cycles: 122306350 heartbeat IPC: 0.699603 cumulative IPC: 0.817619 (Simulation time: 7 hr 16 min 58 sec) 
 Total Blocks : 262144 Invalid Blocks : 0
Heartbeat CPU 6 instructions: 100000000 cycles: 122397462 heartbeat IPC: 0.698518 cumulative IPC: 0.81701 (Simulation time: 7 hr 17 min 1 sec) 
 Total Blocks : 262144 Invalid Blocks : 0
Heartbeat CPU 0 instructions: 100000000 cycles: 122428656 heartbeat IPC: 0.698241 cumulative IPC: 0.816802 (Simulation time: 7 hr 17 min 2 sec) 
 Total Blocks : 262144 Invalid Blocks : 0
Heartbeat CPU 1 instructions: 100000000 cycles: 122429028 heartbeat IPC: 0.698225 cumulative IPC: 0.8168 (Simulation time: 7 hr 17 min 2 sec) 
 Total Blocks : 262144 Invalid Blocks : 0
Heartbeat CPU 4 instructions: 100000000 cycles: 122431029 heartbeat IPC: 0.698217 cumulative IPC: 0.816786 (Simulation time: 7 hr 17 min 3 sec) 
 Total Blocks : 262144 Invalid Blocks : 0
Heartbeat CPU 3 instructions: 100000000 cycles: 122431102 heartbeat IPC: 0.698222 cumulative IPC: 0.816786 (Simulation time: 7 hr 17 min 3 sec) 
 Total Blocks : 262144 Invalid Blocks : 0
Heartbeat CPU 2 instructions: 100000000 cycles: 122431166 heartbeat IPC: 0.698216 cumulative IPC: 0.816786 (Simulation time: 7 hr 17 min 3 sec) 
 Total Blocks : 262144 Invalid Blocks : 0
Heartbeat CPU 7 instructions: 110000000 cycles: 139658466 heartbeat IPC: 0.576001 cumulative IPC: 0.787636 (Simulation time: 7 hr 25 min 25 sec) 
 Total Blocks : 262144 Invalid Blocks : 0
Heartbeat CPU 5 instructions: 110000000 cycles: 139680939 heartbeat IPC: 0.575553 cumulative IPC: 0.787509 (Simulation time: 7 hr 25 min 25 sec) 
 Total Blocks : 262144 Invalid Blocks : 0
Heartbeat CPU 6 instructions: 110000000 cycles: 139761944 heartbeat IPC: 0.575888 cumulative IPC: 0.787053 (Simulation time: 7 hr 25 min 27 sec) 
 Total Blocks : 262144 Invalid Blocks : 0
Heartbeat CPU 0 instructions: 110000000 cycles: 139807140 heartbeat IPC: 0.575424 cumulative IPC: 0.786798 (Simulation time: 7 hr 25 min 29 sec) 
 Total Blocks : 262144 Invalid Blocks : 0
Heartbeat CPU 1 instructions: 110000000 cycles: 139807437 heartbeat IPC: 0.575427 cumulative IPC: 0.786797 (Simulation time: 7 hr 25 min 29 sec) 
 Total Blocks : 262144 Invalid Blocks : 0
Heartbeat CPU 3 instructions: 110000000 cycles: 139809370 heartbeat IPC: 0.575431 cumulative IPC: 0.786786 (Simulation time: 7 hr 25 min 29 sec) 
 Total Blocks : 262144 Invalid Blocks : 0
Heartbeat CPU 2 instructions: 110000000 cycles: 139809666 heartbeat IPC: 0.575424 cumulative IPC: 0.786784 (Simulation time: 7 hr 25 min 29 sec) 
 Total Blocks : 262144 Invalid Blocks : 0
Heartbeat CPU 4 instructions: 110000000 cycles: 139809750 heartbeat IPC: 0.575416 cumulative IPC: 0.786783 (Simulation time: 7 hr 25 min 29 sec) 
 Total Blocks : 262144 Invalid Blocks : 0
Heartbeat CPU 7 instructions: 120000001 cycles: 156634949 heartbeat IPC: 0.58905 cumulative IPC: 0.766113 (Simulation time: 7 hr 33 min 14 sec) 
 Total Blocks : 262144 Invalid Blocks : 0
Heartbeat CPU 5 instructions: 120000001 cycles: 156660870 heartbeat IPC: 0.588931 cumulative IPC: 0.765986 (Simulation time: 7 hr 33 min 15 sec) 
 Total Blocks : 262144 Invalid Blocks : 0
Heartbeat CPU 6 instructions: 120000001 cycles: 156738677 heartbeat IPC: 0.589042 cumulative IPC: 0.765606 (Simulation time: 7 hr 33 min 17 sec) 
 Total Blocks : 262144 Invalid Blocks : 0
Heartbeat CPU 0 instructions: 120000001 cycles: 156787400 heartbeat IPC: 0.588919 cumulative IPC: 0.765368 (Simulation time: 7 hr 33 min 18 sec) 
 Total Blocks : 262144 Invalid Blocks : 0
Heartbeat CPU 1 instructions: 120000001 cycles: 156787647 heartbeat IPC: 0.588921 cumulative IPC: 0.765366 (Simulation time: 7 hr 33 min 18 sec) 
 Total Blocks : 262144 Invalid Blocks : 0
Heartbeat CPU 3 instructions: 120000001 cycles: 156789595 heartbeat IPC: 0.58892 cumulative IPC: 0.765357 (Simulation time: 7 hr 33 min 18 sec) 
 Total Blocks : 262144 Invalid Blocks : 0
Heartbeat CPU 2 instructions: 120000001 cycles: 156789945 heartbeat IPC: 0.588919 cumulative IPC: 0.765355 (Simulation time: 7 hr 33 min 18 sec) 
 Total Blocks : 262144 Invalid Blocks : 0
Heartbeat CPU 4 instructions: 120000001 cycles: 156790049 heartbeat IPC: 0.588918 cumulative IPC: 0.765355 (Simulation time: 7 hr 33 min 18 sec) 
 Total Blocks : 262144 Invalid Blocks : 0
Heartbeat CPU 7 instructions: 130000000 cycles: 161936170 heartbeat IPC: 1.88636 cumulative IPC: 0.802785 (Simulation time: 7 hr 40 min 39 sec) 
 Total Blocks : 262144 Invalid Blocks : 0
Heartbeat CPU 5 instructions: 130000000 cycles: 161961995 heartbeat IPC: 1.88639 cumulative IPC: 0.802657 (Simulation time: 7 hr 40 min 42 sec) 
 Total Blocks : 262144 Invalid Blocks : 0
Heartbeat CPU 6 instructions: 130000000 cycles: 162039947 heartbeat IPC: 1.88634 cumulative IPC: 0.802271 (Simulation time: 7 hr 40 min 54 sec) 
 Total Blocks : 262144 Invalid Blocks : 0
Heartbeat CPU 0 instructions: 130000000 cycles: 162088579 heartbeat IPC: 1.88637 cumulative IPC: 0.802031 (Simulation time: 7 hr 41 min 1 sec) 
 Total Blocks : 262144 Invalid Blocks : 0
Heartbeat CPU 1 instructions: 130000000 cycles: 162088823 heartbeat IPC: 1.88637 cumulative IPC: 0.802029 (Simulation time: 7 hr 41 min 1 sec) 
 Total Blocks : 262144 Invalid Blocks : 0
Heartbeat CPU 3 instructions: 130000000 cycles: 162090775 heartbeat IPC: 1.88637 cumulative IPC: 0.80202 (Simulation time: 7 hr 41 min 1 sec) 
 Total Blocks : 262144 Invalid Blocks : 0
Heartbeat CPU 2 instructions: 130000000 cycles: 162091139 heartbeat IPC: 1.88637 cumulative IPC: 0.802018 (Simulation time: 7 hr 41 min 1 sec) 
 Total Blocks : 262144 Invalid Blocks : 0
Heartbeat CPU 4 instructions: 130000000 cycles: 162091207 heartbeat IPC: 1.88638 cumulative IPC: 0.802018 (Simulation time: 7 hr 41 min 1 sec) 
 Total Blocks : 262144 Invalid Blocks : 0
Heartbeat CPU 7 instructions: 140000000 cycles: 167423303 heartbeat IPC: 1.82245 cumulative IPC: 0.836204 (Simulation time: 7 hr 52 min 18 sec) 
 Total Blocks : 262144 Invalid Blocks : 0
Heartbeat CPU 5 instructions: 140000000 cycles: 167449653 heartbeat IPC: 1.82227 cumulative IPC: 0.836072 (Simulation time: 7 hr 52 min 18 sec) 
 Total Blocks : 262144 Invalid Blocks : 0
Heartbeat CPU 6 instructions: 140000000 cycles: 167527443 heartbeat IPC: 1.82232 cumulative IPC: 0.835684 (Simulation time: 7 hr 52 min 21 sec) 
 Total Blocks : 262144 Invalid Blocks : 0
Heartbeat CPU 0 instructions: 140000000 cycles: 167576222 heartbeat IPC: 1.82228 cumulative IPC: 0.835441 (Simulation time: 7 hr 52 min 22 sec) 
 Total Blocks : 262144 Invalid Blocks : 0
Heartbeat CPU 1 instructions: 140000000 cycles: 167576478 heartbeat IPC: 1.82227 cumulative IPC: 0.835439 (Simulation time: 7 hr 52 min 22 sec) 
 Total Blocks : 262144 Invalid Blocks : 0
Heartbeat CPU 3 instructions: 140000000 cycles: 167578414 heartbeat IPC: 1.82228 cumulative IPC: 0.83543 (Simulation time: 7 hr 52 min 22 sec) 
 Total Blocks : 262144 Invalid Blocks : 0
Heartbeat CPU 2 instructions: 140000000 cycles: 167578779 heartbeat IPC: 1.82228 cumulative IPC: 0.835428 (Simulation time: 7 hr 52 min 22 sec) 
 Total Blocks : 262144 Invalid Blocks : 0
Heartbeat CPU 4 instructions: 140000000 cycles: 167578851 heartbeat IPC: 1.82228 cumulative IPC: 0.835428 (Simulation time: 7 hr 52 min 22 sec) 
 Total Blocks : 262144 Invalid Blocks : 0
Heartbeat CPU 7 instructions: 150000000 cycles: 181825085 heartbeat IPC: 0.694359 cumulative IPC: 0.824969 (Simulation time: 8 hr 0 min 5 sec) 
 Total Blocks : 262144 Invalid Blocks : 0
Heartbeat CPU 5 instructions: 150000000 cycles: 181851514 heartbeat IPC: 0.694355 cumulative IPC: 0.824849 (Simulation time: 8 hr 0 min 6 sec) 
 Total Blocks : 262144 Invalid Blocks : 0
Heartbeat CPU 6 instructions: 150000000 cycles: 181931899 heartbeat IPC: 0.69423 cumulative IPC: 0.824484 (Simulation time: 8 hr 0 min 8 sec) 
 Total Blocks : 262144 Invalid Blocks : 0
Heartbeat CPU 1 instructions: 150000000 cycles: 181981007 heartbeat IPC: 0.694226 cumulative IPC: 0.824262 (Simulation time: 8 hr 0 min 11 sec) 
 Total Blocks : 262144 Invalid Blocks : 0
Heartbeat CPU 0 instructions: 150000000 cycles: 181981020 heartbeat IPC: 0.694213 cumulative IPC: 0.824262 (Simulation time: 8 hr 0 min 11 sec) 
 Total Blocks : 262144 Invalid Blocks : 0
Heartbeat CPU 3 instructions: 150000000 cycles: 181982839 heartbeat IPC: 0.694231 cumulative IPC: 0.824254 (Simulation time: 8 hr 0 min 11 sec) 
 Total Blocks : 262144 Invalid Blocks : 0
Heartbeat CPU 2 instructions: 150000000 cycles: 181983305 heartbeat IPC: 0.694226 cumulative IPC: 0.824251 (Simulation time: 8 hr 0 min 11 sec) 
 Total Blocks : 262144 Invalid Blocks : 0
Heartbeat CPU 4 instructions: 150000000 cycles: 181983341 heartbeat IPC: 0.694228 cumulative IPC: 0.824251 (Simulation time: 8 hr 0 min 11 sec) 
 Total Blocks : 262144 Invalid Blocks : 0
Heartbeat CPU 7 instructions: 160000000 cycles: 196492716 heartbeat IPC: 0.681773 cumulative IPC: 0.81428 (Simulation time: 8 hr 9 min 43 sec) 
 Total Blocks : 262144 Invalid Blocks : 0
Heartbeat CPU 5 instructions: 160000000 cycles: 196518464 heartbeat IPC: 0.681805 cumulative IPC: 0.814173 (Simulation time: 8 hr 9 min 44 sec) 
 Total Blocks : 262144 Invalid Blocks : 0
Heartbeat CPU 6 instructions: 160000000 cycles: 196618788 heartbeat IPC: 0.680879 cumulative IPC: 0.813757 (Simulation time: 8 hr 9 min 48 sec) 
 Total Blocks : 262144 Invalid Blocks : 0
Heartbeat CPU 1 instructions: 160000000 cycles: 196674047 heartbeat IPC: 0.680594 cumulative IPC: 0.813529 (Simulation time: 8 hr 9 min 51 sec) 
 Total Blocks : 262144 Invalid Blocks : 0
Heartbeat CPU 0 instructions: 160000000 cycles: 196674297 heartbeat IPC: 0.680583 cumulative IPC: 0.813528 (Simulation time: 8 hr 9 min 51 sec) 
 Total Blocks : 262144 Invalid Blocks : 0
Heartbeat CPU 4 instructions: 160000000 cycles: 196676126 heartbeat IPC: 0.680606 cumulative IPC: 0.81352 (Simulation time: 8 hr 9 min 51 sec) 
 Total Blocks : 262144 Invalid Blocks : 0
Heartbeat CPU 3 instructions: 160000000 cycles: 196676196 heartbeat IPC: 0.68058 cumulative IPC: 0.81352 (Simulation time: 8 hr 9 min 51 sec) 
 Total Blocks : 262144 Invalid Blocks : 0
Heartbeat CPU 2 instructions: 160000000 cycles: 196677013 heartbeat IPC: 0.680563 cumulative IPC: 0.813516 (Simulation time: 8 hr 9 min 51 sec) 
 Total Blocks : 262144 Invalid Blocks : 0
Heartbeat CPU 7 instructions: 170000001 cycles: 211163500 heartbeat IPC: 0.681627 cumulative IPC: 0.805063 (Simulation time: 8 hr 19 min 59 sec) 
 Total Blocks : 262144 Invalid Blocks : 0
Heartbeat CPU 5 instructions: 170000001 cycles: 211189633 heartbeat IPC: 0.681609 cumulative IPC: 0.804964 (Simulation time: 8 hr 20 min 1 sec) 
 Total Blocks : 262144 Invalid Blocks : 0
Heartbeat CPU 6 instructions: 170000001 cycles: 211308750 heartbeat IPC: 0.680737 cumulative IPC: 0.80451 (Simulation time: 8 hr 20 min 6 sec) 
 Total Blocks : 262144 Invalid Blocks : 0
Heartbeat CPU 1 instructions: 170000001 cycles: 211371105 heartbeat IPC: 0.680408 cumulative IPC: 0.804273 (Simulation time: 8 hr 20 min 8 sec) 
 Total Blocks : 262144 Invalid Blocks : 0
Heartbeat CPU 0 instructions: 170000001 cycles: 211371263 heartbeat IPC: 0.680413 cumulative IPC: 0.804272 (Simulation time: 8 hr 20 min 8 sec) 
 Total Blocks : 262144 Invalid Blocks : 0
Heartbeat CPU 3 instructions: 170000001 cycles: 211372834 heartbeat IPC: 0.680428 cumulative IPC: 0.804266 (Simulation time: 8 hr 20 min 8 sec) 
 Total Blocks : 262144 Invalid Blocks : 0
Heartbeat CPU 4 instructions: 170000001 cycles: 211373208 heartbeat IPC: 0.680407 cumulative IPC: 0.804265 (Simulation time: 8 hr 20 min 8 sec) 
 Total Blocks : 262144 Invalid Blocks : 0
Heartbeat CPU 2 instructions: 170000001 cycles: 211373789 heartbeat IPC: 0.680421 cumulative IPC: 0.804262 (Simulation time: 8 hr 20 min 8 sec) 
 Total Blocks : 262144 Invalid Blocks : 0
Heartbeat CPU 7 instructions: 180000002 cycles: 226019114 heartbeat IPC: 0.673146 cumulative IPC: 0.796393 (Simulation time: 8 hr 30 min 9 sec) 
 Total Blocks : 262144 Invalid Blocks : 0
Heartbeat CPU 5 instructions: 180000002 cycles: 226046705 heartbeat IPC: 0.67308 cumulative IPC: 0.796296 (Simulation time: 8 hr 30 min 10 sec) 
 Total Blocks : 262144 Invalid Blocks : 0
Heartbeat CPU 6 instructions: 180000002 cycles: 226183072 heartbeat IPC: 0.6723 cumulative IPC: 0.795816 (Simulation time: 8 hr 30 min 14 sec) 
 Total Blocks : 262144 Invalid Blocks : 0
Heartbeat CPU 0 instructions: 180000002 cycles: 226252237 heartbeat IPC: 0.671999 cumulative IPC: 0.795572 (Simulation time: 8 hr 30 min 16 sec) 
 Total Blocks : 262144 Invalid Blocks : 0
Heartbeat CPU 1 instructions: 180000002 cycles: 226252311 heartbeat IPC: 0.671989 cumulative IPC: 0.795572 (Simulation time: 8 hr 30 min 16 sec) 
 Total Blocks : 262144 Invalid Blocks : 0
Heartbeat CPU 3 instructions: 180000002 cycles: 226254223 heartbeat IPC: 0.67198 cumulative IPC: 0.795565 (Simulation time: 8 hr 30 min 16 sec) 
 Total Blocks : 262144 Invalid Blocks : 0
Heartbeat CPU 4 instructions: 180000002 cycles: 226254815 heartbeat IPC: 0.67197 cumulative IPC: 0.795563 (Simulation time: 8 hr 30 min 16 sec) 
 Total Blocks : 262144 Invalid Blocks : 0
Heartbeat CPU 2 instructions: 180000002 cycles: 226255215 heartbeat IPC: 0.671979 cumulative IPC: 0.795562 (Simulation time: 8 hr 30 min 16 sec) 
 Total Blocks : 262144 Invalid Blocks : 0
Heartbeat CPU 7 instructions: 190000000 cycles: 244192328 heartbeat IPC: 0.55026 cumulative IPC: 0.778075 (Simulation time: 8 hr 38 min 47 sec) 
 Total Blocks : 262144 Invalid Blocks : 0
Heartbeat CPU 5 instructions: 190000000 cycles: 244241317 heartbeat IPC: 0.549613 cumulative IPC: 0.777919 (Simulation time: 8 hr 38 min 49 sec) 
 Total Blocks : 262144 Invalid Blocks : 0
Heartbeat CPU 6 instructions: 190000000 cycles: 244356385 heartbeat IPC: 0.550257 cumulative IPC: 0.777553 (Simulation time: 8 hr 38 min 52 sec) 
 Total Blocks : 262144 Invalid Blocks : 0
Heartbeat CPU 0 instructions: 190000000 cycles: 244446465 heartbeat IPC: 0.549625 cumulative IPC: 0.777266 (Simulation time: 8 hr 38 min 54 sec) 
 Total Blocks : 262144 Invalid Blocks : 0
Heartbeat CPU 1 instructions: 190000000 cycles: 244446538 heartbeat IPC: 0.549625 cumulative IPC: 0.777266 (Simulation time: 8 hr 38 min 54 sec) 
 Total Blocks : 262144 Invalid Blocks : 0
Heartbeat CPU 3 instructions: 190000000 cycles: 244448698 heartbeat IPC: 0.549617 cumulative IPC: 0.777259 (Simulation time: 8 hr 38 min 54 sec) 
 Total Blocks : 262144 Invalid Blocks : 0
Heartbeat CPU 4 instructions: 190000000 cycles: 244449373 heartbeat IPC: 0.549615 cumulative IPC: 0.777257 (Simulation time: 8 hr 38 min 54 sec) 
 Total Blocks : 262144 Invalid Blocks : 0
Heartbeat CPU 2 instructions: 190000000 cycles: 244449468 heartbeat IPC: 0.549624 cumulative IPC: 0.777257 (Simulation time: 8 hr 38 min 54 sec) 
 Total Blocks : 262144 Invalid Blocks : 0
Heartbeat CPU 7 instructions: 200000000 cycles: 261268693 heartbeat IPC: 0.585605 cumulative IPC: 0.765495 (Simulation time: 8 hr 46 min 42 sec) 
 Total Blocks : 262144 Invalid Blocks : 0
Heartbeat CPU 5 instructions: 200000000 cycles: 261322510 heartbeat IPC: 0.585439 cumulative IPC: 0.765338 (Simulation time: 8 hr 46 min 43 sec) 
 Total Blocks : 262144 Invalid Blocks : 0
Heartbeat CPU 6 instructions: 200000000 cycles: 261433149 heartbeat IPC: 0.585591 cumulative IPC: 0.765014 (Simulation time: 8 hr 46 min 46 sec) 
 Total Blocks : 262144 Invalid Blocks : 0
Heartbeat CPU 0 instructions: 200000000 cycles: 261528160 heartbeat IPC: 0.585422 cumulative IPC: 0.764736 (Simulation time: 8 hr 46 min 49 sec) 
 Total Blocks : 262144 Invalid Blocks : 0
Heartbeat CPU 1 instructions: 200000000 cycles: 261528256 heartbeat IPC: 0.585421 cumulative IPC: 0.764736 (Simulation time: 8 hr 46 min 49 sec) 
 Total Blocks : 262144 Invalid Blocks : 0
Heartbeat CPU 3 instructions: 200000000 cycles: 261530585 heartbeat IPC: 0.585415 cumulative IPC: 0.764729 (Simulation time: 8 hr 46 min 49 sec) 
 Total Blocks : 262144 Invalid Blocks : 0
Heartbeat CPU 4 instructions: 200000000 cycles: 261531181 heartbeat IPC: 0.585418 cumulative IPC: 0.764727 (Simulation time: 8 hr 46 min 49 sec) 
 Total Blocks : 262144 Invalid Blocks : 0
Heartbeat CPU 2 instructions: 200000000 cycles: 261531299 heartbeat IPC: 0.585417 cumulative IPC: 0.764727 (Simulation time: 8 hr 46 min 49 sec) 
 Total Blocks : 262144 Invalid Blocks : 0

Warmup complete CPU 0 instructions: 200001908 cycles: 261531300 (Simulation time: 8 hr 46 min 49 sec) 
Warmup complete CPU 1 instructions: 200001869 cycles: 261531300 (Simulation time: 8 hr 46 min 49 sec) 
Warmup complete CPU 2 instructions: 200000003 cycles: 261531300 (Simulation time: 8 hr 46 min 49 sec) 
Warmup complete CPU 3 instructions: 200000451 cycles: 261531299 (Simulation time: 8 hr 46 min 49 sec) 
Warmup complete CPU 4 instructions: 200000051 cycles: 261531299 (Simulation time: 8 hr 46 min 49 sec) 
Warmup complete CPU 5 instructions: 200125475 cycles: 261531299 (Simulation time: 8 hr 46 min 49 sec) 
Warmup complete CPU 6 instructions: 200058777 cycles: 261531299 (Simulation time: 8 hr 46 min 49 sec) 
Warmup complete CPU 7 instructions: 200157371 cycles: 261531299 (Simulation time: 8 hr 46 min 49 sec) 

Heartbeat CPU 7 instructions: 210000002 cycles: 271510570 heartbeat IPC: 0.976384 cumulative IPC: 0.986308 (Simulation time: 9 hr 1 min 49 sec) 
 Total Blocks : 262144 Invalid Blocks : 0
Heartbeat CPU 5 instructions: 210000002 cycles: 271622272 heartbeat IPC: 0.970896 cumulative IPC: 0.978551 (Simulation time: 9 hr 2 min 8 sec) 
 Total Blocks : 262144 Invalid Blocks : 0
Heartbeat CPU 6 instructions: 210000002 cycles: 271852795 heartbeat IPC: 0.959726 cumulative IPC: 0.963157 (Simulation time: 9 hr 2 min 47 sec) 
 Total Blocks : 262144 Invalid Blocks : 0
Heartbeat CPU 1 instructions: 210000002 cycles: 272021867 heartbeat IPC: 0.952961 cumulative IPC: 0.953059 (Simulation time: 9 hr 3 min 16 sec) 
 Total Blocks : 262144 Invalid Blocks : 0
Heartbeat CPU 0 instructions: 210000002 cycles: 272022307 heartbeat IPC: 0.952912 cumulative IPC: 0.953016 (Simulation time: 9 hr 3 min 16 sec) 
 Total Blocks : 262144 Invalid Blocks : 0
Heartbeat CPU 3 instructions: 210000002 cycles: 272030924 heartbeat IPC: 0.95235 cumulative IPC: 0.952372 (Simulation time: 9 hr 3 min 17 sec) 
 Total Blocks : 262144 Invalid Blocks : 0
Heartbeat CPU 2 instructions: 210000002 cycles: 272031026 heartbeat IPC: 0.952406 cumulative IPC: 0.952406 (Simulation time: 9 hr 3 min 17 sec) 
 Total Blocks : 262144 Invalid Blocks : 0
Heartbeat CPU 4 instructions: 210000002 cycles: 272034181 heartbeat IPC: 0.952109 cumulative IPC: 0.952115 (Simulation time: 9 hr 3 min 18 sec) 
 Total Blocks : 262144 Invalid Blocks : 0
Heartbeat CPU 7 instructions: 220000000 cycles: 283529203 heartbeat IPC: 0.832041 cumulative IPC: 0.902024 (Simulation time: 9 hr 22 min 45 sec) 
 Total Blocks : 262144 Invalid Blocks : 0
Heartbeat CPU 5 instructions: 220000000 cycles: 283658664 heartbeat IPC: 0.830814 cumulative IPC: 0.898188 (Simulation time: 9 hr 22 min 49 sec) 
 Total Blocks : 262144 Invalid Blocks : 0
Heartbeat CPU 6 instructions: 220000000 cycles: 283881033 heartbeat IPC: 0.831377 cumulative IPC: 0.892235 (Simulation time: 9 hr 22 min 57 sec) 
 Total Blocks : 262144 Invalid Blocks : 0
Heartbeat CPU 0 instructions: 220000000 cycles: 283970760 heartbeat IPC: 0.836928 cumulative IPC: 0.891202 (Simulation time: 9 hr 23 min 0 sec) 
 Total Blocks : 262144 Invalid Blocks : 0
Heartbeat CPU 3 instructions: 220000000 cycles: 283973479 heartbeat IPC: 0.837342 cumulative IPC: 0.891159 (Simulation time: 9 hr 23 min 0 sec) 
 Total Blocks : 262144 Invalid Blocks : 0
Heartbeat CPU 1 instructions: 220000000 cycles: 283980106 heartbeat IPC: 0.836243 cumulative IPC: 0.890833 (Simulation time: 9 hr 23 min 0 sec) 
 Total Blocks : 262144 Invalid Blocks : 0
Heartbeat CPU 4 instructions: 220000000 cycles: 284040669 heartbeat IPC: 0.832883 cumulative IPC: 0.888517 (Simulation time: 9 hr 23 min 2 sec) 
 Total Blocks : 262144 Invalid Blocks : 0
Heartbeat CPU 2 instructions: 220000000 cycles: 284047331 heartbeat IPC: 0.832202 cumulative IPC: 0.888256 (Simulation time: 9 hr 23 min 3 sec) 
 Total Blocks : 262144 Invalid Blocks : 0
Heartbeat CPU 1 instructions: 230000003 cycles: 331612759 heartbeat IPC: 0.20994 cumulative IPC: 0.428047 (Simulation time: 9 hr 44 min 30 sec) 
 Total Blocks : 262144 Invalid Blocks : 0
Heartbeat CPU 5 instructions: 230000003 cycles: 331682290 heartbeat IPC: 0.208231 cumulative IPC: 0.42586 (Simulation time: 9 hr 44 min 31 sec) 
 Total Blocks : 262144 Invalid Blocks : 0
Heartbeat CPU 7 instructions: 230000003 cycles: 331732307 heartbeat IPC: 0.207456 cumulative IPC: 0.425103 (Simulation time: 9 hr 44 min 32 sec) 
 Total Blocks : 262144 Invalid Blocks : 0
Heartbeat CPU 3 instructions: 230000003 cycles: 331789245 heartbeat IPC: 0.209136 cumulative IPC: 0.426992 (Simulation time: 9 hr 44 min 33 sec) 
 Total Blocks : 262144 Invalid Blocks : 0
Heartbeat CPU 6 instructions: 230000003 cycles: 331848367 heartbeat IPC: 0.208475 cumulative IPC: 0.425803 (Simulation time: 9 hr 44 min 33 sec) 
 Total Blocks : 262144 Invalid Blocks : 0
Heartbeat CPU 0 instructions: 230000003 cycles: 331854100 heartbeat IPC: 0.208841 cumulative IPC: 0.426577 (Simulation time: 9 hr 44 min 34 sec) 
 Total Blocks : 262144 Invalid Blocks : 0
Heartbeat CPU 4 instructions: 230000003 cycles: 332178042 heartbeat IPC: 0.207739 cumulative IPC: 0.424647 (Simulation time: 9 hr 44 min 39 sec) 
 Total Blocks : 262144 Invalid Blocks : 0
Heartbeat CPU 2 instructions: 230000003 cycles: 332196120 heartbeat IPC: 0.20769 cumulative IPC: 0.424539 (Simulation time: 9 hr 44 min 39 sec) 
 Total Blocks : 262144 Invalid Blocks : 0
Heartbeat CPU 7 instructions: 240000000 cycles: 386534477 heartbeat IPC: 0.182474 cumulative IPC: 0.318733 (Simulation time: 10 hr 0 min 34 sec) 
 Total Blocks : 262144 Invalid Blocks : 0
Heartbeat CPU 5 instructions: 240000000 cycles: 386538942 heartbeat IPC: 0.182293 cumulative IPC: 0.318977 (Simulation time: 10 hr 0 min 34 sec) 
 Total Blocks : 262144 Invalid Blocks : 0
Heartbeat CPU 6 instructions: 240000000 cycles: 386984405 heartbeat IPC: 0.18137 cumulative IPC: 0.318376 (Simulation time: 10 hr 0 min 41 sec) 
 Total Blocks : 262144 Invalid Blocks : 0
Heartbeat CPU 1 instructions: 240000000 cycles: 387019873 heartbeat IPC: 0.180482 cumulative IPC: 0.318739 (Simulation time: 10 hr 0 min 42 sec) 
 Total Blocks : 262144 Invalid Blocks : 0
Heartbeat CPU 0 instructions: 240000000 cycles: 387078464 heartbeat IPC: 0.181079 cumulative IPC: 0.31859 (Simulation time: 10 hr 0 min 43 sec) 
 Total Blocks : 262144 Invalid Blocks : 0
Heartbeat CPU 3 instructions: 240000000 cycles: 387151017 heartbeat IPC: 0.18063 cumulative IPC: 0.318418 (Simulation time: 10 hr 0 min 44 sec) 
 Total Blocks : 262144 Invalid Blocks : 0
Heartbeat CPU 4 instructions: 240000000 cycles: 387283412 heartbeat IPC: 0.18147 cumulative IPC: 0.318086 (Simulation time: 10 hr 0 min 46 sec) 
 Total Blocks : 262144 Invalid Blocks : 0
Heartbeat CPU 2 instructions: 240000000 cycles: 387387484 heartbeat IPC: 0.181188 cumulative IPC: 0.317823 (Simulation time: 10 hr 0 min 48 sec) 
 Total Blocks : 262144 Invalid Blocks : 0
Heartbeat CPU 7 instructions: 250000001 cycles: 437440924 heartbeat IPC: 0.196439 cumulative IPC: 0.283342 (Simulation time: 10 hr 15 min 10 sec) 
 Total Blocks : 262144 Invalid Blocks : 0
Heartbeat CPU 5 instructions: 250000001 cycles: 437505735 heartbeat IPC: 0.196206 cumulative IPC: 0.283419 (Simulation time: 10 hr 15 min 11 sec) 
 Total Blocks : 262144 Invalid Blocks : 0
Heartbeat CPU 6 instructions: 250000001 cycles: 438231603 heartbeat IPC: 0.195133 cumulative IPC: 0.282632 (Simulation time: 10 hr 15 min 24 sec) 
 Total Blocks : 262144 Invalid Blocks : 0
Heartbeat CPU 1 instructions: 250000001 cycles: 438281262 heartbeat IPC: 0.195079 cumulative IPC: 0.282875 (Simulation time: 10 hr 15 min 25 sec) 
 Total Blocks : 262144 Invalid Blocks : 0
Heartbeat CPU 0 instructions: 250000001 cycles: 438661152 heartbeat IPC: 0.193864 cumulative IPC: 0.282268 (Simulation time: 10 hr 15 min 31 sec) 
 Total Blocks : 262144 Invalid Blocks : 0
Heartbeat CPU 3 instructions: 250000001 cycles: 438745862 heartbeat IPC: 0.193818 cumulative IPC: 0.282141 (Simulation time: 10 hr 15 min 33 sec) 
 Total Blocks : 262144 Invalid Blocks : 0
Heartbeat CPU 4 instructions: 250000001 cycles: 438781585 heartbeat IPC: 0.194182 cumulative IPC: 0.282087 (Simulation time: 10 hr 15 min 33 sec) 
 Total Blocks : 262144 Invalid Blocks : 0
Heartbeat CPU 2 instructions: 250000001 cycles: 438958151 heartbeat IPC: 0.193909 cumulative IPC: 0.281806 (Simulation time: 10 hr 15 min 36 sec) 
 Total Blocks : 262144 Invalid Blocks : 0
Heartbeat CPU 7 instructions: 260000002 cycles: 488278400 heartbeat IPC: 0.196705 cumulative IPC: 0.263918 (Simulation time: 10 hr 29 min 1 sec) 
 Total Blocks : 262144 Invalid Blocks : 0
Heartbeat CPU 5 instructions: 260000002 cycles: 488621487 heartbeat IPC: 0.195634 cumulative IPC: 0.26366 (Simulation time: 10 hr 29 min 6 sec) 
 Total Blocks : 262144 Invalid Blocks : 0
Heartbeat CPU 6 instructions: 260000002 cycles: 489127779 heartbeat IPC: 0.196478 cumulative IPC: 0.263366 (Simulation time: 10 hr 29 min 14 sec) 
 Total Blocks : 262144 Invalid Blocks : 0
Heartbeat CPU 1 instructions: 260000002 cycles: 489379630 heartbeat IPC: 0.195701 cumulative IPC: 0.263325 (Simulation time: 10 hr 29 min 18 sec) 
 Total Blocks : 262144 Invalid Blocks : 0
Heartbeat CPU 0 instructions: 260000002 cycles: 489942103 heartbeat IPC: 0.195004 cumulative IPC: 0.262676 (Simulation time: 10 hr 29 min 27 sec) 
 Total Blocks : 262144 Invalid Blocks : 0
Heartbeat CPU 3 instructions: 260000002 cycles: 490009257 heartbeat IPC: 0.195071 cumulative IPC: 0.262605 (Simulation time: 10 hr 29 min 28 sec) 
 Total Blocks : 262144 Invalid Blocks : 0
Heartbeat CPU 4 instructions: 260000002 cycles: 490230382 heartbeat IPC: 0.194368 cumulative IPC: 0.262353 (Simulation time: 10 hr 29 min 31 sec) 
 Total Blocks : 262144 Invalid Blocks : 0
Heartbeat CPU 2 instructions: 260000002 cycles: 490260820 heartbeat IPC: 0.194922 cumulative IPC: 0.262319 (Simulation time: 10 hr 29 min 32 sec) 
 Total Blocks : 262144 Invalid Blocks : 0
Heartbeat CPU 7 instructions: 270000002 cycles: 518223997 heartbeat IPC: 0.333939 cumulative IPC: 0.272087 (Simulation time: 10 hr 38 min 38 sec) 
 Total Blocks : 262144 Invalid Blocks : 0
Heartbeat CPU 5 instructions: 270000002 cycles: 518727967 heartbeat IPC: 0.332154 cumulative IPC: 0.271677 (Simulation time: 10 hr 39 min 11 sec) 
 Total Blocks : 262144 Invalid Blocks : 0
Heartbeat CPU 6 instructions: 270000002 cycles: 519005400 heartbeat IPC: 0.334699 cumulative IPC: 0.271644 (Simulation time: 10 hr 39 min 29 sec) 
 Total Blocks : 262144 Invalid Blocks : 0
Heartbeat CPU 1 instructions: 270000002 cycles: 519404608 heartbeat IPC: 0.333056 cumulative IPC: 0.271444 (Simulation time: 10 hr 39 min 55 sec) 
 Total Blocks : 262144 Invalid Blocks : 0
Heartbeat CPU 0 instructions: 270000002 cycles: 519919210 heartbeat IPC: 0.333588 cumulative IPC: 0.270903 (Simulation time: 10 hr 40 min 29 sec) 
 Total Blocks : 262144 Invalid Blocks : 0
Heartbeat CPU 3 instructions: 270000002 cycles: 520016126 heartbeat IPC: 0.333257 cumulative IPC: 0.270807 (Simulation time: 10 hr 40 min 35 sec) 
 Total Blocks : 262144 Invalid Blocks : 0
Heartbeat CPU 4 instructions: 270000002 cycles: 520194642 heartbeat IPC: 0.333731 cumulative IPC: 0.270622 (Simulation time: 10 hr 40 min 47 sec) 
 Total Blocks : 262144 Invalid Blocks : 0
Heartbeat CPU 2 instructions: 270000002 cycles: 520241556 heartbeat IPC: 0.333548 cumulative IPC: 0.270573 (Simulation time: 10 hr 40 min 50 sec) 
 Total Blocks : 262144 Invalid Blocks : 0
Heartbeat CPU 7 instructions: 280000002 cycles: 557729700 heartbeat IPC: 0.253128 cumulative IPC: 0.269558 (Simulation time: 10 hr 55 min 51 sec) 
 Total Blocks : 262144 Invalid Blocks : 0
Heartbeat CPU 5 instructions: 280000002 cycles: 558503866 heartbeat IPC: 0.251409 cumulative IPC: 0.268963 (Simulation time: 10 hr 56 min 36 sec) 
 Total Blocks : 262144 Invalid Blocks : 0
Heartbeat CPU 6 instructions: 280000002 cycles: 558900016 heartbeat IPC: 0.25066 cumulative IPC: 0.268829 (Simulation time: 10 hr 57 min 8 sec) 
 Total Blocks : 262144 Invalid Blocks : 0
Heartbeat CPU 1 instructions: 280000002 cycles: 559252834 heartbeat IPC: 0.250952 cumulative IPC: 0.268701 (Simulation time: 10 hr 57 min 37 sec) 
 Total Blocks : 262144 Invalid Blocks : 0
Heartbeat CPU 0 instructions: 280000002 cycles: 559663333 heartbeat IPC: 0.25161 cumulative IPC: 0.268331 (Simulation time: 10 hr 58 min 9 sec) 
 Total Blocks : 262144 Invalid Blocks : 0
Heartbeat CPU 3 instructions: 280000002 cycles: 559725140 heartbeat IPC: 0.251832 cumulative IPC: 0.26828 (Simulation time: 10 hr 58 min 14 sec) 
 Total Blocks : 262144 Invalid Blocks : 0
Heartbeat CPU 4 instructions: 280000002 cycles: 559748639 heartbeat IPC: 0.252819 cumulative IPC: 0.268261 (Simulation time: 10 hr 58 min 16 sec) 
 Total Blocks : 262144 Invalid Blocks : 0
Heartbeat CPU 2 instructions: 280000002 cycles: 559838276 heartbeat IPC: 0.252546 cumulative IPC: 0.26818 (Simulation time: 10 hr 58 min 23 sec) 
 Total Blocks : 262144 Invalid Blocks : 0
Heartbeat CPU 7 instructions: 290000000 cycles: 579100364 heartbeat IPC: 0.467931 cumulative IPC: 0.282907 (Simulation time: 11 hr 8 min 33 sec) 
 Total Blocks : 262144 Invalid Blocks : 0
Heartbeat CPU 5 instructions: 290000000 cycles: 579827280 heartbeat IPC: 0.468968 cumulative IPC: 0.282361 (Simulation time: 11 hr 8 min 48 sec) 
 Total Blocks : 262144 Invalid Blocks : 0
Heartbeat CPU 6 instructions: 290000000 cycles: 580215353 heartbeat IPC: 0.469146 cumulative IPC: 0.282227 (Simulation time: 11 hr 8 min 57 sec) 
 Total Blocks : 262144 Invalid Blocks : 0
Heartbeat CPU 1 instructions: 290000000 cycles: 580633826 heartbeat IPC: 0.467705 cumulative IPC: 0.282035 (Simulation time: 11 hr 9 min 5 sec) 
 Total Blocks : 262144 Invalid Blocks : 0
Heartbeat CPU 3 instructions: 290000000 cycles: 580972014 heartbeat IPC: 0.470657 cumulative IPC: 0.281741 (Simulation time: 11 hr 9 min 13 sec) 
 Total Blocks : 262144 Invalid Blocks : 0
Heartbeat CPU 0 instructions: 290000000 cycles: 580979671 heartbeat IPC: 0.469124 cumulative IPC: 0.28173 (Simulation time: 11 hr 9 min 13 sec) 
 Total Blocks : 262144 Invalid Blocks : 0
Heartbeat CPU 4 instructions: 290000000 cycles: 581032195 heartbeat IPC: 0.469846 cumulative IPC: 0.281689 (Simulation time: 11 hr 9 min 14 sec) 
 Total Blocks : 262144 Invalid Blocks : 0
Heartbeat CPU 2 instructions: 290000000 cycles: 581269544 heartbeat IPC: 0.466608 cumulative IPC: 0.28148 (Simulation time: 11 hr 9 min 19 sec) 
 Total Blocks : 262144 Invalid Blocks : 0
Heartbeat CPU 7 instructions: 300000002 cycles: 628262451 heartbeat IPC: 0.203409 cumulative IPC: 0.27225 (Simulation time: 11 hr 23 min 52 sec) 
 Total Blocks : 262144 Invalid Blocks : 0
Heartbeat CPU 5 instructions: 300000002 cycles: 628828317 heartbeat IPC: 0.204077 cumulative IPC: 0.271918 (Simulation time: 11 hr 24 min 1 sec) 
 Total Blocks : 262144 Invalid Blocks : 0
Heartbeat CPU 6 instructions: 300000002 cycles: 629678310 heartbeat IPC: 0.202172 cumulative IPC: 0.271471 (Simulation time: 11 hr 24 min 14 sec) 
 Total Blocks : 262144 Invalid Blocks : 0
Heartbeat CPU 1 instructions: 300000002 cycles: 629988682 heartbeat IPC: 0.202614 cumulative IPC: 0.271397 (Simulation time: 11 hr 24 min 19 sec) 
 Total Blocks : 262144 Invalid Blocks : 0
Heartbeat CPU 0 instructions: 300000002 cycles: 630143327 heartbeat IPC: 0.203402 cumulative IPC: 0.271283 (Simulation time: 11 hr 24 min 21 sec) 
 Total Blocks : 262144 Invalid Blocks : 0
Heartbeat CPU 3 instructions: 300000002 cycles: 630194638 heartbeat IPC: 0.203159 cumulative IPC: 0.271249 (Simulation time: 11 hr 24 min 22 sec) 
 Total Blocks : 262144 Invalid Blocks : 0
Heartbeat CPU 4 instructions: 300000002 cycles: 630243798 heartbeat IPC: 0.203204 cumulative IPC: 0.271214 (Simulation time: 11 hr 24 min 22 sec) 
 Total Blocks : 262144 Invalid Blocks : 0
Heartbeat CPU 2 instructions: 300000002 cycles: 630398245 heartbeat IPC: 0.203547 cumulative IPC: 0.2711 (Simulation time: 11 hr 24 min 25 sec) 
 Total Blocks : 262144 Invalid Blocks : 0
Heartbeat CPU 7 instructions: 310000001 cycles: 681453331 heartbeat IPC: 0.188002 cumulative IPC: 0.261579 (Simulation time: 11 hr 37 min 33 sec) 
 Total Blocks : 262144 Invalid Blocks : 0
Heartbeat CPU 5 instructions: 310000001 cycles: 682104143 heartbeat IPC: 0.187702 cumulative IPC: 0.26125 (Simulation time: 11 hr 37 min 44 sec) 
 Total Blocks : 262144 Invalid Blocks : 0
Heartbeat CPU 6 instructions: 310000001 cycles: 683689107 heartbeat IPC: 0.185148 cumulative IPC: 0.260427 (Simulation time: 11 hr 38 min 9 sec) 
 Total Blocks : 262144 Invalid Blocks : 0
Heartbeat CPU 1 instructions: 310000001 cycles: 684105768 heartbeat IPC: 0.184785 cumulative IPC: 0.260305 (Simulation time: 11 hr 38 min 16 sec) 
 Total Blocks : 262144 Invalid Blocks : 0
Heartbeat CPU 0 instructions: 310000001 cycles: 684108177 heartbeat IPC: 0.185306 cumulative IPC: 0.260303 (Simulation time: 11 hr 38 min 16 sec) 
 Total Blocks : 262144 Invalid Blocks : 0
Heartbeat CPU 3 instructions: 310000001 cycles: 684238231 heartbeat IPC: 0.185036 cumulative IPC: 0.260227 (Simulation time: 11 hr 38 min 18 sec) 
 Total Blocks : 262144 Invalid Blocks : 0
Heartbeat CPU 4 instructions: 310000001 cycles: 684453056 heartbeat IPC: 0.18447 cumulative IPC: 0.260095 (Simulation time: 11 hr 38 min 21 sec) 
 Total Blocks : 262144 Invalid Blocks : 0
Heartbeat CPU 2 instructions: 310000001 cycles: 684620530 heartbeat IPC: 0.184426 cumulative IPC: 0.259992 (Simulation time: 11 hr 38 min 24 sec) 
 Total Blocks : 262144 Invalid Blocks : 0
Heartbeat CPU 7 instructions: 320000002 cycles: 734858444 heartbeat IPC: 0.187248 cumulative IPC: 0.253192 (Simulation time: 11 hr 51 min 23 sec) 
 Total Blocks : 262144 Invalid Blocks : 0
Heartbeat CPU 5 instructions: 320000002 cycles: 735583994 heartbeat IPC: 0.186986 cumulative IPC: 0.252872 (Simulation time: 11 hr 51 min 35 sec) 
 Total Blocks : 262144 Invalid Blocks : 0
Heartbeat CPU 6 instructions: 320000002 cycles: 737794610 heartbeat IPC: 0.184824 cumulative IPC: 0.251838 (Simulation time: 11 hr 52 min 10 sec) 
 Total Blocks : 262144 Invalid Blocks : 0
Heartbeat CPU 1 instructions: 320000002 cycles: 738140585 heartbeat IPC: 0.185066 cumulative IPC: 0.251775 (Simulation time: 11 hr 52 min 16 sec) 
 Total Blocks : 262144 Invalid Blocks : 0
Heartbeat CPU 0 instructions: 320000002 cycles: 738163670 heartbeat IPC: 0.184995 cumulative IPC: 0.251762 (Simulation time: 11 hr 52 min 16 sec) 
 Total Blocks : 262144 Invalid Blocks : 0
Heartbeat CPU 3 instructions: 320000002 cycles: 738602496 heartbeat IPC: 0.183944 cumulative IPC: 0.251534 (Simulation time: 11 hr 52 min 23 sec) 
 Total Blocks : 262144 Invalid Blocks : 0
Heartbeat CPU 4 instructions: 320000002 cycles: 738872649 heartbeat IPC: 0.183757 cumulative IPC: 0.251392 (Simulation time: 11 hr 52 min 27 sec) 
 Total Blocks : 262144 Invalid Blocks : 0
Heartbeat CPU 2 instructions: 320000002 cycles: 738985684 heartbeat IPC: 0.183941 cumulative IPC: 0.251333 (Simulation time: 11 hr 52 min 29 sec) 
 Total Blocks : 262144 Invalid Blocks : 0
Heartbeat CPU 7 instructions: 330000000 cycles: 792975296 heartbeat IPC: 0.172067 cumulative IPC: 0.24432 (Simulation time: 12 hr 6 min 6 sec) 
 Total Blocks : 262144 Invalid Blocks : 0
Heartbeat CPU 5 instructions: 330000000 cycles: 794139256 heartbeat IPC: 0.170779 cumulative IPC: 0.243846 (Simulation time: 12 hr 6 min 23 sec) 
 Total Blocks : 262144 Invalid Blocks : 0
Heartbeat CPU 6 instructions: 330000000 cycles: 796311988 heartbeat IPC: 0.170889 cumulative IPC: 0.24298 (Simulation time: 12 hr 6 min 55 sec) 
 Total Blocks : 262144 Invalid Blocks : 0
Heartbeat CPU 1 instructions: 330000000 cycles: 796851169 heartbeat IPC: 0.170327 cumulative IPC: 0.242842 (Simulation time: 12 hr 7 min 3 sec) 
 Total Blocks : 262144 Invalid Blocks : 0
Heartbeat CPU 0 instructions: 330000000 cycles: 796860810 heartbeat IPC: 0.170366 cumulative IPC: 0.242838 (Simulation time: 12 hr 7 min 3 sec) 
 Total Blocks : 262144 Invalid Blocks : 0
Heartbeat CPU 3 instructions: 330000000 cycles: 797517501 heartbeat IPC: 0.169736 cumulative IPC: 0.242543 (Simulation time: 12 hr 7 min 13 sec) 
 Total Blocks : 262144 Invalid Blocks : 0
Heartbeat CPU 2 instructions: 330000000 cycles: 797751680 heartbeat IPC: 0.170166 cumulative IPC: 0.242438 (Simulation time: 12 hr 7 min 17 sec) 
 Total Blocks : 262144 Invalid Blocks : 0
Heartbeat CPU 4 instructions: 330000000 cycles: 797827120 heartbeat IPC: 0.169622 cumulative IPC: 0.242403 (Simulation time: 12 hr 7 min 18 sec) 
 Total Blocks : 262144 Invalid Blocks : 0
Heartbeat CPU 7 instructions: 340000000 cycles: 838219718 heartbeat IPC: 0.221022 cumulative IPC: 0.242493 (Simulation time: 12 hr 18 min 5 sec) 
 Total Blocks : 262144 Invalid Blocks : 0
Heartbeat CPU 5 instructions: 340000000 cycles: 839559271 heartbeat IPC: 0.220167 cumulative IPC: 0.241986 (Simulation time: 12 hr 18 min 29 sec) 
 Total Blocks : 262144 Invalid Blocks : 0
Heartbeat CPU 6 instructions: 340000000 cycles: 841576109 heartbeat IPC: 0.220926 cumulative IPC: 0.241259 (Simulation time: 12 hr 19 min 4 sec) 
 Total Blocks : 262144 Invalid Blocks : 0
Heartbeat CPU 0 instructions: 340000000 cycles: 842141444 heartbeat IPC: 0.220845 cumulative IPC: 0.241122 (Simulation time: 12 hr 19 min 14 sec) 
 Total Blocks : 262144 Invalid Blocks : 0
Heartbeat CPU 1 instructions: 340000000 cycles: 842158751 heartbeat IPC: 0.220714 cumulative IPC: 0.241115 (Simulation time: 12 hr 19 min 14 sec) 
 Total Blocks : 262144 Invalid Blocks : 0
Heartbeat CPU 3 instructions: 340000000 cycles: 842935531 heartbeat IPC: 0.220177 cumulative IPC: 0.240796 (Simulation time: 12 hr 19 min 28 sec) 
 Total Blocks : 262144 Invalid Blocks : 0
Heartbeat CPU 2 instructions: 340000000 cycles: 843123565 heartbeat IPC: 0.220401 cumulative IPC: 0.240718 (Simulation time: 12 hr 19 min 31 sec) 
 Total Blocks : 262144 Invalid Blocks : 0
Heartbeat CPU 4 instructions: 340000000 cycles: 843195205 heartbeat IPC: 0.220419 cumulative IPC: 0.240689 (Simulation time: 12 hr 19 min 33 sec) 
 Total Blocks : 262144 Invalid Blocks : 0
Heartbeat CPU 7 instructions: 350000000 cycles: 854489622 heartbeat IPC: 0.614632 cumulative IPC: 0.252703 (Simulation time: 12 hr 23 min 56 sec) 
 Total Blocks : 262144 Invalid Blocks : 0
Heartbeat CPU 5 instructions: 350000000 cycles: 855827181 heartbeat IPC: 0.614707 cumulative IPC: 0.252188 (Simulation time: 12 hr 25 min 25 sec) 
 Total Blocks : 262144 Invalid Blocks : 0
Heartbeat CPU 6 instructions: 350000000 cycles: 857855941 heartbeat IPC: 0.614257 cumulative IPC: 0.251442 (Simulation time: 12 hr 28 min 54 sec) 
 Total Blocks : 262144 Invalid Blocks : 0
Heartbeat CPU 0 instructions: 350000000 cycles: 858406858 heartbeat IPC: 0.614801 cumulative IPC: 0.251305 (Simulation time: 12 hr 29 min 51 sec) 
 Total Blocks : 262144 Invalid Blocks : 0
Heartbeat CPU 1 instructions: 350000000 cycles: 858414846 heartbeat IPC: 0.615154 cumulative IPC: 0.251302 (Simulation time: 12 hr 29 min 52 sec) 
 Total Blocks : 262144 Invalid Blocks : 0
Heartbeat CPU 3 instructions: 350000000 cycles: 859207732 heartbeat IPC: 0.614545 cumulative IPC: 0.250971 (Simulation time: 12 hr 31 min 11 sec) 
 Total Blocks : 262144 Invalid Blocks : 0
Heartbeat CPU 2 instructions: 350000000 cycles: 859386477 heartbeat IPC: 0.614896 cumulative IPC: 0.250897 (Simulation time: 12 hr 31 min 29 sec) 
 Total Blocks : 262144 Invalid Blocks : 0
Heartbeat CPU 4 instructions: 350000000 cycles: 859451851 heartbeat IPC: 0.615133 cumulative IPC: 0.250869 (Simulation time: 12 hr 31 min 36 sec) 
 Total Blocks : 262144 Invalid Blocks : 0
Heartbeat CPU 7 instructions: 360000002 cycles: 862668436 heartbeat IPC: 1.22267 cumulative IPC: 0.2659 (Simulation time: 12 hr 36 min 31 sec) 
 Total Blocks : 262144 Invalid Blocks : 0
Heartbeat CPU 5 instructions: 360000002 cycles: 864077516 heartbeat IPC: 1.21207 cumulative IPC: 0.265332 (Simulation time: 12 hr 38 min 14 sec) 
 Total Blocks : 262144 Invalid Blocks : 0
Heartbeat CPU 6 instructions: 360000002 cycles: 866231517 heartbeat IPC: 1.19395 cumulative IPC: 0.264497 (Simulation time: 12 hr 40 min 34 sec) 
 Total Blocks : 262144 Invalid Blocks : 0
Heartbeat CPU 0 instructions: 360000002 cycles: 866803173 heartbeat IPC: 1.191 cumulative IPC: 0.264341 (Simulation time: 12 hr 41 min 9 sec) 
 Total Blocks : 262144 Invalid Blocks : 0
Heartbeat CPU 1 instructions: 360000002 cycles: 866817460 heartbeat IPC: 1.19011 cumulative IPC: 0.264335 (Simulation time: 12 hr 41 min 10 sec) 
 Total Blocks : 262144 Invalid Blocks : 0
Heartbeat CPU 3 instructions: 360000002 cycles: 867662733 heartbeat IPC: 1.18273 cumulative IPC: 0.263968 (Simulation time: 12 hr 41 min 54 sec) 
 Total Blocks : 262144 Invalid Blocks : 0
Heartbeat CPU 2 instructions: 360000002 cycles: 867844082 heartbeat IPC: 1.18237 cumulative IPC: 0.26389 (Simulation time: 12 hr 42 min 1 sec) 
 Total Blocks : 262144 Invalid Blocks : 0
Heartbeat CPU 4 instructions: 360000002 cycles: 867921791 heartbeat IPC: 1.18065 cumulative IPC: 0.263856 (Simulation time: 12 hr 42 min 4 sec) 
 Total Blocks : 262144 Invalid Blocks : 0
Heartbeat CPU 7 instructions: 370000000 cycles: 889683657 heartbeat IPC: 0.370162 cumulative IPC: 0.270384 (Simulation time: 12 hr 49 min 56 sec) 
 Total Blocks : 262144 Invalid Blocks : 0
Heartbeat CPU 5 instructions: 370000000 cycles: 891267209 heartbeat IPC: 0.367786 cumulative IPC: 0.269755 (Simulation time: 12 hr 50 min 30 sec) 
 Total Blocks : 262144 Invalid Blocks : 0
Heartbeat CPU 6 instructions: 370000000 cycles: 893731388 heartbeat IPC: 0.363638 cumulative IPC: 0.268809 (Simulation time: 12 hr 51 min 23 sec) 
 Total Blocks : 262144 Invalid Blocks : 0
Heartbeat CPU 0 instructions: 370000000 cycles: 894151187 heartbeat IPC: 0.365657 cumulative IPC: 0.268721 (Simulation time: 12 hr 51 min 32 sec) 
 Total Blocks : 262144 Invalid Blocks : 0
Heartbeat CPU 1 instructions: 370000000 cycles: 894151753 heartbeat IPC: 0.365841 cumulative IPC: 0.268721 (Simulation time: 12 hr 51 min 32 sec) 
 Total Blocks : 262144 Invalid Blocks : 0
Heartbeat CPU 3 instructions: 370000000 cycles: 895503763 heartbeat IPC: 0.359182 cumulative IPC: 0.26815 (Simulation time: 12 hr 52 min 3 sec) 
 Total Blocks : 262144 Invalid Blocks : 0
Heartbeat CPU 2 instructions: 370000000 cycles: 895663742 heartbeat IPC: 0.359458 cumulative IPC: 0.268083 (Simulation time: 12 hr 52 min 7 sec) 
 Total Blocks : 262144 Invalid Blocks : 0
Heartbeat CPU 4 instructions: 370000000 cycles: 895733951 heartbeat IPC: 0.359555 cumulative IPC: 0.268053 (Simulation time: 12 hr 52 min 8 sec) 
 Total Blocks : 262144 Invalid Blocks : 0
Heartbeat CPU 7 instructions: 380000001 cycles: 957714054 heartbeat IPC: 0.146993 cumulative IPC: 0.258327 (Simulation time: 13 hr 11 min 49 sec) 
 Total Blocks : 262144 Invalid Blocks : 0
Heartbeat CPU 5 instructions: 380000001 cycles: 958962059 heartbeat IPC: 0.147722 cumulative IPC: 0.25791 (Simulation time: 13 hr 12 min 10 sec) 
 Total Blocks : 262144 Invalid Blocks : 0
Heartbeat CPU 6 instructions: 380000001 cycles: 961091243 heartbeat IPC: 0.148456 cumulative IPC: 0.257221 (Simulation time: 13 hr 12 min 47 sec) 
 Total Blocks : 262144 Invalid Blocks : 0
Heartbeat CPU 0 instructions: 380000001 cycles: 961114216 heartbeat IPC: 0.149336 cumulative IPC: 0.257293 (Simulation time: 13 hr 12 min 47 sec) 
 Total Blocks : 262144 Invalid Blocks : 0
Heartbeat CPU 1 instructions: 380000001 cycles: 961290680 heartbeat IPC: 0.148945 cumulative IPC: 0.257229 (Simulation time: 13 hr 12 min 51 sec) 
 Total Blocks : 262144 Invalid Blocks : 0
Heartbeat CPU 3 instructions: 380000001 cycles: 961989834 heartbeat IPC: 0.150407 cumulative IPC: 0.256974 (Simulation time: 13 hr 13 min 3 sec) 
 Total Blocks : 262144 Invalid Blocks : 0
Heartbeat CPU 4 instructions: 380000001 cycles: 962054982 heartbeat IPC: 0.150782 cumulative IPC: 0.256951 (Simulation time: 13 hr 13 min 4 sec) 
 Total Blocks : 262144 Invalid Blocks : 0
Heartbeat CPU 2 instructions: 380000001 cycles: 962075119 heartbeat IPC: 0.150577 cumulative IPC: 0.256943 (Simulation time: 13 hr 13 min 4 sec) 
 Total Blocks : 262144 Invalid Blocks : 0
Heartbeat CPU 7 instructions: 390000000 cycles: 1008363104 heartbeat IPC: 0.197437 cumulative IPC: 0.254197 (Simulation time: 13 hr 26 min 24 sec) 
 Total Blocks : 262144 Invalid Blocks : 0
Heartbeat CPU 5 instructions: 390000000 cycles: 1009760708 heartbeat IPC: 0.196856 cumulative IPC: 0.253765 (Simulation time: 13 hr 26 min 48 sec) 
 Total Blocks : 262144 Invalid Blocks : 0
Heartbeat CPU 6 instructions: 390000000 cycles: 1012170743 heartbeat IPC: 0.195773 cumulative IPC: 0.253039 (Simulation time: 13 hr 27 min 29 sec) 
 Total Blocks : 262144 Invalid Blocks : 0
Heartbeat CPU 0 instructions: 390000000 cycles: 1012297344 heartbeat IPC: 0.195377 cumulative IPC: 0.253072 (Simulation time: 13 hr 27 min 31 sec) 
 Total Blocks : 262144 Invalid Blocks : 0
Heartbeat CPU 1 instructions: 390000000 cycles: 1012499363 heartbeat IPC: 0.195279 cumulative IPC: 0.253004 (Simulation time: 13 hr 27 min 35 sec) 
 Total Blocks : 262144 Invalid Blocks : 0
Heartbeat CPU 2 instructions: 390000000 cycles: 1013048518 heartbeat IPC: 0.196181 cumulative IPC: 0.252822 (Simulation time: 13 hr 27 min 44 sec) 
 Total Blocks : 262144 Invalid Blocks : 0
Heartbeat CPU 3 instructions: 390000000 cycles: 1013115044 heartbeat IPC: 0.195598 cumulative IPC: 0.252799 (Simulation time: 13 hr 27 min 46 sec) 
 Total Blocks : 262144 Invalid Blocks : 0
Heartbeat CPU 4 instructions: 390000000 cycles: 1013176873 heartbeat IPC: 0.195611 cumulative IPC: 0.252779 (Simulation time: 13 hr 27 min 47 sec) 
 Total Blocks : 262144 Invalid Blocks : 0
Heartbeat CPU 7 instructions: 400000000 cycles: 1058740339 heartbeat IPC: 0.198502 cumulative IPC: 0.250678 (Simulation time: 13 hr 40 min 30 sec) 
 Total Blocks : 262144 Invalid Blocks : 0
Finished CPU 7 instructions: 200000000 cycles: 797969551 cumulative IPC: 0.250636 (Simulation time: 13 hr 40 min 41 sec) 
Heartbeat CPU 5 instructions: 400000000 cycles: 1060278221 heartbeat IPC: 0.197951 cumulative IPC: 0.250235 (Simulation time: 13 hr 40 min 53 sec) 
 Total Blocks : 262144 Invalid Blocks : 0
Finished CPU 5 instructions: 200000000 cycles: 799359361 cumulative IPC: 0.2502 (Simulation time: 13 hr 41 min 3 sec) 
Heartbeat CPU 6 instructions: 400000000 cycles: 1062793691 heartbeat IPC: 0.197539 cumulative IPC: 0.249533 (Simulation time: 13 hr 41 min 32 sec) 
 Total Blocks : 262144 Invalid Blocks : 0
Finished CPU 6 instructions: 200000000 cycles: 801546640 cumulative IPC: 0.249518 (Simulation time: 13 hr 41 min 37 sec) 
Heartbeat CPU 0 instructions: 400000000 cycles: 1063098550 heartbeat IPC: 0.196846 cumulative IPC: 0.249509 (Simulation time: 13 hr 41 min 37 sec) 
 Total Blocks : 262144 Invalid Blocks : 0
Finished CPU 0 instructions: 200000000 cycles: 801576550 cumulative IPC: 0.249508 (Simulation time: 13 hr 41 min 37 sec) 
Heartbeat CPU 1 instructions: 400000000 cycles: 1063298593 heartbeat IPC: 0.196853 cumulative IPC: 0.249447 (Simulation time: 13 hr 41 min 40 sec) 
 Total Blocks : 262144 Invalid Blocks : 0
Finished CPU 1 instructions: 200000000 cycles: 801776799 cumulative IPC: 0.249446 (Simulation time: 13 hr 41 min 40 sec) 
Heartbeat CPU 2 instructions: 400000000 cycles: 1063725517 heartbeat IPC: 0.197328 cumulative IPC: 0.249316 (Simulation time: 13 hr 41 min 47 sec) 
 Total Blocks : 262144 Invalid Blocks : 0
Finished CPU 2 instructions: 200000000 cycles: 802194218 cumulative IPC: 0.249316 (Simulation time: 13 hr 41 min 47 sec) 
Heartbeat CPU 3 instructions: 400000000 cycles: 1063905142 heartbeat IPC: 0.196889 cumulative IPC: 0.24926 (Simulation time: 13 hr 41 min 50 sec) 
 Total Blocks : 262144 Invalid Blocks : 0
Finished CPU 3 instructions: 200000001 cycles: 802376143 cumulative IPC: 0.24926 (Simulation time: 13 hr 41 min 50 sec) 
Heartbeat CPU 4 instructions: 400000000 cycles: 1063920870 heartbeat IPC: 0.197068 cumulative IPC: 0.249255 (Simulation time: 13 hr 41 min 50 sec) 
 Total Blocks : 262144 Invalid Blocks : 0
Finished CPU 4 instructions: 200000000 cycles: 802389789 cumulative IPC: 0.249255 (Simulation time: 13 hr 41 min 50 sec) 

CPU 0 Branch Prediction Accuracy: 84.9625% MPKI: 31.7075 Average ROB Occupancy at Mispredict: 24.4793

CPU 1 Branch Prediction Accuracy: 84.964% MPKI: 31.7029 Average ROB Occupancy at Mispredict: 24.4813

CPU 2 Branch Prediction Accuracy: 84.9672% MPKI: 31.6939 Average ROB Occupancy at Mispredict: 24.4858

CPU 3 Branch Prediction Accuracy: 84.9685% MPKI: 31.6898 Average ROB Occupancy at Mispredict: 24.4878

CPU 4 Branch Prediction Accuracy: 84.9687% MPKI: 31.6895 Average ROB Occupancy at Mispredict: 24.4885

CPU 5 Branch Prediction Accuracy: 84.9445% MPKI: 31.7388 Average ROB Occupancy at Mispredict: 24.4574

CPU 6 Branch Prediction Accuracy: 84.9614% MPKI: 31.7002 Average ROB Occupancy at Mispredict: 24.4779

CPU 7 Branch Prediction Accuracy: 84.9338% MPKI: 31.7649 Average ROB Occupancy at Mispredict: 24.4434

ChampSim completed all CPUs

Total Simulation Statistics (not including warmup)

CPU 0 cumulative IPC: 0.249464 instructions: 200167431 cycles: 802389788
ITLB TOTAL     ACCESS: 29977629  HIT: 29977629  MISS:     0  HIT %:   100  MISS %:     0  AVERAGE MISS PENALTY: 0
ITLB LOAD      ACCESS: 29977629  HIT: 29977629  MISS:     0  HIT %:   100  MISS %:     0  AVERAGE MISS PENALTY: 0
ITLB RFO       ACCESS:     0  HIT:     0  MISS:     0  HIT %:     0  MISS %:     0  AVERAGE MISS PENALTY: 0
ITLB PREFETCH  ACCESS:     0  HIT:     0  MISS:     0  HIT %:     0  MISS %:     0  AVERAGE MISS PENALTY: 0
ITLB WRITEBACK ACCESS:     0  HIT:     0  MISS:     0  HIT %:     0  MISS %:     0  AVERAGE MISS PENALTY: 0

DTLB TOTAL     ACCESS: 39768361  HIT: 39463720  MISS: 304641  HIT %: 99.234  MISS %: 0.766039  AVERAGE MISS PENALTY: 71.3114
DTLB LOAD      ACCESS: 32776070  HIT: 32482571  MISS: 293499  HIT %: 99.1045  MISS %: 0.895467  AVERAGE MISS PENALTY: 72.4949
DTLB RFO       ACCESS: 6992291  HIT: 6981149  MISS: 11142  HIT %: 99.8407  MISS %: 0.159347  AVERAGE MISS PENALTY: 40.1368
DTLB PREFETCH  ACCESS:     0  HIT:     0  MISS:     0  HIT %:     0  MISS %:     0  AVERAGE MISS PENALTY: 0
DTLB WRITEBACK ACCESS:     0  HIT:     0  MISS:     0  HIT %:     0  MISS %:     0  AVERAGE MISS PENALTY: 0

STLB TOTAL     ACCESS: 304641  HIT: 121200  MISS: 183441  HIT %: 39.7845  MISS %: 60.2155  AVERAGE MISS PENALTY: 100
STLB LOAD      ACCESS: 293499  HIT: 113417  MISS: 180082  HIT %: 38.6431  MISS %: 61.3569  AVERAGE MISS PENALTY: 100
STLB RFO       ACCESS: 11142  HIT:  7783  MISS:  3359  HIT %: 69.8528  MISS %: 30.1472  AVERAGE MISS PENALTY: 100
STLB PREFETCH  ACCESS:     0  HIT:     0  MISS:     0  HIT %:     0  MISS %:     0  AVERAGE MISS PENALTY: 0
STLB WRITEBACK ACCESS:     0  HIT:     0  MISS:     0  HIT %:     0  MISS %:     0  AVERAGE MISS PENALTY: 0

L1D TOTAL     ACCESS: 45862931  HIT: 39018340  MISS: 6844591  HIT %: 85.076  MISS %: 14.924  AVERAGE MISS PENALTY: 1.12266e+07
L1D LOAD      ACCESS: 32299567  HIT: 29470573  MISS: 2828994  HIT %: 91.2414  MISS %: 8.75861  AVERAGE MISS PENALTY: 2.71598e+07
L1D RFO       ACCESS: 5225060  HIT: 4979870  MISS: 245190  HIT %: 95.3074  MISS %: 4.69258  AVERAGE MISS PENALTY: 24763.6
L1D PREFETCH  ACCESS: 8338304  HIT: 4567897  MISS: 3770407  HIT %: 54.7821  MISS %: 45.2179  AVERAGE MISS PENALTY: 202.903
L1D WRITEBACK ACCESS:     0  HIT:     0  MISS:     0  HIT %:     0  MISS %:     0  AVERAGE MISS PENALTY: 0

L1I TOTAL     ACCESS: 47207562  HIT: 47207562  MISS:     0  HIT %:   100  MISS %:     0  AVERAGE MISS PENALTY: 0
L1I LOAD      ACCESS: 47207562  HIT: 47207562  MISS:     0  HIT %:   100  MISS %:     0  AVERAGE MISS PENALTY: 0
L1I RFO       ACCESS:     0  HIT:     0  MISS:     0  HIT %:     0  MISS %:     0  AVERAGE MISS PENALTY: 0
L1I PREFETCH  ACCESS:     0  HIT:     0  MISS:     0  HIT %:     0  MISS %:     0  AVERAGE MISS PENALTY: 0
L1I WRITEBACK ACCESS:     0  HIT:     0  MISS:     0  HIT %:     0  MISS %:     0  AVERAGE MISS PENALTY: 0

L2C TOTAL     ACCESS: 11849701  HIT: 4317489  MISS: 7532212  HIT %: 36.4354  MISS %: 63.5646  AVERAGE MISS PENALTY: 1.17796e+07
L2C LOAD      ACCESS: 2818559  HIT: 648282  MISS: 2170277  HIT %: 23.0005  MISS %: 76.9995  AVERAGE MISS PENALTY: 4.08816e+07
L2C RFO       ACCESS: 245180  HIT:  1342  MISS: 243838  HIT %: 0.547353  MISS %: 99.4526  AVERAGE MISS PENALTY: 438.752
L2C PREFETCH  ACCESS: 8056576  HIT: 3062018  MISS: 4994558  HIT %: 38.0064  MISS %: 61.9936  AVERAGE MISS PENALTY: 343.804
L2C WRITEBACK ACCESS: 729386  HIT: 605847  MISS: 123539  HIT %: 83.0626  MISS %: 16.9374  AVERAGE MISS PENALTY: 0


LLC0 TOTAL     ACCESS: 1000921  HIT: 351626  MISS: 649295  HIT %: 35.1302  MISS %: 64.8698  AVERAGE MISS PENALTY: 380.258
LLC0 LOAD      ACCESS: 289413  HIT: 153617  MISS: 135796  HIT %: 53.0788  MISS %: 46.9212  AVERAGE MISS PENALTY: 350.239
LLC0 RFO       ACCESS: 30476  HIT:  2714  MISS: 27762  HIT %: 8.90537  MISS %: 91.0946  AVERAGE MISS PENALTY: 439.994
LLC0 PREFETCH  ACCESS: 590071  HIT: 105687  MISS: 484384  HIT %: 17.9109  MISS %: 82.0891  AVERAGE MISS PENALTY: 386.312
LLC0 WRITEBACK ACCESS: 90961  HIT: 89608  MISS:  1353  HIT %: 98.5125  MISS %: 1.48745  AVERAGE MISS PENALTY: 0

LLC1 TOTAL     ACCESS: 1012063  HIT: 351988  MISS: 660075  HIT %: 34.7793  MISS %: 65.2207  AVERAGE MISS PENALTY: 378.623
LLC1 LOAD      ACCESS: 253306  HIT: 149967  MISS: 103339  HIT %: 59.2039  MISS %: 40.7961  AVERAGE MISS PENALTY: 377.243
LLC1 RFO       ACCESS: 30502  HIT:  2466  MISS: 28036  HIT %: 8.08472  MISS %: 91.9153  AVERAGE MISS PENALTY: 434.546
LLC1 PREFETCH  ACCESS: 637432  HIT: 109938  MISS: 527494  HIT %: 17.247  MISS %: 82.753  AVERAGE MISS PENALTY: 376.787
LLC1 WRITEBACK ACCESS: 90823  HIT: 89617  MISS:  1206  HIT %: 98.6721  MISS %: 1.32786  AVERAGE MISS PENALTY: 0

LLC2 TOTAL     ACCESS: 1022048  HIT: 354145  MISS: 667903  HIT %: 34.6505  MISS %: 65.3495  AVERAGE MISS PENALTY: 384.304
LLC2 LOAD      ACCESS: 250695  HIT: 150191  MISS: 100504  HIT %: 59.9099  MISS %: 40.0901  AVERAGE MISS PENALTY: 381.116
LLC2 RFO       ACCESS: 30504  HIT:  2424  MISS: 28080  HIT %: 7.9465  MISS %: 92.0535  AVERAGE MISS PENALTY: 438.575
LLC2 PREFETCH  ACCESS: 650006  HIT: 111813  MISS: 538193  HIT %: 17.2018  MISS %: 82.7982  AVERAGE MISS PENALTY: 382.872
LLC2 WRITEBACK ACCESS: 90843  HIT: 89717  MISS:  1126  HIT %: 98.7605  MISS %: 1.2395  AVERAGE MISS PENALTY: 0

LLC3 TOTAL     ACCESS: 1020501  HIT: 353285  MISS: 667216  HIT %: 34.6188  MISS %: 65.3812  AVERAGE MISS PENALTY: 379.328
LLC3 LOAD      ACCESS: 250565  HIT: 150542  MISS: 100023  HIT %: 60.081  MISS %: 39.919  AVERAGE MISS PENALTY: 383.68
LLC3 RFO       ACCESS: 30468  HIT:  2307  MISS: 28161  HIT %: 7.57188  MISS %: 92.4281  AVERAGE MISS PENALTY: 440.846
LLC3 PREFETCH  ACCESS: 648477  HIT: 110574  MISS: 537903  HIT %: 17.0513  MISS %: 82.9487  AVERAGE MISS PENALTY: 376.094
LLC3 WRITEBACK ACCESS: 90991  HIT: 89862  MISS:  1129  HIT %: 98.7592  MISS %: 1.24078  AVERAGE MISS PENALTY: 0

LLC4 TOTAL     ACCESS: 1023060  HIT: 356172  MISS: 666888  HIT %: 34.8144  MISS %: 65.1856  AVERAGE MISS PENALTY: 377.893
LLC4 LOAD      ACCESS: 252742  HIT: 153383  MISS: 99359  HIT %: 60.6876  MISS %: 39.3124  AVERAGE MISS PENALTY: 384.595
LLC4 RFO       ACCESS: 30490  HIT:  2299  MISS: 28191  HIT %: 7.54018  MISS %: 92.4598  AVERAGE MISS PENALTY: 442.645
LLC4 PREFETCH  ACCESS: 648941  HIT: 110651  MISS: 538290  HIT %: 17.051  MISS %: 82.949  AVERAGE MISS PENALTY: 374
LLC4 WRITEBACK ACCESS: 90887  HIT: 89839  MISS:  1048  HIT %: 98.8469  MISS %: 1.15308  AVERAGE MISS PENALTY: 0

LLC5 TOTAL     ACCESS: 1020635  HIT: 353985  MISS: 666650  HIT %: 34.6828  MISS %: 65.3172  AVERAGE MISS PENALTY: 368.537
LLC5 LOAD      ACCESS: 252118  HIT: 151441  MISS: 100677  HIT %: 60.0675  MISS %: 39.9325  AVERAGE MISS PENALTY: 371.778
LLC5 RFO       ACCESS: 30470  HIT:  2298  MISS: 28172  HIT %: 7.54184  MISS %: 92.4582  AVERAGE MISS PENALTY: 428.935
LLC5 PREFETCH  ACCESS: 647269  HIT: 110525  MISS: 536744  HIT %: 17.0756  MISS %: 82.9244  AVERAGE MISS PENALTY: 365.484
LLC5 WRITEBACK ACCESS: 90778  HIT: 89721  MISS:  1057  HIT %: 98.8356  MISS %: 1.16438  AVERAGE MISS PENALTY: 0

LLC6 TOTAL     ACCESS: 1021818  HIT: 355365  MISS: 666453  HIT %: 34.7777  MISS %: 65.2223  AVERAGE MISS PENALTY: 377.587
LLC6 LOAD      ACCESS: 255491  HIT: 154014  MISS: 101477  HIT %: 60.2816  MISS %: 39.7184  AVERAGE MISS PENALTY: 382.642
LLC6 RFO       ACCESS: 30455  HIT:  2334  MISS: 28121  HIT %: 7.66377  MISS %: 92.3362  AVERAGE MISS PENALTY: 446.452
LLC6 PREFETCH  ACCESS: 644703  HIT: 108907  MISS: 535796  HIT %: 16.8926  MISS %: 83.1074  AVERAGE MISS PENALTY: 373.761
LLC6 WRITEBACK ACCESS: 91169  HIT: 90110  MISS:  1059  HIT %: 98.8384  MISS %: 1.16158  AVERAGE MISS PENALTY: 0

LLC7 TOTAL     ACCESS: 1015188  HIT: 349523  MISS: 665665  HIT %: 34.4294  MISS %: 65.5706  AVERAGE MISS PENALTY: 371.051
LLC7 LOAD      ACCESS: 249872  HIT: 148675  MISS: 101197  HIT %: 59.5005  MISS %: 40.4995  AVERAGE MISS PENALTY: 374.404
LLC7 RFO       ACCESS: 30473  HIT:  2400  MISS: 28073  HIT %: 7.87582  MISS %: 92.1242  AVERAGE MISS PENALTY: 430.55
LLC7 PREFETCH  ACCESS: 643714  HIT: 108418  MISS: 535296  HIT %: 16.8426  MISS %: 83.1574  AVERAGE MISS PENALTY: 368.059
LLC7 WRITEBACK ACCESS: 91129  HIT: 90030  MISS:  1099  HIT %: 98.794  MISS %: 1.20598  AVERAGE MISS PENALTY: 0

Total Rob stall cycles : 	645783849
Total Load Rob Stall cycles : 	218778758
Average Rob Stall cycles : 	 9
Average Load Rob Stall cycles : 	 25

CPU 1 cumulative IPC: 0.249413 instructions: 200126227 cycles: 802389788
ITLB TOTAL     ACCESS: 29974253  HIT: 29974253  MISS:     0  HIT %:   100  MISS %:     0  AVERAGE MISS PENALTY: 0
ITLB LOAD      ACCESS: 29974253  HIT: 29974253  MISS:     0  HIT %:   100  MISS %:     0  AVERAGE MISS PENALTY: 0
ITLB RFO       ACCESS:     0  HIT:     0  MISS:     0  HIT %:     0  MISS %:     0  AVERAGE MISS PENALTY: 0
ITLB PREFETCH  ACCESS:     0  HIT:     0  MISS:     0  HIT %:     0  MISS %:     0  AVERAGE MISS PENALTY: 0
ITLB WRITEBACK ACCESS:     0  HIT:     0  MISS:     0  HIT %:     0  MISS %:     0  AVERAGE MISS PENALTY: 0

DTLB TOTAL     ACCESS: 39760003  HIT: 39455466  MISS: 304537  HIT %: 99.2341  MISS %: 0.765938  AVERAGE MISS PENALTY: 71.3341
DTLB LOAD      ACCESS: 32769539  HIT: 32476126  MISS: 293413  HIT %: 99.1046  MISS %: 0.895383  AVERAGE MISS PENALTY: 72.5235
DTLB RFO       ACCESS: 6990464  HIT: 6979340  MISS: 11124  HIT %: 99.8409  MISS %: 0.159131  AVERAGE MISS PENALTY: 39.9629
DTLB PREFETCH  ACCESS:     0  HIT:     0  MISS:     0  HIT %:     0  MISS %:     0  AVERAGE MISS PENALTY: 0
DTLB WRITEBACK ACCESS:     0  HIT:     0  MISS:     0  HIT %:     0  MISS %:     0  AVERAGE MISS PENALTY: 0

STLB TOTAL     ACCESS: 304537  HIT: 121178  MISS: 183359  HIT %: 39.7909  MISS %: 60.2091  AVERAGE MISS PENALTY: 100
STLB LOAD      ACCESS: 293413  HIT: 113393  MISS: 180020  HIT %: 38.6462  MISS %: 61.3538  AVERAGE MISS PENALTY: 100
STLB RFO       ACCESS: 11124  HIT:  7785  MISS:  3339  HIT %: 69.9838  MISS %: 30.0162  AVERAGE MISS PENALTY: 100
STLB PREFETCH  ACCESS:     0  HIT:     0  MISS:     0  HIT %:     0  MISS %:     0  AVERAGE MISS PENALTY: 0
STLB WRITEBACK ACCESS:     0  HIT:     0  MISS:     0  HIT %:     0  MISS %:     0  AVERAGE MISS PENALTY: 0

L1D TOTAL     ACCESS: 45824190  HIT: 38983286  MISS: 6840904  HIT %: 85.0714  MISS %: 14.9286  AVERAGE MISS PENALTY: 1.11017e+07
L1D LOAD      ACCESS: 32286794  HIT: 29455341  MISS: 2831453  HIT %: 91.2303  MISS %: 8.76969  AVERAGE MISS PENALTY: 2.68205e+07
L1D RFO       ACCESS: 5220298  HIT: 4975106  MISS: 245192  HIT %: 95.3031  MISS %: 4.6969  AVERAGE MISS PENALTY: 16372.2
L1D PREFETCH  ACCESS: 8317098  HIT: 4552839  MISS: 3764259  HIT %: 54.7407  MISS %: 45.2593  AVERAGE MISS PENALTY: 203.62
L1D WRITEBACK ACCESS:     0  HIT:     0  MISS:     0  HIT %:     0  MISS %:     0  AVERAGE MISS PENALTY: 0

L1I TOTAL     ACCESS: 47199643  HIT: 47199643  MISS:     0  HIT %:   100  MISS %:     0  AVERAGE MISS PENALTY: 0
L1I LOAD      ACCESS: 47199643  HIT: 47199643  MISS:     0  HIT %:   100  MISS %:     0  AVERAGE MISS PENALTY: 0
L1I RFO       ACCESS:     0  HIT:     0  MISS:     0  HIT %:     0  MISS %:     0  AVERAGE MISS PENALTY: 0
L1I PREFETCH  ACCESS:     0  HIT:     0  MISS:     0  HIT %:     0  MISS %:     0  AVERAGE MISS PENALTY: 0
L1I WRITEBACK ACCESS:     0  HIT:     0  MISS:     0  HIT %:     0  MISS %:     0  AVERAGE MISS PENALTY: 0

L2C TOTAL     ACCESS: 11842576  HIT: 4338534  MISS: 7504042  HIT %: 36.6351  MISS %: 63.3649  AVERAGE MISS PENALTY: 1.16464e+07
L2C LOAD      ACCESS: 2821047  HIT: 656020  MISS: 2165027  HIT %: 23.2545  MISS %: 76.7455  AVERAGE MISS PENALTY: 4.03655e+07
L2C RFO       ACCESS: 245185  HIT:  6774  MISS: 238411  HIT %: 2.76281  MISS %: 97.2372  AVERAGE MISS PENALTY: 4200.84
L2C PREFETCH  ACCESS: 8047113  HIT: 3058387  MISS: 4988726  HIT %: 38.006  MISS %: 61.994  AVERAGE MISS PENALTY: 344.976
L2C WRITEBACK ACCESS: 729231  HIT: 617353  MISS: 111878  HIT %: 84.6581  MISS %: 15.3419  AVERAGE MISS PENALTY: 0


LLC0 TOTAL     ACCESS: 998556  HIT: 349591  MISS: 648965  HIT %: 35.0097  MISS %: 64.9903  AVERAGE MISS PENALTY: 380.925
LLC0 LOAD      ACCESS: 289172  HIT: 153500  MISS: 135672  HIT %: 53.0826  MISS %: 46.9174  AVERAGE MISS PENALTY: 350.77
LLC0 RFO       ACCESS: 29812  HIT:  2306  MISS: 27506  HIT %: 7.73514  MISS %: 92.2649  AVERAGE MISS PENALTY: 431.609
LLC0 PREFETCH  ACCESS: 589253  HIT: 105239  MISS: 484014  HIT %: 17.8597  MISS %: 82.1403  AVERAGE MISS PENALTY: 387.893
LLC0 WRITEBACK ACCESS: 90319  HIT: 88546  MISS:  1773  HIT %: 98.037  MISS %: 1.96304  AVERAGE MISS PENALTY: 0

LLC1 TOTAL     ACCESS: 1009092  HIT: 349156  MISS: 659936  HIT %: 34.601  MISS %: 65.399  AVERAGE MISS PENALTY: 378.784
LLC1 LOAD      ACCESS: 252427  HIT: 149251  MISS: 103176  HIT %: 59.1264  MISS %: 40.8736  AVERAGE MISS PENALTY: 378.044
LLC1 RFO       ACCESS: 29814  HIT:  2138  MISS: 27676  HIT %: 7.17113  MISS %: 92.8289  AVERAGE MISS PENALTY: 431.692
LLC1 PREFETCH  ACCESS: 636672  HIT: 109205  MISS: 527467  HIT %: 17.1525  MISS %: 82.8475  AVERAGE MISS PENALTY: 377.314
LLC1 WRITEBACK ACCESS: 90179  HIT: 88562  MISS:  1617  HIT %: 98.2069  MISS %: 1.7931  AVERAGE MISS PENALTY: 0

LLC2 TOTAL     ACCESS: 1019245  HIT: 351528  MISS: 667717  HIT %: 34.4891  MISS %: 65.5109  AVERAGE MISS PENALTY: 384.148
LLC2 LOAD      ACCESS: 249974  HIT: 149658  MISS: 100316  HIT %: 59.8694  MISS %: 40.1306  AVERAGE MISS PENALTY: 380.883
LLC2 RFO       ACCESS: 29812  HIT:  2003  MISS: 27809  HIT %: 6.71877  MISS %: 93.2812  AVERAGE MISS PENALTY: 430.057
LLC2 PREFETCH  ACCESS: 649240  HIT: 111256  MISS: 537984  HIT %: 17.1363  MISS %: 82.8637  AVERAGE MISS PENALTY: 383.532
LLC2 WRITEBACK ACCESS: 90219  HIT: 88611  MISS:  1608  HIT %: 98.2177  MISS %: 1.78233  AVERAGE MISS PENALTY: 0

LLC3 TOTAL     ACCESS: 1018005  HIT: 350663  MISS: 667342  HIT %: 34.4461  MISS %: 65.5539  AVERAGE MISS PENALTY: 379.142
LLC3 LOAD      ACCESS: 250065  HIT: 150380  MISS: 99685  HIT %: 60.1364  MISS %: 39.8636  AVERAGE MISS PENALTY: 383.721
LLC3 RFO       ACCESS: 29800  HIT:  1962  MISS: 27838  HIT %: 6.58389  MISS %: 93.4161  AVERAGE MISS PENALTY: 437.32
LLC3 PREFETCH  ACCESS: 647800  HIT: 109542  MISS: 538258  HIT %: 16.9098  MISS %: 83.0902  AVERAGE MISS PENALTY: 376.385
[...]
 TIMELY PREFETCHES:      81612 LATE PREFETCHES: 0 DROPPED PREFETCHES: 0
LLC1 AVERAGE MISS LATENCY: 381.218 cycles
LLC2 TOTAL     ACCESS: 996229  HIT: 327234  MISS: 668995  HIT %: 32.8473  MISS %: 67.1527  AVERAGE MISS PENALTY: 386.444
LLC2 LOAD      ACCESS: 238463  HIT: 137475  MISS: 100988  HIT %: 57.6505  MISS %: 42.3495  AVERAGE MISS PENALTY: 381.343
LLC2 RFO       ACCESS: 30366  HIT:  2326  MISS: 28040  HIT %: 7.65988  MISS %: 92.3401  AVERAGE MISS PENALTY: 436.213
LLC2 PREFETCH  ACCESS: 636758  HIT: 98719  MISS: 538039  HIT %: 15.5034  MISS %: 84.4966  AVERAGE MISS PENALTY: 386.193
LLC2 WRITEBACK ACCESS: 90642  HIT: 88714  MISS:  1928  HIT %: 97.873  MISS %: 2.12705  AVERAGE MISS PENALTY: 0
LLC2 PREFETCH  REQUESTED:     0  ISSUED:     0  USEFUL: 80673  USELESS: 4228630
 USEFUL LOAD PREFETCHES:      80673 PREFETCH ISSUED TO LOWER LEVEL:   26076787  ACCURACY: 0.309367
 TIMELY PREFETCHES:      80673 LATE PREFETCHES: 0 DROPPED PREFETCHES: 0
LLC2 AVERAGE MISS LATENCY: 386.444 cycles
LLC3 TOTAL     ACCESS: 995400  HIT: 327070  MISS: 668330  HIT %: 32.8581  MISS %: 67.1419  AVERAGE MISS PENALTY: 381.963
LLC3 LOAD      ACCESS: 238730  HIT: 138252  MISS: 100478  HIT %: 57.9114  MISS %: 42.0886  AVERAGE MISS PENALTY: 383.328
LLC3 RFO       ACCESS: 30367  HIT:  2308  MISS: 28059  HIT %: 7.60036  MISS %: 92.3996  AVERAGE MISS PENALTY: 438.718
LLC3 PREFETCH  ACCESS: 635535  HIT: 97651  MISS: 537884  HIT %: 15.3652  MISS %: 84.6348  AVERAGE MISS PENALTY: 380.103
LLC3 WRITEBACK ACCESS: 90768  HIT: 88859  MISS:  1909  HIT %: 97.8968  MISS %: 2.10316  AVERAGE MISS PENALTY: 0
LLC3 PREFETCH  REQUESTED:     0  ISSUED:     0  USEFUL: 80690  USELESS: 4228022
 USEFUL LOAD PREFETCHES:      80690 PREFETCH ISSUED TO LOWER LEVEL:   16115963  ACCURACY: 0.500684
 TIMELY PREFETCHES:      80690 LATE PREFETCHES: 0 DROPPED PREFETCHES: 0
LLC3 AVERAGE MISS LATENCY: 381.963 cycles
LLC4 TOTAL     ACCESS: 996002  HIT: 328100  MISS: 667902  HIT %: 32.9417  MISS %: 67.0583  AVERAGE MISS PENALTY: 380.164
LLC4 LOAD      ACCESS: 239604  HIT: 139759  MISS: 99845  HIT %: 58.3292  MISS %: 41.6708  AVERAGE MISS PENALTY: 383.363
LLC4 RFO       ACCESS: 30356  HIT:  2289  MISS: 28067  HIT %: 7.54052  MISS %: 92.4595  AVERAGE MISS PENALTY: 440.463
LLC4 PREFETCH  ACCESS: 635381  HIT: 97291  MISS: 538090  HIT %: 15.3122  MISS %: 84.6878  AVERAGE MISS PENALTY: 377.768
LLC4 WRITEBACK ACCESS: 90661  HIT: 88761  MISS:  1900  HIT %: 97.9043  MISS %: 2.09572  AVERAGE MISS PENALTY: 0
LLC4 PREFETCH  REQUESTED:     0  ISSUED:     0  USEFUL: 80060  USELESS: 4231810
 USEFUL LOAD PREFETCHES:      80060 PREFETCH ISSUED TO LOWER LEVEL:   30943792  ACCURACY: 0.258727
 TIMELY PREFETCHES:      80060 LATE PREFETCHES: 0 DROPPED PREFETCHES: 0
LLC4 AVERAGE MISS LATENCY: 380.164 cycles
LLC5 TOTAL     ACCESS: 993301  HIT: 325844  MISS: 667457  HIT %: 32.8042  MISS %: 67.1958  AVERAGE MISS PENALTY: 372.214
LLC5 LOAD      ACCESS: 238845  HIT: 137727  MISS: 101118  HIT %: 57.6638  MISS %: 42.3362  AVERAGE MISS PENALTY: 374.966
LLC5 RFO       ACCESS: 30358  HIT:  2282  MISS: 28076  HIT %: 7.51696  MISS %: 92.483  AVERAGE MISS PENALTY: 427.402
LLC5 PREFETCH  ACCESS: 633547  HIT: 97109  MISS: 536438  HIT %: 15.3278  MISS %: 84.6722  AVERAGE MISS PENALTY: 370.073
LLC5 WRITEBACK ACCESS: 90551  HIT: 88726  MISS:  1825  HIT %: 97.9846  MISS %: 2.01544  AVERAGE MISS PENALTY: 0
LLC5 PREFETCH  REQUESTED:     0  ISSUED:     0  USEFUL: 81372  USELESS: 4218644
 USEFUL LOAD PREFETCHES:      81372 PREFETCH ISSUED TO LOWER LEVEL:   18523185  ACCURACY: 0.439298
 TIMELY PREFETCHES:      81372 LATE PREFETCHES: 0 DROPPED PREFETCHES: 0
LLC5 AVERAGE MISS LATENCY: 372.214 cycles
LLC6 TOTAL     ACCESS: 994500  HIT: 327076  MISS: 667424  HIT %: 32.8885  MISS %: 67.1115  AVERAGE MISS PENALTY: 380.623
LLC6 LOAD      ACCESS: 241995  HIT: 140327  MISS: 101668  HIT %: 57.9876  MISS %: 42.0124  AVERAGE MISS PENALTY: 384.015
LLC6 RFO       ACCESS: 30346  HIT:  2354  MISS: 27992  HIT %: 7.7572  MISS %: 92.2428  AVERAGE MISS PENALTY: 443.639
LLC6 PREFETCH  ACCESS: 631231  HIT: 95289  MISS: 535942  HIT %: 15.0957  MISS %: 84.9043  AVERAGE MISS PENALTY: 377.983
LLC6 WRITEBACK ACCESS: 90928  HIT: 89106  MISS:  1822  HIT %: 97.9962  MISS %: 2.00378  AVERAGE MISS PENALTY: 0
LLC6 PREFETCH  REQUESTED:     0  ISSUED:     0  USEFUL: 81968  USELESS: 4211419
 USEFUL LOAD PREFETCHES:      81968 PREFETCH ISSUED TO LOWER LEVEL:   38373553  ACCURACY: 0.213605
 TIMELY PREFETCHES:      81968 LATE PREFETCHES: 0 DROPPED PREFETCHES: 0
LLC6 AVERAGE MISS LATENCY: 380.623 cycles
LLC7 TOTAL     ACCESS: 988494  HIT: 322252  MISS: 666242  HIT %: 32.6003  MISS %: 67.3997  AVERAGE MISS PENALTY: 372.862
LLC7 LOAD      ACCESS: 236833  HIT: 135445  MISS: 101388  HIT %: 57.1901  MISS %: 42.8099  AVERAGE MISS PENALTY: 372.774
LLC7 RFO       ACCESS: 30365  HIT:  2445  MISS: 27920  HIT %: 8.05203  MISS %: 91.948  AVERAGE MISS PENALTY: 434.813
LLC7 PREFETCH  ACCESS: 630413  HIT: 95387  MISS: 535026  HIT %: 15.1309  MISS %: 84.8691  AVERAGE MISS PENALTY: 370.975
LLC7 WRITEBACK ACCESS: 90883  HIT: 88975  MISS:  1908  HIT %: 97.9006  MISS %: 2.0994  AVERAGE MISS PENALTY: 0
LLC7 PREFETCH  REQUESTED:     0  ISSUED:     0  USEFUL: 82812  USELESS: 4204267
 USEFUL LOAD PREFETCHES:      82812 PREFETCH ISSUED TO LOWER LEVEL:   22097459  ACCURACY: 0.374758
 TIMELY PREFETCHES:      82812 LATE PREFETCHES: 0 DROPPED PREFETCHES: 0
LLC7 AVERAGE MISS LATENCY: 372.862 cycles
ROI Average ROB Stall Cycles:	9.09574
ROI Total ROB Stalls Cycles:	645284446
ROI TOTAL ROB counter      :	70943569
ROI Average Load ROB Stall Cycles:	26.1781
ROI Total Load ROB Stalls Cycle  :	220223520
ROI Total Load ROB stalls Counter:	8412510
Major fault: 0 Minor fault: 27397

CPU 7 cumulative IPC: 0.250636 instructions: 200000000 cycles: 797969551
ITLB TOTAL     ACCESS: 29953213  HIT: 29953213  MISS:     0  HIT %:   100  MISS %:     0  AVERAGE MISS PENALTY: 0
ITLB LOAD      ACCESS: 29953213  HIT: 29953213  MISS:     0  HIT %:   100  MISS %:     0  AVERAGE MISS PENALTY: 0
ITLB RFO       ACCESS:     0  HIT:     0  MISS:     0  HIT %:     0  MISS %:     0  AVERAGE MISS PENALTY: 0
ITLB PREFETCH  ACCESS:     0  HIT:     0  MISS:     0  HIT %:     0  MISS %:     0  AVERAGE MISS PENALTY: 0
ITLB WRITEBACK ACCESS:     0  HIT:     0  MISS:     0  HIT %:     0  MISS %:     0  AVERAGE MISS PENALTY: 0
ITLB PREFETCH  REQUESTED:     0  ISSUED:     0  USEFUL:     0  USELESS:     0
 USEFUL LOAD PREFETCHES:          0 PREFETCH ISSUED TO LOWER LEVEL:          0  ACCURACY: -nan
 TIMELY PREFETCHES:          0 LATE PREFETCHES: 0 DROPPED PREFETCHES: 0
ITLB AVERAGE MISS LATENCY: -nan cycles
DTLB TOTAL     ACCESS: 39736391  HIT: 39431853  MISS: 304538  HIT %: 99.2336  MISS %: 0.766396  AVERAGE MISS PENALTY: 71.5968
DTLB LOAD      ACCESS: 32746420  HIT: 32453007  MISS: 293413  HIT %: 99.104  MISS %: 0.896016  AVERAGE MISS PENALTY: 72.798
DTLB RFO       ACCESS: 6989971  HIT: 6978846  MISS: 11125  HIT %: 99.8408  MISS %: 0.159157  AVERAGE MISS PENALTY: 39.9163
DTLB PREFETCH  ACCESS:     0  HIT:     0  MISS:     0  HIT %:     0  MISS %:     0  AVERAGE MISS PENALTY: 0
DTLB WRITEBACK ACCESS:     0  HIT:     0  MISS:     0  HIT %:     0  MISS %:     0  AVERAGE MISS PENALTY: 0
DTLB PREFETCH  REQUESTED:     0  ISSUED:     0  USEFUL:     0  USELESS:     0
 USEFUL LOAD PREFETCHES:          0 PREFETCH ISSUED TO LOWER LEVEL:          0  ACCURACY: -nan
 TIMELY PREFETCHES:          0 LATE PREFETCHES: 0 DROPPED PREFETCHES: 0
DTLB AVERAGE MISS LATENCY: 71.5968 cycles
STLB TOTAL     ACCESS: 304538  HIT: 121200  MISS: 183338  HIT %: 39.798  MISS %: 60.202  AVERAGE MISS PENALTY: 100
STLB LOAD      ACCESS: 293413  HIT: 113411  MISS: 180002  HIT %: 38.6523  MISS %: 61.3477  AVERAGE MISS PENALTY: 100
STLB RFO       ACCESS: 11125  HIT:  7789  MISS:  3336  HIT %: 70.0135  MISS %: 29.9865  AVERAGE MISS PENALTY: 100
STLB PREFETCH  ACCESS:     0  HIT:     0  MISS:     0  HIT %:     0  MISS %:     0  AVERAGE MISS PENALTY: 0
STLB WRITEBACK ACCESS:     0  HIT:     0  MISS:     0  HIT %:     0  MISS %:     0  AVERAGE MISS PENALTY: 0
STLB PREFETCH  REQUESTED:     0  ISSUED:     0  USEFUL:     0  USELESS:     0
 USEFUL LOAD PREFETCHES:          0 PREFETCH ISSUED TO LOWER LEVEL:          0  ACCURACY: -nan
 TIMELY PREFETCHES:          0 LATE PREFETCHES: 0 DROPPED PREFETCHES: 0
STLB AVERAGE MISS LATENCY: 100 cycles
L1D TOTAL     ACCESS: 45719065  HIT: 38898769  MISS: 6820296  HIT %: 85.0822  MISS %: 14.9178  AVERAGE MISS PENALTY: 1.10756e+07
L1D LOAD      ACCESS: 32276524  HIT: 29440687  MISS: 2835837  HIT %: 91.2139  MISS %: 8.78607  AVERAGE MISS PENALTY: 2.66356e+07
L1D RFO       ACCESS: 5177954  HIT: 4932758  MISS: 245196  HIT %: 95.2646  MISS %: 4.73538  AVERAGE MISS PENALTY: 15044.5
L1D PREFETCH  ACCESS: 8264587  HIT: 4525324  MISS: 3739263  HIT %: 54.7556  MISS %: 45.2444  AVERAGE MISS PENALTY: 203.216
L1D WRITEBACK ACCESS:     0  HIT:     0  MISS:     0  HIT %:     0  MISS %:     0  AVERAGE MISS PENALTY: 0
L1D PREFETCH  REQUESTED: 10174947  ISSUED: 10020393  USEFUL: 2182826  USELESS: 1556300
 USEFUL LOAD PREFETCHES:    2182826 PREFETCH ISSUED TO LOWER LEVEL:   15253270  ACCURACY: 14.3105
 TIMELY PREFETCHES:    2182826 LATE PREFETCHES: 179108 DROPPED PREFETCHES: 154554
L1D AVERAGE MISS LATENCY: 717.691 cycles
L1I TOTAL     ACCESS: 47164409  HIT: 47164409  MISS:     0  HIT %:   100  MISS %:     0  AVERAGE MISS PENALTY: 0
L1I LOAD      ACCESS: 47164409  HIT: 47164409  MISS:     0  HIT %:   100  MISS %:     0  AVERAGE MISS PENALTY: 0
L1I RFO       ACCESS:     0  HIT:     0  MISS:     0  HIT %:     0  MISS %:     0  AVERAGE MISS PENALTY: 0
L1I PREFETCH  ACCESS:     0  HIT:     0  MISS:     0  HIT %:     0  MISS %:     0  AVERAGE MISS PENALTY: 0
L1I WRITEBACK ACCESS:     0  HIT:     0  MISS:     0  HIT %:     0  MISS %:     0  AVERAGE MISS PENALTY: 0
L1I PREFETCH  REQUESTED:     0  ISSUED:     0  USEFUL:     0  USELESS:     0
 USEFUL LOAD PREFETCHES:          0 PREFETCH ISSUED TO LOWER LEVEL:          0  ACCURACY: -nan
 TIMELY PREFETCHES:          0 LATE PREFETCHES: 0 DROPPED PREFETCHES: 0
L1I AVERAGE MISS LATENCY: -nan cycles
L2C TOTAL     ACCESS: 11749032  HIT: 4781460  MISS: 6967572  HIT %: 40.6966  MISS %: 59.3034  AVERAGE MISS PENALTY: 1.26868e+07
L2C LOAD      ACCESS: 2825358  HIT: 1010516  MISS: 1814842  HIT %: 35.7659  MISS %: 64.2341  AVERAGE MISS PENALTY: 4.87065e+07
L2C RFO       ACCESS: 245190  HIT:  3646  MISS: 241544  HIT %: 1.48701  MISS %: 98.513  AVERAGE MISS PENALTY: 419.975
L2C PREFETCH  ACCESS: 7949166  HIT: 3123693  MISS: 4825473  HIT %: 39.2959  MISS %: 60.7041  AVERAGE MISS PENALTY: 356.545
L2C WRITEBACK ACCESS: 729318  HIT: 643605  MISS: 85713  HIT %: 88.2475  MISS %: 11.7525  AVERAGE MISS PENALTY: 0
L2C PREFETCH  REQUESTED: 7530379  ISSUED: 7511842  USEFUL: 296147  USELESS: 4528181
 USEFUL LOAD PREFETCHES:     296147 PREFETCH ISSUED TO LOWER LEVEL:    6185370  ACCURACY: 4.78786
 TIMELY PREFETCHES:     296147 LATE PREFETCHES: 218148 DROPPED PREFETCHES: 18537
L2C AVERAGE MISS LATENCY: 319.36 cycles
LLC0 TOTAL     ACCESS: 937517  HIT: 284716  MISS: 652801  HIT %: 30.3692  MISS %: 69.6308  AVERAGE MISS PENALTY: 378.871
LLC0 LOAD      ACCESS: 245006  HIT: 108216  MISS: 136790  HIT %: 44.1687  MISS %: 55.8313  AVERAGE MISS PENALTY: 348.37
LLC0 RFO       ACCESS: 30192  HIT:  2453  MISS: 27739  HIT %: 8.12467  MISS %: 91.8753  AVERAGE MISS PENALTY: 415.047
LLC0 PREFETCH  ACCESS: 571677  HIT: 87550  MISS: 484127  HIT %: 15.3146  MISS %: 84.6854  AVERAGE MISS PENALTY: 388.659
LLC0 WRITEBACK ACCESS: 90642  HIT: 86497  MISS:  4145  HIT %: 95.4271  MISS %: 4.57294  AVERAGE MISS PENALTY: 0
LLC0 PREFETCH  REQUESTED:     0  ISSUED:     0  USEFUL: 79116  USELESS: 3799207
 USEFUL LOAD PREFETCHES:      79116 PREFETCH ISSUED TO LOWER LEVEL:   22106073  ACCURACY: 0.357893
 TIMELY PREFETCHES:      79116 LATE PREFETCHES: 0 DROPPED PREFETCHES: 0
LLC0 AVERAGE MISS LATENCY: 378.871 cycles
Deadblocks : 1052072 Deadblock percentage : 769.115

LLC1 TOTAL     ACCESS: 946977  HIT: 284071  MISS: 662906  HIT %: 29.9977  MISS %: 70.0023  AVERAGE MISS PENALTY: 377.988
LLC1 LOAD      ACCESS: 209313  HIT: 105074  MISS: 104239  HIT %: 50.1995  MISS %: 49.8005  AVERAGE MISS PENALTY: 372.013
LLC1 RFO       ACCESS: 30184  HIT:  2326  MISS: 27858  HIT %: 7.70607  MISS %: 92.2939  AVERAGE MISS PENALTY: 410.461
LLC1 PREFETCH  ACCESS: 617010  HIT: 90071  MISS: 526939  HIT %: 14.598  MISS %: 85.402  AVERAGE MISS PENALTY: 380.229
LLC1 WRITEBACK ACCESS: 90470  HIT: 86600  MISS:  3870  HIT %: 95.7223  MISS %: 4.27766  AVERAGE MISS PENALTY: 0
LLC1 PREFETCH  REQUESTED:     0  ISSUED:     0  USEFUL: 81612  USELESS: 4143505
 USEFUL LOAD PREFETCHES:      81612 PREFETCH ISSUED TO LOWER LEVEL:   14463966  ACCURACY: 0.564244
 TIMELY PREFETCHES:      81612 LATE PREFETCHES: 0 DROPPED PREFETCHES: 0
LLC1 AVERAGE MISS LATENCY: 377.988 cycles
LLC2 TOTAL     ACCESS: 956593  HIT: 285679  MISS: 670914  HIT %: 29.8642  MISS %: 70.1358  AVERAGE MISS PENALTY: 382.693
LLC2 LOAD      ACCESS: 207045  HIT: 105172  MISS: 101873  HIT %: 50.7967  MISS %: 49.2033  AVERAGE MISS PENALTY: 376.2
LLC2 RFO       ACCESS: 30189  HIT:  2234  MISS: 27955  HIT %: 7.40005  MISS %:  92.6  AVERAGE MISS PENALTY: 422.909
LLC2 PREFETCH  ACCESS: 628844  HIT: 91437  MISS: 537407  HIT %: 14.5405  MISS %: 85.4595  AVERAGE MISS PENALTY: 384.451
LLC2 WRITEBACK ACCESS: 90515  HIT: 86836  MISS:  3679  HIT %: 95.9355  MISS %: 4.06452  AVERAGE MISS PENALTY: 0
LLC2 PREFETCH  REQUESTED:     0  ISSUED:     0  USEFUL: 80673  USELESS: 4228630
 USEFUL LOAD PREFETCHES:      80673 PREFETCH ISSUED TO LOWER LEVEL:   26076787  ACCURACY: 0.309367
 TIMELY PREFETCHES:      80673 LATE PREFETCHES: 0 DROPPED PREFETCHES: 0
LLC2 AVERAGE MISS LATENCY: 382.693 cycles
LLC3 TOTAL     ACCESS: 955654  HIT: 285554  MISS: 670100  HIT %: 29.8805  MISS %: 70.1195  AVERAGE MISS PENALTY: 378.487
LLC3 LOAD      ACCESS: 207182  HIT: 106154  MISS: 101028  HIT %: 51.2371  MISS %: 48.7629  AVERAGE MISS PENALTY: 376.849
LLC3 RFO       ACCESS: 30218  HIT:  2181  MISS: 28037  HIT %: 7.21755  MISS %: 92.7824  AVERAGE MISS PENALTY: 418.611
LLC3 PREFETCH  ACCESS: 627564  HIT: 90072  MISS: 537492  HIT %: 14.3526  MISS %: 85.6474  AVERAGE MISS PENALTY: 379.196
LLC3 WRITEBACK ACCESS: 90690  HIT: 87147  MISS:  3543  HIT %: 96.0933  MISS %: 3.90672  AVERAGE MISS PENALTY: 0
LLC3 PREFETCH  REQUESTED:     0  ISSUED:     0  USEFUL: 80690  USELESS: 4228022
 USEFUL LOAD PREFETCHES:      80690 PREFETCH ISSUED TO LOWER LEVEL:   16115963  ACCURACY: 0.500684
 TIMELY PREFETCHES:      80690 LATE PREFETCHES: 0 DROPPED PREFETCHES: 0
LLC3 AVERAGE MISS LATENCY: 378.486 cycles
LLC4 TOTAL     ACCESS: 955387  HIT: 285817  MISS: 669570  HIT %: 29.9164  MISS %: 70.0836  AVERAGE MISS PENALTY: 377.082
LLC4 LOAD      ACCESS: 207193  HIT: 106877  MISS: 100316  HIT %: 51.5833  MISS %: 48.4167  AVERAGE MISS PENALTY: 378.068
LLC4 RFO       ACCESS: 30203  HIT:  2156  MISS: 28047  HIT %: 7.13836  MISS %: 92.8616  AVERAGE MISS PENALTY: 415.65
LLC4 PREFETCH  ACCESS: 627428  HIT: 89696  MISS: 537732  HIT %: 14.2958  MISS %: 85.7042  AVERAGE MISS PENALTY: 377.324
LLC4 WRITEBACK ACCESS: 90563  HIT: 87088  MISS:  3475  HIT %: 96.1629  MISS %: 3.83711  AVERAGE MISS PENALTY: 0
LLC4 PREFETCH  REQUESTED:     0  ISSUED:     0  USEFUL: 80060  USELESS: 4231810
 USEFUL LOAD PREFETCHES:      80060 PREFETCH ISSUED TO LOWER LEVEL:   30943792  ACCURACY: 0.258727
 TIMELY PREFETCHES:      80060 LATE PREFETCHES: 0 DROPPED PREFETCHES: 0
LLC4 AVERAGE MISS LATENCY: 377.082 cycles
LLC5 TOTAL     ACCESS: 952392  HIT: 282794  MISS: 669598  HIT %: 29.693  MISS %: 70.307  AVERAGE MISS PENALTY: 368.901
LLC5 LOAD      ACCESS: 206039  HIT: 104258  MISS: 101781  HIT %: 50.6011  MISS %: 49.3989  AVERAGE MISS PENALTY: 368.668
LLC5 RFO       ACCESS: 30190  HIT:  2223  MISS: 27967  HIT %: 7.36337  MISS %: 92.6366  AVERAGE MISS PENALTY: 408.963
LLC5 PREFETCH  ACCESS: 625706  HIT: 89235  MISS: 536471  HIT %: 14.2615  MISS %: 85.7385  AVERAGE MISS PENALTY: 369.18
LLC5 WRITEBACK ACCESS: 90457  HIT: 87078  MISS:  3379  HIT %: 96.2645  MISS %: 3.73548  AVERAGE MISS PENALTY: 0
LLC5 PREFETCH  REQUESTED:     0  ISSUED:     0  USEFUL: 81372  USELESS: 4218644
 USEFUL LOAD PREFETCHES:      81372 PREFETCH ISSUED TO LOWER LEVEL:   18523185  ACCURACY: 0.439298
 TIMELY PREFETCHES:      81372 LATE PREFETCHES: 0 DROPPED PREFETCHES: 0
LLC5 AVERAGE MISS LATENCY: 368.901 cycles
LLC6 TOTAL     ACCESS: 953788  HIT: 284531  MISS: 669257  HIT %: 29.8317  MISS %: 70.1683  AVERAGE MISS PENALTY: 377.279
LLC6 LOAD      ACCESS: 209379  HIT: 106951  MISS: 102428  HIT %: 51.0801  MISS %: 48.9199  AVERAGE MISS PENALTY: 376.807
LLC6 RFO       ACCESS: 30186  HIT:  2299  MISS: 27887  HIT %: 7.61611  MISS %: 92.3839  AVERAGE MISS PENALTY: 422.518
LLC6 PREFETCH  ACCESS: 623375  HIT: 87653  MISS: 535722  HIT %: 14.061  MISS %: 85.939  AVERAGE MISS PENALTY: 377.282
LLC6 WRITEBACK ACCESS: 90848  HIT: 87628  MISS:  3220  HIT %: 96.4556  MISS %: 3.54438  AVERAGE MISS PENALTY: 0
LLC6 PREFETCH  REQUESTED:     0  ISSUED:     0  USEFUL: 81968  USELESS: 4211419
 USEFUL LOAD PREFETCHES:      81968 PREFETCH ISSUED TO LOWER LEVEL:   38373553  ACCURACY: 0.213605
 TIMELY PREFETCHES:      81968 LATE PREFETCHES: 0 DROPPED PREFETCHES: 0
LLC6 AVERAGE MISS LATENCY: 377.279 cycles
LLC7 TOTAL     ACCESS: 948488  HIT: 280678  MISS: 667810  HIT %: 29.5922  MISS %: 70.4078  AVERAGE MISS PENALTY: 370.24
LLC7 LOAD      ACCESS: 204875  HIT: 102866  MISS: 102009  HIT %: 50.2092  MISS %: 49.7908  AVERAGE MISS PENALTY: 368.59
LLC7 RFO       ACCESS: 30182  HIT:  2357  MISS: 27825  HIT %: 7.80929  MISS %: 92.1907  AVERAGE MISS PENALTY: 413.523
LLC7 PREFETCH  ACCESS: 622648  HIT: 88011  MISS: 534637  HIT %: 14.135  MISS %: 85.865  AVERAGE MISS PENALTY: 370.615
LLC7 WRITEBACK ACCESS: 90783  HIT: 87444  MISS:  3339  HIT %: 96.322  MISS %: 3.678  AVERAGE MISS PENALTY: 0
LLC7 PREFETCH  REQUESTED:     0  ISSUED:     0  USEFUL: 82812  USELESS: 4204267
 USEFUL LOAD PREFETCHES:      82812 PREFETCH ISSUED TO LOWER LEVEL:   22097459  ACCURACY: 0.374758
 TIMELY PREFETCHES:      82812 LATE PREFETCHES: 0 DROPPED PREFETCHES: 0
LLC7 AVERAGE MISS LATENCY: 370.24 cycles
ROI Average ROB Stall Cycles:	9.04323
ROI Total ROB Stalls Cycles:	641794597
ROI TOTAL ROB counter      :	70969588
ROI Average Load ROB Stall Cycles:	26.1888
ROI Total Load ROB Stalls Cycle  :	220602925
ROI Total Load ROB stalls Counter:	8423563
Major fault: 0 Minor fault: 27397








Interconnect Stats 
LINK 0 BW : 0LINK 1 BW : 0LINK 2 BW : 0LINK 3 BW : 0LINK 4 BW : 0LINK 5 BW : 0LINK 6 BW : 0LINK 7 BW : 0
DRAM Statistics
 CHANNEL 0
 RQ ROW_BUFFER_HIT: 4817111  ROW_BUFFER_MISS: 16357653
 DBUS_CONGESTED: 13897658
 WQ ROW_BUFFER_HIT: 209535  ROW_BUFFER_MISS: 2459224  FULL:     0

 CHANNEL 1
 RQ ROW_BUFFER_HIT: 4793877  ROW_BUFFER_MISS: 16451708
 DBUS_CONGESTED: 13897658
 WQ ROW_BUFFER_HIT: 208772  ROW_BUFFER_MISS: 2459116  FULL:     0

 AVG_CONGESTED_CYCLE: 5
DRAM PAGES: 2097152
Allocated PAGES: 219176
L2C destructor called
L1D destructor called
L1I destructor called
STLB destructor called
DTLB destructor called
ITLB destructor called
L2C destructor called
L1D destructor called
L1I destructor called
STLB destructor called
DTLB destructor called
ITLB destructor called
L2C destructor called
L1D destructor called
L1I destructor called
STLB destructor called
DTLB destructor called
ITLB destructor called
L2C destructor called
L1D destructor called
L1I destructor called
STLB destructor called
DTLB destructor called
ITLB destructor called
L2C destructor called
L1D destructor called
L1I destructor called
STLB destructor called
DTLB destructor called
ITLB destructor called
L2C destructor called
L1D destructor called
L1I destructor called
STLB destructor called
DTLB destructor called
ITLB destructor called
L2C destructor called
L1D destructor called
L1I destructor called
STLB destructor called
DTLB destructor called
ITLB destructor called
L2C destructor called
L1D destructor called
L1I destructor called
STLB destructor called
DTLB destructor called
ITLB destructor called
