
*** ChampSim Multicore Out-of-Order Simulator ***

Warmup Instructions: 200000000
Simulation Instructions: 200000000
Number of CPUs: 8
threads:1

L1I Configuration:
L1I_SET:64
L1I_WAY:8
L1I_RQ_SIZE:64
L1I_WQ_SIZE:64
L1I_PQ_SIZE:8
L1I_MSHR_SIZE:8

L1D Configuration:
L1D_SET:64
L1D_WAY:12
L1D_RQ_SIZE:64
L1D_WQ_SIZE:64
L1D_PQ_SIZE:8
L1D_MSHR_SIZE:16

L2C Configuration:
L2C_SET:1024
L2C_WAY:8
L2C_RQ_SIZE:32
L2C_WQ_SIZE:32
L2C_PQ_SIZE:16
L2C_MSHR_SIZE:32

LLC Configuration:
LLC_SET:2048
LLC_WAY:16
LLC SLICES:8
LLC_RQ_SIZE:64
LLC_WQ_SIZE:64
LLC_PQ_SIZE:32
LLC_MSHR_SIZE:64

Interconnect OFF
Attacker deprioritize is: OFF
Off-chip DRAM Size: 8192 MB Channels: 2 Width: 64-bit Data Rate: 3200 MT/s
PAGE SIZE in KB: 4.000000 
PAGE SIZE in MB: 0.003906 
PAGE offset in bits: 12 
CEASER-S_LLC:0
MIRAGE : 0
CEASER_LATENCY:3
REMAP : OFF
Partitions : 1
Multi-Step : OFF
BFS : OFF

CPU 0 runs /home/anubhav/gap/cc-5.trace.gz
CPU 1 runs /home/anubhav/gap/cc-5.trace.gz
CPU 2 runs /home/anubhav/gap/cc-5.trace.gz
CPU 3 runs /home/anubhav/gap/cc-5.trace.gz
CPU 4 runs /home/anubhav/gap/cc-5.trace.gz
CPU 5 runs /home/anubhav/gap/cc-5.trace.gz
CPU 6 runs /home/anubhav/gap/cc-5.trace.gz
CPU 7 runs /home/anubhav/gap/cc-5.trace.gz
CPU 0 Bimodal branch predictor
Initialize Hawkeye state
Initialize Hawkeye state
Initialize Hawkeye state
Initialize Hawkeye state
Initialize Hawkeye state
Initialize Hawkeye state
Initialize Hawkeye state
Initialize Hawkeye state
CPU 1 Bimodal branch predictor
Initialize Hawkeye state
Initialize Hawkeye state
Initialize Hawkeye state
Initialize Hawkeye state
Initialize Hawkeye state
Initialize Hawkeye state
Initialize Hawkeye state
Initialize Hawkeye state
CPU 2 Bimodal branch predictor
Initialize Hawkeye state
Initialize Hawkeye state
Initialize Hawkeye state
Initialize Hawkeye state
Initialize Hawkeye state
Initialize Hawkeye state
Initialize Hawkeye state
Initialize Hawkeye state
CPU 3 Bimodal branch predictor
Initialize Hawkeye state
Initialize Hawkeye state
Initialize Hawkeye state
Initialize Hawkeye state
Initialize Hawkeye state
Initialize Hawkeye state
Initialize Hawkeye state
Initialize Hawkeye state
CPU 4 Bimodal branch predictor
Initialize Hawkeye state
Initialize Hawkeye state
Initialize Hawkeye state
Initialize Hawkeye state
Initialize Hawkeye state
Initialize Hawkeye state
Initialize Hawkeye state
Initialize Hawkeye state
CPU 5 Bimodal branch predictor
Initialize Hawkeye state
Initialize Hawkeye state
Initialize Hawkeye state
Initialize Hawkeye state
Initialize Hawkeye state
Initialize Hawkeye state
Initialize Hawkeye state
Initialize Hawkeye state
CPU 6 Bimodal branch predictor
Initialize Hawkeye state
Initialize Hawkeye state
Initialize Hawkeye state
Initialize Hawkeye state
Initialize Hawkeye state
Initialize Hawkeye state
Initialize Hawkeye state
Initialize Hawkeye state
CPU 7 Bimodal branch predictor
Initialize Hawkeye state
Initialize Hawkeye state
Initialize Hawkeye state
Initialize Hawkeye state
Initialize Hawkeye state
Initialize Hawkeye state
Initialize Hawkeye state
Initialize Hawkeye state
Heartbeat CPU 0 instructions: 10000000 cycles: 10448077 heartbeat IPC: 0.957114 cumulative IPC: 0.957114 (Simulation time: 0 hr 12 min 7 sec) 
 Total Blocks : 262144 Invalid Blocks : 226
Heartbeat CPU 1 instructions: 10000000 cycles: 10448647 heartbeat IPC: 0.957062 cumulative IPC: 0.957062 (Simulation time: 0 hr 12 min 7 sec) 
 Total Blocks : 262144 Invalid Blocks : 226
Heartbeat CPU 2 instructions: 10000000 cycles: 10448808 heartbeat IPC: 0.957047 cumulative IPC: 0.957047 (Simulation time: 0 hr 12 min 7 sec) 
 Total Blocks : 262144 Invalid Blocks : 226
Heartbeat CPU 4 instructions: 10000000 cycles: 10448818 heartbeat IPC: 0.957046 cumulative IPC: 0.957046 (Simulation time: 0 hr 12 min 7 sec) 
 Total Blocks : 262144 Invalid Blocks : 226
Heartbeat CPU 3 instructions: 10000000 cycles: 10448871 heartbeat IPC: 0.957041 cumulative IPC: 0.957041 (Simulation time: 0 hr 12 min 7 sec) 
 Total Blocks : 262144 Invalid Blocks : 226
Heartbeat CPU 5 instructions: 10000000 cycles: 10449907 heartbeat IPC: 0.956946 cumulative IPC: 0.956946 (Simulation time: 0 hr 12 min 7 sec) 
 Total Blocks : 262144 Invalid Blocks : 226
Heartbeat CPU 6 instructions: 10000000 cycles: 10450437 heartbeat IPC: 0.956898 cumulative IPC: 0.956898 (Simulation time: 0 hr 12 min 7 sec) 
 Total Blocks : 262144 Invalid Blocks : 226
Heartbeat CPU 7 instructions: 10000000 cycles: 10450471 heartbeat IPC: 0.956895 cumulative IPC: 0.956895 (Simulation time: 0 hr 12 min 7 sec) 
 Total Blocks : 262144 Invalid Blocks : 226
Heartbeat CPU 0 instructions: 20000000 cycles: 19689556 heartbeat IPC: 1.08208 cumulative IPC: 1.01577 (Simulation time: 0 hr 23 min 42 sec) 
 Total Blocks : 262144 Invalid Blocks : 10
Heartbeat CPU 1 instructions: 20000000 cycles: 19690909 heartbeat IPC: 1.08199 cumulative IPC: 1.0157 (Simulation time: 0 hr 23 min 42 sec) 
 Total Blocks : 262144 Invalid Blocks : 10
Heartbeat CPU 2 instructions: 20000000 cycles: 19691223 heartbeat IPC: 1.08197 cumulative IPC: 1.01568 (Simulation time: 0 hr 23 min 42 sec) 
 Total Blocks : 262144 Invalid Blocks : 10
Heartbeat CPU 4 instructions: 20000000 cycles: 19691235 heartbeat IPC: 1.08197 cumulative IPC: 1.01568 (Simulation time: 0 hr 23 min 42 sec) 
 Total Blocks : 262144 Invalid Blocks : 10
Heartbeat CPU 3 instructions: 20000000 cycles: 19691400 heartbeat IPC: 1.08195 cumulative IPC: 1.01567 (Simulation time: 0 hr 23 min 42 sec) 
 Total Blocks : 262144 Invalid Blocks : 10
Heartbeat CPU 5 instructions: 20000000 cycles: 19693225 heartbeat IPC: 1.08186 cumulative IPC: 1.01558 (Simulation time: 0 hr 23 min 42 sec) 
 Total Blocks : 262144 Invalid Blocks : 10
Heartbeat CPU 6 instructions: 20000000 cycles: 19693973 heartbeat IPC: 1.08184 cumulative IPC: 1.01554 (Simulation time: 0 hr 23 min 42 sec) 
 Total Blocks : 262144 Invalid Blocks : 10
Heartbeat CPU 7 instructions: 20000000 cycles: 19694037 heartbeat IPC: 1.08183 cumulative IPC: 1.01554 (Simulation time: 0 hr 23 min 42 sec) 
 Total Blocks : 262144 Invalid Blocks : 10
Heartbeat CPU 0 instructions: 30000001 cycles: 28246058 heartbeat IPC: 1.1687 cumulative IPC: 1.0621 (Simulation time: 0 hr 36 min 2 sec) 
 Total Blocks : 262144 Invalid Blocks : 2
Heartbeat CPU 1 instructions: 30000001 cycles: 28247652 heartbeat IPC: 1.16867 cumulative IPC: 1.06204 (Simulation time: 0 hr 36 min 2 sec) 
 Total Blocks : 262144 Invalid Blocks : 2
Heartbeat CPU 2 instructions: 30000001 cycles: 28248187 heartbeat IPC: 1.16864 cumulative IPC: 1.06202 (Simulation time: 0 hr 36 min 2 sec) 
 Total Blocks : 262144 Invalid Blocks : 2
Heartbeat CPU 3 instructions: 30000001 cycles: 28248843 heartbeat IPC: 1.16857 cumulative IPC: 1.06199 (Simulation time: 0 hr 36 min 2 sec) 
 Total Blocks : 262144 Invalid Blocks : 2
Heartbeat CPU 4 instructions: 30000001 cycles: 28248883 heartbeat IPC: 1.16855 cumulative IPC: 1.06199 (Simulation time: 0 hr 36 min 2 sec) 
 Total Blocks : 262144 Invalid Blocks : 2
Heartbeat CPU 5 instructions: 30000001 cycles: 28251042 heartbeat IPC: 1.16852 cumulative IPC: 1.06191 (Simulation time: 0 hr 36 min 2 sec) 
 Total Blocks : 262144 Invalid Blocks : 2
Heartbeat CPU 6 instructions: 30000001 cycles: 28252148 heartbeat IPC: 1.16847 cumulative IPC: 1.06187 (Simulation time: 0 hr 36 min 2 sec) 
 Total Blocks : 262144 Invalid Blocks : 2
Heartbeat CPU 7 instructions: 30000001 cycles: 28252808 heartbeat IPC: 1.16839 cumulative IPC: 1.06184 (Simulation time: 0 hr 36 min 3 sec) 
 Total Blocks : 262144 Invalid Blocks : 2
Heartbeat CPU 0 instructions: 40000003 cycles: 36575222 heartbeat IPC: 1.2006 cumulative IPC: 1.09364 (Simulation time: 0 hr 49 min 6 sec) 
 Total Blocks : 262144 Invalid Blocks : 0
Heartbeat CPU 1 instructions: 40000003 cycles: 36578113 heartbeat IPC: 1.20041 cumulative IPC: 1.09355 (Simulation time: 0 hr 49 min 6 sec) 
 Total Blocks : 262144 Invalid Blocks : 0
Heartbeat CPU 2 instructions: 40000003 cycles: 36578550 heartbeat IPC: 1.20043 cumulative IPC: 1.09354 (Simulation time: 0 hr 49 min 6 sec) 
 Total Blocks : 262144 Invalid Blocks : 0
Heartbeat CPU 3 instructions: 40000003 cycles: 36579054 heartbeat IPC: 1.20045 cumulative IPC: 1.09352 (Simulation time: 0 hr 49 min 6 sec) 
 Total Blocks : 262144 Invalid Blocks : 0
Heartbeat CPU 4 instructions: 40000003 cycles: 36579615 heartbeat IPC: 1.20037 cumulative IPC: 1.09351 (Simulation time: 0 hr 49 min 6 sec) 
 Total Blocks : 262144 Invalid Blocks : 0
Heartbeat CPU 5 instructions: 40000003 cycles: 36582340 heartbeat IPC: 1.20029 cumulative IPC: 1.09342 (Simulation time: 0 hr 49 min 7 sec) 
 Total Blocks : 262144 Invalid Blocks : 0
Heartbeat CPU 6 instructions: 40000003 cycles: 36583803 heartbeat IPC: 1.20024 cumulative IPC: 1.09338 (Simulation time: 0 hr 49 min 7 sec) 
 Total Blocks : 262144 Invalid Blocks : 0
Heartbeat CPU 7 instructions: 40000003 cycles: 36584574 heartbeat IPC: 1.20023 cumulative IPC: 1.09336 (Simulation time: 0 hr 49 min 7 sec) 
 Total Blocks : 262144 Invalid Blocks : 0
Heartbeat CPU 0 instructions: 50000001 cycles: 44527953 heartbeat IPC: 1.25743 cumulative IPC: 1.12289 (Simulation time: 1 hr 5 min 45 sec) 
 Total Blocks : 262144 Invalid Blocks : 0
Heartbeat CPU 1 instructions: 50000001 cycles: 44534035 heartbeat IPC: 1.25693 cumulative IPC: 1.12274 (Simulation time: 1 hr 5 min 46 sec) 
 Total Blocks : 262144 Invalid Blocks : 0
Heartbeat CPU 2 instructions: 50000001 cycles: 44536850 heartbeat IPC: 1.25655 cumulative IPC: 1.12267 (Simulation time: 1 hr 5 min 46 sec) 
 Total Blocks : 262144 Invalid Blocks : 0
Heartbeat CPU 3 instructions: 50000001 cycles: 44539073 heartbeat IPC: 1.25628 cumulative IPC: 1.12261 (Simulation time: 1 hr 5 min 46 sec) 
 Total Blocks : 262144 Invalid Blocks : 0
Heartbeat CPU 4 instructions: 50000001 cycles: 44541527 heartbeat IPC: 1.25598 cumulative IPC: 1.12255 (Simulation time: 1 hr 5 min 47 sec) 
 Total Blocks : 262144 Invalid Blocks : 0
Heartbeat CPU 5 instructions: 50000001 cycles: 44545901 heartbeat IPC: 1.25572 cumulative IPC: 1.12244 (Simulation time: 1 hr 5 min 47 sec) 
 Total Blocks : 262144 Invalid Blocks : 0
Heartbeat CPU 6 instructions: 50000001 cycles: 44549004 heartbeat IPC: 1.25546 cumulative IPC: 1.12236 (Simulation time: 1 hr 5 min 47 sec) 
 Total Blocks : 262144 Invalid Blocks : 0
Heartbeat CPU 7 instructions: 50000001 cycles: 44550933 heartbeat IPC: 1.25528 cumulative IPC: 1.12231 (Simulation time: 1 hr 5 min 48 sec) 
 Total Blocks : 262144 Invalid Blocks : 0
Heartbeat CPU 0 instructions: 60000000 cycles: 52974575 heartbeat IPC: 1.18391 cumulative IPC: 1.13262 (Simulation time: 1 hr 24 min 47 sec) 
 Total Blocks : 262144 Invalid Blocks : 0
Heartbeat CPU 1 instructions: 60000000 cycles: 52984942 heartbeat IPC: 1.1833 cumulative IPC: 1.1324 (Simulation time: 1 hr 24 min 48 sec) 
 Total Blocks : 262144 Invalid Blocks : 0
Heartbeat CPU 2 instructions: 60000000 cycles: 52991422 heartbeat IPC: 1.18279 cumulative IPC: 1.13226 (Simulation time: 1 hr 24 min 49 sec) 
 Total Blocks : 262144 Invalid Blocks : 0
Heartbeat CPU 3 instructions: 60000000 cycles: 52996776 heartbeat IPC: 1.18235 cumulative IPC: 1.13214 (Simulation time: 1 hr 24 min 50 sec) 
 Total Blocks : 262144 Invalid Blocks : 0
Heartbeat CPU 4 instructions: 60000000 cycles: 53002041 heartbeat IPC: 1.18196 cumulative IPC: 1.13203 (Simulation time: 1 hr 24 min 51 sec) 
 Total Blocks : 262144 Invalid Blocks : 0
Heartbeat CPU 5 instructions: 60000000 cycles: 53008337 heartbeat IPC: 1.18169 cumulative IPC: 1.1319 (Simulation time: 1 hr 24 min 52 sec) 
 Total Blocks : 262144 Invalid Blocks : 0
Heartbeat CPU 6 instructions: 60000000 cycles: 53013806 heartbeat IPC: 1.18136 cumulative IPC: 1.13178 (Simulation time: 1 hr 24 min 53 sec) 
 Total Blocks : 262144 Invalid Blocks : 0
Heartbeat CPU 7 instructions: 60000000 cycles: 53018179 heartbeat IPC: 1.18102 cumulative IPC: 1.13169 (Simulation time: 1 hr 24 min 54 sec) 
 Total Blocks : 262144 Invalid Blocks : 0
Heartbeat CPU 0 instructions: 70000001 cycles: 60941092 heartbeat IPC: 1.25525 cumulative IPC: 1.14865 (Simulation time: 1 hr 43 min 10 sec) 
 Total Blocks : 262144 Invalid Blocks : 0
Heartbeat CPU 1 instructions: 70000001 cycles: 60955166 heartbeat IPC: 1.25467 cumulative IPC: 1.14839 (Simulation time: 1 hr 43 min 12 sec) 
 Total Blocks : 262144 Invalid Blocks : 0
Heartbeat CPU 2 instructions: 70000001 cycles: 60965428 heartbeat IPC: 1.25407 cumulative IPC: 1.14819 (Simulation time: 1 hr 43 min 13 sec) 
 Total Blocks : 262144 Invalid Blocks : 0
Heartbeat CPU 3 instructions: 70000001 cycles: 60973040 heartbeat IPC: 1.25372 cumulative IPC: 1.14805 (Simulation time: 1 hr 43 min 14 sec) 
 Total Blocks : 262144 Invalid Blocks : 0
Heartbeat CPU 4 instructions: 70000001 cycles: 60981206 heartbeat IPC: 1.25326 cumulative IPC: 1.14789 (Simulation time: 1 hr 43 min 15 sec) 
 Total Blocks : 262144 Invalid Blocks : 0
Heartbeat CPU 5 instructions: 70000001 cycles: 60990002 heartbeat IPC: 1.25287 cumulative IPC: 1.14773 (Simulation time: 1 hr 43 min 16 sec) 
 Total Blocks : 262144 Invalid Blocks : 0
Heartbeat CPU 6 instructions: 70000001 cycles: 60997770 heartbeat IPC: 1.25251 cumulative IPC: 1.14758 (Simulation time: 1 hr 43 min 17 sec) 
 Total Blocks : 262144 Invalid Blocks : 0
Heartbeat CPU 7 instructions: 70000001 cycles: 61003904 heartbeat IPC: 1.25223 cumulative IPC: 1.14747 (Simulation time: 1 hr 43 min 18 sec) 
 Total Blocks : 262144 Invalid Blocks : 0
Heartbeat CPU 0 instructions: 80000000 cycles: 69038237 heartbeat IPC: 1.235 cumulative IPC: 1.15878 (Simulation time: 2 hr 1 min 43 sec) 
 Total Blocks : 262144 Invalid Blocks : 0
Heartbeat CPU 1 instructions: 80000000 cycles: 69056295 heartbeat IPC: 1.2344 cumulative IPC: 1.15848 (Simulation time: 2 hr 1 min 45 sec) 
 Total Blocks : 262144 Invalid Blocks : 0
Heartbeat CPU 2 instructions: 80000000 cycles: 69069775 heartbeat IPC: 1.23391 cumulative IPC: 1.15825 (Simulation time: 2 hr 1 min 47 sec) 
 Total Blocks : 262144 Invalid Blocks : 0
Heartbeat CPU 3 instructions: 80000000 cycles: 69080534 heartbeat IPC: 1.23343 cumulative IPC: 1.15807 (Simulation time: 2 hr 1 min 48 sec) 
 Total Blocks : 262144 Invalid Blocks : 0
Heartbeat CPU 4 instructions: 80000000 cycles: 69091270 heartbeat IPC: 1.23304 cumulative IPC: 1.15789 (Simulation time: 2 hr 1 min 50 sec) 
 Total Blocks : 262144 Invalid Blocks : 0
Heartbeat CPU 5 instructions: 80000000 cycles: 69102138 heartbeat IPC: 1.23272 cumulative IPC: 1.15771 (Simulation time: 2 hr 1 min 52 sec) 
 Total Blocks : 262144 Invalid Blocks : 0
Heartbeat CPU 6 instructions: 80000000 cycles: 69112517 heartbeat IPC: 1.23232 cumulative IPC: 1.15753 (Simulation time: 2 hr 1 min 53 sec) 
 Total Blocks : 262144 Invalid Blocks : 0
Heartbeat CPU 7 instructions: 80000000 cycles: 69120686 heartbeat IPC: 1.23202 cumulative IPC: 1.1574 (Simulation time: 2 hr 1 min 54 sec) 
 Total Blocks : 262144 Invalid Blocks : 0
Heartbeat CPU 0 instructions: 90000001 cycles: 77316760 heartbeat IPC: 1.20795 cumulative IPC: 1.16404 (Simulation time: 2 hr 19 min 48 sec) 
 Total Blocks : 262144 Invalid Blocks : 0
Heartbeat CPU 1 instructions: 90000002 cycles: 77339521 heartbeat IPC: 1.20726 cumulative IPC: 1.1637 (Simulation time: 2 hr 19 min 51 sec) 
 Total Blocks : 262144 Invalid Blocks : 0
Heartbeat CPU 2 instructions: 90000001 cycles: 77356905 heartbeat IPC: 1.20669 cumulative IPC: 1.16344 (Simulation time: 2 hr 19 min 53 sec) 
 Total Blocks : 262144 Invalid Blocks : 0
Heartbeat CPU 3 instructions: 90000003 cycles: 77370032 heartbeat IPC: 1.20635 cumulative IPC: 1.16324 (Simulation time: 2 hr 19 min 54 sec) 
 Total Blocks : 262144 Invalid Blocks : 0
Heartbeat CPU 4 instructions: 90000002 cycles: 77383888 heartbeat IPC: 1.20589 cumulative IPC: 1.16303 (Simulation time: 2 hr 19 min 56 sec) 
 Total Blocks : 262144 Invalid Blocks : 0
Heartbeat CPU 5 instructions: 90000001 cycles: 77396191 heartbeat IPC: 1.20568 cumulative IPC: 1.16285 (Simulation time: 2 hr 19 min 58 sec) 
 Total Blocks : 262144 Invalid Blocks : 0
Heartbeat CPU 6 instructions: 90000002 cycles: 77409862 heartbeat IPC: 1.20521 cumulative IPC: 1.16264 (Simulation time: 2 hr 20 min 1 sec) 
 Total Blocks : 262144 Invalid Blocks : 0
Heartbeat CPU 7 instructions: 90000001 cycles: 77419453 heartbeat IPC: 1.205 cumulative IPC: 1.1625 (Simulation time: 2 hr 20 min 2 sec) 
 Total Blocks : 262144 Invalid Blocks : 0
Heartbeat CPU 0 instructions: 100000002 cycles: 85255729 heartbeat IPC: 1.25961 cumulative IPC: 1.17294 (Simulation time: 2 hr 38 min 26 sec) 
 Total Blocks : 262144 Invalid Blocks : 0
Heartbeat CPU 1 instructions: 100000002 cycles: 85282760 heartbeat IPC: 1.25893 cumulative IPC: 1.17257 (Simulation time: 2 hr 38 min 31 sec) 
 Total Blocks : 262144 Invalid Blocks : 0
Heartbeat CPU 2 instructions: 100000002 cycles: 85303046 heartbeat IPC: 1.25847 cumulative IPC: 1.17229 (Simulation time: 2 hr 38 min 34 sec) 
 Total Blocks : 262144 Invalid Blocks : 0
Heartbeat CPU 3 instructions: 100000002 cycles: 85318334 heartbeat IPC: 1.25813 cumulative IPC: 1.17208 (Simulation time: 2 hr 38 min 36 sec) 
 Total Blocks : 262144 Invalid Blocks : 0
Heartbeat CPU 4 instructions: 100000001 cycles: 85334632 heartbeat IPC: 1.25774 cumulative IPC: 1.17186 (Simulation time: 2 hr 38 min 39 sec) 
 Total Blocks : 262144 Invalid Blocks : 0
Heartbeat CPU 5 instructions: 100000002 cycles: 85349256 heartbeat IPC: 1.25738 cumulative IPC: 1.17166 (Simulation time: 2 hr 38 min 42 sec) 
 Total Blocks : 262144 Invalid Blocks : 0
Heartbeat CPU 6 instructions: 100000001 cycles: 85365157 heartbeat IPC: 1.25702 cumulative IPC: 1.17144 (Simulation time: 2 hr 38 min 45 sec) 
 Total Blocks : 262144 Invalid Blocks : 0
Heartbeat CPU 7 instructions: 100000002 cycles: 85376824 heartbeat IPC: 1.2567 cumulative IPC: 1.17128 (Simulation time: 2 hr 38 min 47 sec) 
 Total Blocks : 262144 Invalid Blocks : 0
Heartbeat CPU 0 instructions: 110000000 cycles: 93304089 heartbeat IPC: 1.24249 cumulative IPC: 1.17894 (Simulation time: 2 hr 58 min 24 sec) 
 Total Blocks : 262144 Invalid Blocks : 0
Heartbeat CPU 1 instructions: 110000000 cycles: 93334923 heartbeat IPC: 1.2419 cumulative IPC: 1.17855 (Simulation time: 2 hr 58 min 28 sec) 
 Total Blocks : 262144 Invalid Blocks : 0
Heartbeat CPU 2 instructions: 110000000 cycles: 93358360 heartbeat IPC: 1.24142 cumulative IPC: 1.17826 (Simulation time: 2 hr 58 min 32 sec) 
 Total Blocks : 262144 Invalid Blocks : 0
Heartbeat CPU 3 instructions: 110000000 cycles: 93377093 heartbeat IPC: 1.24089 cumulative IPC: 1.17802 (Simulation time: 2 hr 58 min 35 sec) 
 Total Blocks : 262144 Invalid Blocks : 0
Heartbeat CPU 4 instructions: 110000000 cycles: 93395600 heartbeat IPC: 1.24055 cumulative IPC: 1.17779 (Simulation time: 2 hr 58 min 38 sec) 
 Total Blocks : 262144 Invalid Blocks : 0
Heartbeat CPU 5 instructions: 110000000 cycles: 93412535 heartbeat IPC: 1.24019 cumulative IPC: 1.17757 (Simulation time: 2 hr 58 min 40 sec) 
 Total Blocks : 262144 Invalid Blocks : 0
Heartbeat CPU 6 instructions: 110000000 cycles: 93430267 heartbeat IPC: 1.23991 cumulative IPC: 1.17735 (Simulation time: 2 hr 58 min 43 sec) 
 Total Blocks : 262144 Invalid Blocks : 0
Heartbeat CPU 7 instructions: 110000000 cycles: 93444009 heartbeat IPC: 1.23959 cumulative IPC: 1.17718 (Simulation time: 2 hr 58 min 46 sec) 
 Total Blocks : 262144 Invalid Blocks : 0
Heartbeat CPU 0 instructions: 120000000 cycles: 101329139 heartbeat IPC: 1.2461 cumulative IPC: 1.18426 (Simulation time: 3 hr 17 min 48 sec) 
 Total Blocks : 262144 Invalid Blocks : 0
Heartbeat CPU 1 instructions: 120000000 cycles: 101363910 heartbeat IPC: 1.24549 cumulative IPC: 1.18385 (Simulation time: 3 hr 17 min 54 sec) 
 Total Blocks : 262144 Invalid Blocks : 0
Heartbeat CPU 2 instructions: 120000000 cycles: 101390950 heartbeat IPC: 1.24493 cumulative IPC: 1.18354 (Simulation time: 3 hr 17 min 59 sec) 
 Total Blocks : 262144 Invalid Blocks : 0
Heartbeat CPU 3 instructions: 120000000 cycles: 101412043 heartbeat IPC: 1.24456 cumulative IPC: 1.18329 (Simulation time: 3 hr 18 min 3 sec) 
 Total Blocks : 262144 Invalid Blocks : 0
Heartbeat CPU 4 instructions: 120000000 cycles: 101432800 heartbeat IPC: 1.24421 cumulative IPC: 1.18305 (Simulation time: 3 hr 18 min 7 sec) 
 Total Blocks : 262144 Invalid Blocks : 0
Heartbeat CPU 5 instructions: 120000000 cycles: 101452380 heartbeat IPC: 1.24381 cumulative IPC: 1.18282 (Simulation time: 3 hr 18 min 11 sec) 
 Total Blocks : 262144 Invalid Blocks : 0
Heartbeat CPU 6 instructions: 120000000 cycles: 101472471 heartbeat IPC: 1.24344 cumulative IPC: 1.18259 (Simulation time: 3 hr 18 min 15 sec) 
 Total Blocks : 262144 Invalid Blocks : 0
Heartbeat CPU 7 instructions: 120000000 cycles: 101488076 heartbeat IPC: 1.24315 cumulative IPC: 1.1824 (Simulation time: 3 hr 18 min 18 sec) 
 Total Blocks : 262144 Invalid Blocks : 0
Heartbeat CPU 0 instructions: 130000003 cycles: 108771615 heartbeat IPC: 1.34364 cumulative IPC: 1.19516 (Simulation time: 3 hr 37 min 17 sec) 
 Total Blocks : 262144 Invalid Blocks : 0
Heartbeat CPU 1 instructions: 130000003 cycles: 108809748 heartbeat IPC: 1.34303 cumulative IPC: 1.19475 (Simulation time: 3 hr 37 min 22 sec) 
 Total Blocks : 262144 Invalid Blocks : 0
Heartbeat CPU 2 instructions: 130000002 cycles: 108839221 heartbeat IPC: 1.34259 cumulative IPC: 1.19442 (Simulation time: 3 hr 37 min 25 sec) 
 Total Blocks : 262144 Invalid Blocks : 0
Heartbeat CPU 3 instructions: 130000002 cycles: 108862592 heartbeat IPC: 1.34218 cumulative IPC: 1.19417 (Simulation time: 3 hr 37 min 28 sec) 
 Total Blocks : 262144 Invalid Blocks : 0
Heartbeat CPU 4 instructions: 130000002 cycles: 108885188 heartbeat IPC: 1.34185 cumulative IPC: 1.19392 (Simulation time: 3 hr 37 min 30 sec) 
 Total Blocks : 262144 Invalid Blocks : 0
Heartbeat CPU 5 instructions: 130000003 cycles: 108906103 heartbeat IPC: 1.34161 cumulative IPC: 1.19369 (Simulation time: 3 hr 37 min 33 sec) 
 Total Blocks : 262144 Invalid Blocks : 0
Heartbeat CPU 6 instructions: 130000002 cycles: 108928352 heartbeat IPC: 1.34122 cumulative IPC: 1.19345 (Simulation time: 3 hr 37 min 35 sec) 
 Total Blocks : 262144 Invalid Blocks : 0
Heartbeat CPU 7 instructions: 130000002 cycles: 108945970 heartbeat IPC: 1.34086 cumulative IPC: 1.19325 (Simulation time: 3 hr 37 min 37 sec) 
 Total Blocks : 262144 Invalid Blocks : 0
Heartbeat CPU 0 instructions: 140000002 cycles: 116737634 heartbeat IPC: 1.25533 cumulative IPC: 1.19927 (Simulation time: 3 hr 58 min 4 sec) 
 Total Blocks : 262144 Invalid Blocks : 0
Heartbeat CPU 1 instructions: 140000002 cycles: 116779062 heartbeat IPC: 1.25481 cumulative IPC: 1.19885 (Simulation time: 3 hr 58 min 13 sec) 
 Total Blocks : 262144 Invalid Blocks : 0
Heartbeat CPU 2 instructions: 140000002 cycles: 116811043 heartbeat IPC: 1.25442 cumulative IPC: 1.19852 (Simulation time: 3 hr 58 min 19 sec) 
 Total Blocks : 262144 Invalid Blocks : 0
Heartbeat CPU 3 instructions: 140000002 cycles: 116836972 heartbeat IPC: 1.25402 cumulative IPC: 1.19825 (Simulation time: 3 hr 58 min 24 sec) 
 Total Blocks : 262144 Invalid Blocks : 0
Heartbeat CPU 4 instructions: 140000002 cycles: 116861570 heartbeat IPC: 1.2537 cumulative IPC: 1.198 (Simulation time: 3 hr 58 min 28 sec) 
 Total Blocks : 262144 Invalid Blocks : 0
Heartbeat CPU 5 instructions: 140000003 cycles: 116884949 heartbeat IPC: 1.25331 cumulative IPC: 1.19776 (Simulation time: 3 hr 58 min 32 sec) 
 Total Blocks : 262144 Invalid Blocks : 0
Heartbeat CPU 6 instructions: 140000003 cycles: 116909231 heartbeat IPC: 1.25299 cumulative IPC: 1.19751 (Simulation time: 3 hr 58 min 36 sec) 
 Total Blocks : 262144 Invalid Blocks : 0
Heartbeat CPU 7 instructions: 140000001 cycles: 116928606 heartbeat IPC: 1.25272 cumulative IPC: 1.19731 (Simulation time: 3 hr 58 min 39 sec) 
 Total Blocks : 262144 Invalid Blocks : 0
Heartbeat CPU 0 instructions: 150000000 cycles: 124621326 heartbeat IPC: 1.26844 cumulative IPC: 1.20365 (Simulation time: 4 hr 21 min 24 sec) 
 Total Blocks : 262144 Invalid Blocks : 0
Heartbeat CPU 1 instructions: 150000000 cycles: 124665903 heartbeat IPC: 1.26793 cumulative IPC: 1.20322 (Simulation time: 4 hr 21 min 31 sec) 
 Total Blocks : 262144 Invalid Blocks : 0
Heartbeat CPU 2 instructions: 150000000 cycles: 124700593 heartbeat IPC: 1.2675 cumulative IPC: 1.20288 (Simulation time: 4 hr 21 min 37 sec) 
 Total Blocks : 262144 Invalid Blocks : 0
Heartbeat CPU 3 instructions: 150000000 cycles: 124729222 heartbeat IPC: 1.26707 cumulative IPC: 1.20261 (Simulation time: 4 hr 21 min 41 sec) 
 Total Blocks : 262144 Invalid Blocks : 0
Heartbeat CPU 4 instructions: 150000000 cycles: 124755608 heartbeat IPC: 1.26678 cumulative IPC: 1.20235 (Simulation time: 4 hr 21 min 46 sec) 
 Total Blocks : 262144 Invalid Blocks : 0
Heartbeat CPU 5 instructions: 150000000 cycles: 124780354 heartbeat IPC: 1.26656 cumulative IPC: 1.20211 (Simulation time: 4 hr 21 min 50 sec) 
 Total Blocks : 262144 Invalid Blocks : 0
Heartbeat CPU 6 instructions: 150000000 cycles: 124807323 heartbeat IPC: 1.26613 cumulative IPC: 1.20185 (Simulation time: 4 hr 21 min 54 sec) 
 Total Blocks : 262144 Invalid Blocks : 0
Heartbeat CPU 7 instructions: 150000000 cycles: 124827910 heartbeat IPC: 1.26593 cumulative IPC: 1.20165 (Simulation time: 4 hr 21 min 57 sec) 
 Total Blocks : 262144 Invalid Blocks : 0
Heartbeat CPU 0 instructions: 160000000 cycles: 132603906 heartbeat IPC: 1.25273 cumulative IPC: 1.2066 (Simulation time: 4 hr 44 min 51 sec) 
 Total Blocks : 262144 Invalid Blocks : 0
Heartbeat CPU 1 instructions: 160000000 cycles: 132652630 heartbeat IPC: 1.25208 cumulative IPC: 1.20616 (Simulation time: 4 hr 44 min 59 sec) 
 Total Blocks : 262144 Invalid Blocks : 0
Heartbeat CPU 2 instructions: 160000000 cycles: 132689869 heartbeat IPC: 1.25168 cumulative IPC: 1.20582 (Simulation time: 4 hr 45 min 6 sec) 
 Total Blocks : 262144 Invalid Blocks : 0
Heartbeat CPU 3 instructions: 160000000 cycles: 132720564 heartbeat IPC: 1.25135 cumulative IPC: 1.20554 (Simulation time: 4 hr 45 min 11 sec) 
 Total Blocks : 262144 Invalid Blocks : 0
Heartbeat CPU 4 instructions: 160000000 cycles: 132748380 heartbeat IPC: 1.25113 cumulative IPC: 1.20529 (Simulation time: 4 hr 45 min 16 sec) 
 Total Blocks : 262144 Invalid Blocks : 0
Heartbeat CPU 5 instructions: 160000000 cycles: 132776211 heartbeat IPC: 1.25065 cumulative IPC: 1.20504 (Simulation time: 4 hr 45 min 21 sec) 
 Total Blocks : 262144 Invalid Blocks : 0
Heartbeat CPU 6 instructions: 160000000 cycles: 132804589 heartbeat IPC: 1.25043 cumulative IPC: 1.20478 (Simulation time: 4 hr 45 min 26 sec) 
 Total Blocks : 262144 Invalid Blocks : 0
Heartbeat CPU 7 instructions: 160000000 cycles: 132826880 heartbeat IPC: 1.25016 cumulative IPC: 1.20458 (Simulation time: 4 hr 45 min 30 sec) 
 Total Blocks : 262144 Invalid Blocks : 0
Heartbeat CPU 0 instructions: 170000000 cycles: 140527688 heartbeat IPC: 1.26202 cumulative IPC: 1.20973 (Simulation time: 5 hr 8 min 42 sec) 
 Total Blocks : 262144 Invalid Blocks : 0
Heartbeat CPU 1 instructions: 170000000 cycles: 140580133 heartbeat IPC: 1.26143 cumulative IPC: 1.20927 (Simulation time: 5 hr 8 min 52 sec) 
 Total Blocks : 262144 Invalid Blocks : 0
Heartbeat CPU 2 instructions: 170000000 cycles: 140620187 heartbeat IPC: 1.26098 cumulative IPC: 1.20893 (Simulation time: 5 hr 8 min 59 sec) 
 Total Blocks : 262144 Invalid Blocks : 0
Heartbeat CPU 3 instructions: 170000000 cycles: 140652925 heartbeat IPC: 1.26066 cumulative IPC: 1.20865 (Simulation time: 5 hr 9 min 5 sec) 
 Total Blocks : 262144 Invalid Blocks : 0
Heartbeat CPU 4 instructions: 170000002 cycles: 140683265 heartbeat IPC: 1.26026 cumulative IPC: 1.20839 (Simulation time: 5 hr 9 min 10 sec) 
 Total Blocks : 262144 Invalid Blocks : 0
Heartbeat CPU 5 instructions: 170000000 cycles: 140712802 heartbeat IPC: 1.25999 cumulative IPC: 1.20813 (Simulation time: 5 hr 9 min 15 sec) 
 Total Blocks : 262144 Invalid Blocks : 0
Heartbeat CPU 6 instructions: 170000000 cycles: 140742789 heartbeat IPC: 1.25973 cumulative IPC: 1.20788 (Simulation time: 5 hr 9 min 20 sec) 
 Total Blocks : 262144 Invalid Blocks : 0
Heartbeat CPU 7 instructions: 170000000 cycles: 140766748 heartbeat IPC: 1.25947 cumulative IPC: 1.20767 (Simulation time: 5 hr 9 min 23 sec) 
 Total Blocks : 262144 Invalid Blocks : 0
Heartbeat CPU 0 instructions: 180000001 cycles: 148569423 heartbeat IPC: 1.24351 cumulative IPC: 1.21155 (Simulation time: 5 hr 33 min 20 sec) 
 Total Blocks : 262144 Invalid Blocks : 0
Heartbeat CPU 1 instructions: 180000001 cycles: 148625320 heartbeat IPC: 1.24298 cumulative IPC: 1.2111 (Simulation time: 5 hr 33 min 30 sec) 
 Total Blocks : 262144 Invalid Blocks : 0
Heartbeat CPU 2 instructions: 180000001 cycles: 148668191 heartbeat IPC: 1.24254 cumulative IPC: 1.21075 (Simulation time: 5 hr 33 min 40 sec) 
 Total Blocks : 262144 Invalid Blocks : 0
Heartbeat CPU 3 instructions: 180000001 cycles: 148703464 heartbeat IPC: 1.24215 cumulative IPC: 1.21046 (Simulation time: 5 hr 33 min 47 sec) 
 Total Blocks : 262144 Invalid Blocks : 0
Heartbeat CPU 4 instructions: 180000001 cycles: 148736185 heartbeat IPC: 1.24179 cumulative IPC: 1.2102 (Simulation time: 5 hr 33 min 53 sec) 
 Total Blocks : 262144 Invalid Blocks : 0
Heartbeat CPU 5 instructions: 180000001 cycles: 148767243 heartbeat IPC: 1.24155 cumulative IPC: 1.20994 (Simulation time: 5 hr 34 min 0 sec) 
 Total Blocks : 262144 Invalid Blocks : 0
Heartbeat CPU 6 instructions: 180000001 cycles: 148798973 heartbeat IPC: 1.24128 cumulative IPC: 1.20969 (Simulation time: 5 hr 34 min 6 sec) 
 Total Blocks : 262144 Invalid Blocks : 0
Heartbeat CPU 7 instructions: 180000000 cycles: 148825694 heartbeat IPC: 1.24086 cumulative IPC: 1.20947 (Simulation time: 5 hr 34 min 12 sec) 
 Total Blocks : 262144 Invalid Blocks : 0
Heartbeat CPU 0 instructions: 190000002 cycles: 156428906 heartbeat IPC: 1.27235 cumulative IPC: 1.21461 (Simulation time: 5 hr 58 min 17 sec) 
 Total Blocks : 262144 Invalid Blocks : 0
Heartbeat CPU 1 instructions: 190000002 cycles: 156488883 heartbeat IPC: 1.27169 cumulative IPC: 1.21414 (Simulation time: 5 hr 58 min 28 sec) 
 Total Blocks : 262144 Invalid Blocks : 0
Heartbeat CPU 2 instructions: 190000002 cycles: 156533997 heartbeat IPC: 1.27133 cumulative IPC: 1.21379 (Simulation time: 5 hr 58 min 37 sec) 
 Total Blocks : 262144 Invalid Blocks : 0
Heartbeat CPU 3 instructions: 190000002 cycles: 156572061 heartbeat IPC: 1.27087 cumulative IPC: 1.2135 (Simulation time: 5 hr 58 min 45 sec) 
 Total Blocks : 262144 Invalid Blocks : 0
Heartbeat CPU 4 instructions: 190000002 cycles: 156607009 heartbeat IPC: 1.27052 cumulative IPC: 1.21323 (Simulation time: 5 hr 58 min 51 sec) 
 Total Blocks : 262144 Invalid Blocks : 0
Heartbeat CPU 5 instructions: 190000003 cycles: 156639414 heartbeat IPC: 1.2703 cumulative IPC: 1.21298 (Simulation time: 5 hr 58 min 56 sec) 
 Total Blocks : 262144 Invalid Blocks : 0
Heartbeat CPU 6 instructions: 190000000 cycles: 156673807 heartbeat IPC: 1.26987 cumulative IPC: 1.21271 (Simulation time: 5 hr 59 min 1 sec) 
 Total Blocks : 262144 Invalid Blocks : 0
Heartbeat CPU 7 instructions: 190000000 cycles: 156701516 heartbeat IPC: 1.26971 cumulative IPC: 1.2125 (Simulation time: 5 hr 59 min 5 sec) 
 Total Blocks : 262144 Invalid Blocks : 0
Heartbeat CPU 0 instructions: 200000002 cycles: 164296404 heartbeat IPC: 1.27105 cumulative IPC: 1.21731 (Simulation time: 6 hr 17 min 20 sec) 
 Total Blocks : 262144 Invalid Blocks : 0
Heartbeat CPU 1 instructions: 200000001 cycles: 164359820 heartbeat IPC: 1.2705 cumulative IPC: 1.21684 (Simulation time: 6 hr 17 min 30 sec) 
 Total Blocks : 262144 Invalid Blocks : 0
Heartbeat CPU 2 instructions: 200000001 cycles: 164408297 heartbeat IPC: 1.26995 cumulative IPC: 1.21648 (Simulation time: 6 hr 17 min 37 sec) 
 Total Blocks : 262144 Invalid Blocks : 0
Heartbeat CPU 3 instructions: 200000000 cycles: 164448251 heartbeat IPC: 1.26965 cumulative IPC: 1.21619 (Simulation time: 6 hr 17 min 42 sec) 
 Total Blocks : 262144 Invalid Blocks : 0
Heartbeat CPU 4 instructions: 200000002 cycles: 164485000 heartbeat IPC: 1.26936 cumulative IPC: 1.21592 (Simulation time: 6 hr 17 min 47 sec) 
 Total Blocks : 262144 Invalid Blocks : 0
Heartbeat CPU 5 instructions: 200000003 cycles: 164519665 heartbeat IPC: 1.269 cumulative IPC: 1.21566 (Simulation time: 6 hr 17 min 52 sec) 
 Total Blocks : 262144 Invalid Blocks : 0
Heartbeat CPU 6 instructions: 200000001 cycles: 164555537 heartbeat IPC: 1.26876 cumulative IPC: 1.2154 (Simulation time: 6 hr 17 min 56 sec) 
 Total Blocks : 262144 Invalid Blocks : 0
Heartbeat CPU 7 instructions: 200000001 cycles: 164585180 heartbeat IPC: 1.26845 cumulative IPC: 1.21518 (Simulation time: 6 hr 18 min 0 sec) 
 Total Blocks : 262144 Invalid Blocks : 0

Warmup complete CPU 0 instructions: 200323072 cycles: 164585180 (Simulation time: 6 hr 18 min 0 sec) 
Warmup complete CPU 1 instructions: 200257882 cycles: 164585180 (Simulation time: 6 hr 18 min 0 sec) 
Warmup complete CPU 2 instructions: 200166770 cycles: 164585180 (Simulation time: 6 hr 18 min 0 sec) 
Warmup complete CPU 3 instructions: 200133006 cycles: 164585180 (Simulation time: 6 hr 18 min 0 sec) 
Warmup complete CPU 4 instructions: 200095323 cycles: 164585180 (Simulation time: 6 hr 18 min 0 sec) 
Warmup complete CPU 5 instructions: 200063063 cycles: 164585180 (Simulation time: 6 hr 18 min 0 sec) 
Warmup complete CPU 6 instructions: 200033494 cycles: 164585180 (Simulation time: 6 hr 18 min 0 sec) 
Warmup complete CPU 7 instructions: 200000001 cycles: 164585180 (Simulation time: 6 hr 18 min 0 sec) 

Heartbeat CPU 0 instructions: 210000002 cycles: 280136606 heartbeat IPC: 0.0863258 cumulative IPC: 0.0837457 (Simulation time: 7 hr 30 min 38 sec) 
 Total Blocks : 262144 Invalid Blocks : 0
Heartbeat CPU 1 instructions: 210000002 cycles: 280896696 heartbeat IPC: 0.0858098 cumulative IPC: 0.0837589 (Simulation time: 7 hr 31 min 7 sec) 
 Total Blocks : 262144 Invalid Blocks : 0
Heartbeat CPU 2 instructions: 210000002 cycles: 281673553 heartbeat IPC: 0.0852768 cumulative IPC: 0.0839813 (Simulation time: 7 hr 31 min 36 sec) 
 Total Blocks : 262144 Invalid Blocks : 0
Heartbeat CPU 3 instructions: 210000002 cycles: 282540524 heartbeat IPC: 0.0846796 cumulative IPC: 0.0836503 (Simulation time: 7 hr 32 min 10 sec) 
 Total Blocks : 262144 Invalid Blocks : 0
Heartbeat CPU 4 instructions: 210000002 cycles: 282685074 heartbeat IPC: 0.0846023 cumulative IPC: 0.083867 (Simulation time: 7 hr 32 min 15 sec) 
 Total Blocks : 262144 Invalid Blocks : 0
Heartbeat CPU 5 instructions: 210000002 cycles: 283334855 heartbeat IPC: 0.0841643 cumulative IPC: 0.0836797 (Simulation time: 7 hr 32 min 40 sec) 
 Total Blocks : 262144 Invalid Blocks : 0
Heartbeat CPU 6 instructions: 210000002 cycles: 284106818 heartbeat IPC: 0.0836461 cumulative IPC: 0.0833866 (Simulation time: 7 hr 33 min 9 sec) 
 Total Blocks : 262144 Invalid Blocks : 0
Heartbeat CPU 7 instructions: 210000002 cycles: 284111937 heartbeat IPC: 0.0836633 cumulative IPC: 0.0836633 (Simulation time: 7 hr 33 min 9 sec) 
 Total Blocks : 262144 Invalid Blocks : 0
Heartbeat CPU 0 instructions: 220000000 cycles: 397991793 heartbeat IPC: 0.0848499 cumulative IPC: 0.0843032 (Simulation time: 8 hr 39 min 28 sec) 
 Total Blocks : 262144 Invalid Blocks : 0
Heartbeat CPU 1 instructions: 220000000 cycles: 399250314 heartbeat IPC: 0.0844925 cumulative IPC: 0.0841289 (Simulation time: 8 hr 40 min 1 sec) 
 Total Blocks : 262144 Invalid Blocks : 0
Heartbeat CPU 2 instructions: 220000000 cycles: 399792818 heartbeat IPC: 0.0846602 cumulative IPC: 0.0843222 (Simulation time: 8 hr 40 min 15 sec) 
 Total Blocks : 262144 Invalid Blocks : 0
Heartbeat CPU 3 instructions: 220000000 cycles: 400670507 heartbeat IPC: 0.0846525 cumulative IPC: 0.0841518 (Simulation time: 8 hr 40 min 39 sec) 
 Total Blocks : 262144 Invalid Blocks : 0
Heartbeat CPU 4 instructions: 220000000 cycles: 400976367 heartbeat IPC: 0.0845371 cumulative IPC: 0.0842023 (Simulation time: 8 hr 40 min 47 sec) 
 Total Blocks : 262144 Invalid Blocks : 0
Heartbeat CPU 5 instructions: 220000000 cycles: 401515772 heartbeat IPC: 0.084616 cumulative IPC: 0.0841467 (Simulation time: 8 hr 41 min 1 sec) 
 Total Blocks : 262144 Invalid Blocks : 0
Heartbeat CPU 7 instructions: 220000000 cycles: 402365664 heartbeat IPC: 0.0845639 cumulative IPC: 0.0841112 (Simulation time: 8 hr 41 min 24 sec) 
 Total Blocks : 262144 Invalid Blocks : 0
Heartbeat CPU 6 instructions: 220000000 cycles: 402501895 heartbeat IPC: 0.084463 cumulative IPC: 0.0839223 (Simulation time: 8 hr 41 min 27 sec) 
 Total Blocks : 262144 Invalid Blocks : 0
Heartbeat CPU 0 instructions: 230000000 cycles: 516106201 heartbeat IPC: 0.0846637 cumulative IPC: 0.0844243 (Simulation time: 9 hr 29 min 51 sec) 
 Total Blocks : 262144 Invalid Blocks : 0
Heartbeat CPU 1 instructions: 230000000 cycles: 517869082 heartbeat IPC: 0.0843037 cumulative IPC: 0.0841876 (Simulation time: 9 hr 30 min 46 sec) 
 Total Blocks : 262144 Invalid Blocks : 0
Heartbeat CPU 2 instructions: 230000000 cycles: 517934484 heartbeat IPC: 0.0846441 cumulative IPC: 0.0844299 (Simulation time: 9 hr 30 min 48 sec) 
 Total Blocks : 262144 Invalid Blocks : 0
Heartbeat CPU 3 instructions: 230000000 cycles: 518893637 heartbeat IPC: 0.0845858 cumulative IPC: 0.0842966 (Simulation time: 9 hr 31 min 15 sec) 
 Total Blocks : 262144 Invalid Blocks : 0
Heartbeat CPU 4 instructions: 230000000 cycles: 519007886 heartbeat IPC: 0.0847231 cumulative IPC: 0.0843757 (Simulation time: 9 hr 31 min 18 sec) 
 Total Blocks : 262144 Invalid Blocks : 0
Heartbeat CPU 5 instructions: 230000000 cycles: 520070570 heartbeat IPC: 0.0843492 cumulative IPC: 0.0842143 (Simulation time: 9 hr 31 min 45 sec) 
 Total Blocks : 262144 Invalid Blocks : 0
Heartbeat CPU 6 instructions: 230000000 cycles: 520798526 heartbeat IPC: 0.0845333 cumulative IPC: 0.0841252 (Simulation time: 9 hr 32 min 5 sec) 
 Total Blocks : 262144 Invalid Blocks : 0
Heartbeat CPU 7 instructions: 230000000 cycles: 520943051 heartbeat IPC: 0.0843331 cumulative IPC: 0.084185 (Simulation time: 9 hr 32 min 9 sec) 
 Total Blocks : 262144 Invalid Blocks : 0
Heartbeat CPU 0 instructions: 240000000 cycles: 635136710 heartbeat IPC: 0.0840121 cumulative IPC: 0.08432 (Simulation time: 10 hr 23 min 22 sec) 
 Total Blocks : 262144 Invalid Blocks : 0
Heartbeat CPU 1 instructions: 240000000 cycles: 636805353 heartbeat IPC: 0.0840786 cumulative IPC: 0.0841601 (Simulation time: 10 hr 24 min 29 sec) 
 Total Blocks : 262144 Invalid Blocks : 0
Heartbeat CPU 2 instructions: 240000001 cycles: 636858507 heartbeat IPC: 0.0840873 cumulative IPC: 0.0843436 (Simulation time: 10 hr 24 min 31 sec) 
 Total Blocks : 262144 Invalid Blocks : 0
Heartbeat CPU 3 instructions: 240000001 cycles: 637495436 heartbeat IPC: 0.0843158 cumulative IPC: 0.0843014 (Simulation time: 10 hr 24 min 56 sec) 
 Total Blocks : 262144 Invalid Blocks : 0
Heartbeat CPU 4 instructions: 240000000 cycles: 638111219 heartbeat IPC: 0.0839607 cumulative IPC: 0.0842713 (Simulation time: 10 hr 25 min 20 sec) 
 Total Blocks : 262144 Invalid Blocks : 0
Heartbeat CPU 5 instructions: 240000001 cycles: 638922340 heartbeat IPC: 0.0841384 cumulative IPC: 0.0841953 (Simulation time: 10 hr 25 min 53 sec) 
 Total Blocks : 262144 Invalid Blocks : 0
Heartbeat CPU 6 instructions: 240000001 cycles: 639499420 heartbeat IPC: 0.0842454 cumulative IPC: 0.0841552 (Simulation time: 10 hr 26 min 17 sec) 
 Total Blocks : 262144 Invalid Blocks : 0
Heartbeat CPU 7 instructions: 240000000 cycles: 639732800 heartbeat IPC: 0.0841823 cumulative IPC: 0.0841844 (Simulation time: 10 hr 26 min 26 sec) 
 Total Blocks : 262144 Invalid Blocks : 0
Heartbeat CPU 0 instructions: 250000000 cycles: 753153224 heartbeat IPC: 0.0847339 cumulative IPC: 0.084403 (Simulation time: 11 hr 36 min 21 sec) 
 Total Blocks : 262144 Invalid Blocks : 0
Heartbeat CPU 1 instructions: 250000002 cycles: 754875316 heartbeat IPC: 0.0846956 cumulative IPC: 0.0842672 (Simulation time: 11 hr 37 min 8 sec) 
 Total Blocks : 262144 Invalid Blocks : 0
Heartbeat CPU 2 instructions: 250000002 cycles: 754981547 heartbeat IPC: 0.0846575 cumulative IPC: 0.0844064 (Simulation time: 11 hr 37 min 11 sec) 
 Total Blocks : 262144 Invalid Blocks : 0
Heartbeat CPU 3 instructions: 250000000 cycles: 755582858 heartbeat IPC: 0.084683 cumulative IPC: 0.0843776 (Simulation time: 11 hr 37 min 28 sec) 
 Total Blocks : 262144 Invalid Blocks : 0
Heartbeat CPU 4 instructions: 250000002 cycles: 756327158 heartbeat IPC: 0.084591 cumulative IPC: 0.0843352 (Simulation time: 11 hr 37 min 48 sec) 
 Total Blocks : 262144 Invalid Blocks : 0
Heartbeat CPU 5 instructions: 250000000 cycles: 757072828 heartbeat IPC: 0.0846378 cumulative IPC: 0.0842835 (Simulation time: 11 hr 38 min 8 sec) 
 Total Blocks : 262144 Invalid Blocks : 0
Heartbeat CPU 6 instructions: 250000000 cycles: 757494879 heartbeat IPC: 0.084749 cumulative IPC: 0.0842734 (Simulation time: 11 hr 38 min 18 sec) 
 Total Blocks : 262144 Invalid Blocks : 0
Heartbeat CPU 7 instructions: 250000000 cycles: 757654830 heartbeat IPC: 0.0848018 cumulative IPC: 0.0843071 (Simulation time: 11 hr 38 min 22 sec) 
 Total Blocks : 262144 Invalid Blocks : 0
Heartbeat CPU 0 instructions: 260000000 cycles: 871081030 heartbeat IPC: 0.0847976 cumulative IPC: 0.0844689 (Simulation time: 12 hr 28 min 56 sec) 
 Total Blocks : 262144 Invalid Blocks : 0
Heartbeat CPU 2 instructions: 260000000 cycles: 872740691 heartbeat IPC: 0.0849191 cumulative IPC: 0.0844917 (Simulation time: 12 hr 29 min 40 sec) 
 Total Blocks : 262144 Invalid Blocks : 0
Heartbeat CPU 1 instructions: 260000000 cycles: 872747000 heartbeat IPC: 0.084838 cumulative IPC: 0.0843622 (Simulation time: 12 hr 29 min 40 sec) 
 Total Blocks : 262144 Invalid Blocks : 0
Heartbeat CPU 3 instructions: 260000000 cycles: 873274321 heartbeat IPC: 0.0849679 cumulative IPC: 0.0844757 (Simulation time: 12 hr 29 min 54 sec) 
 Total Blocks : 262144 Invalid Blocks : 0
Heartbeat CPU 4 instructions: 260000000 cycles: 874338435 heartbeat IPC: 0.0847377 cumulative IPC: 0.0844021 (Simulation time: 12 hr 30 min 24 sec) 
 Total Blocks : 262144 Invalid Blocks : 0
Heartbeat CPU 5 instructions: 260000000 cycles: 875202731 heartbeat IPC: 0.0846526 cumulative IPC: 0.0843449 (Simulation time: 12 hr 30 min 48 sec) 
 Total Blocks : 262144 Invalid Blocks : 0
Heartbeat CPU 6 instructions: 260000000 cycles: 875271895 heartbeat IPC: 0.0849062 cumulative IPC: 0.0843783 (Simulation time: 12 hr 30 min 50 sec) 
 Total Blocks : 262144 Invalid Blocks : 0
Heartbeat CPU 7 instructions: 260000000 cycles: 875723616 heartbeat IPC: 0.0846964 cumulative IPC: 0.0843718 (Simulation time: 12 hr 31 min 2 sec) 
 Total Blocks : 262144 Invalid Blocks : 0
Heartbeat CPU 0 instructions: 270000000 cycles: 989765246 heartbeat IPC: 0.0842572 cumulative IPC: 0.0844385 (Simulation time: 13 hr 21 min 32 sec) 
 Total Blocks : 262144 Invalid Blocks : 0
Heartbeat CPU 2 instructions: 270000000 cycles: 991103064 heartbeat IPC: 0.0844863 cumulative IPC: 0.0844909 (Simulation time: 13 hr 22 min 8 sec) 
 Total Blocks : 262144 Invalid Blocks : 0
Heartbeat CPU 1 instructions: 270000000 cycles: 991328392 heartbeat IPC: 0.0843303 cumulative IPC: 0.0843577 (Simulation time: 13 hr 22 min 14 sec) 
 Total Blocks : 262144 Invalid Blocks : 0
Heartbeat CPU 3 instructions: 270000000 cycles: 991979077 heartbeat IPC: 0.0842426 cumulative IPC: 0.0844422 (Simulation time: 13 hr 22 min 31 sec) 
 Total Blocks : 262144 Invalid Blocks : 0
Heartbeat CPU 4 instructions: 270000000 cycles: 992639513 heartbeat IPC: 0.0845301 cumulative IPC: 0.0844204 (Simulation time: 13 hr 22 min 50 sec) 
 Total Blocks : 262144 Invalid Blocks : 0
Heartbeat CPU 6 instructions: 270000000 cycles: 993772438 heartbeat IPC: 0.0843878 cumulative IPC: 0.0843796 (Simulation time: 13 hr 23 min 19 sec) 
 Total Blocks : 262144 Invalid Blocks : 0
Heartbeat CPU 5 instructions: 270000000 cycles: 993789009 heartbeat IPC: 0.0843268 cumulative IPC: 0.0843423 (Simulation time: 13 hr 23 min 20 sec) 
 Total Blocks : 262144 Invalid Blocks : 0
Heartbeat CPU 7 instructions: 270000000 cycles: 994343352 heartbeat IPC: 0.084303 cumulative IPC: 0.0843619 (Simulation time: 13 hr 23 min 35 sec) 
 Total Blocks : 262144 Invalid Blocks : 0
Heartbeat CPU 0 instructions: 280000001 cycles: 1110564862 heartbeat IPC: 0.0827817 cumulative IPC: 0.0842269 (Simulation time: 14 hr 13 min 58 sec) 
 Total Blocks : 262144 Invalid Blocks : 0
Heartbeat CPU 2 instructions: 280000001 cycles: 1112000240 heartbeat IPC: 0.0827149 cumulative IPC: 0.0842643 (Simulation time: 14 hr 14 min 36 sec) 
 Total Blocks : 262144 Invalid Blocks : 0
Heartbeat CPU 1 instructions: 280000001 cycles: 1112385622 heartbeat IPC: 0.0826056 cumulative IPC: 0.0841339 (Simulation time: 14 hr 14 min 46 sec) 
 Total Blocks : 262144 Invalid Blocks : 0
Heartbeat CPU 3 instructions: 280000001 cycles: 1112916523 heartbeat IPC: 0.0826874 cumulative IPC: 0.0842184 (Simulation time: 14 hr 15 min 0 sec) 
 Total Blocks : 262144 Invalid Blocks : 0
Heartbeat CPU 4 instructions: 280000001 cycles: 1113372832 heartbeat IPC: 0.0828272 cumulative IPC: 0.0842177 (Simulation time: 14 hr 15 min 12 sec) 
 Total Blocks : 262144 Invalid Blocks : 0
Heartbeat CPU 6 instructions: 280000001 cycles: 1114445605 heartbeat IPC: 0.0828685 cumulative IPC: 0.0841876 (Simulation time: 14 hr 15 min 40 sec) 
 Total Blocks : 262144 Invalid Blocks : 0
Heartbeat CPU 5 instructions: 280000001 cycles: 1114510951 heartbeat IPC: 0.082835 cumulative IPC: 0.0841507 (Simulation time: 14 hr 15 min 42 sec) 
 Total Blocks : 262144 Invalid Blocks : 0
Heartbeat CPU 7 instructions: 280000001 cycles: 1114938286 heartbeat IPC: 0.0829222 cumulative IPC: 0.0841792 (Simulation time: 14 hr 15 min 53 sec) 
 Total Blocks : 262144 Invalid Blocks : 0
Heartbeat CPU 0 instructions: 290000002 cycles: 1229761529 heartbeat IPC: 0.083895 cumulative IPC: 0.0841898 (Simulation time: 15 hr 6 min 10 sec) 
 Total Blocks : 262144 Invalid Blocks : 0
Heartbeat CPU 2 instructions: 290000002 cycles: 1231537581 heartbeat IPC: 0.0836559 cumulative IPC: 0.0841961 (Simulation time: 15 hr 7 min 0 sec) 
 Total Blocks : 262144 Invalid Blocks : 0
Heartbeat CPU 1 instructions: 290000002 cycles: 1232080129 heartbeat IPC: 0.083546 cumulative IPC: 0.084068 (Simulation time: 15 hr 7 min 17 sec) 
 Total Blocks : 262144 Invalid Blocks : 0
Heartbeat CPU 3 instructions: 290000002 cycles: 1232461411 heartbeat IPC: 0.0836506 cumulative IPC: 0.0841549 (Simulation time: 15 hr 7 min 27 sec) 
 Total Blocks : 262144 Invalid Blocks : 0
Heartbeat CPU 4 instructions: 290000002 cycles: 1232461564 heartbeat IPC: 0.083971 cumulative IPC: 0.0841902 (Simulation time: 15 hr 7 min 27 sec) 
 Total Blocks : 262144 Invalid Blocks : 0
Heartbeat CPU 6 instructions: 290000002 cycles: 1233892608 heartbeat IPC: 0.0837191 cumulative IPC: 0.0841353 (Simulation time: 15 hr 8 min 11 sec) 
 Total Blocks : 262144 Invalid Blocks : 0
Heartbeat CPU 5 instructions: 290000002 cycles: 1234095589 heartbeat IPC: 0.0836228 cumulative IPC: 0.0840917 (Simulation time: 15 hr 8 min 17 sec) 
 Total Blocks : 262144 Invalid Blocks : 0
Heartbeat CPU 7 instructions: 290000002 cycles: 1234413241 heartbeat IPC: 0.0836996 cumulative IPC: 0.0841257 (Simulation time: 15 hr 8 min 26 sec) 
 Total Blocks : 262144 Invalid Blocks : 0
Heartbeat CPU 0 instructions: 300000002 cycles: 1350536788 heartbeat IPC: 0.0827984 cumulative IPC: 0.0840481 (Simulation time: 15 hr 59 min 17 sec) 
 Total Blocks : 262144 Invalid Blocks : 0
Heartbeat CPU 2 instructions: 300000002 cycles: 1352323890 heartbeat IPC: 0.0827908 cumulative IPC: 0.0840532 (Simulation time: 16 hr 0 min 6 sec) 
 Total Blocks : 262144 Invalid Blocks : 0
Heartbeat CPU 1 instructions: 300000002 cycles: 1352604832 heartbeat IPC: 0.0829705 cumulative IPC: 0.0839566 (Simulation time: 16 hr 0 min 14 sec) 
 Total Blocks : 262144 Invalid Blocks : 0
Heartbeat CPU 3 instructions: 300000002 cycles: 1353088536 heartbeat IPC: 0.0829001 cumulative IPC: 0.0840275 (Simulation time: 16 hr 0 min 28 sec) 
 Total Blocks : 262144 Invalid Blocks : 0
Heartbeat CPU 4 instructions: 300000002 cycles: 1353173885 heartbeat IPC: 0.0828416 cumulative IPC: 0.0840532 (Simulation time: 16 hr 0 min 30 sec) 
 Total Blocks : 262144 Invalid Blocks : 0
Heartbeat CPU 6 instructions: 300000002 cycles: 1354524625 heartbeat IPC: 0.0828967 cumulative IPC: 0.0840097 (Simulation time: 16 hr 1 min 5 sec) 
 Total Blocks : 262144 Invalid Blocks : 0
Heartbeat CPU 7 instructions: 300000002 cycles: 1354843530 heartbeat IPC: 0.0830356 cumulative IPC: 0.0840154 (Simulation time: 16 hr 1 min 13 sec) 
 Total Blocks : 262144 Invalid Blocks : 0
Heartbeat CPU 5 instructions: 300000002 cycles: 1354844499 heartbeat IPC: 0.0828165 cumulative IPC: 0.0839623 (Simulation time: 16 hr 1 min 13 sec) 
 Total Blocks : 262144 Invalid Blocks : 0
Heartbeat CPU 0 instructions: 310000001 cycles: 1470165136 heartbeat IPC: 0.0835922 cumulative IPC: 0.0840063 (Simulation time: 16 hr 53 min 0 sec) 
 Total Blocks : 262144 Invalid Blocks : 0
Heartbeat CPU 1 instructions: 310000001 cycles: 1471892562 heartbeat IPC: 0.0838309 cumulative IPC: 0.0839452 (Simulation time: 16 hr 53 min 47 sec) 
 Total Blocks : 262144 Invalid Blocks : 0
Heartbeat CPU 2 instructions: 310000001 cycles: 1472316844 heartbeat IPC: 0.0833382 cumulative IPC: 0.0839876 (Simulation time: 16 hr 53 min 58 sec) 
 Total Blocks : 262144 Invalid Blocks : 0
Heartbeat CPU 3 instructions: 310000001 cycles: 1472786972 heartbeat IPC: 0.0835433 cumulative IPC: 0.0839832 (Simulation time: 16 hr 54 min 12 sec) 
 Total Blocks : 262144 Invalid Blocks : 0
Heartbeat CPU 4 instructions: 310000001 cycles: 1472796000 heartbeat IPC: 0.0835966 cumulative IPC: 0.0840114 (Simulation time: 16 hr 54 min 12 sec) 
 Total Blocks : 262144 Invalid Blocks : 0
Heartbeat CPU 6 instructions: 310000001 cycles: 1474238856 heartbeat IPC: 0.0835323 cumulative IPC: 0.0839661 (Simulation time: 16 hr 54 min 52 sec) 
 Total Blocks : 262144 Invalid Blocks : 0
Heartbeat CPU 7 instructions: 310000001 cycles: 1474655115 heartbeat IPC: 0.0834644 cumulative IPC: 0.083965 (Simulation time: 16 hr 55 min 4 sec) 
 Total Blocks : 262144 Invalid Blocks : 0
Heartbeat CPU 5 instructions: 310000001 cycles: 1474874579 heartbeat IPC: 0.0833124 cumulative IPC: 0.0839028 (Simulation time: 16 hr 55 min 10 sec) 
 Total Blocks : 262144 Invalid Blocks : 0
Heartbeat CPU 0 instructions: 320000003 cycles: 1588511668 heartbeat IPC: 0.0844976 cumulative IPC: 0.0840471 (Simulation time: 17 hr 46 min 36 sec) 
 Total Blocks : 262144 Invalid Blocks : 0
Heartbeat CPU 1 instructions: 320000002 cycles: 1589825356 heartbeat IPC: 0.0847941 cumulative IPC: 0.0840154 (Simulation time: 17 hr 47 min 13 sec) 
 Total Blocks : 262144 Invalid Blocks : 0
Heartbeat CPU 2 instructions: 320000003 cycles: 1590467784 heartbeat IPC: 0.0846375 cumulative IPC: 0.0840414 (Simulation time: 17 hr 47 min 30 sec) 
 Total Blocks : 262144 Invalid Blocks : 0
Heartbeat CPU 4 instructions: 320000003 cycles: 1590559310 heartbeat IPC: 0.0849161 cumulative IPC: 0.0840862 (Simulation time: 17 hr 47 min 33 sec) 
 Total Blocks : 262144 Invalid Blocks : 0
Heartbeat CPU 3 instructions: 320000003 cycles: 1590871718 heartbeat IPC: 0.084685 cumulative IPC: 0.0840413 (Simulation time: 17 hr 47 min 42 sec) 
 Total Blocks : 262144 Invalid Blocks : 0
Heartbeat CPU 6 instructions: 320000003 cycles: 1592208477 heartbeat IPC: 0.0847676 cumulative IPC: 0.0840323 (Simulation time: 17 hr 48 min 15 sec) 
 Total Blocks : 262144 Invalid Blocks : 0
Heartbeat CPU 7 instructions: 320000003 cycles: 1592729205 heartbeat IPC: 0.0846926 cumulative IPC: 0.0840251 (Simulation time: 17 hr 48 min 27 sec) 
 Total Blocks : 262144 Invalid Blocks : 0
Heartbeat CPU 5 instructions: 320000003 cycles: 1592992845 heartbeat IPC: 0.0846609 cumulative IPC: 0.0839655 (Simulation time: 17 hr 48 min 33 sec) 
 Total Blocks : 262144 Invalid Blocks : 0
Heartbeat CPU 0 instructions: 330000000 cycles: 1707677493 heartbeat IPC: 0.0839166 cumulative IPC: 0.0840371 (Simulation time: 18 hr 39 min 57 sec) 
 Total Blocks : 262144 Invalid Blocks : 0
Heartbeat CPU 1 instructions: 330000000 cycles: 1708964973 heartbeat IPC: 0.0839351 cumulative IPC: 0.0840092 (Simulation time: 18 hr 40 min 31 sec) 
 Total Blocks : 262144 Invalid Blocks : 0
Heartbeat CPU 4 instructions: 330000000 cycles: 1709550925 heartbeat IPC: 0.0840395 cumulative IPC: 0.0840826 (Simulation time: 18 hr 40 min 47 sec) 
 Total Blocks : 262144 Invalid Blocks : 0
Heartbeat CPU 2 instructions: 330000000 cycles: 1709782702 heartbeat IPC: 0.0838118 cumulative IPC: 0.0840237 (Simulation time: 18 hr 40 min 53 sec) 
 Total Blocks : 262144 Invalid Blocks : 0
Heartbeat CPU 3 instructions: 330000000 cycles: 1709848097 heartbeat IPC: 0.0840503 cumulative IPC: 0.084042 (Simulation time: 18 hr 40 min 55 sec) 
 Total Blocks : 262144 Invalid Blocks : 0
Heartbeat CPU 6 instructions: 330000000 cycles: 1711259474 heartbeat IPC: 0.0839976 cumulative IPC: 0.0840297 (Simulation time: 18 hr 41 min 34 sec) 
 Total Blocks : 262144 Invalid Blocks : 0
Heartbeat CPU 7 instructions: 330000000 cycles: 1711995396 heartbeat IPC: 0.083846 cumulative IPC: 0.0840113 (Simulation time: 18 hr 41 min 54 sec) 
 Total Blocks : 262144 Invalid Blocks : 0
Heartbeat CPU 5 instructions: 330000000 cycles: 1712237300 heartbeat IPC: 0.0838613 cumulative IPC: 0.0839575 (Simulation time: 18 hr 42 min 1 sec) 
 Total Blocks : 262144 Invalid Blocks : 0
Heartbeat CPU 0 instructions: 340000001 cycles: 1826954689 heartbeat IPC: 0.0838383 cumulative IPC: 0.0840228 (Simulation time: 19 hr 34 min 23 sec) 
 Total Blocks : 262144 Invalid Blocks : 0
Heartbeat CPU 1 instructions: 340000001 cycles: 1828442497 heartbeat IPC: 0.0836978 cumulative IPC: 0.0839868 (Simulation time: 19 hr 35 min 2 sec) 
 Total Blocks : 262144 Invalid Blocks : 0
Heartbeat CPU 4 instructions: 340000001 cycles: 1828853576 heartbeat IPC: 0.0838204 cumulative IPC: 0.0840638 (Simulation time: 19 hr 35 min 14 sec) 
 Total Blocks : 262144 Invalid Blocks : 0
Heartbeat CPU 2 instructions: 340000001 cycles: 1829015145 heartbeat IPC: 0.0838698 cumulative IPC: 0.0840127 (Simulation time: 19 hr 35 min 18 sec) 
 Total Blocks : 262144 Invalid Blocks : 0
Heartbeat CPU 3 instructions: 340000001 cycles: 1829480554 heartbeat IPC: 0.0835894 cumulative IPC: 0.0840095 (Simulation time: 19 hr 35 min 31 sec) 
 Total Blocks : 262144 Invalid Blocks : 0
Heartbeat CPU 6 instructions: 340000001 cycles: 1830647541 heartbeat IPC: 0.0837605 cumulative IPC: 0.0840104 (Simulation time: 19 hr 36 min 4 sec) 
 Total Blocks : 262144 Invalid Blocks : 0
Heartbeat CPU 7 instructions: 340000001 cycles: 1831459481 heartbeat IPC: 0.0837072 cumulative IPC: 0.0839895 (Simulation time: 19 hr 36 min 28 sec) 
 Total Blocks : 262144 Invalid Blocks : 0
Heartbeat CPU 5 instructions: 340000001 cycles: 1831877314 heartbeat IPC: 0.0835841 cumulative IPC: 0.0839307 (Simulation time: 19 hr 36 min 39 sec) 
 Total Blocks : 262144 Invalid Blocks : 0
Heartbeat CPU 0 instructions: 350000001 cycles: 1943903690 heartbeat IPC: 0.0855074 cumulative IPC: 0.0841204 (Simulation time: 20 hr 28 min 54 sec) 
 Total Blocks : 262144 Invalid Blocks : 0
Heartbeat CPU 1 instructions: 350000002 cycles: 1945740753 heartbeat IPC: 0.0852528 cumulative IPC: 0.0840702 (Simulation time: 20 hr 29 min 48 sec) 
 Total Blocks : 262144 Invalid Blocks : 0
Heartbeat CPU 4 instructions: 350000002 cycles: 1946463051 heartbeat IPC: 0.0850272 cumulative IPC: 0.0841274 (Simulation time: 20 hr 30 min 8 sec) 
 Total Blocks : 262144 Invalid Blocks : 0
Heartbeat CPU 2 instructions: 350000002 cycles: 1946476263 heartbeat IPC: 0.0851346 cumulative IPC: 0.0840866 (Simulation time: 20 hr 30 min 9 sec) 
 Total Blocks : 262144 Invalid Blocks : 0
Heartbeat CPU 3 instructions: 350000001 cycles: 1946934342 heartbeat IPC: 0.0851399 cumulative IPC: 0.084084 (Simulation time: 20 hr 30 min 22 sec) 
 Total Blocks : 262144 Invalid Blocks : 0
Heartbeat CPU 6 instructions: 350000001 cycles: 1948192404 heartbeat IPC: 0.0850739 cumulative IPC: 0.0840805 (Simulation time: 20 hr 30 min 58 sec) 
 Total Blocks : 262144 Invalid Blocks : 0
Heartbeat CPU 7 instructions: 350000001 cycles: 1948641831 heartbeat IPC: 0.0853371 cumulative IPC: 0.0840781 (Simulation time: 20 hr 31 min 11 sec) 
 Total Blocks : 262144 Invalid Blocks : 0
Heartbeat CPU 5 instructions: 350000002 cycles: 1949141156 heartbeat IPC: 0.0852778 cumulative IPC: 0.0840192 (Simulation time: 20 hr 31 min 25 sec) 
 Total Blocks : 262144 Invalid Blocks : 0
Heartbeat CPU 0 instructions: 360000001 cycles: 2063157492 heartbeat IPC: 0.0838548 cumulative IPC: 0.0841037 (Simulation time: 21 hr 24 min 24 sec) 
 Total Blocks : 262144 Invalid Blocks : 0
Heartbeat CPU 1 instructions: 360000001 cycles: 2065071423 heartbeat IPC: 0.0838007 cumulative IPC: 0.0840533 (Simulation time: 21 hr 25 min 18 sec) 
 Total Blocks : 262144 Invalid Blocks : 0
Heartbeat CPU 4 instructions: 360000000 cycles: 2065910536 heartbeat IPC: 0.0837188 cumulative IPC: 0.0841017 (Simulation time: 21 hr 25 min 43 sec) 
 Total Blocks : 262144 Invalid Blocks : 0
Heartbeat CPU 2 instructions: 360000000 cycles: 2065928487 heartbeat IPC: 0.0837155 cumulative IPC: 0.0840633 (Simulation time: 21 hr 25 min 43 sec) 
 Total Blocks : 262144 Invalid Blocks : 0
Heartbeat CPU 3 instructions: 360000001 cycles: 2066121510 heartbeat IPC: 0.0839017 cumulative IPC: 0.0840725 (Simulation time: 21 hr 25 min 48 sec) 
 Total Blocks : 262144 Invalid Blocks : 0
Heartbeat CPU 6 instructions: 360000001 cycles: 2067296704 heartbeat IPC: 0.08396 cumulative IPC: 0.0840729 (Simulation time: 21 hr 26 min 21 sec) 
 Total Blocks : 262144 Invalid Blocks : 0
Heartbeat CPU 7 instructions: 360000001 cycles: 2068132429 heartbeat IPC: 0.0836886 cumulative IPC: 0.0840536 (Simulation time: 21 hr 26 min 44 sec) 
 Total Blocks : 262144 Invalid Blocks : 0
Heartbeat CPU 5 instructions: 360000001 cycles: 2068401658 heartbeat IPC: 0.08385 cumulative IPC: 0.0840086 (Simulation time: 21 hr 26 min 52 sec) 
 Total Blocks : 262144 Invalid Blocks : 0
Heartbeat CPU 0 instructions: 370000000 cycles: 2181036390 heartbeat IPC: 0.0848328 cumulative IPC: 0.0841463 (Simulation time: 22 hr 20 min 16 sec) 
 Total Blocks : 262144 Invalid Blocks : 0
Heartbeat CPU 1 instructions: 370000000 cycles: 2182598891 heartbeat IPC: 0.0850865 cumulative IPC: 0.0841135 (Simulation time: 22 hr 21 min 1 sec) 
 Total Blocks : 262144 Invalid Blocks : 0
Heartbeat CPU 4 instructions: 370000000 cycles: 2183201375 heartbeat IPC: 0.0852581 cumulative IPC: 0.0841689 (Simulation time: 22 hr 21 min 19 sec) 
 Total Blocks : 262144 Invalid Blocks : 0
Heartbeat CPU 2 instructions: 370000000 cycles: 2183605207 heartbeat IPC: 0.0849786 cumulative IPC: 0.0841167 (Simulation time: 22 hr 21 min 31 sec) 
 Total Blocks : 262144 Invalid Blocks : 0
Heartbeat CPU 3 instructions: 370000000 cycles: 2183879589 heartbeat IPC: 0.0849199 cumulative IPC: 0.084122 (Simulation time: 22 hr 21 min 39 sec) 
 Total Blocks : 262144 Invalid Blocks : 0
Heartbeat CPU 6 instructions: 370000000 cycles: 2185337060 heartbeat IPC: 0.0847168 cumulative IPC: 0.0841105 (Simulation time: 22 hr 22 min 22 sec) 
 Total Blocks : 262144 Invalid Blocks : 0
Heartbeat CPU 7 instructions: 370000000 cycles: 2185886491 heartbeat IPC: 0.0849228 cumulative IPC: 0.0841042 (Simulation time: 22 hr 22 min 38 sec) 
 Total Blocks : 262144 Invalid Blocks : 0
Heartbeat CPU 5 instructions: 370000000 cycles: 2186136778 heartbeat IPC: 0.0849364 cumulative IPC: 0.0840626 (Simulation time: 22 hr 22 min 46 sec) 
 Total Blocks : 262144 Invalid Blocks : 0
Heartbeat CPU 0 instructions: 380000002 cycles: 2300703296 heartbeat IPC: 0.0835653 cumulative IPC: 0.0841138 (Simulation time: 23 hr 16 min 37 sec) 
 Total Blocks : 262144 Invalid Blocks : 0
Heartbeat CPU 1 instructions: 380000002 cycles: 2302324500 heartbeat IPC: 0.0835243 cumulative IPC: 0.0840805 (Simulation time: 23 hr 17 min 24 sec) 
 Total Blocks : 262144 Invalid Blocks : 0
Heartbeat CPU 4 instructions: 380000002 cycles: 2302761382 heartbeat IPC: 0.08364 cumulative IPC: 0.0841393 (Simulation time: 23 hr 17 min 36 sec) 
 Total Blocks : 262144 Invalid Blocks : 0
Heartbeat CPU 2 instructions: 380000002 cycles: 2303027710 heartbeat IPC: 0.0837363 cumulative IPC: 0.0840954 (Simulation time: 23 hr 17 min 44 sec) 
 Total Blocks : 262144 Invalid Blocks : 0
Heartbeat CPU 3 instructions: 380000002 cycles: 2303086194 heartbeat IPC: 0.083888 cumulative IPC: 0.0841089 (Simulation time: 23 hr 17 min 45 sec) 
 Total Blocks : 262144 Invalid Blocks : 0
Heartbeat CPU 6 instructions: 380000002 cycles: 2304630332 heartbeat IPC: 0.083827 cumulative IPC: 0.0840947 (Simulation time: 23 hr 18 min 28 sec) 
 Total Blocks : 262144 Invalid Blocks : 0
Heartbeat CPU 7 instructions: 380000002 cycles: 2305323191 heartbeat IPC: 0.0837264 cumulative IPC: 0.0840832 (Simulation time: 23 hr 18 min 47 sec) 
 Total Blocks : 262144 Invalid Blocks : 0
Heartbeat CPU 5 instructions: 380000002 cycles: 2305891811 heartbeat IPC: 0.0835038 cumulative IPC: 0.0840314 (Simulation time: 23 hr 19 min 3 sec) 
 Total Blocks : 262144 Invalid Blocks : 0
Heartbeat CPU 0 instructions: 390000003 cycles: 2418134640 heartbeat IPC: 0.0851562 cumulative IPC: 0.0841681 (Simulation time: 24 hr 12 min 54 sec) 
 Total Blocks : 262144 Invalid Blocks : 0
Heartbeat CPU 1 instructions: 390000003 cycles: 2419753989 heartbeat IPC: 0.0851575 cumulative IPC: 0.0841365 (Simulation time: 24 hr 13 min 40 sec) 
 Total Blocks : 262144 Invalid Blocks : 0
Heartbeat CPU 3 instructions: 390000002 cycles: 2420307157 heartbeat IPC: 0.085309 cumulative IPC: 0.0841713 (Simulation time: 24 hr 13 min 56 sec) 
 Total Blocks : 262144 Invalid Blocks : 0
Heartbeat CPU 2 instructions: 390000003 cycles: 2420415415 heartbeat IPC: 0.0851878 cumulative IPC: 0.0841523 (Simulation time: 24 hr 14 min 0 sec) 
 Total Blocks : 262144 Invalid Blocks : 0
Heartbeat CPU 4 instructions: 390000002 cycles: 2420533587 heartbeat IPC: 0.0849097 cumulative IPC: 0.0841795 (Simulation time: 24 hr 14 min 3 sec) 
 Total Blocks : 262144 Invalid Blocks : 0
Heartbeat CPU 6 instructions: 390000003 cycles: 2421952170 heartbeat IPC: 0.0852356 cumulative IPC: 0.084154 (Simulation time: 24 hr 14 min 42 sec) 
 Total Blocks : 262144 Invalid Blocks : 0
Heartbeat CPU 7 instructions: 390000003 cycles: 2422673819 heartbeat IPC: 0.0852147 cumulative IPC: 0.084142 (Simulation time: 24 hr 15 min 2 sec) 
 Total Blocks : 262144 Invalid Blocks : 0
Heartbeat CPU 5 instructions: 390000003 cycles: 2423406903 heartbeat IPC: 0.0850955 cumulative IPC: 0.0840867 (Simulation time: 24 hr 15 min 22 sec) 
 Total Blocks : 262144 Invalid Blocks : 0
Heartbeat CPU 0 instructions: 400000000 cycles: 2537748963 heartbeat IPC: 0.083602 cumulative IPC: 0.0841395 (Simulation time: 25 hr 10 min 22 sec) 
 Total Blocks : 262144 Invalid Blocks : 0
Heartbeat CPU 1 instructions: 400000000 cycles: 2539328430 heartbeat IPC: 0.0836299 cumulative IPC: 0.084111 (Simulation time: 25 hr 11 min 10 sec) 
 Total Blocks : 262144 Invalid Blocks : 0
Heartbeat CPU 3 instructions: 400000000 cycles: 2539946330 heartbeat IPC: 0.0835846 cumulative IPC: 0.0841417 (Simulation time: 25 hr 11 min 28 sec) 
 Total Blocks : 262144 Invalid Blocks : 0
Heartbeat CPU 2 instructions: 400000000 cycles: 2539961739 heartbeat IPC: 0.0836496 cumulative IPC: 0.084127 (Simulation time: 25 hr 11 min 28 sec) 
 Total Blocks : 262144 Invalid Blocks : 0
Heartbeat CPU 4 instructions: 400000000 cycles: 2540053909 heartbeat IPC: 0.0836678 cumulative IPC: 0.0841538 (Simulation time: 25 hr 11 min 31 sec) 
 Total Blocks : 262144 Invalid Blocks : 0
Finished CPU 4 instructions: 200000001 cycles: 2376655140 cumulative IPC: 0.0841519 (Simulation time: 25 hr 12 min 6 sec) 
Heartbeat CPU 6 instructions: 400000000 cycles: 2541562729 heartbeat IPC: 0.0836046 cumulative IPC: 0.0841264 (Simulation time: 25 hr 12 min 15 sec) 
 Total Blocks : 262144 Invalid Blocks : 0
Finished CPU 3 instructions: 200000002 cycles: 2377033174 cumulative IPC: 0.0841385 (Simulation time: 25 hr 12 min 16 sec) 
Finished CPU 0 instructions: 200000000 cycles: 2377232968 cumulative IPC: 0.0841314 (Simulation time: 25 hr 12 min 21 sec) 
Finished CPU 6 instructions: 200000001 cycles: 2377439328 cumulative IPC: 0.0841241 (Simulation time: 25 hr 12 min 27 sec) 
Finished CPU 2 instructions: 200000001 cycles: 2377495818 cumulative IPC: 0.0841221 (Simulation time: 25 hr 12 min 29 sec) 
Heartbeat CPU 7 instructions: 400000000 cycles: 2542175006 heartbeat IPC: 0.0836812 cumulative IPC: 0.0841188 (Simulation time: 25 hr 12 min 32 sec) 
 Total Blocks : 262144 Invalid Blocks : 0
Finished CPU 7 instructions: 200000000 cycles: 2377589828 cumulative IPC: 0.0841188 (Simulation time: 25 hr 12 min 32 sec) 
Finished CPU 1 instructions: 200000002 cycles: 2377969222 cumulative IPC: 0.0841054 (Simulation time: 25 hr 12 min 43 sec) 
Heartbeat CPU 5 instructions: 400000000 cycles: 2543238487 heartbeat IPC: 0.0834504 cumulative IPC: 0.0840547 (Simulation time: 25 hr 13 min 3 sec) 
 Total Blocks : 262144 Invalid Blocks : 0
Finished CPU 5 instructions: 200000000 cycles: 2379382624 cumulative IPC: 0.0840554 (Simulation time: 25 hr 13 min 23 sec) 

CPU 0 Branch Prediction Accuracy: 93.0725% MPKI: 13.9702 Average ROB Occupancy at Mispredict: 54.7475

CPU 1 Branch Prediction Accuracy: 93.0726% MPKI: 13.9745 Average ROB Occupancy at Mispredict: 54.7466

CPU 2 Branch Prediction Accuracy: 93.0738% MPKI: 13.9783 Average ROB Occupancy at Mispredict: 54.7526

CPU 3 Branch Prediction Accuracy: 93.0728% MPKI: 13.9828 Average ROB Occupancy at Mispredict: 54.7466

CPU 4 Branch Prediction Accuracy: 93.0721% MPKI: 13.9868 Average ROB Occupancy at Mispredict: 54.7435

CPU 5 Branch Prediction Accuracy: 93.0729% MPKI: 13.9875 Average ROB Occupancy at Mispredict: 54.7482

CPU 6 Branch Prediction Accuracy: 93.0709% MPKI: 13.9938 Average ROB Occupancy at Mispredict: 54.7382

CPU 7 Branch Prediction Accuracy: 93.0703% MPKI: 13.9973 Average ROB Occupancy at Mispredict: 54.7322

ChampSim completed all CPUs

Total Simulation Statistics (not including warmup)

CPU 0 cumulative IPC: 0.0841308 instructions: 200179394 cycles: 2379382624
ITLB TOTAL     ACCESS: 31175266  HIT: 31175266  MISS:     0  HIT %:   100  MISS %:     0  AVERAGE MISS PENALTY: 0
ITLB LOAD      ACCESS: 31175266  HIT: 31175266  MISS:     0  HIT %:   100  MISS %:     0  AVERAGE MISS PENALTY: 0
ITLB RFO       ACCESS:     0  HIT:     0  MISS:     0  HIT %:     0  MISS %:     0  AVERAGE MISS PENALTY: 0
ITLB PREFETCH  ACCESS:     0  HIT:     0  MISS:     0  HIT %:     0  MISS %:     0  AVERAGE MISS PENALTY: 0
ITLB WRITEBACK ACCESS:     0  HIT:     0  MISS:     0  HIT %:     0  MISS %:     0  AVERAGE MISS PENALTY: 0

DTLB TOTAL     ACCESS: 45906344  HIT: 36366197  MISS: 9540147  HIT %: 79.2182  MISS %: 20.7818  AVERAGE MISS PENALTY: 9.46789
DTLB LOAD      ACCESS: 45839949  HIT: 36299802  MISS: 9540147  HIT %: 79.1881  MISS %: 20.8119  AVERAGE MISS PENALTY: 9.46789
DTLB RFO       ACCESS: 66395  HIT: 66395  MISS:     0  HIT %:   100  MISS %:     0  AVERAGE MISS PENALTY: 0
DTLB PREFETCH  ACCESS:     0  HIT:     0  MISS:     0  HIT %:     0  MISS %:     0  AVERAGE MISS PENALTY: 0
DTLB WRITEBACK ACCESS:     0  HIT:     0  MISS:     0  HIT %:     0  MISS %:     0  AVERAGE MISS PENALTY: 0

STLB TOTAL     ACCESS: 9540147  HIT: 9525780  MISS: 14367  HIT %: 99.8494  MISS %: 0.150595  AVERAGE MISS PENALTY: 100
STLB LOAD      ACCESS: 9540147  HIT: 9525780  MISS: 14367  HIT %: 99.8494  MISS %: 0.150595  AVERAGE MISS PENALTY: 100
STLB RFO       ACCESS:     0  HIT:     0  MISS:     0  HIT %:     0  MISS %:     0  AVERAGE MISS PENALTY: 0
STLB PREFETCH  ACCESS:     0  HIT:     0  MISS:     0  HIT %:     0  MISS %:     0  AVERAGE MISS PENALTY: 0
STLB WRITEBACK ACCESS:     0  HIT:     0  MISS:     0  HIT %:     0  MISS %:     0  AVERAGE MISS PENALTY: 0

L1D TOTAL     ACCESS: 104441835  HIT: 51573897  MISS: 52867938  HIT %: 49.3805  MISS %: 50.6195  AVERAGE MISS PENALTY: 4.34119e+06
L1D LOAD      ACCESS: 43129625  HIT: 28993925  MISS: 14135700  HIT %: 67.2251  MISS %: 32.7749  AVERAGE MISS PENALTY: 1.62353e+07
L1D RFO       ACCESS: 66401  HIT: 66401  MISS:     0  HIT %:   100  MISS %:     0  AVERAGE MISS PENALTY: 0
L1D PREFETCH  ACCESS: 61245809  HIT: 22513571  MISS: 38732238  HIT %: 36.7594  MISS %: 63.2406  AVERAGE MISS PENALTY: 308.711
L1D WRITEBACK ACCESS:     0  HIT:     0  MISS:     0  HIT %:     0  MISS %:     0  AVERAGE MISS PENALTY: 0

L1I TOTAL     ACCESS: 42411086  HIT: 42411086  MISS:     0  HIT %:   100  MISS %:     0  AVERAGE MISS PENALTY: 0
L1I LOAD      ACCESS: 42411086  HIT: 42411086  MISS:     0  HIT %:   100  MISS %:     0  AVERAGE MISS PENALTY: 0
L1I RFO       ACCESS:     0  HIT:     0  MISS:     0  HIT %:     0  MISS %:     0  AVERAGE MISS PENALTY: 0
L1I PREFETCH  ACCESS:     0  HIT:     0  MISS:     0  HIT %:     0  MISS %:     0  AVERAGE MISS PENALTY: 0
L1I WRITEBACK ACCESS:     0  HIT:     0  MISS:     0  HIT %:     0  MISS %:     0  AVERAGE MISS PENALTY: 0

L2C TOTAL     ACCESS: 83786253  HIT: 5994159  MISS: 77792094  HIT %: 7.15411  MISS %: 92.8459  AVERAGE MISS PENALTY: 3.15964e+06
L2C LOAD      ACCESS: 14131444  HIT: 261444  MISS: 13870000  HIT %: 1.85009  MISS %: 98.1499  AVERAGE MISS PENALTY: 1.77199e+07
L2C RFO       ACCESS:     0  HIT:     0  MISS:     0  HIT %:     0  MISS %:     0  AVERAGE MISS PENALTY: 0
L2C PREFETCH  ACCESS: 69599272  HIT: 5715873  MISS: 63883399  HIT %: 8.21255  MISS %: 91.7875  AVERAGE MISS PENALTY: 322.196
L2C WRITEBACK ACCESS: 55537  HIT: 16842  MISS: 38695  HIT %: 30.3257  MISS %: 69.6743  AVERAGE MISS PENALTY: 0


LLC0 TOTAL     ACCESS: 9956136  HIT: 5460221  MISS: 4495915  HIT %: 54.8428  MISS %: 45.1572  AVERAGE MISS PENALTY: 653.185
LLC0 LOAD      ACCESS: 1725901  HIT: 970799  MISS: 755102  HIT %: 56.2488  MISS %: 43.7512  AVERAGE MISS PENALTY: 643.303
LLC0 RFO       ACCESS:     0  HIT:     0  MISS:     0  HIT %:     0  MISS %:     0  AVERAGE MISS PENALTY: 0
LLC0 PREFETCH  ACCESS: 8223256  HIT: 4482561  MISS: 3740695  HIT %: 54.5108  MISS %: 45.4892  AVERAGE MISS PENALTY: 655.201
LLC0 WRITEBACK ACCESS:  6979  HIT:  6861  MISS:   118  HIT %: 98.3092  MISS %: 1.69079  AVERAGE MISS PENALTY: 0

LLC1 TOTAL     ACCESS: 10040562  HIT: 5497466  MISS: 4543096  HIT %: 54.7526  MISS %: 45.2474  AVERAGE MISS PENALTY: 650.111
LLC1 LOAD      ACCESS: 1722405  HIT: 967617  MISS: 754788  HIT %: 56.1783  MISS %: 43.8217  AVERAGE MISS PENALTY: 641.017
LLC1 RFO       ACCESS:     0  HIT:     0  MISS:     0  HIT %:     0  MISS %:     0  AVERAGE MISS PENALTY: 0
LLC1 PREFETCH  ACCESS: 8311197  HIT: 4523019  MISS: 3788178  HIT %: 54.4208  MISS %: 45.5792  AVERAGE MISS PENALTY: 651.945
LLC1 WRITEBACK ACCESS:  6960  HIT:  6830  MISS:   130  HIT %: 98.1322  MISS %: 1.86782  AVERAGE MISS PENALTY: 0

LLC2 TOTAL     ACCESS: 9977969  HIT: 5460481  MISS: 4517488  HIT %: 54.7254  MISS %: 45.2746  AVERAGE MISS PENALTY: 646.298
LLC2 LOAD      ACCESS: 1687911  HIT: 945365  MISS: 742546  HIT %: 56.008  MISS %: 43.992  AVERAGE MISS PENALTY: 645.737
LLC2 RFO       ACCESS:     0  HIT:     0  MISS:     0  HIT %:     0  MISS %:     0  AVERAGE MISS PENALTY: 0
LLC2 PREFETCH  ACCESS: 8283050  HIT: 4508244  MISS: 3774806  HIT %: 54.4273  MISS %: 45.5727  AVERAGE MISS PENALTY: 646.432
LLC2 WRITEBACK ACCESS:  7008  HIT:  6872  MISS:   136  HIT %: 98.0594  MISS %: 1.94064  AVERAGE MISS PENALTY: 0

LLC3 TOTAL     ACCESS: 9860512  HIT: 5415754  MISS: 4444758  HIT %: 54.9237  MISS %: 45.0763  AVERAGE MISS PENALTY: 645.215
LLC3 LOAD      ACCESS: 1674821  HIT: 941686  MISS: 733135  HIT %: 56.2261  MISS %: 43.7739  AVERAGE MISS PENALTY: 642.972
LLC3 RFO       ACCESS:     0  HIT:     0  MISS:     0  HIT %:     0  MISS %:     0  AVERAGE MISS PENALTY: 0
LLC3 PREFETCH  ACCESS: 8178876  HIT: 4467384  MISS: 3711492  HIT %: 54.621  MISS %: 45.379  AVERAGE MISS PENALTY: 645.681
LLC3 WRITEBACK ACCESS:  6815  HIT:  6684  MISS:   131  HIT %: 98.0778  MISS %: 1.92223  AVERAGE MISS PENALTY: 0

LLC4 TOTAL     ACCESS: 9760386  HIT: 5362638  MISS: 4397748  HIT %: 54.9429  MISS %: 45.0571  AVERAGE MISS PENALTY: 613.197
LLC4 LOAD      ACCESS: 1760592  HIT: 1010771  MISS: 749821  HIT %: 57.4109  MISS %: 42.5891  AVERAGE MISS PENALTY: 600.859
LLC4 RFO       ACCESS:     0  HIT:     0  MISS:     0  HIT %:     0  MISS %:     0  AVERAGE MISS PENALTY: 0
LLC4 PREFETCH  ACCESS: 7992817  HIT: 4345035  MISS: 3647782  HIT %: 54.3617  MISS %: 45.6383  AVERAGE MISS PENALTY: 615.758
LLC4 WRITEBACK ACCESS:  6977  HIT:  6832  MISS:   145  HIT %: 97.9217  MISS %: 2.07826  AVERAGE MISS PENALTY: 0

LLC5 TOTAL     ACCESS: 9579058  HIT: 5252280  MISS: 4326778  HIT %: 54.8309  MISS %: 45.1691  AVERAGE MISS PENALTY: 603.568
LLC5 LOAD      ACCESS: 1741247  HIT: 993706  MISS: 747541  HIT %: 57.0686  MISS %: 42.9314  AVERAGE MISS PENALTY: 590.264
LLC5 RFO       ACCESS:     0  HIT:     0  MISS:     0  HIT %:     0  MISS %:     0  AVERAGE MISS PENALTY: 0
LLC5 PREFETCH  ACCESS: 7830961  HIT: 4251862  MISS: 3579099  HIT %: 54.2955  MISS %: 45.7045  AVERAGE MISS PENALTY: 606.371
LLC5 WRITEBACK ACCESS:  6850  HIT:  6712  MISS:   138  HIT %: 97.9854  MISS %: 2.0146  AVERAGE MISS PENALTY: 0

LLC6 TOTAL     ACCESS: 9409118  HIT: 5155089  MISS: 4254029  HIT %: 54.7882  MISS %: 45.2118  AVERAGE MISS PENALTY: 611.524
LLC6 LOAD      ACCESS: 1724503  HIT: 982433  MISS: 742070  HIT %: 56.9691  MISS %: 43.0309  AVERAGE MISS PENALTY: 596.818
LLC6 RFO       ACCESS:     0  HIT:     0  MISS:     0  HIT %:     0  MISS %:     0  AVERAGE MISS PENALTY: 0
LLC6 PREFETCH  ACCESS: 7677591  HIT: 4165779  MISS: 3511812  HIT %: 54.2589  MISS %: 45.7411  AVERAGE MISS PENALTY: 614.658
LLC6 WRITEBACK ACCESS:  7024  HIT:  6877  MISS:   147  HIT %: 97.9072  MISS %: 2.09282  AVERAGE MISS PENALTY: 0

LLC7 TOTAL     ACCESS: 9225197  HIT: 5052170  MISS: 4173027  HIT %: 54.7649  MISS %: 45.2351  AVERAGE MISS PENALTY: 606.047
LLC7 LOAD      ACCESS: 1726041  HIT: 998258  MISS: 727783  HIT %: 57.8351  MISS %: 42.1649  AVERAGE MISS PENALTY: 591.987
LLC7 RFO       ACCESS:     0  HIT:     0  MISS:     0  HIT %:     0  MISS %:     0  AVERAGE MISS PENALTY: 0
LLC7 PREFETCH  ACCESS: 7492229  HIT: 4047102  MISS: 3445127  HIT %: 54.0173  MISS %: 45.9827  AVERAGE MISS PENALTY: 609.037
LLC7 WRITEBACK ACCESS:  6927  HIT:  6810  MISS:   117  HIT %: 98.311  MISS %: 1.68904  AVERAGE MISS PENALTY: 0

Total Rob stall cycles : 	2304653105
Total Load Rob Stall cycles : 	1441569795
Average Rob Stall cycles : 	 28
Average Load Rob Stall cycles : 	 219

CPU 1 cumulative IPC: 0.0841059 instructions: 200120223 cycles: 2379382624
ITLB TOTAL     ACCESS: 31162363  HIT: 31162363  MISS:     0  HIT %:   100  MISS %:     0  AVERAGE MISS PENALTY: 0
ITLB LOAD      ACCESS: 31162363  HIT: 31162363  MISS:     0  HIT %:   100  MISS %:     0  AVERAGE MISS PENALTY: 0
ITLB RFO       ACCESS:     0  HIT:     0  MISS:     0  HIT %:     0  MISS %:     0  AVERAGE MISS PENALTY: 0
ITLB PREFETCH  ACCESS:     0  HIT:     0  MISS:     0  HIT %:     0  MISS %:     0  AVERAGE MISS PENALTY: 0
ITLB WRITEBACK ACCESS:     0  HIT:     0  MISS:     0  HIT %:     0  MISS %:     0  AVERAGE MISS PENALTY: 0

DTLB TOTAL     ACCESS: 45893802  HIT: 36356739  MISS: 9537063  HIT %: 79.2193  MISS %: 20.7807  AVERAGE MISS PENALTY: 9.46725
DTLB LOAD      ACCESS: 45827362  HIT: 36290299  MISS: 9537063  HIT %: 79.1892  MISS %: 20.8108  AVERAGE MISS PENALTY: 9.46725
DTLB RFO       ACCESS: 66440  HIT: 66440  MISS:     0  HIT %:   100  MISS %:     0  AVERAGE MISS PENALTY: 0
DTLB PREFETCH  ACCESS:     0  HIT:     0  MISS:     0  HIT %:     0  MISS %:     0  AVERAGE MISS PENALTY: 0
DTLB WRITEBACK ACCESS:     0  HIT:     0  MISS:     0  HIT %:     0  MISS %:     0  AVERAGE MISS PENALTY: 0

STLB TOTAL     ACCESS: 9537063  HIT: 9522700  MISS: 14363  HIT %: 99.8494  MISS %: 0.150602  AVERAGE MISS PENALTY: 100
STLB LOAD      ACCESS: 9537063  HIT: 9522700  MISS: 14363  HIT %: 99.8494  MISS %: 0.150602  AVERAGE MISS PENALTY: 100
STLB RFO       ACCESS:     0  HIT:     0  MISS:     0  HIT %:     0  MISS %:     0  AVERAGE MISS PENALTY: 0
STLB PREFETCH  ACCESS:     0  HIT:     0  MISS:     0  HIT %:     0  MISS %:     0  AVERAGE MISS PENALTY: 0
STLB WRITEBACK ACCESS:     0  HIT:     0  MISS:     0  HIT %:     0  MISS %:     0  AVERAGE MISS PENALTY: 0

L1D TOTAL     ACCESS: 104410843  HIT: 51563010  MISS: 52847833  HIT %: 49.3847  MISS %: 50.6153  AVERAGE MISS PENALTY: 4.35186e+06
L1D LOAD      ACCESS: 43118018  HIT: 28986468  MISS: 14131550  HIT %: 67.2259  MISS %: 32.7741  AVERAGE MISS PENALTY: 1.62737e+07
L1D RFO       ACCESS: 66445  HIT: 66445  MISS:     0  HIT %:   100  MISS %:     0  AVERAGE MISS PENALTY: 0
L1D PREFETCH  ACCESS: 61226380  HIT: 22510097  MISS: 38716283  HIT %: 36.7654  MISS %: 63.2346  AVERAGE MISS PENALTY: 343.073
L1D WRITEBACK ACCESS:     0  HIT:     0  MISS:     0  HIT %:     0  MISS %:     0  AVERAGE MISS PENALTY: 0

L1I TOTAL     ACCESS: 42394425  HIT: 42394425  MISS:     0  HIT %:   100  MISS %:     0  AVERAGE MISS PENALTY: 0
L1I LOAD      ACCESS: 42394425  HIT: 42394425  MISS:     0  HIT %:   100  MISS %:     0  AVERAGE MISS PENALTY: 0
L1I RFO       ACCESS:     0  HIT:     0  MISS:     0  HIT %:     0  MISS %:     0  AVERAGE MISS PENALTY: 0
L1I PREFETCH  ACCESS:     0  HIT:     0  MISS:     0  HIT %:     0  MISS %:     0  AVERAGE MISS PENALTY: 0
L1I WRITEBACK ACCESS:     0  HIT:     0  MISS:     0  HIT %:     0  MISS %:     0  AVERAGE MISS PENALTY: 0

L2C TOTAL     ACCESS: 83757096  HIT: 5978284  MISS: 77778812  HIT %: 7.13764  MISS %: 92.8624  AVERAGE MISS PENALTY: 3.1698e+06
L2C LOAD      ACCESS: 14127287  HIT: 248457  MISS: 13878830  HIT %: 1.7587  MISS %: 98.2413  AVERAGE MISS PENALTY: 1.77625e+07
L2C RFO       ACCESS:     0  HIT:     0  MISS:     0  HIT %:     0  MISS %:     0  AVERAGE MISS PENALTY: 0
L2C PREFETCH  ACCESS: 69574245  HIT: 5713056  MISS: 63861189  HIT %: 8.21145  MISS %: 91.7885  AVERAGE MISS PENALTY: 325.139
L2C WRITEBACK ACCESS: 55564  HIT: 16771  MISS: 38793  HIT %: 30.1832  MISS %: 69.8168  AVERAGE MISS PENALTY: 0


LLC0 TOTAL     ACCESS: 9964409  HIT: 5470360  MISS: 4494049  HIT %: 54.899  MISS %: 45.101  AVERAGE MISS PENALTY: 654.008
LLC0 LOAD      ACCESS: 1737741  HIT: 981134  MISS: 756607  HIT %: 56.4603  MISS %: 43.5397  AVERAGE MISS PENALTY: 643.866
LLC0 RFO       ACCESS:     0  HIT:     0  MISS:     0  HIT %:     0  MISS %:     0  AVERAGE MISS PENALTY: 0
LLC0 PREFETCH  ACCESS: 8219686  HIT: 4482381  MISS: 3737305  HIT %: 54.5323  MISS %: 45.4677  AVERAGE MISS PENALTY: 656.085
LLC0 WRITEBACK ACCESS:  6982  HIT:  6845  MISS:   137  HIT %: 98.0378  MISS %: 1.96219  AVERAGE MISS PENALTY: 0

LLC1 TOTAL     ACCESS: 10040743  HIT: 5499950  MISS: 4540793  HIT %: 54.7763  MISS %: 45.2237  AVERAGE MISS PENALTY: 650.349
LLC1 LOAD      ACCESS: 1721706  HIT: 967612  MISS: 754094  HIT %: 56.2008  MISS %: 43.7992  AVERAGE MISS PENALTY: 641.399
LLC1 RFO       ACCESS:     0  HIT:     0  MISS:     0  HIT %:     0  MISS %:     0  AVERAGE MISS PENALTY: 0
LLC1 PREFETCH  ACCESS: 8312072  HIT: 4525508  MISS: 3786564  HIT %: 54.445  MISS %: 45.555  AVERAGE MISS PENALTY: 652.154
LLC1 WRITEBACK ACCESS:  6965  HIT:  6830  MISS:   135  HIT %: 98.0617  MISS %: 1.93826  AVERAGE MISS PENALTY: 0

LLC2 TOTAL     ACCESS: 9973039  HIT: 5458157  MISS: 4514882  HIT %: 54.7291  MISS %: 45.2709  AVERAGE MISS PENALTY: 647.251
LLC2 LOAD      ACCESS: 1687529  HIT: 944729  MISS: 742800  HIT %: 55.983  MISS %: 44.017  AVERAGE MISS PENALTY: 645.678
LLC2 RFO       ACCESS:     0  HIT:     0  MISS:     0  HIT %:     0  MISS %:     0  AVERAGE MISS PENALTY: 0
LLC2 PREFETCH  ACCESS: 8278501  HIT: 4506552  MISS: 3771949  HIT %: 54.4368  MISS %: 45.5632  AVERAGE MISS PENALTY: 647.583
LLC2 WRITEBACK ACCESS:  7009  HIT:  6876  MISS:   133  HIT %: 98.1024  MISS %: 1.89756  AVERAGE MISS PENALTY: 0

LLC3 TOTAL     ACCESS: 9854460  HIT: 5411575  MISS: 4442885  HIT %: 54.915  MISS %: 45.085  AVERAGE MISS PENALTY: 645.743
LLC3 LOAD      ACCESS: 1674231  HIT: 940056  MISS: 734175  HIT %: 56.1485  MISS %: 43.8515  AVERAGE MISS PENALTY: 642.872
LLC3 RFO       ACCESS:     0  HIT:     0  MISS:     0  HIT %:     0  MISS %:     0  AVERAGE MISS PENALTY: 0
[...]
 TIMELY PREFETCHES:    3094844 LATE PREFETCHES: 0 DROPPED PREFETCHES: 0
LLC1 AVERAGE MISS LATENCY: 651.046 cycles
LLC2 TOTAL     ACCESS: 9968975  HIT: 5453956  MISS: 4515019  HIT %: 54.7093  MISS %: 45.2907  AVERAGE MISS PENALTY: 683.712
LLC2 LOAD      ACCESS: 1686339  HIT: 943885  MISS: 742454  HIT %: 55.9724  MISS %: 44.0276  AVERAGE MISS PENALTY: 866.941
LLC2 RFO       ACCESS:     0  HIT:     0  MISS:     0  HIT %:     0  MISS %:     0  AVERAGE MISS PENALTY: 0
LLC2 PREFETCH  ACCESS: 8275616  HIT: 4503173  MISS: 3772443  HIT %: 54.415  MISS %: 45.585  AVERAGE MISS PENALTY: 647.673
LLC2 WRITEBACK ACCESS:  7020  HIT:  6898  MISS:   122  HIT %: 98.2621  MISS %: 1.73789  AVERAGE MISS PENALTY: 0
LLC2 PREFETCH  REQUESTED:     0  ISSUED:     0  USEFUL: 3035971  USELESS: 27156510
 USEFUL LOAD PREFETCHES:    3035971 PREFETCH ISSUED TO LOWER LEVEL:  110764136  ACCURACY: 2.74093
 TIMELY PREFETCHES:    3035971 LATE PREFETCHES: 0 DROPPED PREFETCHES: 0
LLC2 AVERAGE MISS LATENCY: 647.259 cycles
LLC3 TOTAL     ACCESS: 9851162  HIT: 5405822  MISS: 4445340  HIT %: 54.875  MISS %: 45.125  AVERAGE MISS PENALTY: 646.211
LLC3 LOAD      ACCESS: 1673211  HIT: 938953  MISS: 734258  HIT %: 56.1168  MISS %: 43.8832  AVERAGE MISS PENALTY: 643.909
LLC3 RFO       ACCESS:     0  HIT:     0  MISS:     0  HIT %:     0  MISS %:     0  AVERAGE MISS PENALTY: 0
LLC3 PREFETCH  ACCESS: 8171124  HIT: 4460170  MISS: 3710954  HIT %: 54.5845  MISS %: 45.4155  AVERAGE MISS PENALTY: 646.688
LLC3 WRITEBACK ACCESS:  6827  HIT:  6699  MISS:   128  HIT %: 98.1251  MISS %: 1.87491  AVERAGE MISS PENALTY: 0
LLC3 PREFETCH  REQUESTED:     0  ISSUED:     0  USEFUL: 3054019  USELESS: 26641282
 USEFUL LOAD PREFETCHES:    3054019 PREFETCH ISSUED TO LOWER LEVEL:   98278924  ACCURACY: 3.1075
 TIMELY PREFETCHES:    3054019 LATE PREFETCHES: 0 DROPPED PREFETCHES: 0
LLC3 AVERAGE MISS LATENCY: 646.211 cycles
LLC4 TOTAL     ACCESS: 9751538  HIT: 5355760  MISS: 4395778  HIT %: 54.9222  MISS %: 45.0778  AVERAGE MISS PENALTY: 613.648
LLC4 LOAD      ACCESS: 1759065  HIT: 1009368  MISS: 749697  HIT %: 57.3809  MISS %: 42.6191  AVERAGE MISS PENALTY: 601.764
LLC4 RFO       ACCESS:     0  HIT:     0  MISS:     0  HIT %:     0  MISS %:     0  AVERAGE MISS PENALTY: 0
LLC4 PREFETCH  ACCESS: 7985486  HIT: 4339542  MISS: 3645944  HIT %: 54.3429  MISS %: 45.6571  AVERAGE MISS PENALTY: 616.115
LLC4 WRITEBACK ACCESS:  6987  HIT:  6850  MISS:   137  HIT %: 98.0392  MISS %: 1.96078  AVERAGE MISS PENALTY: 0
LLC4 PREFETCH  REQUESTED:     0  ISSUED:     0  USEFUL: 2992054  USELESS: 26190416
 USEFUL LOAD PREFETCHES:    2992054 PREFETCH ISSUED TO LOWER LEVEL:  156644570  ACCURACY: 1.91009
 TIMELY PREFETCHES:    2992054 LATE PREFETCHES: 0 DROPPED PREFETCHES: 0
LLC4 AVERAGE MISS LATENCY: 613.648 cycles
LLC5 TOTAL     ACCESS: 9569916  HIT: 5241480  MISS: 4328436  HIT %: 54.7704  MISS %: 45.2296  AVERAGE MISS PENALTY: 604.32
LLC5 LOAD      ACCESS: 1739404  HIT: 992217  MISS: 747187  HIT %: 57.0435  MISS %: 42.9565  AVERAGE MISS PENALTY: 590.371
LLC5 RFO       ACCESS:     0  HIT:     0  MISS:     0  HIT %:     0  MISS %:     0  AVERAGE MISS PENALTY: 0
LLC5 PREFETCH  ACCESS: 7823640  HIT: 4242524  MISS: 3581116  HIT %: 54.227  MISS %: 45.773  AVERAGE MISS PENALTY: 607.253
LLC5 WRITEBACK ACCESS:  6872  HIT:  6739  MISS:   133  HIT %: 98.0646  MISS %: 1.93539  AVERAGE MISS PENALTY: 0
LLC5 PREFETCH  REQUESTED:     0  ISSUED:     0  USEFUL: 2982168  USELESS: 25668265
 USEFUL LOAD PREFETCHES:    2982168 PREFETCH ISSUED TO LOWER LEVEL:  136610768  ACCURACY: 2.18297
 TIMELY PREFETCHES:    2982168 LATE PREFETCHES: 0 DROPPED PREFETCHES: 0
LLC5 AVERAGE MISS LATENCY: 604.32 cycles
LLC6 TOTAL     ACCESS: 9399671  HIT: 5150356  MISS: 4249315  HIT %: 54.7929  MISS %: 45.2071  AVERAGE MISS PENALTY: 612.702
LLC6 LOAD      ACCESS: 1723228  HIT: 982106  MISS: 741122  HIT %: 56.9922  MISS %: 43.0078  AVERAGE MISS PENALTY: 597.583
LLC6 RFO       ACCESS:     0  HIT:     0  MISS:     0  HIT %:     0  MISS %:     0  AVERAGE MISS PENALTY: 0
LLC6 PREFETCH  ACCESS: 7669404  HIT: 4161345  MISS: 3508059  HIT %: 54.259  MISS %: 45.741  AVERAGE MISS PENALTY: 615.92
LLC6 WRITEBACK ACCESS:  7039  HIT:  6905  MISS:   134  HIT %: 98.0963  MISS %: 1.90368  AVERAGE MISS PENALTY: 0
LLC6 PREFETCH  REQUESTED:     0  ISSUED:     0  USEFUL: 2907753  USELESS: 25180953
 USEFUL LOAD PREFETCHES:    2907753 PREFETCH ISSUED TO LOWER LEVEL:  217877929  ACCURACY: 1.33458
 TIMELY PREFETCHES:    2907753 LATE PREFETCHES: 0 DROPPED PREFETCHES: 0
LLC6 AVERAGE MISS LATENCY: 612.702 cycles
LLC7 TOTAL     ACCESS: 9217146  HIT: 5046248  MISS: 4170898  HIT %: 54.7485  MISS %: 45.2515  AVERAGE MISS PENALTY: 606.777
LLC7 LOAD      ACCESS: 1724557  HIT: 996629  MISS: 727928  HIT %: 57.7904  MISS %: 42.2096  AVERAGE MISS PENALTY: 592.156
LLC7 RFO       ACCESS:     0  HIT:     0  MISS:     0  HIT %:     0  MISS %:     0  AVERAGE MISS PENALTY: 0
LLC7 PREFETCH  ACCESS: 7485652  HIT: 4042795  MISS: 3442857  HIT %: 54.0073  MISS %: 45.9927  AVERAGE MISS PENALTY: 609.888
LLC7 WRITEBACK ACCESS:  6937  HIT:  6824  MISS:   113  HIT %: 98.3711  MISS %: 1.62895  AVERAGE MISS PENALTY: 0
LLC7 PREFETCH  REQUESTED:     0  ISSUED:     0  USEFUL: 2813590  USELESS: 24750557
 USEFUL LOAD PREFETCHES:    2813590 PREFETCH ISSUED TO LOWER LEVEL:  187901124  ACCURACY: 1.49738
 TIMELY PREFETCHES:    2813590 LATE PREFETCHES: 0 DROPPED PREFETCHES: 0
LLC7 AVERAGE MISS LATENCY: 606.777 cycles
ROI Average ROB Stall Cycles:	28.6859
ROI Total ROB Stalls Cycles:	2302774780
ROI TOTAL ROB counter      :	80275375
ROI Average Load ROB Stall Cycles:	219.11
ROI Total Load ROB Stalls Cycle  :	1441171522
ROI Total Load ROB stalls Counter:	6577389
Major fault: 0 Minor fault: 29444

CPU 7 cumulative IPC: 0.0841188 instructions: 200000000 cycles: 2377589828
ITLB TOTAL     ACCESS: 31144125  HIT: 31144125  MISS:     0  HIT %:   100  MISS %:     0  AVERAGE MISS PENALTY: 0
ITLB LOAD      ACCESS: 31144125  HIT: 31144125  MISS:     0  HIT %:   100  MISS %:     0  AVERAGE MISS PENALTY: 0
ITLB RFO       ACCESS:     0  HIT:     0  MISS:     0  HIT %:     0  MISS %:     0  AVERAGE MISS PENALTY: 0
ITLB PREFETCH  ACCESS:     0  HIT:     0  MISS:     0  HIT %:     0  MISS %:     0  AVERAGE MISS PENALTY: 0
ITLB WRITEBACK ACCESS:     0  HIT:     0  MISS:     0  HIT %:     0  MISS %:     0  AVERAGE MISS PENALTY: 0
ITLB PREFETCH  REQUESTED:     0  ISSUED:     0  USEFUL:     0  USELESS:     0
 USEFUL LOAD PREFETCHES:          0 PREFETCH ISSUED TO LOWER LEVEL:          0  ACCURACY: -nan
 TIMELY PREFETCHES:          0 LATE PREFETCHES: 0 DROPPED PREFETCHES: 0
ITLB AVERAGE MISS LATENCY: -nan cycles
DTLB TOTAL     ACCESS: 45863150  HIT: 36337465  MISS: 9525685  HIT %: 79.2302  MISS %: 20.7698  AVERAGE MISS PENALTY: 9.46759
DTLB LOAD      ACCESS: 45796584  HIT: 36270899  MISS: 9525685  HIT %:  79.2  MISS %:  20.8  AVERAGE MISS PENALTY: 9.46759
DTLB RFO       ACCESS: 66566  HIT: 66566  MISS:     0  HIT %:   100  MISS %:     0  AVERAGE MISS PENALTY: 0
DTLB PREFETCH  ACCESS:     0  HIT:     0  MISS:     0  HIT %:     0  MISS %:     0  AVERAGE MISS PENALTY: 0
DTLB WRITEBACK ACCESS:     0  HIT:     0  MISS:     0  HIT %:     0  MISS %:     0  AVERAGE MISS PENALTY: 0
DTLB PREFETCH  REQUESTED:     0  ISSUED:     0  USEFUL:     0  USELESS:     0
 USEFUL LOAD PREFETCHES:          0 PREFETCH ISSUED TO LOWER LEVEL:          0  ACCURACY: -nan
 TIMELY PREFETCHES:          0 LATE PREFETCHES: 0 DROPPED PREFETCHES: 0
DTLB AVERAGE MISS LATENCY: 9.46759 cycles
STLB TOTAL     ACCESS: 9525685  HIT: 9511332  MISS: 14353  HIT %: 99.8493  MISS %: 0.150677  AVERAGE MISS PENALTY: 100
STLB LOAD      ACCESS: 9525685  HIT: 9511332  MISS: 14353  HIT %: 99.8493  MISS %: 0.150677  AVERAGE MISS PENALTY: 100
STLB RFO       ACCESS:     0  HIT:     0  MISS:     0  HIT %:     0  MISS %:     0  AVERAGE MISS PENALTY: 0
STLB PREFETCH  ACCESS:     0  HIT:     0  MISS:     0  HIT %:     0  MISS %:     0  AVERAGE MISS PENALTY: 0
STLB WRITEBACK ACCESS:     0  HIT:     0  MISS:     0  HIT %:     0  MISS %:     0  AVERAGE MISS PENALTY: 0
STLB PREFETCH  REQUESTED:     0  ISSUED:     0  USEFUL:     0  USELESS:     0
 USEFUL LOAD PREFETCHES:          0 PREFETCH ISSUED TO LOWER LEVEL:          0  ACCURACY: -nan
 TIMELY PREFETCHES:          0 LATE PREFETCHES: 0 DROPPED PREFETCHES: 0
STLB AVERAGE MISS LATENCY: 100 cycles
L1D TOTAL     ACCESS: 104353701  HIT: 51534128  MISS: 52819573  HIT %: 49.3841  MISS %: 50.6159  AVERAGE MISS PENALTY: 4.35777e+06
L1D LOAD      ACCESS: 43092701  HIT: 28969593  MISS: 14123108  HIT %: 67.2262  MISS %: 32.7738  AVERAGE MISS PENALTY: 1.62968e+07
L1D RFO       ACCESS: 66571  HIT: 66571  MISS:     0  HIT %:   100  MISS %:     0  AVERAGE MISS PENALTY: 0
L1D PREFETCH  ACCESS: 61194429  HIT: 22497964  MISS: 38696465  HIT %: 36.7647  MISS %: 63.2353  AVERAGE MISS PENALTY: 355.905
L1D WRITEBACK ACCESS:     0  HIT:     0  MISS:     0  HIT %:     0  MISS %:     0  AVERAGE MISS PENALTY: 0
L1D PREFETCH  REQUESTED: 80803426  ISSUED: 62510218  USEFUL: 1357343  USELESS: 37339118
 USEFUL LOAD PREFETCHES:    1357343 PREFETCH ISSUED TO LOWER LEVEL:  451692674  ACCURACY: 0.300501
 TIMELY PREFETCHES:    1357343 LATE PREFETCHES: 455218 DROPPED PREFETCHES: 18293208
L1D AVERAGE MISS LATENCY: 310.173 cycles
L1I TOTAL     ACCESS: 42370338  HIT: 42370338  MISS:     0  HIT %:   100  MISS %:     0  AVERAGE MISS PENALTY: 0
L1I LOAD      ACCESS: 42370338  HIT: 42370338  MISS:     0  HIT %:   100  MISS %:     0  AVERAGE MISS PENALTY: 0
L1I RFO       ACCESS:     0  HIT:     0  MISS:     0  HIT %:     0  MISS %:     0  AVERAGE MISS PENALTY: 0
L1I PREFETCH  ACCESS:     0  HIT:     0  MISS:     0  HIT %:     0  MISS %:     0  AVERAGE MISS PENALTY: 0
L1I WRITEBACK ACCESS:     0  HIT:     0  MISS:     0  HIT %:     0  MISS %:     0  AVERAGE MISS PENALTY: 0
L1I PREFETCH  REQUESTED:     0  ISSUED:     0  USEFUL:     0  USELESS:     0
 USEFUL LOAD PREFETCHES:          0 PREFETCH ISSUED TO LOWER LEVEL:          0  ACCURACY: -nan
 TIMELY PREFETCHES:          0 LATE PREFETCHES: 0 DROPPED PREFETCHES: 0
L1I AVERAGE MISS LATENCY: -nan cycles
L2C TOTAL     ACCESS: 83711813  HIT: 5974548  MISS: 77737265  HIT %: 7.13704  MISS %: 92.863  AVERAGE MISS PENALTY: 3.18282e+06
L2C LOAD      ACCESS: 14118962  HIT: 248982  MISS: 13869980  HIT %: 1.76346  MISS %: 98.2365  AVERAGE MISS PENALTY: 1.78373e+07
L2C RFO       ACCESS:     0  HIT:     0  MISS:     0  HIT %:     0  MISS %:     0  AVERAGE MISS PENALTY: 0
L2C PREFETCH  ACCESS: 69537175  HIT: 5708729  MISS: 63828446  HIT %: 8.20961  MISS %: 91.7904  AVERAGE MISS PENALTY: 327.737
L2C WRITEBACK ACCESS: 55676  HIT: 16837  MISS: 38839  HIT %: 30.241  MISS %: 69.759  AVERAGE MISS PENALTY: 0
L2C PREFETCH  REQUESTED: 91230712  ISSUED: 90807916  USEFUL: 213654  USELESS: 63614602
 USEFUL LOAD PREFETCHES:     213654 PREFETCH ISSUED TO LOWER LEVEL:   76516872  ACCURACY: 0.279225
 TIMELY PREFETCHES:     213654 LATE PREFETCHES: 808322 DROPPED PREFETCHES: 422796
L2C AVERAGE MISS LATENCY: 318.99 cycles
LLC0 TOTAL     ACCESS: 9960200  HIT: 5464795  MISS: 4495405  HIT %: 54.8663  MISS %: 45.1337  AVERAGE MISS PENALTY: 653.799
LLC0 LOAD      ACCESS: 1736589  HIT: 981288  MISS: 755301  HIT %: 56.5066  MISS %: 43.4934  AVERAGE MISS PENALTY: 644.143
LLC0 RFO       ACCESS:     0  HIT:     0  MISS:     0  HIT %:     0  MISS %:     0  AVERAGE MISS PENALTY: 0
LLC0 PREFETCH  ACCESS: 8216610  HIT: 4476651  MISS: 3739959  HIT %: 54.4829  MISS %: 45.5171  AVERAGE MISS PENALTY: 655.775
LLC0 WRITEBACK ACCESS:  7001  HIT:  6856  MISS:   145  HIT %: 97.9289  MISS %: 2.07113  AVERAGE MISS PENALTY: 0
LLC0 PREFETCH  REQUESTED:     0  ISSUED:     0  USEFUL: 3039334  USELESS: 26885251
 USEFUL LOAD PREFETCHES:    3039334 PREFETCH ISSUED TO LOWER LEVEL:   75721931  ACCURACY: 4.01381
 TIMELY PREFETCHES:    3039334 LATE PREFETCHES: 0 DROPPED PREFETCHES: 0
LLC0 AVERAGE MISS LATENCY: 653.799 cycles
Deadblocks : 5289305 Deadblock percentage : 700.291

LLC1 TOTAL     ACCESS: 10034799  HIT: 5495778  MISS: 4539021  HIT %: 54.7672  MISS %: 45.2328  AVERAGE MISS PENALTY: 650.55
LLC1 LOAD      ACCESS: 1720823  HIT: 966025  MISS: 754798  HIT %: 56.1374  MISS %: 43.8626  AVERAGE MISS PENALTY: 642.115
LLC1 RFO       ACCESS:     0  HIT:     0  MISS:     0  HIT %:     0  MISS %:     0  AVERAGE MISS PENALTY: 0
LLC1 PREFETCH  ACCESS: 8306992  HIT: 4522917  MISS: 3784075  HIT %: 54.4471  MISS %: 45.5529  AVERAGE MISS PENALTY: 652.258
LLC1 WRITEBACK ACCESS:  6984  HIT:  6836  MISS:   148  HIT %: 97.8809  MISS %: 2.11913  AVERAGE MISS PENALTY: 0
LLC1 PREFETCH  REQUESTED:     0  ISSUED:     0  USEFUL: 3094844  USELESS: 27204714
 USEFUL LOAD PREFETCHES:    3094844 PREFETCH ISSUED TO LOWER LEVEL:   70253506  ACCURACY: 4.40525
 TIMELY PREFETCHES:    3094844 LATE PREFETCHES: 0 DROPPED PREFETCHES: 0
LLC1 AVERAGE MISS LATENCY: 650.55 cycles
LLC2 TOTAL     ACCESS: 9967583  HIT: 5456459  MISS: 4511124  HIT %: 54.742  MISS %: 45.258  AVERAGE MISS PENALTY: 647.324
LLC2 LOAD      ACCESS: 1686253  HIT: 944738  MISS: 741515  HIT %: 56.0259  MISS %: 43.9741  AVERAGE MISS PENALTY: 645.238
LLC2 RFO       ACCESS:     0  HIT:     0  MISS:     0  HIT %:     0  MISS %:     0  AVERAGE MISS PENALTY: 0
LLC2 PREFETCH  ACCESS: 8274307  HIT: 4504836  MISS: 3769471  HIT %: 54.4437  MISS %: 45.5563  AVERAGE MISS PENALTY: 647.757
LLC2 WRITEBACK ACCESS:  7023  HIT:  6885  MISS:   138  HIT %: 98.035  MISS %: 1.96497  AVERAGE MISS PENALTY: 0
LLC2 PREFETCH  REQUESTED:     0  ISSUED:     0  USEFUL: 3035971  USELESS: 27156510
 USEFUL LOAD PREFETCHES:    3035971 PREFETCH ISSUED TO LOWER LEVEL:  110764136  ACCURACY: 2.74093
 TIMELY PREFETCHES:    3035971 LATE PREFETCHES: 0 DROPPED PREFETCHES: 0
LLC2 AVERAGE MISS LATENCY: 647.323 cycles
LLC3 TOTAL     ACCESS: 9851074  HIT: 5405634  MISS: 4445440  HIT %: 54.8735  MISS %: 45.1265  AVERAGE MISS PENALTY: 645.689
LLC3 LOAD      ACCESS: 1673012  HIT: 939097  MISS: 733915  HIT %: 56.1321  MISS %: 43.8679  AVERAGE MISS PENALTY: 643.529
LLC3 RFO       ACCESS:     0  HIT:     0  MISS:     0  HIT %:     0  MISS %:     0  AVERAGE MISS PENALTY: 0
LLC3 PREFETCH  ACCESS: 8171235  HIT: 4459857  MISS: 3711378  HIT %: 54.58  MISS %: 45.42  AVERAGE MISS PENALTY: 646.141
LLC3 WRITEBACK ACCESS:  6827  HIT:  6680  MISS:   147  HIT %: 97.8468  MISS %: 2.15322  AVERAGE MISS PENALTY: 0
LLC3 PREFETCH  REQUESTED:     0  ISSUED:     0  USEFUL: 3054019  USELESS: 26641282
 USEFUL LOAD PREFETCHES:    3054019 PREFETCH ISSUED TO LOWER LEVEL:   98278924  ACCURACY: 3.1075
 TIMELY PREFETCHES:    3054019 LATE PREFETCHES: 0 DROPPED PREFETCHES: 0
LLC3 AVERAGE MISS LATENCY: 645.689 cycles
LLC4 TOTAL     ACCESS: 9751440  HIT: 5357610  MISS: 4393830  HIT %: 54.9417  MISS %: 45.0583  AVERAGE MISS PENALTY: 613.53
LLC4 LOAD      ACCESS: 1758933  HIT: 1010709  MISS: 748224  HIT %: 57.4615  MISS %: 42.5385  AVERAGE MISS PENALTY: 601.585
LLC4 RFO       ACCESS:     0  HIT:     0  MISS:     0  HIT %:     0  MISS %:     0  AVERAGE MISS PENALTY: 0
LLC4 PREFETCH  ACCESS: 7985520  HIT: 4340051  MISS: 3645469  HIT %: 54.349  MISS %: 45.651  AVERAGE MISS PENALTY: 616.004
LLC4 WRITEBACK ACCESS:  6987  HIT:  6850  MISS:   137  HIT %: 98.0392  MISS %: 1.96078  AVERAGE MISS PENALTY: 0
LLC4 PREFETCH  REQUESTED:     0  ISSUED:     0  USEFUL: 2992054  USELESS: 26190416
 USEFUL LOAD PREFETCHES:    2992054 PREFETCH ISSUED TO LOWER LEVEL:  156644570  ACCURACY: 1.91009
 TIMELY PREFETCHES:    2992054 LATE PREFETCHES: 0 DROPPED PREFETCHES: 0
LLC4 AVERAGE MISS LATENCY: 613.53 cycles
LLC5 TOTAL     ACCESS: 9570418  HIT: 5245824  MISS: 4324594  HIT %: 54.8129  MISS %: 45.1871  AVERAGE MISS PENALTY: 604.322
LLC5 LOAD      ACCESS: 1739753  HIT: 993480  MISS: 746273  HIT %: 57.1047  MISS %: 42.8953  AVERAGE MISS PENALTY: 591.328
LLC5 RFO       ACCESS:     0  HIT:     0  MISS:     0  HIT %:     0  MISS %:     0  AVERAGE MISS PENALTY: 0
LLC5 PREFETCH  ACCESS: 7823792  HIT: 4245597  MISS: 3578195  HIT %: 54.2652  MISS %: 45.7348  AVERAGE MISS PENALTY: 607.053
LLC5 WRITEBACK ACCESS:  6873  HIT:  6747  MISS:   126  HIT %: 98.1667  MISS %: 1.83326  AVERAGE MISS PENALTY: 0
LLC5 PREFETCH  REQUESTED:     0  ISSUED:     0  USEFUL: 2982168  USELESS: 25668265
 USEFUL LOAD PREFETCHES:    2982168 PREFETCH ISSUED TO LOWER LEVEL:  136610768  ACCURACY: 2.18297
 TIMELY PREFETCHES:    2982168 LATE PREFETCHES: 0 DROPPED PREFETCHES: 0
LLC5 AVERAGE MISS LATENCY: 604.322 cycles
LLC6 TOTAL     ACCESS: 9400924  HIT: 5149537  MISS: 4251387  HIT %: 54.7769  MISS %: 45.2231  AVERAGE MISS PENALTY: 612.466
LLC6 LOAD      ACCESS: 1723178  HIT: 981202  MISS: 741976  HIT %: 56.9414  MISS %: 43.0586  AVERAGE MISS PENALTY: 597.302
LLC6 RFO       ACCESS:     0  HIT:     0  MISS:     0  HIT %:     0  MISS %:     0  AVERAGE MISS PENALTY: 0
LLC6 PREFETCH  ACCESS: 7670703  HIT: 4161417  MISS: 3509286  HIT %: 54.2508  MISS %: 45.7492  AVERAGE MISS PENALTY: 615.694
LLC6 WRITEBACK ACCESS:  7043  HIT:  6918  MISS:   125  HIT %: 98.2252  MISS %: 1.77481  AVERAGE MISS PENALTY: 0
LLC6 PREFETCH  REQUESTED:     0  ISSUED:     0  USEFUL: 2907753  USELESS: 25180953
 USEFUL LOAD PREFETCHES:    2907753 PREFETCH ISSUED TO LOWER LEVEL:  217877929  ACCURACY: 1.33458
 TIMELY PREFETCHES:    2907753 LATE PREFETCHES: 0 DROPPED PREFETCHES: 0
LLC6 AVERAGE MISS LATENCY: 612.466 cycles
LLC7 TOTAL     ACCESS: 9217660  HIT: 5046256  MISS: 4171404  HIT %: 54.7455  MISS %: 45.2545  AVERAGE MISS PENALTY: 606.962
LLC7 LOAD      ACCESS: 1724390  HIT: 996862  MISS: 727528  HIT %: 57.8095  MISS %: 42.1905  AVERAGE MISS PENALTY: 593.551
LLC7 RFO       ACCESS:     0  HIT:     0  MISS:     0  HIT %:     0  MISS %:     0  AVERAGE MISS PENALTY: 0
LLC7 PREFETCH  ACCESS: 7486332  HIT: 4042559  MISS: 3443773  HIT %: 53.9992  MISS %: 46.0008  AVERAGE MISS PENALTY: 609.813
LLC7 WRITEBACK ACCESS:  6938  HIT:  6835  MISS:   103  HIT %: 98.5154  MISS %: 1.48458  AVERAGE MISS PENALTY: 0
LLC7 PREFETCH  REQUESTED:     0  ISSUED:     0  USEFUL: 2813590  USELESS: 24750557
 USEFUL LOAD PREFETCHES:    2813590 PREFETCH ISSUED TO LOWER LEVEL:  187901124  ACCURACY: 1.49738
 TIMELY PREFETCHES:    2813590 LATE PREFETCHES: 0 DROPPED PREFETCHES: 0
LLC7 AVERAGE MISS LATENCY: 606.962 cycles
ROI Average ROB Stall Cycles:	28.6938
ROI Total ROB Stalls Cycles:	2302921431
ROI TOTAL ROB counter      :	80258559
ROI Average Load ROB Stall Cycles:	219.209
ROI Total Load ROB Stalls Cycle  :	1441068809
ROI Total Load ROB stalls Counter:	6573957
Major fault: 0 Minor fault: 29440








Interconnect Stats 
LINK 0 BW : 0LINK 1 BW : 0LINK 2 BW : 0LINK 3 BW : 0LINK 4 BW : 0LINK 5 BW : 0LINK 6 BW : 0LINK 7 BW : 0
DRAM Statistics
 CHANNEL 0
 RQ ROW_BUFFER_HIT: 46835367  ROW_BUFFER_MISS: 94425942
 DBUS_CONGESTED: 65223219
 WQ ROW_BUFFER_HIT: 36769  ROW_BUFFER_MISS: 187410  FULL:     0

 CHANNEL 1
 RQ ROW_BUFFER_HIT: 46158758  ROW_BUFFER_MISS: 93713274
 DBUS_CONGESTED: 65223219
 WQ ROW_BUFFER_HIT: 36087  ROW_BUFFER_MISS: 184692  FULL:     0

 AVG_CONGESTED_CYCLE: 4
DRAM PAGES: 2097152
Allocated PAGES: 235605
L2C destructor called
L1D destructor called
L1I destructor called
STLB destructor called
DTLB destructor called
ITLB destructor called
L2C destructor called
L1D destructor called
L1I destructor called
STLB destructor called
DTLB destructor called
ITLB destructor called
L2C destructor called
L1D destructor called
L1I destructor called
STLB destructor called
DTLB destructor called
ITLB destructor called
L2C destructor called
L1D destructor called
L1I destructor called
STLB destructor called
DTLB destructor called
ITLB destructor called
L2C destructor called
L1D destructor called
L1I destructor called
STLB destructor called
DTLB destructor called
ITLB destructor called
L2C destructor called
L1D destructor called
L1I destructor called
STLB destructor called
DTLB destructor called
ITLB destructor called
L2C destructor called
L1D destructor called
L1I destructor called
STLB destructor called
DTLB destructor called
ITLB destructor called
L2C destructor called
L1D destructor called
L1I destructor called
STLB destructor called
DTLB destructor called
ITLB destructor called
