
*** ChampSim Multicore Out-of-Order Simulator ***

Warmup Instructions: 200000000
Simulation Instructions: 200000000
Number of CPUs: 8
threads:1

L1I Configuration:
L1I_SET:64
L1I_WAY:8
L1I_RQ_SIZE:64
L1I_WQ_SIZE:64
L1I_PQ_SIZE:8
L1I_MSHR_SIZE:8

L1D Configuration:
L1D_SET:64
L1D_WAY:12
L1D_RQ_SIZE:64
L1D_WQ_SIZE:64
L1D_PQ_SIZE:8
L1D_MSHR_SIZE:16

L2C Configuration:
L2C_SET:1024
L2C_WAY:8
L2C_RQ_SIZE:32
L2C_WQ_SIZE:32
L2C_PQ_SIZE:16
L2C_MSHR_SIZE:32

LLC Configuration:
LLC_SET:2048
LLC_WAY:16
LLC SLICES:8
LLC_RQ_SIZE:64
LLC_WQ_SIZE:64
LLC_PQ_SIZE:32
LLC_MSHR_SIZE:64

Interconnect OFF
Attacker deprioritize is: OFF
Off-chip DRAM Size: 8192 MB Channels: 2 Width: 64-bit Data Rate: 3200 MT/s
PAGE SIZE in KB: 4.000000 
PAGE SIZE in MB: 0.003906 
PAGE offset in bits: 12 
CEASER-S_LLC:0
MIRAGE : 0
CEASER_LATENCY:3
REMAP : OFF
Partitions : 1
Multi-Step : OFF
BFS : OFF

CPU 0 runs /home/anubhav/gap/sssp-10.trace.gz
CPU 1 runs /home/anubhav/gap/sssp-10.trace.gz
CPU 2 runs /home/anubhav/gap/sssp-10.trace.gz
CPU 3 runs /home/anubhav/gap/sssp-10.trace.gz
CPU 4 runs /home/anubhav/gap/sssp-10.trace.gz
CPU 5 runs /home/anubhav/gap/sssp-10.trace.gz
CPU 6 runs /home/anubhav/gap/sssp-10.trace.gz
CPU 7 runs /home/anubhav/gap/sssp-10.trace.gz
CPU 0 Bimodal branch predictor
Initialize Hawkeye state
Initialize Hawkeye state
Initialize Hawkeye state
Initialize Hawkeye state
Initialize Hawkeye state
Initialize Hawkeye state
Initialize Hawkeye state
Initialize Hawkeye state
CPU 1 Bimodal branch predictor
Initialize Hawkeye state
Initialize Hawkeye state
Initialize Hawkeye state
Initialize Hawkeye state
Initialize Hawkeye state
Initialize Hawkeye state
Initialize Hawkeye state
Initialize Hawkeye state
CPU 2 Bimodal branch predictor
Initialize Hawkeye state
Initialize Hawkeye state
Initialize Hawkeye state
Initialize Hawkeye state
Initialize Hawkeye state
Initialize Hawkeye state
Initialize Hawkeye state
Initialize Hawkeye state
CPU 3 Bimodal branch predictor
Initialize Hawkeye state
Initialize Hawkeye state
Initialize Hawkeye state
Initialize Hawkeye state
Initialize Hawkeye state
Initialize Hawkeye state
Initialize Hawkeye state
Initialize Hawkeye state
CPU 4 Bimodal branch predictor
Initialize Hawkeye state
Initialize Hawkeye state
Initialize Hawkeye state
Initialize Hawkeye state
Initialize Hawkeye state
Initialize Hawkeye state
Initialize Hawkeye state
Initialize Hawkeye state
CPU 5 Bimodal branch predictor
Initialize Hawkeye state
Initialize Hawkeye state
Initialize Hawkeye state
Initialize Hawkeye state
Initialize Hawkeye state
Initialize Hawkeye state
Initialize Hawkeye state
Initialize Hawkeye state
CPU 6 Bimodal branch predictor
Initialize Hawkeye state
Initialize Hawkeye state
Initialize Hawkeye state
Initialize Hawkeye state
Initialize Hawkeye state
Initialize Hawkeye state
Initialize Hawkeye state
Initialize Hawkeye state
CPU 7 Bimodal branch predictor
Initialize Hawkeye state
Initialize Hawkeye state
Initialize Hawkeye state
Initialize Hawkeye state
Initialize Hawkeye state
Initialize Hawkeye state
Initialize Hawkeye state
Initialize Hawkeye state
Heartbeat CPU 4 instructions: 10000000 cycles: 7228498 heartbeat IPC: 1.38341 cumulative IPC: 1.38341 (Simulation time: 0 hr 14 min 15 sec) 
 Total Blocks : 262144 Invalid Blocks : 223
Heartbeat CPU 2 instructions: 10000000 cycles: 7229178 heartbeat IPC: 1.38328 cumulative IPC: 1.38328 (Simulation time: 0 hr 14 min 15 sec) 
 Total Blocks : 262144 Invalid Blocks : 222
Heartbeat CPU 0 instructions: 10000000 cycles: 7229299 heartbeat IPC: 1.38326 cumulative IPC: 1.38326 (Simulation time: 0 hr 14 min 15 sec) 
 Total Blocks : 262144 Invalid Blocks : 222
Heartbeat CPU 6 instructions: 10000000 cycles: 7229711 heartbeat IPC: 1.38318 cumulative IPC: 1.38318 (Simulation time: 0 hr 14 min 15 sec) 
 Total Blocks : 262144 Invalid Blocks : 222
Heartbeat CPU 3 instructions: 10000000 cycles: 7229861 heartbeat IPC: 1.38315 cumulative IPC: 1.38315 (Simulation time: 0 hr 14 min 15 sec) 
 Total Blocks : 262144 Invalid Blocks : 222
Heartbeat CPU 5 instructions: 10000000 cycles: 7230040 heartbeat IPC: 1.38312 cumulative IPC: 1.38312 (Simulation time: 0 hr 14 min 15 sec) 
 Total Blocks : 262144 Invalid Blocks : 222
Heartbeat CPU 1 instructions: 10000000 cycles: 7230798 heartbeat IPC: 1.38297 cumulative IPC: 1.38297 (Simulation time: 0 hr 14 min 15 sec) 
 Total Blocks : 262144 Invalid Blocks : 222
Heartbeat CPU 7 instructions: 10000000 cycles: 7231190 heartbeat IPC: 1.3829 cumulative IPC: 1.3829 (Simulation time: 0 hr 14 min 15 sec) 
 Total Blocks : 262144 Invalid Blocks : 222
Heartbeat CPU 0 instructions: 20000000 cycles: 15572958 heartbeat IPC: 1.19851 cumulative IPC: 1.28428 (Simulation time: 0 hr 30 min 6 sec) 
 Total Blocks : 262144 Invalid Blocks : 0
Heartbeat CPU 4 instructions: 20000000 cycles: 15573526 heartbeat IPC: 1.19832 cumulative IPC: 1.28423 (Simulation time: 0 hr 30 min 6 sec) 
 Total Blocks : 262144 Invalid Blocks : 0
Heartbeat CPU 5 instructions: 20000000 cycles: 15575548 heartbeat IPC: 1.19825 cumulative IPC: 1.28406 (Simulation time: 0 hr 30 min 7 sec) 
 Total Blocks : 262144 Invalid Blocks : 0
Heartbeat CPU 6 instructions: 20000000 cycles: 15575799 heartbeat IPC: 1.19817 cumulative IPC: 1.28404 (Simulation time: 0 hr 30 min 7 sec) 
 Total Blocks : 262144 Invalid Blocks : 0
Heartbeat CPU 7 instructions: 20000000 cycles: 15576478 heartbeat IPC: 1.19828 cumulative IPC: 1.28399 (Simulation time: 0 hr 30 min 7 sec) 
 Total Blocks : 262144 Invalid Blocks : 0
Heartbeat CPU 1 instructions: 20000000 cycles: 15576543 heartbeat IPC: 1.19822 cumulative IPC: 1.28398 (Simulation time: 0 hr 30 min 7 sec) 
 Total Blocks : 262144 Invalid Blocks : 0
Heartbeat CPU 2 instructions: 20000000 cycles: 15576905 heartbeat IPC: 1.19793 cumulative IPC: 1.28395 (Simulation time: 0 hr 30 min 7 sec) 
 Total Blocks : 262144 Invalid Blocks : 0
Heartbeat CPU 3 instructions: 20000000 cycles: 15577652 heartbeat IPC: 1.19792 cumulative IPC: 1.28389 (Simulation time: 0 hr 30 min 7 sec) 
 Total Blocks : 262144 Invalid Blocks : 0
Heartbeat CPU 0 instructions: 30000002 cycles: 23242977 heartbeat IPC: 1.30378 cumulative IPC: 1.29071 (Simulation time: 0 hr 49 min 33 sec) 
 Total Blocks : 262144 Invalid Blocks : 0
Heartbeat CPU 4 instructions: 30000002 cycles: 23246049 heartbeat IPC: 1.30335 cumulative IPC: 1.29054 (Simulation time: 0 hr 49 min 33 sec) 
 Total Blocks : 262144 Invalid Blocks : 0
Heartbeat CPU 1 instructions: 30000002 cycles: 23248755 heartbeat IPC: 1.30341 cumulative IPC: 1.29039 (Simulation time: 0 hr 49 min 34 sec) 
 Total Blocks : 262144 Invalid Blocks : 0
Heartbeat CPU 5 instructions: 30000002 cycles: 23249070 heartbeat IPC: 1.30318 cumulative IPC: 1.29037 (Simulation time: 0 hr 49 min 34 sec) 
 Total Blocks : 262144 Invalid Blocks : 0
Heartbeat CPU 7 instructions: 30000002 cycles: 23249142 heartbeat IPC: 1.30333 cumulative IPC: 1.29037 (Simulation time: 0 hr 49 min 34 sec) 
 Total Blocks : 262144 Invalid Blocks : 0
Heartbeat CPU 6 instructions: 30000002 cycles: 23249374 heartbeat IPC: 1.30317 cumulative IPC: 1.29036 (Simulation time: 0 hr 49 min 34 sec) 
 Total Blocks : 262144 Invalid Blocks : 0
Heartbeat CPU 2 instructions: 30000002 cycles: 23254800 heartbeat IPC: 1.30244 cumulative IPC: 1.29006 (Simulation time: 0 hr 49 min 35 sec) 
 Total Blocks : 262144 Invalid Blocks : 0
Heartbeat CPU 3 instructions: 30000002 cycles: 23256459 heartbeat IPC: 1.30229 cumulative IPC: 1.28996 (Simulation time: 0 hr 49 min 35 sec) 
 Total Blocks : 262144 Invalid Blocks : 0
Heartbeat CPU 0 instructions: 40000003 cycles: 30367720 heartbeat IPC: 1.40356 cumulative IPC: 1.31719 (Simulation time: 1 hr 11 min 26 sec) 
 Total Blocks : 262144 Invalid Blocks : 0
Heartbeat CPU 4 instructions: 40000003 cycles: 30373799 heartbeat IPC: 1.40297 cumulative IPC: 1.31692 (Simulation time: 1 hr 11 min 27 sec) 
 Total Blocks : 262144 Invalid Blocks : 0
Heartbeat CPU 1 instructions: 40000003 cycles: 30374216 heartbeat IPC: 1.40342 cumulative IPC: 1.31691 (Simulation time: 1 hr 11 min 27 sec) 
 Total Blocks : 262144 Invalid Blocks : 0
Heartbeat CPU 7 instructions: 40000003 cycles: 30376515 heartbeat IPC: 1.40304 cumulative IPC: 1.31681 (Simulation time: 1 hr 11 min 28 sec) 
 Total Blocks : 262144 Invalid Blocks : 0
Heartbeat CPU 5 instructions: 40000003 cycles: 30377440 heartbeat IPC: 1.40285 cumulative IPC: 1.31677 (Simulation time: 1 hr 11 min 28 sec) 
 Total Blocks : 262144 Invalid Blocks : 0
Heartbeat CPU 6 instructions: 40000003 cycles: 30378344 heartbeat IPC: 1.40273 cumulative IPC: 1.31673 (Simulation time: 1 hr 11 min 28 sec) 
 Total Blocks : 262144 Invalid Blocks : 0
Heartbeat CPU 2 instructions: 40000003 cycles: 30388309 heartbeat IPC: 1.40183 cumulative IPC: 1.3163 (Simulation time: 1 hr 11 min 30 sec) 
 Total Blocks : 262144 Invalid Blocks : 0
Heartbeat CPU 3 instructions: 40000003 cycles: 30390405 heartbeat IPC: 1.40175 cumulative IPC: 1.31621 (Simulation time: 1 hr 11 min 30 sec) 
 Total Blocks : 262144 Invalid Blocks : 0
Heartbeat CPU 0 instructions: 50000000 cycles: 37162450 heartbeat IPC: 1.47173 cumulative IPC: 1.34544 (Simulation time: 1 hr 35 min 7 sec) 
 Total Blocks : 262144 Invalid Blocks : 0
Heartbeat CPU 1 instructions: 50000000 cycles: 37169213 heartbeat IPC: 1.47167 cumulative IPC: 1.3452 (Simulation time: 1 hr 35 min 9 sec) 
 Total Blocks : 262144 Invalid Blocks : 0
Heartbeat CPU 4 instructions: 50000000 cycles: 37171001 heartbeat IPC: 1.47119 cumulative IPC: 1.34513 (Simulation time: 1 hr 35 min 9 sec) 
 Total Blocks : 262144 Invalid Blocks : 0
Heartbeat CPU 7 instructions: 50000000 cycles: 37173764 heartbeat IPC: 1.47118 cumulative IPC: 1.34503 (Simulation time: 1 hr 35 min 9 sec) 
 Total Blocks : 262144 Invalid Blocks : 0
Heartbeat CPU 5 instructions: 50000000 cycles: 37175162 heartbeat IPC: 1.47108 cumulative IPC: 1.34498 (Simulation time: 1 hr 35 min 10 sec) 
 Total Blocks : 262144 Invalid Blocks : 0
Heartbeat CPU 6 instructions: 50000000 cycles: 37176707 heartbeat IPC: 1.47094 cumulative IPC: 1.34493 (Simulation time: 1 hr 35 min 10 sec) 
 Total Blocks : 262144 Invalid Blocks : 0
Heartbeat CPU 2 instructions: 50000000 cycles: 37189801 heartbeat IPC: 1.47027 cumulative IPC: 1.34445 (Simulation time: 1 hr 35 min 12 sec) 
 Total Blocks : 262144 Invalid Blocks : 0
Heartbeat CPU 3 instructions: 50000000 cycles: 37193311 heartbeat IPC: 1.46996 cumulative IPC: 1.34433 (Simulation time: 1 hr 35 min 13 sec) 
 Total Blocks : 262144 Invalid Blocks : 0
Heartbeat CPU 0 instructions: 60000003 cycles: 43657767 heartbeat IPC: 1.53957 cumulative IPC: 1.37433 (Simulation time: 2 hr 0 min 47 sec) 
 Total Blocks : 262144 Invalid Blocks : 0
Heartbeat CPU 1 instructions: 60000003 cycles: 43665832 heartbeat IPC: 1.53926 cumulative IPC: 1.37407 (Simulation time: 2 hr 0 min 48 sec) 
 Total Blocks : 262144 Invalid Blocks : 0
Heartbeat CPU 4 instructions: 60000003 cycles: 43669482 heartbeat IPC: 1.53882 cumulative IPC: 1.37396 (Simulation time: 2 hr 0 min 48 sec) 
 Total Blocks : 262144 Invalid Blocks : 0
Heartbeat CPU 7 instructions: 60000003 cycles: 43672457 heartbeat IPC: 1.53877 cumulative IPC: 1.37386 (Simulation time: 2 hr 0 min 48 sec) 
 Total Blocks : 262144 Invalid Blocks : 0
Heartbeat CPU 5 instructions: 60000003 cycles: 43674224 heartbeat IPC: 1.53868 cumulative IPC: 1.37381 (Simulation time: 2 hr 0 min 49 sec) 
 Total Blocks : 262144 Invalid Blocks : 0
Heartbeat CPU 6 instructions: 60000003 cycles: 43676522 heartbeat IPC: 1.53851 cumulative IPC: 1.37374 (Simulation time: 2 hr 0 min 49 sec) 
 Total Blocks : 262144 Invalid Blocks : 0
Heartbeat CPU 2 instructions: 60000003 cycles: 43693236 heartbeat IPC: 1.53765 cumulative IPC: 1.37321 (Simulation time: 2 hr 0 min 52 sec) 
 Total Blocks : 262144 Invalid Blocks : 0
Heartbeat CPU 3 instructions: 60000003 cycles: 43697520 heartbeat IPC: 1.53747 cumulative IPC: 1.37308 (Simulation time: 2 hr 0 min 53 sec) 
 Total Blocks : 262144 Invalid Blocks : 0
Heartbeat CPU 0 instructions: 70000003 cycles: 49946216 heartbeat IPC: 1.59022 cumulative IPC: 1.40151 (Simulation time: 2 hr 27 min 32 sec) 
 Total Blocks : 262144 Invalid Blocks : 0
Heartbeat CPU 1 instructions: 70000003 cycles: 49955610 heartbeat IPC: 1.58988 cumulative IPC: 1.40124 (Simulation time: 2 hr 27 min 33 sec) 
 Total Blocks : 262144 Invalid Blocks : 0
Heartbeat CPU 4 instructions: 70000003 cycles: 49961183 heartbeat IPC: 1.5894 cumulative IPC: 1.40109 (Simulation time: 2 hr 27 min 35 sec) 
 Total Blocks : 262144 Invalid Blocks : 0
Heartbeat CPU 7 instructions: 70000003 cycles: 49964777 heartbeat IPC: 1.58924 cumulative IPC: 1.40099 (Simulation time: 2 hr 27 min 36 sec) 
 Total Blocks : 262144 Invalid Blocks : 0
Heartbeat CPU 5 instructions: 70000003 cycles: 49966676 heartbeat IPC: 1.58921 cumulative IPC: 1.40093 (Simulation time: 2 hr 27 min 36 sec) 
 Total Blocks : 262144 Invalid Blocks : 0
Heartbeat CPU 6 instructions: 70000003 cycles: 49969408 heartbeat IPC: 1.5891 cumulative IPC: 1.40086 (Simulation time: 2 hr 27 min 37 sec) 
 Total Blocks : 262144 Invalid Blocks : 0
Heartbeat CPU 2 instructions: 70000003 cycles: 49988973 heartbeat IPC: 1.58838 cumulative IPC: 1.40031 (Simulation time: 2 hr 27 min 41 sec) 
 Total Blocks : 262144 Invalid Blocks : 0
Heartbeat CPU 3 instructions: 70000003 cycles: 49993992 heartbeat IPC: 1.58819 cumulative IPC: 1.40017 (Simulation time: 2 hr 27 min 42 sec) 
 Total Blocks : 262144 Invalid Blocks : 0
Heartbeat CPU 0 instructions: 80000000 cycles: 56068560 heartbeat IPC: 1.63336 cumulative IPC: 1.42682 (Simulation time: 2 hr 58 min 43 sec) 
 Total Blocks : 262144 Invalid Blocks : 0
Heartbeat CPU 1 instructions: 80000000 cycles: 56078623 heartbeat IPC: 1.63318 cumulative IPC: 1.42657 (Simulation time: 2 hr 58 min 47 sec) 
 Total Blocks : 262144 Invalid Blocks : 0
Heartbeat CPU 4 instructions: 80000000 cycles: 56086043 heartbeat IPC: 1.63269 cumulative IPC: 1.42638 (Simulation time: 2 hr 58 min 49 sec) 
 Total Blocks : 262144 Invalid Blocks : 0
Heartbeat CPU 7 instructions: 80000000 cycles: 56090093 heartbeat IPC: 1.63257 cumulative IPC: 1.42628 (Simulation time: 2 hr 58 min 51 sec) 
 Total Blocks : 262144 Invalid Blocks : 0
Heartbeat CPU 5 instructions: 80000000 cycles: 56092145 heartbeat IPC: 1.63253 cumulative IPC: 1.42622 (Simulation time: 2 hr 58 min 52 sec) 
 Total Blocks : 262144 Invalid Blocks : 0
Heartbeat CPU 6 instructions: 80000000 cycles: 56095625 heartbeat IPC: 1.63233 cumulative IPC: 1.42614 (Simulation time: 2 hr 58 min 54 sec) 
 Total Blocks : 262144 Invalid Blocks : 0
Heartbeat CPU 2 instructions: 80000000 cycles: 56117752 heartbeat IPC: 1.63165 cumulative IPC: 1.42557 (Simulation time: 2 hr 59 min 1 sec) 
 Total Blocks : 262144 Invalid Blocks : 0
Heartbeat CPU 3 instructions: 80000000 cycles: 56123377 heartbeat IPC: 1.63148 cumulative IPC: 1.42543 (Simulation time: 2 hr 59 min 4 sec) 
 Total Blocks : 262144 Invalid Blocks : 0
Heartbeat CPU 0 instructions: 90000000 cycles: 62241435 heartbeat IPC: 1.61999 cumulative IPC: 1.44598 (Simulation time: 3 hr 28 min 47 sec) 
 Total Blocks : 262144 Invalid Blocks : 0
Heartbeat CPU 1 instructions: 90000000 cycles: 62252200 heartbeat IPC: 1.61981 cumulative IPC: 1.44573 (Simulation time: 3 hr 28 min 50 sec) 
 Total Blocks : 262144 Invalid Blocks : 0
Heartbeat CPU 4 instructions: 90000000 cycles: 62261469 heartbeat IPC: 1.61932 cumulative IPC: 1.44552 (Simulation time: 3 hr 28 min 52 sec) 
 Total Blocks : 262144 Invalid Blocks : 0
Heartbeat CPU 7 instructions: 90000000 cycles: 62265913 heartbeat IPC: 1.61922 cumulative IPC: 1.44541 (Simulation time: 3 hr 28 min 53 sec) 
 Total Blocks : 262144 Invalid Blocks : 0
Heartbeat CPU 5 instructions: 90000000 cycles: 62268071 heartbeat IPC: 1.61919 cumulative IPC: 1.44536 (Simulation time: 3 hr 28 min 53 sec) 
 Total Blocks : 262144 Invalid Blocks : 0
Heartbeat CPU 6 instructions: 90000000 cycles: 62272280 heartbeat IPC: 1.619 cumulative IPC: 1.44527 (Simulation time: 3 hr 28 min 54 sec) 
 Total Blocks : 262144 Invalid Blocks : 0
Heartbeat CPU 2 instructions: 90000000 cycles: 62296199 heartbeat IPC: 1.61853 cumulative IPC: 1.44471 (Simulation time: 3 hr 28 min 58 sec) 
 Total Blocks : 262144 Invalid Blocks : 0
Heartbeat CPU 3 instructions: 90000000 cycles: 62302302 heartbeat IPC: 1.6184 cumulative IPC: 1.44457 (Simulation time: 3 hr 29 min 0 sec) 
 Total Blocks : 262144 Invalid Blocks : 0
Heartbeat CPU 0 instructions: 100000002 cycles: 68132275 heartbeat IPC: 1.69755 cumulative IPC: 1.46773 (Simulation time: 4 hr 1 min 34 sec) 
 Total Blocks : 262144 Invalid Blocks : 0
Heartbeat CPU 1 instructions: 100000002 cycles: 68144264 heartbeat IPC: 1.6972 cumulative IPC: 1.46747 (Simulation time: 4 hr 1 min 38 sec) 
 Total Blocks : 262144 Invalid Blocks : 0
Heartbeat CPU 4 instructions: 100000002 cycles: 68155581 heartbeat IPC: 1.69661 cumulative IPC: 1.46723 (Simulation time: 4 hr 1 min 42 sec) 
 Total Blocks : 262144 Invalid Blocks : 0
Heartbeat CPU 7 instructions: 100000002 cycles: 68160665 heartbeat IPC: 1.69642 cumulative IPC: 1.46712 (Simulation time: 4 hr 1 min 44 sec) 
 Total Blocks : 262144 Invalid Blocks : 0
Heartbeat CPU 5 instructions: 100000002 cycles: 68163053 heartbeat IPC: 1.69636 cumulative IPC: 1.46707 (Simulation time: 4 hr 1 min 45 sec) 
 Total Blocks : 262144 Invalid Blocks : 0
Heartbeat CPU 6 instructions: 100000002 cycles: 68168139 heartbeat IPC: 1.69611 cumulative IPC: 1.46696 (Simulation time: 4 hr 1 min 48 sec) 
 Total Blocks : 262144 Invalid Blocks : 0
Heartbeat CPU 2 instructions: 100000002 cycles: 68193381 heartbeat IPC: 1.69573 cumulative IPC: 1.46642 (Simulation time: 4 hr 1 min 57 sec) 
 Total Blocks : 262144 Invalid Blocks : 0
Heartbeat CPU 3 instructions: 100000002 cycles: 68200333 heartbeat IPC: 1.69548 cumulative IPC: 1.46627 (Simulation time: 4 hr 2 min 0 sec) 
 Total Blocks : 262144 Invalid Blocks : 0
Heartbeat CPU 0 instructions: 110000000 cycles: 73945355 heartbeat IPC: 1.72026 cumulative IPC: 1.48758 (Simulation time: 4 hr 41 min 15 sec) 
 Total Blocks : 262144 Invalid Blocks : 0
Heartbeat CPU 1 instructions: 110000000 cycles: 73958290 heartbeat IPC: 1.71998 cumulative IPC: 1.48732 (Simulation time: 4 hr 41 min 20 sec) 
 Total Blocks : 262144 Invalid Blocks : 0
Heartbeat CPU 4 instructions: 110000000 cycles: 73972216 heartbeat IPC: 1.71921 cumulative IPC: 1.48704 (Simulation time: 4 hr 41 min 26 sec) 
 Total Blocks : 262144 Invalid Blocks : 0
Heartbeat CPU 7 instructions: 110000000 cycles: 73977501 heartbeat IPC: 1.71915 cumulative IPC: 1.48694 (Simulation time: 4 hr 41 min 29 sec) 
 Total Blocks : 262144 Invalid Blocks : 0
Heartbeat CPU 5 instructions: 110000000 cycles: 73980154 heartbeat IPC: 1.71907 cumulative IPC: 1.48689 (Simulation time: 4 hr 41 min 30 sec) 
 Total Blocks : 262144 Invalid Blocks : 0
Heartbeat CPU 6 instructions: 110000000 cycles: 73985884 heartbeat IPC: 1.71888 cumulative IPC: 1.48677 (Simulation time: 4 hr 41 min 32 sec) 
 Total Blocks : 262144 Invalid Blocks : 0
Heartbeat CPU 2 instructions: 110000000 cycles: 74012606 heartbeat IPC: 1.71844 cumulative IPC: 1.48623 (Simulation time: 4 hr 41 min 42 sec) 
 Total Blocks : 262144 Invalid Blocks : 0
Heartbeat CPU 3 instructions: 110000000 cycles: 74020068 heartbeat IPC: 1.71829 cumulative IPC: 1.48608 (Simulation time: 4 hr 41 min 44 sec) 
 Total Blocks : 262144 Invalid Blocks : 0
Heartbeat CPU 0 instructions: 120000002 cycles: 79730874 heartbeat IPC: 1.72845 cumulative IPC: 1.50506 (Simulation time: 5 hr 21 min 52 sec) 
 Total Blocks : 262144 Invalid Blocks : 0
Heartbeat CPU 1 instructions: 120000002 cycles: 79744746 heartbeat IPC: 1.72817 cumulative IPC: 1.5048 (Simulation time: 5 hr 22 min 0 sec) 
 Total Blocks : 262144 Invalid Blocks : 0
Heartbeat CPU 4 instructions: 120000002 cycles: 79760687 heartbeat IPC: 1.72757 cumulative IPC: 1.5045 (Simulation time: 5 hr 22 min 9 sec) 
 Total Blocks : 262144 Invalid Blocks : 0
Heartbeat CPU 7 instructions: 120000002 cycles: 79766594 heartbeat IPC: 1.72739 cumulative IPC: 1.50439 (Simulation time: 5 hr 22 min 11 sec) 
 Total Blocks : 262144 Invalid Blocks : 0
Heartbeat CPU 5 instructions: 120000002 cycles: 79769342 heartbeat IPC: 1.72736 cumulative IPC: 1.50434 (Simulation time: 5 hr 22 min 12 sec) 
 Total Blocks : 262144 Invalid Blocks : 0
Heartbeat CPU 6 instructions: 120000002 cycles: 79775632 heartbeat IPC: 1.72719 cumulative IPC: 1.50422 (Simulation time: 5 hr 22 min 16 sec) 
 Total Blocks : 262144 Invalid Blocks : 0
Heartbeat CPU 2 instructions: 120000002 cycles: 79803752 heartbeat IPC: 1.72677 cumulative IPC: 1.50369 (Simulation time: 5 hr 22 min 30 sec) 
 Total Blocks : 262144 Invalid Blocks : 0
Heartbeat CPU 3 instructions: 120000002 cycles: 79811826 heartbeat IPC: 1.72659 cumulative IPC: 1.50354 (Simulation time: 5 hr 22 min 34 sec) 
 Total Blocks : 262144 Invalid Blocks : 0
Heartbeat CPU 0 instructions: 130000001 cycles: 85402765 heartbeat IPC: 1.76308 cumulative IPC: 1.5222 (Simulation time: 6 hr 7 min 54 sec) 
 Total Blocks : 262144 Invalid Blocks : 0
Heartbeat CPU 1 instructions: 130000001 cycles: 85417805 heartbeat IPC: 1.76272 cumulative IPC: 1.52193 (Simulation time: 6 hr 8 min 4 sec) 
 Total Blocks : 262144 Invalid Blocks : 0
Heartbeat CPU 4 instructions: 130000001 cycles: 85435796 heartbeat IPC: 1.76208 cumulative IPC: 1.52161 (Simulation time: 6 hr 8 min 13 sec) 
 Total Blocks : 262144 Invalid Blocks : 0
Heartbeat CPU 7 instructions: 130000001 cycles: 85442455 heartbeat IPC: 1.76185 cumulative IPC: 1.52149 (Simulation time: 6 hr 8 min 16 sec) 
 Total Blocks : 262144 Invalid Blocks : 0
Heartbeat CPU 5 instructions: 130000001 cycles: 85444750 heartbeat IPC: 1.76199 cumulative IPC: 1.52145 (Simulation time: 6 hr 8 min 17 sec) 
 Total Blocks : 262144 Invalid Blocks : 0
Heartbeat CPU 6 instructions: 130000001 cycles: 85452500 heartbeat IPC: 1.76153 cumulative IPC: 1.52131 (Simulation time: 6 hr 8 min 23 sec) 
 Total Blocks : 262144 Invalid Blocks : 0
Heartbeat CPU 2 instructions: 130000001 cycles: 85480946 heartbeat IPC: 1.76143 cumulative IPC: 1.52081 (Simulation time: 6 hr 8 min 39 sec) 
 Total Blocks : 262144 Invalid Blocks : 0
Heartbeat CPU 3 instructions: 130000001 cycles: 85490007 heartbeat IPC: 1.76113 cumulative IPC: 1.52065 (Simulation time: 6 hr 8 min 44 sec) 
 Total Blocks : 262144 Invalid Blocks : 0
Heartbeat CPU 0 instructions: 140000001 cycles: 91037982 heartbeat IPC: 1.77455 cumulative IPC: 1.53782 (Simulation time: 6 hr 55 min 20 sec) 
 Total Blocks : 262144 Invalid Blocks : 0
Heartbeat CPU 1 instructions: 140000001 cycles: 91054047 heartbeat IPC: 1.77423 cumulative IPC: 1.53755 (Simulation time: 6 hr 55 min 27 sec) 
 Total Blocks : 262144 Invalid Blocks : 0
Heartbeat CPU 4 instructions: 140000001 cycles: 91074398 heartbeat IPC: 1.77349 cumulative IPC: 1.5372 (Simulation time: 6 hr 55 min 36 sec) 
 Total Blocks : 262144 Invalid Blocks : 0
Heartbeat CPU 7 instructions: 140000001 cycles: 91081630 heartbeat IPC: 1.77331 cumulative IPC: 1.53708 (Simulation time: 6 hr 55 min 39 sec) 
 Total Blocks : 262144 Invalid Blocks : 0
Heartbeat CPU 5 instructions: 140000001 cycles: 91084232 heartbeat IPC: 1.77321 cumulative IPC: 1.53704 (Simulation time: 6 hr 55 min 40 sec) 
 Total Blocks : 262144 Invalid Blocks : 0
Heartbeat CPU 6 instructions: 140000001 cycles: 91092053 heartbeat IPC: 1.77319 cumulative IPC: 1.53691 (Simulation time: 6 hr 55 min 43 sec) 
 Total Blocks : 262144 Invalid Blocks : 0
Heartbeat CPU 2 instructions: 140000001 cycles: 91121677 heartbeat IPC: 1.77282 cumulative IPC: 1.53641 (Simulation time: 6 hr 55 min 54 sec) 
 Total Blocks : 262144 Invalid Blocks : 0
Heartbeat CPU 3 instructions: 140000001 cycles: 91131182 heartbeat IPC: 1.77268 cumulative IPC: 1.53625 (Simulation time: 6 hr 55 min 58 sec) 
 Total Blocks : 262144 Invalid Blocks : 0
Heartbeat CPU 0 instructions: 150000003 cycles: 96666570 heartbeat IPC: 1.77664 cumulative IPC: 1.55173 (Simulation time: 7 hr 42 min 42 sec) 
 Total Blocks : 262144 Invalid Blocks : 0
Heartbeat CPU 1 instructions: 150000003 cycles: 96683626 heartbeat IPC: 1.77633 cumulative IPC: 1.55145 (Simulation time: 7 hr 42 min 53 sec) 
 Total Blocks : 262144 Invalid Blocks : 0
Heartbeat CPU 4 instructions: 150000003 cycles: 96706108 heartbeat IPC: 1.77566 cumulative IPC: 1.55109 (Simulation time: 7 hr 43 min 9 sec) 
 Total Blocks : 262144 Invalid Blocks : 0
Heartbeat CPU 7 instructions: 150000003 cycles: 96713665 heartbeat IPC: 1.77556 cumulative IPC: 1.55097 (Simulation time: 7 hr 43 min 15 sec) 
 Total Blocks : 262144 Invalid Blocks : 0
Heartbeat CPU 5 instructions: 150000003 cycles: 96716249 heartbeat IPC: 1.77556 cumulative IPC: 1.55093 (Simulation time: 7 hr 43 min 16 sec) 
 Total Blocks : 262144 Invalid Blocks : 0
Heartbeat CPU 6 instructions: 150000003 cycles: 96724925 heartbeat IPC: 1.77529 cumulative IPC: 1.55079 (Simulation time: 7 hr 43 min 21 sec) 
 Total Blocks : 262144 Invalid Blocks : 0
Heartbeat CPU 2 instructions: 150000003 cycles: 96754674 heartbeat IPC: 1.77525 cumulative IPC: 1.55031 (Simulation time: 7 hr 43 min 40 sec) 
 Total Blocks : 262144 Invalid Blocks : 0
Heartbeat CPU 3 instructions: 150000003 cycles: 96764607 heartbeat IPC: 1.77512 cumulative IPC: 1.55015 (Simulation time: 7 hr 43 min 44 sec) 
 Total Blocks : 262144 Invalid Blocks : 0
Heartbeat CPU 0 instructions: 160000000 cycles: 102205112 heartbeat IPC: 1.80553 cumulative IPC: 1.56548 (Simulation time: 8 hr 35 min 50 sec) 
 Total Blocks : 262144 Invalid Blocks : 0
Heartbeat CPU 1 instructions: 160000000 cycles: 102223475 heartbeat IPC: 1.8051 cumulative IPC: 1.5652 (Simulation time: 8 hr 36 min 2 sec) 
 Total Blocks : 262144 Invalid Blocks : 0
Heartbeat CPU 4 instructions: 160000000 cycles: 102247558 heartbeat IPC: 1.80458 cumulative IPC: 1.56483 (Simulation time: 8 hr 36 min 17 sec) 
 Total Blocks : 262144 Invalid Blocks : 0
Heartbeat CPU 7 instructions: 160000000 cycles: 102256021 heartbeat IPC: 1.80429 cumulative IPC: 1.5647 (Simulation time: 8 hr 36 min 21 sec) 
 Total Blocks : 262144 Invalid Blocks : 0
Heartbeat CPU 5 instructions: 160000000 cycles: 102258953 heartbeat IPC: 1.80417 cumulative IPC: 1.56466 (Simulation time: 8 hr 36 min 24 sec) 
 Total Blocks : 262144 Invalid Blocks : 0
Heartbeat CPU 6 instructions: 160000000 cycles: 102267719 heartbeat IPC: 1.80414 cumulative IPC: 1.56452 (Simulation time: 8 hr 36 min 28 sec) 
 Total Blocks : 262144 Invalid Blocks : 0
Heartbeat CPU 2 instructions: 160000000 cycles: 102297976 heartbeat IPC: 1.80398 cumulative IPC: 1.56406 (Simulation time: 8 hr 36 min 44 sec) 
 Total Blocks : 262144 Invalid Blocks : 0
Heartbeat CPU 3 instructions: 160000000 cycles: 102308585 heartbeat IPC: 1.80376 cumulative IPC: 1.5639 (Simulation time: 8 hr 36 min 50 sec) 
 Total Blocks : 262144 Invalid Blocks : 0
Heartbeat CPU 0 instructions: 170000001 cycles: 107722761 heartbeat IPC: 1.81237 cumulative IPC: 1.57813 (Simulation time: 9 hr 24 min 25 sec) 
 Total Blocks : 262144 Invalid Blocks : 0
Heartbeat CPU 1 instructions: 170000001 cycles: 107742295 heartbeat IPC: 1.81198 cumulative IPC: 1.57784 (Simulation time: 9 hr 24 min 33 sec) 
 Total Blocks : 262144 Invalid Blocks : 0
Heartbeat CPU 4 instructions: 170000001 cycles: 107768788 heartbeat IPC: 1.81119 cumulative IPC: 1.57745 (Simulation time: 9 hr 24 min 43 sec) 
 Total Blocks : 262144 Invalid Blocks : 0
Heartbeat CPU 7 instructions: 170000001 cycles: 107777671 heartbeat IPC: 1.81105 cumulative IPC: 1.57732 (Simulation time: 9 hr 24 min 46 sec) 
 Total Blocks : 262144 Invalid Blocks : 0
Heartbeat CPU 5 instructions: 170000001 cycles: 107780826 heartbeat IPC: 1.81098 cumulative IPC: 1.57728 (Simulation time: 9 hr 24 min 47 sec) 
 Total Blocks : 262144 Invalid Blocks : 0
Heartbeat CPU 6 instructions: 170000001 cycles: 107789574 heartbeat IPC: 1.81099 cumulative IPC: 1.57715 (Simulation time: 9 hr 24 min 49 sec) 
 Total Blocks : 262144 Invalid Blocks : 0
Heartbeat CPU 2 instructions: 170000001 cycles: 107820091 heartbeat IPC: 1.8109 cumulative IPC: 1.5767 (Simulation time: 9 hr 25 min 0 sec) 
 Total Blocks : 262144 Invalid Blocks : 0
Heartbeat CPU 3 instructions: 170000001 cycles: 107830979 heartbeat IPC: 1.81081 cumulative IPC: 1.57654 (Simulation time: 9 hr 25 min 5 sec) 
 Total Blocks : 262144 Invalid Blocks : 0
Heartbeat CPU 0 instructions: 180000000 cycles: 113225397 heartbeat IPC: 1.81731 cumulative IPC: 1.58975 (Simulation time: 10 hr 16 min 7 sec) 
 Total Blocks : 262144 Invalid Blocks : 0
Heartbeat CPU 1 instructions: 180000000 cycles: 113245796 heartbeat IPC: 1.81703 cumulative IPC: 1.58946 (Simulation time: 10 hr 16 min 20 sec) 
 Total Blocks : 262144 Invalid Blocks : 0
Heartbeat CPU 4 instructions: 180000000 cycles: 113274808 heartbeat IPC: 1.81619 cumulative IPC: 1.58906 (Simulation time: 10 hr 16 min 38 sec) 
 Total Blocks : 262144 Invalid Blocks : 0
Heartbeat CPU 7 instructions: 180000000 cycles: 113283873 heartbeat IPC: 1.81613 cumulative IPC: 1.58893 (Simulation time: 10 hr 16 min 42 sec) 
 Total Blocks : 262144 Invalid Blocks : 0
Heartbeat CPU 5 instructions: 180000000 cycles: 113286953 heartbeat IPC: 1.81616 cumulative IPC: 1.58889 (Simulation time: 10 hr 16 min 44 sec) 
 Total Blocks : 262144 Invalid Blocks : 0
Heartbeat CPU 6 instructions: 180000000 cycles: 113296293 heartbeat IPC: 1.81596 cumulative IPC: 1.58875 (Simulation time: 10 hr 16 min 49 sec) 
 Total Blocks : 262144 Invalid Blocks : 0
Heartbeat CPU 2 instructions: 180000000 cycles: 113326695 heartbeat IPC: 1.816 cumulative IPC: 1.58833 (Simulation time: 10 hr 17 min 8 sec) 
 Total Blocks : 262144 Invalid Blocks : 0
Heartbeat CPU 3 instructions: 180000000 cycles: 113338089 heartbeat IPC: 1.81583 cumulative IPC: 1.58817 (Simulation time: 10 hr 17 min 13 sec) 
 Total Blocks : 262144 Invalid Blocks : 0
Heartbeat CPU 0 instructions: 190000000 cycles: 118676676 heartbeat IPC: 1.83443 cumulative IPC: 1.60099 (Simulation time: 11 hr 10 min 15 sec) 
 Total Blocks : 262144 Invalid Blocks : 0
Heartbeat CPU 1 instructions: 190000000 cycles: 118697626 heartbeat IPC: 1.83425 cumulative IPC: 1.60071 (Simulation time: 11 hr 10 min 26 sec) 
 Total Blocks : 262144 Invalid Blocks : 0
Heartbeat CPU 4 instructions: 190000000 cycles: 118728387 heartbeat IPC: 1.83366 cumulative IPC: 1.60029 (Simulation time: 11 hr 10 min 48 sec) 
 Total Blocks : 262144 Invalid Blocks : 0
Heartbeat CPU 7 instructions: 190000000 cycles: 118738546 heartbeat IPC: 1.83329 cumulative IPC: 1.60015 (Simulation time: 11 hr 10 min 54 sec) 
 Total Blocks : 262144 Invalid Blocks : 0
Heartbeat CPU 5 instructions: 190000000 cycles: 118741545 heartbeat IPC: 1.83332 cumulative IPC: 1.60011 (Simulation time: 11 hr 10 min 56 sec) 
 Total Blocks : 262144 Invalid Blocks : 0
Heartbeat CPU 6 instructions: 190000000 cycles: 118751203 heartbeat IPC: 1.83321 cumulative IPC: 1.59998 (Simulation time: 11 hr 11 min 2 sec) 
 Total Blocks : 262144 Invalid Blocks : 0
Heartbeat CPU 2 instructions: 190000000 cycles: 118781559 heartbeat IPC: 1.83323 cumulative IPC: 1.59957 (Simulation time: 11 hr 11 min 22 sec) 
 Total Blocks : 262144 Invalid Blocks : 0
Heartbeat CPU 3 instructions: 190000000 cycles: 118793228 heartbeat IPC: 1.83313 cumulative IPC: 1.59942 (Simulation time: 11 hr 11 min 29 sec) 
 Total Blocks : 262144 Invalid Blocks : 0
Heartbeat CPU 0 instructions: 200000002 cycles: 124054273 heartbeat IPC: 1.85957 cumulative IPC: 1.6122 (Simulation time: 12 hr 10 min 50 sec) 
 Total Blocks : 262144 Invalid Blocks : 0
Heartbeat CPU 1 instructions: 200000002 cycles: 124075465 heartbeat IPC: 1.85948 cumulative IPC: 1.61192 (Simulation time: 12 hr 11 min 9 sec) 
 Total Blocks : 262144 Invalid Blocks : 0
Heartbeat CPU 4 instructions: 200000002 cycles: 124108731 heartbeat IPC: 1.85862 cumulative IPC: 1.61149 (Simulation time: 12 hr 11 min 38 sec) 
 Total Blocks : 262144 Invalid Blocks : 0
Heartbeat CPU 7 instructions: 200000002 cycles: 124119852 heartbeat IPC: 1.85829 cumulative IPC: 1.61135 (Simulation time: 12 hr 11 min 48 sec) 
 Total Blocks : 262144 Invalid Blocks : 0
Heartbeat CPU 5 instructions: 200000002 cycles: 124122551 heartbeat IPC: 1.85839 cumulative IPC: 1.61131 (Simulation time: 12 hr 11 min 51 sec) 
 Total Blocks : 262144 Invalid Blocks : 0
Heartbeat CPU 6 instructions: 200000002 cycles: 124133006 heartbeat IPC: 1.85811 cumulative IPC: 1.61118 (Simulation time: 12 hr 12 min 0 sec) 
 Total Blocks : 262144 Invalid Blocks : 0
Heartbeat CPU 2 instructions: 200000002 cycles: 124162405 heartbeat IPC: 1.85844 cumulative IPC: 1.61079 (Simulation time: 12 hr 12 min 26 sec) 
 Total Blocks : 262144 Invalid Blocks : 0
Heartbeat CPU 3 instructions: 200000002 cycles: 124174942 heartbeat IPC: 1.85814 cumulative IPC: 1.61063 (Simulation time: 12 hr 12 min 36 sec) 
 Total Blocks : 262144 Invalid Blocks : 0

Warmup complete CPU 0 instructions: 200223943 cycles: 124174942 (Simulation time: 12 hr 12 min 36 sec) 
Warmup complete CPU 1 instructions: 200184940 cycles: 124174942 (Simulation time: 12 hr 12 min 36 sec) 
Warmup complete CPU 2 instructions: 200023333 cycles: 124174942 (Simulation time: 12 hr 12 min 36 sec) 
Warmup complete CPU 3 instructions: 200000002 cycles: 124174942 (Simulation time: 12 hr 12 min 36 sec) 
Warmup complete CPU 4 instructions: 200122734 cycles: 124174941 (Simulation time: 12 hr 12 min 36 sec) 
Warmup complete CPU 5 instructions: 200096923 cycles: 124174941 (Simulation time: 12 hr 12 min 36 sec) 
Warmup complete CPU 6 instructions: 200078221 cycles: 124174941 (Simulation time: 12 hr 12 min 36 sec) 
Warmup complete CPU 7 instructions: 200102068 cycles: 124174941 (Simulation time: 12 hr 12 min 36 sec) 

Heartbeat CPU 0 instructions: 210000003 cycles: 210169671 heartbeat IPC: 0.116123 cumulative IPC: 0.113682 (Simulation time: 14 hr 0 min 47 sec) 
 Total Blocks : 262144 Invalid Blocks : 0
Heartbeat CPU 2 instructions: 210000003 cycles: 210956456 heartbeat IPC: 0.115215 cumulative IPC: 0.114963 (Simulation time: 14 hr 1 min 36 sec) 
 Total Blocks : 262144 Invalid Blocks : 0
Heartbeat CPU 3 instructions: 210000003 cycles: 210957769 heartbeat IPC: 0.11523 cumulative IPC: 0.11523 (Simulation time: 14 hr 1 min 36 sec) 
 Total Blocks : 262144 Invalid Blocks : 0
Heartbeat CPU 1 instructions: 210000003 cycles: 210958843 heartbeat IPC: 0.115097 cumulative IPC: 0.113098 (Simulation time: 14 hr 1 min 36 sec) 
 Total Blocks : 262144 Invalid Blocks : 0
Heartbeat CPU 7 instructions: 210000003 cycles: 211101127 heartbeat IPC: 0.114967 cumulative IPC: 0.113866 (Simulation time: 14 hr 1 min 44 sec) 
 Total Blocks : 262144 Invalid Blocks : 0
Heartbeat CPU 4 instructions: 210000003 cycles: 211183042 heartbeat IPC: 0.114844 cumulative IPC: 0.113521 (Simulation time: 14 hr 1 min 48 sec) 
 Total Blocks : 262144 Invalid Blocks : 0
Heartbeat CPU 5 instructions: 210000003 cycles: 211218474 heartbeat IPC: 0.114816 cumulative IPC: 0.113772 (Simulation time: 14 hr 1 min 50 sec) 
 Total Blocks : 262144 Invalid Blocks : 0
Heartbeat CPU 6 instructions: 210000003 cycles: 211873429 heartbeat IPC: 0.113973 cumulative IPC: 0.113135 (Simulation time: 14 hr 2 min 24 sec) 
 Total Blocks : 262144 Invalid Blocks : 0
Heartbeat CPU 3 instructions: 220000000 cycles: 298182986 heartbeat IPC: 0.114646 cumulative IPC: 0.114937 (Simulation time: 15 hr 21 min 50 sec) 
 Total Blocks : 262144 Invalid Blocks : 0
Heartbeat CPU 2 instructions: 220000000 cycles: 298262206 heartbeat IPC: 0.11454 cumulative IPC: 0.114751 (Simulation time: 15 hr 21 min 54 sec) 
 Total Blocks : 262144 Invalid Blocks : 0
Heartbeat CPU 0 instructions: 220000000 cycles: 298490446 heartbeat IPC: 0.113224 cumulative IPC: 0.11345 (Simulation time: 15 hr 22 min 7 sec) 
 Total Blocks : 262144 Invalid Blocks : 0
Heartbeat CPU 1 instructions: 220000000 cycles: 299531391 heartbeat IPC: 0.112902 cumulative IPC: 0.112999 (Simulation time: 15 hr 23 min 1 sec) 
 Total Blocks : 262144 Invalid Blocks : 0
Heartbeat CPU 4 instructions: 220000000 cycles: 299710251 heartbeat IPC: 0.11296 cumulative IPC: 0.113238 (Simulation time: 15 hr 23 min 10 sec) 
 Total Blocks : 262144 Invalid Blocks : 0
Heartbeat CPU 7 instructions: 220000000 cycles: 299903734 heartbeat IPC: 0.112609 cumulative IPC: 0.113231 (Simulation time: 15 hr 23 min 21 sec) 
 Total Blocks : 262144 Invalid Blocks : 0
Heartbeat CPU 5 instructions: 220000000 cycles: 299965916 heartbeat IPC: 0.112679 cumulative IPC: 0.11322 (Simulation time: 15 hr 23 min 24 sec) 
 Total Blocks : 262144 Invalid Blocks : 0
Heartbeat CPU 6 instructions: 220000000 cycles: 300586232 heartbeat IPC: 0.112723 cumulative IPC: 0.112928 (Simulation time: 15 hr 23 min 57 sec) 
 Total Blocks : 262144 Invalid Blocks : 0
Heartbeat CPU 3 instructions: 230000000 cycles: 384939758 heartbeat IPC: 0.115265 cumulative IPC: 0.115046 (Simulation time: 16 hr 42 min 46 sec) 
 Total Blocks : 262144 Invalid Blocks : 0
Heartbeat CPU 2 instructions: 230000002 cycles: 385024799 heartbeat IPC: 0.115257 cumulative IPC: 0.114919 (Simulation time: 16 hr 42 min 50 sec) 
 Total Blocks : 262144 Invalid Blocks : 0
Heartbeat CPU 0 instructions: 230000002 cycles: 386380638 heartbeat IPC: 0.113778 cumulative IPC: 0.11356 (Simulation time: 16 hr 44 min 6 sec) 
 Total Blocks : 262144 Invalid Blocks : 0
Heartbeat CPU 4 instructions: 230000002 cycles: 387648594 heartbeat IPC: 0.113716 cumulative IPC: 0.113398 (Simulation time: 16 hr 45 min 12 sec) 
 Total Blocks : 262144 Invalid Blocks : 0
Heartbeat CPU 1 instructions: 230000000 cycles: 387762776 heartbeat IPC: 0.113338 cumulative IPC: 0.113112 (Simulation time: 16 hr 45 min 19 sec) 
 Total Blocks : 262144 Invalid Blocks : 0
Heartbeat CPU 5 instructions: 230000002 cycles: 388058075 heartbeat IPC: 0.113518 cumulative IPC: 0.113319 (Simulation time: 16 hr 45 min 35 sec) 
 Total Blocks : 262144 Invalid Blocks : 0
Heartbeat CPU 7 instructions: 230000002 cycles: 388086061 heartbeat IPC: 0.113401 cumulative IPC: 0.113288 (Simulation time: 16 hr 45 min 36 sec) 
 Total Blocks : 262144 Invalid Blocks : 0
Heartbeat CPU 6 instructions: 230000000 cycles: 388589152 heartbeat IPC: 0.113633 cumulative IPC: 0.113163 (Simulation time: 16 hr 46 min 2 sec) 
 Total Blocks : 262144 Invalid Blocks : 0
Heartbeat CPU 3 instructions: 240000000 cycles: 471685805 heartbeat IPC: 0.115279 cumulative IPC: 0.115104 (Simulation time: 18 hr 6 min 19 sec) 
 Total Blocks : 262144 Invalid Blocks : 0
Heartbeat CPU 2 instructions: 240000000 cycles: 471802424 heartbeat IPC: 0.115237 cumulative IPC: 0.114999 (Simulation time: 18 hr 6 min 25 sec) 
 Total Blocks : 262144 Invalid Blocks : 0
Heartbeat CPU 0 instructions: 240000000 cycles: 474272011 heartbeat IPC: 0.113777 cumulative IPC: 0.113614 (Simulation time: 18 hr 8 min 56 sec) 
 Total Blocks : 262144 Invalid Blocks : 0
Heartbeat CPU 1 instructions: 240000000 cycles: 475434989 heartbeat IPC: 0.114061 cumulative IPC: 0.113349 (Simulation time: 18 hr 9 min 59 sec) 
 Total Blocks : 262144 Invalid Blocks : 0
Heartbeat CPU 5 instructions: 240000000 cycles: 475489540 heartbeat IPC: 0.114375 cumulative IPC: 0.113582 (Simulation time: 18 hr 10 min 2 sec) 
 Total Blocks : 262144 Invalid Blocks : 0
Heartbeat CPU 4 instructions: 240000000 cycles: 475555224 heartbeat IPC: 0.113757 cumulative IPC: 0.113487 (Simulation time: 18 hr 10 min 5 sec) 
 Total Blocks : 262144 Invalid Blocks : 0
Heartbeat CPU 7 instructions: 240000000 cycles: 475834672 heartbeat IPC: 0.113962 cumulative IPC: 0.113456 (Simulation time: 18 hr 10 min 20 sec) 
 Total Blocks : 262144 Invalid Blocks : 0
Heartbeat CPU 6 instructions: 240000000 cycles: 476416825 heartbeat IPC: 0.113859 cumulative IPC: 0.113336 (Simulation time: 18 hr 10 min 50 sec) 
 Total Blocks : 262144 Invalid Blocks : 0
Heartbeat CPU 2 instructions: 250000000 cycles: 558773877 heartbeat IPC: 0.11498 cumulative IPC: 0.114995 (Simulation time: 19 hr 32 min 36 sec) 
 Total Blocks : 262144 Invalid Blocks : 0
Heartbeat CPU 3 instructions: 250000000 cycles: 558975883 heartbeat IPC: 0.114561 cumulative IPC: 0.114995 (Simulation time: 19 hr 32 min 47 sec) 
 Total Blocks : 262144 Invalid Blocks : 0
Heartbeat CPU 0 instructions: 250000000 cycles: 562518748 heartbeat IPC: 0.113319 cumulative IPC: 0.113555 (Simulation time: 19 hr 36 min 24 sec) 
 Total Blocks : 262144 Invalid Blocks : 0
Heartbeat CPU 1 instructions: 250000000 cycles: 563471179 heartbeat IPC: 0.11359 cumulative IPC: 0.113397 (Simulation time: 19 hr 37 min 20 sec) 
 Total Blocks : 262144 Invalid Blocks : 0
Heartbeat CPU 5 instructions: 250000000 cycles: 563735889 heartbeat IPC: 0.113319 cumulative IPC: 0.113529 (Simulation time: 19 hr 37 min 35 sec) 
 Total Blocks : 262144 Invalid Blocks : 0
Heartbeat CPU 4 instructions: 250000000 cycles: 563816213 heartbeat IPC: 0.1133 cumulative IPC: 0.11345 (Simulation time: 19 hr 37 min 39 sec) 
 Total Blocks : 262144 Invalid Blocks : 0
Heartbeat CPU 7 instructions: 250000000 cycles: 564356258 heartbeat IPC: 0.112967 cumulative IPC: 0.113358 (Simulation time: 19 hr 38 min 11 sec) 
 Total Blocks : 262144 Invalid Blocks : 0
Heartbeat CPU 6 instructions: 250000000 cycles: 564460930 heartbeat IPC: 0.113579 cumulative IPC: 0.113385 (Simulation time: 19 hr 38 min 19 sec) 
 Total Blocks : 262144 Invalid Blocks : 0
Heartbeat CPU 2 instructions: 260000001 cycles: 645339547 heartbeat IPC: 0.115519 cumulative IPC: 0.115082 (Simulation time: 20 hr 58 min 43 sec) 
 Total Blocks : 262144 Invalid Blocks : 0
Heartbeat CPU 3 instructions: 260000001 cycles: 645432895 heartbeat IPC: 0.115664 cumulative IPC: 0.115106 (Simulation time: 20 hr 58 min 48 sec) 
 Total Blocks : 262144 Invalid Blocks : 0
Heartbeat CPU 0 instructions: 260000001 cycles: 650423094 heartbeat IPC: 0.11376 cumulative IPC: 0.113589 (Simulation time: 21 hr 3 min 46 sec) 
 Total Blocks : 262144 Invalid Blocks : 0
Heartbeat CPU 1 instructions: 260000001 cycles: 651292288 heartbeat IPC: 0.113868 cumulative IPC: 0.113476 (Simulation time: 21 hr 4 min 33 sec) 
 Total Blocks : 262144 Invalid Blocks : 0
Heartbeat CPU 5 instructions: 260000001 cycles: 651579838 heartbeat IPC: 0.113838 cumulative IPC: 0.113581 (Simulation time: 21 hr 4 min 53 sec) 
 Total Blocks : 262144 Invalid Blocks : 0
Heartbeat CPU 4 instructions: 260000001 cycles: 651746662 heartbeat IPC: 0.113726 cumulative IPC: 0.113496 (Simulation time: 21 hr 5 min 2 sec) 
 Total Blocks : 262144 Invalid Blocks : 0
Heartbeat CPU 7 instructions: 260000001 cycles: 652355901 heartbeat IPC: 0.113637 cumulative IPC: 0.113404 (Simulation time: 21 hr 5 min 37 sec) 
 Total Blocks : 262144 Invalid Blocks : 0
Heartbeat CPU 6 instructions: 260000001 cycles: 652617604 heartbeat IPC: 0.113434 cumulative IPC: 0.113393 (Simulation time: 21 hr 5 min 53 sec) 
 Total Blocks : 262144 Invalid Blocks : 0
Heartbeat CPU 2 instructions: 270000003 cycles: 733242601 heartbeat IPC: 0.113762 cumulative IPC: 0.114891 (Simulation time: 22 hr 30 min 50 sec) 
 Total Blocks : 262144 Invalid Blocks : 0
Heartbeat CPU 3 instructions: 270000003 cycles: 733367980 heartbeat IPC: 0.11372 cumulative IPC: 0.114906 (Simulation time: 22 hr 30 min 58 sec) 
 Total Blocks : 262144 Invalid Blocks : 0
Heartbeat CPU 0 instructions: 270000003 cycles: 739198835 heartbeat IPC: 0.112643 cumulative IPC: 0.113453 (Simulation time: 22 hr 37 min 17 sec) 
 Total Blocks : 262144 Invalid Blocks : 0
Heartbeat CPU 1 instructions: 270000003 cycles: 739842382 heartbeat IPC: 0.11293 cumulative IPC: 0.113397 (Simulation time: 22 hr 37 min 57 sec) 
 Total Blocks : 262144 Invalid Blocks : 0
Heartbeat CPU 5 instructions: 270000003 cycles: 740397202 heartbeat IPC: 0.112591 cumulative IPC: 0.113438 (Simulation time: 22 hr 38 min 30 sec) 
 Total Blocks : 262144 Invalid Blocks : 0
Heartbeat CPU 4 instructions: 270000003 cycles: 740457212 heartbeat IPC: 0.112726 cumulative IPC: 0.113385 (Simulation time: 22 hr 38 min 34 sec) 
 Total Blocks : 262144 Invalid Blocks : 0
Heartbeat CPU 7 instructions: 270000003 cycles: 741078325 heartbeat IPC: 0.112711 cumulative IPC: 0.113305 (Simulation time: 22 hr 39 min 9 sec) 
 Total Blocks : 262144 Invalid Blocks : 0
Heartbeat CPU 6 instructions: 270000003 cycles: 741401987 heartbeat IPC: 0.112632 cumulative IPC: 0.113284 (Simulation time: 22 hr 39 min 30 sec) 
 Total Blocks : 262144 Invalid Blocks : 0
Heartbeat CPU 3 instructions: 280000000 cycles: 819935912 heartbeat IPC: 0.115516 cumulative IPC: 0.114982 (Simulation time: 24 hr 1 min 14 sec) 
 Total Blocks : 262144 Invalid Blocks : 0
Heartbeat CPU 2 instructions: 280000000 cycles: 820069928 heartbeat IPC: 0.115171 cumulative IPC: 0.114926 (Simulation time: 24 hr 1 min 23 sec) 
 Total Blocks : 262144 Invalid Blocks : 0
Heartbeat CPU 0 instructions: 280000000 cycles: 826754485 heartbeat IPC: 0.114213 cumulative IPC: 0.113547 (Simulation time: 24 hr 8 min 42 sec) 
 Total Blocks : 262144 Invalid Blocks : 0
Heartbeat CPU 1 instructions: 280000000 cycles: 827112740 heartbeat IPC: 0.114586 cumulative IPC: 0.113545 (Simulation time: 24 hr 9 min 5 sec) 
 Total Blocks : 262144 Invalid Blocks : 0
Heartbeat CPU 4 instructions: 280000000 cycles: 827513692 heartbeat IPC: 0.114868 cumulative IPC: 0.113569 (Simulation time: 24 hr 9 min 30 sec) 
 Total Blocks : 262144 Invalid Blocks : 0
Heartbeat CPU 5 instructions: 280000000 cycles: 827845937 heartbeat IPC: 0.114353 cumulative IPC: 0.113552 (Simulation time: 24 hr 9 min 50 sec) 
 Total Blocks : 262144 Invalid Blocks : 0
Heartbeat CPU 6 instructions: 280000000 cycles: 828536743 heartbeat IPC: 0.114765 cumulative IPC: 0.113467 (Simulation time: 24 hr 10 min 34 sec) 
 Total Blocks : 262144 Invalid Blocks : 0
Heartbeat CPU 7 instructions: 280000000 cycles: 828616276 heartbeat IPC: 0.114236 cumulative IPC: 0.11342 (Simulation time: 24 hr 10 min 39 sec) 
 Total Blocks : 262144 Invalid Blocks : 0
Heartbeat CPU 3 instructions: 290000003 cycles: 906535748 heartbeat IPC: 0.115474 cumulative IPC: 0.115036 (Simulation time: 25 hr 34 min 48 sec) 
 Total Blocks : 262144 Invalid Blocks : 0
Heartbeat CPU 2 instructions: 290000003 cycles: 906793765 heartbeat IPC: 0.115309 cumulative IPC: 0.114969 (Simulation time: 25 hr 35 min 6 sec) 
 Total Blocks : 262144 Invalid Blocks : 0
Heartbeat CPU 0 instructions: 290000003 cycles: 914498753 heartbeat IPC: 0.113968 cumulative IPC: 0.113594 (Simulation time: 25 hr 43 min 20 sec) 
 Total Blocks : 262144 Invalid Blocks : 0
Heartbeat CPU 1 instructions: 290000003 cycles: 914917014 heartbeat IPC: 0.11389 cumulative IPC: 0.113583 (Simulation time: 25 hr 43 min 44 sec) 
 Total Blocks : 262144 Invalid Blocks : 0
Heartbeat CPU 4 instructions: 290000003 cycles: 915278372 heartbeat IPC: 0.113941 cumulative IPC: 0.11361 (Simulation time: 25 hr 44 min 6 sec) 
 Total Blocks : 262144 Invalid Blocks : 0
Heartbeat CPU 5 instructions: 290000003 cycles: 915663666 heartbeat IPC: 0.113872 cumulative IPC: 0.113587 (Simulation time: 25 hr 44 min 29 sec) 
 Total Blocks : 262144 Invalid Blocks : 0
Heartbeat CPU 6 instructions: 290000003 cycles: 916318389 heartbeat IPC: 0.113919 cumulative IPC: 0.113517 (Simulation time: 25 hr 45 min 11 sec) 
 Total Blocks : 262144 Invalid Blocks : 0
Heartbeat CPU 7 instructions: 290000003 cycles: 916365239 heartbeat IPC: 0.113961 cumulative IPC: 0.11348 (Simulation time: 25 hr 45 min 13 sec) 
 Total Blocks : 262144 Invalid Blocks : 0
Heartbeat CPU 3 instructions: 300000001 cycles: 993811489 heartbeat IPC: 0.114579 cumulative IPC: 0.114991 (Simulation time: 27 hr 10 min 6 sec) 
 Total Blocks : 262144 Invalid Blocks : 0
Heartbeat CPU 2 instructions: 300000001 cycles: 994261126 heartbeat IPC: 0.114328 cumulative IPC: 0.114904 (Simulation time: 27 hr 10 min 32 sec) 
 Total Blocks : 262144 Invalid Blocks : 0
Heartbeat CPU 0 instructions: 300000001 cycles: 1002825252 heartbeat IPC: 0.113216 cumulative IPC: 0.113556 (Simulation time: 27 hr 19 min 33 sec) 
 Total Blocks : 262144 Invalid Blocks : 0
Heartbeat CPU 1 instructions: 300000001 cycles: 1003209252 heartbeat IPC: 0.11326 cumulative IPC: 0.113551 (Simulation time: 27 hr 19 min 59 sec) 
 Total Blocks : 262144 Invalid Blocks : 0
Heartbeat CPU 5 instructions: 300000001 cycles: 1003785100 heartbeat IPC: 0.11348 cumulative IPC: 0.113577 (Simulation time: 27 hr 20 min 36 sec) 
 Total Blocks : 262144 Invalid Blocks : 0
Heartbeat CPU 4 instructions: 300000001 cycles: 1003786753 heartbeat IPC: 0.112984 cumulative IPC: 0.113547 (Simulation time: 27 hr 20 min 37 sec) 
 Total Blocks : 262144 Invalid Blocks : 0
Heartbeat CPU 6 instructions: 300000001 cycles: 1004285368 heartbeat IPC: 0.113679 cumulative IPC: 0.113533 (Simulation time: 27 hr 21 min 7 sec) 
 Total Blocks : 262144 Invalid Blocks : 0
Heartbeat CPU 7 instructions: 300000001 cycles: 1004844111 heartbeat IPC: 0.113021 cumulative IPC: 0.113434 (Simulation time: 27 hr 21 min 41 sec) 
 Total Blocks : 262144 Invalid Blocks : 0
Heartbeat CPU 3 instructions: 310000003 cycles: 1080698541 heartbeat IPC: 0.115092 cumulative IPC: 0.115 (Simulation time: 29 hr 4 min 39 sec) 
 Total Blocks : 262144 Invalid Blocks : 0
Heartbeat CPU 2 instructions: 310000003 cycles: 1080989048 heartbeat IPC: 0.115303 cumulative IPC: 0.11494 (Simulation time: 29 hr 4 min 59 sec) 
 Total Blocks : 262144 Invalid Blocks : 0
Heartbeat CPU 0 instructions: 310000003 cycles: 1090543374 heartbeat IPC: 0.114002 cumulative IPC: 0.113596 (Simulation time: 29 hr 15 min 59 sec) 
 Total Blocks : 262144 Invalid Blocks : 0
Heartbeat CPU 1 instructions: 310000003 cycles: 1091062687 heartbeat IPC: 0.113826 cumulative IPC: 0.113576 (Simulation time: 29 hr 16 min 34 sec) 
 Total Blocks : 262144 Invalid Blocks : 0
Heartbeat CPU 4 instructions: 310000003 cycles: 1091324425 heartbeat IPC: 0.114237 cumulative IPC: 0.113609 (Simulation time: 29 hr 16 min 50 sec) 
 Total Blocks : 262144 Invalid Blocks : 0
Heartbeat CPU 5 instructions: 310000003 cycles: 1091370380 heartbeat IPC: 0.114174 cumulative IPC: 0.113631 (Simulation time: 29 hr 16 min 53 sec) 
 Total Blocks : 262144 Invalid Blocks : 0
Heartbeat CPU 6 instructions: 310000003 cycles: 1091724151 heartbeat IPC: 0.114366 cumulative IPC: 0.113608 (Simulation time: 29 hr 17 min 16 sec) 
 Total Blocks : 262144 Invalid Blocks : 0
Heartbeat CPU 7 instructions: 310000003 cycles: 1092659786 heartbeat IPC: 0.113875 cumulative IPC: 0.113474 (Simulation time: 29 hr 18 min 19 sec) 
 Total Blocks : 262144 Invalid Blocks : 0
Heartbeat CPU 3 instructions: 320000001 cycles: 1167845861 heartbeat IPC: 0.114748 cumulative IPC: 0.114979 (Simulation time: 31 hr 25 min 42 sec) 
 Total Blocks : 262144 Invalid Blocks : 0
Heartbeat CPU 2 instructions: 320000001 cycles: 1167946551 heartbeat IPC: 0.114999 cumulative IPC: 0.114945 (Simulation time: 31 hr 25 min 55 sec) 
 Total Blocks : 262144 Invalid Blocks : 0
Heartbeat CPU 0 instructions: 320000001 cycles: 1178262222 heartbeat IPC: 0.114001 cumulative IPC: 0.11363 (Simulation time: 31 hr 44 min 22 sec) 
 Total Blocks : 262144 Invalid Blocks : 0
Heartbeat CPU 1 instructions: 320000001 cycles: 1178582628 heartbeat IPC: 0.11426 cumulative IPC: 0.113633 (Simulation time: 31 hr 44 min 54 sec) 
 Total Blocks : 262144 Invalid Blocks : 0
Heartbeat CPU 5 instructions: 320000001 cycles: 1178879349 heartbeat IPC: 0.114274 cumulative IPC: 0.113684 (Simulation time: 31 hr 45 min 22 sec) 
 Total Blocks : 262144 Invalid Blocks : 0
Heartbeat CPU 4 instructions: 320000001 cycles: 1178921403 heartbeat IPC: 0.114159 cumulative IPC: 0.113655 (Simulation time: 31 hr 45 min 26 sec) 
 Total Blocks : 262144 Invalid Blocks : 0
Heartbeat CPU 6 instructions: 320000001 cycles: 1179300554 heartbeat IPC: 0.114186 cumulative IPC: 0.113656 (Simulation time: 31 hr 46 min 6 sec) 
 Total Blocks : 262144 Invalid Blocks : 0
Heartbeat CPU 7 instructions: 320000001 cycles: 1180190181 heartbeat IPC: 0.114246 cumulative IPC: 0.113538 (Simulation time: 31 hr 47 min 47 sec) 
 Total Blocks : 262144 Invalid Blocks : 0
Heartbeat CPU 3 instructions: 330000000 cycles: 1255015821 heartbeat IPC: 0.114718 cumulative IPC: 0.114959 (Simulation time: 34 hr 10 min 7 sec) 
 Total Blocks : 262144 Invalid Blocks : 0
Heartbeat CPU 2 instructions: 330000000 cycles: 1255352167 heartbeat IPC: 0.114409 cumulative IPC: 0.114904 (Simulation time: 34 hr 10 min 41 sec) 
 Total Blocks : 262144 Invalid Blocks : 0
Heartbeat CPU 0 instructions: 330000000 cycles: 1266026335 heartbeat IPC: 0.113942 cumulative IPC: 0.113654 (Simulation time: 34 hr 29 min 19 sec) 
 Total Blocks : 262144 Invalid Blocks : 0
Heartbeat CPU 1 instructions: 330000000 cycles: 1266355597 heartbeat IPC: 0.11393 cumulative IPC: 0.113655 (Simulation time: 34 hr 29 min 56 sec) 
 Total Blocks : 262144 Invalid Blocks : 0
Heartbeat CPU 5 instructions: 330000000 cycles: 1266922749 heartbeat IPC: 0.11358 cumulative IPC: 0.113676 (Simulation time: 34 hr 30 min 58 sec) 
 Total Blocks : 262144 Invalid Blocks : 0
Heartbeat CPU 4 instructions: 330000000 cycles: 1267209422 heartbeat IPC: 0.113266 cumulative IPC: 0.113625 (Simulation time: 34 hr 31 min 32 sec) 
 Total Blocks : 262144 Invalid Blocks : 0
Heartbeat CPU 6 instructions: 330000000 cycles: 1267574615 heartbeat IPC: 0.113284 cumulative IPC: 0.113628 (Simulation time: 34 hr 32 min 6 sec) 
 Total Blocks : 262144 Invalid Blocks : 0
Heartbeat CPU 7 instructions: 330000000 cycles: 1268453732 heartbeat IPC: 0.113297 cumulative IPC: 0.113519 (Simulation time: 34 hr 33 min 40 sec) 
 Total Blocks : 262144 Invalid Blocks : 0
Heartbeat CPU 3 instructions: 340000000 cycles: 1342019752 heartbeat IPC: 0.114937 cumulative IPC: 0.114957 (Simulation time: 36 hr 51 min 53 sec) 
 Total Blocks : 262144 Invalid Blocks : 0
Heartbeat CPU 2 instructions: 340000000 cycles: 1342603544 heartbeat IPC: 0.114611 cumulative IPC: 0.114883 (Simulation time: 36 hr 53 min 15 sec) 
 Total Blocks : 262144 Invalid Blocks : 0
Heartbeat CPU 0 instructions: 340000000 cycles: 1353537842 heartbeat IPC: 0.114271 cumulative IPC: 0.113698 (Simulation time: 37 hr 15 min 53 sec) 
 Total Blocks : 262144 Invalid Blocks : 0
Heartbeat CPU 1 instructions: 340000000 cycles: 1353906631 heartbeat IPC: 0.114219 cumulative IPC: 0.113696 (Simulation time: 37 hr 16 min 46 sec) 
 Total Blocks : 262144 Invalid Blocks : 0
Heartbeat CPU 5 instructions: 340000000 cycles: 1354534478 heartbeat IPC: 0.11414 cumulative IPC: 0.113709 (Simulation time: 37 hr 18 min 17 sec) 
 Total Blocks : 262144 Invalid Blocks : 0
Heartbeat CPU 4 instructions: 340000000 cycles: 1354981958 heartbeat IPC: 0.113931 cumulative IPC: 0.113647 (Simulation time: 37 hr 19 min 13 sec) 
 Total Blocks : 262144 Invalid Blocks : 0
Heartbeat CPU 6 instructions: 340000000 cycles: 1355185743 heartbeat IPC: 0.114141 cumulative IPC: 0.113664 (Simulation time: 37 hr 19 min 40 sec) 
 Total Blocks : 262144 Invalid Blocks : 0
Heartbeat CPU 7 instructions: 340000000 cycles: 1355944765 heartbeat IPC: 0.114297 cumulative IPC: 0.113575 (Simulation time: 37 hr 21 min 10 sec) 
 Total Blocks : 262144 Invalid Blocks : 0
Heartbeat CPU 3 instructions: 350000001 cycles: 1428981388 heartbeat IPC: 0.114993 cumulative IPC: 0.11496 (Simulation time: 39 hr 33 min 41 sec) 
 Total Blocks : 262144 Invalid Blocks : 0
Heartbeat CPU 2 instructions: 350000001 cycles: 1429791528 heartbeat IPC: 0.114695 cumulative IPC: 0.11487 (Simulation time: 39 hr 35 min 14 sec) 
 Total Blocks : 262144 Invalid Blocks : 0
Heartbeat CPU 0 instructions: 350000001 cycles: 1441526894 heartbeat IPC: 0.113651 cumulative IPC: 0.113695 (Simulation time: 39 hr 56 min 19 sec) 
 Total Blocks : 262144 Invalid Blocks : 0
Heartbeat CPU 1 instructions: 350000001 cycles: 1442130456 heartbeat IPC: 0.113348 cumulative IPC: 0.113672 (Simulation time: 39 hr 57 min 29 sec) 
 Total Blocks : 262144 Invalid Blocks : 0
Heartbeat CPU 5 instructions: 350000001 cycles: 1442346507 heartbeat IPC: 0.11388 cumulative IPC: 0.11372 (Simulation time: 39 hr 57 min 49 sec) 
 Total Blocks : 262144 Invalid Blocks : 0
Heartbeat CPU 4 instructions: 350000001 cycles: 1443053648 heartbeat IPC: 0.113544 cumulative IPC: 0.11364 (Simulation time: 39 hr 59 min 1 sec) 
 Total Blocks : 262144 Invalid Blocks : 0
Heartbeat CPU 6 instructions: 350000001 cycles: 1443487284 heartbeat IPC: 0.113248 cumulative IPC: 0.113636 (Simulation time: 39 hr 59 min 42 sec) 
 Total Blocks : 262144 Invalid Blocks : 0
Heartbeat CPU 7 instructions: 350000001 cycles: 1444235327 heartbeat IPC: 0.113262 cumulative IPC: 0.113554 (Simulation time: 40 hr 1 min 10 sec) 
 Total Blocks : 262144 Invalid Blocks : 0
Heartbeat CPU 3 instructions: 360000001 cycles: 1515980422 heartbeat IPC: 0.114944 cumulative IPC: 0.114959 (Simulation time: 42 hr 8 min 51 sec) 
 Total Blocks : 262144 Invalid Blocks : 0
Heartbeat CPU 2 instructions: 360000001 cycles: 1517038103 heartbeat IPC: 0.114618 cumulative IPC: 0.114855 (Simulation time: 42 hr 10 min 38 sec) 
 Total Blocks : 262144 Invalid Blocks : 0
Heartbeat CPU 0 instructions: 360000001 cycles: 1529050244 heartbeat IPC: 0.114255 cumulative IPC: 0.11373 (Simulation time: 42 hr 31 min 24 sec) 
 Total Blocks : 262144 Invalid Blocks : 0
Heartbeat CPU 1 instructions: 360000001 cycles: 1529653306 heartbeat IPC: 0.114256 cumulative IPC: 0.113709 (Simulation time: 42 hr 32 min 24 sec) 
 Total Blocks : 262144 Invalid Blocks : 0
Heartbeat CPU 5 instructions: 360000001 cycles: 1529777190 heartbeat IPC: 0.114376 cumulative IPC: 0.113761 (Simulation time: 42 hr 32 min 37 sec) 
 Total Blocks : 262144 Invalid Blocks : 0
Heartbeat CPU 4 instructions: 360000001 cycles: 1530381023 heartbeat IPC: 0.114512 cumulative IPC: 0.113694 (Simulation time: 42 hr 33 min 36 sec) 
 Total Blocks : 262144 Invalid Blocks : 0
Heartbeat CPU 6 instructions: 360000001 cycles: 1531132404 heartbeat IPC: 0.114096 cumulative IPC: 0.113665 (Simulation time: 42 hr 34 min 54 sec) 
 Total Blocks : 262144 Invalid Blocks : 0
Heartbeat CPU 7 instructions: 360000001 cycles: 1531934428 heartbeat IPC: 0.114026 cumulative IPC: 0.113583 (Simulation time: 42 hr 36 min 11 sec) 
 Total Blocks : 262144 Invalid Blocks : 0
Heartbeat CPU 3 instructions: 370000000 cycles: 1603092765 heartbeat IPC: 0.114794 cumulative IPC: 0.114949 (Simulation time: 44 hr 33 min 5 sec) 
 Total Blocks : 262144 Invalid Blocks : 0
Heartbeat CPU 2 instructions: 370000000 cycles: 1604157600 heartbeat IPC: 0.114785 cumulative IPC: 0.11485 (Simulation time: 44 hr 34 min 48 sec) 
 Total Blocks : 262144 Invalid Blocks : 0
Heartbeat CPU 0 instructions: 370000000 cycles: 1616801602 heartbeat IPC: 0.113958 cumulative IPC: 0.113743 (Simulation time: 44 hr 55 min 58 sec) 
 Total Blocks : 262144 Invalid Blocks : 0
Heartbeat CPU 1 instructions: 370000000 cycles: 1617510753 heartbeat IPC: 0.113821 cumulative IPC: 0.113715 (Simulation time: 44 hr 57 min 5 sec) 
 Total Blocks : 262144 Invalid Blocks : 0
Heartbeat CPU 5 instructions: 370000000 cycles: 1617554642 heartbeat IPC: 0.113924 cumulative IPC: 0.113771 (Simulation time: 44 hr 57 min 7 sec) 
 Total Blocks : 262144 Invalid Blocks : 0
Heartbeat CPU 4 instructions: 370000000 cycles: 1618314540 heartbeat IPC: 0.113722 cumulative IPC: 0.113696 (Simulation time: 44 hr 58 min 22 sec) 
 Total Blocks : 262144 Invalid Blocks : 0
Heartbeat CPU 6 instructions: 370000000 cycles: 1619081669 heartbeat IPC: 0.113702 cumulative IPC: 0.113667 (Simulation time: 44 hr 59 min 42 sec) 
 Total Blocks : 262144 Invalid Blocks : 0
Heartbeat CPU 7 instructions: 370000000 cycles: 1619925176 heartbeat IPC: 0.113648 cumulative IPC: 0.113587 (Simulation time: 45 hr 1 min 8 sec) 
 Total Blocks : 262144 Invalid Blocks : 0
Heartbeat CPU 3 instructions: 380000002 cycles: 1690173258 heartbeat IPC: 0.114836 cumulative IPC: 0.114943 (Simulation time: 46 hr 54 min 47 sec) 
 Total Blocks : 262144 Invalid Blocks : 0
Heartbeat CPU 2 instructions: 380000002 cycles: 1690954504 heartbeat IPC: 0.115212 cumulative IPC: 0.11487 (Simulation time: 46 hr 56 min 3 sec) 
 Total Blocks : 262144 Invalid Blocks : 0
Heartbeat CPU 0 instructions: 380000002 cycles: 1705018357 heartbeat IPC: 0.113357 cumulative IPC: 0.113722 (Simulation time: 47 hr 20 min 0 sec) 
 Total Blocks : 262144 Invalid Blocks : 0
Heartbeat CPU 5 instructions: 380000002 cycles: 1706007334 heartbeat IPC: 0.113055 cumulative IPC: 0.113731 (Simulation time: 47 hr 21 min 33 sec) 
 Total Blocks : 262144 Invalid Blocks : 0
Heartbeat CPU 1 instructions: 380000002 cycles: 1706044678 heartbeat IPC: 0.112951 cumulative IPC: 0.113672 (Simulation time: 47 hr 21 min 36 sec) 
 Total Blocks : 262144 Invalid Blocks : 0
Heartbeat CPU 4 instructions: 380000002 cycles: 1706747928 heartbeat IPC: 0.113079 cumulative IPC: 0.113661 (Simulation time: 47 hr 22 min 41 sec) 
 Total Blocks : 262144 Invalid Blocks : 0
Heartbeat CPU 6 instructions: 380000002 cycles: 1707493881 heartbeat IPC: 0.113107 cumulative IPC: 0.113636 (Simulation time: 47 hr 24 min 0 sec) 
 Total Blocks : 262144 Invalid Blocks : 0
Heartbeat CPU 7 instructions: 380000002 cycles: 1708596928 heartbeat IPC: 0.112776 cumulative IPC: 0.113542 (Simulation time: 47 hr 25 min 49 sec) 
 Total Blocks : 262144 Invalid Blocks : 0
Heartbeat CPU 3 instructions: 390000000 cycles: 1777930168 heartbeat IPC: 0.113951 cumulative IPC: 0.11489 (Simulation time: 49 hr 13 min 49 sec) 
 Total Blocks : 262144 Invalid Blocks : 0
Heartbeat CPU 2 instructions: 390000000 cycles: 1778669884 heartbeat IPC: 0.114005 cumulative IPC: 0.114825 (Simulation time: 49 hr 14 min 59 sec) 
 Total Blocks : 262144 Invalid Blocks : 0
Heartbeat CPU 0 instructions: 390000000 cycles: 1792653826 heartbeat IPC: 0.114109 cumulative IPC: 0.113742 (Simulation time: 49 hr 36 min 1 sec) 
 Total Blocks : 262144 Invalid Blocks : 0
Heartbeat CPU 5 instructions: 390000000 cycles: 1793781107 heartbeat IPC: 0.113929 cumulative IPC: 0.113741 (Simulation time: 49 hr 37 min 56 sec) 
 Total Blocks : 262144 Invalid Blocks : 0
Heartbeat CPU 1 instructions: 390000000 cycles: 1793921800 heartbeat IPC: 0.113795 cumulative IPC: 0.113679 (Simulation time: 49 hr 38 min 11 sec) 
 Total Blocks : 262144 Invalid Blocks : 0
Heartbeat CPU 4 instructions: 390000000 cycles: 1794341388 heartbeat IPC: 0.114164 cumulative IPC: 0.113688 (Simulation time: 49 hr 38 min 52 sec) 
 Total Blocks : 262144 Invalid Blocks : 0
Heartbeat CPU 6 instructions: 390000000 cycles: 1795089914 heartbeat IPC: 0.11416 cumulative IPC: 0.113663 (Simulation time: 49 hr 40 min 7 sec) 
 Total Blocks : 262144 Invalid Blocks : 0
Heartbeat CPU 7 instructions: 390000000 cycles: 1796387307 heartbeat IPC: 0.113908 cumulative IPC: 0.113561 (Simulation time: 49 hr 42 min 17 sec) 
 Total Blocks : 262144 Invalid Blocks : 0
Heartbeat CPU 3 instructions: 400000003 cycles: 1865171526 heartbeat IPC: 0.114625 cumulative IPC: 0.114877 (Simulation time: 51 hr 20 min 7 sec) 
 Total Blocks : 262144 Invalid Blocks : 0
Finished CPU 3 instructions: 200000001 cycles: 1740996584 cumulative IPC: 0.114877 (Simulation time: 51 hr 20 min 7 sec) 
Heartbeat CPU 2 instructions: 400000003 cycles: 1866031606 heartbeat IPC: 0.114467 cumulative IPC: 0.114807 (Simulation time: 51 hr 21 min 1 sec) 
 Total Blocks : 262144 Invalid Blocks : 0
Finished CPU 2 instructions: 200000000 cycles: 1742046389 cumulative IPC: 0.114808 (Simulation time: 51 hr 21 min 17 sec) 
Heartbeat CPU 0 instructions: 400000003 cycles: 1880803619 heartbeat IPC: 0.113443 cumulative IPC: 0.113727 (Simulation time: 51 hr 37 min 28 sec) 
 Total Blocks : 262144 Invalid Blocks : 0
Heartbeat CPU 5 instructions: 400000003 cycles: 1881976206 heartbeat IPC: 0.113385 cumulative IPC: 0.113723 (Simulation time: 51 hr 38 min 46 sec) 
 Total Blocks : 262144 Invalid Blocks : 0
Heartbeat CPU 1 instructions: 400000003 cycles: 1881982879 heartbeat IPC: 0.113558 cumulative IPC: 0.113673 (Simulation time: 51 hr 38 min 47 sec) 
 Total Blocks : 262144 Invalid Blocks : 0
Heartbeat CPU 4 instructions: 400000003 cycles: 1882405968 heartbeat IPC: 0.113553 cumulative IPC: 0.113681 (Simulation time: 51 hr 39 min 16 sec) 
 Total Blocks : 262144 Invalid Blocks : 0
Finished CPU 0 instructions: 200000001 cycles: 1758615588 cumulative IPC: 0.113726 (Simulation time: 51 hr 39 min 43 sec) 
Finished CPU 5 instructions: 200000000 cycles: 1758636062 cumulative IPC: 0.113724 (Simulation time: 51 hr 39 min 44 sec) 
Heartbeat CPU 6 instructions: 400000003 cycles: 1883204832 heartbeat IPC: 0.113488 cumulative IPC: 0.113655 (Simulation time: 51 hr 40 min 10 sec) 
 Total Blocks : 262144 Invalid Blocks : 0
Finished CPU 4 instructions: 200000003 cycles: 1759260204 cumulative IPC: 0.113684 (Simulation time: 51 hr 40 min 27 sec) 
Finished CPU 1 instructions: 200000001 cycles: 1759403950 cumulative IPC: 0.113675 (Simulation time: 51 hr 40 min 36 sec) 
Finished CPU 6 instructions: 200000001 cycles: 1759719564 cumulative IPC: 0.113654 (Simulation time: 51 hr 41 min 2 sec) 
Heartbeat CPU 7 instructions: 400000003 cycles: 1884617139 heartbeat IPC: 0.11334 cumulative IPC: 0.11355 (Simulation time: 51 hr 41 min 51 sec) 
 Total Blocks : 262144 Invalid Blocks : 0
Finished CPU 7 instructions: 200000002 cycles: 1761315940 cumulative IPC: 0.113551 (Simulation time: 51 hr 42 min 52 sec) 

CPU 0 Branch Prediction Accuracy: 98.7904% MPKI: 1.8033 Average ROB Occupancy at Mispredict: 260.072

CPU 1 Branch Prediction Accuracy: 98.7901% MPKI: 1.80414 Average ROB Occupancy at Mispredict: 260.05

CPU 2 Branch Prediction Accuracy: 98.792% MPKI: 1.80272 Average ROB Occupancy at Mispredict: 260.099

CPU 3 Branch Prediction Accuracy: 98.7921% MPKI: 1.80276 Average ROB Occupancy at Mispredict: 260.105

CPU 4 Branch Prediction Accuracy: 98.7899% MPKI: 1.80493 Average ROB Occupancy at Mispredict: 260.037

CPU 5 Branch Prediction Accuracy: 98.7899% MPKI: 1.80513 Average ROB Occupancy at Mispredict: 260.038

CPU 6 Branch Prediction Accuracy: 98.7897% MPKI: 1.80565 Average ROB Occupancy at Mispredict: 260.019

CPU 7 Branch Prediction Accuracy: 98.7896% MPKI: 1.8055 Average ROB Occupancy at Mispredict: 260.02

ChampSim completed all CPUs

Total Simulation Statistics (not including warmup)

CPU 0 cumulative IPC: 0.113726 instructions: 200308212 cycles: 1761315939
ITLB TOTAL     ACCESS: 30264370  HIT: 30264370  MISS:     0  HIT %:   100  MISS %:     0  AVERAGE MISS PENALTY: 0
ITLB LOAD      ACCESS: 30264370  HIT: 30264370  MISS:     0  HIT %:   100  MISS %:     0  AVERAGE MISS PENALTY: 0
ITLB RFO       ACCESS:     0  HIT:     0  MISS:     0  HIT %:     0  MISS %:     0  AVERAGE MISS PENALTY: 0
ITLB PREFETCH  ACCESS:     0  HIT:     0  MISS:     0  HIT %:     0  MISS %:     0  AVERAGE MISS PENALTY: 0
ITLB WRITEBACK ACCESS:     0  HIT:     0  MISS:     0  HIT %:     0  MISS %:     0  AVERAGE MISS PENALTY: 0

DTLB TOTAL     ACCESS: 55604280  HIT: 49095724  MISS: 6508556  HIT %: 88.2949  MISS %: 11.7051  AVERAGE MISS PENALTY: 10.8118
DTLB LOAD      ACCESS: 54552300  HIT: 48346083  MISS: 6206217  HIT %: 88.6234  MISS %: 11.3766  AVERAGE MISS PENALTY: 10.6046
DTLB RFO       ACCESS: 1051980  HIT: 749641  MISS: 302339  HIT %: 71.26  MISS %: 28.74  AVERAGE MISS PENALTY: 15.0634
DTLB PREFETCH  ACCESS:     0  HIT:     0  MISS:     0  HIT %:     0  MISS %:     0  AVERAGE MISS PENALTY: 0
DTLB WRITEBACK ACCESS:     0  HIT:     0  MISS:     0  HIT %:     0  MISS %:     0  AVERAGE MISS PENALTY: 0

STLB TOTAL     ACCESS: 6508556  HIT: 6414482  MISS: 94074  HIT %: 98.5546  MISS %: 1.44539  AVERAGE MISS PENALTY: 100
STLB LOAD      ACCESS: 6206217  HIT: 6130367  MISS: 75850  HIT %: 98.7778  MISS %: 1.22216  AVERAGE MISS PENALTY: 100
STLB RFO       ACCESS: 302339  HIT: 284115  MISS: 18224  HIT %: 93.9723  MISS %: 6.02767  AVERAGE MISS PENALTY: 100
STLB PREFETCH  ACCESS:     0  HIT:     0  MISS:     0  HIT %:     0  MISS %:     0  AVERAGE MISS PENALTY: 0
STLB WRITEBACK ACCESS:     0  HIT:     0  MISS:     0  HIT %:     0  MISS %:     0  AVERAGE MISS PENALTY: 0

L1D TOTAL     ACCESS: 77056850  HIT: 40749194  MISS: 36307656  HIT %: 52.882  MISS %: 47.118  AVERAGE MISS PENALTY: 2.4295e+06
L1D LOAD      ACCESS: 46393315  HIT: 36556363  MISS: 9836952  HIT %: 78.7966  MISS %: 21.2034  AVERAGE MISS PENALTY: 8.96604e+06
L1D RFO       ACCESS: 1058992  HIT: 737935  MISS: 321057  HIT %: 69.6828  MISS %: 30.3172  AVERAGE MISS PENALTY: 171.273
L1D PREFETCH  ACCESS: 29604543  HIT: 3454896  MISS: 26149647  HIT %: 11.6702  MISS %: 88.3298  AVERAGE MISS PENALTY: 422.136
L1D WRITEBACK ACCESS:     0  HIT:     0  MISS:     0  HIT %:     0  MISS %:     0  AVERAGE MISS PENALTY: 0

L1I TOTAL     ACCESS: 44238601  HIT: 44238601  MISS:     0  HIT %:   100  MISS %:     0  AVERAGE MISS PENALTY: 0
L1I LOAD      ACCESS: 44238601  HIT: 44238601  MISS:     0  HIT %:   100  MISS %:     0  AVERAGE MISS PENALTY: 0
L1I RFO       ACCESS:     0  HIT:     0  MISS:     0  HIT %:     0  MISS %:     0  AVERAGE MISS PENALTY: 0
L1I PREFETCH  ACCESS:     0  HIT:     0  MISS:     0  HIT %:     0  MISS %:     0  AVERAGE MISS PENALTY: 0
L1I WRITEBACK ACCESS:     0  HIT:     0  MISS:     0  HIT %:     0  MISS %:     0  AVERAGE MISS PENALTY: 0

L2C TOTAL     ACCESS: 58780867  HIT: 4624125  MISS: 54156742  HIT %: 7.86672  MISS %: 92.1333  AVERAGE MISS PENALTY: 1.95471e+06
L2C LOAD      ACCESS: 9831980  HIT: 196776  MISS: 9635204  HIT %: 2.00139  MISS %: 97.9986  AVERAGE MISS PENALTY: 1.09849e+07
L2C RFO       ACCESS: 321045  HIT: 235527  MISS: 85518  HIT %: 73.3626  MISS %: 26.6374  AVERAGE MISS PENALTY: 586.092
L2C PREFETCH  ACCESS: 47743812  HIT: 3630508  MISS: 44113304  HIT %: 7.60414  MISS %: 92.3959  AVERAGE MISS PENALTY: 433.903
L2C WRITEBACK ACCESS: 884030  HIT: 561314  MISS: 322716  HIT %: 63.4949  MISS %: 36.5051  AVERAGE MISS PENALTY: 0


LLC0 TOTAL     ACCESS: 6925393  HIT: 3473418  MISS: 3451975  HIT %: 50.1548  MISS %: 49.8452  AVERAGE MISS PENALTY: 768.372
LLC0 LOAD      ACCESS: 1197586  HIT: 623007  MISS: 574579  HIT %: 52.0219  MISS %: 47.9781  AVERAGE MISS PENALTY: 762.633
LLC0 RFO       ACCESS: 10655  HIT:  2652  MISS:  8003  HIT %: 24.8897  MISS %: 75.1103  AVERAGE MISS PENALTY: 754.58
LLC0 PREFETCH  ACCESS: 5647331  HIT: 2787063  MISS: 2860268  HIT %: 49.3519  MISS %: 50.6481  AVERAGE MISS PENALTY: 772.015
LLC0 WRITEBACK ACCESS: 69821  HIT: 60696  MISS:  9125  HIT %: 86.9309  MISS %: 13.0691  AVERAGE MISS PENALTY: 0

LLC1 TOTAL     ACCESS: 6986112  HIT: 3503310  MISS: 3482802  HIT %: 50.1468  MISS %: 49.8532  AVERAGE MISS PENALTY: 765.028
LLC1 LOAD      ACCESS: 1202868  HIT: 638892  MISS: 563976  HIT %: 53.1141  MISS %: 46.8859  AVERAGE MISS PENALTY: 760.796
LLC1 RFO       ACCESS: 10654  HIT:  2707  MISS:  7947  HIT %: 25.4083  MISS %: 74.5917  AVERAGE MISS PENALTY: 738.146
LLC1 PREFETCH  ACCESS: 5702359  HIT: 2800061  MISS: 2902298  HIT %: 49.1036  MISS %: 50.8964  AVERAGE MISS PENALTY: 768.185
LLC1 WRITEBACK ACCESS: 70231  HIT: 61650  MISS:  8581  HIT %: 87.7817  MISS %: 12.2183  AVERAGE MISS PENALTY: 0

LLC2 TOTAL     ACCESS: 6942734  HIT: 3476484  MISS: 3466250  HIT %: 50.0737  MISS %: 49.9263  AVERAGE MISS PENALTY: 761.135
LLC2 LOAD      ACCESS: 1217681  HIT: 657474  MISS: 560207  HIT %: 53.9939  MISS %: 46.0061  AVERAGE MISS PENALTY: 761.126
LLC2 RFO       ACCESS: 10703  HIT:  2764  MISS:  7939  HIT %: 25.8245  MISS %: 74.1755  AVERAGE MISS PENALTY: 761.022
LLC2 PREFETCH  ACCESS: 5644334  HIT: 2754905  MISS: 2889429  HIT %: 48.8083  MISS %: 51.1917  AVERAGE MISS PENALTY: 763.422
LLC2 WRITEBACK ACCESS: 70016  HIT: 61341  MISS:  8675  HIT %: 87.61  MISS %: 12.39  AVERAGE MISS PENALTY: 0

LLC3 TOTAL     ACCESS: 6859434  HIT: 3424001  MISS: 3435433  HIT %: 49.9167  MISS %: 50.0833  AVERAGE MISS PENALTY: 796.226
LLC3 LOAD      ACCESS: 1178482  HIT: 625008  MISS: 553474  HIT %: 53.035  MISS %: 46.965  AVERAGE MISS PENALTY: 759.559
LLC3 RFO       ACCESS: 10667  HIT:  2672  MISS:  7995  HIT %: 25.0492  MISS %: 74.9508  AVERAGE MISS PENALTY: 766.959
LLC3 PREFETCH  ACCESS: 5602449  HIT: 2736903  MISS: 2865546  HIT %: 48.8519  MISS %: 51.1481  AVERAGE MISS PENALTY: 805.729
LLC3 WRITEBACK ACCESS: 67836  HIT: 59418  MISS:  8418  HIT %: 87.5907  MISS %: 12.4093  AVERAGE MISS PENALTY: 0

LLC4 TOTAL     ACCESS: 6797622  HIT: 3398309  MISS: 3399313  HIT %: 49.9926  MISS %: 50.0074  AVERAGE MISS PENALTY: 735.567
LLC4 LOAD      ACCESS: 1166951  HIT: 616945  MISS: 550006  HIT %: 52.8681  MISS %: 47.1319  AVERAGE MISS PENALTY: 726.911
LLC4 RFO       ACCESS: 10712  HIT:  2707  MISS:  8005  HIT %: 25.2707  MISS %: 74.7293  AVERAGE MISS PENALTY: 716.167
LLC4 PREFETCH  ACCESS: 5551942  HIT: 2718857  MISS: 2833085  HIT %: 48.9713  MISS %: 51.0287  AVERAGE MISS PENALTY: 739.435
LLC4 WRITEBACK ACCESS: 68017  HIT: 59800  MISS:  8217  HIT %: 87.9192  MISS %: 12.0808  AVERAGE MISS PENALTY: 0

LLC5 TOTAL     ACCESS: 6741514  HIT: 3369961  MISS: 3371553  HIT %: 49.9882  MISS %: 50.0118  AVERAGE MISS PENALTY: 735.593
LLC5 LOAD      ACCESS: 1197891  HIT: 636297  MISS: 561594  HIT %: 53.1181  MISS %: 46.8819  AVERAGE MISS PENALTY: 723.021
LLC5 RFO       ACCESS: 10679  HIT:  2718  MISS:  7961  HIT %: 25.4518  MISS %: 74.5482  AVERAGE MISS PENALTY: 702.946
LLC5 PREFETCH  ACCESS: 5465516  HIT: 2671899  MISS: 2793617  HIT %: 48.8865  MISS %: 51.1135  AVERAGE MISS PENALTY: 740.42
LLC5 WRITEBACK ACCESS: 67428  HIT: 59047  MISS:  8381  HIT %: 87.5704  MISS %: 12.4296  AVERAGE MISS PENALTY: 0

LLC6 TOTAL     ACCESS: 6612930  HIT: 3305123  MISS: 3307807  HIT %: 49.9797  MISS %: 50.0203  AVERAGE MISS PENALTY: 730.815
LLC6 LOAD      ACCESS: 1184082  HIT: 629087  MISS: 554995  HIT %: 53.1287  MISS %: 46.8713  AVERAGE MISS PENALTY: 721.479
LLC6 RFO       ACCESS: 10650  HIT:  2735  MISS:  7915  HIT %: 25.6808  MISS %: 74.3192  AVERAGE MISS PENALTY: 720.483
LLC6 PREFETCH  ACCESS: 5352808  HIT: 2616347  MISS: 2736461  HIT %: 48.878  MISS %: 51.122  AVERAGE MISS PENALTY: 734.992
LLC6 WRITEBACK ACCESS: 65390  HIT: 56954  MISS:  8436  HIT %: 87.0989  MISS %: 12.9011  AVERAGE MISS PENALTY: 0

LLC7 TOTAL     ACCESS: 6513151  HIT: 3255366  MISS: 3257785  HIT %: 49.9814  MISS %: 50.0186  AVERAGE MISS PENALTY: 734.452
LLC7 LOAD      ACCESS: 1210323  HIT: 653882  MISS: 556441  HIT %: 54.0254  MISS %: 45.9746  AVERAGE MISS PENALTY: 722.441
LLC7 RFO       ACCESS: 10797  HIT:  2762  MISS:  8035  HIT %: 25.5812  MISS %: 74.4188  AVERAGE MISS PENALTY: 714.224
LLC7 PREFETCH  ACCESS: 5225896  HIT: 2541588  MISS: 2684308  HIT %: 48.6345  MISS %: 51.3655  AVERAGE MISS PENALTY: 739.465
LLC7 WRITEBACK ACCESS: 66135  HIT: 57134  MISS:  9001  HIT %: 86.39  MISS %: 13.61  AVERAGE MISS PENALTY: 0

Total Rob stall cycles : 	1718107345
Total Load Rob Stall cycles : 	1597657056
Average Rob Stall cycles : 	 54
Average Load Rob Stall cycles : 	 370

CPU 1 cumulative IPC: 0.113673 instructions: 200214703 cycles: 1761315939
ITLB TOTAL     ACCESS: 30250844  HIT: 30250844  MISS:     0  HIT %:   100  MISS %:     0  AVERAGE MISS PENALTY: 0
ITLB LOAD      ACCESS: 30250844  HIT: 30250844  MISS:     0  HIT %:   100  MISS %:     0  AVERAGE MISS PENALTY: 0
ITLB RFO       ACCESS:     0  HIT:     0  MISS:     0  HIT %:     0  MISS %:     0  AVERAGE MISS PENALTY: 0
ITLB PREFETCH  ACCESS:     0  HIT:     0  MISS:     0  HIT %:     0  MISS %:     0  AVERAGE MISS PENALTY: 0
ITLB WRITEBACK ACCESS:     0  HIT:     0  MISS:     0  HIT %:     0  MISS %:     0  AVERAGE MISS PENALTY: 0

DTLB TOTAL     ACCESS: 55577181  HIT: 49072719  MISS: 6504462  HIT %: 88.2965  MISS %: 11.7035  AVERAGE MISS PENALTY: 10.81
DTLB LOAD      ACCESS: 54525399  HIT: 48323227  MISS: 6202172  HIT %: 88.6252  MISS %: 11.3748  AVERAGE MISS PENALTY: 10.603
DTLB RFO       ACCESS: 1051782  HIT: 749492  MISS: 302290  HIT %: 71.2593  MISS %: 28.7407  AVERAGE MISS PENALTY: 15.0574
DTLB PREFETCH  ACCESS:     0  HIT:     0  MISS:     0  HIT %:     0  MISS %:     0  AVERAGE MISS PENALTY: 0
DTLB WRITEBACK ACCESS:     0  HIT:     0  MISS:     0  HIT %:     0  MISS %:     0  AVERAGE MISS PENALTY: 0

STLB TOTAL     ACCESS: 6504462  HIT: 6410465  MISS: 93997  HIT %: 98.5549  MISS %: 1.44512  AVERAGE MISS PENALTY: 100
STLB LOAD      ACCESS: 6202172  HIT: 6126383  MISS: 75789  HIT %: 98.778  MISS %: 1.22198  AVERAGE MISS PENALTY: 100
STLB RFO       ACCESS: 302290  HIT: 284082  MISS: 18208  HIT %: 93.9766  MISS %: 6.02336  AVERAGE MISS PENALTY: 100
STLB PREFETCH  ACCESS:     0  HIT:     0  MISS:     0  HIT %:     0  MISS %:     0  AVERAGE MISS PENALTY: 0
STLB WRITEBACK ACCESS:     0  HIT:     0  MISS:     0  HIT %:     0  MISS %:     0  AVERAGE MISS PENALTY: 0

L1D TOTAL     ACCESS: 77024920  HIT: 40731856  MISS: 36293064  HIT %: 52.8814  MISS %: 47.1186  AVERAGE MISS PENALTY: 2.42125e+06
L1D LOAD      ACCESS: 46372032  HIT: 36539829  MISS: 9832203  HIT %: 78.7971  MISS %: 21.2029  AVERAGE MISS PENALTY: 8.93634e+06
L1D RFO       ACCESS: 1058259  HIT: 737240  MISS: 321019  HIT %: 69.6654  MISS %: 30.3346  AVERAGE MISS PENALTY: 1155.28
L1D PREFETCH  ACCESS: 29594629  HIT: 3454787  MISS: 26139842  HIT %: 11.6737  MISS %: 88.3263  AVERAGE MISS PENALTY: 398.554
L1D WRITEBACK ACCESS:     0  HIT:     0  MISS:     0  HIT %:     0  MISS %:     0  AVERAGE MISS PENALTY: 0

L1I TOTAL     ACCESS: 44216817  HIT: 44216817  MISS:     0  HIT %:   100  MISS %:     0  AVERAGE MISS PENALTY: 0
L1I LOAD      ACCESS: 44216817  HIT: 44216817  MISS:     0  HIT %:   100  MISS %:     0  AVERAGE MISS PENALTY: 0
L1I RFO       ACCESS:     0  HIT:     0  MISS:     0  HIT %:     0  MISS %:     0  AVERAGE MISS PENALTY: 0
L1I PREFETCH  ACCESS:     0  HIT:     0  MISS:     0  HIT %:     0  MISS %:     0  AVERAGE MISS PENALTY: 0
L1I WRITEBACK ACCESS:     0  HIT:     0  MISS:     0  HIT %:     0  MISS %:     0  AVERAGE MISS PENALTY: 0

L2C TOTAL     ACCESS: 58754315  HIT: 4598384  MISS: 54155931  HIT %: 7.82646  MISS %: 92.1735  AVERAGE MISS PENALTY: 1.95588e+06
L2C LOAD      ACCESS: 9827206  HIT: 185423  MISS: 9641783  HIT %: 1.88683  MISS %: 98.1132  AVERAGE MISS PENALTY: 1.09838e+07
L2C RFO       ACCESS: 320999  HIT: 229725  MISS: 91274  HIT %: 71.5656  MISS %: 28.4344  AVERAGE MISS PENALTY: 554.203
L2C PREFETCH  ACCESS: 47722123  HIT: 3627023  MISS: 44095100  HIT %: 7.6003  MISS %: 92.3997  AVERAGE MISS PENALTY: 425.601
L2C WRITEBACK ACCESS: 883987  HIT: 556213  MISS: 327774  HIT %: 62.9209  MISS %: 37.0791  AVERAGE MISS PENALTY: 0


LLC0 TOTAL     ACCESS: 6922919  HIT: 3471572  MISS: 3451347  HIT %: 50.1461  MISS %: 49.8539  AVERAGE MISS PENALTY: 768.731
LLC0 LOAD      ACCESS: 1197000  HIT: 622980  MISS: 574020  HIT %: 52.0451  MISS %: 47.9549  AVERAGE MISS PENALTY: 762.464
LLC0 RFO       ACCESS: 11422  HIT:  3343  MISS:  8079  HIT %: 29.2681  MISS %: 70.7319  AVERAGE MISS PENALTY: 742.867
LLC0 PREFETCH  ACCESS: 5643816  HIT: 2783743  MISS: 2860073  HIT %: 49.3238  MISS %: 50.6762  AVERAGE MISS PENALTY: 772.528
LLC0 WRITEBACK ACCESS: 70681  HIT: 61506  MISS:  9175  HIT %: 87.0191  MISS %: 12.9809  AVERAGE MISS PENALTY: 0

LLC1 TOTAL     ACCESS: 6984569  HIT: 3502066  MISS: 3482503  HIT %: 50.14  MISS %: 49.86  AVERAGE MISS PENALTY: 765.143
LLC1 LOAD      ACCESS: 1202228  HIT: 637671  MISS: 564557  HIT %: 53.0408  MISS %: 46.9592  AVERAGE MISS PENALTY: 762.316
LLC1 RFO       ACCESS: 11453  HIT:  3409  MISS:  8044  HIT %: 29.7651  MISS %: 70.2349  AVERAGE MISS PENALTY: 744.816
LLC1 PREFETCH  ACCESS: 5699802  HIT: 2798552  MISS: 2901250  HIT %: 49.0991  MISS %: 50.9009  AVERAGE MISS PENALTY: 768.031
LLC1 WRITEBACK ACCESS: 71086  HIT: 62434  MISS:  8652  HIT %: 87.8288  MISS %: 12.1712  AVERAGE MISS PENALTY: 0

LLC2 TOTAL     ACCESS: 6951666  HIT: 3482036  MISS: 3469630  HIT %: 50.0892  MISS %: 49.9108  AVERAGE MISS PENALTY: 761.017
LLC2 LOAD      ACCESS: 1227588  HIT: 667206  MISS: 560382  HIT %: 54.351  MISS %: 45.649  AVERAGE MISS PENALTY: 761.53
LLC2 RFO       ACCESS: 11458  HIT:  3403  MISS:  8055  HIT %: 29.6998  MISS %: 70.3002  AVERAGE MISS PENALTY: 751.137
LLC2 PREFETCH  ACCESS: 5641755  HIT: 2749159  MISS: 2892596  HIT %: 48.7288  MISS %: 51.2712  AVERAGE MISS PENALTY: 763.207
LLC2 WRITEBACK ACCESS: 70865  HIT: 62268  MISS:  8597  HIT %: 87.8685  MISS %: 12.1315  AVERAGE MISS PENALTY: 0

LLC3 TOTAL     ACCESS: 6858496  HIT: 3422432  MISS: 3436064  HIT %: 49.9006  MISS %: 50.0994  AVERAGE MISS PENALTY: 759.809
LLC3 LOAD      ACCESS: 1177893  HIT: 624111  MISS: 553782  HIT %: 52.9854  MISS %: 47.0146  AVERAGE MISS PENALTY: 759.465
LLC3 RFO       ACCESS: 11373  HIT:  3403  MISS:  7970  HIT %: 29.9217  MISS %: 70.0783  AVERAGE MISS PENALTY: 761.29
LLC3 PREFETCH  ACCESS: 5600696  HIT: 2734874  MISS: 2865822  HIT %: 48.831  MISS %: 51.169  AVERAGE MISS PENALTY: 762.123
[...]
LLC2 LOAD      ACCESS: 1226200  HIT: 665818  MISS: 560382  HIT %: 54.2993  MISS %: 45.7007  AVERAGE MISS PENALTY: 762.907
LLC2 RFO       ACCESS: 11485  HIT:  3230  MISS:  8255  HIT %: 28.1236  MISS %: 71.8764  AVERAGE MISS PENALTY: 763.55
LLC2 PREFETCH  ACCESS: 5635901  HIT: 2748490  MISS: 2887411  HIT %: 48.7675  MISS %: 51.2325  AVERAGE MISS PENALTY: 763.489
LLC2 WRITEBACK ACCESS: 70818  HIT: 62378  MISS:  8440  HIT %: 88.0821  MISS %: 11.9179  AVERAGE MISS PENALTY: 0
LLC2 PREFETCH  REQUESTED:     0  ISSUED:     0  USEFUL: 2105275  USELESS: 21049452
 USEFUL LOAD PREFETCHES:    2105275 PREFETCH ISSUED TO LOWER LEVEL:  481628826  ACCURACY: 0.437116
 TIMELY PREFETCHES:    2105275 LATE PREFETCHES: 0 DROPPED PREFETCHES: 0
LLC2 AVERAGE MISS LATENCY: 761.535 cycles
LLC3 TOTAL     ACCESS: 6849680  HIT: 3419049  MISS: 3430631  HIT %: 49.9155  MISS %: 50.0845  AVERAGE MISS PENALTY: 760.547
LLC3 LOAD      ACCESS: 1176855  HIT: 623461  MISS: 553394  HIT %: 52.9769  MISS %: 47.0231  AVERAGE MISS PENALTY: 759.958
LLC3 RFO       ACCESS: 11365  HIT:  3161  MISS:  8204  HIT %: 27.8135  MISS %: 72.1865  AVERAGE MISS PENALTY: 762.573
LLC3 PREFETCH  ACCESS: 5592971  HIT: 2732181  MISS: 2860790  HIT %: 48.8503  MISS %: 51.1497  AVERAGE MISS PENALTY: 762.847
LLC3 WRITEBACK ACCESS: 68489  HIT: 60246  MISS:  8243  HIT %: 87.9645  MISS %: 12.0355  AVERAGE MISS PENALTY: 0
LLC3 PREFETCH  REQUESTED:     0  ISSUED:     0  USEFUL: 2083052  USELESS: 20871097
 USEFUL LOAD PREFETCHES:    2083052 PREFETCH ISSUED TO LOWER LEVEL:  461220481  ACCURACY: 0.451639
 TIMELY PREFETCHES:    2083052 LATE PREFETCHES: 0 DROPPED PREFETCHES: 0
LLC3 AVERAGE MISS LATENCY: 760.547 cycles
LLC4 TOTAL     ACCESS: 6788968  HIT: 3391596  MISS: 3397372  HIT %: 49.9575  MISS %: 50.0425  AVERAGE MISS PENALTY: 735.386
LLC4 LOAD      ACCESS: 1166011  HIT: 616785  MISS: 549226  HIT %: 52.897  MISS %: 47.103  AVERAGE MISS PENALTY: 724.502
LLC4 RFO       ACCESS: 11396  HIT:  3117  MISS:  8279  HIT %: 27.3517  MISS %: 72.6483  AVERAGE MISS PENALTY: 721.555
LLC4 PREFETCH  ACCESS: 5542819  HIT: 2711142  MISS: 2831677  HIT %: 48.9127  MISS %: 51.0873  AVERAGE MISS PENALTY: 739.664
LLC4 WRITEBACK ACCESS: 68742  HIT: 60552  MISS:  8190  HIT %: 88.0859  MISS %: 11.9141  AVERAGE MISS PENALTY: 0
LLC4 PREFETCH  REQUESTED:     0  ISSUED:     0  USEFUL: 2084261  USELESS: 20625941
 USEFUL LOAD PREFETCHES:    2084261 PREFETCH ISSUED TO LOWER LEVEL:  717454254  ACCURACY: 0.290508
 TIMELY PREFETCHES:    2084261 LATE PREFETCHES: 0 DROPPED PREFETCHES: 0
LLC4 AVERAGE MISS LATENCY: 735.386 cycles
LLC5 TOTAL     ACCESS: 6731765  HIT: 3364607  MISS: 3367158  HIT %: 49.9811  MISS %: 50.0189  AVERAGE MISS PENALTY: 735.32
LLC5 LOAD      ACCESS: 1196176  HIT: 634664  MISS: 561512  HIT %: 53.0577  MISS %: 46.9423  AVERAGE MISS PENALTY: 721.153
LLC5 RFO       ACCESS: 11326  HIT:  3095  MISS:  8231  HIT %: 27.3265  MISS %: 72.6735  AVERAGE MISS PENALTY: 703.536
LLC5 PREFETCH  ACCESS: 5456233  HIT: 2667003  MISS: 2789230  HIT %: 48.8799  MISS %: 51.1201  AVERAGE MISS PENALTY: 740.423
LLC5 WRITEBACK ACCESS: 68030  HIT: 59845  MISS:  8185  HIT %: 87.9685  MISS %: 12.0315  AVERAGE MISS PENALTY: 0
LLC5 PREFETCH  REQUESTED:     0  ISSUED:     0  USEFUL: 2063087  USELESS: 20301901
 USEFUL LOAD PREFETCHES:    2063087 PREFETCH ISSUED TO LOWER LEVEL:  684326040  ACCURACY: 0.301477
 TIMELY PREFETCHES:    2063087 LATE PREFETCHES: 0 DROPPED PREFETCHES: 0
LLC5 AVERAGE MISS LATENCY: 735.32 cycles
LLC6 TOTAL     ACCESS: 6603014  HIT: 3297906  MISS: 3305108  HIT %: 49.9455  MISS %: 50.0545  AVERAGE MISS PENALTY: 731.352
LLC6 LOAD      ACCESS: 1182020  HIT: 627047  MISS: 554973  HIT %: 53.0488  MISS %: 46.9512  AVERAGE MISS PENALTY: 721.82
LLC6 RFO       ACCESS: 11338  HIT:  3130  MISS:  8208  HIT %: 27.6063  MISS %: 72.3937  AVERAGE MISS PENALTY: 722.599
LLC6 PREFETCH  ACCESS: 5343628  HIT: 2610117  MISS: 2733511  HIT %: 48.8454  MISS %: 51.1546  AVERAGE MISS PENALTY: 735.565
LLC6 WRITEBACK ACCESS: 66028  HIT: 57612  MISS:  8416  HIT %: 87.2539  MISS %: 12.7461  AVERAGE MISS PENALTY: 0
LLC6 PREFETCH  REQUESTED:     0  ISSUED:     0  USEFUL: 2043382  USELESS: 19868965
 USEFUL LOAD PREFETCHES:    2043382 PREFETCH ISSUED TO LOWER LEVEL: 1028989440  ACCURACY: 0.198581
 TIMELY PREFETCHES:    2043382 LATE PREFETCHES: 0 DROPPED PREFETCHES: 0
LLC6 AVERAGE MISS LATENCY: 731.352 cycles
LLC7 TOTAL     ACCESS: 6504567  HIT: 3249287  MISS: 3255280  HIT %: 49.9539  MISS %: 50.0461  AVERAGE MISS PENALTY: 734.953
LLC7 LOAD      ACCESS: 1208134  HIT: 652162  MISS: 555972  HIT %: 53.9809  MISS %: 46.0191  AVERAGE MISS PENALTY: 721.954
LLC7 RFO       ACCESS: 11409  HIT:  3057  MISS:  8352  HIT %: 26.7946  MISS %: 73.2054  AVERAGE MISS PENALTY: 724.694
LLC7 PREFETCH  ACCESS: 5218287  HIT: 2536141  MISS: 2682146  HIT %: 48.601  MISS %: 51.399  AVERAGE MISS PENALTY: 740.093
LLC7 WRITEBACK ACCESS: 66737  HIT: 57927  MISS:  8810  HIT %: 86.7989  MISS %: 13.2011  AVERAGE MISS PENALTY: 0
LLC7 PREFETCH  REQUESTED:     0  ISSUED:     0  USEFUL: 1997614  USELESS: 19500705
 USEFUL LOAD PREFETCHES:    1997614 PREFETCH ISSUED TO LOWER LEVEL:  977622804  ACCURACY: 0.204334
 TIMELY PREFETCHES:    1997614 LATE PREFETCHES: 0 DROPPED PREFETCHES: 0
LLC7 AVERAGE MISS LATENCY: 734.953 cycles
ROI Average ROB Stall Cycles:	54.4948
ROI Total ROB Stalls Cycles:	1716577254
ROI TOTAL ROB counter      :	31499820
ROI Average Load ROB Stall Cycles:	370.316
ROI Total Load ROB Stalls Cycle  :	1595782716
ROI Total Load ROB stalls Counter:	4309245
Major fault: 0 Minor fault: 58100

CPU 7 cumulative IPC: 0.113551 instructions: 200000002 cycles: 1761315940
ITLB TOTAL     ACCESS: 30225593  HIT: 30225593  MISS:     0  HIT %:   100  MISS %:     0  AVERAGE MISS PENALTY: 0
ITLB LOAD      ACCESS: 30225593  HIT: 30225593  MISS:     0  HIT %:   100  MISS %:     0  AVERAGE MISS PENALTY: 0
ITLB RFO       ACCESS:     0  HIT:     0  MISS:     0  HIT %:     0  MISS %:     0  AVERAGE MISS PENALTY: 0
ITLB PREFETCH  ACCESS:     0  HIT:     0  MISS:     0  HIT %:     0  MISS %:     0  AVERAGE MISS PENALTY: 0
ITLB WRITEBACK ACCESS:     0  HIT:     0  MISS:     0  HIT %:     0  MISS %:     0  AVERAGE MISS PENALTY: 0
ITLB PREFETCH  REQUESTED:     0  ISSUED:     0  USEFUL:     0  USELESS:     0
 USEFUL LOAD PREFETCHES:          0 PREFETCH ISSUED TO LOWER LEVEL:          0  ACCURACY: -nan
 TIMELY PREFETCHES:          0 LATE PREFETCHES: 0 DROPPED PREFETCHES: 0
ITLB AVERAGE MISS LATENCY: -nan cycles
DTLB TOTAL     ACCESS: 55499504  HIT: 49004669  MISS: 6494835  HIT %: 88.2975  MISS %: 11.7025  AVERAGE MISS PENALTY: 10.8045
DTLB LOAD      ACCESS: 54448382  HIT: 48255493  MISS: 6192889  HIT %: 88.6261  MISS %: 11.3739  AVERAGE MISS PENALTY: 10.5971
DTLB RFO       ACCESS: 1051122  HIT: 749176  MISS: 301946  HIT %: 71.2739  MISS %: 28.7261  AVERAGE MISS PENALTY: 15.0567
DTLB PREFETCH  ACCESS:     0  HIT:     0  MISS:     0  HIT %:     0  MISS %:     0  AVERAGE MISS PENALTY: 0
DTLB WRITEBACK ACCESS:     0  HIT:     0  MISS:     0  HIT %:     0  MISS %:     0  AVERAGE MISS PENALTY: 0
DTLB PREFETCH  REQUESTED:     0  ISSUED:     0  USEFUL:     0  USELESS:     0
 USEFUL LOAD PREFETCHES:          0 PREFETCH ISSUED TO LOWER LEVEL:          0  ACCURACY: -nan
 TIMELY PREFETCHES:          0 LATE PREFETCHES: 0 DROPPED PREFETCHES: 0
DTLB AVERAGE MISS LATENCY: 10.8045 cycles
STLB TOTAL     ACCESS: 6494835  HIT: 6401025  MISS: 93810  HIT %: 98.5556  MISS %: 1.44438  AVERAGE MISS PENALTY: 100
STLB LOAD      ACCESS: 6192889  HIT: 6117253  MISS: 75636  HIT %: 98.7787  MISS %: 1.22134  AVERAGE MISS PENALTY: 100
STLB RFO       ACCESS: 301946  HIT: 283772  MISS: 18174  HIT %: 93.981  MISS %: 6.01896  AVERAGE MISS PENALTY: 100
STLB PREFETCH  ACCESS:     0  HIT:     0  MISS:     0  HIT %:     0  MISS %:     0  AVERAGE MISS PENALTY: 0
STLB WRITEBACK ACCESS:     0  HIT:     0  MISS:     0  HIT %:     0  MISS %:     0  AVERAGE MISS PENALTY: 0
STLB PREFETCH  REQUESTED:     0  ISSUED:     0  USEFUL:     0  USELESS:     0
 USEFUL LOAD PREFETCHES:          0 PREFETCH ISSUED TO LOWER LEVEL:          0  ACCURACY: -nan
 TIMELY PREFETCHES:          0 LATE PREFETCHES: 0 DROPPED PREFETCHES: 0
STLB AVERAGE MISS LATENCY: 100 cycles
L1D TOTAL     ACCESS: 76956206  HIT: 40668602  MISS: 36287604  HIT %: 52.8464  MISS %: 47.1536  AVERAGE MISS PENALTY: 2.44241e+06
L1D LOAD      ACCESS: 46300981  HIT: 36479834  MISS: 9821147  HIT %: 78.7885  MISS %: 21.2115  AVERAGE MISS PENALTY: 9.02324e+06
L1D RFO       ACCESS: 1057382  HIT: 736620  MISS: 320762  HIT %: 69.6645  MISS %: 30.3355  AVERAGE MISS PENALTY: 185.962
L1D PREFETCH  ACCESS: 29597843  HIT: 3452148  MISS: 26145695  HIT %: 11.6635  MISS %: 88.3365  AVERAGE MISS PENALTY: 398.908
L1D WRITEBACK ACCESS:     0  HIT:     0  MISS:     0  HIT %:     0  MISS %:     0  AVERAGE MISS PENALTY: 0
L1D PREFETCH  REQUESTED: 40864738  ISSUED: 30424852  USEFUL: 1232867  USELESS: 24912844
 USEFUL LOAD PREFETCHES:    1232867 PREFETCH ISSUED TO LOWER LEVEL:  445373300  ACCURACY: 0.276817
 TIMELY PREFETCHES:    1232867 LATE PREFETCHES: 267859 DROPPED PREFETCHES: 10439886
L1D AVERAGE MISS LATENCY: 396.02 cycles
L1I TOTAL     ACCESS: 44175527  HIT: 44175527  MISS:     0  HIT %:   100  MISS %:     0  AVERAGE MISS PENALTY: 0
L1I LOAD      ACCESS: 44175527  HIT: 44175527  MISS:     0  HIT %:   100  MISS %:     0  AVERAGE MISS PENALTY: 0
L1I RFO       ACCESS:     0  HIT:     0  MISS:     0  HIT %:     0  MISS %:     0  AVERAGE MISS PENALTY: 0
L1I PREFETCH  ACCESS:     0  HIT:     0  MISS:     0  HIT %:     0  MISS %:     0  AVERAGE MISS PENALTY: 0
L1I WRITEBACK ACCESS:     0  HIT:     0  MISS:     0  HIT %:     0  MISS %:     0  AVERAGE MISS PENALTY: 0
L1I PREFETCH  REQUESTED:     0  ISSUED:     0  USEFUL:     0  USELESS:     0
 USEFUL LOAD PREFETCHES:          0 PREFETCH ISSUED TO LOWER LEVEL:          0  ACCURACY: -nan
 TIMELY PREFETCHES:          0 LATE PREFETCHES: 0 DROPPED PREFETCHES: 0
L1I AVERAGE MISS LATENCY: -nan cycles
L2C TOTAL     ACCESS: 58732641  HIT: 4410333  MISS: 54322308  HIT %: 7.50917  MISS %: 92.4908  AVERAGE MISS PENALTY: 1.96762e+06
L2C LOAD      ACCESS: 9816073  HIT: 106865  MISS: 9709208  HIT %: 1.08867  MISS %: 98.9113  AVERAGE MISS PENALTY: 1.10067e+07
L2C RFO       ACCESS: 320749  HIT: 220070  MISS: 100679  HIT %: 68.6113  MISS %: 31.3887  AVERAGE MISS PENALTY: 544.154
L2C PREFETCH  ACCESS: 47712494  HIT: 3614656  MISS: 44097838  HIT %: 7.57591  MISS %: 92.4241  AVERAGE MISS PENALTY: 425.789
L2C WRITEBACK ACCESS: 883325  HIT: 468742  MISS: 414583  HIT %: 53.0656  MISS %: 46.9344  AVERAGE MISS PENALTY: 0
L2C PREFETCH  REQUESTED: 60146159  ISSUED: 59489357  USEFUL: 52814  USELESS: 44045294
 USEFUL LOAD PREFETCHES:      52814 PREFETCH ISSUED TO LOWER LEVEL:   56697253  ACCURACY: 0.0931509
 TIMELY PREFETCHES:      52814 LATE PREFETCHES: 524731 DROPPED PREFETCHES: 656802
L2C AVERAGE MISS LATENCY: 415.342 cycles
LLC0 TOTAL     ACCESS: 6946376  HIT: 3492496  MISS: 3453880  HIT %: 50.278  MISS %: 49.722  AVERAGE MISS PENALTY: 768.315
LLC0 LOAD      ACCESS: 1204778  HIT: 630582  MISS: 574196  HIT %: 52.3401  MISS %: 47.6599  AVERAGE MISS PENALTY: 762.003
LLC0 RFO       ACCESS: 12585  HIT:  3851  MISS:  8734  HIT %: 30.5999  MISS %: 69.4001  AVERAGE MISS PENALTY: 752.972
LLC0 PREFETCH  ACCESS: 5643746  HIT: 2782960  MISS: 2860786  HIT %: 49.3105  MISS %: 50.6895  AVERAGE MISS PENALTY: 772.359
LLC0 WRITEBACK ACCESS: 85267  HIT: 75103  MISS: 10164  HIT %: 88.0798  MISS %: 11.9202  AVERAGE MISS PENALTY: 0
LLC0 PREFETCH  REQUESTED:     0  ISSUED:     0  USEFUL: 2098919  USELESS: 20812013
 USEFUL LOAD PREFETCHES:    2098919 PREFETCH ISSUED TO LOWER LEVEL:  312856815  ACCURACY: 0.670888
 TIMELY PREFETCHES:    2098919 LATE PREFETCHES: 0 DROPPED PREFETCHES: 0
LLC0 AVERAGE MISS LATENCY: 768.315 cycles
Deadblocks : 4063626 Deadblock percentage : 707.707

LLC1 TOTAL     ACCESS: 7007066  HIT: 3524178  MISS: 3482888  HIT %: 50.2946  MISS %: 49.7054  AVERAGE MISS PENALTY: 765.067
LLC1 LOAD      ACCESS: 1209935  HIT: 645272  MISS: 564663  HIT %: 53.3311  MISS %: 46.6689  AVERAGE MISS PENALTY: 760.565
LLC1 RFO       ACCESS: 12586  HIT:  3948  MISS:  8638  HIT %: 31.3682  MISS %: 68.6318  AVERAGE MISS PENALTY: 747.601
LLC1 PREFETCH  ACCESS: 5700466  HIT: 2800210  MISS: 2900256  HIT %: 49.1225  MISS %: 50.8775  AVERAGE MISS PENALTY: 768.457
LLC1 WRITEBACK ACCESS: 84079  HIT: 74748  MISS:  9331  HIT %: 88.9021  MISS %: 11.0979  AVERAGE MISS PENALTY: 0
LLC1 PREFETCH  REQUESTED:     0  ISSUED:     0  USEFUL: 2129378  USELESS: 21103139
 USEFUL LOAD PREFETCHES:    2129378 PREFETCH ISSUED TO LOWER LEVEL:  304415011  ACCURACY: 0.699498
 TIMELY PREFETCHES:    2129378 LATE PREFETCHES: 0 DROPPED PREFETCHES: 0
LLC1 AVERAGE MISS LATENCY: 765.067 cycles
LLC2 TOTAL     ACCESS: 6971090  HIT: 3499277  MISS: 3471813  HIT %: 50.197  MISS %: 49.803  AVERAGE MISS PENALTY: 760.731
LLC2 LOAD      ACCESS: 1235306  HIT: 674113  MISS: 561193  HIT %: 54.5705  MISS %: 45.4295  AVERAGE MISS PENALTY: 761.845
LLC2 RFO       ACCESS: 12588  HIT:  3980  MISS:  8608  HIT %: 31.6174  MISS %: 68.3826  AVERAGE MISS PENALTY: 770.153
LLC2 PREFETCH  ACCESS: 5643259  HIT: 2750244  MISS: 2893015  HIT %: 48.735  MISS %: 51.265  AVERAGE MISS PENALTY: 762.853
LLC2 WRITEBACK ACCESS: 79937  HIT: 70940  MISS:  8997  HIT %: 88.7449  MISS %: 11.2551  AVERAGE MISS PENALTY: 0
LLC2 PREFETCH  REQUESTED:     0  ISSUED:     0  USEFUL: 2105275  USELESS: 21049452
 USEFUL LOAD PREFETCHES:    2105275 PREFETCH ISSUED TO LOWER LEVEL:  481628826  ACCURACY: 0.437116
 TIMELY PREFETCHES:    2105275 LATE PREFETCHES: 0 DROPPED PREFETCHES: 0
LLC2 AVERAGE MISS LATENCY: 760.731 cycles
LLC3 TOTAL     ACCESS: 6876651  HIT: 3436494  MISS: 3440157  HIT %: 49.9734  MISS %: 50.0266  AVERAGE MISS PENALTY: 759.902
LLC3 LOAD      ACCESS: 1184369  HIT: 630146  MISS: 554223  HIT %: 53.2052  MISS %: 46.7948  AVERAGE MISS PENALTY: 759.412
LLC3 RFO       ACCESS: 12526  HIT:  3970  MISS:  8556  HIT %: 31.6941  MISS %: 68.3059  AVERAGE MISS PENALTY: 773.467
LLC3 PREFETCH  ACCESS: 5600563  HIT: 2732101  MISS: 2868462  HIT %: 48.7826  MISS %: 51.2174  AVERAGE MISS PENALTY: 762.318
LLC3 WRITEBACK ACCESS: 79193  HIT: 70277  MISS:  8916  HIT %: 88.7414  MISS %: 11.2586  AVERAGE MISS PENALTY: 0
LLC3 PREFETCH  REQUESTED:     0  ISSUED:     0  USEFUL: 2083052  USELESS: 20871097
 USEFUL LOAD PREFETCHES:    2083052 PREFETCH ISSUED TO LOWER LEVEL:  461220481  ACCURACY: 0.451639
 TIMELY PREFETCHES:    2083052 LATE PREFETCHES: 0 DROPPED PREFETCHES: 0
LLC3 AVERAGE MISS LATENCY: 759.902 cycles
LLC4 TOTAL     ACCESS: 6814392  HIT: 3409884  MISS: 3404508  HIT %: 50.0394  MISS %: 49.9606  AVERAGE MISS PENALTY: 735.159
LLC4 LOAD      ACCESS: 1172813  HIT: 622418  MISS: 550395  HIT %: 53.0705  MISS %: 46.9295  AVERAGE MISS PENALTY: 724.661
LLC4 RFO       ACCESS: 12577  HIT:  3982  MISS:  8595  HIT %: 31.661  MISS %: 68.339  AVERAGE MISS PENALTY: 710.836
LLC4 PREFETCH  ACCESS: 5550643  HIT: 2713803  MISS: 2836840  HIT %: 48.8917  MISS %: 51.1083  AVERAGE MISS PENALTY: 739.518
LLC4 WRITEBACK ACCESS: 78359  HIT: 69681  MISS:  8678  HIT %: 88.9253  MISS %: 11.0747  AVERAGE MISS PENALTY: 0
LLC4 PREFETCH  REQUESTED:     0  ISSUED:     0  USEFUL: 2084261  USELESS: 20625941
 USEFUL LOAD PREFETCHES:    2084261 PREFETCH ISSUED TO LOWER LEVEL:  717454254  ACCURACY: 0.290508
 TIMELY PREFETCHES:    2084261 LATE PREFETCHES: 0 DROPPED PREFETCHES: 0
LLC4 AVERAGE MISS LATENCY: 735.159 cycles
LLC5 TOTAL     ACCESS: 6752995  HIT: 3380122  MISS: 3372873  HIT %: 50.0537  MISS %: 49.9463  AVERAGE MISS PENALTY: 735.113
LLC5 LOAD      ACCESS: 1202543  HIT: 639792  MISS: 562751  HIT %: 53.2033  MISS %: 46.7967  AVERAGE MISS PENALTY: 720.354
LLC5 RFO       ACCESS: 12614  HIT:  4052  MISS:  8562  HIT %: 32.123  MISS %: 67.877  AVERAGE MISS PENALTY: 713.474
LLC5 PREFETCH  ACCESS: 5462960  HIT: 2669835  MISS: 2793125  HIT %: 48.8716  MISS %: 51.1284  AVERAGE MISS PENALTY: 740.373
LLC5 WRITEBACK ACCESS: 74878  HIT: 66443  MISS:  8435  HIT %: 88.735  MISS %: 11.265  AVERAGE MISS PENALTY: 0
LLC5 PREFETCH  REQUESTED:     0  ISSUED:     0  USEFUL: 2063087  USELESS: 20301901
 USEFUL LOAD PREFETCHES:    2063087 PREFETCH ISSUED TO LOWER LEVEL:  684326040  ACCURACY: 0.301477
 TIMELY PREFETCHES:    2063087 LATE PREFETCHES: 0 DROPPED PREFETCHES: 0
LLC5 AVERAGE MISS LATENCY: 735.113 cycles
LLC6 TOTAL     ACCESS: 6650159  HIT: 3338375  MISS: 3311784  HIT %: 50.1999  MISS %: 49.8001  AVERAGE MISS PENALTY: 730.865
LLC6 LOAD      ACCESS: 1196371  HIT: 640535  MISS: 555836  HIT %: 53.5398  MISS %: 46.4602  AVERAGE MISS PENALTY: 721.144
LLC6 RFO       ACCESS: 12527  HIT:  4008  MISS:  8519  HIT %: 31.9949  MISS %: 68.0051  AVERAGE MISS PENALTY: 724.365
LLC6 PREFETCH  ACCESS: 5350507  HIT: 2613139  MISS: 2737368  HIT %: 48.8391  MISS %: 51.1609  AVERAGE MISS PENALTY: 735.545
LLC6 WRITEBACK ACCESS: 90754  HIT: 80693  MISS: 10061  HIT %: 88.914  MISS %: 11.086  AVERAGE MISS PENALTY: 0
LLC6 PREFETCH  REQUESTED:     0  ISSUED:     0  USEFUL: 2043382  USELESS: 19868965
 USEFUL LOAD PREFETCHES:    2043382 PREFETCH ISSUED TO LOWER LEVEL: 1028989440  ACCURACY: 0.198581
 TIMELY PREFETCHES:    2043382 LATE PREFETCHES: 0 DROPPED PREFETCHES: 0
LLC6 AVERAGE MISS LATENCY: 730.865 cycles
LLC7 TOTAL     ACCESS: 6546890  HIT: 3286015  MISS: 3260875  HIT %: 50.192  MISS %: 49.808  AVERAGE MISS PENALTY: 734.052
LLC7 LOAD      ACCESS: 1223169  HIT: 666577  MISS: 556592  HIT %: 54.4959  MISS %: 45.5041  AVERAGE MISS PENALTY: 722.367
LLC7 RFO       ACCESS: 12667  HIT:  3984  MISS:  8683  HIT %: 31.4518  MISS %: 68.5482  AVERAGE MISS PENALTY: 723.745
LLC7 PREFETCH  ACCESS: 5225602  HIT: 2540245  MISS: 2685357  HIT %: 48.6115  MISS %: 51.3885  AVERAGE MISS PENALTY: 739.308
LLC7 WRITEBACK ACCESS: 85452  HIT: 75209  MISS: 10243  HIT %: 88.0132  MISS %: 11.9868  AVERAGE MISS PENALTY: 0
LLC7 PREFETCH  REQUESTED:     0  ISSUED:     0  USEFUL: 1997614  USELESS: 19500705
 USEFUL LOAD PREFETCHES:    1997614 PREFETCH ISSUED TO LOWER LEVEL:  977622804  ACCURACY: 0.204334
 TIMELY PREFETCHES:    1997614 LATE PREFETCHES: 0 DROPPED PREFETCHES: 0
LLC7 AVERAGE MISS LATENCY: 734.052 cycles
ROI Average ROB Stall Cycles:	54.6075
ROI Total ROB Stalls Cycles:	1718131216
ROI TOTAL ROB counter      :	31463271
ROI Average Load ROB Stall Cycles:	370.938
ROI Total Load ROB Stalls Cycle  :	1591788890
ROI Total Load ROB stalls Counter:	4291254
Major fault: 0 Minor fault: 58079








Interconnect Stats 
LINK 0 BW : 0LINK 1 BW : 0LINK 2 BW : 0LINK 3 BW : 0LINK 4 BW : 0LINK 5 BW : 0LINK 6 BW : 0LINK 7 BW : 0
DRAM Statistics
 CHANNEL 0
 RQ ROW_BUFFER_HIT: 41349617  ROW_BUFFER_MISS: 67477869
 DBUS_CONGESTED: 58141819
 WQ ROW_BUFFER_HIT: 126729  ROW_BUFFER_MISS: 1587500  FULL:     0

 CHANNEL 1
 RQ ROW_BUFFER_HIT: 41031786  ROW_BUFFER_MISS: 67127812
 DBUS_CONGESTED: 58141819
 WQ ROW_BUFFER_HIT: 126430  ROW_BUFFER_MISS: 1589747  FULL:     0

 AVG_CONGESTED_CYCLE: 5
DRAM PAGES: 2097152
Allocated PAGES: 465336
L2C destructor called
L1D destructor called
L1I destructor called
STLB destructor called
DTLB destructor called
ITLB destructor called
L2C destructor called
L1D destructor called
L1I destructor called
STLB destructor called
DTLB destructor called
ITLB destructor called
L2C destructor called
L1D destructor called
L1I destructor called
STLB destructor called
DTLB destructor called
ITLB destructor called
L2C destructor called
L1D destructor called
L1I destructor called
STLB destructor called
DTLB destructor called
ITLB destructor called
L2C destructor called
L1D destructor called
L1I destructor called
STLB destructor called
DTLB destructor called
ITLB destructor called
L2C destructor called
L1D destructor called
L1I destructor called
STLB destructor called
DTLB destructor called
ITLB destructor called
L2C destructor called
L1D destructor called
L1I destructor called
STLB destructor called
DTLB destructor called
ITLB destructor called
L2C destructor called
L1D destructor called
L1I destructor called
STLB destructor called
DTLB destructor called
ITLB destructor called
