
*** ChampSim Multicore Out-of-Order Simulator ***

Warmup Instructions: 200000000
Simulation Instructions: 200000000
Number of CPUs: 8
threads:1

L1I Configuration:
L1I_SET:64
L1I_WAY:8
L1I_RQ_SIZE:64
L1I_WQ_SIZE:64
L1I_PQ_SIZE:8
L1I_MSHR_SIZE:8

L1D Configuration:
L1D_SET:64
L1D_WAY:12
L1D_RQ_SIZE:64
L1D_WQ_SIZE:64
L1D_PQ_SIZE:8
L1D_MSHR_SIZE:16

L2C Configuration:
L2C_SET:1024
L2C_WAY:8
L2C_RQ_SIZE:32
L2C_WQ_SIZE:32
L2C_PQ_SIZE:16
L2C_MSHR_SIZE:32

LLC Configuration:
LLC_SET:2048
LLC_WAY:16
LLC SLICES:8
LLC_RQ_SIZE:64
LLC_WQ_SIZE:64
LLC_PQ_SIZE:32
LLC_MSHR_SIZE:64

Interconnect OFF
Attacker deprioritize is: OFF
Off-chip DRAM Size: 8192 MB Channels: 2 Width: 64-bit Data Rate: 3200 MT/s
PAGE SIZE in KB: 4.000000 
PAGE SIZE in MB: 0.003906 
PAGE offset in bits: 12 
CEASER-S_LLC:0
MIRAGE : 0
CEASER_LATENCY:3
REMAP : OFF
Partitions : 1
Multi-Step : OFF
BFS : OFF

CPU 0 runs /home/anubhav/gap/sssp-3.trace.gz
CPU 1 runs /home/anubhav/gap/sssp-3.trace.gz
CPU 2 runs /home/anubhav/gap/sssp-3.trace.gz
CPU 3 runs /home/anubhav/gap/sssp-3.trace.gz
CPU 4 runs /home/anubhav/gap/sssp-3.trace.gz
CPU 5 runs /home/anubhav/gap/sssp-3.trace.gz
CPU 6 runs /home/anubhav/gap/sssp-3.trace.gz
CPU 7 runs /home/anubhav/gap/sssp-3.trace.gz
CPU 0 Bimodal branch predictor
Initialize Hawkeye state
Initialize Hawkeye state
Initialize Hawkeye state
Initialize Hawkeye state
Initialize Hawkeye state
Initialize Hawkeye state
Initialize Hawkeye state
Initialize Hawkeye state
CPU 1 Bimodal branch predictor
Initialize Hawkeye state
Initialize Hawkeye state
Initialize Hawkeye state
Initialize Hawkeye state
Initialize Hawkeye state
Initialize Hawkeye state
Initialize Hawkeye state
Initialize Hawkeye state
CPU 2 Bimodal branch predictor
Initialize Hawkeye state
Initialize Hawkeye state
Initialize Hawkeye state
Initialize Hawkeye state
Initialize Hawkeye state
Initialize Hawkeye state
Initialize Hawkeye state
Initialize Hawkeye state
CPU 3 Bimodal branch predictor
Initialize Hawkeye state
Initialize Hawkeye state
Initialize Hawkeye state
Initialize Hawkeye state
Initialize Hawkeye state
Initialize Hawkeye state
Initialize Hawkeye state
Initialize Hawkeye state
CPU 4 Bimodal branch predictor
Initialize Hawkeye state
Initialize Hawkeye state
Initialize Hawkeye state
Initialize Hawkeye state
Initialize Hawkeye state
Initialize Hawkeye state
Initialize Hawkeye state
Initialize Hawkeye state
CPU 5 Bimodal branch predictor
Initialize Hawkeye state
Initialize Hawkeye state
Initialize Hawkeye state
Initialize Hawkeye state
Initialize Hawkeye state
Initialize Hawkeye state
Initialize Hawkeye state
Initialize Hawkeye state
CPU 6 Bimodal branch predictor
Initialize Hawkeye state
Initialize Hawkeye state
Initialize Hawkeye state
Initialize Hawkeye state
Initialize Hawkeye state
Initialize Hawkeye state
Initialize Hawkeye state
Initialize Hawkeye state
CPU 7 Bimodal branch predictor
Initialize Hawkeye state
Initialize Hawkeye state
Initialize Hawkeye state
Initialize Hawkeye state
Initialize Hawkeye state
Initialize Hawkeye state
Initialize Hawkeye state
Initialize Hawkeye state
Heartbeat CPU 0 instructions: 10000001 cycles: 7243194 heartbeat IPC: 1.38061 cumulative IPC: 1.38061 (Simulation time: 0 hr 14 min 26 sec) 
 Total Blocks : 262144 Invalid Blocks : 280
Heartbeat CPU 2 instructions: 10000001 cycles: 7247613 heartbeat IPC: 1.37976 cumulative IPC: 1.37976 (Simulation time: 0 hr 14 min 26 sec) 
 Total Blocks : 262144 Invalid Blocks : 279
Heartbeat CPU 4 instructions: 10000001 cycles: 7247708 heartbeat IPC: 1.37975 cumulative IPC: 1.37975 (Simulation time: 0 hr 14 min 26 sec) 
 Total Blocks : 262144 Invalid Blocks : 278
Heartbeat CPU 3 instructions: 10000001 cycles: 7248174 heartbeat IPC: 1.37966 cumulative IPC: 1.37966 (Simulation time: 0 hr 14 min 26 sec) 
 Total Blocks : 262144 Invalid Blocks : 278
Heartbeat CPU 6 instructions: 10000001 cycles: 7248180 heartbeat IPC: 1.37966 cumulative IPC: 1.37966 (Simulation time: 0 hr 14 min 26 sec) 
 Total Blocks : 262144 Invalid Blocks : 278
Heartbeat CPU 1 instructions: 10000001 cycles: 7248547 heartbeat IPC: 1.37959 cumulative IPC: 1.37959 (Simulation time: 0 hr 14 min 26 sec) 
 Total Blocks : 262144 Invalid Blocks : 278
Heartbeat CPU 7 instructions: 10000001 cycles: 7248937 heartbeat IPC: 1.37951 cumulative IPC: 1.37951 (Simulation time: 0 hr 14 min 26 sec) 
 Total Blocks : 262144 Invalid Blocks : 277
Heartbeat CPU 5 instructions: 10000001 cycles: 7249507 heartbeat IPC: 1.3794 cumulative IPC: 1.3794 (Simulation time: 0 hr 14 min 26 sec) 
 Total Blocks : 262144 Invalid Blocks : 277
Heartbeat CPU 0 instructions: 20000000 cycles: 15711600 heartbeat IPC: 1.18086 cumulative IPC: 1.27294 (Simulation time: 0 hr 29 min 20 sec) 
 Total Blocks : 262144 Invalid Blocks : 0
Heartbeat CPU 2 instructions: 20000000 cycles: 15721326 heartbeat IPC: 1.18012 cumulative IPC: 1.27216 (Simulation time: 0 hr 29 min 22 sec) 
 Total Blocks : 262144 Invalid Blocks : 0
Heartbeat CPU 3 instructions: 20000000 cycles: 15722222 heartbeat IPC: 1.18007 cumulative IPC: 1.27208 (Simulation time: 0 hr 29 min 22 sec) 
 Total Blocks : 262144 Invalid Blocks : 0
Heartbeat CPU 4 instructions: 20000000 cycles: 15723337 heartbeat IPC: 1.17985 cumulative IPC: 1.27199 (Simulation time: 0 hr 29 min 22 sec) 
 Total Blocks : 262144 Invalid Blocks : 0
Heartbeat CPU 6 instructions: 20000000 cycles: 15723367 heartbeat IPC: 1.17991 cumulative IPC: 1.27199 (Simulation time: 0 hr 29 min 22 sec) 
 Total Blocks : 262144 Invalid Blocks : 0
Heartbeat CPU 1 instructions: 20000000 cycles: 15723817 heartbeat IPC: 1.1799 cumulative IPC: 1.27196 (Simulation time: 0 hr 29 min 22 sec) 
 Total Blocks : 262144 Invalid Blocks : 0
Heartbeat CPU 7 instructions: 20000000 cycles: 15726097 heartbeat IPC: 1.17964 cumulative IPC: 1.27177 (Simulation time: 0 hr 29 min 23 sec) 
 Total Blocks : 262144 Invalid Blocks : 0
Heartbeat CPU 5 instructions: 20000000 cycles: 15726998 heartbeat IPC: 1.17959 cumulative IPC: 1.2717 (Simulation time: 0 hr 29 min 23 sec) 
 Total Blocks : 262144 Invalid Blocks : 0
Heartbeat CPU 0 instructions: 30000001 cycles: 23327310 heartbeat IPC: 1.31308 cumulative IPC: 1.28605 (Simulation time: 0 hr 50 min 27 sec) 
 Total Blocks : 262144 Invalid Blocks : 0
Heartbeat CPU 2 instructions: 30000001 cycles: 23339197 heartbeat IPC: 1.3127 cumulative IPC: 1.28539 (Simulation time: 0 hr 50 min 31 sec) 
 Total Blocks : 262144 Invalid Blocks : 0
Heartbeat CPU 3 instructions: 30000001 cycles: 23341236 heartbeat IPC: 1.31251 cumulative IPC: 1.28528 (Simulation time: 0 hr 50 min 31 sec) 
 Total Blocks : 262144 Invalid Blocks : 0
Heartbeat CPU 1 instructions: 30000001 cycles: 23341864 heartbeat IPC: 1.31267 cumulative IPC: 1.28524 (Simulation time: 0 hr 50 min 31 sec) 
 Total Blocks : 262144 Invalid Blocks : 0
Heartbeat CPU 6 instructions: 30000001 cycles: 23344898 heartbeat IPC: 1.31207 cumulative IPC: 1.28508 (Simulation time: 0 hr 50 min 32 sec) 
 Total Blocks : 262144 Invalid Blocks : 0
Heartbeat CPU 4 instructions: 30000001 cycles: 23349124 heartbeat IPC: 1.31134 cumulative IPC: 1.28484 (Simulation time: 0 hr 50 min 33 sec) 
 Total Blocks : 262144 Invalid Blocks : 0
Heartbeat CPU 7 instructions: 30000001 cycles: 23353892 heartbeat IPC: 1.31099 cumulative IPC: 1.28458 (Simulation time: 0 hr 50 min 34 sec) 
 Total Blocks : 262144 Invalid Blocks : 0
Heartbeat CPU 5 instructions: 30000001 cycles: 23354216 heartbeat IPC: 1.31109 cumulative IPC: 1.28456 (Simulation time: 0 hr 50 min 34 sec) 
 Total Blocks : 262144 Invalid Blocks : 0
Heartbeat CPU 0 instructions: 40000000 cycles: 30739008 heartbeat IPC: 1.34922 cumulative IPC: 1.30128 (Simulation time: 1 hr 11 min 20 sec) 
 Total Blocks : 262144 Invalid Blocks : 0
Heartbeat CPU 2 instructions: 40000000 cycles: 30753080 heartbeat IPC: 1.34882 cumulative IPC: 1.30068 (Simulation time: 1 hr 11 min 21 sec) 
 Total Blocks : 262144 Invalid Blocks : 0
Heartbeat CPU 1 instructions: 40000000 cycles: 30755486 heartbeat IPC: 1.34887 cumulative IPC: 1.30058 (Simulation time: 1 hr 11 min 22 sec) 
 Total Blocks : 262144 Invalid Blocks : 0
Heartbeat CPU 3 instructions: 40000000 cycles: 30755674 heartbeat IPC: 1.34872 cumulative IPC: 1.30057 (Simulation time: 1 hr 11 min 22 sec) 
 Total Blocks : 262144 Invalid Blocks : 0
Heartbeat CPU 6 instructions: 40000000 cycles: 30761338 heartbeat IPC: 1.34836 cumulative IPC: 1.30033 (Simulation time: 1 hr 11 min 22 sec) 
 Total Blocks : 262144 Invalid Blocks : 0
Heartbeat CPU 4 instructions: 40000000 cycles: 30768406 heartbeat IPC: 1.34784 cumulative IPC: 1.30003 (Simulation time: 1 hr 11 min 23 sec) 
 Total Blocks : 262144 Invalid Blocks : 0
Heartbeat CPU 5 instructions: 40000000 cycles: 30774196 heartbeat IPC: 1.34771 cumulative IPC: 1.29979 (Simulation time: 1 hr 11 min 24 sec) 
 Total Blocks : 262144 Invalid Blocks : 0
Heartbeat CPU 7 instructions: 40000000 cycles: 30774970 heartbeat IPC: 1.34751 cumulative IPC: 1.29976 (Simulation time: 1 hr 11 min 24 sec) 
 Total Blocks : 262144 Invalid Blocks : 0
Heartbeat CPU 0 instructions: 50000001 cycles: 37798600 heartbeat IPC: 1.41651 cumulative IPC: 1.3228 (Simulation time: 1 hr 34 min 18 sec) 
 Total Blocks : 262144 Invalid Blocks : 0
Heartbeat CPU 2 instructions: 50000001 cycles: 37814369 heartbeat IPC: 1.41617 cumulative IPC: 1.32225 (Simulation time: 1 hr 34 min 22 sec) 
 Total Blocks : 262144 Invalid Blocks : 0
Heartbeat CPU 1 instructions: 50000001 cycles: 37816501 heartbeat IPC: 1.41623 cumulative IPC: 1.32217 (Simulation time: 1 hr 34 min 22 sec) 
 Total Blocks : 262144 Invalid Blocks : 0
Heartbeat CPU 3 instructions: 50000001 cycles: 37817877 heartbeat IPC: 1.41599 cumulative IPC: 1.32213 (Simulation time: 1 hr 34 min 23 sec) 
 Total Blocks : 262144 Invalid Blocks : 0
Heartbeat CPU 6 instructions: 50000001 cycles: 37824978 heartbeat IPC: 1.4157 cumulative IPC: 1.32188 (Simulation time: 1 hr 34 min 25 sec) 
 Total Blocks : 262144 Invalid Blocks : 0
Heartbeat CPU 4 instructions: 50000001 cycles: 37834268 heartbeat IPC: 1.41526 cumulative IPC: 1.32155 (Simulation time: 1 hr 34 min 27 sec) 
 Total Blocks : 262144 Invalid Blocks : 0
Heartbeat CPU 5 instructions: 50000001 cycles: 37841075 heartbeat IPC: 1.41505 cumulative IPC: 1.32132 (Simulation time: 1 hr 34 min 29 sec) 
 Total Blocks : 262144 Invalid Blocks : 0
Heartbeat CPU 7 instructions: 50000001 cycles: 37842207 heartbeat IPC: 1.41498 cumulative IPC: 1.32128 (Simulation time: 1 hr 34 min 29 sec) 
 Total Blocks : 262144 Invalid Blocks : 0
Heartbeat CPU 0 instructions: 60000003 cycles: 44481999 heartbeat IPC: 1.49624 cumulative IPC: 1.34886 (Simulation time: 1 hr 58 min 40 sec) 
 Total Blocks : 262144 Invalid Blocks : 0
Heartbeat CPU 2 instructions: 60000003 cycles: 44499427 heartbeat IPC: 1.49587 cumulative IPC: 1.34833 (Simulation time: 1 hr 58 min 43 sec) 
 Total Blocks : 262144 Invalid Blocks : 0
Heartbeat CPU 1 instructions: 60000003 cycles: 44501232 heartbeat IPC: 1.49595 cumulative IPC: 1.34828 (Simulation time: 1 hr 58 min 43 sec) 
 Total Blocks : 262144 Invalid Blocks : 0
Heartbeat CPU 3 instructions: 60000003 cycles: 44503806 heartbeat IPC: 1.49568 cumulative IPC: 1.3482 (Simulation time: 1 hr 58 min 44 sec) 
 Total Blocks : 262144 Invalid Blocks : 0
Heartbeat CPU 6 instructions: 60000003 cycles: 44512754 heartbeat IPC: 1.49527 cumulative IPC: 1.34793 (Simulation time: 1 hr 58 min 45 sec) 
 Total Blocks : 262144 Invalid Blocks : 0
Heartbeat CPU 4 instructions: 60000003 cycles: 44524337 heartbeat IPC: 1.49475 cumulative IPC: 1.34758 (Simulation time: 1 hr 58 min 47 sec) 
 Total Blocks : 262144 Invalid Blocks : 0
Heartbeat CPU 5 instructions: 60000003 cycles: 44532042 heartbeat IPC: 1.49455 cumulative IPC: 1.34734 (Simulation time: 1 hr 58 min 49 sec) 
 Total Blocks : 262144 Invalid Blocks : 0
Heartbeat CPU 7 instructions: 60000003 cycles: 44533593 heartbeat IPC: 1.49446 cumulative IPC: 1.3473 (Simulation time: 1 hr 58 min 49 sec) 
 Total Blocks : 262144 Invalid Blocks : 0
Heartbeat CPU 0 instructions: 70000003 cycles: 50949080 heartbeat IPC: 1.54629 cumulative IPC: 1.37392 (Simulation time: 2 hr 25 min 37 sec) 
 Total Blocks : 262144 Invalid Blocks : 0
Heartbeat CPU 2 instructions: 70000003 cycles: 50968793 heartbeat IPC: 1.54575 cumulative IPC: 1.37339 (Simulation time: 2 hr 25 min 44 sec) 
 Total Blocks : 262144 Invalid Blocks : 0
Heartbeat CPU 1 instructions: 70000003 cycles: 50969529 heartbeat IPC: 1.546 cumulative IPC: 1.37337 (Simulation time: 2 hr 25 min 44 sec) 
 Total Blocks : 262144 Invalid Blocks : 0
Heartbeat CPU 3 instructions: 70000003 cycles: 50973502 heartbeat IPC: 1.54567 cumulative IPC: 1.37326 (Simulation time: 2 hr 25 min 45 sec) 
 Total Blocks : 262144 Invalid Blocks : 0
Heartbeat CPU 6 instructions: 70000003 cycles: 50984609 heartbeat IPC: 1.54515 cumulative IPC: 1.37296 (Simulation time: 2 hr 25 min 49 sec) 
 Total Blocks : 262144 Invalid Blocks : 0
Heartbeat CPU 4 instructions: 70000003 cycles: 50997629 heartbeat IPC: 1.54481 cumulative IPC: 1.37261 (Simulation time: 2 hr 25 min 55 sec) 
 Total Blocks : 262144 Invalid Blocks : 0
Heartbeat CPU 5 instructions: 70000003 cycles: 51006571 heartbeat IPC: 1.54451 cumulative IPC: 1.37237 (Simulation time: 2 hr 25 min 57 sec) 
 Total Blocks : 262144 Invalid Blocks : 0
Heartbeat CPU 7 instructions: 70000003 cycles: 51009058 heartbeat IPC: 1.54429 cumulative IPC: 1.37231 (Simulation time: 2 hr 25 min 58 sec) 
 Total Blocks : 262144 Invalid Blocks : 0
Heartbeat CPU 0 instructions: 80000003 cycles: 57245253 heartbeat IPC: 1.58827 cumulative IPC: 1.3975 (Simulation time: 2 hr 54 min 10 sec) 
 Total Blocks : 262144 Invalid Blocks : 0
Heartbeat CPU 1 instructions: 80000003 cycles: 57267046 heartbeat IPC: 1.58793 cumulative IPC: 1.39696 (Simulation time: 2 hr 54 min 15 sec) 
 Total Blocks : 262144 Invalid Blocks : 0
Heartbeat CPU 2 instructions: 80000003 cycles: 57267297 heartbeat IPC: 1.58768 cumulative IPC: 1.39696 (Simulation time: 2 hr 54 min 15 sec) 
 Total Blocks : 262144 Invalid Blocks : 0
Heartbeat CPU 3 instructions: 80000003 cycles: 57272704 heartbeat IPC: 1.5875 cumulative IPC: 1.39683 (Simulation time: 2 hr 54 min 16 sec) 
 Total Blocks : 262144 Invalid Blocks : 0
Heartbeat CPU 6 instructions: 80000003 cycles: 57285649 heartbeat IPC: 1.58704 cumulative IPC: 1.39651 (Simulation time: 2 hr 54 min 19 sec) 
 Total Blocks : 262144 Invalid Blocks : 0
Heartbeat CPU 4 instructions: 80000003 cycles: 57299898 heartbeat IPC: 1.58673 cumulative IPC: 1.39616 (Simulation time: 2 hr 54 min 22 sec) 
 Total Blocks : 262144 Invalid Blocks : 0
Heartbeat CPU 5 instructions: 80000003 cycles: 57309616 heartbeat IPC: 1.58653 cumulative IPC: 1.39593 (Simulation time: 2 hr 54 min 24 sec) 
 Total Blocks : 262144 Invalid Blocks : 0
Heartbeat CPU 7 instructions: 80000003 cycles: 57313840 heartbeat IPC: 1.5861 cumulative IPC: 1.39582 (Simulation time: 2 hr 54 min 25 sec) 
 Total Blocks : 262144 Invalid Blocks : 0
Heartbeat CPU 0 instructions: 90000001 cycles: 63440670 heartbeat IPC: 1.6141 cumulative IPC: 1.41865 (Simulation time: 3 hr 23 min 54 sec) 
 Total Blocks : 262144 Invalid Blocks : 0
Heartbeat CPU 1 instructions: 90000001 cycles: 63463925 heartbeat IPC: 1.61372 cumulative IPC: 1.41813 (Simulation time: 3 hr 23 min 59 sec) 
 Total Blocks : 262144 Invalid Blocks : 0
Heartbeat CPU 2 instructions: 90000001 cycles: 63464942 heartbeat IPC: 1.61352 cumulative IPC: 1.41811 (Simulation time: 3 hr 23 min 59 sec) 
 Total Blocks : 262144 Invalid Blocks : 0
Heartbeat CPU 3 instructions: 90000001 cycles: 63471288 heartbeat IPC: 1.61327 cumulative IPC: 1.41796 (Simulation time: 3 hr 24 min 1 sec) 
 Total Blocks : 262144 Invalid Blocks : 0
Heartbeat CPU 6 instructions: 90000001 cycles: 63486030 heartbeat IPC: 1.6128 cumulative IPC: 1.41763 (Simulation time: 3 hr 24 min 4 sec) 
 Total Blocks : 262144 Invalid Blocks : 0
Heartbeat CPU 4 instructions: 90000001 cycles: 63501581 heartbeat IPC: 1.61247 cumulative IPC: 1.41729 (Simulation time: 3 hr 24 min 7 sec) 
 Total Blocks : 262144 Invalid Blocks : 0
Heartbeat CPU 5 instructions: 90000001 cycles: 63512095 heartbeat IPC: 1.61226 cumulative IPC: 1.41705 (Simulation time: 3 hr 24 min 9 sec) 
 Total Blocks : 262144 Invalid Blocks : 0
Heartbeat CPU 7 instructions: 90000001 cycles: 63517112 heartbeat IPC: 1.61205 cumulative IPC: 1.41694 (Simulation time: 3 hr 24 min 10 sec) 
 Total Blocks : 262144 Invalid Blocks : 0
Heartbeat CPU 0 instructions: 100000001 cycles: 69504698 heartbeat IPC: 1.64907 cumulative IPC: 1.43875 (Simulation time: 3 hr 51 min 3 sec) 
 Total Blocks : 262144 Invalid Blocks : 0
Heartbeat CPU 1 instructions: 100000001 cycles: 69529155 heartbeat IPC: 1.64874 cumulative IPC: 1.43825 (Simulation time: 3 hr 51 min 8 sec) 
 Total Blocks : 262144 Invalid Blocks : 0
Heartbeat CPU 2 instructions: 100000001 cycles: 69530882 heartbeat IPC: 1.64855 cumulative IPC: 1.43821 (Simulation time: 3 hr 51 min 8 sec) 
 Total Blocks : 262144 Invalid Blocks : 0
Heartbeat CPU 3 instructions: 100000001 cycles: 69538173 heartbeat IPC: 1.64829 cumulative IPC: 1.43806 (Simulation time: 3 hr 51 min 10 sec) 
 Total Blocks : 262144 Invalid Blocks : 0
Heartbeat CPU 6 instructions: 100000001 cycles: 69554511 heartbeat IPC: 1.64786 cumulative IPC: 1.43772 (Simulation time: 3 hr 51 min 13 sec) 
 Total Blocks : 262144 Invalid Blocks : 0
Heartbeat CPU 4 instructions: 100000001 cycles: 69571075 heartbeat IPC: 1.64758 cumulative IPC: 1.43738 (Simulation time: 3 hr 51 min 16 sec) 
 Total Blocks : 262144 Invalid Blocks : 0
Heartbeat CPU 5 instructions: 100000001 cycles: 69581810 heartbeat IPC: 1.64752 cumulative IPC: 1.43716 (Simulation time: 3 hr 51 min 18 sec) 
 Total Blocks : 262144 Invalid Blocks : 0
Heartbeat CPU 7 instructions: 100000001 cycles: 69588164 heartbeat IPC: 1.64716 cumulative IPC: 1.43703 (Simulation time: 3 hr 51 min 19 sec) 
 Total Blocks : 262144 Invalid Blocks : 0
Heartbeat CPU 0 instructions: 110000000 cycles: 75522904 heartbeat IPC: 1.66162 cumulative IPC: 1.45651 (Simulation time: 4 hr 26 min 43 sec) 
 Total Blocks : 262144 Invalid Blocks : 0
Heartbeat CPU 1 instructions: 110000000 cycles: 75548152 heartbeat IPC: 1.66141 cumulative IPC: 1.45603 (Simulation time: 4 hr 26 min 52 sec) 
 Total Blocks : 262144 Invalid Blocks : 0
Heartbeat CPU 2 instructions: 110000000 cycles: 75550882 heartbeat IPC: 1.66113 cumulative IPC: 1.45597 (Simulation time: 4 hr 26 min 53 sec) 
 Total Blocks : 262144 Invalid Blocks : 0
Heartbeat CPU 3 instructions: 110000000 cycles: 75558569 heartbeat IPC: 1.66102 cumulative IPC: 1.45582 (Simulation time: 4 hr 26 min 57 sec) 
 Total Blocks : 262144 Invalid Blocks : 0
Heartbeat CPU 6 instructions: 110000000 cycles: 75576665 heartbeat IPC: 1.66054 cumulative IPC: 1.45548 (Simulation time: 4 hr 27 min 4 sec) 
 Total Blocks : 262144 Invalid Blocks : 0
Heartbeat CPU 4 instructions: 110000000 cycles: 75593494 heartbeat IPC: 1.66046 cumulative IPC: 1.45515 (Simulation time: 4 hr 27 min 12 sec) 
 Total Blocks : 262144 Invalid Blocks : 0
Heartbeat CPU 5 instructions: 110000000 cycles: 75605087 heartbeat IPC: 1.66023 cumulative IPC: 1.45493 (Simulation time: 4 hr 27 min 18 sec) 
 Total Blocks : 262144 Invalid Blocks : 0
Heartbeat CPU 7 instructions: 110000000 cycles: 75612487 heartbeat IPC: 1.65994 cumulative IPC: 1.45479 (Simulation time: 4 hr 27 min 22 sec) 
 Total Blocks : 262144 Invalid Blocks : 0
Heartbeat CPU 0 instructions: 120000003 cycles: 81393416 heartbeat IPC: 1.70343 cumulative IPC: 1.47432 (Simulation time: 5 hr 9 min 18 sec) 
 Total Blocks : 262144 Invalid Blocks : 0
Heartbeat CPU 1 instructions: 120000003 cycles: 81419978 heartbeat IPC: 1.70305 cumulative IPC: 1.47384 (Simulation time: 5 hr 9 min 29 sec) 
 Total Blocks : 262144 Invalid Blocks : 0
Heartbeat CPU 2 instructions: 120000003 cycles: 81423431 heartbeat IPC: 1.70284 cumulative IPC: 1.47378 (Simulation time: 5 hr 9 min 31 sec) 
 Total Blocks : 262144 Invalid Blocks : 0
Heartbeat CPU 3 instructions: 120000003 cycles: 81431978 heartbeat IPC: 1.70259 cumulative IPC: 1.47362 (Simulation time: 5 hr 9 min 35 sec) 
 Total Blocks : 262144 Invalid Blocks : 0
Heartbeat CPU 6 instructions: 120000003 cycles: 81452316 heartbeat IPC: 1.70194 cumulative IPC: 1.47325 (Simulation time: 5 hr 9 min 44 sec) 
 Total Blocks : 262144 Invalid Blocks : 0
Heartbeat CPU 4 instructions: 120000003 cycles: 81468944 heartbeat IPC: 1.702 cumulative IPC: 1.47295 (Simulation time: 5 hr 9 min 51 sec) 
 Total Blocks : 262144 Invalid Blocks : 0
Heartbeat CPU 5 instructions: 120000003 cycles: 81481414 heartbeat IPC: 1.70174 cumulative IPC: 1.47273 (Simulation time: 5 hr 9 min 56 sec) 
 Total Blocks : 262144 Invalid Blocks : 0
Heartbeat CPU 7 instructions: 120000003 cycles: 81490234 heartbeat IPC: 1.70133 cumulative IPC: 1.47257 (Simulation time: 5 hr 10 min 0 sec) 
 Total Blocks : 262144 Invalid Blocks : 0
Heartbeat CPU 0 instructions: 130000001 cycles: 87234735 heartbeat IPC: 1.71194 cumulative IPC: 1.49023 (Simulation time: 5 hr 51 min 55 sec) 
 Total Blocks : 262144 Invalid Blocks : 0
Heartbeat CPU 1 instructions: 130000001 cycles: 87262675 heartbeat IPC: 1.71154 cumulative IPC: 1.48975 (Simulation time: 5 hr 52 min 9 sec) 
 Total Blocks : 262144 Invalid Blocks : 0
Heartbeat CPU 2 instructions: 130000001 cycles: 87267152 heartbeat IPC: 1.71124 cumulative IPC: 1.48968 (Simulation time: 5 hr 52 min 11 sec) 
 Total Blocks : 262144 Invalid Blocks : 0
Heartbeat CPU 3 instructions: 130000001 cycles: 87276317 heartbeat IPC: 1.71106 cumulative IPC: 1.48952 (Simulation time: 5 hr 52 min 15 sec) 
 Total Blocks : 262144 Invalid Blocks : 0
Heartbeat CPU 6 instructions: 130000001 cycles: 87298380 heartbeat IPC: 1.71055 cumulative IPC: 1.48915 (Simulation time: 5 hr 52 min 24 sec) 
 Total Blocks : 262144 Invalid Blocks : 0
Heartbeat CPU 4 instructions: 130000001 cycles: 87314984 heartbeat IPC: 1.71056 cumulative IPC: 1.48886 (Simulation time: 5 hr 52 min 32 sec) 
 Total Blocks : 262144 Invalid Blocks : 0
Heartbeat CPU 5 instructions: 130000001 cycles: 87327942 heartbeat IPC: 1.71042 cumulative IPC: 1.48864 (Simulation time: 5 hr 52 min 39 sec) 
 Total Blocks : 262144 Invalid Blocks : 0
Heartbeat CPU 7 instructions: 130000001 cycles: 87338090 heartbeat IPC: 1.71003 cumulative IPC: 1.48847 (Simulation time: 5 hr 52 min 44 sec) 
 Total Blocks : 262144 Invalid Blocks : 0
Heartbeat CPU 0 instructions: 140000001 cycles: 92960562 heartbeat IPC: 1.74647 cumulative IPC: 1.50601 (Simulation time: 6 hr 35 min 18 sec) 
 Total Blocks : 262144 Invalid Blocks : 0
Heartbeat CPU 1 instructions: 140000001 cycles: 92989227 heartbeat IPC: 1.74625 cumulative IPC: 1.50555 (Simulation time: 6 hr 35 min 29 sec) 
 Total Blocks : 262144 Invalid Blocks : 0
Heartbeat CPU 2 instructions: 140000001 cycles: 92994862 heartbeat IPC: 1.7459 cumulative IPC: 1.50546 (Simulation time: 6 hr 35 min 31 sec) 
 Total Blocks : 262144 Invalid Blocks : 0
Heartbeat CPU 3 instructions: 140000001 cycles: 93004629 heartbeat IPC: 1.74572 cumulative IPC: 1.5053 (Simulation time: 6 hr 35 min 35 sec) 
 Total Blocks : 262144 Invalid Blocks : 0
Heartbeat CPU 6 instructions: 140000001 cycles: 93028453 heartbeat IPC: 1.74518 cumulative IPC: 1.50492 (Simulation time: 6 hr 35 min 45 sec) 
 Total Blocks : 262144 Invalid Blocks : 0
Heartbeat CPU 4 instructions: 140000000 cycles: 93045420 heartbeat IPC: 1.74507 cumulative IPC: 1.50464 (Simulation time: 6 hr 35 min 52 sec) 
 Total Blocks : 262144 Invalid Blocks : 0
Heartbeat CPU 5 instructions: 140000001 cycles: 93059055 heartbeat IPC: 1.74486 cumulative IPC: 1.50442 (Simulation time: 6 hr 35 min 58 sec) 
 Total Blocks : 262144 Invalid Blocks : 0
Heartbeat CPU 7 instructions: 140000001 cycles: 93070068 heartbeat IPC: 1.7446 cumulative IPC: 1.50424 (Simulation time: 6 hr 36 min 3 sec) 
 Total Blocks : 262144 Invalid Blocks : 0
Heartbeat CPU 0 instructions: 150000000 cycles: 98662471 heartbeat IPC: 1.7538 cumulative IPC: 1.52033 (Simulation time: 7 hr 20 min 17 sec) 
 Total Blocks : 262144 Invalid Blocks : 0
Heartbeat CPU 1 instructions: 150000000 cycles: 98691864 heartbeat IPC: 1.75357 cumulative IPC: 1.51988 (Simulation time: 7 hr 20 min 36 sec) 
 Total Blocks : 262144 Invalid Blocks : 0
Heartbeat CPU 2 instructions: 150000000 cycles: 98698388 heartbeat IPC: 1.7533 cumulative IPC: 1.51978 (Simulation time: 7 hr 20 min 41 sec) 
 Total Blocks : 262144 Invalid Blocks : 0
Heartbeat CPU 3 instructions: 150000000 cycles: 98708871 heartbeat IPC: 1.75308 cumulative IPC: 1.51962 (Simulation time: 7 hr 20 min 47 sec) 
 Total Blocks : 262144 Invalid Blocks : 0
Heartbeat CPU 6 instructions: 150000000 cycles: 98734552 heartbeat IPC: 1.75251 cumulative IPC: 1.51923 (Simulation time: 7 hr 21 min 6 sec) 
 Total Blocks : 262144 Invalid Blocks : 0
Heartbeat CPU 4 instructions: 150000000 cycles: 98751567 heartbeat IPC: 1.7525 cumulative IPC: 1.51896 (Simulation time: 7 hr 21 min 18 sec) 
 Total Blocks : 262144 Invalid Blocks : 0
Heartbeat CPU 5 instructions: 150000000 cycles: 98765624 heartbeat IPC: 1.75237 cumulative IPC: 1.51875 (Simulation time: 7 hr 21 min 28 sec) 
 Total Blocks : 262144 Invalid Blocks : 0
Heartbeat CPU 7 instructions: 150000000 cycles: 98777710 heartbeat IPC: 1.75204 cumulative IPC: 1.51856 (Simulation time: 7 hr 21 min 37 sec) 
 Total Blocks : 262144 Invalid Blocks : 0
Heartbeat CPU 0 instructions: 160000000 cycles: 104309612 heartbeat IPC: 1.77081 cumulative IPC: 1.5339 (Simulation time: 8 hr 10 min 55 sec) 
 Total Blocks : 262144 Invalid Blocks : 0
Heartbeat CPU 1 instructions: 160000000 cycles: 104340673 heartbeat IPC: 1.77028 cumulative IPC: 1.53344 (Simulation time: 8 hr 11 min 13 sec) 
 Total Blocks : 262144 Invalid Blocks : 0
Heartbeat CPU 2 instructions: 160000000 cycles: 104347467 heartbeat IPC: 1.7702 cumulative IPC: 1.53334 (Simulation time: 8 hr 11 min 17 sec) 
 Total Blocks : 262144 Invalid Blocks : 0
Heartbeat CPU 3 instructions: 160000000 cycles: 104358787 heartbeat IPC: 1.76994 cumulative IPC: 1.53317 (Simulation time: 8 hr 11 min 23 sec) 
 Total Blocks : 262144 Invalid Blocks : 0
Heartbeat CPU 6 instructions: 160000000 cycles: 104386199 heartbeat IPC: 1.7694 cumulative IPC: 1.53277 (Simulation time: 8 hr 11 min 41 sec) 
 Total Blocks : 262144 Invalid Blocks : 0
Heartbeat CPU 4 instructions: 160000000 cycles: 104403275 heartbeat IPC: 1.76938 cumulative IPC: 1.53252 (Simulation time: 8 hr 11 min 52 sec) 
 Total Blocks : 262144 Invalid Blocks : 0
Heartbeat CPU 5 instructions: 160000000 cycles: 104418289 heartbeat IPC: 1.76908 cumulative IPC: 1.5323 (Simulation time: 8 hr 12 min 3 sec) 
 Total Blocks : 262144 Invalid Blocks : 0
Heartbeat CPU 7 instructions: 160000000 cycles: 104431098 heartbeat IPC: 1.76885 cumulative IPC: 1.53211 (Simulation time: 8 hr 12 min 12 sec) 
 Total Blocks : 262144 Invalid Blocks : 0
Heartbeat CPU 0 instructions: 170000002 cycles: 109910842 heartbeat IPC: 1.78532 cumulative IPC: 1.54671 (Simulation time: 8 hr 55 min 34 sec) 
 Total Blocks : 262144 Invalid Blocks : 0
Heartbeat CPU 1 instructions: 170000002 cycles: 109942867 heartbeat IPC: 1.78502 cumulative IPC: 1.54626 (Simulation time: 8 hr 55 min 45 sec) 
 Total Blocks : 262144 Invalid Blocks : 0
Heartbeat CPU 2 instructions: 170000002 cycles: 109950333 heartbeat IPC: 1.7848 cumulative IPC: 1.54615 (Simulation time: 8 hr 55 min 47 sec) 
 Total Blocks : 262144 Invalid Blocks : 0
Heartbeat CPU 3 instructions: 170000002 cycles: 109962529 heartbeat IPC: 1.78452 cumulative IPC: 1.54598 (Simulation time: 8 hr 55 min 52 sec) 
 Total Blocks : 262144 Invalid Blocks : 0
Heartbeat CPU 6 instructions: 170000002 cycles: 109992218 heartbeat IPC: 1.7838 cumulative IPC: 1.54556 (Simulation time: 8 hr 56 min 3 sec) 
 Total Blocks : 262144 Invalid Blocks : 0
Heartbeat CPU 4 instructions: 170000002 cycles: 110008856 heartbeat IPC: 1.78394 cumulative IPC: 1.54533 (Simulation time: 8 hr 56 min 10 sec) 
 Total Blocks : 262144 Invalid Blocks : 0
Heartbeat CPU 5 instructions: 170000002 cycles: 110024634 heartbeat IPC: 1.78369 cumulative IPC: 1.54511 (Simulation time: 8 hr 56 min 17 sec) 
 Total Blocks : 262144 Invalid Blocks : 0
Heartbeat CPU 7 instructions: 170000002 cycles: 110038232 heartbeat IPC: 1.78344 cumulative IPC: 1.54492 (Simulation time: 8 hr 56 min 22 sec) 
 Total Blocks : 262144 Invalid Blocks : 0
Heartbeat CPU 0 instructions: 180000001 cycles: 115484551 heartbeat IPC: 1.79414 cumulative IPC: 1.55865 (Simulation time: 9 hr 36 min 33 sec) 
 Total Blocks : 262144 Invalid Blocks : 0
Heartbeat CPU 1 instructions: 180000001 cycles: 115518189 heartbeat IPC: 1.79362 cumulative IPC: 1.5582 (Simulation time: 9 hr 36 min 47 sec) 
 Total Blocks : 262144 Invalid Blocks : 0
Heartbeat CPU 2 instructions: 180000001 cycles: 115525935 heartbeat IPC: 1.79353 cumulative IPC: 1.55809 (Simulation time: 9 hr 36 min 50 sec) 
 Total Blocks : 262144 Invalid Blocks : 0
Heartbeat CPU 3 instructions: 180000001 cycles: 115538951 heartbeat IPC: 1.79326 cumulative IPC: 1.55792 (Simulation time: 9 hr 36 min 55 sec) 
 Total Blocks : 262144 Invalid Blocks : 0
Heartbeat CPU 6 instructions: 180000001 cycles: 115570848 heartbeat IPC: 1.79255 cumulative IPC: 1.55749 (Simulation time: 9 hr 37 min 10 sec) 
 Total Blocks : 262144 Invalid Blocks : 0
Heartbeat CPU 4 instructions: 180000001 cycles: 115587249 heartbeat IPC: 1.79263 cumulative IPC: 1.55727 (Simulation time: 9 hr 37 min 16 sec) 
 Total Blocks : 262144 Invalid Blocks : 0
Heartbeat CPU 5 instructions: 180000002 cycles: 115603777 heartbeat IPC: 1.79239 cumulative IPC: 1.55704 (Simulation time: 9 hr 37 min 23 sec) 
 Total Blocks : 262144 Invalid Blocks : 0
Heartbeat CPU 7 instructions: 180000001 cycles: 115618455 heartbeat IPC: 1.79204 cumulative IPC: 1.55684 (Simulation time: 9 hr 37 min 29 sec) 
 Total Blocks : 262144 Invalid Blocks : 0
Heartbeat CPU 0 instructions: 190000000 cycles: 121013114 heartbeat IPC: 1.80879 cumulative IPC: 1.57008 (Simulation time: 10 hr 23 min 6 sec) 
 Total Blocks : 262144 Invalid Blocks : 0
Heartbeat CPU 1 instructions: 190000000 cycles: 121048136 heartbeat IPC: 1.80834 cumulative IPC: 1.56962 (Simulation time: 10 hr 23 min 26 sec) 
 Total Blocks : 262144 Invalid Blocks : 0
Heartbeat CPU 2 instructions: 190000000 cycles: 121056416 heartbeat IPC: 1.80816 cumulative IPC: 1.56952 (Simulation time: 10 hr 23 min 30 sec) 
 Total Blocks : 262144 Invalid Blocks : 0
Heartbeat CPU 3 instructions: 190000000 cycles: 121070416 heartbeat IPC: 1.80784 cumulative IPC: 1.56933 (Simulation time: 10 hr 23 min 38 sec) 
 Total Blocks : 262144 Invalid Blocks : 0
Heartbeat CPU 6 instructions: 190000000 cycles: 121104102 heartbeat IPC: 1.80725 cumulative IPC: 1.5689 (Simulation time: 10 hr 23 min 54 sec) 
 Total Blocks : 262144 Invalid Blocks : 0
Heartbeat CPU 4 instructions: 190000000 cycles: 121120108 heartbeat IPC: 1.80738 cumulative IPC: 1.56869 (Simulation time: 10 hr 24 min 3 sec) 
 Total Blocks : 262144 Invalid Blocks : 0
Heartbeat CPU 5 instructions: 190000000 cycles: 121137277 heartbeat IPC: 1.80717 cumulative IPC: 1.56847 (Simulation time: 10 hr 24 min 13 sec) 
 Total Blocks : 262144 Invalid Blocks : 0
Heartbeat CPU 7 instructions: 190000000 cycles: 121153259 heartbeat IPC: 1.80675 cumulative IPC: 1.56826 (Simulation time: 10 hr 24 min 21 sec) 
 Total Blocks : 262144 Invalid Blocks : 0
Heartbeat CPU 0 instructions: 200000001 cycles: 126515416 heartbeat IPC: 1.81742 cumulative IPC: 1.58083 (Simulation time: 11 hr 9 min 34 sec) 
 Total Blocks : 262144 Invalid Blocks : 0
Heartbeat CPU 1 instructions: 200000001 cycles: 126551465 heartbeat IPC: 1.81708 cumulative IPC: 1.58038 (Simulation time: 11 hr 9 min 52 sec) 
 Total Blocks : 262144 Invalid Blocks : 0
Heartbeat CPU 2 instructions: 200000001 cycles: 126560877 heartbeat IPC: 1.81671 cumulative IPC: 1.58027 (Simulation time: 11 hr 9 min 57 sec) 
 Total Blocks : 262144 Invalid Blocks : 0
Heartbeat CPU 3 instructions: 200000001 cycles: 126575501 heartbeat IPC: 1.8165 cumulative IPC: 1.58008 (Simulation time: 11 hr 10 min 5 sec) 
 Total Blocks : 262144 Invalid Blocks : 0
Heartbeat CPU 6 instructions: 200000001 cycles: 126611217 heartbeat IPC: 1.81583 cumulative IPC: 1.57964 (Simulation time: 11 hr 10 min 25 sec) 
 Total Blocks : 262144 Invalid Blocks : 0
Heartbeat CPU 4 instructions: 200000001 cycles: 126626590 heartbeat IPC: 1.81604 cumulative IPC: 1.57945 (Simulation time: 11 hr 10 min 33 sec) 
 Total Blocks : 262144 Invalid Blocks : 0
Heartbeat CPU 5 instructions: 200000001 cycles: 126644315 heartbeat IPC: 1.81586 cumulative IPC: 1.57923 (Simulation time: 11 hr 10 min 42 sec) 
 Total Blocks : 262144 Invalid Blocks : 0
Heartbeat CPU 7 instructions: 200000001 cycles: 126661462 heartbeat IPC: 1.81547 cumulative IPC: 1.57901 (Simulation time: 11 hr 10 min 51 sec) 
 Total Blocks : 262144 Invalid Blocks : 0

Warmup complete CPU 0 instructions: 200263539 cycles: 126661462 (Simulation time: 11 hr 10 min 51 sec) 
Warmup complete CPU 1 instructions: 200198475 cycles: 126661462 (Simulation time: 11 hr 10 min 51 sec) 
Warmup complete CPU 2 instructions: 200181440 cycles: 126661462 (Simulation time: 11 hr 10 min 51 sec) 
Warmup complete CPU 3 instructions: 200154897 cycles: 126661462 (Simulation time: 11 hr 10 min 51 sec) 
Warmup complete CPU 4 instructions: 200061879 cycles: 126661462 (Simulation time: 11 hr 10 min 51 sec) 
Warmup complete CPU 5 instructions: 200030474 cycles: 126661462 (Simulation time: 11 hr 10 min 51 sec) 
Warmup complete CPU 6 instructions: 200089648 cycles: 126661462 (Simulation time: 11 hr 10 min 51 sec) 
Warmup complete CPU 7 instructions: 200000001 cycles: 126661462 (Simulation time: 11 hr 10 min 51 sec) 

Heartbeat CPU 0 instructions: 210000003 cycles: 212658802 heartbeat IPC: 0.116086 cumulative IPC: 0.113218 (Simulation time: 12 hr 26 min 24 sec) 
 Total Blocks : 262144 Invalid Blocks : 0
Heartbeat CPU 1 instructions: 210000003 cycles: 213103309 heartbeat IPC: 0.115538 cumulative IPC: 0.113389 (Simulation time: 12 hr 26 min 51 sec) 
 Total Blocks : 262144 Invalid Blocks : 0
Heartbeat CPU 2 instructions: 210000003 cycles: 213451237 heartbeat IPC: 0.115088 cumulative IPC: 0.11313 (Simulation time: 12 hr 27 min 9 sec) 
 Total Blocks : 262144 Invalid Blocks : 0
Heartbeat CPU 3 instructions: 210000003 cycles: 213453562 heartbeat IPC: 0.115104 cumulative IPC: 0.113433 (Simulation time: 12 hr 27 min 9 sec) 
 Total Blocks : 262144 Invalid Blocks : 0
Heartbeat CPU 4 instructions: 210000003 cycles: 213880346 heartbeat IPC: 0.114608 cumulative IPC: 0.113945 (Simulation time: 12 hr 27 min 30 sec) 
 Total Blocks : 262144 Invalid Blocks : 0
Heartbeat CPU 5 instructions: 210000003 cycles: 213990084 heartbeat IPC: 0.114488 cumulative IPC: 0.114161 (Simulation time: 12 hr 27 min 36 sec) 
 Total Blocks : 262144 Invalid Blocks : 0
Heartbeat CPU 6 instructions: 210000003 cycles: 214056572 heartbeat IPC: 0.114357 cumulative IPC: 0.113397 (Simulation time: 12 hr 27 min 39 sec) 
 Total Blocks : 262144 Invalid Blocks : 0
Heartbeat CPU 7 instructions: 210000003 cycles: 214505758 heartbeat IPC: 0.113838 cumulative IPC: 0.113838 (Simulation time: 12 hr 28 min 1 sec) 
 Total Blocks : 262144 Invalid Blocks : 0
Heartbeat CPU 0 instructions: 220000000 cycles: 300429932 heartbeat IPC: 0.113933 cumulative IPC: 0.113579 (Simulation time: 13 hr 46 min 15 sec) 
 Total Blocks : 262144 Invalid Blocks : 0
Heartbeat CPU 1 instructions: 220000000 cycles: 301015140 heartbeat IPC: 0.11375 cumulative IPC: 0.113571 (Simulation time: 13 hr 46 min 43 sec) 
 Total Blocks : 262144 Invalid Blocks : 0
Heartbeat CPU 5 instructions: 220000000 cycles: 301101391 heartbeat IPC: 0.114796 cumulative IPC: 0.114478 (Simulation time: 13 hr 46 min 47 sec) 
 Total Blocks : 262144 Invalid Blocks : 0
Heartbeat CPU 4 instructions: 220000000 cycles: 301157789 heartbeat IPC: 0.114577 cumulative IPC: 0.114261 (Simulation time: 13 hr 46 min 49 sec) 
 Total Blocks : 262144 Invalid Blocks : 0
Heartbeat CPU 3 instructions: 220000000 cycles: 301194835 heartbeat IPC: 0.113971 cumulative IPC: 0.113704 (Simulation time: 13 hr 46 min 51 sec) 
 Total Blocks : 262144 Invalid Blocks : 0
Heartbeat CPU 2 instructions: 220000000 cycles: 301310168 heartbeat IPC: 0.113819 cumulative IPC: 0.113477 (Simulation time: 13 hr 46 min 57 sec) 
 Total Blocks : 262144 Invalid Blocks : 0
Heartbeat CPU 7 instructions: 220000000 cycles: 301706260 heartbeat IPC: 0.114678 cumulative IPC: 0.114256 (Simulation time: 13 hr 47 min 15 sec) 
 Total Blocks : 262144 Invalid Blocks : 0
Heartbeat CPU 6 instructions: 220000000 cycles: 302191316 heartbeat IPC: 0.113463 cumulative IPC: 0.11343 (Simulation time: 13 hr 47 min 40 sec) 
 Total Blocks : 262144 Invalid Blocks : 0
Heartbeat CPU 5 instructions: 230000002 cycles: 387326248 heartbeat IPC: 0.115976 cumulative IPC: 0.114973 (Simulation time: 15 hr 4 min 33 sec) 
 Total Blocks : 262144 Invalid Blocks : 0
Heartbeat CPU 4 instructions: 230000002 cycles: 387330874 heartbeat IPC: 0.116046 cumulative IPC: 0.114851 (Simulation time: 15 hr 4 min 34 sec) 
 Total Blocks : 262144 Invalid Blocks : 0
Heartbeat CPU 0 instructions: 230000002 cycles: 387485708 heartbeat IPC: 0.114869 cumulative IPC: 0.11401 (Simulation time: 15 hr 4 min 42 sec) 
 Total Blocks : 262144 Invalid Blocks : 0
Heartbeat CPU 3 instructions: 230000002 cycles: 387992977 heartbeat IPC: 0.11521 cumulative IPC: 0.114204 (Simulation time: 15 hr 5 min 8 sec) 
 Total Blocks : 262144 Invalid Blocks : 0
Heartbeat CPU 1 instructions: 230000002 cycles: 388133577 heartbeat IPC: 0.114786 cumulative IPC: 0.113976 (Simulation time: 15 hr 5 min 16 sec) 
 Total Blocks : 262144 Invalid Blocks : 0
Heartbeat CPU 7 instructions: 230000002 cycles: 388228636 heartbeat IPC: 0.115577 cumulative IPC: 0.114693 (Simulation time: 15 hr 5 min 21 sec) 
 Total Blocks : 262144 Invalid Blocks : 0
Heartbeat CPU 2 instructions: 230000002 cycles: 388502868 heartbeat IPC: 0.114689 cumulative IPC: 0.11388 (Simulation time: 15 hr 5 min 35 sec) 
 Total Blocks : 262144 Invalid Blocks : 0
Heartbeat CPU 6 instructions: 230000002 cycles: 389305666 heartbeat IPC: 0.114792 cumulative IPC: 0.113882 (Simulation time: 15 hr 6 min 16 sec) 
 Total Blocks : 262144 Invalid Blocks : 0
Heartbeat CPU 5 instructions: 240000003 cycles: 474800871 heartbeat IPC: 0.114319 cumulative IPC: 0.114809 (Simulation time: 16 hr 30 min 19 sec) 
 Total Blocks : 262144 Invalid Blocks : 0
Heartbeat CPU 4 instructions: 240000003 cycles: 474862528 heartbeat IPC: 0.114244 cumulative IPC: 0.114698 (Simulation time: 16 hr 30 min 23 sec) 
 Total Blocks : 262144 Invalid Blocks : 0
Heartbeat CPU 0 instructions: 240000003 cycles: 475877635 heartbeat IPC: 0.113133 cumulative IPC: 0.113788 (Simulation time: 16 hr 31 min 26 sec) 
 Total Blocks : 262144 Invalid Blocks : 0
Heartbeat CPU 7 instructions: 240000003 cycles: 476081988 heartbeat IPC: 0.113826 cumulative IPC: 0.114475 (Simulation time: 16 hr 31 min 38 sec) 
 Total Blocks : 262144 Invalid Blocks : 0
Heartbeat CPU 1 instructions: 240000003 cycles: 476646152 heartbeat IPC: 0.112978 cumulative IPC: 0.113724 (Simulation time: 16 hr 32 min 9 sec) 
 Total Blocks : 262144 Invalid Blocks : 0
Heartbeat CPU 3 instructions: 240000003 cycles: 476721112 heartbeat IPC: 0.112704 cumulative IPC: 0.113824 (Simulation time: 16 hr 32 min 14 sec) 
 Total Blocks : 262144 Invalid Blocks : 0
Heartbeat CPU 2 instructions: 240000003 cycles: 477000473 heartbeat IPC: 0.112997 cumulative IPC: 0.113657 (Simulation time: 16 hr 32 min 29 sec) 
 Total Blocks : 262144 Invalid Blocks : 0
Heartbeat CPU 6 instructions: 240000003 cycles: 477808763 heartbeat IPC: 0.11299 cumulative IPC: 0.113657 (Simulation time: 16 hr 33 min 15 sec) 
 Total Blocks : 262144 Invalid Blocks : 0
Heartbeat CPU 5 instructions: 250000000 cycles: 562100334 heartbeat IPC: 0.114548 cumulative IPC: 0.114757 (Simulation time: 17 hr 57 min 41 sec) 
 Total Blocks : 262144 Invalid Blocks : 0
Heartbeat CPU 4 instructions: 250000000 cycles: 562249985 heartbeat IPC: 0.114433 cumulative IPC: 0.114645 (Simulation time: 17 hr 57 min 52 sec) 
 Total Blocks : 262144 Invalid Blocks : 0
Heartbeat CPU 7 instructions: 250000000 cycles: 563463548 heartbeat IPC: 0.114441 cumulative IPC: 0.114468 (Simulation time: 17 hr 59 min 13 sec) 
 Total Blocks : 262144 Invalid Blocks : 0
Heartbeat CPU 0 instructions: 250000000 cycles: 563744304 heartbeat IPC: 0.113809 cumulative IPC: 0.113792 (Simulation time: 17 hr 59 min 32 sec) 
 Total Blocks : 262144 Invalid Blocks : 0
Heartbeat CPU 1 instructions: 250000000 cycles: 564616903 heartbeat IPC: 0.113674 cumulative IPC: 0.113714 (Simulation time: 18 hr 0 min 31 sec) 
 Total Blocks : 262144 Invalid Blocks : 0
Heartbeat CPU 3 instructions: 250000000 cycles: 564727621 heartbeat IPC: 0.113628 cumulative IPC: 0.113784 (Simulation time: 18 hr 0 min 40 sec) 
 Total Blocks : 262144 Invalid Blocks : 0
Heartbeat CPU 2 instructions: 250000000 cycles: 564882327 heartbeat IPC: 0.113789 cumulative IPC: 0.113684 (Simulation time: 18 hr 0 min 52 sec) 
 Total Blocks : 262144 Invalid Blocks : 0
Heartbeat CPU 6 instructions: 250000000 cycles: 565822076 heartbeat IPC: 0.113619 cumulative IPC: 0.113649 (Simulation time: 18 hr 2 min 0 sec) 
 Total Blocks : 262144 Invalid Blocks : 0
Heartbeat CPU 4 instructions: 260000002 cycles: 649682775 heartbeat IPC: 0.114374 cumulative IPC: 0.1146 (Simulation time: 19 hr 30 min 59 sec) 
 Total Blocks : 262144 Invalid Blocks : 0
Heartbeat CPU 5 instructions: 260000002 cycles: 649720310 heartbeat IPC: 0.114129 cumulative IPC: 0.114652 (Simulation time: 19 hr 31 min 2 sec) 
 Total Blocks : 262144 Invalid Blocks : 0
Heartbeat CPU 7 instructions: 260000002 cycles: 651041172 heartbeat IPC: 0.114184 cumulative IPC: 0.114421 (Simulation time: 19 hr 32 min 30 sec) 
 Total Blocks : 262144 Invalid Blocks : 0
Heartbeat CPU 0 instructions: 260000002 cycles: 651896105 heartbeat IPC: 0.113441 cumulative IPC: 0.113733 (Simulation time: 19 hr 33 min 23 sec) 
 Total Blocks : 262144 Invalid Blocks : 0
Heartbeat CPU 2 instructions: 260000002 cycles: 652850169 heartbeat IPC: 0.113678 cumulative IPC: 0.113683 (Simulation time: 19 hr 34 min 21 sec) 
 Total Blocks : 262144 Invalid Blocks : 0
Heartbeat CPU 3 instructions: 260000002 cycles: 652901513 heartbeat IPC: 0.113412 cumulative IPC: 0.113722 (Simulation time: 19 hr 34 min 25 sec) 
 Total Blocks : 262144 Invalid Blocks : 0
Heartbeat CPU 1 instructions: 260000002 cycles: 652918876 heartbeat IPC: 0.113248 cumulative IPC: 0.113636 (Simulation time: 19 hr 34 min 26 sec) 
 Total Blocks : 262144 Invalid Blocks : 0
Heartbeat CPU 6 instructions: 260000002 cycles: 653960951 heartbeat IPC: 0.113457 cumulative IPC: 0.113617 (Simulation time: 19 hr 35 min 38 sec) 
 Total Blocks : 262144 Invalid Blocks : 0
Heartbeat CPU 5 instructions: 270000002 cycles: 736394748 heartbeat IPC: 0.115374 cumulative IPC: 0.114754 (Simulation time: 21 hr 1 min 31 sec) 
 Total Blocks : 262144 Invalid Blocks : 0
Heartbeat CPU 4 instructions: 270000002 cycles: 736453462 heartbeat IPC: 0.115246 cumulative IPC: 0.114692 (Simulation time: 21 hr 1 min 34 sec) 
 Total Blocks : 262144 Invalid Blocks : 0
Heartbeat CPU 7 instructions: 270000002 cycles: 737788549 heartbeat IPC: 0.115277 cumulative IPC: 0.114542 (Simulation time: 21 hr 3 min 6 sec) 
 Total Blocks : 262144 Invalid Blocks : 0
Heartbeat CPU 0 instructions: 270000002 cycles: 739061184 heartbeat IPC: 0.114725 cumulative IPC: 0.113874 (Simulation time: 21 hr 4 min 27 sec) 
 Total Blocks : 262144 Invalid Blocks : 0
Heartbeat CPU 1 instructions: 270000002 cycles: 740096124 heartbeat IPC: 0.114709 cumulative IPC: 0.113788 (Simulation time: 21 hr 5 min 33 sec) 
 Total Blocks : 262144 Invalid Blocks : 0
Heartbeat CPU 2 instructions: 270000002 cycles: 740139572 heartbeat IPC: 0.114561 cumulative IPC: 0.113808 (Simulation time: 21 hr 5 min 35 sec) 
 Total Blocks : 262144 Invalid Blocks : 0
Heartbeat CPU 3 instructions: 270000002 cycles: 740318503 heartbeat IPC: 0.114394 cumulative IPC: 0.113818 (Simulation time: 21 hr 5 min 46 sec) 
 Total Blocks : 262144 Invalid Blocks : 0
Heartbeat CPU 6 instructions: 270000002 cycles: 741171906 heartbeat IPC: 0.114664 cumulative IPC: 0.113766 (Simulation time: 21 hr 6 min 41 sec) 
 Total Blocks : 262144 Invalid Blocks : 0
Heartbeat CPU 4 instructions: 280000001 cycles: 822994193 heartbeat IPC: 0.115553 cumulative IPC: 0.114799 (Simulation time: 22 hr 33 min 25 sec) 
 Total Blocks : 262144 Invalid Blocks : 0
Heartbeat CPU 5 instructions: 280000001 cycles: 823040034 heartbeat IPC: 0.115413 cumulative IPC: 0.114836 (Simulation time: 22 hr 33 min 27 sec) 
 Total Blocks : 262144 Invalid Blocks : 0
Heartbeat CPU 7 instructions: 280000001 cycles: 824747778 heartbeat IPC: 0.114996 cumulative IPC: 0.114599 (Simulation time: 22 hr 35 min 14 sec) 
 Total Blocks : 262144 Invalid Blocks : 0
Heartbeat CPU 0 instructions: 280000001 cycles: 826648813 heartbeat IPC: 0.114171 cumulative IPC: 0.113911 (Simulation time: 22 hr 37 min 25 sec) 
 Total Blocks : 262144 Invalid Blocks : 0
Heartbeat CPU 1 instructions: 280000001 cycles: 827614057 heartbeat IPC: 0.114262 cumulative IPC: 0.113847 (Simulation time: 22 hr 38 min 27 sec) 
 Total Blocks : 262144 Invalid Blocks : 0
Heartbeat CPU 3 instructions: 280000001 cycles: 827746139 heartbeat IPC: 0.11438 cumulative IPC: 0.113888 (Simulation time: 22 hr 38 min 36 sec) 
 Total Blocks : 262144 Invalid Blocks : 0
Heartbeat CPU 2 instructions: 280000001 cycles: 827787478 heartbeat IPC: 0.114093 cumulative IPC: 0.113843 (Simulation time: 22 hr 38 min 37 sec) 
 Total Blocks : 262144 Invalid Blocks : 0
Heartbeat CPU 6 instructions: 280000001 cycles: 828903356 heartbeat IPC: 0.113984 cumulative IPC: 0.113793 (Simulation time: 22 hr 39 min 48 sec) 
 Total Blocks : 262144 Invalid Blocks : 0
Heartbeat CPU 5 instructions: 290000003 cycles: 909751948 heartbeat IPC: 0.115324 cumulative IPC: 0.11489 (Simulation time: 24 hr 6 min 33 sec) 
 Total Blocks : 262144 Invalid Blocks : 0
Heartbeat CPU 4 instructions: 290000003 cycles: 909819236 heartbeat IPC: 0.115174 cumulative IPC: 0.11484 (Simulation time: 24 hr 6 min 37 sec) 
 Total Blocks : 262144 Invalid Blocks : 0
Heartbeat CPU 7 instructions: 290000003 cycles: 911404440 heartbeat IPC: 0.115398 cumulative IPC: 0.114687 (Simulation time: 24 hr 8 min 34 sec) 
 Total Blocks : 262144 Invalid Blocks : 0
Heartbeat CPU 0 instructions: 290000003 cycles: 913839720 heartbeat IPC: 0.114691 cumulative IPC: 0.113998 (Simulation time: 24 hr 11 min 21 sec) 
 Total Blocks : 262144 Invalid Blocks : 0
Heartbeat CPU 2 instructions: 290000003 cycles: 914919100 heartbeat IPC: 0.114769 cumulative IPC: 0.113946 (Simulation time: 24 hr 12 min 35 sec) 
 Total Blocks : 262144 Invalid Blocks : 0
Heartbeat CPU 1 instructions: 290000003 cycles: 915201496 heartbeat IPC: 0.114172 cumulative IPC: 0.113883 (Simulation time: 24 hr 12 min 55 sec) 
 Total Blocks : 262144 Invalid Blocks : 0
Heartbeat CPU 3 instructions: 290000003 cycles: 915275172 heartbeat IPC: 0.114248 cumulative IPC: 0.113928 (Simulation time: 24 hr 12 min 59 sec) 
 Total Blocks : 262144 Invalid Blocks : 0
Heartbeat CPU 6 instructions: 290000003 cycles: 916086293 heartbeat IPC: 0.114701 cumulative IPC: 0.113893 (Simulation time: 24 hr 13 min 55 sec) 
 Total Blocks : 262144 Invalid Blocks : 0
Heartbeat CPU 4 instructions: 300000001 cycles: 996464203 heartbeat IPC: 0.115413 cumulative IPC: 0.114897 (Simulation time: 25 hr 42 min 46 sec) 
 Total Blocks : 262144 Invalid Blocks : 0
Heartbeat CPU 5 instructions: 300000001 cycles: 996710173 heartbeat IPC: 0.114998 cumulative IPC: 0.114901 (Simulation time: 25 hr 43 min 2 sec) 
 Total Blocks : 262144 Invalid Blocks : 0
Heartbeat CPU 7 instructions: 300000001 cycles: 998293941 heartbeat IPC: 0.115089 cumulative IPC: 0.114727 (Simulation time: 25 hr 44 min 44 sec) 
 Total Blocks : 262144 Invalid Blocks : 0
Heartbeat CPU 0 instructions: 300000001 cycles: 1000878836 heartbeat IPC: 0.114891 cumulative IPC: 0.114087 (Simulation time: 25 hr 47 min 33 sec) 
 Total Blocks : 262144 Invalid Blocks : 0
Heartbeat CPU 2 instructions: 300000001 cycles: 1002403899 heartbeat IPC: 0.114306 cumulative IPC: 0.113982 (Simulation time: 25 hr 49 min 14 sec) 
 Total Blocks : 262144 Invalid Blocks : 0
Heartbeat CPU 3 instructions: 300000001 cycles: 1002664952 heartbeat IPC: 0.11443 cumulative IPC: 0.113978 (Simulation time: 25 hr 49 min 31 sec) 
 Total Blocks : 262144 Invalid Blocks : 0
Heartbeat CPU 1 instructions: 300000001 cycles: 1002879578 heartbeat IPC: 0.114054 cumulative IPC: 0.1139 (Simulation time: 25 hr 49 min 44 sec) 
 Total Blocks : 262144 Invalid Blocks : 0
Heartbeat CPU 6 instructions: 300000001 cycles: 1003393477 heartbeat IPC: 0.114538 cumulative IPC: 0.113958 (Simulation time: 25 hr 50 min 14 sec) 
 Total Blocks : 262144 Invalid Blocks : 0
Heartbeat CPU 4 instructions: 310000003 cycles: 1084016526 heartbeat IPC: 0.114217 cumulative IPC: 0.114835 (Simulation time: 27 hr 20 min 15 sec) 
 Total Blocks : 262144 Invalid Blocks : 0
Heartbeat CPU 5 instructions: 310000003 cycles: 1084690207 heartbeat IPC: 0.113662 cumulative IPC: 0.114787 (Simulation time: 27 hr 20 min 56 sec) 
 Total Blocks : 262144 Invalid Blocks : 0
Heartbeat CPU 7 instructions: 310000003 cycles: 1085968240 heartbeat IPC: 0.114059 cumulative IPC: 0.114666 (Simulation time: 27 hr 22 min 16 sec) 
 Total Blocks : 262144 Invalid Blocks : 0
Heartbeat CPU 0 instructions: 310000003 cycles: 1089181476 heartbeat IPC: 0.113247 cumulative IPC: 0.11401 (Simulation time: 27 hr 25 min 50 sec) 
 Total Blocks : 262144 Invalid Blocks : 0
Heartbeat CPU 2 instructions: 310000003 cycles: 1090645955 heartbeat IPC: 0.113325 cumulative IPC: 0.113922 (Simulation time: 27 hr 27 min 30 sec) 
 Total Blocks : 262144 Invalid Blocks : 0
Heartbeat CPU 3 instructions: 310000003 cycles: 1091126105 heartbeat IPC: 0.113044 cumulative IPC: 0.113892 (Simulation time: 27 hr 28 min 1 sec) 
 Total Blocks : 262144 Invalid Blocks : 0
Heartbeat CPU 1 instructions: 310000003 cycles: 1091275582 heartbeat IPC: 0.113127 cumulative IPC: 0.113829 (Simulation time: 27 hr 28 min 10 sec) 
 Total Blocks : 262144 Invalid Blocks : 0
Heartbeat CPU 6 instructions: 310000003 cycles: 1091694791 heartbeat IPC: 0.113249 cumulative IPC: 0.113893 (Simulation time: 27 hr 28 min 39 sec) 
 Total Blocks : 262144 Invalid Blocks : 0
Heartbeat CPU 4 instructions: 320000001 cycles: 1171124735 heartbeat IPC: 0.1148 cumulative IPC: 0.114832 (Simulation time: 29 hr 14 min 52 sec) 
 Total Blocks : 262144 Invalid Blocks : 0
Heartbeat CPU 5 instructions: 320000001 cycles: 1171631800 heartbeat IPC: 0.11502 cumulative IPC: 0.114807 (Simulation time: 29 hr 15 min 26 sec) 
 Total Blocks : 262144 Invalid Blocks : 0
Heartbeat CPU 7 instructions: 320000001 cycles: 1172579354 heartbeat IPC: 0.115459 cumulative IPC: 0.114732 (Simulation time: 29 hr 16 min 32 sec) 
 Total Blocks : 262144 Invalid Blocks : 0
Heartbeat CPU 0 instructions: 320000001 cycles: 1176453569 heartbeat IPC: 0.114584 cumulative IPC: 0.114057 (Simulation time: 29 hr 21 min 5 sec) 
 Total Blocks : 262144 Invalid Blocks : 0
Heartbeat CPU 2 instructions: 320000001 cycles: 1178139178 heartbeat IPC: 0.114295 cumulative IPC: 0.113953 (Simulation time: 29 hr 23 min 5 sec) 
 Total Blocks : 262144 Invalid Blocks : 0
Heartbeat CPU 1 instructions: 320000001 cycles: 1178669135 heartbeat IPC: 0.114425 cumulative IPC: 0.113879 (Simulation time: 29 hr 23 min 42 sec) 
 Total Blocks : 262144 Invalid Blocks : 0
Heartbeat CPU 3 instructions: 320000001 cycles: 1178681816 heartbeat IPC: 0.114213 cumulative IPC: 0.113919 (Simulation time: 29 hr 23 min 43 sec) 
 Total Blocks : 262144 Invalid Blocks : 0
Heartbeat CPU 6 instructions: 320000001 cycles: 1179295739 heartbeat IPC: 0.114154 cumulative IPC: 0.113915 (Simulation time: 29 hr 24 min 25 sec) 
 Total Blocks : 262144 Invalid Blocks : 0
Heartbeat CPU 4 instructions: 330000000 cycles: 1258318802 heartbeat IPC: 0.114687 cumulative IPC: 0.114821 (Simulation time: 31 hr 38 min 16 sec) 
 Total Blocks : 262144 Invalid Blocks : 0
Heartbeat CPU 5 instructions: 330000000 cycles: 1258749296 heartbeat IPC: 0.114787 cumulative IPC: 0.114805 (Simulation time: 31 hr 39 min 8 sec) 
 Total Blocks : 262144 Invalid Blocks : 0
Heartbeat CPU 7 instructions: 330000000 cycles: 1259677552 heartbeat IPC: 0.114813 cumulative IPC: 0.114738 (Simulation time: 31 hr 40 min 53 sec) 
 Total Blocks : 262144 Invalid Blocks : 0
Heartbeat CPU 0 instructions: 330000000 cycles: 1264125844 heartbeat IPC: 0.114061 cumulative IPC: 0.114058 (Simulation time: 31 hr 49 min 33 sec) 
 Total Blocks : 262144 Invalid Blocks : 0
Heartbeat CPU 2 instructions: 330000000 cycles: 1265840314 heartbeat IPC: 0.114024 cumulative IPC: 0.113958 (Simulation time: 31 hr 53 min 17 sec) 
 Total Blocks : 262144 Invalid Blocks : 0
Heartbeat CPU 1 instructions: 330000000 cycles: 1266476155 heartbeat IPC: 0.113886 cumulative IPC: 0.113879 (Simulation time: 31 hr 54 min 33 sec) 
 Total Blocks : 262144 Invalid Blocks : 0
Heartbeat CPU 3 instructions: 330000000 cycles: 1266569883 heartbeat IPC: 0.113781 cumulative IPC: 0.113908 (Simulation time: 31 hr 54 min 45 sec) 
 Total Blocks : 262144 Invalid Blocks : 0
Heartbeat CPU 6 instructions: 330000000 cycles: 1266940280 heartbeat IPC: 0.114097 cumulative IPC: 0.113929 (Simulation time: 31 hr 55 min 27 sec) 
 Total Blocks : 262144 Invalid Blocks : 0
Heartbeat CPU 4 instructions: 340000001 cycles: 1345172454 heartbeat IPC: 0.115136 cumulative IPC: 0.114844 (Simulation time: 34 hr 33 min 17 sec) 
 Total Blocks : 262144 Invalid Blocks : 0
Heartbeat CPU 5 instructions: 340000001 cycles: 1345382022 heartbeat IPC: 0.11543 cumulative IPC: 0.11485 (Simulation time: 34 hr 33 min 41 sec) 
 Total Blocks : 262144 Invalid Blocks : 0
Heartbeat CPU 7 instructions: 340000001 cycles: 1346393722 heartbeat IPC: 0.115319 cumulative IPC: 0.114779 (Simulation time: 34 hr 35 min 41 sec) 
 Total Blocks : 262144 Invalid Blocks : 0
Heartbeat CPU 0 instructions: 340000001 cycles: 1351450703 heartbeat IPC: 0.114515 cumulative IPC: 0.11409 (Simulation time: 34 hr 45 min 44 sec) 
 Total Blocks : 262144 Invalid Blocks : 0
Heartbeat CPU 2 instructions: 340000001 cycles: 1353119635 heartbeat IPC: 0.114575 cumulative IPC: 0.114002 (Simulation time: 34 hr 49 min 22 sec) 
 Total Blocks : 262144 Invalid Blocks : 0
Heartbeat CPU 3 instructions: 340000001 cycles: 1354002182 heartbeat IPC: 0.114374 cumulative IPC: 0.113942 (Simulation time: 34 hr 51 min 3 sec) 
 Total Blocks : 262144 Invalid Blocks : 0
Heartbeat CPU 1 instructions: 340000001 cycles: 1354010877 heartbeat IPC: 0.11424 cumulative IPC: 0.113905 (Simulation time: 34 hr 51 min 4 sec) 
 Total Blocks : 262144 Invalid Blocks : 0
Heartbeat CPU 6 instructions: 340000001 cycles: 1354652522 heartbeat IPC: 0.114009 cumulative IPC: 0.113934 (Simulation time: 34 hr 52 min 8 sec) 
 Total Blocks : 262144 Invalid Blocks : 0
Heartbeat CPU 5 instructions: 350000001 cycles: 1432038202 heartbeat IPC: 0.115399 cumulative IPC: 0.114886 (Simulation time: 37 hr 21 min 23 sec) 
 Total Blocks : 262144 Invalid Blocks : 0
Heartbeat CPU 4 instructions: 350000001 cycles: 1432076117 heartbeat IPC: 0.11507 cumulative IPC: 0.114859 (Simulation time: 37 hr 21 min 25 sec) 
 Total Blocks : 262144 Invalid Blocks : 0
Heartbeat CPU 7 instructions: 350000001 cycles: 1433421386 heartbeat IPC: 0.114906 cumulative IPC: 0.114788 (Simulation time: 37 hr 23 min 37 sec) 
 Total Blocks : 262144 Invalid Blocks : 0
Heartbeat CPU 0 instructions: 350000001 cycles: 1438820471 heartbeat IPC: 0.114456 cumulative IPC: 0.114115 (Simulation time: 37 hr 33 min 11 sec) 
 Total Blocks : 262144 Invalid Blocks : 0
Heartbeat CPU 2 instructions: 350000001 cycles: 1440496670 heartbeat IPC: 0.114447 cumulative IPC: 0.114031 (Simulation time: 37 hr 36 min 17 sec) 
 Total Blocks : 262144 Invalid Blocks : 0
Heartbeat CPU 3 instructions: 350000001 cycles: 1441577748 heartbeat IPC: 0.114187 cumulative IPC: 0.113958 (Simulation time: 37 hr 38 min 9 sec) 
 Total Blocks : 262144 Invalid Blocks : 0
Heartbeat CPU 1 instructions: 350000001 cycles: 1441641026 heartbeat IPC: 0.114116 cumulative IPC: 0.113919 (Simulation time: 37 hr 38 min 15 sec) 
 Total Blocks : 262144 Invalid Blocks : 0
Heartbeat CPU 6 instructions: 350000001 cycles: 1441988827 heartbeat IPC: 0.1145 cumulative IPC: 0.113972 (Simulation time: 37 hr 38 min 52 sec) 
 Total Blocks : 262144 Invalid Blocks : 0
Heartbeat CPU 5 instructions: 360000003 cycles: 1519186598 heartbeat IPC: 0.114747 cumulative IPC: 0.114877 (Simulation time: 40 hr 10 min 47 sec) 
 Total Blocks : 262144 Invalid Blocks : 0
Heartbeat CPU 4 instructions: 360000003 cycles: 1519310299 heartbeat IPC: 0.114634 cumulative IPC: 0.114845 (Simulation time: 40 hr 11 min 0 sec) 
 Total Blocks : 262144 Invalid Blocks : 0
Heartbeat CPU 7 instructions: 360000003 cycles: 1520440404 heartbeat IPC: 0.114917 cumulative IPC: 0.114796 (Simulation time: 40 hr 13 min 1 sec) 
 Total Blocks : 262144 Invalid Blocks : 0
Heartbeat CPU 0 instructions: 360000003 cycles: 1526546313 heartbeat IPC: 0.113992 cumulative IPC: 0.114107 (Simulation time: 40 hr 24 min 48 sec) 
 Total Blocks : 262144 Invalid Blocks : 0
Heartbeat CPU 2 instructions: 360000003 cycles: 1527780796 heartbeat IPC: 0.114568 cumulative IPC: 0.114065 (Simulation time: 40 hr 27 min 2 sec) 
 Total Blocks : 262144 Invalid Blocks : 0
Heartbeat CPU 3 instructions: 360000003 cycles: 1529429891 heartbeat IPC: 0.113828 cumulative IPC: 0.11395 (Simulation time: 40 hr 30 min 5 sec) 
 Total Blocks : 262144 Invalid Blocks : 0
Heartbeat CPU 1 instructions: 360000003 cycles: 1529581656 heartbeat IPC: 0.113713 cumulative IPC: 0.113906 (Simulation time: 40 hr 30 min 23 sec) 
 Total Blocks : 262144 Invalid Blocks : 0
Heartbeat CPU 6 instructions: 360000003 cycles: 1529755344 heartbeat IPC: 0.113939 cumulative IPC: 0.11397 (Simulation time: 40 hr 30 min 44 sec) 
 Total Blocks : 262144 Invalid Blocks : 0
Heartbeat CPU 4 instructions: 370000001 cycles: 1606127019 heartbeat IPC: 0.115185 cumulative IPC: 0.114865 (Simulation time: 42 hr 44 min 34 sec) 
 Total Blocks : 262144 Invalid Blocks : 0
Heartbeat CPU 5 instructions: 370000001 cycles: 1606394417 heartbeat IPC: 0.114669 cumulative IPC: 0.114865 (Simulation time: 42 hr 45 min 4 sec) 
 Total Blocks : 262144 Invalid Blocks : 0
Heartbeat CPU 7 instructions: 370000001 cycles: 1607229099 heartbeat IPC: 0.115222 cumulative IPC: 0.114821 (Simulation time: 42 hr 46 min 31 sec) 
 Total Blocks : 262144 Invalid Blocks : 0
Heartbeat CPU 0 instructions: 370000001 cycles: 1613957320 heartbeat IPC: 0.114402 cumulative IPC: 0.114124 (Simulation time: 42 hr 58 min 9 sec) 
 Total Blocks : 262144 Invalid Blocks : 0
Heartbeat CPU 2 instructions: 370000001 cycles: 1615108355 heartbeat IPC: 0.114511 cumulative IPC: 0.114091 (Simulation time: 43 hr 0 min 15 sec) 
 Total Blocks : 262144 Invalid Blocks : 0
Heartbeat CPU 1 instructions: 370000001 cycles: 1616752193 heartbeat IPC: 0.114718 cumulative IPC: 0.113954 (Simulation time: 43 hr 3 min 5 sec) 
 Total Blocks : 262144 Invalid Blocks : 0
Heartbeat CPU 3 instructions: 370000001 cycles: 1616891942 heartbeat IPC: 0.114335 cumulative IPC: 0.113972 (Simulation time: 43 hr 3 min 17 sec) 
 Total Blocks : 262144 Invalid Blocks : 0
Heartbeat CPU 6 instructions: 370000001 cycles: 1617011856 heartbeat IPC: 0.114605 cumulative IPC: 0.114007 (Simulation time: 43 hr 3 min 30 sec) 
 Total Blocks : 262144 Invalid Blocks : 0
Heartbeat CPU 4 instructions: 380000001 cycles: 1694637443 heartbeat IPC: 0.112981 cumulative IPC: 0.114758 (Simulation time: 45 hr 13 min 22 sec) 
 Total Blocks : 262144 Invalid Blocks : 0
Heartbeat CPU 5 instructions: 380000001 cycles: 1695041660 heartbeat IPC: 0.112807 cumulative IPC: 0.114749 (Simulation time: 45 hr 14 min 2 sec) 
 Total Blocks : 262144 Invalid Blocks : 0
Heartbeat CPU 7 instructions: 380000001 cycles: 1695696218 heartbeat IPC: 0.113036 cumulative IPC: 0.11472 (Simulation time: 45 hr 15 min 4 sec) 
 Total Blocks : 262144 Invalid Blocks : 0
Heartbeat CPU 0 instructions: 380000001 cycles: 1702895041 heartbeat IPC: 0.112438 cumulative IPC: 0.114029 (Simulation time: 45 hr 26 min 27 sec) 
 Total Blocks : 262144 Invalid Blocks : 0
Heartbeat CPU 2 instructions: 380000001 cycles: 1704297712 heartbeat IPC: 0.112121 cumulative IPC: 0.11398 (Simulation time: 45 hr 28 min 48 sec) 
 Total Blocks : 262144 Invalid Blocks : 0
Heartbeat CPU 1 instructions: 380000001 cycles: 1705710770 heartbeat IPC: 0.112412 cumulative IPC: 0.113867 (Simulation time: 45 hr 31 min 12 sec) 
 Total Blocks : 262144 Invalid Blocks : 0
Heartbeat CPU 6 instructions: 380000001 cycles: 1705788529 heartbeat IPC: 0.112642 cumulative IPC: 0.11393 (Simulation time: 45 hr 31 min 18 sec) 
 Total Blocks : 262144 Invalid Blocks : 0
Heartbeat CPU 3 instructions: 380000001 cycles: 1706052566 heartbeat IPC: 0.112157 cumulative IPC: 0.11387 (Simulation time: 45 hr 31 min 48 sec) 
 Total Blocks : 262144 Invalid Blocks : 0
Heartbeat CPU 5 instructions: 390000000 cycles: 1781651580 heartbeat IPC: 0.11546 cumulative IPC: 0.114786 (Simulation time: 47 hr 34 min 32 sec) 
 Total Blocks : 262144 Invalid Blocks : 0
Heartbeat CPU 4 instructions: 390000000 cycles: 1781684981 heartbeat IPC: 0.11488 cumulative IPC: 0.114765 (Simulation time: 47 hr 34 min 36 sec) 
 Total Blocks : 262144 Invalid Blocks : 0
Heartbeat CPU 7 instructions: 390000000 cycles: 1782561858 heartbeat IPC: 0.11512 cumulative IPC: 0.114741 (Simulation time: 47 hr 35 min 56 sec) 
 Total Blocks : 262144 Invalid Blocks : 0
Heartbeat CPU 0 instructions: 390000000 cycles: 1790086343 heartbeat IPC: 0.11469 cumulative IPC: 0.114064 (Simulation time: 47 hr 48 min 11 sec) 
 Total Blocks : 262144 Invalid Blocks : 0
Heartbeat CPU 2 instructions: 390000000 cycles: 1791311433 heartbeat IPC: 0.114924 cumulative IPC: 0.114029 (Simulation time: 47 hr 50 min 5 sec) 
 Total Blocks : 262144 Invalid Blocks : 0
Heartbeat CPU 1 instructions: 390000000 cycles: 1793132559 heartbeat IPC: 0.114388 cumulative IPC: 0.113894 (Simulation time: 47 hr 52 min 53 sec) 
 Total Blocks : 262144 Invalid Blocks : 0
Heartbeat CPU 6 instructions: 390000000 cycles: 1793133874 heartbeat IPC: 0.114488 cumulative IPC: 0.113959 (Simulation time: 47 hr 52 min 53 sec) 
 Total Blocks : 262144 Invalid Blocks : 0
Heartbeat CPU 3 instructions: 390000000 cycles: 1793394989 heartbeat IPC: 0.114492 cumulative IPC: 0.113902 (Simulation time: 47 hr 53 min 18 sec) 
 Total Blocks : 262144 Invalid Blocks : 0
Heartbeat CPU 5 instructions: 400000002 cycles: 1868767962 heartbeat IPC: 0.114789 cumulative IPC: 0.114786 (Simulation time: 49 hr 51 min 6 sec) 
 Total Blocks : 262144 Invalid Blocks : 0
Finished CPU 5 instructions: 200000000 cycles: 1742372793 cumulative IPC: 0.114786 (Simulation time: 49 hr 51 min 28 sec) 
Heartbeat CPU 4 instructions: 400000000 cycles: 1869214513 heartbeat IPC: 0.114247 cumulative IPC: 0.114739 (Simulation time: 49 hr 51 min 43 sec) 
 Total Blocks : 262144 Invalid Blocks : 0
Finished CPU 4 instructions: 200000003 cycles: 1743114158 cumulative IPC: 0.114737 (Simulation time: 49 hr 52 min 31 sec) 
Heartbeat CPU 7 instructions: 400000002 cycles: 1869957917 heartbeat IPC: 0.114422 cumulative IPC: 0.114725 (Simulation time: 49 hr 52 min 51 sec) 
 Total Blocks : 262144 Invalid Blocks : 0
Finished CPU 7 instructions: 200000001 cycles: 1743296455 cumulative IPC: 0.114725 (Simulation time: 49 hr 52 min 51 sec) 
Heartbeat CPU 0 instructions: 400000000 cycles: 1877878974 heartbeat IPC: 0.113905 cumulative IPC: 0.114056 (Simulation time: 50 hr 4 min 21 sec) 
 Total Blocks : 262144 Invalid Blocks : 0
Heartbeat CPU 2 instructions: 400000000 cycles: 1879540747 heartbeat IPC: 0.113341 cumulative IPC: 0.113994 (Simulation time: 50 hr 6 min 16 sec) 
 Total Blocks : 262144 Invalid Blocks : 0
Finished CPU 0 instructions: 200000002 cycles: 1753646402 cumulative IPC: 0.114048 (Simulation time: 50 hr 7 min 9 sec) 
Heartbeat CPU 6 instructions: 400000002 cycles: 1880879137 heartbeat IPC: 0.113966 cumulative IPC: 0.11396 (Simulation time: 50 hr 7 min 57 sec) 
 Total Blocks : 262144 Invalid Blocks : 0
Finished CPU 2 instructions: 200000000 cycles: 1754537328 cumulative IPC: 0.11399 (Simulation time: 50 hr 8 min 20 sec) 
Heartbeat CPU 3 instructions: 400000002 cycles: 1881265303 heartbeat IPC: 0.113804 cumulative IPC: 0.113898 (Simulation time: 50 hr 8 min 25 sec) 
 Total Blocks : 262144 Invalid Blocks : 0
Heartbeat CPU 1 instructions: 400000000 cycles: 1881343392 heartbeat IPC: 0.113365 cumulative IPC: 0.113868 (Simulation time: 50 hr 8 min 29 sec) 
 Total Blocks : 262144 Invalid Blocks : 0
Finished CPU 6 instructions: 200000001 cycles: 1755036742 cumulative IPC: 0.113958 (Simulation time: 50 hr 8 min 57 sec) 
Finished CPU 3 instructions: 200000003 cycles: 1755983052 cumulative IPC: 0.113896 (Simulation time: 50 hr 10 min 36 sec) 
Finished CPU 1 instructions: 200000001 cycles: 1756477654 cumulative IPC: 0.113864 (Simulation time: 50 hr 11 min 31 sec) 

CPU 0 Branch Prediction Accuracy: 98.7698% MPKI: 1.83335 Average ROB Occupancy at Mispredict: 256.588

CPU 1 Branch Prediction Accuracy: 98.7693% MPKI: 1.83457 Average ROB Occupancy at Mispredict: 256.59

CPU 2 Branch Prediction Accuracy: 98.7695% MPKI: 1.83453 Average ROB Occupancy at Mispredict: 256.583

CPU 3 Branch Prediction Accuracy: 98.7692% MPKI: 1.83512 Average ROB Occupancy at Mispredict: 256.584

CPU 4 Branch Prediction Accuracy: 98.7708% MPKI: 1.83374 Average ROB Occupancy at Mispredict: 256.617

CPU 5 Branch Prediction Accuracy: 98.7707% MPKI: 1.83413 Average ROB Occupancy at Mispredict: 256.618

CPU 6 Branch Prediction Accuracy: 98.7692% MPKI: 1.83574 Average ROB Occupancy at Mispredict: 256.572

CPU 7 Branch Prediction Accuracy: 98.7704% MPKI: 1.83487 Average ROB Occupancy at Mispredict: 256.594

ChampSim completed all CPUs

Total Simulation Statistics (not including warmup)

CPU 0 cumulative IPC: 0.114043 instructions: 200313440 cycles: 1756477654
ITLB TOTAL     ACCESS: 30263566  HIT: 30263566  MISS:     0  HIT %:   100  MISS %:     0  AVERAGE MISS PENALTY: 0
ITLB LOAD      ACCESS: 30263566  HIT: 30263566  MISS:     0  HIT %:   100  MISS %:     0  AVERAGE MISS PENALTY: 0
ITLB RFO       ACCESS:     0  HIT:     0  MISS:     0  HIT %:     0  MISS %:     0  AVERAGE MISS PENALTY: 0
ITLB PREFETCH  ACCESS:     0  HIT:     0  MISS:     0  HIT %:     0  MISS %:     0  AVERAGE MISS PENALTY: 0
ITLB WRITEBACK ACCESS:     0  HIT:     0  MISS:     0  HIT %:     0  MISS %:     0  AVERAGE MISS PENALTY: 0

DTLB TOTAL     ACCESS: 55013054  HIT: 48460162  MISS: 6552892  HIT %: 88.0885  MISS %: 11.9115  AVERAGE MISS PENALTY: 10.8285
DTLB LOAD      ACCESS: 53943906  HIT: 47694453  MISS: 6249453  HIT %: 88.4149  MISS %: 11.5851  AVERAGE MISS PENALTY: 10.6334
DTLB RFO       ACCESS: 1069148  HIT: 765709  MISS: 303439  HIT %: 71.6186  MISS %: 28.3814  AVERAGE MISS PENALTY: 14.8461
DTLB PREFETCH  ACCESS:     0  HIT:     0  MISS:     0  HIT %:     0  MISS %:     0  AVERAGE MISS PENALTY: 0
DTLB WRITEBACK ACCESS:     0  HIT:     0  MISS:     0  HIT %:     0  MISS %:     0  AVERAGE MISS PENALTY: 0

STLB TOTAL     ACCESS: 6552892  HIT: 6457488  MISS: 95404  HIT %: 98.5441  MISS %: 1.45591  AVERAGE MISS PENALTY: 100
STLB LOAD      ACCESS: 6249453  HIT: 6171681  MISS: 77772  HIT %: 98.7555  MISS %: 1.24446  AVERAGE MISS PENALTY: 100
STLB RFO       ACCESS: 303439  HIT: 285807  MISS: 17632  HIT %: 94.1893  MISS %: 5.81072  AVERAGE MISS PENALTY: 100
STLB PREFETCH  ACCESS:     0  HIT:     0  MISS:     0  HIT %:     0  MISS %:     0  AVERAGE MISS PENALTY: 0
STLB WRITEBACK ACCESS:     0  HIT:     0  MISS:     0  HIT %:     0  MISS %:     0  AVERAGE MISS PENALTY: 0

L1D TOTAL     ACCESS: 83032148  HIT: 46728765  MISS: 36303383  HIT %: 56.2779  MISS %: 43.7221  AVERAGE MISS PENALTY: 2.31165e+06
L1D LOAD      ACCESS: 52370028  HIT: 42525961  MISS: 9844067  HIT %: 81.2029  MISS %: 18.7971  AVERAGE MISS PENALTY: 8.52388e+06
L1D RFO       ACCESS: 1071514  HIT: 746979  MISS: 324535  HIT %: 69.7125  MISS %: 30.2875  AVERAGE MISS PENALTY: 190.649
L1D PREFETCH  ACCESS: 29590606  HIT: 3455825  MISS: 26134781  HIT %: 11.6788  MISS %: 88.3212  AVERAGE MISS PENALTY: 419.684
L1D WRITEBACK ACCESS:     0  HIT:     0  MISS:     0  HIT %:     0  MISS %:     0  AVERAGE MISS PENALTY: 0

L1I TOTAL     ACCESS: 44197745  HIT: 44197745  MISS:     0  HIT %:   100  MISS %:     0  AVERAGE MISS PENALTY: 0
L1I LOAD      ACCESS: 44197745  HIT: 44197745  MISS:     0  HIT %:   100  MISS %:     0  AVERAGE MISS PENALTY: 0
L1I RFO       ACCESS:     0  HIT:     0  MISS:     0  HIT %:     0  MISS %:     0  AVERAGE MISS PENALTY: 0
L1I PREFETCH  ACCESS:     0  HIT:     0  MISS:     0  HIT %:     0  MISS %:     0  AVERAGE MISS PENALTY: 0
L1I WRITEBACK ACCESS:     0  HIT:     0  MISS:     0  HIT %:     0  MISS %:     0  AVERAGE MISS PENALTY: 0

L2C TOTAL     ACCESS: 58772772  HIT: 4440415  MISS: 54332357  HIT %: 7.55522  MISS %: 92.4448  AVERAGE MISS PENALTY: 1.90197e+06
L2C LOAD      ACCESS: 9839327  HIT: 118404  MISS: 9720923  HIT %: 1.20337  MISS %: 98.7966  AVERAGE MISS PENALTY: 1.06286e+07
L2C RFO       ACCESS: 324519  HIT: 230505  MISS: 94014  HIT %: 71.0297  MISS %: 28.9703  AVERAGE MISS PENALTY: 605.711
L2C PREFETCH  ACCESS: 47716750  HIT: 3612930  MISS: 44103820  HIT %: 7.57162  MISS %: 92.4284  AVERAGE MISS PENALTY: 424.854
L2C WRITEBACK ACCESS: 892176  HIT: 478576  MISS: 413600  HIT %: 53.6414  MISS %: 46.3586  AVERAGE MISS PENALTY: 0


LLC0 TOTAL     ACCESS: 7001431  HIT: 3551692  MISS: 3449739  HIT %: 50.7281  MISS %: 49.2719  AVERAGE MISS PENALTY: 774.469
LLC0 LOAD      ACCESS: 1256466  HIT: 675161  MISS: 581305  HIT %: 53.7349  MISS %: 46.2651  AVERAGE MISS PENALTY: 767.327
LLC0 RFO       ACCESS: 11817  HIT:  2802  MISS:  9015  HIT %: 23.7116  MISS %: 76.2884  AVERAGE MISS PENALTY: 767.937
LLC0 PREFETCH  ACCESS: 5642171  HIT: 2791292  MISS: 2850879  HIT %: 49.4719  MISS %: 50.5281  AVERAGE MISS PENALTY: 778.266
LLC0 WRITEBACK ACCESS: 90977  HIT: 82437  MISS:  8540  HIT %: 90.613  MISS %: 9.38699  AVERAGE MISS PENALTY: 0

LLC1 TOTAL     ACCESS: 6992809  HIT: 3525131  MISS: 3467678  HIT %: 50.4108  MISS %: 49.5892  AVERAGE MISS PENALTY: 798.261
LLC1 LOAD      ACCESS: 1170764  HIT: 623837  MISS: 546927  HIT %: 53.2846  MISS %: 46.7154  AVERAGE MISS PENALTY: 758.194
LLC1 RFO       ACCESS: 11888  HIT:  2886  MISS:  9002  HIT %: 24.2766  MISS %: 75.7234  AVERAGE MISS PENALTY: 754.428
LLC1 PREFETCH  ACCESS: 5723777  HIT: 2820165  MISS: 2903612  HIT %: 49.271  MISS %: 50.729  AVERAGE MISS PENALTY: 808.181
LLC1 WRITEBACK ACCESS: 86380  HIT: 78243  MISS:  8137  HIT %: 90.58  MISS %:  9.42  AVERAGE MISS PENALTY: 0

LLC2 TOTAL     ACCESS: 7006442  HIT: 3540531  MISS: 3465911  HIT %: 50.5325  MISS %: 49.4675  AVERAGE MISS PENALTY: 768.168
LLC2 LOAD      ACCESS: 1224823  HIT: 662958  MISS: 561865  HIT %: 54.1268  MISS %: 45.8732  AVERAGE MISS PENALTY: 767.24
LLC2 RFO       ACCESS: 11824  HIT:  2824  MISS:  9000  HIT %: 23.8836  MISS %: 76.1164  AVERAGE MISS PENALTY: 779.179
LLC2 PREFETCH  ACCESS: 5684494  HIT: 2797588  MISS: 2886906  HIT %: 49.2144  MISS %: 50.7856  AVERAGE MISS PENALTY: 770.48
LLC2 WRITEBACK ACCESS: 85301  HIT: 77161  MISS:  8140  HIT %: 90.4573  MISS %: 9.54268  AVERAGE MISS PENALTY: 0

LLC3 TOTAL     ACCESS: 6892543  HIT: 3478939  MISS: 3413604  HIT %: 50.474  MISS %: 49.526  AVERAGE MISS PENALTY: 757.295
LLC3 LOAD      ACCESS: 1153015  HIT: 610337  MISS: 542678  HIT %: 52.934  MISS %: 47.066  AVERAGE MISS PENALTY: 756.42
LLC3 RFO       ACCESS: 11863  HIT:  2882  MISS:  8981  HIT %: 24.294  MISS %: 75.706  AVERAGE MISS PENALTY: 770.122
LLC3 PREFETCH  ACCESS: 5644305  HIT: 2790248  MISS: 2854057  HIT %: 49.4347  MISS %: 50.5653  AVERAGE MISS PENALTY: 759.515
LLC3 WRITEBACK ACCESS: 83360  HIT: 75472  MISS:  7888  HIT %: 90.5374  MISS %: 9.46257  AVERAGE MISS PENALTY: 0

LLC4 TOTAL     ACCESS: 6852638  HIT: 3470650  MISS: 3381988  HIT %: 50.6469  MISS %: 49.3531  AVERAGE MISS PENALTY: 734.529
LLC4 LOAD      ACCESS: 1224843  HIT: 662273  MISS: 562570  HIT %: 54.07  MISS %: 45.93  AVERAGE MISS PENALTY: 726.643
LLC4 RFO       ACCESS: 11828  HIT:  2865  MISS:  8963  HIT %: 24.2222  MISS %: 75.7778  AVERAGE MISS PENALTY: 727.323
LLC4 PREFETCH  ACCESS: 5536359  HIT: 2733551  MISS: 2802808  HIT %: 49.3745  MISS %: 50.6255  AVERAGE MISS PENALTY: 738.138
LLC4 WRITEBACK ACCESS: 79608  HIT: 71961  MISS:  7647  HIT %: 90.3942  MISS %: 9.60582  AVERAGE MISS PENALTY: 0

LLC5 TOTAL     ACCESS: 6730435  HIT: 3398154  MISS: 3332281  HIT %: 50.4894  MISS %: 49.5106  AVERAGE MISS PENALTY: 723.753
LLC5 LOAD      ACCESS: 1231415  HIT: 673000  MISS: 558415  HIT %: 54.6526  MISS %: 45.3474  AVERAGE MISS PENALTY: 713.801
LLC5 RFO       ACCESS: 11680  HIT:  2806  MISS:  8874  HIT %: 24.024  MISS %: 75.976  AVERAGE MISS PENALTY: 716.135
LLC5 PREFETCH  ACCESS: 5408693  HIT: 2651218  MISS: 2757475  HIT %: 49.0177  MISS %: 50.9823  AVERAGE MISS PENALTY: 727.766
LLC5 WRITEBACK ACCESS: 78647  HIT: 71130  MISS:  7517  HIT %: 90.4421  MISS %: 9.5579  AVERAGE MISS PENALTY: 0

LLC6 TOTAL     ACCESS: 6609445  HIT: 3322568  MISS: 3286877  HIT %: 50.27  MISS %: 49.73  AVERAGE MISS PENALTY: 728.53
LLC6 LOAD      ACCESS: 1193893  HIT: 641062  MISS: 552831  HIT %: 53.6951  MISS %: 46.3049  AVERAGE MISS PENALTY: 719.321
LLC6 RFO       ACCESS: 11619  HIT:  2834  MISS:  8785  HIT %: 24.3911  MISS %: 75.6089  AVERAGE MISS PENALTY: 735.45
LLC6 PREFETCH  ACCESS: 5326017  HIT: 2608450  MISS: 2717567  HIT %: 48.9756  MISS %: 51.0244  AVERAGE MISS PENALTY: 732.444
LLC6 WRITEBACK ACCESS: 77916  HIT: 70222  MISS:  7694  HIT %: 90.1253  MISS %: 9.87474  AVERAGE MISS PENALTY: 0

LLC7 TOTAL     ACCESS: 6489233  HIT: 3254562  MISS: 3234671  HIT %: 50.1533  MISS %: 49.8467  AVERAGE MISS PENALTY: 722.736
LLC7 LOAD      ACCESS: 1188734  HIT: 639562  MISS: 549172  HIT %: 53.8019  MISS %: 46.1981  AVERAGE MISS PENALTY: 706.764
LLC7 RFO       ACCESS: 11491  HIT:  2698  MISS:  8793  HIT %: 23.4792  MISS %: 76.5208  AVERAGE MISS PENALTY: 725.981
LLC7 PREFETCH  ACCESS: 5214948  HIT: 2546003  MISS: 2668945  HIT %: 48.8213  MISS %: 51.1787  AVERAGE MISS PENALTY: 728.113
LLC7 WRITEBACK ACCESS: 74060  HIT: 66299  MISS:  7761  HIT %: 89.5207  MISS %: 10.4793  AVERAGE MISS PENALTY: 0

Total Rob stall cycles : 	1713128727
Total Load Rob Stall cycles : 	1591033580
Average Rob Stall cycles : 	 54
Average Load Rob Stall cycles : 	 365

CPU 1 cumulative IPC: 0.113864 instructions: 200000001 cycles: 1756477654
ITLB TOTAL     ACCESS: 30213560  HIT: 30213560  MISS:     0  HIT %:   100  MISS %:     0  AVERAGE MISS PENALTY: 0
ITLB LOAD      ACCESS: 30213560  HIT: 30213560  MISS:     0  HIT %:   100  MISS %:     0  AVERAGE MISS PENALTY: 0
ITLB RFO       ACCESS:     0  HIT:     0  MISS:     0  HIT %:     0  MISS %:     0  AVERAGE MISS PENALTY: 0
ITLB PREFETCH  ACCESS:     0  HIT:     0  MISS:     0  HIT %:     0  MISS %:     0  AVERAGE MISS PENALTY: 0
ITLB WRITEBACK ACCESS:     0  HIT:     0  MISS:     0  HIT %:     0  MISS %:     0  AVERAGE MISS PENALTY: 0

DTLB TOTAL     ACCESS: 54926184  HIT: 48388102  MISS: 6538082  HIT %: 88.0966  MISS %: 11.9034  AVERAGE MISS PENALTY: 10.8254
DTLB LOAD      ACCESS: 53858213  HIT: 47623297  MISS: 6234916  HIT %: 88.4235  MISS %: 11.5765  AVERAGE MISS PENALTY: 10.6305
DTLB RFO       ACCESS: 1067971  HIT: 764805  MISS: 303166  HIT %: 71.6129  MISS %: 28.3871  AVERAGE MISS PENALTY: 14.8342
DTLB PREFETCH  ACCESS:     0  HIT:     0  MISS:     0  HIT %:     0  MISS %:     0  AVERAGE MISS PENALTY: 0
DTLB WRITEBACK ACCESS:     0  HIT:     0  MISS:     0  HIT %:     0  MISS %:     0  AVERAGE MISS PENALTY: 0

STLB TOTAL     ACCESS: 6538082  HIT: 6443029  MISS: 95053  HIT %: 98.5462  MISS %: 1.45384  AVERAGE MISS PENALTY: 100
STLB LOAD      ACCESS: 6234916  HIT: 6157437  MISS: 77479  HIT %: 98.7573  MISS %: 1.24266  AVERAGE MISS PENALTY: 100
STLB RFO       ACCESS: 303166  HIT: 285592  MISS: 17574  HIT %: 94.2032  MISS %: 5.79682  AVERAGE MISS PENALTY: 100
STLB PREFETCH  ACCESS:     0  HIT:     0  MISS:     0  HIT %:     0  MISS %:     0  AVERAGE MISS PENALTY: 0
STLB WRITEBACK ACCESS:     0  HIT:     0  MISS:     0  HIT %:     0  MISS %:     0  AVERAGE MISS PENALTY: 0

L1D TOTAL     ACCESS: 82916628  HIT: 46660188  MISS: 36256440  HIT %: 56.2736  MISS %: 43.7264  AVERAGE MISS PENALTY: 2.34149e+06
L1D LOAD      ACCESS: 52291093  HIT: 42462944  MISS: 9828149  HIT %: 81.2049  MISS %: 18.7951  AVERAGE MISS PENALTY: 8.63678e+06
L1D RFO       ACCESS: 1069996  HIT: 745773  MISS: 324223  HIT %: 69.6987  MISS %: 30.3013  AVERAGE MISS PENALTY: 180.664
L1D PREFETCH  ACCESS: 29555539  HIT: 3451471  MISS: 26104068  HIT %: 11.6779  MISS %: 88.3221  AVERAGE MISS PENALTY: 400.73
L1D WRITEBACK ACCESS:     0  HIT:     0  MISS:     0  HIT %:     0  MISS %:     0  AVERAGE MISS PENALTY: 0

L1I TOTAL     ACCESS: 44123406  HIT: 44123406  MISS:     0  HIT %:   100  MISS %:     0  AVERAGE MISS PENALTY: 0
L1I LOAD      ACCESS: 44123406  HIT: 44123406  MISS:     0  HIT %:   100  MISS %:     0  AVERAGE MISS PENALTY: 0
L1I RFO       ACCESS:     0  HIT:     0  MISS:     0  HIT %:     0  MISS %:     0  AVERAGE MISS PENALTY: 0
L1I PREFETCH  ACCESS:     0  HIT:     0  MISS:     0  HIT %:     0  MISS %:     0  AVERAGE MISS PENALTY: 0
L1I WRITEBACK ACCESS:     0  HIT:     0  MISS:     0  HIT %:     0  MISS %:     0  AVERAGE MISS PENALTY: 0

L2C TOTAL     ACCESS: 58698318  HIT: 4429448  MISS: 54268870  HIT %: 7.54612  MISS %: 92.4539  AVERAGE MISS PENALTY: 1.90278e+06
L2C LOAD      ACCESS: 9823357  HIT: 106846  MISS: 9716511  HIT %: 1.08767  MISS %: 98.9123  AVERAGE MISS PENALTY: 1.06255e+07
L2C RFO       ACCESS: 324213  HIT: 231442  MISS: 92771  HIT %: 71.3858  MISS %: 28.6142  AVERAGE MISS PENALTY: 578.324
L2C PREFETCH  ACCESS: 47659468  HIT: 3611272  MISS: 44048196  HIT %: 7.57724  MISS %: 92.4228  AVERAGE MISS PENALTY: 422.524
L2C WRITEBACK ACCESS: 891280  HIT: 479888  MISS: 411392  HIT %: 53.8426  MISS %: 46.1574  AVERAGE MISS PENALTY: 0


LLC0 TOTAL     ACCESS: 6991418  HIT: 3545280  MISS: 3446138  HIT %: 50.709  MISS %: 49.291  AVERAGE MISS PENALTY: 775.369
LLC0 LOAD      ACCESS: 1254241  HIT: 673601  MISS: 580640  HIT %: 53.7059  MISS %: 46.2941  AVERAGE MISS PENALTY: 767.953
LLC0 RFO       ACCESS: 11548  HIT:  3032  MISS:  8516  HIT %: 26.2556  MISS %: 73.7444  AVERAGE MISS PENALTY: 756.453
LLC0 PREFETCH  ACCESS: 5634842  HIT: 2786704  MISS: 2848138  HIT %: 49.4549  MISS %: 50.5451  AVERAGE MISS PENALTY: 779.344
LLC0 WRITEBACK ACCESS: 90787  HIT: 81943  MISS:  8844  HIT %: 90.2585  MISS %: 9.74148  AVERAGE MISS PENALTY: 0

LLC1 TOTAL     ACCESS: 6983983  HIT: 3520093  MISS: 3463890  HIT %: 50.4024  MISS %: 49.5976  AVERAGE MISS PENALTY: 762.666
LLC1 LOAD      ACCESS: 1169161  HIT: 622290  MISS: 546871  HIT %: 53.2253  MISS %: 46.7747  AVERAGE MISS PENALTY: 757.625
LLC1 RFO       ACCESS: 11683  HIT:  3145  MISS:  8538  HIT %: 26.9195  MISS %: 73.0805  AVERAGE MISS PENALTY: 757.575
LLC1 PREFETCH  ACCESS: 5716957  HIT: 2816853  MISS: 2900104  HIT %: 49.2719  MISS %: 50.7281  AVERAGE MISS PENALTY: 765.835
LLC1 WRITEBACK ACCESS: 86182  HIT: 77805  MISS:  8377  HIT %: 90.2799  MISS %: 9.72013  AVERAGE MISS PENALTY: 0

LLC2 TOTAL     ACCESS: 6997462  HIT: 3533696  MISS: 3463766  HIT %: 50.4997  MISS %: 49.5003  AVERAGE MISS PENALTY: 768.672
LLC2 LOAD      ACCESS: 1222835  HIT: 662009  MISS: 560826  HIT %: 54.1372  MISS %: 45.8628  AVERAGE MISS PENALTY: 768.336
LLC2 RFO       ACCESS: 11639  HIT:  3148  MISS:  8491  HIT %: 27.047  MISS %: 72.953  AVERAGE MISS PENALTY: 767.073
LLC2 PREFETCH  ACCESS: 5677883  HIT: 2791702  MISS: 2886181  HIT %: 49.168  MISS %: 50.832  AVERAGE MISS PENALTY: 770.944
LLC2 WRITEBACK ACCESS: 85105  HIT: 76837  MISS:  8268  HIT %: 90.2849  MISS %: 9.71506  AVERAGE MISS PENALTY: 0

LLC3 TOTAL     ACCESS: 6882557  HIT: 3473108  MISS: 3409449  HIT %: 50.4625  MISS %: 49.5375  AVERAGE MISS PENALTY: 758.218
LLC3 LOAD      ACCESS: 1151216  HIT: 609744  MISS: 541472  HIT %: 52.9652  MISS %: 47.0348  AVERAGE MISS PENALTY: 757.452
LLC3 RFO       ACCESS: 11685  HIT:  3140  MISS:  8545  HIT %: 26.8721  MISS %: 73.1279  AVERAGE MISS PENALTY: 760.889
LLC3 PREFETCH  ACCESS: 5636412  HIT: 2785064  MISS: 2851348  HIT %: 49.412  MISS %: 50.588  AVERAGE MISS PENALTY: 760.506
[...]
LLC2 LOAD      ACCESS: 1223055  HIT: 662847  MISS: 560208  HIT %: 54.196  MISS %: 45.804  AVERAGE MISS PENALTY: 768.027
LLC2 RFO       ACCESS: 11618  HIT:  2769  MISS:  8849  HIT %: 23.8337  MISS %: 76.1663  AVERAGE MISS PENALTY: 775.353
LLC2 PREFETCH  ACCESS: 5676592  HIT: 2792476  MISS: 2884116  HIT %: 49.1928  MISS %: 50.8072  AVERAGE MISS PENALTY: 770.447
LLC2 WRITEBACK ACCESS: 85052  HIT: 76801  MISS:  8251  HIT %: 90.2989  MISS %: 9.70112  AVERAGE MISS PENALTY: 0
LLC2 PREFETCH  REQUESTED:     0  ISSUED:     0  USEFUL: 2112432  USELESS: 21016732
 USEFUL LOAD PREFETCHES:    2112432 PREFETCH ISSUED TO LOWER LEVEL:  493587268  ACCURACY: 0.427975
 TIMELY PREFETCHES:    2112432 LATE PREFETCHES: 0 DROPPED PREFETCHES: 0
LLC2 AVERAGE MISS LATENCY: 768.231 cycles
LLC3 TOTAL     ACCESS: 6880631  HIT: 3471248  MISS: 3409383  HIT %: 50.4496  MISS %: 49.5504  AVERAGE MISS PENALTY: 757.369
LLC3 LOAD      ACCESS: 1151634  HIT: 609784  MISS: 541850  HIT %: 52.9495  MISS %: 47.0505  AVERAGE MISS PENALTY: 755.633
LLC3 RFO       ACCESS: 11616  HIT:  2777  MISS:  8839  HIT %: 23.9067  MISS %: 76.0933  AVERAGE MISS PENALTY: 782.668
LLC3 PREFETCH  ACCESS: 5634314  HIT: 2783706  MISS: 2850608  HIT %: 49.4063  MISS %: 50.5937  AVERAGE MISS PENALTY: 759.769
LLC3 WRITEBACK ACCESS: 83067  HIT: 74981  MISS:  8086  HIT %: 90.2657  MISS %: 9.73431  AVERAGE MISS PENALTY: 0
LLC3 PREFETCH  REQUESTED:     0  ISSUED:     0  USEFUL: 2084381  USELESS: 20769213
 USEFUL LOAD PREFETCHES:    2084381 PREFETCH ISSUED TO LOWER LEVEL:  425420453  ACCURACY: 0.489958
 TIMELY PREFETCHES:    2084381 LATE PREFETCHES: 0 DROPPED PREFETCHES: 0
LLC3 AVERAGE MISS LATENCY: 757.369 cycles
LLC4 TOTAL     ACCESS: 6842340  HIT: 3461603  MISS: 3380737  HIT %: 50.5909  MISS %: 49.4091  AVERAGE MISS PENALTY: 734.598
LLC4 LOAD      ACCESS: 1222866  HIT: 660685  MISS: 562181  HIT %: 54.0276  MISS %: 45.9724  AVERAGE MISS PENALTY: 725.83
LLC4 RFO       ACCESS: 11680  HIT:  2807  MISS:  8873  HIT %: 24.0325  MISS %: 75.9675  AVERAGE MISS PENALTY: 723.856
LLC4 PREFETCH  ACCESS: 5528484  HIT: 2726667  MISS: 2801817  HIT %: 49.3203  MISS %: 50.6797  AVERAGE MISS PENALTY: 738.454
LLC4 WRITEBACK ACCESS: 79310  HIT: 71444  MISS:  7866  HIT %: 90.082  MISS %: 9.91804  AVERAGE MISS PENALTY: 0
LLC4 PREFETCH  REQUESTED:     0  ISSUED:     0  USEFUL: 2129842  USELESS: 20336751
 USEFUL LOAD PREFETCHES:    2129842 PREFETCH ISSUED TO LOWER LEVEL:  731759530  ACCURACY: 0.291058
 TIMELY PREFETCHES:    2129842 LATE PREFETCHES: 0 DROPPED PREFETCHES: 0
LLC4 AVERAGE MISS LATENCY: 734.598 cycles
LLC5 TOTAL     ACCESS: 6731858  HIT: 3399939  MISS: 3331919  HIT %: 50.5052  MISS %: 49.4948  AVERAGE MISS PENALTY: 723.668
LLC5 LOAD      ACCESS: 1240288  HIT: 681749  MISS: 558539  HIT %: 54.967  MISS %: 45.033  AVERAGE MISS PENALTY: 714.131
LLC5 RFO       ACCESS: 11527  HIT:  2765  MISS:  8762  HIT %: 23.9872  MISS %: 76.0128  AVERAGE MISS PENALTY: 708.994
LLC5 PREFETCH  ACCESS: 5401563  HIT: 2644827  MISS: 2756736  HIT %: 48.9641  MISS %: 51.0359  AVERAGE MISS PENALTY: 727.716
LLC5 WRITEBACK ACCESS: 78480  HIT: 70598  MISS:  7882  HIT %: 89.9567  MISS %: 10.0433  AVERAGE MISS PENALTY: 0
LLC5 PREFETCH  REQUESTED:     0  ISSUED:     0  USEFUL: 2075230  USELESS: 20017373
 USEFUL LOAD PREFETCHES:    2075230 PREFETCH ISSUED TO LOWER LEVEL:  623959044  ACCURACY: 0.332591
 TIMELY PREFETCHES:    2075230 LATE PREFETCHES: 0 DROPPED PREFETCHES: 0
LLC5 AVERAGE MISS LATENCY: 723.668 cycles
LLC6 TOTAL     ACCESS: 6602009  HIT: 3316713  MISS: 3285296  HIT %: 50.2379  MISS %: 49.7621  AVERAGE MISS PENALTY: 728.942
LLC6 LOAD      ACCESS: 1191997  HIT: 639684  MISS: 552313  HIT %: 53.6649  MISS %: 46.3351  AVERAGE MISS PENALTY: 720.265
LLC6 RFO       ACCESS: 11554  HIT:  2889  MISS:  8665  HIT %: 25.0043  MISS %: 74.9957  AVERAGE MISS PENALTY: 730.235
LLC6 PREFETCH  ACCESS: 5320716  HIT: 2604422  MISS: 2716294  HIT %: 48.9487  MISS %: 51.0513  AVERAGE MISS PENALTY: 732.856
LLC6 WRITEBACK ACCESS: 77742  HIT: 69718  MISS:  8024  HIT %: 89.6787  MISS %: 10.3213  AVERAGE MISS PENALTY: 0
LLC6 PREFETCH  REQUESTED:     0  ISSUED:     0  USEFUL: 2035573  USELESS: 19735257
 USEFUL LOAD PREFETCHES:    2035573 PREFETCH ISSUED TO LOWER LEVEL: 1048990718  ACCURACY: 0.194051
 TIMELY PREFETCHES:    2035573 LATE PREFETCHES: 0 DROPPED PREFETCHES: 0
LLC6 AVERAGE MISS LATENCY: 728.942 cycles
LLC7 TOTAL     ACCESS: 6480963  HIT: 3251155  MISS: 3229808  HIT %: 50.1647  MISS %: 49.8353  AVERAGE MISS PENALTY: 722.33
LLC7 LOAD      ACCESS: 1188005  HIT: 638216  MISS: 549789  HIT %: 53.7217  MISS %: 46.2783  AVERAGE MISS PENALTY: 705.608
LLC7 RFO       ACCESS: 11379  HIT:  2654  MISS:  8725  HIT %: 23.3237  MISS %: 76.6763  AVERAGE MISS PENALTY: 724.053
LLC7 PREFETCH  ACCESS: 5207631  HIT: 2544362  MISS: 2663269  HIT %: 48.8583  MISS %: 51.1417  AVERAGE MISS PENALTY: 727.953
LLC7 WRITEBACK ACCESS: 73948  HIT: 65923  MISS:  8025  HIT %: 89.1478  MISS %: 10.8522  AVERAGE MISS PENALTY: 0
LLC7 PREFETCH  REQUESTED:     0  ISSUED:     0  USEFUL: 1981561  USELESS: 19382508
 USEFUL LOAD PREFETCHES:    1981561 PREFETCH ISSUED TO LOWER LEVEL:  891090768  ACCURACY: 0.222375
 TIMELY PREFETCHES:    1981561 LATE PREFETCHES: 0 DROPPED PREFETCHES: 0
LLC7 AVERAGE MISS LATENCY: 722.33 cycles
ROI Average ROB Stall Cycles:	54.2494
ROI Total ROB Stalls Cycles:	1711741196
ROI TOTAL ROB counter      :	31553190
ROI Average Load ROB Stall Cycles:	365.628
ROI Total Load ROB Stalls Cycle  :	1589331355
ROI Total Load ROB stalls Counter:	4346852
Major fault: 0 Minor fault: 58263

CPU 7 cumulative IPC: 0.114725 instructions: 200000001 cycles: 1743296455
ITLB TOTAL     ACCESS: 30219955  HIT: 30219955  MISS:     0  HIT %:   100  MISS %:     0  AVERAGE MISS PENALTY: 0
ITLB LOAD      ACCESS: 30219955  HIT: 30219955  MISS:     0  HIT %:   100  MISS %:     0  AVERAGE MISS PENALTY: 0
ITLB RFO       ACCESS:     0  HIT:     0  MISS:     0  HIT %:     0  MISS %:     0  AVERAGE MISS PENALTY: 0
ITLB PREFETCH  ACCESS:     0  HIT:     0  MISS:     0  HIT %:     0  MISS %:     0  AVERAGE MISS PENALTY: 0
ITLB WRITEBACK ACCESS:     0  HIT:     0  MISS:     0  HIT %:     0  MISS %:     0  AVERAGE MISS PENALTY: 0
ITLB PREFETCH  REQUESTED:     0  ISSUED:     0  USEFUL:     0  USELESS:     0
 USEFUL LOAD PREFETCHES:          0 PREFETCH ISSUED TO LOWER LEVEL:          0  ACCURACY: -nan
 TIMELY PREFETCHES:          0 LATE PREFETCHES: 0 DROPPED PREFETCHES: 0
ITLB AVERAGE MISS LATENCY: -nan cycles
DTLB TOTAL     ACCESS: 54938000  HIT: 48401052  MISS: 6536948  HIT %: 88.1012  MISS %: 11.8988  AVERAGE MISS PENALTY: 11.0349
DTLB LOAD      ACCESS: 53869345  HIT: 47635808  MISS: 6233537  HIT %: 88.4284  MISS %: 11.5716  AVERAGE MISS PENALTY: 10.8504
DTLB RFO       ACCESS: 1068655  HIT: 765244  MISS: 303411  HIT %: 71.6081  MISS %: 28.3919  AVERAGE MISS PENALTY: 14.8246
DTLB PREFETCH  ACCESS:     0  HIT:     0  MISS:     0  HIT %:     0  MISS %:     0  AVERAGE MISS PENALTY: 0
DTLB WRITEBACK ACCESS:     0  HIT:     0  MISS:     0  HIT %:     0  MISS %:     0  AVERAGE MISS PENALTY: 0
DTLB PREFETCH  REQUESTED:     0  ISSUED:     0  USEFUL:     0  USELESS:     0
 USEFUL LOAD PREFETCHES:          0 PREFETCH ISSUED TO LOWER LEVEL:          0  ACCURACY: -nan
 TIMELY PREFETCHES:          0 LATE PREFETCHES: 0 DROPPED PREFETCHES: 0
DTLB AVERAGE MISS LATENCY: 11.0349 cycles
STLB TOTAL     ACCESS: 6536948  HIT: 6442037  MISS: 94911  HIT %: 98.5481  MISS %: 1.45192  AVERAGE MISS PENALTY: 100
STLB LOAD      ACCESS: 6233537  HIT: 6156172  MISS: 77365  HIT %: 98.7589  MISS %: 1.24111  AVERAGE MISS PENALTY: 100
STLB RFO       ACCESS: 303411  HIT: 285865  MISS: 17546  HIT %: 94.2171  MISS %: 5.78291  AVERAGE MISS PENALTY: 100
STLB PREFETCH  ACCESS:     0  HIT:     0  MISS:     0  HIT %:     0  MISS %:     0  AVERAGE MISS PENALTY: 0
STLB WRITEBACK ACCESS:     0  HIT:     0  MISS:     0  HIT %:     0  MISS %:     0  AVERAGE MISS PENALTY: 0
STLB PREFETCH  REQUESTED:     0  ISSUED:     0  USEFUL:     0  USELESS:     0
 USEFUL LOAD PREFETCHES:          0 PREFETCH ISSUED TO LOWER LEVEL:          0  ACCURACY: -nan
 TIMELY PREFETCHES:          0 LATE PREFETCHES: 0 DROPPED PREFETCHES: 0
STLB AVERAGE MISS LATENCY: 100 cycles
L1D TOTAL     ACCESS: 82858384  HIT: 46654531  MISS: 36203853  HIT %: 56.3063  MISS %: 43.6937  AVERAGE MISS PENALTY: 2.3073e+06
L1D LOAD      ACCESS: 52290232  HIT: 42461988  MISS: 9828244  HIT %: 81.2044  MISS %: 18.7956  AVERAGE MISS PENALTY: 8.49789e+06
L1D RFO       ACCESS: 1070462  HIT: 746073  MISS: 324389  HIT %: 69.6964  MISS %: 30.3036  AVERAGE MISS PENALTY: 5337.04
L1D PREFETCH  ACCESS: 29497690  HIT: 3446470  MISS: 26051220  HIT %: 11.6839  MISS %: 88.3161  AVERAGE MISS PENALTY: 468.001
L1D WRITEBACK ACCESS:     0  HIT:     0  MISS:     0  HIT %:     0  MISS %:     0  AVERAGE MISS PENALTY: 0
L1D PREFETCH  REQUESTED: 40743182  ISSUED: 30303710  USEFUL: 1229027  USELESS: 24822226
 USEFUL LOAD PREFETCHES:    1229027 PREFETCH ISSUED TO LOWER LEVEL:  436612204  ACCURACY: 0.281492
 TIMELY PREFETCHES:    1229027 LATE PREFETCHES: 258683 DROPPED PREFETCHES: 10439472
L1D AVERAGE MISS LATENCY: 437.66 cycles
L1I TOTAL     ACCESS: 44128901  HIT: 44128901  MISS:     0  HIT %:   100  MISS %:     0  AVERAGE MISS PENALTY: 0
L1I LOAD      ACCESS: 44128901  HIT: 44128901  MISS:     0  HIT %:   100  MISS %:     0  AVERAGE MISS PENALTY: 0
L1I RFO       ACCESS:     0  HIT:     0  MISS:     0  HIT %:     0  MISS %:     0  AVERAGE MISS PENALTY: 0
L1I PREFETCH  ACCESS:     0  HIT:     0  MISS:     0  HIT %:     0  MISS %:     0  AVERAGE MISS PENALTY: 0
L1I WRITEBACK ACCESS:     0  HIT:     0  MISS:     0  HIT %:     0  MISS %:     0  AVERAGE MISS PENALTY: 0
L1I PREFETCH  REQUESTED:     0  ISSUED:     0  USEFUL:     0  USELESS:     0
 USEFUL LOAD PREFETCHES:          0 PREFETCH ISSUED TO LOWER LEVEL:          0  ACCURACY: -nan
 TIMELY PREFETCHES:          0 LATE PREFETCHES: 0 DROPPED PREFETCHES: 0
L1I AVERAGE MISS LATENCY: -nan cycles
L2C TOTAL     ACCESS: 58631369  HIT: 4571965  MISS: 54059404  HIT %: 7.79781  MISS %: 92.2022  AVERAGE MISS PENALTY: 1.89894e+06
L2C LOAD      ACCESS: 9823448  HIT: 184785  MISS: 9638663  HIT %: 1.88106  MISS %: 98.1189  AVERAGE MISS PENALTY: 1.06484e+07
L2C RFO       ACCESS: 324372  HIT: 231542  MISS: 92830  HIT %: 71.3816  MISS %: 28.6184  AVERAGE MISS PENALTY: 582.392
L2C PREFETCH  ACCESS: 47591983  HIT: 3622950  MISS: 43969033  HIT %: 7.61252  MISS %: 92.3875  AVERAGE MISS PENALTY: 430.406
L2C WRITEBACK ACCESS: 891566  HIT: 532688  MISS: 358878  HIT %: 59.7475  MISS %: 40.2525  AVERAGE MISS PENALTY: 0
L2C PREFETCH  REQUESTED: 59976123  ISSUED: 59334908  USEFUL: 51361  USELESS: 43918225
 USEFUL LOAD PREFETCHES:      51361 PREFETCH ISSUED TO LOWER LEVEL:   56270235  ACCURACY: 0.0912756
 TIMELY PREFETCHES:      51361 LATE PREFETCHES: 510409 DROPPED PREFETCHES: 641215
L2C AVERAGE MISS LATENCY: 411.951 cycles
LLC0 TOTAL     ACCESS: 6960564  HIT: 3527658  MISS: 3432906  HIT %: 50.6806  MISS %: 49.3194  AVERAGE MISS PENALTY: 774.501
LLC0 LOAD      ACCESS: 1243211  HIT: 666552  MISS: 576659  HIT %: 53.6154  MISS %: 46.3846  AVERAGE MISS PENALTY: 768.605
LLC0 RFO       ACCESS: 11574  HIT:  2969  MISS:  8605  HIT %: 25.6523  MISS %: 74.3477  AVERAGE MISS PENALTY: 758.281
LLC0 PREFETCH  ACCESS: 5626020  HIT: 2787088  MISS: 2838932  HIT %: 49.5392  MISS %: 50.4608  AVERAGE MISS PENALTY: 778.124
LLC0 WRITEBACK ACCESS: 79759  HIT: 71049  MISS:  8710  HIT %: 89.0796  MISS %: 10.9204  AVERAGE MISS PENALTY: 0
LLC0 PREFETCH  REQUESTED:     0  ISSUED:     0  USEFUL: 2133842  USELESS: 20693818
 USEFUL LOAD PREFETCHES:    2133842 PREFETCH ISSUED TO LOWER LEVEL:  319761125  ACCURACY: 0.667324
 TIMELY PREFETCHES:    2133842 LATE PREFETCHES: 0 DROPPED PREFETCHES: 0
LLC0 AVERAGE MISS LATENCY: 774.501 cycles
Deadblocks : 4101788 Deadblock percentage : 711.302

LLC1 TOTAL     ACCESS: 6953034  HIT: 3501705  MISS: 3451329  HIT %: 50.3623  MISS %: 49.6377  AVERAGE MISS PENALTY: 762.15
LLC1 LOAD      ACCESS: 1158962  HIT: 616112  MISS: 542850  HIT %: 53.1607  MISS %: 46.8393  AVERAGE MISS PENALTY: 757.254
LLC1 RFO       ACCESS: 11655  HIT:  3013  MISS:  8642  HIT %: 25.8516  MISS %: 74.1484  AVERAGE MISS PENALTY: 739.681
LLC1 PREFETCH  ACCESS: 5705810  HIT: 2814317  MISS: 2891493  HIT %: 49.3237  MISS %: 50.6763  AVERAGE MISS PENALTY: 765.336
LLC1 WRITEBACK ACCESS: 76607  HIT: 68263  MISS:  8344  HIT %: 89.108  MISS %: 10.892  AVERAGE MISS PENALTY: 0
LLC1 PREFETCH  REQUESTED:     0  ISSUED:     0  USEFUL: 2099433  USELESS: 21148491
 USEFUL LOAD PREFETCHES:    2099433 PREFETCH ISSUED TO LOWER LEVEL:  283507433  ACCURACY: 0.740521
 TIMELY PREFETCHES:    2099433 LATE PREFETCHES: 0 DROPPED PREFETCHES: 0
LLC1 AVERAGE MISS LATENCY: 762.15 cycles
LLC2 TOTAL     ACCESS: 6966081  HIT: 3515548  MISS: 3450533  HIT %: 50.4667  MISS %: 49.5333  AVERAGE MISS PENALTY: 767.924
LLC2 LOAD      ACCESS: 1212633  HIT: 656178  MISS: 556455  HIT %: 54.1118  MISS %: 45.8882  AVERAGE MISS PENALTY: 767.914
LLC2 RFO       ACCESS: 11629  HIT:  3039  MISS:  8590  HIT %: 26.1329  MISS %: 73.8671  AVERAGE MISS PENALTY: 768.563
LLC2 PREFETCH  ACCESS: 5666437  HIT: 2789240  MISS: 2877197  HIT %: 49.2239  MISS %: 50.7761  AVERAGE MISS PENALTY: 770.137
LLC2 WRITEBACK ACCESS: 75382  HIT: 67091  MISS:  8291  HIT %: 89.0014  MISS %: 10.9986  AVERAGE MISS PENALTY: 0
LLC2 PREFETCH  REQUESTED:     0  ISSUED:     0  USEFUL: 2112432  USELESS: 21016732
 USEFUL LOAD PREFETCHES:    2112432 PREFETCH ISSUED TO LOWER LEVEL:  493587268  ACCURACY: 0.427975
 TIMELY PREFETCHES:    2112432 LATE PREFETCHES: 0 DROPPED PREFETCHES: 0
LLC2 AVERAGE MISS LATENCY: 767.924 cycles
LLC3 TOTAL     ACCESS: 6852705  HIT: 3456875  MISS: 3395830  HIT %: 50.4454  MISS %: 49.5546  AVERAGE MISS PENALTY: 757.54
LLC3 LOAD      ACCESS: 1141561  HIT: 604689  MISS: 536872  HIT %: 52.9704  MISS %: 47.0296  AVERAGE MISS PENALTY: 756.129
LLC3 RFO       ACCESS: 11642  HIT:  3046  MISS:  8596  HIT %: 26.1639  MISS %: 73.8361  AVERAGE MISS PENALTY: 756.057
LLC3 PREFETCH  ACCESS: 5625958  HIT: 2783697  MISS: 2842261  HIT %: 49.4795  MISS %: 50.5205  AVERAGE MISS PENALTY: 759.97
LLC3 WRITEBACK ACCESS: 73544  HIT: 65443  MISS:  8101  HIT %: 88.9848  MISS %: 11.0152  AVERAGE MISS PENALTY: 0
LLC3 PREFETCH  REQUESTED:     0  ISSUED:     0  USEFUL: 2084381  USELESS: 20769213
 USEFUL LOAD PREFETCHES:    2084381 PREFETCH ISSUED TO LOWER LEVEL:  425420453  ACCURACY: 0.489958
 TIMELY PREFETCHES:    2084381 LATE PREFETCHES: 0 DROPPED PREFETCHES: 0
LLC3 AVERAGE MISS LATENCY: 757.54 cycles
LLC4 TOTAL     ACCESS: 6814570  HIT: 3444770  MISS: 3369800  HIT %: 50.5501  MISS %: 49.4499  AVERAGE MISS PENALTY: 734.271
LLC4 LOAD      ACCESS: 1213044  HIT: 654930  MISS: 558114  HIT %: 53.9906  MISS %: 46.0094  AVERAGE MISS PENALTY: 726.19
LLC4 RFO       ACCESS: 11672  HIT:  3097  MISS:  8575  HIT %: 26.5336  MISS %: 73.4664  AVERAGE MISS PENALTY: 722.324
LLC4 PREFETCH  ACCESS: 5519074  HIT: 2723943  MISS: 2795131  HIT %: 49.3551  MISS %: 50.6449  AVERAGE MISS PENALTY: 738.018
LLC4 WRITEBACK ACCESS: 70780  HIT: 62800  MISS:  7980  HIT %: 88.7256  MISS %: 11.2744  AVERAGE MISS PENALTY: 0
LLC4 PREFETCH  REQUESTED:     0  ISSUED:     0  USEFUL: 2129842  USELESS: 20336751
 USEFUL LOAD PREFETCHES:    2129842 PREFETCH ISSUED TO LOWER LEVEL:  731759530  ACCURACY: 0.291058
 TIMELY PREFETCHES:    2129842 LATE PREFETCHES: 0 DROPPED PREFETCHES: 0
LLC4 AVERAGE MISS LATENCY: 734.271 cycles
LLC5 TOTAL     ACCESS: 6705529  HIT: 3385337  MISS: 3320192  HIT %: 50.4858  MISS %: 49.5142  AVERAGE MISS PENALTY: 723.429
LLC5 LOAD      ACCESS: 1231031  HIT: 676879  MISS: 554152  HIT %: 54.9847  MISS %: 45.0153  AVERAGE MISS PENALTY: 713.374
LLC5 RFO       ACCESS: 11542  HIT:  3013  MISS:  8529  HIT %: 26.1047  MISS %: 73.8953  AVERAGE MISS PENALTY: 706.84
LLC5 PREFETCH  ACCESS: 5392889  HIT: 2643444  MISS: 2749445  HIT %: 49.0172  MISS %: 50.9828  AVERAGE MISS PENALTY: 727.63
LLC5 WRITEBACK ACCESS: 70067  HIT: 62001  MISS:  8066  HIT %: 88.4882  MISS %: 11.5118  AVERAGE MISS PENALTY: 0
LLC5 PREFETCH  REQUESTED:     0  ISSUED:     0  USEFUL: 2075230  USELESS: 20017373
 USEFUL LOAD PREFETCHES:    2075230 PREFETCH ISSUED TO LOWER LEVEL:  623959044  ACCURACY: 0.332591
 TIMELY PREFETCHES:    2075230 LATE PREFETCHES: 0 DROPPED PREFETCHES: 0
LLC5 AVERAGE MISS LATENCY: 723.429 cycles
LLC6 TOTAL     ACCESS: 6574216  HIT: 3299926  MISS: 3274290  HIT %: 50.195  MISS %: 49.805  AVERAGE MISS PENALTY: 767.714
LLC6 LOAD      ACCESS: 1182967  HIT: 634454  MISS: 548513  HIT %: 53.6324  MISS %: 46.3676  AVERAGE MISS PENALTY: 719.356
LLC6 RFO       ACCESS: 11609  HIT:  3067  MISS:  8542  HIT %: 26.4192  MISS %: 73.5808  AVERAGE MISS PENALTY: 717.205
LLC6 PREFETCH  ACCESS: 5310387  HIT: 2601207  MISS: 2709180  HIT %: 48.9834  MISS %: 51.0166  AVERAGE MISS PENALTY: 779.947
LLC6 WRITEBACK ACCESS: 69253  HIT: 61198  MISS:  8055  HIT %: 88.3687  MISS %: 11.6313  AVERAGE MISS PENALTY: 0
LLC6 PREFETCH  REQUESTED:     0  ISSUED:     0  USEFUL: 2035573  USELESS: 19735257
 USEFUL LOAD PREFETCHES:    2035573 PREFETCH ISSUED TO LOWER LEVEL: 1048990718  ACCURACY: 0.194051
 TIMELY PREFETCHES:    2035573 LATE PREFETCHES: 0 DROPPED PREFETCHES: 0
LLC6 AVERAGE MISS LATENCY: 729.031 cycles
LLC7 TOTAL     ACCESS: 6455891  HIT: 3234816  MISS: 3221075  HIT %: 50.1064  MISS %: 49.8936  AVERAGE MISS PENALTY: 721.936
LLC7 LOAD      ACCESS: 1179437  HIT: 632416  MISS: 547021  HIT %: 53.6202  MISS %: 46.3798  AVERAGE MISS PENALTY: 707.156
LLC7 RFO       ACCESS: 11501  HIT:  2982  MISS:  8519  HIT %: 25.9282  MISS %: 74.0718  AVERAGE MISS PENALTY: 720.591
LLC7 PREFETCH  ACCESS: 5198251  HIT: 2540911  MISS: 2657340  HIT %: 48.8801  MISS %: 51.1199  AVERAGE MISS PENALTY: 727.209
LLC7 WRITEBACK ACCESS: 66702  HIT: 58507  MISS:  8195  HIT %: 87.714  MISS %: 12.286  AVERAGE MISS PENALTY: 0
LLC7 PREFETCH  REQUESTED:     0  ISSUED:     0  USEFUL: 1981561  USELESS: 19382508
 USEFUL LOAD PREFETCHES:    1981561 PREFETCH ISSUED TO LOWER LEVEL:  891090768  ACCURACY: 0.222375
 TIMELY PREFETCHES:    1981561 LATE PREFETCHES: 0 DROPPED PREFETCHES: 0
LLC7 AVERAGE MISS LATENCY: 721.936 cycles
ROI Average ROB Stall Cycles:	53.7568
ROI Total ROB Stalls Cycles:	1700061524
ROI TOTAL ROB counter      :	31625060
ROI Average Load ROB Stall Cycles:	365.396
ROI Total Load ROB Stalls Cycle  :	1599800760
ROI Total Load ROB stalls Counter:	4378265
Major fault: 0 Minor fault: 58414








Interconnect Stats 
LINK 0 BW : 0LINK 1 BW : 0LINK 2 BW : 0LINK 3 BW : 0LINK 4 BW : 0LINK 5 BW : 0LINK 6 BW : 0LINK 7 BW : 0
DRAM Statistics
 CHANNEL 0
 RQ ROW_BUFFER_HIT: 41140503  ROW_BUFFER_MISS: 67337025
 DBUS_CONGESTED: 57789558
 WQ ROW_BUFFER_HIT: 121968  ROW_BUFFER_MISS: 1614489  FULL:     0

 CHANNEL 1
 RQ ROW_BUFFER_HIT: 40490894  ROW_BUFFER_MISS: 66874141
 DBUS_CONGESTED: 57789558
 WQ ROW_BUFFER_HIT: 121294  ROW_BUFFER_MISS: 1610531  FULL:     0

 AVG_CONGESTED_CYCLE: 5
DRAM PAGES: 2097152
Allocated PAGES: 466636
L2C destructor called
L1D destructor called
L1I destructor called
STLB destructor called
DTLB destructor called
ITLB destructor called
L2C destructor called
L1D destructor called
L1I destructor called
STLB destructor called
DTLB destructor called
ITLB destructor called
L2C destructor called
L1D destructor called
L1I destructor called
STLB destructor called
DTLB destructor called
ITLB destructor called
L2C destructor called
L1D destructor called
L1I destructor called
STLB destructor called
DTLB destructor called
ITLB destructor called
L2C destructor called
L1D destructor called
L1I destructor called
STLB destructor called
DTLB destructor called
ITLB destructor called
L2C destructor called
L1D destructor called
L1I destructor called
STLB destructor called
DTLB destructor called
ITLB destructor called
L2C destructor called
L1D destructor called
L1I destructor called
STLB destructor called
DTLB destructor called
ITLB destructor called
L2C destructor called
L1D destructor called
L1I destructor called
STLB destructor called
DTLB destructor called
ITLB destructor called
