
*** ChampSim Multicore Out-of-Order Simulator ***

Warmup Instructions: 200000000
Simulation Instructions: 200000000
Number of CPUs: 1
threads:1

L1I Configuration:
L1I_SET:64
L1I_WAY:8
L1I_RQ_SIZE:64
L1I_WQ_SIZE:64
L1I_PQ_SIZE:8
L1I_MSHR_SIZE:8

L1D Configuration:
L1D_SET:64
L1D_WAY:12
L1D_RQ_SIZE:64
L1D_WQ_SIZE:64
L1D_PQ_SIZE:8
L1D_MSHR_SIZE:16

L2C Configuration:
L2C_SET:1024
L2C_WAY:8
L2C_RQ_SIZE:32
L2C_WQ_SIZE:32
L2C_PQ_SIZE:16
L2C_MSHR_SIZE:32

LLC Configuration:
LLC_SET:4096
LLC_WAY:16
LLC SLICES:8
LLC_RQ_SIZE:64
LLC_WQ_SIZE:64
LLC_PQ_SIZE:32
LLC_MSHR_SIZE:64

Interconnect OFF
Attacker deprioritize is: OFF
Off-chip DRAM Size: 4096 MB Channels: 1 Width: 64-bit Data Rate: 3200 MT/s
PAGE SIZE in KB: 4.000000 
PAGE SIZE in MB: 0.003906 
PAGE offset in bits: 12 
CEASER-S_LLC:0
MIRAGE : 1
CEASER_LATENCY:3
REMAP : OFF
Partitions : 1
Multi-Step : OFF
BFS : OFF

CPU 0 runs /home/anubhav/gap/bc-0.trace.gz
CPU 0 Bimodal branch predictor
Initialize Hawkeye state
Initialize Hawkeye state
Initialize Hawkeye state
Initialize Hawkeye state
Initialize Hawkeye state
Initialize Hawkeye state
Initialize Hawkeye state
Initialize Hawkeye state
Heartbeat CPU 0 instructions: 10000002 cycles: 10491223 heartbeat IPC: 0.953178 cumulative IPC: 0.953178 (Simulation time: 0 hr 3 min 7 sec) 
 Total Blocks : 524288 Invalid Blocks : 280254
Heartbeat CPU 0 instructions: 20000001 cycles: 23580560 heartbeat IPC: 0.763981 cumulative IPC: 0.848156 (Simulation time: 0 hr 7 min 2 sec) 
 Total Blocks : 524288 Invalid Blocks : 249975
Heartbeat CPU 0 instructions: 30000000 cycles: 36089384 heartbeat IPC: 0.799436 cumulative IPC: 0.831269 (Simulation time: 0 hr 11 min 9 sec) 
 Total Blocks : 524288 Invalid Blocks : 222803
Heartbeat CPU 0 instructions: 40000001 cycles: 48381103 heartbeat IPC: 0.813556 cumulative IPC: 0.826769 (Simulation time: 0 hr 15 min 10 sec) 
 Total Blocks : 524288 Invalid Blocks : 198647
Heartbeat CPU 0 instructions: 50000000 cycles: 60543159 heartbeat IPC: 0.822229 cumulative IPC: 0.825857 (Simulation time: 0 hr 19 min 9 sec) 
 Total Blocks : 524288 Invalid Blocks : 177399
Heartbeat CPU 0 instructions: 60000000 cycles: 72604125 heartbeat IPC: 0.829121 cumulative IPC: 0.826399 (Simulation time: 0 hr 23 min 4 sec) 
 Total Blocks : 524288 Invalid Blocks : 158234
Heartbeat CPU 0 instructions: 70000000 cycles: 84604560 heartbeat IPC: 0.833303 cumulative IPC: 0.827379 (Simulation time: 0 hr 26 min 50 sec) 
 Total Blocks : 524288 Invalid Blocks : 141466
Heartbeat CPU 0 instructions: 80000000 cycles: 96463118 heartbeat IPC: 0.843273 cumulative IPC: 0.829333 (Simulation time: 0 hr 30 min 46 sec) 
 Total Blocks : 524288 Invalid Blocks : 125701
Heartbeat CPU 0 instructions: 90000001 cycles: 108372078 heartbeat IPC: 0.839704 cumulative IPC: 0.830472 (Simulation time: 0 hr 34 min 48 sec) 
 Total Blocks : 524288 Invalid Blocks : 111988
Heartbeat CPU 0 instructions: 100000000 cycles: 120155037 heartbeat IPC: 0.848683 cumulative IPC: 0.832258 (Simulation time: 0 hr 38 min 59 sec) 
 Total Blocks : 524288 Invalid Blocks : 99476
Heartbeat CPU 0 instructions: 110000000 cycles: 131875235 heartbeat IPC: 0.853228 cumulative IPC: 0.834122 (Simulation time: 0 hr 43 min 19 sec) 
 Total Blocks : 524288 Invalid Blocks : 88287
Heartbeat CPU 0 instructions: 120000000 cycles: 143461781 heartbeat IPC: 0.86307 cumulative IPC: 0.83646 (Simulation time: 0 hr 47 min 52 sec) 
 Total Blocks : 524288 Invalid Blocks : 77665
Heartbeat CPU 0 instructions: 130000001 cycles: 155057199 heartbeat IPC: 0.86241 cumulative IPC: 0.8384 (Simulation time: 0 hr 52 min 24 sec) 
 Total Blocks : 524288 Invalid Blocks : 68313
Heartbeat CPU 0 instructions: 140000000 cycles: 166644014 heartbeat IPC: 0.86305 cumulative IPC: 0.840114 (Simulation time: 0 hr 56 min 41 sec) 
 Total Blocks : 524288 Invalid Blocks : 60169
Heartbeat CPU 0 instructions: 150000003 cycles: 178218567 heartbeat IPC: 0.863964 cumulative IPC: 0.841663 (Simulation time: 1 hr 0 min 56 sec) 
 Total Blocks : 524288 Invalid Blocks : 52841
Heartbeat CPU 0 instructions: 160000000 cycles: 189618250 heartbeat IPC: 0.877217 cumulative IPC: 0.843801 (Simulation time: 1 hr 5 min 32 sec) 
 Total Blocks : 524288 Invalid Blocks : 45858
Heartbeat CPU 0 instructions: 170000000 cycles: 201039505 heartbeat IPC: 0.875561 cumulative IPC: 0.845605 (Simulation time: 1 hr 9 min 52 sec) 
 Total Blocks : 524288 Invalid Blocks : 39940
Heartbeat CPU 0 instructions: 180000000 cycles: 212455841 heartbeat IPC: 0.875938 cumulative IPC: 0.847235 (Simulation time: 1 hr 14 min 7 sec) 
 Total Blocks : 524288 Invalid Blocks : 34714
Heartbeat CPU 0 instructions: 190000003 cycles: 223862055 heartbeat IPC: 0.876715 cumulative IPC: 0.848737 (Simulation time: 1 hr 18 min 34 sec) 
 Total Blocks : 524288 Invalid Blocks : 30113
Heartbeat CPU 0 instructions: 200000002 cycles: 235297006 heartbeat IPC: 0.874512 cumulative IPC: 0.84999 (Simulation time: 1 hr 23 min 4 sec) 
 Total Blocks : 524288 Invalid Blocks : 26092

Warmup complete CPU 0 instructions: 200000002 cycles: 235297006 (Simulation time: 1 hr 23 min 4 sec) 

Heartbeat CPU 0 instructions: 210000001 cycles: 289286753 heartbeat IPC: 0.18522 cumulative IPC: 0.18522 (Simulation time: 1 hr 31 min 58 sec) 
 Total Blocks : 524288 Invalid Blocks : 22584
Heartbeat CPU 0 instructions: 220000000 cycles: 342962954 heartbeat IPC: 0.186302 cumulative IPC: 0.18576 (Simulation time: 1 hr 40 min 26 sec) 
 Total Blocks : 524288 Invalid Blocks : 19517
Heartbeat CPU 0 instructions: 230000000 cycles: 396523102 heartbeat IPC: 0.186706 cumulative IPC: 0.186074 (Simulation time: 1 hr 48 min 39 sec) 
 Total Blocks : 524288 Invalid Blocks : 16687
Heartbeat CPU 0 instructions: 240000001 cycles: 450234242 heartbeat IPC: 0.186181 cumulative IPC: 0.186101 (Simulation time: 1 hr 56 min 42 sec) 
 Total Blocks : 524288 Invalid Blocks : 14246
Heartbeat CPU 0 instructions: 250000001 cycles: 503632171 heartbeat IPC: 0.187273 cumulative IPC: 0.186334 (Simulation time: 2 hr 4 min 30 sec) 
 Total Blocks : 524288 Invalid Blocks : 12192
Heartbeat CPU 0 instructions: 260000000 cycles: 557112097 heartbeat IPC: 0.186986 cumulative IPC: 0.186442 (Simulation time: 2 hr 11 min 44 sec) 
 Total Blocks : 524288 Invalid Blocks : 10337
Heartbeat CPU 0 instructions: 270000001 cycles: 610359142 heartbeat IPC: 0.187804 cumulative IPC: 0.186636 (Simulation time: 2 hr 18 min 14 sec) 
 Total Blocks : 524288 Invalid Blocks : 8697
Heartbeat CPU 0 instructions: 280000001 cycles: 663183381 heartbeat IPC: 0.189307 cumulative IPC: 0.186966 (Simulation time: 2 hr 24 min 15 sec) 
 Total Blocks : 524288 Invalid Blocks : 7283
Heartbeat CPU 0 instructions: 290000000 cycles: 715921710 heartbeat IPC: 0.189615 cumulative IPC: 0.187256 (Simulation time: 2 hr 30 min 7 sec) 
 Total Blocks : 524288 Invalid Blocks : 5996
Heartbeat CPU 0 instructions: 300000003 cycles: 768724473 heartbeat IPC: 0.189384 cumulative IPC: 0.187467 (Simulation time: 2 hr 35 min 20 sec) 
 Total Blocks : 524288 Invalid Blocks : 4977
Heartbeat CPU 0 instructions: 310000000 cycles: 821544648 heartbeat IPC: 0.189322 cumulative IPC: 0.187634 (Simulation time: 2 hr 39 min 44 sec) 
 Total Blocks : 524288 Invalid Blocks : 4109
Heartbeat CPU 0 instructions: 320000000 cycles: 875339588 heartbeat IPC: 0.185891 cumulative IPC: 0.187488 (Simulation time: 2 hr 44 min 37 sec) 
 Total Blocks : 524288 Invalid Blocks : 3380
Heartbeat CPU 0 instructions: 330000000 cycles: 929961432 heartbeat IPC: 0.183077 cumulative IPC: 0.187141 (Simulation time: 2 hr 49 min 40 sec) 
 Total Blocks : 524288 Invalid Blocks : 2777
Heartbeat CPU 0 instructions: 340000002 cycles: 984834273 heartbeat IPC: 0.18224 cumulative IPC: 0.186782 (Simulation time: 2 hr 54 min 36 sec) 
 Total Blocks : 524288 Invalid Blocks : 2246
Heartbeat CPU 0 instructions: 350000002 cycles: 1003778150 heartbeat IPC: 0.527875 cumulative IPC: 0.19519 (Simulation time: 2 hr 58 min 13 sec) 
 Total Blocks : 524288 Invalid Blocks : 1787
Heartbeat CPU 0 instructions: 360000001 cycles: 1024255655 heartbeat IPC: 0.488341 cumulative IPC: 0.202799 (Simulation time: 3 hr 1 min 53 sec) 
 Total Blocks : 524288 Invalid Blocks : 1387
Heartbeat CPU 0 instructions: 370000001 cycles: 1045591219 heartbeat IPC: 0.468701 cumulative IPC: 0.2098 (Simulation time: 3 hr 5 min 32 sec) 
 Total Blocks : 524288 Invalid Blocks : 1064
Heartbeat CPU 0 instructions: 380000003 cycles: 1065813205 heartbeat IPC: 0.494511 cumulative IPC: 0.216733 (Simulation time: 3 hr 9 min 7 sec) 
 Total Blocks : 524288 Invalid Blocks : 788
Heartbeat CPU 0 instructions: 390000001 cycles: 1086820532 heartbeat IPC: 0.476024 cumulative IPC: 0.223129 (Simulation time: 3 hr 12 min 20 sec) 
 Total Blocks : 524288 Invalid Blocks : 563
Heartbeat CPU 0 instructions: 400000000 cycles: 1114278034 heartbeat IPC: 0.364199 cumulative IPC: 0.227536 (Simulation time: 3 hr 14 min 40 sec) 
 Total Blocks : 524288 Invalid Blocks : 417
Finished CPU 0 instructions: 200000002 cycles: 878981030 cumulative IPC: 0.227536 (Simulation time: 3 hr 14 min 40 sec) 

CPU 0 Branch Prediction Accuracy: 91.6813% MPKI: 18.3376 Average ROB Occupancy at Mispredict: 47.1625

ChampSim completed all CPUs

Region of Interest Statistics

CPU 0 cumulative IPC: 0.227536 instructions: 200000002 cycles: 878981030
ITLB TOTAL     ACCESS: 32061536  HIT: 32061536  MISS:     0  HIT %:   100  MISS %:     0  AVERAGE MISS PENALTY: 0
ITLB LOAD      ACCESS: 32061536  HIT: 32061536  MISS:     0  HIT %:   100  MISS %:     0  AVERAGE MISS PENALTY: 0
ITLB RFO       ACCESS:     0  HIT:     0  MISS:     0  HIT %:     0  MISS %:     0  AVERAGE MISS PENALTY: 0
ITLB PREFETCH  ACCESS:     0  HIT:     0  MISS:     0  HIT %:     0  MISS %:     0  AVERAGE MISS PENALTY: 0
ITLB WRITEBACK ACCESS:     0  HIT:     0  MISS:     0  HIT %:     0  MISS %:     0  AVERAGE MISS PENALTY: 0
ITLB PREFETCH  REQUESTED:     0  ISSUED:     0  USEFUL:     0  USELESS:     0
 USEFUL LOAD PREFETCHES:          0 PREFETCH ISSUED TO LOWER LEVEL:          0  ACCURACY: -nan
 TIMELY PREFETCHES:          0 LATE PREFETCHES: 0 DROPPED PREFETCHES: 0
ITLB AVERAGE MISS LATENCY: -nan cycles
DTLB TOTAL     ACCESS: 44185001  HIT: 29653387  MISS: 14531614  HIT %: 67.1119  MISS %: 32.8881  AVERAGE MISS PENALTY: 37.7897
DTLB LOAD      ACCESS: 38485854  HIT: 26418874  MISS: 12066980  HIT %: 68.6457  MISS %: 31.3543  AVERAGE MISS PENALTY: 30.4474
DTLB RFO       ACCESS: 5699147  HIT: 3234513  MISS: 2464634  HIT %: 56.7543  MISS %: 43.2457  AVERAGE MISS PENALTY: 73.7385
DTLB PREFETCH  ACCESS:     0  HIT:     0  MISS:     0  HIT %:     0  MISS %:     0  AVERAGE MISS PENALTY: 0
DTLB WRITEBACK ACCESS:     0  HIT:     0  MISS:     0  HIT %:     0  MISS %:     0  AVERAGE MISS PENALTY: 0
DTLB PREFETCH  REQUESTED:     0  ISSUED:     0  USEFUL:     0  USELESS:     0
 USEFUL LOAD PREFETCHES:          0 PREFETCH ISSUED TO LOWER LEVEL:          0  ACCURACY: -nan
 TIMELY PREFETCHES:          0 LATE PREFETCHES: 0 DROPPED PREFETCHES: 0
DTLB AVERAGE MISS LATENCY: 37.7897 cycles
STLB TOTAL     ACCESS: 14531614  HIT: 12306542  MISS: 2225072  HIT %: 84.6881  MISS %: 15.3119  AVERAGE MISS PENALTY: 100
STLB LOAD      ACCESS: 12066980  HIT: 11030008  MISS: 1036972  HIT %: 91.4065  MISS %: 8.59347  AVERAGE MISS PENALTY: 100
STLB RFO       ACCESS: 2464634  HIT: 1276534  MISS: 1188100  HIT %: 51.7941  MISS %: 48.2059  AVERAGE MISS PENALTY: 100
STLB PREFETCH  ACCESS:     0  HIT:     0  MISS:     0  HIT %:     0  MISS %:     0  AVERAGE MISS PENALTY: 0
STLB WRITEBACK ACCESS:     0  HIT:     0  MISS:     0  HIT %:     0  MISS %:     0  AVERAGE MISS PENALTY: 0
STLB PREFETCH  REQUESTED:     0  ISSUED:     0  USEFUL:     0  USELESS:     0
 USEFUL LOAD PREFETCHES:          0 PREFETCH ISSUED TO LOWER LEVEL:          0  ACCURACY: -nan
 TIMELY PREFETCHES:          0 LATE PREFETCHES: 0 DROPPED PREFETCHES: 0
STLB AVERAGE MISS LATENCY: 100 cycles
L1D TOTAL     ACCESS: 95648363  HIT: 31403731  MISS: 64244632  HIT %: 32.8325  MISS %: 67.1675  AVERAGE MISS PENALTY: 276764
L1D LOAD      ACCESS: 40427011  HIT: 22868269  MISS: 17558742  HIT %: 56.5668  MISS %: 43.4332  AVERAGE MISS PENALTY: 1.0125e+06
L1D RFO       ACCESS: 6048306  HIT: 6006006  MISS: 42300  HIT %: 99.3006  MISS %: 0.699369  AVERAGE MISS PENALTY: 73.7255
L1D PREFETCH  ACCESS: 49173046  HIT: 2529456  MISS: 46643590  HIT %: 5.14399  MISS %: 94.856  AVERAGE MISS PENALTY: 52.9255
L1D WRITEBACK ACCESS:     0  HIT:     0  MISS:     0  HIT %:     0  MISS %:     0  AVERAGE MISS PENALTY: 0
L1D PREFETCH  REQUESTED: 85231276  ISSUED: 49491750  USEFUL: 933632  USELESS: 45710041
 USEFUL LOAD PREFETCHES:     933632 PREFETCH ISSUED TO LOWER LEVEL:  156473352  ACCURACY: 0.596672
 TIMELY PREFETCHES:     933632 LATE PREFETCHES: 104608 DROPPED PREFETCHES: 35739526
L1D AVERAGE MISS LATENCY: 54.8926 cycles
L1I TOTAL     ACCESS: 47785840  HIT: 47785840  MISS:     0  HIT %:   100  MISS %:     0  AVERAGE MISS PENALTY: 0
L1I LOAD      ACCESS: 47785840  HIT: 47785840  MISS:     0  HIT %:   100  MISS %:     0  AVERAGE MISS PENALTY: 0
L1I RFO       ACCESS:     0  HIT:     0  MISS:     0  HIT %:     0  MISS %:     0  AVERAGE MISS PENALTY: 0
L1I PREFETCH  ACCESS:     0  HIT:     0  MISS:     0  HIT %:     0  MISS %:     0  AVERAGE MISS PENALTY: 0
L1I WRITEBACK ACCESS:     0  HIT:     0  MISS:     0  HIT %:     0  MISS %:     0  AVERAGE MISS PENALTY: 0
L1I PREFETCH  REQUESTED:     0  ISSUED:     0  USEFUL:     0  USELESS:     0
 USEFUL LOAD PREFETCHES:          0 PREFETCH ISSUED TO LOWER LEVEL:          0  ACCURACY: -nan
 TIMELY PREFETCHES:          0 LATE PREFETCHES: 0 DROPPED PREFETCHES: 0
L1I AVERAGE MISS LATENCY: -nan cycles
L2C TOTAL     ACCESS: 119536572  HIT: 21377220  MISS: 98159352  HIT %: 17.8834  MISS %: 82.1166  AVERAGE MISS PENALTY: 80382.4
L2C LOAD      ACCESS: 17557847  HIT: 2219606  MISS: 15338241  HIT %: 12.6417  MISS %: 87.3583  AVERAGE MISS PENALTY: 514191
L2C RFO       ACCESS: 42286  HIT: 28747  MISS: 13539  HIT %: 67.9823  MISS %: 32.0177  AVERAGE MISS PENALTY: 168.836
L2C PREFETCH  ACCESS: 98852132  HIT: 16049214  MISS: 82802918  HIT %: 16.2356  MISS %: 83.7644  AVERAGE MISS PENALTY: 42.2154
L2C WRITEBACK ACCESS: 3084307  HIT: 3079653  MISS:  4654  HIT %: 99.8491  MISS %: 0.150893  AVERAGE MISS PENALTY: 0
L2C PREFETCH  REQUESTED: 207710651  ISSUED: 189957245  USEFUL: 1033067  USELESS: 81770284
 USEFUL LOAD PREFETCHES:    1033067 PREFETCH ISSUED TO LOWER LEVEL:   87577059  ACCURACY: 1.17961
 TIMELY PREFETCHES:    1033067 LATE PREFETCHES: 281440 DROPPED PREFETCHES: 17753406
L2C AVERAGE MISS LATENCY: 42.5798 cycles
LLC0 TOTAL     ACCESS: 12969764  HIT: 12704361  MISS: 265403  HIT %: 97.9537  MISS %: 2.04632  AVERAGE MISS PENALTY: 160.609
LLC0 LOAD      ACCESS: 1921285  HIT: 1855970  MISS: 65315  HIT %: 96.6005  MISS %: 3.39955  AVERAGE MISS PENALTY: 173.331
LLC0 RFO       ACCESS:  1706  HIT:   727  MISS:   979  HIT %: 42.6143  MISS %: 57.3857  AVERAGE MISS PENALTY: 212.876
LLC0 PREFETCH  ACCESS: 10667460  HIT: 10468438  MISS: 199022  HIT %: 98.1343  MISS %: 1.86569  AVERAGE MISS PENALTY: 156.247
LLC0 WRITEBACK ACCESS: 379313  HIT: 379226  MISS:    87  HIT %: 99.9771  MISS %: 0.0229362  AVERAGE MISS PENALTY: 0
LLC0 PREFETCH  REQUESTED:     0  ISSUED:     0  USEFUL: 36264  USELESS: 161542
 USEFUL LOAD PREFETCHES:      36264 PREFETCH ISSUED TO LOWER LEVEL:     199022  ACCURACY: 18.2211
 TIMELY PREFETCHES:      36264 LATE PREFETCHES: 0 DROPPED PREFETCHES: 0
LLC0 AVERAGE MISS LATENCY: 160.609 cycles
Deadblocks : 50656 Deadblock percentage : 77.5565

LLC1 TOTAL     ACCESS: 12954229  HIT: 12687224  MISS: 267005  HIT %: 97.9389  MISS %: 2.06114  AVERAGE MISS PENALTY: 160.932
LLC1 LOAD      ACCESS: 1874113  HIT: 1822542  MISS: 51571  HIT %: 97.2482  MISS %: 2.75176  AVERAGE MISS PENALTY: 174.04
LLC1 RFO       ACCESS:  1698  HIT:   711  MISS:   987  HIT %: 41.8728  MISS %: 58.1272  AVERAGE MISS PENALTY: 220.523
LLC1 PREFETCH  ACCESS: 10695900  HIT: 10481550  MISS: 214350  HIT %: 97.996  MISS %: 2.00404  AVERAGE MISS PENALTY: 157.576
LLC1 WRITEBACK ACCESS: 382518  HIT: 382421  MISS:    97  HIT %: 99.9746  MISS %: 0.0253583  AVERAGE MISS PENALTY: 0
LLC1 PREFETCH  REQUESTED:     0  ISSUED:     0  USEFUL: 36794  USELESS: 177835
 USEFUL LOAD PREFETCHES:      36794 PREFETCH ISSUED TO LOWER LEVEL:     214350  ACCURACY: 17.1654
 TIMELY PREFETCHES:      36794 LATE PREFETCHES: 0 DROPPED PREFETCHES: 0
LLC1 AVERAGE MISS LATENCY: 160.932 cycles
LLC2 TOTAL     ACCESS: 12939885  HIT: 12670315  MISS: 269570  HIT %: 97.9168  MISS %: 2.08325  AVERAGE MISS PENALTY: 161.404
LLC2 LOAD      ACCESS: 1982125  HIT: 1930771  MISS: 51354  HIT %: 97.4091  MISS %: 2.59086  AVERAGE MISS PENALTY: 173.687
LLC2 RFO       ACCESS:  1690  HIT:   700  MISS:   990  HIT %: 41.4201  MISS %: 58.5799  AVERAGE MISS PENALTY: 215.488
LLC2 PREFETCH  ACCESS: 10575487  HIT: 10358357  MISS: 217130  HIT %: 97.9469  MISS %: 2.05314  AVERAGE MISS PENALTY: 158.323
LLC2 WRITEBACK ACCESS: 380583  HIT: 380487  MISS:    96  HIT %: 99.9748  MISS %: 0.0252245  AVERAGE MISS PENALTY: 0
LLC2 PREFETCH  REQUESTED:     0  ISSUED:     0  USEFUL: 37113  USELESS: 180410
 USEFUL LOAD PREFETCHES:      37113 PREFETCH ISSUED TO LOWER LEVEL:     217130  ACCURACY: 17.0925
 TIMELY PREFETCHES:      37113 LATE PREFETCHES: 0 DROPPED PREFETCHES: 0
LLC2 AVERAGE MISS LATENCY: 161.404 cycles
LLC3 TOTAL     ACCESS: 12796991  HIT: 12525630  MISS: 271361  HIT %: 97.8795  MISS %: 2.12051  AVERAGE MISS PENALTY: 162.139
LLC3 LOAD      ACCESS: 1906938  HIT: 1855904  MISS: 51034  HIT %: 97.3238  MISS %: 2.67623  AVERAGE MISS PENALTY: 174.139
LLC3 RFO       ACCESS:  1686  HIT:   685  MISS:  1001  HIT %: 40.6287  MISS %: 59.3713  AVERAGE MISS PENALTY: 209.87
LLC3 PREFETCH  ACCESS: 10509073  HIT: 10289844  MISS: 219229  HIT %: 97.9139  MISS %: 2.08609  AVERAGE MISS PENALTY: 159.199
LLC3 WRITEBACK ACCESS: 379294  HIT: 379197  MISS:    97  HIT %: 99.9744  MISS %: 0.0255738  AVERAGE MISS PENALTY: 0
LLC3 PREFETCH  REQUESTED:     0  ISSUED:     0  USEFUL: 37447  USELESS: 182042
 USEFUL LOAD PREFETCHES:      37447 PREFETCH ISSUED TO LOWER LEVEL:     219230  ACCURACY: 17.0811
 TIMELY PREFETCHES:      37447 LATE PREFETCHES: 0 DROPPED PREFETCHES: 0
LLC3 AVERAGE MISS LATENCY: 162.139 cycles
LLC4 TOTAL     ACCESS: 12675123  HIT: 12401562  MISS: 273561  HIT %: 97.8417  MISS %: 2.15825  AVERAGE MISS PENALTY: 162.352
LLC4 LOAD      ACCESS: 1919964  HIT: 1868475  MISS: 51489  HIT %: 97.3182  MISS %: 2.68177  AVERAGE MISS PENALTY: 173.915
LLC4 RFO       ACCESS:  1705  HIT:   734  MISS:   971  HIT %: 43.0499  MISS %: 56.9501  AVERAGE MISS PENALTY: 211.519
LLC4 PREFETCH  ACCESS: 10369520  HIT: 10148526  MISS: 220994  HIT %: 97.8688  MISS %: 2.13119  AVERAGE MISS PENALTY: 159.521
LLC4 WRITEBACK ACCESS: 383934  HIT: 383827  MISS:   107  HIT %: 99.9721  MISS %: 0.0278694  AVERAGE MISS PENALTY: 0
LLC4 PREFETCH  REQUESTED:     0  ISSUED:     0  USEFUL: 37685  USELESS: 183469
 USEFUL LOAD PREFETCHES:      37685 PREFETCH ISSUED TO LOWER LEVEL:     220994  ACCURACY: 17.0525
 TIMELY PREFETCHES:      37685 LATE PREFETCHES: 0 DROPPED PREFETCHES: 0
LLC4 AVERAGE MISS LATENCY: 162.352 cycles
LLC5 TOTAL     ACCESS: 12492067  HIT: 12216694  MISS: 275373  HIT %: 97.7956  MISS %: 2.20438  AVERAGE MISS PENALTY: 162.819
LLC5 LOAD      ACCESS: 1912852  HIT: 1861103  MISS: 51749  HIT %: 97.2947  MISS %: 2.70533  AVERAGE MISS PENALTY: 174.035
LLC5 RFO       ACCESS:  1691  HIT:   691  MISS:  1000  HIT %: 40.8634  MISS %: 59.1366  AVERAGE MISS PENALTY: 211.497
LLC5 PREFETCH  ACCESS: 10207416  HIT: 9984892  MISS: 222524  HIT %: 97.82  MISS %: 2.18002  AVERAGE MISS PENALTY: 160.065
LLC5 WRITEBACK ACCESS: 370108  HIT: 370008  MISS:   100  HIT %: 99.973  MISS %: 0.0270191  AVERAGE MISS PENALTY: 0
LLC5 PREFETCH  REQUESTED:     0  ISSUED:     0  USEFUL: 37713  USELESS: 184970
 USEFUL LOAD PREFETCHES:      37713 PREFETCH ISSUED TO LOWER LEVEL:     222524  ACCURACY: 16.9478
 TIMELY PREFETCHES:      37713 LATE PREFETCHES: 0 DROPPED PREFETCHES: 0
LLC5 AVERAGE MISS LATENCY: 162.819 cycles
LLC6 TOTAL     ACCESS: 12292890  HIT: 12015841  MISS: 277049  HIT %: 97.7463  MISS %: 2.25373  AVERAGE MISS PENALTY: 163.244
LLC6 LOAD      ACCESS: 1894585  HIT: 1842372  MISS: 52213  HIT %: 97.2441  MISS %: 2.75591  AVERAGE MISS PENALTY: 174.035
LLC6 RFO       ACCESS:  1686  HIT:   703  MISS:   983  HIT %: 41.6963  MISS %: 58.3037  AVERAGE MISS PENALTY: 214.284
LLC6 PREFETCH  ACCESS: 10022036  HIT: 9798305  MISS: 223731  HIT %: 97.7676  MISS %: 2.23239  AVERAGE MISS PENALTY: 160.59
LLC6 WRITEBACK ACCESS: 374583  HIT: 374461  MISS:   122  HIT %: 99.9674  MISS %: 0.0325696  AVERAGE MISS PENALTY: 0
LLC6 PREFETCH  REQUESTED:     0  ISSUED:     0  USEFUL: 37434  USELESS: 186256
 USEFUL LOAD PREFETCHES:      37434 PREFETCH ISSUED TO LOWER LEVEL:     223731  ACCURACY: 16.7317
 TIMELY PREFETCHES:      37434 LATE PREFETCHES: 0 DROPPED PREFETCHES: 0
LLC6 AVERAGE MISS LATENCY: 163.244 cycles
LLC7 TOTAL     ACCESS: 12061841  HIT: 11784221  MISS: 277620  HIT %: 97.6984  MISS %: 2.30164  AVERAGE MISS PENALTY: 163.439
LLC7 LOAD      ACCESS: 1921954  HIT: 1868941  MISS: 53013  HIT %: 97.2417  MISS %: 2.75829  AVERAGE MISS PENALTY: 174.2
LLC7 RFO       ACCESS:  1677  HIT:   680  MISS:   997  HIT %: 40.5486  MISS %: 59.4514  AVERAGE MISS PENALTY: 210.987
LLC7 PREFETCH  ACCESS: 9760457  HIT: 9536972  MISS: 223485  HIT %: 97.7103  MISS %: 2.2897  AVERAGE MISS PENALTY: 160.766
LLC7 WRITEBACK ACCESS: 377753  HIT: 377628  MISS:   125  HIT %: 99.9669  MISS %: 0.0330904  AVERAGE MISS PENALTY: 0
LLC7 PREFETCH  REQUESTED:     0  ISSUED:     0  USEFUL: 36723  USELESS: 186644
 USEFUL LOAD PREFETCHES:      36723 PREFETCH ISSUED TO LOWER LEVEL:     223485  ACCURACY: 16.432
 TIMELY PREFETCHES:      36723 LATE PREFETCHES: 0 DROPPED PREFETCHES: 0
LLC7 AVERAGE MISS LATENCY: 163.439 cycles
ROI Average ROB Stall Cycles:	12.5009
ROI Total ROB Stalls Cycles:	791194685
ROI TOTAL ROB counter      :	63291190
ROI Average Load ROB Stall Cycles:	68.0795
ROI Total Load ROB Stalls Cycle  :	410025728
ROI Total Load ROB stalls Counter:	6022752
Major fault: 0 Minor fault: 37417

