
*** ChampSim Multicore Out-of-Order Simulator ***

Warmup Instructions: 200000000
Simulation Instructions: 200000000
Number of CPUs: 1
threads:1

L1I Configuration:
L1I_SET:64
L1I_WAY:8
L1I_RQ_SIZE:64
L1I_WQ_SIZE:64
L1I_PQ_SIZE:8
L1I_MSHR_SIZE:8

L1D Configuration:
L1D_SET:64
L1D_WAY:12
L1D_RQ_SIZE:64
L1D_WQ_SIZE:64
L1D_PQ_SIZE:8
L1D_MSHR_SIZE:16

L2C Configuration:
L2C_SET:1024
L2C_WAY:8
L2C_RQ_SIZE:32
L2C_WQ_SIZE:32
L2C_PQ_SIZE:16
L2C_MSHR_SIZE:32

LLC Configuration:
LLC_SET:4096
LLC_WAY:16
LLC SLICES:8
LLC_RQ_SIZE:64
LLC_WQ_SIZE:64
LLC_PQ_SIZE:32
LLC_MSHR_SIZE:64

Interconnect OFF
Attacker deprioritize is: OFF
Off-chip DRAM Size: 4096 MB Channels: 1 Width: 64-bit Data Rate: 3200 MT/s
PAGE SIZE in KB: 4.000000 
PAGE SIZE in MB: 0.003906 
PAGE offset in bits: 12 
CEASER-S_LLC:0
MIRAGE : 1
CEASER_LATENCY:3
REMAP : OFF
Partitions : 1
Multi-Step : OFF
BFS : OFF

CPU 0 runs /home/anubhav/gap/bc-3.trace.gz
CPU 0 Bimodal branch predictor
Initialize Hawkeye state
Initialize Hawkeye state
Initialize Hawkeye state
Initialize Hawkeye state
Initialize Hawkeye state
Initialize Hawkeye state
Initialize Hawkeye state
Initialize Hawkeye state
Heartbeat CPU 0 instructions: 10000001 cycles: 7840182 heartbeat IPC: 1.27548 cumulative IPC: 1.27548 (Simulation time: 0 hr 3 min 38 sec) 
 Total Blocks : 524288 Invalid Blocks : 281772
Heartbeat CPU 0 instructions: 20000000 cycles: 19630827 heartbeat IPC: 0.84813 cumulative IPC: 1.01881 (Simulation time: 0 hr 7 min 45 sec) 
 Total Blocks : 524288 Invalid Blocks : 250720
Heartbeat CPU 0 instructions: 30000001 cycles: 29921944 heartbeat IPC: 0.971712 cumulative IPC: 1.00261 (Simulation time: 0 hr 12 min 14 sec) 
 Total Blocks : 524288 Invalid Blocks : 220868
Heartbeat CPU 0 instructions: 40000003 cycles: 39775125 heartbeat IPC: 1.0149 cumulative IPC: 1.00565 (Simulation time: 0 hr 16 min 58 sec) 
 Total Blocks : 524288 Invalid Blocks : 193391
Heartbeat CPU 0 instructions: 50000000 cycles: 49587445 heartbeat IPC: 1.01913 cumulative IPC: 1.00832 (Simulation time: 0 hr 21 min 32 sec) 
 Total Blocks : 524288 Invalid Blocks : 169357
Heartbeat CPU 0 instructions: 60000000 cycles: 59381197 heartbeat IPC: 1.02106 cumulative IPC: 1.01042 (Simulation time: 0 hr 26 min 13 sec) 
 Total Blocks : 524288 Invalid Blocks : 148423
Heartbeat CPU 0 instructions: 70000002 cycles: 69085914 heartbeat IPC: 1.03043 cumulative IPC: 1.01323 (Simulation time: 0 hr 30 min 44 sec) 
 Total Blocks : 524288 Invalid Blocks : 130356
Heartbeat CPU 0 instructions: 80000003 cycles: 78729376 heartbeat IPC: 1.03697 cumulative IPC: 1.01614 (Simulation time: 0 hr 35 min 18 sec) 
 Total Blocks : 524288 Invalid Blocks : 113957
Heartbeat CPU 0 instructions: 90000000 cycles: 88315805 heartbeat IPC: 1.04314 cumulative IPC: 1.01907 (Simulation time: 0 hr 39 min 58 sec) 
 Total Blocks : 524288 Invalid Blocks : 99826
Heartbeat CPU 0 instructions: 100000002 cycles: 97801411 heartbeat IPC: 1.05423 cumulative IPC: 1.02248 (Simulation time: 0 hr 44 min 35 sec) 
 Total Blocks : 524288 Invalid Blocks : 87443
Heartbeat CPU 0 instructions: 110000000 cycles: 107312127 heartbeat IPC: 1.05145 cumulative IPC: 1.02505 (Simulation time: 0 hr 49 min 13 sec) 
 Total Blocks : 524288 Invalid Blocks : 76595
Heartbeat CPU 0 instructions: 120000000 cycles: 116653283 heartbeat IPC: 1.07053 cumulative IPC: 1.02869 (Simulation time: 0 hr 53 min 59 sec) 
 Total Blocks : 524288 Invalid Blocks : 66968
Heartbeat CPU 0 instructions: 130000001 cycles: 126120405 heartbeat IPC: 1.05629 cumulative IPC: 1.03076 (Simulation time: 0 hr 59 min 5 sec) 
 Total Blocks : 524288 Invalid Blocks : 58550
Heartbeat CPU 0 instructions: 140000000 cycles: 135517556 heartbeat IPC: 1.06415 cumulative IPC: 1.03308 (Simulation time: 1 hr 4 min 2 sec) 
 Total Blocks : 524288 Invalid Blocks : 51059
Heartbeat CPU 0 instructions: 150000000 cycles: 144910217 heartbeat IPC: 1.06466 cumulative IPC: 1.03512 (Simulation time: 1 hr 8 min 50 sec) 
 Total Blocks : 524288 Invalid Blocks : 44800
Heartbeat CPU 0 instructions: 160000000 cycles: 154083539 heartbeat IPC: 1.09012 cumulative IPC: 1.0384 (Simulation time: 1 hr 13 min 49 sec) 
 Total Blocks : 524288 Invalid Blocks : 38753
Heartbeat CPU 0 instructions: 170000000 cycles: 163115636 heartbeat IPC: 1.10716 cumulative IPC: 1.04221 (Simulation time: 1 hr 18 min 42 sec) 
 Total Blocks : 524288 Invalid Blocks : 33472
Heartbeat CPU 0 instructions: 180000003 cycles: 171969856 heartbeat IPC: 1.12941 cumulative IPC: 1.0467 (Simulation time: 1 hr 23 min 34 sec) 
 Total Blocks : 524288 Invalid Blocks : 28253
Heartbeat CPU 0 instructions: 190000002 cycles: 180770419 heartbeat IPC: 1.13629 cumulative IPC: 1.05106 (Simulation time: 1 hr 27 min 58 sec) 
 Total Blocks : 524288 Invalid Blocks : 23748
Heartbeat CPU 0 instructions: 200000002 cycles: 189535186 heartbeat IPC: 1.14093 cumulative IPC: 1.05521 (Simulation time: 1 hr 32 min 23 sec) 
 Total Blocks : 524288 Invalid Blocks : 19828

Warmup complete CPU 0 instructions: 200000002 cycles: 189535186 (Simulation time: 1 hr 32 min 23 sec) 

Heartbeat CPU 0 instructions: 210000002 cycles: 229554760 heartbeat IPC: 0.249878 cumulative IPC: 0.249878 (Simulation time: 1 hr 41 min 16 sec) 
 Total Blocks : 524288 Invalid Blocks : 16495
Heartbeat CPU 0 instructions: 220000000 cycles: 269644040 heartbeat IPC: 0.249443 cumulative IPC: 0.24966 (Simulation time: 1 hr 50 min 29 sec) 
 Total Blocks : 524288 Invalid Blocks : 13761
Heartbeat CPU 0 instructions: 230000000 cycles: 309645024 heartbeat IPC: 0.249994 cumulative IPC: 0.249771 (Simulation time: 1 hr 59 min 10 sec) 
 Total Blocks : 524288 Invalid Blocks : 11383
Heartbeat CPU 0 instructions: 240000001 cycles: 349518967 heartbeat IPC: 0.25079 cumulative IPC: 0.250025 (Simulation time: 2 hr 7 min 41 sec) 
 Total Blocks : 524288 Invalid Blocks : 9550
Heartbeat CPU 0 instructions: 250000001 cycles: 389584327 heartbeat IPC: 0.249592 cumulative IPC: 0.249939 (Simulation time: 2 hr 16 min 4 sec) 
 Total Blocks : 524288 Invalid Blocks : 7956
Heartbeat CPU 0 instructions: 260000000 cycles: 429539740 heartbeat IPC: 0.250279 cumulative IPC: 0.249995 (Simulation time: 2 hr 24 min 26 sec) 
 Total Blocks : 524288 Invalid Blocks : 6584
Heartbeat CPU 0 instructions: 270000001 cycles: 469577504 heartbeat IPC: 0.249764 cumulative IPC: 0.249962 (Simulation time: 2 hr 31 min 58 sec) 
 Total Blocks : 524288 Invalid Blocks : 5508
Heartbeat CPU 0 instructions: 280000001 cycles: 509598185 heartbeat IPC: 0.249871 cumulative IPC: 0.249951 (Simulation time: 2 hr 38 min 24 sec) 
 Total Blocks : 524288 Invalid Blocks : 4629
Heartbeat CPU 0 instructions: 290000000 cycles: 549459987 heartbeat IPC: 0.250867 cumulative IPC: 0.250052 (Simulation time: 2 hr 44 min 14 sec) 
 Total Blocks : 524288 Invalid Blocks : 3803
Heartbeat CPU 0 instructions: 300000000 cycles: 589489758 heartbeat IPC: 0.249814 cumulative IPC: 0.250028 (Simulation time: 2 hr 50 min 0 sec) 
 Total Blocks : 524288 Invalid Blocks : 3181
Heartbeat CPU 0 instructions: 310000002 cycles: 629428125 heartbeat IPC: 0.250386 cumulative IPC: 0.250061 (Simulation time: 2 hr 55 min 39 sec) 
 Total Blocks : 524288 Invalid Blocks : 2651
Heartbeat CPU 0 instructions: 320000000 cycles: 669434059 heartbeat IPC: 0.249963 cumulative IPC: 0.250053 (Simulation time: 3 hr 1 min 12 sec) 
 Total Blocks : 524288 Invalid Blocks : 2198
Heartbeat CPU 0 instructions: 330000000 cycles: 712907043 heartbeat IPC: 0.230028 cumulative IPC: 0.248389 (Simulation time: 3 hr 5 min 50 sec) 
 Total Blocks : 524288 Invalid Blocks : 1781
Heartbeat CPU 0 instructions: 340000002 cycles: 758909994 heartbeat IPC: 0.217377 cumulative IPC: 0.245884 (Simulation time: 3 hr 9 min 14 sec) 
 Total Blocks : 524288 Invalid Blocks : 1378
Heartbeat CPU 0 instructions: 350000001 cycles: 805187699 heartbeat IPC: 0.216087 cumulative IPC: 0.243644 (Simulation time: 3 hr 12 min 36 sec) 
 Total Blocks : 524288 Invalid Blocks : 1046
Heartbeat CPU 0 instructions: 360000000 cycles: 844765301 heartbeat IPC: 0.252668 cumulative IPC: 0.244189 (Simulation time: 3 hr 15 min 51 sec) 
 Total Blocks : 524288 Invalid Blocks : 763
Heartbeat CPU 0 instructions: 370000000 cycles: 869110093 heartbeat IPC: 0.410765 cumulative IPC: 0.250156 (Simulation time: 3 hr 18 min 50 sec) 
 Total Blocks : 524288 Invalid Blocks : 561
Heartbeat CPU 0 instructions: 380000000 cycles: 895291135 heartbeat IPC: 0.381956 cumulative IPC: 0.255046 (Simulation time: 3 hr 21 min 50 sec) 
 Total Blocks : 524288 Invalid Blocks : 392
Heartbeat CPU 0 instructions: 390000001 cycles: 927065710 heartbeat IPC: 0.314717 cumulative IPC: 0.257616 (Simulation time: 3 hr 24 min 58 sec) 
 Total Blocks : 524288 Invalid Blocks : 285
Heartbeat CPU 0 instructions: 400000001 cycles: 964547693 heartbeat IPC: 0.266795 cumulative IPC: 0.25806 (Simulation time: 3 hr 28 min 20 sec) 
 Total Blocks : 524288 Invalid Blocks : 171
Finished CPU 0 instructions: 200000003 cycles: 775012509 cumulative IPC: 0.25806 (Simulation time: 3 hr 28 min 20 sec) 

CPU 0 Branch Prediction Accuracy: 93.7169% MPKI: 14.5239 Average ROB Occupancy at Mispredict: 64.8356

ChampSim completed all CPUs

Region of Interest Statistics

CPU 0 cumulative IPC: 0.25806 instructions: 200000003 cycles: 775012509
ITLB TOTAL     ACCESS: 29391525  HIT: 29391525  MISS:     0  HIT %:   100  MISS %:     0  AVERAGE MISS PENALTY: 0
ITLB LOAD      ACCESS: 29391525  HIT: 29391525  MISS:     0  HIT %:   100  MISS %:     0  AVERAGE MISS PENALTY: 0
ITLB RFO       ACCESS:     0  HIT:     0  MISS:     0  HIT %:     0  MISS %:     0  AVERAGE MISS PENALTY: 0
ITLB PREFETCH  ACCESS:     0  HIT:     0  MISS:     0  HIT %:     0  MISS %:     0  AVERAGE MISS PENALTY: 0
ITLB WRITEBACK ACCESS:     0  HIT:     0  MISS:     0  HIT %:     0  MISS %:     0  AVERAGE MISS PENALTY: 0
ITLB PREFETCH  REQUESTED:     0  ISSUED:     0  USEFUL:     0  USELESS:     0
 USEFUL LOAD PREFETCHES:          0 PREFETCH ISSUED TO LOWER LEVEL:          0  ACCURACY: -nan
 TIMELY PREFETCHES:          0 LATE PREFETCHES: 0 DROPPED PREFETCHES: 0
ITLB AVERAGE MISS LATENCY: -nan cycles
DTLB TOTAL     ACCESS: 42257446  HIT: 27315831  MISS: 14941615  HIT %: 64.6415  MISS %: 35.3585  AVERAGE MISS PENALTY: 32.6093
DTLB LOAD      ACCESS: 37504659  HIT: 24692359  MISS: 12812300  HIT %: 65.8381  MISS %: 34.1619  AVERAGE MISS PENALTY: 26.737
DTLB RFO       ACCESS: 4752787  HIT: 2623472  MISS: 2129315  HIT %: 55.1986  MISS %: 44.8014  AVERAGE MISS PENALTY: 67.9438
DTLB PREFETCH  ACCESS:     0  HIT:     0  MISS:     0  HIT %:     0  MISS %:     0  AVERAGE MISS PENALTY: 0
DTLB WRITEBACK ACCESS:     0  HIT:     0  MISS:     0  HIT %:     0  MISS %:     0  AVERAGE MISS PENALTY: 0
DTLB PREFETCH  REQUESTED:     0  ISSUED:     0  USEFUL:     0  USELESS:     0
 USEFUL LOAD PREFETCHES:          0 PREFETCH ISSUED TO LOWER LEVEL:          0  ACCURACY: -nan
 TIMELY PREFETCHES:          0 LATE PREFETCHES: 0 DROPPED PREFETCHES: 0
DTLB AVERAGE MISS LATENCY: 32.6093 cycles
STLB TOTAL     ACCESS: 14941615  HIT: 13115046  MISS: 1826569  HIT %: 87.7753  MISS %: 12.2247  AVERAGE MISS PENALTY: 100
STLB LOAD      ACCESS: 12812300  HIT: 12060115  MISS: 752185  HIT %: 94.1292  MISS %: 5.8708  AVERAGE MISS PENALTY: 100
STLB RFO       ACCESS: 2129315  HIT: 1054931  MISS: 1074384  HIT %: 49.5432  MISS %: 50.4568  AVERAGE MISS PENALTY: 100
STLB PREFETCH  ACCESS:     0  HIT:     0  MISS:     0  HIT %:     0  MISS %:     0  AVERAGE MISS PENALTY: 0
STLB WRITEBACK ACCESS:     0  HIT:     0  MISS:     0  HIT %:     0  MISS %:     0  AVERAGE MISS PENALTY: 0
STLB PREFETCH  REQUESTED:     0  ISSUED:     0  USEFUL:     0  USELESS:     0
 USEFUL LOAD PREFETCHES:          0 PREFETCH ISSUED TO LOWER LEVEL:          0  ACCURACY: -nan
 TIMELY PREFETCHES:          0 LATE PREFETCHES: 0 DROPPED PREFETCHES: 0
STLB AVERAGE MISS LATENCY: 100 cycles
L1D TOTAL     ACCESS: 88964767  HIT: 27772649  MISS: 61192118  HIT %: 31.2176  MISS %: 68.7824  AVERAGE MISS PENALTY: 221844
L1D LOAD      ACCESS: 38052750  HIT: 20376694  MISS: 17676056  HIT %: 53.5485  MISS %: 46.4515  AVERAGE MISS PENALTY: 767864
L1D RFO       ACCESS: 4848155  HIT: 4809063  MISS: 39092  HIT %: 99.1937  MISS %: 0.806327  AVERAGE MISS PENALTY: 64.6636
L1D PREFETCH  ACCESS: 46063862  HIT: 2586892  MISS: 43476970  HIT %: 5.61588  MISS %: 94.3841  AVERAGE MISS PENALTY: 52.3494
L1D WRITEBACK ACCESS:     0  HIT:     0  MISS:     0  HIT %:     0  MISS %:     0  AVERAGE MISS PENALTY: 0
L1D PREFETCH  REQUESTED: 88165150  ISSUED: 46359886  USEFUL: 928180  USELESS: 42548836
 USEFUL LOAD PREFETCHES:     928180 PREFETCH ISSUED TO LOWER LEVEL:  167549342  ACCURACY: 0.553974
 TIMELY PREFETCHES:     928180 LATE PREFETCHES: 98732 DROPPED PREFETCHES: 41805264
L1D AVERAGE MISS LATENCY: 54.4806 cycles
L1I TOTAL     ACCESS: 45090642  HIT: 45090642  MISS:     0  HIT %:   100  MISS %:     0  AVERAGE MISS PENALTY: 0
L1I LOAD      ACCESS: 45090642  HIT: 45090642  MISS:     0  HIT %:   100  MISS %:     0  AVERAGE MISS PENALTY: 0
L1I RFO       ACCESS:     0  HIT:     0  MISS:     0  HIT %:     0  MISS %:     0  AVERAGE MISS PENALTY: 0
L1I PREFETCH  ACCESS:     0  HIT:     0  MISS:     0  HIT %:     0  MISS %:     0  AVERAGE MISS PENALTY: 0
L1I WRITEBACK ACCESS:     0  HIT:     0  MISS:     0  HIT %:     0  MISS %:     0  AVERAGE MISS PENALTY: 0
L1I PREFETCH  REQUESTED:     0  ISSUED:     0  USEFUL:     0  USELESS:     0
 USEFUL LOAD PREFETCHES:          0 PREFETCH ISSUED TO LOWER LEVEL:          0  ACCURACY: -nan
 TIMELY PREFETCHES:          0 LATE PREFETCHES: 0 DROPPED PREFETCHES: 0
L1I AVERAGE MISS LATENCY: -nan cycles
L2C TOTAL     ACCESS: 115171004  HIT: 21912056  MISS: 93258948  HIT %: 19.0257  MISS %: 80.9743  AVERAGE MISS PENALTY: 86764.8
L2C LOAD      ACCESS: 17675129  HIT: 2463077  MISS: 15212052  HIT %: 13.9353  MISS %: 86.0647  AVERAGE MISS PENALTY: 531686
L2C RFO       ACCESS: 39077  HIT: 27476  MISS: 11601  HIT %: 70.3125  MISS %: 29.6875  AVERAGE MISS PENALTY: 156.857
L2C PREFETCH  ACCESS: 94998629  HIT: 16968063  MISS: 78030566  HIT %: 17.8614  MISS %: 82.1386  AVERAGE MISS PENALTY: 45.5983
L2C WRITEBACK ACCESS: 2458169  HIT: 2453440  MISS:  4729  HIT %: 99.8076  MISS %: 0.192379  AVERAGE MISS PENALTY: 0
L2C PREFETCH  REQUESTED: 198574346  ISSUED: 176250583  USEFUL: 1164561  USELESS: 76866287
 USEFUL LOAD PREFETCHES:    1164561 PREFETCH ISSUED TO LOWER LEVEL:   83206094  ACCURACY: 1.39961
 TIMELY PREFETCHES:    1164561 LATE PREFETCHES: 280968 DROPPED PREFETCHES: 22323763
L2C AVERAGE MISS LATENCY: 43.6469 cycles
LLC0 TOTAL     ACCESS: 12311917  HIT: 12010299  MISS: 301618  HIT %: 97.5502  MISS %: 2.44981  AVERAGE MISS PENALTY: 159.258
LLC0 LOAD      ACCESS: 1932371  HIT: 1851656  MISS: 80715  HIT %: 95.823  MISS %: 4.17699  AVERAGE MISS PENALTY: 170.107
LLC0 RFO       ACCESS:  1440  HIT:   634  MISS:   806  HIT %: 44.0278  MISS %: 55.9722  AVERAGE MISS PENALTY: 201.237
LLC0 PREFETCH  ACCESS: 10078843  HIT: 9858837  MISS: 220006  HIT %: 97.8172  MISS %: 2.18285  AVERAGE MISS PENALTY: 155.19
LLC0 WRITEBACK ACCESS: 299263  HIT: 299172  MISS:    91  HIT %: 99.9696  MISS %: 0.030408  AVERAGE MISS PENALTY: 0
LLC0 PREFETCH  REQUESTED:     0  ISSUED:     0  USEFUL: 39231  USELESS: 185231
 USEFUL LOAD PREFETCHES:      39231 PREFETCH ISSUED TO LOWER LEVEL:     220006  ACCURACY: 17.8318
 TIMELY PREFETCHES:      39231 LATE PREFETCHES: 0 DROPPED PREFETCHES: 0
LLC0 AVERAGE MISS LATENCY: 159.258 cycles
Deadblocks : 62574 Deadblock percentage : 77.5246

LLC1 TOTAL     ACCESS: 12255820  HIT: 11950870  MISS: 304950  HIT %: 97.5118  MISS %: 2.48821  AVERAGE MISS PENALTY: 159.235
LLC1 LOAD      ACCESS: 1895936  HIT: 1829411  MISS: 66525  HIT %: 96.4912  MISS %: 3.50882  AVERAGE MISS PENALTY: 171.083
LLC1 RFO       ACCESS:  1471  HIT:   688  MISS:   783  HIT %: 46.7709  MISS %: 53.2291  AVERAGE MISS PENALTY: 200.89
LLC1 PREFETCH  ACCESS: 10056522  HIT: 9819003  MISS: 237519  HIT %: 97.6382  MISS %: 2.36184  AVERAGE MISS PENALTY: 155.862
LLC1 WRITEBACK ACCESS: 301891  HIT: 301768  MISS:   123  HIT %: 99.9593  MISS %: 0.0407432  AVERAGE MISS PENALTY: 0
LLC1 PREFETCH  REQUESTED:     0  ISSUED:     0  USEFUL: 40196  USELESS: 203992
 USEFUL LOAD PREFETCHES:      40196 PREFETCH ISSUED TO LOWER LEVEL:     237519  ACCURACY: 16.9233
 TIMELY PREFETCHES:      40196 LATE PREFETCHES: 0 DROPPED PREFETCHES: 0
LLC1 AVERAGE MISS LATENCY: 159.235 cycles
LLC2 TOTAL     ACCESS: 12193412  HIT: 11885831  MISS: 307581  HIT %: 97.4775  MISS %: 2.52252  AVERAGE MISS PENALTY: 159.856
LLC2 LOAD      ACCESS: 1893137  HIT: 1827193  MISS: 65944  HIT %: 96.5167  MISS %: 3.48332  AVERAGE MISS PENALTY: 171.152
LLC2 RFO       ACCESS:  1455  HIT:   650  MISS:   805  HIT %: 44.6735  MISS %: 55.3265  AVERAGE MISS PENALTY: 203.65
LLC2 PREFETCH  ACCESS: 9999145  HIT: 9758409  MISS: 240736  HIT %: 97.5924  MISS %: 2.40757  AVERAGE MISS PENALTY: 156.679
LLC2 WRITEBACK ACCESS: 299675  HIT: 299579  MISS:    96  HIT %: 99.968  MISS %: 0.0320347  AVERAGE MISS PENALTY: 0
LLC2 PREFETCH  REQUESTED:     0  ISSUED:     0  USEFUL: 40805  USELESS: 206570
 USEFUL LOAD PREFETCHES:      40805 PREFETCH ISSUED TO LOWER LEVEL:     240736  ACCURACY: 16.9501
 TIMELY PREFETCHES:      40805 LATE PREFETCHES: 0 DROPPED PREFETCHES: 0
LLC2 AVERAGE MISS LATENCY: 159.856 cycles
LLC3 TOTAL     ACCESS: 12109868  HIT: 11799381  MISS: 310487  HIT %: 97.4361  MISS %: 2.56392  AVERAGE MISS PENALTY: 160.309
LLC3 LOAD      ACCESS: 1907310  HIT: 1840752  MISS: 66558  HIT %: 96.5104  MISS %: 3.48963  AVERAGE MISS PENALTY: 171.23
LLC3 RFO       ACCESS:  1458  HIT:   655  MISS:   803  HIT %: 44.9246  MISS %: 55.0754  AVERAGE MISS PENALTY: 209.065
LLC3 PREFETCH  ACCESS: 9902339  HIT: 9659317  MISS: 243022  HIT %: 97.5458  MISS %: 2.45419  AVERAGE MISS PENALTY: 157.225
LLC3 WRITEBACK ACCESS: 298761  HIT: 298657  MISS:   104  HIT %: 99.9652  MISS %: 0.0348104  AVERAGE MISS PENALTY: 0
LLC3 PREFETCH  REQUESTED:     0  ISSUED:     0  USEFUL: 40959  USELESS: 208749
 USEFUL LOAD PREFETCHES:      40959 PREFETCH ISSUED TO LOWER LEVEL:     243022  ACCURACY: 16.854
 TIMELY PREFETCHES:      40959 LATE PREFETCHES: 0 DROPPED PREFETCHES: 0
LLC3 AVERAGE MISS LATENCY: 160.309 cycles
LLC4 TOTAL     ACCESS: 11973515  HIT: 11660434  MISS: 313081  HIT %: 97.3852  MISS %: 2.61478  AVERAGE MISS PENALTY: 160.729
LLC4 LOAD      ACCESS: 1895526  HIT: 1828659  MISS: 66867  HIT %: 96.4724  MISS %: 3.52762  AVERAGE MISS PENALTY: 171.263
LLC4 RFO       ACCESS:  1443  HIT:   638  MISS:   805  HIT %: 44.2134  MISS %: 55.7866  AVERAGE MISS PENALTY: 202.914
LLC4 PREFETCH  ACCESS: 9776395  HIT: 9531085  MISS: 245310  HIT %: 97.4908  MISS %: 2.50921  AVERAGE MISS PENALTY: 157.784
LLC4 WRITEBACK ACCESS: 300151  HIT: 300052  MISS:    99  HIT %: 99.967  MISS %: 0.0329834  AVERAGE MISS PENALTY: 0
LLC4 PREFETCH  REQUESTED:     0  ISSUED:     0  USEFUL: 41047  USELESS: 210700
 USEFUL LOAD PREFETCHES:      41047 PREFETCH ISSUED TO LOWER LEVEL:     245310  ACCURACY: 16.7327
 TIMELY PREFETCHES:      41047 LATE PREFETCHES: 0 DROPPED PREFETCHES: 0
LLC4 AVERAGE MISS LATENCY: 160.729 cycles
LLC5 TOTAL     ACCESS: 11819181  HIT: 11504640  MISS: 314541  HIT %: 97.3387  MISS %: 2.66128  AVERAGE MISS PENALTY: 160.714
LLC5 LOAD      ACCESS: 1888704  HIT: 1821944  MISS: 66760  HIT %: 96.4653  MISS %: 3.5347  AVERAGE MISS PENALTY: 171.005
LLC5 RFO       ACCESS:  1459  HIT:   643  MISS:   816  HIT %: 44.0713  MISS %: 55.9287  AVERAGE MISS PENALTY: 208.358
LLC5 PREFETCH  ACCESS: 9626509  HIT: 9379678  MISS: 246831  HIT %: 97.4359  MISS %: 2.56408  AVERAGE MISS PENALTY: 157.86
LLC5 WRITEBACK ACCESS: 302509  HIT: 302375  MISS:   134  HIT %: 99.9557  MISS %: 0.0442962  AVERAGE MISS PENALTY: 0
LLC5 PREFETCH  REQUESTED:     0  ISSUED:     0  USEFUL: 40872  USELESS: 212407
 USEFUL LOAD PREFETCHES:      40872 PREFETCH ISSUED TO LOWER LEVEL:     246831  ACCURACY: 16.5587
 TIMELY PREFETCHES:      40872 LATE PREFETCHES: 0 DROPPED PREFETCHES: 0
LLC5 AVERAGE MISS LATENCY: 160.714 cycles
LLC6 TOTAL     ACCESS: 11629143  HIT: 11313159  MISS: 315984  HIT %: 97.2828  MISS %: 2.71717  AVERAGE MISS PENALTY: 161.242
LLC6 LOAD      ACCESS: 1913454  HIT: 1845955  MISS: 67499  HIT %: 96.4724  MISS %: 3.5276  AVERAGE MISS PENALTY: 171.556
LLC6 RFO       ACCESS:  1431  HIT:   644  MISS:   787  HIT %: 45.0035  MISS %: 54.9965  AVERAGE MISS PENALTY: 202.808
LLC6 PREFETCH  ACCESS: 9407033  HIT: 9159445  MISS: 247588  HIT %: 97.3681  MISS %: 2.63195  AVERAGE MISS PENALTY: 158.37
LLC6 WRITEBACK ACCESS: 307225  HIT: 307115  MISS:   110  HIT %: 99.9642  MISS %: 0.0358044  AVERAGE MISS PENALTY: 0
LLC6 PREFETCH  REQUESTED:     0  ISSUED:     0  USEFUL: 40687  USELESS: 213137
 USEFUL LOAD PREFETCHES:      40687 PREFETCH ISSUED TO LOWER LEVEL:     247588  ACCURACY: 16.4333
 TIMELY PREFETCHES:      40687 LATE PREFETCHES: 0 DROPPED PREFETCHES: 0
LLC6 AVERAGE MISS LATENCY: 161.242 cycles
LLC7 TOTAL     ACCESS: 11371323  HIT: 11053918  MISS: 317405  HIT %: 97.2087  MISS %: 2.79128  AVERAGE MISS PENALTY: 161.368
LLC7 LOAD      ACCESS: 1880698  HIT: 1811868  MISS: 68830  HIT %: 96.3402  MISS %: 3.65981  AVERAGE MISS PENALTY: 171.628
LLC7 RFO       ACCESS:  1444  HIT:   653  MISS:   791  HIT %: 45.2216  MISS %: 54.7784  AVERAGE MISS PENALTY: 212.063
LLC7 PREFETCH  ACCESS: 9188696  HIT: 8941046  MISS: 247650  HIT %: 97.3048  MISS %: 2.69516  AVERAGE MISS PENALTY: 158.442
LLC7 WRITEBACK ACCESS: 300485  HIT: 300351  MISS:   134  HIT %: 99.9554  MISS %: 0.0445946  AVERAGE MISS PENALTY: 0
LLC7 PREFETCH  REQUESTED:     0  ISSUED:     0  USEFUL: 39571  USELESS: 214519
 USEFUL LOAD PREFETCHES:      39571 PREFETCH ISSUED TO LOWER LEVEL:     247650  ACCURACY: 15.9786
 TIMELY PREFETCHES:      39571 LATE PREFETCHES: 0 DROPPED PREFETCHES: 0
LLC7 AVERAGE MISS LATENCY: 161.368 cycles
ROI Average ROB Stall Cycles:	11.6581
ROI Total ROB Stalls Cycles:	701190263
ROI TOTAL ROB counter      :	60146444
ROI Average Load ROB Stall Cycles:	71.7673
ROI Total Load ROB Stalls Cycle  :	373839809
ROI Total Load ROB stalls Counter:	5209057
Major fault: 0 Minor fault: 37418

