
*** ChampSim Multicore Out-of-Order Simulator ***

Warmup Instructions: 200000000
Simulation Instructions: 200000000
Number of CPUs: 1
threads:1

L1I Configuration:
L1I_SET:64
L1I_WAY:8
L1I_RQ_SIZE:64
L1I_WQ_SIZE:64
L1I_PQ_SIZE:8
L1I_MSHR_SIZE:8

L1D Configuration:
L1D_SET:64
L1D_WAY:12
L1D_RQ_SIZE:64
L1D_WQ_SIZE:64
L1D_PQ_SIZE:8
L1D_MSHR_SIZE:16

L2C Configuration:
L2C_SET:1024
L2C_WAY:8
L2C_RQ_SIZE:32
L2C_WQ_SIZE:32
L2C_PQ_SIZE:16
L2C_MSHR_SIZE:32

LLC Configuration:
LLC_SET:4096
LLC_WAY:16
LLC SLICES:8
LLC_RQ_SIZE:64
LLC_WQ_SIZE:64
LLC_PQ_SIZE:32
LLC_MSHR_SIZE:64

Interconnect OFF
Attacker deprioritize is: OFF
Off-chip DRAM Size: 4096 MB Channels: 1 Width: 64-bit Data Rate: 3200 MT/s
PAGE SIZE in KB: 4.000000 
PAGE SIZE in MB: 0.003906 
PAGE offset in bits: 12 
CEASER-S_LLC:0
MIRAGE : 1
CEASER_LATENCY:3
REMAP : OFF
Partitions : 1
Multi-Step : OFF
BFS : OFF

CPU 0 runs /home/anubhav/gap/bc-5.trace.gz
CPU 0 Bimodal branch predictor
Initialize Hawkeye state
Initialize Hawkeye state
Initialize Hawkeye state
Initialize Hawkeye state
Initialize Hawkeye state
Initialize Hawkeye state
Initialize Hawkeye state
Initialize Hawkeye state
Heartbeat CPU 0 instructions: 10000003 cycles: 8563900 heartbeat IPC: 1.16769 cumulative IPC: 1.16769 (Simulation time: 0 hr 3 min 16 sec) 
 Total Blocks : 524288 Invalid Blocks : 284943
Heartbeat CPU 0 instructions: 20000000 cycles: 16258522 heartbeat IPC: 1.29961 cumulative IPC: 1.23012 (Simulation time: 0 hr 5 min 33 sec) 
 Total Blocks : 524288 Invalid Blocks : 260888
Heartbeat CPU 0 instructions: 30000003 cycles: 23224162 heartbeat IPC: 1.43562 cumulative IPC: 1.29176 (Simulation time: 0 hr 8 min 0 sec) 
 Total Blocks : 524288 Invalid Blocks : 239910
Heartbeat CPU 0 instructions: 40000002 cycles: 29755585 heartbeat IPC: 1.53106 cumulative IPC: 1.34429 (Simulation time: 0 hr 10 min 32 sec) 
 Total Blocks : 524288 Invalid Blocks : 220841
Heartbeat CPU 0 instructions: 50000001 cycles: 36291735 heartbeat IPC: 1.52995 cumulative IPC: 1.37772 (Simulation time: 0 hr 12 min 57 sec) 
 Total Blocks : 524288 Invalid Blocks : 204244
Heartbeat CPU 0 instructions: 60000003 cycles: 42559404 heartbeat IPC: 1.59549 cumulative IPC: 1.40979 (Simulation time: 0 hr 15 min 28 sec) 
 Total Blocks : 524288 Invalid Blocks : 187979
Heartbeat CPU 0 instructions: 70000000 cycles: 48830458 heartbeat IPC: 1.59463 cumulative IPC: 1.43353 (Simulation time: 0 hr 17 min 48 sec) 
 Total Blocks : 524288 Invalid Blocks : 173260
Heartbeat CPU 0 instructions: 80000002 cycles: 54913205 heartbeat IPC: 1.64399 cumulative IPC: 1.45684 (Simulation time: 0 hr 20 min 16 sec) 
 Total Blocks : 524288 Invalid Blocks : 159752
Heartbeat CPU 0 instructions: 90000000 cycles: 61006833 heartbeat IPC: 1.64106 cumulative IPC: 1.47524 (Simulation time: 0 hr 22 min 47 sec) 
 Total Blocks : 524288 Invalid Blocks : 147419
Heartbeat CPU 0 instructions: 100000003 cycles: 66908523 heartbeat IPC: 1.69443 cumulative IPC: 1.49458 (Simulation time: 0 hr 25 min 13 sec) 
 Total Blocks : 524288 Invalid Blocks : 135779
Heartbeat CPU 0 instructions: 110000000 cycles: 72947298 heartbeat IPC: 1.65596 cumulative IPC: 1.50794 (Simulation time: 0 hr 27 min 54 sec) 
 Total Blocks : 524288 Invalid Blocks : 125099
Heartbeat CPU 0 instructions: 120000000 cycles: 78968206 heartbeat IPC: 1.66088 cumulative IPC: 1.5196 (Simulation time: 0 hr 30 min 31 sec) 
 Total Blocks : 524288 Invalid Blocks : 115207
Heartbeat CPU 0 instructions: 130000000 cycles: 85003417 heartbeat IPC: 1.65694 cumulative IPC: 1.52935 (Simulation time: 0 hr 33 min 14 sec) 
 Total Blocks : 524288 Invalid Blocks : 105976
Heartbeat CPU 0 instructions: 140000001 cycles: 90109729 heartbeat IPC: 1.95836 cumulative IPC: 1.55366 (Simulation time: 0 hr 35 min 39 sec) 
 Total Blocks : 524288 Invalid Blocks : 94263
Heartbeat CPU 0 instructions: 150000000 cycles: 94286983 heartbeat IPC: 2.39392 cumulative IPC: 1.59089 (Simulation time: 0 hr 38 min 5 sec) 
 Total Blocks : 524288 Invalid Blocks : 80844
Heartbeat CPU 0 instructions: 160000000 cycles: 98413803 heartbeat IPC: 2.42317 cumulative IPC: 1.62579 (Simulation time: 0 hr 40 min 26 sec) 
 Total Blocks : 524288 Invalid Blocks : 69151
Heartbeat CPU 0 instructions: 170000000 cycles: 102486043 heartbeat IPC: 2.45565 cumulative IPC: 1.65876 (Simulation time: 0 hr 42 min 46 sec) 
 Total Blocks : 524288 Invalid Blocks : 58440
Heartbeat CPU 0 instructions: 180000002 cycles: 106532009 heartbeat IPC: 2.4716 cumulative IPC: 1.68963 (Simulation time: 0 hr 45 min 10 sec) 
 Total Blocks : 524288 Invalid Blocks : 49134
Heartbeat CPU 0 instructions: 190000000 cycles: 110540886 heartbeat IPC: 2.49446 cumulative IPC: 1.71882 (Simulation time: 0 hr 47 min 39 sec) 
 Total Blocks : 524288 Invalid Blocks : 41455
Heartbeat CPU 0 instructions: 200000001 cycles: 114539242 heartbeat IPC: 2.50103 cumulative IPC: 1.74613 (Simulation time: 0 hr 50 min 9 sec) 
 Total Blocks : 524288 Invalid Blocks : 34805

Warmup complete CPU 0 instructions: 200000001 cycles: 114539242 (Simulation time: 0 hr 50 min 9 sec) 

Heartbeat CPU 0 instructions: 210000002 cycles: 131729887 heartbeat IPC: 0.581712 cumulative IPC: 0.581712 (Simulation time: 0 hr 55 min 13 sec) 
 Total Blocks : 524288 Invalid Blocks : 29210
Heartbeat CPU 0 instructions: 220000000 cycles: 149530188 heartbeat IPC: 0.561788 cumulative IPC: 0.571576 (Simulation time: 1 hr 0 min 9 sec) 
 Total Blocks : 524288 Invalid Blocks : 24298
Heartbeat CPU 0 instructions: 230000001 cycles: 167891181 heartbeat IPC: 0.544633 cumulative IPC: 0.562304 (Simulation time: 1 hr 6 min 3 sec) 
 Total Blocks : 524288 Invalid Blocks : 20178
Heartbeat CPU 0 instructions: 240000001 cycles: 186410805 heartbeat IPC: 0.539968 cumulative IPC: 0.556548 (Simulation time: 1 hr 11 min 8 sec) 
 Total Blocks : 524288 Invalid Blocks : 16682
Heartbeat CPU 0 instructions: 250000001 cycles: 205296133 heartbeat IPC: 0.529512 cumulative IPC: 0.550922 (Simulation time: 1 hr 16 min 26 sec) 
 Total Blocks : 524288 Invalid Blocks : 13805
Heartbeat CPU 0 instructions: 260000003 cycles: 224654333 heartbeat IPC: 0.516577 cumulative IPC: 0.544884 (Simulation time: 1 hr 21 min 34 sec) 
 Total Blocks : 524288 Invalid Blocks : 11239
Heartbeat CPU 0 instructions: 270000001 cycles: 244457366 heartbeat IPC: 0.504973 cumulative IPC: 0.538801 (Simulation time: 1 hr 26 min 41 sec) 
 Total Blocks : 524288 Invalid Blocks : 9093
Heartbeat CPU 0 instructions: 280000002 cycles: 264070850 heartbeat IPC: 0.509853 cumulative IPC: 0.535004 (Simulation time: 1 hr 31 min 36 sec) 
 Total Blocks : 524288 Invalid Blocks : 7283
Heartbeat CPU 0 instructions: 290000001 cycles: 284635104 heartbeat IPC: 0.486281 cumulative IPC: 0.529113 (Simulation time: 1 hr 36 min 28 sec) 
 Total Blocks : 524288 Invalid Blocks : 5861
Heartbeat CPU 0 instructions: 300000001 cycles: 306007911 heartbeat IPC: 0.467884 cumulative IPC: 0.522279 (Simulation time: 1 hr 41 min 7 sec) 
 Total Blocks : 524288 Invalid Blocks : 4656
Heartbeat CPU 0 instructions: 310000003 cycles: 328072911 heartbeat IPC: 0.453207 cumulative IPC: 0.515141 (Simulation time: 1 hr 45 min 42 sec) 
 Total Blocks : 524288 Invalid Blocks : 3633
Heartbeat CPU 0 instructions: 320000000 cycles: 350483333 heartbeat IPC: 0.446221 cumulative IPC: 0.508595 (Simulation time: 1 hr 50 min 18 sec) 
 Total Blocks : 524288 Invalid Blocks : 2846
Heartbeat CPU 0 instructions: 330000000 cycles: 374483932 heartbeat IPC: 0.416656 cumulative IPC: 0.500106 (Simulation time: 1 hr 54 min 51 sec) 
 Total Blocks : 524288 Invalid Blocks : 2159
Heartbeat CPU 0 instructions: 340000001 cycles: 399564359 heartbeat IPC: 0.398717 cumulative IPC: 0.491185 (Simulation time: 1 hr 59 min 28 sec) 
 Total Blocks : 524288 Invalid Blocks : 1633
Heartbeat CPU 0 instructions: 350000000 cycles: 425897248 heartbeat IPC: 0.379753 cumulative IPC: 0.481761 (Simulation time: 2 hr 3 min 58 sec) 
 Total Blocks : 524288 Invalid Blocks : 1214
Heartbeat CPU 0 instructions: 360000002 cycles: 454355067 heartbeat IPC: 0.351397 cumulative IPC: 0.470843 (Simulation time: 2 hr 8 min 30 sec) 
 Total Blocks : 524288 Invalid Blocks : 896
Heartbeat CPU 0 instructions: 370000000 cycles: 484937823 heartbeat IPC: 0.326982 cumulative IPC: 0.458965 (Simulation time: 2 hr 12 min 52 sec) 
 Total Blocks : 524288 Invalid Blocks : 635
Heartbeat CPU 0 instructions: 380000003 cycles: 518709359 heartbeat IPC: 0.296107 cumulative IPC: 0.445357 (Simulation time: 2 hr 17 min 3 sec) 
 Total Blocks : 524288 Invalid Blocks : 406
Heartbeat CPU 0 instructions: 390000001 cycles: 555860093 heartbeat IPC: 0.269174 cumulative IPC: 0.430526 (Simulation time: 2 hr 21 min 30 sec) 
 Total Blocks : 524288 Invalid Blocks : 256
Heartbeat CPU 0 instructions: 400000003 cycles: 600428757 heartbeat IPC: 0.224373 cumulative IPC: 0.411616 (Simulation time: 2 hr 26 min 9 sec) 
 Total Blocks : 524288 Invalid Blocks : 169
Finished CPU 0 instructions: 200000002 cycles: 485889515 cumulative IPC: 0.411616 (Simulation time: 2 hr 26 min 9 sec) 

CPU 0 Branch Prediction Accuracy: 98.7961% MPKI: 3.18998 Average ROB Occupancy at Mispredict: 185.895

ChampSim completed all CPUs

Region of Interest Statistics

CPU 0 cumulative IPC: 0.411616 instructions: 200000002 cycles: 485889515
ITLB TOTAL     ACCESS: 40487631  HIT: 40487631  MISS:     0  HIT %:   100  MISS %:     0  AVERAGE MISS PENALTY: 0
ITLB LOAD      ACCESS: 40487631  HIT: 40487631  MISS:     0  HIT %:   100  MISS %:     0  AVERAGE MISS PENALTY: 0
ITLB RFO       ACCESS:     0  HIT:     0  MISS:     0  HIT %:     0  MISS %:     0  AVERAGE MISS PENALTY: 0
ITLB PREFETCH  ACCESS:     0  HIT:     0  MISS:     0  HIT %:     0  MISS %:     0  AVERAGE MISS PENALTY: 0
ITLB WRITEBACK ACCESS:     0  HIT:     0  MISS:     0  HIT %:     0  MISS %:     0  AVERAGE MISS PENALTY: 0
ITLB PREFETCH  REQUESTED:     0  ISSUED:     0  USEFUL:     0  USELESS:     0
 USEFUL LOAD PREFETCHES:          0 PREFETCH ISSUED TO LOWER LEVEL:          0  ACCURACY: -nan
 TIMELY PREFETCHES:          0 LATE PREFETCHES: 0 DROPPED PREFETCHES: 0
ITLB AVERAGE MISS LATENCY: -nan cycles
DTLB TOTAL     ACCESS: 35022363  HIT: 19940294  MISS: 15082069  HIT %: 56.9359  MISS %: 43.0641  AVERAGE MISS PENALTY: 17.2698
DTLB LOAD      ACCESS: 33962902  HIT: 19380111  MISS: 14582791  HIT %: 57.0626  MISS %: 42.9374  AVERAGE MISS PENALTY: 15.2306
DTLB RFO       ACCESS: 1059461  HIT: 560183  MISS: 499278  HIT %: 52.8743  MISS %: 47.1257  AVERAGE MISS PENALTY: 76.8301
DTLB PREFETCH  ACCESS:     0  HIT:     0  MISS:     0  HIT %:     0  MISS %:     0  AVERAGE MISS PENALTY: 0
DTLB WRITEBACK ACCESS:     0  HIT:     0  MISS:     0  HIT %:     0  MISS %:     0  AVERAGE MISS PENALTY: 0
DTLB PREFETCH  REQUESTED:     0  ISSUED:     0  USEFUL:     0  USELESS:     0
 USEFUL LOAD PREFETCHES:          0 PREFETCH ISSUED TO LOWER LEVEL:          0  ACCURACY: -nan
 TIMELY PREFETCHES:          0 LATE PREFETCHES: 0 DROPPED PREFETCHES: 0
DTLB AVERAGE MISS LATENCY: 17.2698 cycles
STLB TOTAL     ACCESS: 15082069  HIT: 14350265  MISS: 731804  HIT %: 95.1479  MISS %: 4.85215  AVERAGE MISS PENALTY: 100
STLB LOAD      ACCESS: 14582791  HIT: 14140482  MISS: 442309  HIT %: 96.9669  MISS %: 3.03309  AVERAGE MISS PENALTY: 100
STLB RFO       ACCESS: 499278  HIT: 209783  MISS: 289495  HIT %: 42.0173  MISS %: 57.9827  AVERAGE MISS PENALTY: 100
STLB PREFETCH  ACCESS:     0  HIT:     0  MISS:     0  HIT %:     0  MISS %:     0  AVERAGE MISS PENALTY: 0
STLB WRITEBACK ACCESS:     0  HIT:     0  MISS:     0  HIT %:     0  MISS %:     0  AVERAGE MISS PENALTY: 0
STLB PREFETCH  REQUESTED:     0  ISSUED:     0  USEFUL:     0  USELESS:     0
 USEFUL LOAD PREFETCHES:          0 PREFETCH ISSUED TO LOWER LEVEL:          0  ACCURACY: -nan
 TIMELY PREFETCHES:          0 LATE PREFETCHES: 0 DROPPED PREFETCHES: 0
STLB AVERAGE MISS LATENCY: 100 cycles
L1D TOTAL     ACCESS: 36188826  HIT: 16763910  MISS: 19424916  HIT %: 46.3234  MISS %: 53.6766  AVERAGE MISS PENALTY: 459863
L1D LOAD      ACCESS: 31344247  HIT: 13880399  MISS: 17463848  HIT %: 44.2837  MISS %: 55.7163  AVERAGE MISS PENALTY: 511494
L1D RFO       ACCESS: 1062688  HIT: 1045121  MISS: 17567  HIT %: 98.3469  MISS %: 1.65307  AVERAGE MISS PENALTY: 155.836
L1D PREFETCH  ACCESS: 3781891  HIT: 1838390  MISS: 1943501  HIT %: 48.6103  MISS %: 51.3897  AVERAGE MISS PENALTY: 72.5014
L1D WRITEBACK ACCESS:     0  HIT:     0  MISS:     0  HIT %:     0  MISS %:     0  AVERAGE MISS PENALTY: 0
L1D PREFETCH  REQUESTED: 3998575  ISSUED: 3994141  USEFUL: 942500  USELESS: 1001007
 USEFUL LOAD PREFETCHES:     942500 PREFETCH ISSUED TO LOWER LEVEL:    2249715  ACCURACY: 41.8942
 TIMELY PREFETCHES:     942500 LATE PREFETCHES: 69279 DROPPED PREFETCHES: 4434
L1D AVERAGE MISS LATENCY: 55.7154 cycles
L1I TOTAL     ACCESS: 64234129  HIT: 64234129  MISS:     0  HIT %:   100  MISS %:     0  AVERAGE MISS PENALTY: 0
L1I LOAD      ACCESS: 64234129  HIT: 64234129  MISS:     0  HIT %:   100  MISS %:     0  AVERAGE MISS PENALTY: 0
L1I RFO       ACCESS:     0  HIT:     0  MISS:     0  HIT %:     0  MISS %:     0  AVERAGE MISS PENALTY: 0
L1I PREFETCH  ACCESS:     0  HIT:     0  MISS:     0  HIT %:     0  MISS %:     0  AVERAGE MISS PENALTY: 0
L1I WRITEBACK ACCESS:     0  HIT:     0  MISS:     0  HIT %:     0  MISS %:     0  AVERAGE MISS PENALTY: 0
L1I PREFETCH  REQUESTED:     0  ISSUED:     0  USEFUL:     0  USELESS:     0
 USEFUL LOAD PREFETCHES:          0 PREFETCH ISSUED TO LOWER LEVEL:          0  ACCURACY: -nan
 TIMELY PREFETCHES:          0 LATE PREFETCHES: 0 DROPPED PREFETCHES: 0
L1I AVERAGE MISS LATENCY: -nan cycles
L2C TOTAL     ACCESS: 24365924  HIT: 9126679  MISS: 15239245  HIT %: 37.4567  MISS %: 62.5433  AVERAGE MISS PENALTY: 281627
L2C LOAD      ACCESS: 17462891  HIT: 5021328  MISS: 12441563  HIT %: 28.7543  MISS %: 71.2457  AVERAGE MISS PENALTY: 344923
L2C RFO       ACCESS: 17567  HIT:  3361  MISS: 14206  HIT %: 19.1325  MISS %: 80.8675  AVERAGE MISS PENALTY: 169.369
L2C PREFETCH  ACCESS: 6333605  HIT: 3550205  MISS: 2783400  HIT %: 56.0535  MISS %: 43.9465  AVERAGE MISS PENALTY: 143.932
L2C WRITEBACK ACCESS: 551861  HIT: 551785  MISS:    76  HIT %: 99.9862  MISS %: 0.0137716  AVERAGE MISS PENALTY: 0
L2C PREFETCH  REQUESTED: 6972373  ISSUED: 6957470  USEFUL: 98130  USELESS: 2684565
 USEFUL LOAD PREFETCHES:      98130 PREFETCH ISSUED TO LOWER LEVEL:    3069002  ACCURACY: 3.19746
 TIMELY PREFETCHES:      98130 LATE PREFETCHES: 88188 DROPPED PREFETCHES: 14903
L2C AVERAGE MISS LATENCY: 68.9182 cycles
LLC0 TOTAL     ACCESS: 1933896  HIT: 1603518  MISS: 330378  HIT %: 82.9165  MISS %: 17.0835  AVERAGE MISS PENALTY: 163.86
LLC0 LOAD      ACCESS: 1546085  HIT: 1421224  MISS: 124861  HIT %: 91.9241  MISS %: 8.07595  AVERAGE MISS PENALTY: 178.216
LLC0 RFO       ACCESS:  1776  HIT:   669  MISS:  1107  HIT %: 37.6689  MISS %: 62.3311  AVERAGE MISS PENALTY: 195.423
LLC0 PREFETCH  ACCESS: 318175  HIT: 113929  MISS: 204246  HIT %: 35.807  MISS %: 64.193  AVERAGE MISS PENALTY: 155.044
LLC0 WRITEBACK ACCESS: 67860  HIT: 67696  MISS:   164  HIT %: 99.7583  MISS %: 0.241674  AVERAGE MISS PENALTY: 0
LLC0 PREFETCH  REQUESTED:     0  ISSUED:     0  USEFUL: 12579  USELESS: 197036
 USEFUL LOAD PREFETCHES:      12579 PREFETCH ISSUED TO LOWER LEVEL:     204246  ACCURACY: 6.15875
 TIMELY PREFETCHES:      12579 LATE PREFETCHES: 0 DROPPED PREFETCHES: 0
LLC0 AVERAGE MISS LATENCY: 163.86 cycles
Deadblocks : 101265 Deadblock percentage : 81.1022

LLC1 TOTAL     ACCESS: 1958818  HIT: 1625213  MISS: 333605  HIT %: 82.9691  MISS %: 17.0309  AVERAGE MISS PENALTY: 164.403
LLC1 LOAD      ACCESS: 1549236  HIT: 1439861  MISS: 109375  HIT %: 92.9401  MISS %: 7.05993  AVERAGE MISS PENALTY: 179
LLC1 RFO       ACCESS:  1771  HIT:   625  MISS:  1146  HIT %: 35.2908  MISS %: 64.7092  AVERAGE MISS PENALTY: 198.208
LLC1 PREFETCH  ACCESS: 339549  HIT: 116630  MISS: 222919  HIT %: 34.3485  MISS %: 65.6515  AVERAGE MISS PENALTY: 157.189
LLC1 WRITEBACK ACCESS: 68262  HIT: 68097  MISS:   165  HIT %: 99.7583  MISS %: 0.241716  AVERAGE MISS PENALTY: 0
LLC1 PREFETCH  REQUESTED:     0  ISSUED:     0  USEFUL: 13306  USELESS: 217778
 USEFUL LOAD PREFETCHES:      13306 PREFETCH ISSUED TO LOWER LEVEL:     222919  ACCURACY: 5.96898
 TIMELY PREFETCHES:      13306 LATE PREFETCHES: 0 DROPPED PREFETCHES: 0
LLC1 AVERAGE MISS LATENCY: 164.403 cycles
LLC2 TOTAL     ACCESS: 1971554  HIT: 1635653  MISS: 335901  HIT %: 82.9626  MISS %: 17.0374  AVERAGE MISS PENALTY: 164.767
LLC2 LOAD      ACCESS: 1556154  HIT: 1447118  MISS: 109036  HIT %: 92.9932  MISS %: 7.00676  AVERAGE MISS PENALTY: 179.06
LLC2 RFO       ACCESS:  1770  HIT:   645  MISS:  1125  HIT %: 36.4407  MISS %: 63.5593  AVERAGE MISS PENALTY: 198.855
LLC2 PREFETCH  ACCESS: 345461  HIT: 119888  MISS: 225573  HIT %: 34.7038  MISS %: 65.2962  AVERAGE MISS PENALTY: 157.811
LLC2 WRITEBACK ACCESS: 68169  HIT: 68002  MISS:   167  HIT %: 99.755  MISS %: 0.244979  AVERAGE MISS PENALTY: 0
LLC2 PREFETCH  REQUESTED:     0  ISSUED:     0  USEFUL: 13542  USELESS: 219740
 USEFUL LOAD PREFETCHES:      13542 PREFETCH ISSUED TO LOWER LEVEL:     225573  ACCURACY: 6.00338
 TIMELY PREFETCHES:      13542 LATE PREFETCHES: 0 DROPPED PREFETCHES: 0
LLC2 AVERAGE MISS LATENCY: 164.767 cycles
LLC3 TOTAL     ACCESS: 1976561  HIT: 1637088  MISS: 339473  HIT %: 82.8251  MISS %: 17.1749  AVERAGE MISS PENALTY: 165.516
LLC3 LOAD      ACCESS: 1555914  HIT: 1446220  MISS: 109694  HIT %: 92.9499  MISS %: 7.05013  AVERAGE MISS PENALTY: 178.995
LLC3 RFO       ACCESS:  1778  HIT:   675  MISS:  1103  HIT %: 37.964  MISS %: 62.036  AVERAGE MISS PENALTY: 206.367
LLC3 PREFETCH  ACCESS: 350279  HIT: 121776  MISS: 228503  HIT %: 34.7654  MISS %: 65.2346  AVERAGE MISS PENALTY: 158.973
LLC3 WRITEBACK ACCESS: 68590  HIT: 68417  MISS:   173  HIT %: 99.7478  MISS %: 0.252223  AVERAGE MISS PENALTY: 0
LLC3 PREFETCH  REQUESTED:     0  ISSUED:     0  USEFUL: 13725  USELESS: 222430
 USEFUL LOAD PREFETCHES:      13725 PREFETCH ISSUED TO LOWER LEVEL:     228503  ACCURACY: 6.00649
 TIMELY PREFETCHES:      13725 LATE PREFETCHES: 0 DROPPED PREFETCHES: 0
LLC3 AVERAGE MISS LATENCY: 165.516 cycles
LLC4 TOTAL     ACCESS: 1983733  HIT: 1641867  MISS: 341866  HIT %: 82.7665  MISS %: 17.2335  AVERAGE MISS PENALTY: 165.87
LLC4 LOAD      ACCESS: 1558409  HIT: 1448532  MISS: 109877  HIT %: 92.9494  MISS %: 7.05059  AVERAGE MISS PENALTY: 179.045
LLC4 RFO       ACCESS:  1774  HIT:   669  MISS:  1105  HIT %: 37.7114  MISS %: 62.2886  AVERAGE MISS PENALTY: 199.097
LLC4 PREFETCH  ACCESS: 354708  HIT: 123987  MISS: 230721  HIT %: 34.9547  MISS %: 65.0453  AVERAGE MISS PENALTY: 159.554
LLC4 WRITEBACK ACCESS: 68842  HIT: 68679  MISS:   163  HIT %: 99.7632  MISS %: 0.236774  AVERAGE MISS PENALTY: 0
LLC4 PREFETCH  REQUESTED:     0  ISSUED:     0  USEFUL: 13823  USELESS: 224468
 USEFUL LOAD PREFETCHES:      13823 PREFETCH ISSUED TO LOWER LEVEL:     230721  ACCURACY: 5.99122
 TIMELY PREFETCHES:      13823 LATE PREFETCHES: 0 DROPPED PREFETCHES: 0
LLC4 AVERAGE MISS LATENCY: 165.87 cycles
LLC5 TOTAL     ACCESS: 1981382  HIT: 1637431  MISS: 343951  HIT %: 82.6409  MISS %: 17.3591  AVERAGE MISS PENALTY: 166.278
LLC5 LOAD      ACCESS: 1552185  HIT: 1442133  MISS: 110052  HIT %: 92.9099  MISS %: 7.09013  AVERAGE MISS PENALTY: 179.111
LLC5 RFO       ACCESS:  1779  HIT:   650  MISS:  1129  HIT %: 36.5374  MISS %: 63.4626  AVERAGE MISS PENALTY: 201.664
LLC5 PREFETCH  ACCESS: 358107  HIT: 125513  MISS: 232594  HIT %: 35.049  MISS %: 64.951  AVERAGE MISS PENALTY: 160.16
LLC5 WRITEBACK ACCESS: 69311  HIT: 69135  MISS:   176  HIT %: 99.7461  MISS %: 0.253928  AVERAGE MISS PENALTY: 0
LLC5 PREFETCH  REQUESTED:     0  ISSUED:     0  USEFUL: 13900  USELESS: 225959
 USEFUL LOAD PREFETCHES:      13900 PREFETCH ISSUED TO LOWER LEVEL:     232594  ACCURACY: 5.97608
 TIMELY PREFETCHES:      13900 LATE PREFETCHES: 0 DROPPED PREFETCHES: 0
LLC5 AVERAGE MISS LATENCY: 166.278 cycles
LLC6 TOTAL     ACCESS: 1989172  HIT: 1643698  MISS: 345474  HIT %: 82.6323  MISS %: 17.3677  AVERAGE MISS PENALTY: 166.654
LLC6 LOAD      ACCESS: 1558866  HIT: 1448319  MISS: 110547  HIT %: 92.9085  MISS %: 7.0915  AVERAGE MISS PENALTY: 179.146
LLC6 RFO       ACCESS:  1777  HIT:   653  MISS:  1124  HIT %: 36.7473  MISS %: 63.2527  AVERAGE MISS PENALTY: 200.026
LLC6 PREFETCH  ACCESS: 360173  HIT: 126558  MISS: 233615  HIT %: 35.1381  MISS %: 64.8619  AVERAGE MISS PENALTY: 160.716
LLC6 WRITEBACK ACCESS: 68356  HIT: 68168  MISS:   188  HIT %: 99.725  MISS %: 0.275031  AVERAGE MISS PENALTY: 0
LLC6 PREFETCH  REQUESTED:     0  ISSUED:     0  USEFUL: 14184  USELESS: 227084
 USEFUL LOAD PREFETCHES:      14184 PREFETCH ISSUED TO LOWER LEVEL:     233615  ACCURACY: 6.07153
 TIMELY PREFETCHES:      14184 LATE PREFETCHES: 0 DROPPED PREFETCHES: 0
LLC6 AVERAGE MISS LATENCY: 166.654 cycles
LLC7 TOTAL     ACCESS: 1991673  HIT: 1644265  MISS: 347408  HIT %: 82.557  MISS %: 17.443  AVERAGE MISS PENALTY: 167.227
LLC7 LOAD      ACCESS: 1558398  HIT: 1447888  MISS: 110510  HIT %: 92.9087  MISS %: 7.09126  AVERAGE MISS PENALTY: 179.112
LLC7 RFO       ACCESS:  1781  HIT:   666  MISS:  1115  HIT %: 37.3947  MISS %: 62.6053  AVERAGE MISS PENALTY: 201.566
LLC7 PREFETCH  ACCESS: 363262  HIT: 127646  MISS: 235616  HIT %: 35.1388  MISS %: 64.8612  AVERAGE MISS PENALTY: 161.608
LLC7 WRITEBACK ACCESS: 68232  HIT: 68065  MISS:   167  HIT %: 99.7552  MISS %: 0.244753  AVERAGE MISS PENALTY: 0
LLC7 PREFETCH  REQUESTED:     0  ISSUED:     0  USEFUL: 14341  USELESS: 228808
 USEFUL LOAD PREFETCHES:      14341 PREFETCH ISSUED TO LOWER LEVEL:     235616  ACCURACY: 6.0866
 TIMELY PREFETCHES:      14341 LATE PREFETCHES: 0 DROPPED PREFETCHES: 0
LLC7 AVERAGE MISS LATENCY: 167.227 cycles
ROI Average ROB Stall Cycles:	7.47471
ROI Total ROB Stalls Cycles:	453745118
ROI TOTAL ROB counter      :	60704024
ROI Average Load ROB Stall Cycles:	47.5276
ROI Total Load ROB Stalls Cycle  :	190515419
ROI Total Load ROB stalls Counter:	4008520
Major fault: 0 Minor fault: 37424

