
*** ChampSim Multicore Out-of-Order Simulator ***

Warmup Instructions: 200000000
Simulation Instructions: 200000000
Number of CPUs: 1
threads:1

L1I Configuration:
L1I_SET:64
L1I_WAY:8
L1I_RQ_SIZE:64
L1I_WQ_SIZE:64
L1I_PQ_SIZE:8
L1I_MSHR_SIZE:8

L1D Configuration:
L1D_SET:64
L1D_WAY:12
L1D_RQ_SIZE:64
L1D_WQ_SIZE:64
L1D_PQ_SIZE:8
L1D_MSHR_SIZE:16

L2C Configuration:
L2C_SET:1024
L2C_WAY:8
L2C_RQ_SIZE:32
L2C_WQ_SIZE:32
L2C_PQ_SIZE:16
L2C_MSHR_SIZE:32

LLC Configuration:
LLC_SET:4096
LLC_WAY:16
LLC SLICES:8
LLC_RQ_SIZE:64
LLC_WQ_SIZE:64
LLC_PQ_SIZE:32
LLC_MSHR_SIZE:64

Interconnect OFF
Attacker deprioritize is: OFF
Off-chip DRAM Size: 4096 MB Channels: 1 Width: 64-bit Data Rate: 3200 MT/s
PAGE SIZE in KB: 4.000000 
PAGE SIZE in MB: 0.003906 
PAGE offset in bits: 12 
CEASER-S_LLC:0
MIRAGE : 1
CEASER_LATENCY:3
REMAP : OFF
Partitions : 1
Multi-Step : OFF
BFS : OFF

CPU 0 runs /home/anubhav/gap/cc-14.trace.gz
CPU 0 Bimodal branch predictor
Initialize Hawkeye state
Initialize Hawkeye state
Initialize Hawkeye state
Initialize Hawkeye state
Initialize Hawkeye state
Initialize Hawkeye state
Initialize Hawkeye state
Initialize Hawkeye state
Heartbeat CPU 0 instructions: 10000000 cycles: 10743607 heartbeat IPC: 0.930786 cumulative IPC: 0.930786 (Simulation time: 0 hr 2 min 30 sec) 
 Total Blocks : 524288 Invalid Blocks : 424574
Heartbeat CPU 0 instructions: 20000000 cycles: 21377285 heartbeat IPC: 0.940408 cumulative IPC: 0.935573 (Simulation time: 0 hr 6 min 7 sec) 
 Total Blocks : 524288 Invalid Blocks : 385216
Heartbeat CPU 0 instructions: 30000000 cycles: 31228718 heartbeat IPC: 1.01508 cumulative IPC: 0.960654 (Simulation time: 0 hr 9 min 46 sec) 
 Total Blocks : 524288 Invalid Blocks : 348771
Heartbeat CPU 0 instructions: 40000002 cycles: 40703026 heartbeat IPC: 1.05549 cumulative IPC: 0.982728 (Simulation time: 0 hr 13 min 28 sec) 
 Total Blocks : 524288 Invalid Blocks : 315678
Heartbeat CPU 0 instructions: 50000001 cycles: 50101502 heartbeat IPC: 1.064 cumulative IPC: 0.997974 (Simulation time: 0 hr 17 min 13 sec) 
 Total Blocks : 524288 Invalid Blocks : 285557
Heartbeat CPU 0 instructions: 60000002 cycles: 59333303 heartbeat IPC: 1.08321 cumulative IPC: 1.01124 (Simulation time: 0 hr 20 min 57 sec) 
 Total Blocks : 524288 Invalid Blocks : 258338
Heartbeat CPU 0 instructions: 70000000 cycles: 68507644 heartbeat IPC: 1.09 cumulative IPC: 1.02178 (Simulation time: 0 hr 24 min 39 sec) 
 Total Blocks : 524288 Invalid Blocks : 233619
Heartbeat CPU 0 instructions: 80000000 cycles: 77925429 heartbeat IPC: 1.06182 cumulative IPC: 1.02662 (Simulation time: 0 hr 28 min 25 sec) 
 Total Blocks : 524288 Invalid Blocks : 211004
Heartbeat CPU 0 instructions: 90000000 cycles: 86892946 heartbeat IPC: 1.11514 cumulative IPC: 1.03576 (Simulation time: 0 hr 32 min 14 sec) 
 Total Blocks : 524288 Invalid Blocks : 190736
Heartbeat CPU 0 instructions: 100000002 cycles: 95911745 heartbeat IPC: 1.1088 cumulative IPC: 1.04263 (Simulation time: 0 hr 36 min 3 sec) 
 Total Blocks : 524288 Invalid Blocks : 172270
Heartbeat CPU 0 instructions: 110000000 cycles: 105135200 heartbeat IPC: 1.08419 cumulative IPC: 1.04627 (Simulation time: 0 hr 39 min 48 sec) 
 Total Blocks : 524288 Invalid Blocks : 155743
Heartbeat CPU 0 instructions: 120000000 cycles: 114488454 heartbeat IPC: 1.06915 cumulative IPC: 1.04814 (Simulation time: 0 hr 43 min 31 sec) 
 Total Blocks : 524288 Invalid Blocks : 140687
Heartbeat CPU 0 instructions: 130000002 cycles: 124033785 heartbeat IPC: 1.04763 cumulative IPC: 1.0481 (Simulation time: 0 hr 47 min 23 sec) 
 Total Blocks : 524288 Invalid Blocks : 126794
Heartbeat CPU 0 instructions: 140000000 cycles: 133210937 heartbeat IPC: 1.08966 cumulative IPC: 1.05096 (Simulation time: 0 hr 51 min 3 sec) 
 Total Blocks : 524288 Invalid Blocks : 114522
Heartbeat CPU 0 instructions: 150000000 cycles: 142150908 heartbeat IPC: 1.11857 cumulative IPC: 1.05522 (Simulation time: 0 hr 54 min 34 sec) 
 Total Blocks : 524288 Invalid Blocks : 103440
Heartbeat CPU 0 instructions: 160000003 cycles: 151262652 heartbeat IPC: 1.09749 cumulative IPC: 1.05776 (Simulation time: 0 hr 57 min 50 sec) 
 Total Blocks : 524288 Invalid Blocks : 93500
Heartbeat CPU 0 instructions: 170000001 cycles: 160758438 heartbeat IPC: 1.0531 cumulative IPC: 1.05749 (Simulation time: 1 hr 1 min 26 sec) 
 Total Blocks : 524288 Invalid Blocks : 84366
Heartbeat CPU 0 instructions: 180000001 cycles: 169924422 heartbeat IPC: 1.09099 cumulative IPC: 1.05929 (Simulation time: 1 hr 5 min 12 sec) 
 Total Blocks : 524288 Invalid Blocks : 76189
Heartbeat CPU 0 instructions: 190000000 cycles: 178883394 heartbeat IPC: 1.1162 cumulative IPC: 1.06214 (Simulation time: 1 hr 8 min 57 sec) 
 Total Blocks : 524288 Invalid Blocks : 68751
Heartbeat CPU 0 instructions: 200000000 cycles: 188162165 heartbeat IPC: 1.07773 cumulative IPC: 1.06291 (Simulation time: 1 hr 12 min 32 sec) 
 Total Blocks : 524288 Invalid Blocks : 62066

Warmup complete CPU 0 instructions: 200000001 cycles: 188162166 (Simulation time: 1 hr 12 min 32 sec) 

Heartbeat CPU 0 instructions: 210000000 cycles: 220009865 heartbeat IPC: 0.313994 cumulative IPC: 0.313994 (Simulation time: 1 hr 19 min 46 sec) 
 Total Blocks : 524288 Invalid Blocks : 55860
Heartbeat CPU 0 instructions: 220000000 cycles: 251105469 heartbeat IPC: 0.321589 cumulative IPC: 0.317746 (Simulation time: 1 hr 26 min 31 sec) 
 Total Blocks : 524288 Invalid Blocks : 50413
Heartbeat CPU 0 instructions: 230000002 cycles: 283805474 heartbeat IPC: 0.30581 cumulative IPC: 0.313665 (Simulation time: 1 hr 33 min 38 sec) 
 Total Blocks : 524288 Invalid Blocks : 45416
Heartbeat CPU 0 instructions: 240000002 cycles: 315123880 heartbeat IPC: 0.319301 cumulative IPC: 0.315056 (Simulation time: 1 hr 40 min 8 sec) 
 Total Blocks : 524288 Invalid Blocks : 41028
Heartbeat CPU 0 instructions: 250000001 cycles: 346768879 heartbeat IPC: 0.316006 cumulative IPC: 0.315245 (Simulation time: 1 hr 46 min 33 sec) 
 Total Blocks : 524288 Invalid Blocks : 36993
Heartbeat CPU 0 instructions: 260000000 cycles: 378548468 heartbeat IPC: 0.314667 cumulative IPC: 0.315149 (Simulation time: 1 hr 52 min 59 sec) 
 Total Blocks : 524288 Invalid Blocks : 33324
Heartbeat CPU 0 instructions: 270000001 cycles: 409702316 heartbeat IPC: 0.320988 cumulative IPC: 0.31597 (Simulation time: 1 hr 59 min 1 sec) 
 Total Blocks : 524288 Invalid Blocks : 30082
Heartbeat CPU 0 instructions: 280000001 cycles: 441435596 heartbeat IPC: 0.315127 cumulative IPC: 0.315864 (Simulation time: 2 hr 5 min 3 sec) 
 Total Blocks : 524288 Invalid Blocks : 27084
Heartbeat CPU 0 instructions: 290000002 cycles: 474414971 heartbeat IPC: 0.30322 cumulative IPC: 0.314407 (Simulation time: 2 hr 10 min 48 sec) 
 Total Blocks : 524288 Invalid Blocks : 24407
Heartbeat CPU 0 instructions: 300000002 cycles: 505558223 heartbeat IPC: 0.321097 cumulative IPC: 0.315064 (Simulation time: 2 hr 15 min 55 sec) 
 Total Blocks : 524288 Invalid Blocks : 22066
Heartbeat CPU 0 instructions: 310000001 cycles: 534319347 heartbeat IPC: 0.347692 cumulative IPC: 0.317775 (Simulation time: 2 hr 20 min 35 sec) 
 Total Blocks : 524288 Invalid Blocks : 19944
Heartbeat CPU 0 instructions: 320000001 cycles: 565537126 heartbeat IPC: 0.32033 cumulative IPC: 0.317986 (Simulation time: 2 hr 25 min 23 sec) 
 Total Blocks : 524288 Invalid Blocks : 17982
Heartbeat CPU 0 instructions: 330000000 cycles: 597100410 heartbeat IPC: 0.316824 cumulative IPC: 0.317896 (Simulation time: 2 hr 30 min 1 sec) 
 Total Blocks : 524288 Invalid Blocks : 16284
Heartbeat CPU 0 instructions: 340000000 cycles: 628272258 heartbeat IPC: 0.320802 cumulative IPC: 0.318102 (Simulation time: 2 hr 34 min 18 sec) 
 Total Blocks : 524288 Invalid Blocks : 14776
Heartbeat CPU 0 instructions: 350000001 cycles: 660011186 heartbeat IPC: 0.315071 cumulative IPC: 0.317898 (Simulation time: 2 hr 38 min 37 sec) 
 Total Blocks : 524288 Invalid Blocks : 13419
Heartbeat CPU 0 instructions: 360000000 cycles: 691707761 heartbeat IPC: 0.315491 cumulative IPC: 0.317747 (Simulation time: 2 hr 42 min 52 sec) 
 Total Blocks : 524288 Invalid Blocks : 12042
Heartbeat CPU 0 instructions: 370000002 cycles: 722545529 heartbeat IPC: 0.324278 cumulative IPC: 0.318124 (Simulation time: 2 hr 46 min 43 sec) 
 Total Blocks : 524288 Invalid Blocks : 10839
Heartbeat CPU 0 instructions: 380000002 cycles: 752660065 heartbeat IPC: 0.332066 cumulative IPC: 0.318867 (Simulation time: 2 hr 49 min 48 sec) 
 Total Blocks : 524288 Invalid Blocks : 9757
Heartbeat CPU 0 instructions: 390000003 cycles: 784095965 heartbeat IPC: 0.318108 cumulative IPC: 0.318827 (Simulation time: 2 hr 53 min 15 sec) 
 Total Blocks : 524288 Invalid Blocks : 8786
Heartbeat CPU 0 instructions: 400000001 cycles: 814366882 heartbeat IPC: 0.33035 cumulative IPC: 0.319384 (Simulation time: 2 hr 56 min 26 sec) 
 Total Blocks : 524288 Invalid Blocks : 7938
Finished CPU 0 instructions: 200000000 cycles: 626204716 cumulative IPC: 0.319384 (Simulation time: 2 hr 56 min 26 sec) 

CPU 0 Branch Prediction Accuracy: 90.7092% MPKI: 18.9196 Average ROB Occupancy at Mispredict: 42.4904

ChampSim completed all CPUs

Region of Interest Statistics

CPU 0 cumulative IPC: 0.319384 instructions: 200000000 cycles: 626204716
ITLB TOTAL     ACCESS: 29242636  HIT: 29242636  MISS:     0  HIT %:   100  MISS %:     0  AVERAGE MISS PENALTY: 0
ITLB LOAD      ACCESS: 29242636  HIT: 29242636  MISS:     0  HIT %:   100  MISS %:     0  AVERAGE MISS PENALTY: 0
ITLB RFO       ACCESS:     0  HIT:     0  MISS:     0  HIT %:     0  MISS %:     0  AVERAGE MISS PENALTY: 0
ITLB PREFETCH  ACCESS:     0  HIT:     0  MISS:     0  HIT %:     0  MISS %:     0  AVERAGE MISS PENALTY: 0
ITLB WRITEBACK ACCESS:     0  HIT:     0  MISS:     0  HIT %:     0  MISS %:     0  AVERAGE MISS PENALTY: 0
ITLB PREFETCH  REQUESTED:     0  ISSUED:     0  USEFUL:     0  USELESS:     0
 USEFUL LOAD PREFETCHES:          0 PREFETCH ISSUED TO LOWER LEVEL:          0  ACCURACY: -nan
 TIMELY PREFETCHES:          0 LATE PREFETCHES: 0 DROPPED PREFETCHES: 0
ITLB AVERAGE MISS LATENCY: -nan cycles
DTLB TOTAL     ACCESS: 45617030  HIT: 35804124  MISS: 9812906  HIT %: 78.4885  MISS %: 21.5115  AVERAGE MISS PENALTY: 9.46164
DTLB LOAD      ACCESS: 45552294  HIT: 35739388  MISS: 9812906  HIT %: 78.4579  MISS %: 21.5421  AVERAGE MISS PENALTY: 9.46164
DTLB RFO       ACCESS: 64736  HIT: 64736  MISS:     0  HIT %:   100  MISS %:     0  AVERAGE MISS PENALTY: 0
DTLB PREFETCH  ACCESS:     0  HIT:     0  MISS:     0  HIT %:     0  MISS %:     0  AVERAGE MISS PENALTY: 0
DTLB WRITEBACK ACCESS:     0  HIT:     0  MISS:     0  HIT %:     0  MISS %:     0  AVERAGE MISS PENALTY: 0
DTLB PREFETCH  REQUESTED:     0  ISSUED:     0  USEFUL:     0  USELESS:     0
 USEFUL LOAD PREFETCHES:          0 PREFETCH ISSUED TO LOWER LEVEL:          0  ACCURACY: -nan
 TIMELY PREFETCHES:          0 LATE PREFETCHES: 0 DROPPED PREFETCHES: 0
DTLB AVERAGE MISS LATENCY: 9.46164 cycles
STLB TOTAL     ACCESS: 9812906  HIT: 9798145  MISS: 14761  HIT %: 99.8496  MISS %: 0.150424  AVERAGE MISS PENALTY: 100
STLB LOAD      ACCESS: 9812906  HIT: 9798145  MISS: 14761  HIT %: 99.8496  MISS %: 0.150424  AVERAGE MISS PENALTY: 100
STLB RFO       ACCESS:     0  HIT:     0  MISS:     0  HIT %:     0  MISS %:     0  AVERAGE MISS PENALTY: 0
STLB PREFETCH  ACCESS:     0  HIT:     0  MISS:     0  HIT %:     0  MISS %:     0  AVERAGE MISS PENALTY: 0
STLB WRITEBACK ACCESS:     0  HIT:     0  MISS:     0  HIT %:     0  MISS %:     0  AVERAGE MISS PENALTY: 0
STLB PREFETCH  REQUESTED:     0  ISSUED:     0  USEFUL:     0  USELESS:     0
 USEFUL LOAD PREFETCHES:          0 PREFETCH ISSUED TO LOWER LEVEL:          0  ACCURACY: -nan
 TIMELY PREFETCHES:          0 LATE PREFETCHES: 0 DROPPED PREFETCHES: 0
STLB AVERAGE MISS LATENCY: 100 cycles
L1D TOTAL     ACCESS: 120741533  HIT: 56715327  MISS: 64026206  HIT %: 46.9725  MISS %: 53.0275  AVERAGE MISS PENALTY: 1.26925e+06
L1D LOAD      ACCESS: 42811806  HIT: 28584465  MISS: 14227341  HIT %: 66.7677  MISS %: 33.2323  AVERAGE MISS PENALTY: 5.71173e+06
L1D RFO       ACCESS: 64741  HIT: 64741  MISS:     0  HIT %:   100  MISS %:     0  AVERAGE MISS PENALTY: 0
L1D PREFETCH  ACCESS: 77864986  HIT: 28066121  MISS: 49798865  HIT %: 36.0446  MISS %: 63.9554  AVERAGE MISS PENALTY: 46.7372
L1D WRITEBACK ACCESS:     0  HIT:     0  MISS:     0  HIT %:     0  MISS %:     0  AVERAGE MISS PENALTY: 0
L1D PREFETCH  REQUESTED: 120167349  ISSUED: 80537205  USEFUL: 1423987  USELESS: 48374880
 USEFUL LOAD PREFETCHES:    1423987 PREFETCH ISSUED TO LOWER LEVEL:  148622028  ACCURACY: 0.958126
 TIMELY PREFETCHES:    1423987 LATE PREFETCHES: 492590 DROPPED PREFETCHES: 39630144
L1D AVERAGE MISS LATENCY: 46.8831 cycles
L1I TOTAL     ACCESS: 41365858  HIT: 41365858  MISS:     0  HIT %:   100  MISS %:     0  AVERAGE MISS PENALTY: 0
L1I LOAD      ACCESS: 41365858  HIT: 41365858  MISS:     0  HIT %:   100  MISS %:     0  AVERAGE MISS PENALTY: 0
L1I RFO       ACCESS:     0  HIT:     0  MISS:     0  HIT %:     0  MISS %:     0  AVERAGE MISS PENALTY: 0
L1I PREFETCH  ACCESS:     0  HIT:     0  MISS:     0  HIT %:     0  MISS %:     0  AVERAGE MISS PENALTY: 0
L1I WRITEBACK ACCESS:     0  HIT:     0  MISS:     0  HIT %:     0  MISS %:     0  AVERAGE MISS PENALTY: 0
L1I PREFETCH  REQUESTED:     0  ISSUED:     0  USEFUL:     0  USELESS:     0
 USEFUL LOAD PREFETCHES:          0 PREFETCH ISSUED TO LOWER LEVEL:          0  ACCURACY: -nan
 TIMELY PREFETCHES:          0 LATE PREFETCHES: 0 DROPPED PREFETCHES: 0
L1I AVERAGE MISS LATENCY: -nan cycles
L2C TOTAL     ACCESS: 117153403  HIT: 22246780  MISS: 94906623  HIT %: 18.9894  MISS %: 81.0106  AVERAGE MISS PENALTY: 677878
L2C LOAD      ACCESS: 14210924  HIT: 2289591  MISS: 11921333  HIT %: 16.1115  MISS %: 83.8885  AVERAGE MISS PENALTY: 5.39636e+06
L2C RFO       ACCESS:     0  HIT:     0  MISS:     0  HIT %:     0  MISS %:     0  AVERAGE MISS PENALTY: 0
L2C PREFETCH  ACCESS: 102887942  HIT: 19905089  MISS: 82982853  HIT %: 19.3464  MISS %: 80.6536  AVERAGE MISS PENALTY: 39.4368
L2C WRITEBACK ACCESS: 54537  HIT: 52100  MISS:  2437  HIT %: 95.5315  MISS %: 4.46853  AVERAGE MISS PENALTY: 0
L2C PREFETCH  REQUESTED: 225546054  ISSUED: 209803306  USEFUL: 1146911  USELESS: 81835711
 USEFUL LOAD PREFETCHES:    1146911 PREFETCH ISSUED TO LOWER LEVEL:   88219313  ACCURACY: 1.30007
 TIMELY PREFETCHES:    1146911 LATE PREFETCHES: 874401 DROPPED PREFETCHES: 15742748
L2C AVERAGE MISS LATENCY: 39.3178 cycles
LLC0 TOTAL     ACCESS: 12151333  HIT: 12016566  MISS: 134767  HIT %: 98.8909  MISS %: 1.10907  AVERAGE MISS PENALTY: 109.902
LLC0 LOAD      ACCESS: 1515386  HIT: 1498629  MISS: 16757  HIT %: 98.8942  MISS %: 1.10579  AVERAGE MISS PENALTY: 118.906
LLC0 RFO       ACCESS:     0  HIT:     0  MISS:     0  HIT %:     0  MISS %:     0  AVERAGE MISS PENALTY: 0
LLC0 PREFETCH  ACCESS: 10629076  HIT: 10511067  MISS: 118009  HIT %: 98.8898  MISS %: 1.11025  AVERAGE MISS PENALTY: 108.624
LLC0 WRITEBACK ACCESS:  6871  HIT:  6870  MISS:     1  HIT %: 99.9854  MISS %: 0.0145539  AVERAGE MISS PENALTY: 0
LLC0 PREFETCH  REQUESTED:     0  ISSUED:     0  USEFUL: 14543  USELESS: 97514
 USEFUL LOAD PREFETCHES:      14543 PREFETCH ISSUED TO LOWER LEVEL:     118009  ACCURACY: 12.3236
 TIMELY PREFETCHES:      14543 LATE PREFETCHES: 0 DROPPED PREFETCHES: 0
LLC0 AVERAGE MISS LATENCY: 109.902 cycles
Deadblocks : 14702 Deadblock percentage : 87.7365

LLC1 TOTAL     ACCESS: 12138912  HIT: 12004094  MISS: 134818  HIT %: 98.8894  MISS %: 1.11063  AVERAGE MISS PENALTY: 110.269
LLC1 LOAD      ACCESS: 1506283  HIT: 1504032  MISS:  2251  HIT %: 99.8506  MISS %: 0.149441  AVERAGE MISS PENALTY: 169.343
LLC1 RFO       ACCESS:     0  HIT:     0  MISS:     0  HIT %:     0  MISS %:     0  AVERAGE MISS PENALTY: 0
LLC1 PREFETCH  ACCESS: 10625744  HIT: 10493182  MISS: 132562  HIT %: 98.7524  MISS %: 1.24755  AVERAGE MISS PENALTY: 109.27
LLC1 WRITEBACK ACCESS:  6885  HIT:  6880  MISS:     5  HIT %: 99.9274  MISS %: 0.0726216  AVERAGE MISS PENALTY: 0
LLC1 PREFETCH  REQUESTED:     0  ISSUED:     0  USEFUL: 14686  USELESS: 111001
 USEFUL LOAD PREFETCHES:      14686 PREFETCH ISSUED TO LOWER LEVEL:     132562  ACCURACY: 11.0786
 TIMELY PREFETCHES:      14686 LATE PREFETCHES: 0 DROPPED PREFETCHES: 0
LLC1 AVERAGE MISS LATENCY: 110.269 cycles
LLC2 TOTAL     ACCESS: 12084999  HIT: 11950172  MISS: 134827  HIT %: 98.8843  MISS %: 1.11566  AVERAGE MISS PENALTY: 110.792
LLC2 LOAD      ACCESS: 1481895  HIT: 1479886  MISS:  2009  HIT %: 99.8644  MISS %: 0.13557  AVERAGE MISS PENALTY: 177.795
LLC2 RFO       ACCESS:     0  HIT:     0  MISS:     0  HIT %:     0  MISS %:     0  AVERAGE MISS PENALTY: 0
LLC2 PREFETCH  ACCESS: 10596216  HIT: 10463400  MISS: 132816  HIT %: 98.7466  MISS %: 1.25343  AVERAGE MISS PENALTY: 109.78
LLC2 WRITEBACK ACCESS:  6888  HIT:  6886  MISS:     2  HIT %: 99.971  MISS %: 0.029036  AVERAGE MISS PENALTY: 0
LLC2 PREFETCH  REQUESTED:     0  ISSUED:     0  USEFUL: 14662  USELESS: 111362
 USEFUL LOAD PREFETCHES:      14662 PREFETCH ISSUED TO LOWER LEVEL:     132816  ACCURACY: 11.0393
 TIMELY PREFETCHES:      14662 LATE PREFETCHES: 0 DROPPED PREFETCHES: 0
LLC2 AVERAGE MISS LATENCY: 110.792 cycles
LLC3 TOTAL     ACCESS: 12014421  HIT: 11879257  MISS: 135164  HIT %: 98.875  MISS %: 1.12501  AVERAGE MISS PENALTY: 111.856
LLC3 LOAD      ACCESS: 1485950  HIT: 1483901  MISS:  2049  HIT %: 99.8621  MISS %: 0.137892  AVERAGE MISS PENALTY: 177.995
LLC3 RFO       ACCESS:     0  HIT:     0  MISS:     0  HIT %:     0  MISS %:     0  AVERAGE MISS PENALTY: 0
LLC3 PREFETCH  ACCESS: 10521662  HIT: 10388548  MISS: 133114  HIT %: 98.7349  MISS %: 1.26514  AVERAGE MISS PENALTY: 110.839
LLC3 WRITEBACK ACCESS:  6809  HIT:  6808  MISS:     1  HIT %: 99.9853  MISS %: 0.0146864  AVERAGE MISS PENALTY: 0
LLC3 PREFETCH  REQUESTED:     0  ISSUED:     0  USEFUL: 14880  USELESS: 111380
 USEFUL LOAD PREFETCHES:      14880 PREFETCH ISSUED TO LOWER LEVEL:     133114  ACCURACY: 11.1784
 TIMELY PREFETCHES:      14880 LATE PREFETCHES: 0 DROPPED PREFETCHES: 0
LLC3 AVERAGE MISS LATENCY: 111.856 cycles
LLC4 TOTAL     ACCESS: 11896364  HIT: 11761375  MISS: 134989  HIT %: 98.8653  MISS %: 1.13471  AVERAGE MISS PENALTY: 111.885
LLC4 LOAD      ACCESS: 1487205  HIT: 1485128  MISS:  2077  HIT %: 99.8603  MISS %: 0.139658  AVERAGE MISS PENALTY: 177.914
LLC4 RFO       ACCESS:     0  HIT:     0  MISS:     0  HIT %:     0  MISS %:     0  AVERAGE MISS PENALTY: 0
LLC4 PREFETCH  ACCESS: 10402434  HIT: 10269523  MISS: 132911  HIT %: 98.7223  MISS %: 1.27769  AVERAGE MISS PENALTY: 110.854
LLC4 WRITEBACK ACCESS:  6725  HIT:  6724  MISS:     1  HIT %: 99.9851  MISS %: 0.0148699  AVERAGE MISS PENALTY: 0
LLC4 PREFETCH  REQUESTED:     0  ISSUED:     0  USEFUL: 14678  USELESS: 111506
 USEFUL LOAD PREFETCHES:      14678 PREFETCH ISSUED TO LOWER LEVEL:     132911  ACCURACY: 11.0435
 TIMELY PREFETCHES:      14678 LATE PREFETCHES: 0 DROPPED PREFETCHES: 0
LLC4 AVERAGE MISS LATENCY: 111.885 cycles
LLC5 TOTAL     ACCESS: 11753702  HIT: 11618859  MISS: 134843  HIT %: 98.8528  MISS %: 1.14724  AVERAGE MISS PENALTY: 112.041
LLC5 LOAD      ACCESS: 1483536  HIT: 1481347  MISS:  2189  HIT %: 99.8524  MISS %: 0.147553  AVERAGE MISS PENALTY: 177.872
LLC5 RFO       ACCESS:     0  HIT:     0  MISS:     0  HIT %:     0  MISS %:     0  AVERAGE MISS PENALTY: 0
LLC5 PREFETCH  ACCESS: 10263397  HIT: 10130743  MISS: 132654  HIT %: 98.7075  MISS %: 1.2925  AVERAGE MISS PENALTY: 110.955
LLC5 WRITEBACK ACCESS:  6769  HIT:  6769  MISS:     0  HIT %:   100  MISS %:     0  AVERAGE MISS PENALTY: 0
LLC5 PREFETCH  REQUESTED:     0  ISSUED:     0  USEFUL: 14415  USELESS: 111437
 USEFUL LOAD PREFETCHES:      14415 PREFETCH ISSUED TO LOWER LEVEL:     132654  ACCURACY: 10.8666
 TIMELY PREFETCHES:      14415 LATE PREFETCHES: 0 DROPPED PREFETCHES: 0
LLC5 AVERAGE MISS LATENCY: 112.041 cycles
LLC6 TOTAL     ACCESS: 11563470  HIT: 11428566  MISS: 134904  HIT %: 98.8334  MISS %: 1.16664  AVERAGE MISS PENALTY: 112.473
LLC6 LOAD      ACCESS: 1479226  HIT: 1476994  MISS:  2232  HIT %: 99.8491  MISS %: 0.15089  AVERAGE MISS PENALTY: 177.746
LLC6 RFO       ACCESS:     0  HIT:     0  MISS:     0  HIT %:     0  MISS %:     0  AVERAGE MISS PENALTY: 0
LLC6 PREFETCH  ACCESS: 10077588  HIT: 9944917  MISS: 132671  HIT %: 98.6835  MISS %: 1.3165  AVERAGE MISS PENALTY: 111.375
LLC6 WRITEBACK ACCESS:  6656  HIT:  6655  MISS:     1  HIT %: 99.985  MISS %: 0.015024  AVERAGE MISS PENALTY: 0
LLC6 PREFETCH  REQUESTED:     0  ISSUED:     0  USEFUL: 14484  USELESS: 111464
 USEFUL LOAD PREFETCHES:      14484 PREFETCH ISSUED TO LOWER LEVEL:     132671  ACCURACY: 10.9172
 TIMELY PREFETCHES:      14484 LATE PREFETCHES: 0 DROPPED PREFETCHES: 0
LLC6 AVERAGE MISS LATENCY: 112.473 cycles
LLC7 TOTAL     ACCESS: 11355528  HIT: 11220349  MISS: 135179  HIT %: 98.8096  MISS %: 1.19042  AVERAGE MISS PENALTY: 113.151
LLC7 LOAD      ACCESS: 1464232  HIT: 1461796  MISS:  2436  HIT %: 99.8336  MISS %: 0.166367  AVERAGE MISS PENALTY: 178.011
LLC7 RFO       ACCESS:     0  HIT:     0  MISS:     0  HIT %:     0  MISS %:     0  AVERAGE MISS PENALTY: 0
LLC7 PREFETCH  ACCESS: 9884353  HIT: 9751612  MISS: 132741  HIT %: 98.6571  MISS %: 1.34294  AVERAGE MISS PENALTY: 111.963
LLC7 WRITEBACK ACCESS:  6943  HIT:  6941  MISS:     2  HIT %: 99.9712  MISS %: 0.028806  AVERAGE MISS PENALTY: 0
LLC7 PREFETCH  REQUESTED:     0  ISSUED:     0  USEFUL: 14525  USELESS: 111491
 USEFUL LOAD PREFETCHES:      14525 PREFETCH ISSUED TO LOWER LEVEL:     132741  ACCURACY: 10.9424
 TIMELY PREFETCHES:      14525 LATE PREFETCHES: 0 DROPPED PREFETCHES: 0
LLC7 AVERAGE MISS LATENCY: 113.151 cycles
ROI Average ROB Stall Cycles:	6.61917
ROI Total ROB Stalls Cycles:	529237686
ROI TOTAL ROB counter      :	79955251
ROI Average Load ROB Stall Cycles:	20.6481
ROI Total Load ROB Stalls Cycle  :	139546731
ROI Total Load ROB stalls Counter:	6758348
Major fault: 0 Minor fault: 30182

