
*** ChampSim Multicore Out-of-Order Simulator ***

Warmup Instructions: 200000000
Simulation Instructions: 200000000
Number of CPUs: 1
threads:1

L1I Configuration:
L1I_SET:64
L1I_WAY:8
L1I_RQ_SIZE:64
L1I_WQ_SIZE:64
L1I_PQ_SIZE:8
L1I_MSHR_SIZE:8

L1D Configuration:
L1D_SET:64
L1D_WAY:12
L1D_RQ_SIZE:64
L1D_WQ_SIZE:64
L1D_PQ_SIZE:8
L1D_MSHR_SIZE:16

L2C Configuration:
L2C_SET:1024
L2C_WAY:8
L2C_RQ_SIZE:32
L2C_WQ_SIZE:32
L2C_PQ_SIZE:16
L2C_MSHR_SIZE:32

LLC Configuration:
LLC_SET:4096
LLC_WAY:16
LLC SLICES:8
LLC_RQ_SIZE:64
LLC_WQ_SIZE:64
LLC_PQ_SIZE:32
LLC_MSHR_SIZE:64

Interconnect OFF
Attacker deprioritize is: OFF
Off-chip DRAM Size: 4096 MB Channels: 1 Width: 64-bit Data Rate: 3200 MT/s
PAGE SIZE in KB: 4.000000 
PAGE SIZE in MB: 0.003906 
PAGE offset in bits: 12 
CEASER-S_LLC:0
MIRAGE : 1
CEASER_LATENCY:3
REMAP : OFF
Partitions : 1
Multi-Step : OFF
BFS : OFF

CPU 0 runs /home/anubhav/gap/pr-14.trace.gz
CPU 0 Bimodal branch predictor
Initialize Hawkeye state
Initialize Hawkeye state
Initialize Hawkeye state
Initialize Hawkeye state
Initialize Hawkeye state
Initialize Hawkeye state
Initialize Hawkeye state
Initialize Hawkeye state
Heartbeat CPU 0 instructions: 10000001 cycles: 3863802 heartbeat IPC: 2.58812 cumulative IPC: 2.58812 (Simulation time: 0 hr 2 min 33 sec) 
 Total Blocks : 524288 Invalid Blocks : 339187
Heartbeat CPU 0 instructions: 20000000 cycles: 13175721 heartbeat IPC: 1.07389 cumulative IPC: 1.51794 (Simulation time: 0 hr 8 min 13 sec) 
 Total Blocks : 524288 Invalid Blocks : 248473
Heartbeat CPU 0 instructions: 30000002 cycles: 23697415 heartbeat IPC: 0.950418 cumulative IPC: 1.26596 (Simulation time: 0 hr 15 min 6 sec) 
 Total Blocks : 524288 Invalid Blocks : 192003
Heartbeat CPU 0 instructions: 40000002 cycles: 34143430 heartbeat IPC: 0.957303 cumulative IPC: 1.17153 (Simulation time: 0 hr 22 min 4 sec) 
 Total Blocks : 524288 Invalid Blocks : 148047
Heartbeat CPU 0 instructions: 50000003 cycles: 44598781 heartbeat IPC: 0.956448 cumulative IPC: 1.12111 (Simulation time: 0 hr 29 min 14 sec) 
 Total Blocks : 524288 Invalid Blocks : 113845
Heartbeat CPU 0 instructions: 60000000 cycles: 55079276 heartbeat IPC: 0.954153 cumulative IPC: 1.08934 (Simulation time: 0 hr 36 min 20 sec) 
 Total Blocks : 524288 Invalid Blocks : 87502
Heartbeat CPU 0 instructions: 70000000 cycles: 65524314 heartbeat IPC: 0.957392 cumulative IPC: 1.06831 (Simulation time: 0 hr 43 min 22 sec) 
 Total Blocks : 524288 Invalid Blocks : 67336
Heartbeat CPU 0 instructions: 80000000 cycles: 76026003 heartbeat IPC: 0.952228 cumulative IPC: 1.05227 (Simulation time: 0 hr 50 min 39 sec) 
 Total Blocks : 524288 Invalid Blocks : 51764
Heartbeat CPU 0 instructions: 90000003 cycles: 86523340 heartbeat IPC: 0.952623 cumulative IPC: 1.04018 (Simulation time: 0 hr 57 min 46 sec) 
 Total Blocks : 524288 Invalid Blocks : 39526
Heartbeat CPU 0 instructions: 100000000 cycles: 96925291 heartbeat IPC: 0.961358 cumulative IPC: 1.03172 (Simulation time: 1 hr 4 min 42 sec) 
 Total Blocks : 524288 Invalid Blocks : 30218
Heartbeat CPU 0 instructions: 110000000 cycles: 107473690 heartbeat IPC: 0.948011 cumulative IPC: 1.02351 (Simulation time: 1 hr 12 min 2 sec) 
 Total Blocks : 524288 Invalid Blocks : 23204
Heartbeat CPU 0 instructions: 120000000 cycles: 117946644 heartbeat IPC: 0.95484 cumulative IPC: 1.01741 (Simulation time: 1 hr 19 min 17 sec) 
 Total Blocks : 524288 Invalid Blocks : 17671
Heartbeat CPU 0 instructions: 130000003 cycles: 128409798 heartbeat IPC: 0.955735 cumulative IPC: 1.01238 (Simulation time: 1 hr 27 min 43 sec) 
 Total Blocks : 524288 Invalid Blocks : 13491
Heartbeat CPU 0 instructions: 140000001 cycles: 138822483 heartbeat IPC: 0.960367 cumulative IPC: 1.00848 (Simulation time: 1 hr 36 min 17 sec) 
 Total Blocks : 524288 Invalid Blocks : 10213
Heartbeat CPU 0 instructions: 150000000 cycles: 149300472 heartbeat IPC: 0.954382 cumulative IPC: 1.00469 (Simulation time: 1 hr 44 min 33 sec) 
 Total Blocks : 524288 Invalid Blocks : 7862
Heartbeat CPU 0 instructions: 160000000 cycles: 159741858 heartbeat IPC: 0.957727 cumulative IPC: 1.00162 (Simulation time: 1 hr 52 min 52 sec) 
 Total Blocks : 524288 Invalid Blocks : 5970
Heartbeat CPU 0 instructions: 170000002 cycles: 170298365 heartbeat IPC: 0.947283 cumulative IPC: 0.998248 (Simulation time: 2 hr 1 min 1 sec) 
 Total Blocks : 524288 Invalid Blocks : 4569
Heartbeat CPU 0 instructions: 180000000 cycles: 180765152 heartbeat IPC: 0.955403 cumulative IPC: 0.995767 (Simulation time: 2 hr 9 min 18 sec) 
 Total Blocks : 524288 Invalid Blocks : 3549
Heartbeat CPU 0 instructions: 190000003 cycles: 189154524 heartbeat IPC: 1.19198 cumulative IPC: 1.00447 (Simulation time: 2 hr 15 min 48 sec) 
 Total Blocks : 524288 Invalid Blocks : 2668
Heartbeat CPU 0 instructions: 200000001 cycles: 193982928 heartbeat IPC: 2.07108 cumulative IPC: 1.03102 (Simulation time: 2 hr 19 min 10 sec) 
 Total Blocks : 524288 Invalid Blocks : 1963

Warmup complete CPU 0 instructions: 200000001 cycles: 193982928 (Simulation time: 2 hr 19 min 10 sec) 

Heartbeat CPU 0 instructions: 210000000 cycles: 318847283 heartbeat IPC: 0.0800869 cumulative IPC: 0.0800869 (Simulation time: 2 hr 43 min 7 sec) 
 Total Blocks : 524288 Invalid Blocks : 1526
Heartbeat CPU 0 instructions: 220000000 cycles: 443302654 heartbeat IPC: 0.0803501 cumulative IPC: 0.0802183 (Simulation time: 3 hr 2 min 43 sec) 
 Total Blocks : 524288 Invalid Blocks : 1191
Heartbeat CPU 0 instructions: 230000000 cycles: 568057995 heartbeat IPC: 0.0801569 cumulative IPC: 0.0801978 (Simulation time: 3 hr 18 min 2 sec) 
 Total Blocks : 524288 Invalid Blocks : 912
Heartbeat CPU 0 instructions: 240000001 cycles: 691295049 heartbeat IPC: 0.0811444 cumulative IPC: 0.0804324 (Simulation time: 3 hr 28 min 57 sec) 
 Total Blocks : 524288 Invalid Blocks : 725
Heartbeat CPU 0 instructions: 250000002 cycles: 816764277 heartbeat IPC: 0.0797008 cumulative IPC: 0.080285 (Simulation time: 3 hr 39 min 47 sec) 
 Total Blocks : 524288 Invalid Blocks : 558
Heartbeat CPU 0 instructions: 260000002 cycles: 940757188 heartbeat IPC: 0.0806498 cumulative IPC: 0.0803456 (Simulation time: 3 hr 50 min 20 sec) 
 Total Blocks : 524288 Invalid Blocks : 420
Heartbeat CPU 0 instructions: 270000003 cycles: 1065917541 heartbeat IPC: 0.0798975 cumulative IPC: 0.0802813 (Simulation time: 4 hr 0 min 34 sec) 
 Total Blocks : 524288 Invalid Blocks : 324
Heartbeat CPU 0 instructions: 280000000 cycles: 1189573054 heartbeat IPC: 0.0808698 cumulative IPC: 0.0803544 (Simulation time: 4 hr 10 min 22 sec) 
 Total Blocks : 524288 Invalid Blocks : 249
Heartbeat CPU 0 instructions: 290000000 cycles: 1313348828 heartbeat IPC: 0.0807913 cumulative IPC: 0.0804027 (Simulation time: 4 hr 20 min 3 sec) 
 Total Blocks : 524288 Invalid Blocks : 183
Heartbeat CPU 0 instructions: 300000000 cycles: 1438665508 heartbeat IPC: 0.0797978 cumulative IPC: 0.0803418 (Simulation time: 4 hr 29 min 28 sec) 
 Total Blocks : 524288 Invalid Blocks : 145
Heartbeat CPU 0 instructions: 310000003 cycles: 1564049107 heartbeat IPC: 0.0797553 cumulative IPC: 0.0802881 (Simulation time: 4 hr 38 min 39 sec) 
 Total Blocks : 524288 Invalid Blocks : 113
Heartbeat CPU 0 instructions: 320000000 cycles: 1687019927 heartbeat IPC: 0.0813201 cumulative IPC: 0.0803731 (Simulation time: 4 hr 47 min 41 sec) 
 Total Blocks : 524288 Invalid Blocks : 88
Heartbeat CPU 0 instructions: 330000000 cycles: 1810459456 heartbeat IPC: 0.0810113 cumulative IPC: 0.0804218 (Simulation time: 4 hr 56 min 38 sec) 
 Total Blocks : 524288 Invalid Blocks : 72
Heartbeat CPU 0 instructions: 340000002 cycles: 1935734324 heartbeat IPC: 0.0798245 cumulative IPC: 0.0803789 (Simulation time: 5 hr 5 min 34 sec) 
 Total Blocks : 524288 Invalid Blocks : 54
Heartbeat CPU 0 instructions: 350000002 cycles: 2060115998 heartbeat IPC: 0.0803977 cumulative IPC: 0.0803801 (Simulation time: 5 hr 14 min 21 sec) 
 Total Blocks : 524288 Invalid Blocks : 36
Heartbeat CPU 0 instructions: 360000001 cycles: 2185105169 heartbeat IPC: 0.0800069 cumulative IPC: 0.0803567 (Simulation time: 5 hr 22 min 54 sec) 
 Total Blocks : 524288 Invalid Blocks : 26
Heartbeat CPU 0 instructions: 370000001 cycles: 2309661103 heartbeat IPC: 0.0802852 cumulative IPC: 0.0803525 (Simulation time: 5 hr 31 min 31 sec) 
 Total Blocks : 524288 Invalid Blocks : 21
Heartbeat CPU 0 instructions: 380000000 cycles: 2360531554 heartbeat IPC: 0.196578 cumulative IPC: 0.0830814 (Simulation time: 5 hr 35 min 17 sec) 
 Total Blocks : 524288 Invalid Blocks : 19
Heartbeat CPU 0 instructions: 390000000 cycles: 2418600810 heartbeat IPC: 0.172208 cumulative IPC: 0.0854079 (Simulation time: 5 hr 39 min 24 sec) 
 Total Blocks : 524288 Invalid Blocks : 16
Heartbeat CPU 0 instructions: 400000000 cycles: 2544213718 heartbeat IPC: 0.0796097 cumulative IPC: 0.085098 (Simulation time: 5 hr 47 min 34 sec) 
 Total Blocks : 524288 Invalid Blocks : 14
Finished CPU 0 instructions: 200000003 cycles: 2350230865 cumulative IPC: 0.085098 (Simulation time: 5 hr 47 min 34 sec) 

CPU 0 Branch Prediction Accuracy: 96.4326% MPKI: 6.60449 Average ROB Occupancy at Mispredict: 145.829

ChampSim completed all CPUs

Region of Interest Statistics

CPU 0 cumulative IPC: 0.085098 instructions: 200000003 cycles: 2350230865
ITLB TOTAL     ACCESS: 34177509  HIT: 34177509  MISS:     0  HIT %:   100  MISS %:     0  AVERAGE MISS PENALTY: 0
ITLB LOAD      ACCESS: 34177509  HIT: 34177509  MISS:     0  HIT %:   100  MISS %:     0  AVERAGE MISS PENALTY: 0
ITLB RFO       ACCESS:     0  HIT:     0  MISS:     0  HIT %:     0  MISS %:     0  AVERAGE MISS PENALTY: 0
ITLB PREFETCH  ACCESS:     0  HIT:     0  MISS:     0  HIT %:     0  MISS %:     0  AVERAGE MISS PENALTY: 0
ITLB WRITEBACK ACCESS:     0  HIT:     0  MISS:     0  HIT %:     0  MISS %:     0  AVERAGE MISS PENALTY: 0
ITLB PREFETCH  REQUESTED:     0  ISSUED:     0  USEFUL:     0  USELESS:     0
 USEFUL LOAD PREFETCHES:          0 PREFETCH ISSUED TO LOWER LEVEL:          0  ACCURACY: -nan
 TIMELY PREFETCHES:          0 LATE PREFETCHES: 0 DROPPED PREFETCHES: 0
ITLB AVERAGE MISS LATENCY: -nan cycles
DTLB TOTAL     ACCESS: 78345983  HIT: 55359029  MISS: 22986954  HIT %: 70.6597  MISS %: 29.3403  AVERAGE MISS PENALTY: 9.18636
DTLB LOAD      ACCESS: 75587168  HIT: 52605831  MISS: 22981337  HIT %: 69.5962  MISS %: 30.4038  AVERAGE MISS PENALTY: 9.18318
DTLB RFO       ACCESS: 2758815  HIT: 2753198  MISS:  5617  HIT %: 99.7964  MISS %: 0.203602  AVERAGE MISS PENALTY: 22.1921
DTLB PREFETCH  ACCESS:     0  HIT:     0  MISS:     0  HIT %:     0  MISS %:     0  AVERAGE MISS PENALTY: 0
DTLB WRITEBACK ACCESS:     0  HIT:     0  MISS:     0  HIT %:     0  MISS %:     0  AVERAGE MISS PENALTY: 0
DTLB PREFETCH  REQUESTED:     0  ISSUED:     0  USEFUL:     0  USELESS:     0
 USEFUL LOAD PREFETCHES:          0 PREFETCH ISSUED TO LOWER LEVEL:          0  ACCURACY: -nan
 TIMELY PREFETCHES:          0 LATE PREFETCHES: 0 DROPPED PREFETCHES: 0
DTLB AVERAGE MISS LATENCY: 9.18636 cycles
STLB TOTAL     ACCESS: 22986954  HIT: 22946135  MISS: 40819  HIT %: 99.8224  MISS %: 0.177575  AVERAGE MISS PENALTY: 100
STLB LOAD      ACCESS: 22981337  HIT: 22941259  MISS: 40078  HIT %: 99.8256  MISS %: 0.174394  AVERAGE MISS PENALTY: 100
STLB RFO       ACCESS:  5617  HIT:  4876  MISS:   741  HIT %: 86.8079  MISS %: 13.1921  AVERAGE MISS PENALTY: 100
STLB PREFETCH  ACCESS:     0  HIT:     0  MISS:     0  HIT %:     0  MISS %:     0  AVERAGE MISS PENALTY: 0
STLB WRITEBACK ACCESS:     0  HIT:     0  MISS:     0  HIT %:     0  MISS %:     0  AVERAGE MISS PENALTY: 0
STLB PREFETCH  REQUESTED:     0  ISSUED:     0  USEFUL:     0  USELESS:     0
 USEFUL LOAD PREFETCHES:          0 PREFETCH ISSUED TO LOWER LEVEL:          0  ACCURACY: -nan
 TIMELY PREFETCHES:          0 LATE PREFETCHES: 0 DROPPED PREFETCHES: 0
STLB AVERAGE MISS LATENCY: 100 cycles
L1D TOTAL     ACCESS: 258622364  HIT: 48688509  MISS: 209933855  HIT %: 18.8261  MISS %: 81.1739  AVERAGE MISS PENALTY: 4.17184e+06
L1D LOAD      ACCESS: 66804191  HIT: 35189309  MISS: 31614882  HIT %: 52.6753  MISS %: 47.3247  AVERAGE MISS PENALTY: 2.7702e+07
L1D RFO       ACCESS: 2825809  HIT: 2760249  MISS: 65560  HIT %: 97.68  MISS %: 2.32004  AVERAGE MISS PENALTY: 36029.7
L1D PREFETCH  ACCESS: 188992364  HIT: 10738951  MISS: 178253413  HIT %: 5.68221  MISS %: 94.3178  AVERAGE MISS PENALTY: 68.9856
L1D WRITEBACK ACCESS:     0  HIT:     0  MISS:     0  HIT %:     0  MISS %:     0  AVERAGE MISS PENALTY: 0
L1D PREFETCH  REQUESTED: 193836948  ISSUED: 192783542  USEFUL: 4200092  USELESS: 174053282
 USEFUL LOAD PREFETCHES:    4200092 PREFETCH ISSUED TO LOWER LEVEL:  181977461  ACCURACY: 2.30803
 TIMELY PREFETCHES:    4200092 LATE PREFETCHES: 634418 DROPPED PREFETCHES: 1053406
L1D AVERAGE MISS LATENCY: 63.6791 cycles
L1I TOTAL     ACCESS: 35920953  HIT: 35920939  MISS:    14  HIT %:   100  MISS %: 3.89745e-05  AVERAGE MISS PENALTY: 130.929
L1I LOAD      ACCESS: 35920953  HIT: 35920939  MISS:    14  HIT %:   100  MISS %: 3.89745e-05  AVERAGE MISS PENALTY: 130.929
L1I RFO       ACCESS:     0  HIT:     0  MISS:     0  HIT %:     0  MISS %:     0  AVERAGE MISS PENALTY: 0
L1I PREFETCH  ACCESS:     0  HIT:     0  MISS:     0  HIT %:     0  MISS %:     0  AVERAGE MISS PENALTY: 0
L1I WRITEBACK ACCESS:     0  HIT:     0  MISS:     0  HIT %:     0  MISS %:     0  AVERAGE MISS PENALTY: 0
L1I PREFETCH  REQUESTED:     0  ISSUED:     0  USEFUL:     0  USELESS:     0
 USEFUL LOAD PREFETCHES:          0 PREFETCH ISSUED TO LOWER LEVEL:          0  ACCURACY: -nan
 TIMELY PREFETCHES:          0 LATE PREFETCHES: 0 DROPPED PREFETCHES: 0
L1I AVERAGE MISS LATENCY: 130.929 cycles
L2C TOTAL     ACCESS: 352154176  HIT: 24947396  MISS: 327206780  HIT %: 7.08423  MISS %: 92.9158  AVERAGE MISS PENALTY: 2.22079e+06
L2C LOAD      ACCESS: 31543491  HIT: 1786186  MISS: 29757305  HIT %: 5.66261  MISS %: 94.3374  AVERAGE MISS PENALTY: 2.4419e+07
L2C RFO       ACCESS: 65559  HIT:    75  MISS: 65484  HIT %: 0.114401  MISS %: 99.8856  AVERAGE MISS PENALTY: 36056.2
L2C PREFETCH  ACCESS: 320309003  HIT: 22925053  MISS: 297383950  HIT %: 7.15717  MISS %: 92.8428  AVERAGE MISS PENALTY: 39.7668
L2C WRITEBACK ACCESS: 236123  HIT: 236082  MISS:    41  HIT %: 99.9826  MISS %: 0.0173638  AVERAGE MISS PENALTY: 0
L2C PREFETCH  REQUESTED: 787437088  ISSUED: 787421210  USEFUL: 1399937  USELESS: 295983033
 USEFUL LOAD PREFETCHES:    1399937 PREFETCH ISSUED TO LOWER LEVEL:  301069626  ACCURACY: 0.464988
 TIMELY PREFETCHES:    1399937 LATE PREFETCHES: 651988 DROPPED PREFETCHES: 15878
L2C AVERAGE MISS LATENCY: 39.0656 cycles
LLC0 TOTAL     ACCESS: 42062655  HIT: 41715787  MISS: 346868  HIT %: 99.1754  MISS %: 0.824646  AVERAGE MISS PENALTY: 120.014
LLC0 LOAD      ACCESS: 3802104  HIT: 3760498  MISS: 41606  HIT %: 98.9057  MISS %: 1.09429  AVERAGE MISS PENALTY: 131.947
LLC0 RFO       ACCESS:  8187  HIT:  6865  MISS:  1322  HIT %: 83.8524  MISS %: 16.1476  AVERAGE MISS PENALTY: 144.371
LLC0 PREFETCH  ACCESS: 38235373  HIT: 37931691  MISS: 303682  HIT %: 99.2058  MISS %: 0.794244  AVERAGE MISS PENALTY: 118.375
LLC0 WRITEBACK ACCESS: 16991  HIT: 16733  MISS:   258  HIT %: 98.4815  MISS %: 1.51845  AVERAGE MISS PENALTY: 0
LLC0 PREFETCH  REQUESTED:     0  ISSUED:     0  USEFUL: 36773  USELESS: 264258
 USEFUL LOAD PREFETCHES:      36773 PREFETCH ISSUED TO LOWER LEVEL:     303682  ACCURACY: 12.109
 TIMELY PREFETCHES:      36773 LATE PREFETCHES: 0 DROPPED PREFETCHES: 0
LLC0 AVERAGE MISS LATENCY: 120.014 cycles
Deadblocks : 36537 Deadblock percentage : 87.8167

LLC1 TOTAL     ACCESS: 42162871  HIT: 41816216  MISS: 346655  HIT %: 99.1778  MISS %: 0.822181  AVERAGE MISS PENALTY: 120.993
LLC1 LOAD      ACCESS: 3763566  HIT: 3755365  MISS:  8201  HIT %: 99.7821  MISS %: 0.217905  AVERAGE MISS PENALTY: 153.8
LLC1 RFO       ACCESS:  8188  HIT:  6859  MISS:  1329  HIT %: 83.7689  MISS %: 16.2311  AVERAGE MISS PENALTY: 152.005
LLC1 PREFETCH  ACCESS: 38374123  HIT: 38037223  MISS: 336900  HIT %: 99.1221  MISS %: 0.877935  AVERAGE MISS PENALTY: 120.153
LLC1 WRITEBACK ACCESS: 16994  HIT: 16769  MISS:   225  HIT %: 98.676  MISS %: 1.324  AVERAGE MISS PENALTY: 0
LLC1 PREFETCH  REQUESTED:     0  ISSUED:     0  USEFUL: 36659  USELESS: 297343
 USEFUL LOAD PREFETCHES:      36659 PREFETCH ISSUED TO LOWER LEVEL:     336900  ACCURACY: 10.8813
 TIMELY PREFETCHES:      36659 LATE PREFETCHES: 0 DROPPED PREFETCHES: 0
LLC1 AVERAGE MISS LATENCY: 120.993 cycles
LLC2 TOTAL     ACCESS: 41838572  HIT: 41492061  MISS: 346511  HIT %: 99.1718  MISS %: 0.828209  AVERAGE MISS PENALTY: 122.053
LLC2 LOAD      ACCESS: 3629445  HIT: 3626009  MISS:  3436  HIT %: 99.9053  MISS %: 0.0946701  AVERAGE MISS PENALTY: 177.75
LLC2 RFO       ACCESS:  8184  HIT:  6847  MISS:  1337  HIT %: 83.6632  MISS %: 16.3368  AVERAGE MISS PENALTY: 152.013
LLC2 PREFETCH  ACCESS: 38183951  HIT: 37842469  MISS: 341482  HIT %: 99.1057  MISS %: 0.894308  AVERAGE MISS PENALTY: 121.467
LLC2 WRITEBACK ACCESS: 16992  HIT: 16736  MISS:   256  HIT %: 98.4934  MISS %: 1.50659  AVERAGE MISS PENALTY: 0
LLC2 PREFETCH  REQUESTED:     0  ISSUED:     0  USEFUL: 36778  USELESS: 301423
 USEFUL LOAD PREFETCHES:      36778 PREFETCH ISSUED TO LOWER LEVEL:     341482  ACCURACY: 10.7701
 TIMELY PREFETCHES:      36778 LATE PREFETCHES: 0 DROPPED PREFETCHES: 0
LLC2 AVERAGE MISS LATENCY: 122.053 cycles
LLC3 TOTAL     ACCESS: 41231400  HIT: 40884444  MISS: 346956  HIT %: 99.1585  MISS %: 0.841485  AVERAGE MISS PENALTY: 122.52
LLC3 LOAD      ACCESS: 3724515  HIT: 3720802  MISS:  3713  HIT %: 99.9003  MISS %: 0.0996908  AVERAGE MISS PENALTY: 177.786
LLC3 RFO       ACCESS:  8183  HIT:  6833  MISS:  1350  HIT %: 83.5024  MISS %: 16.4976  AVERAGE MISS PENALTY: 144.288
LLC3 PREFETCH  ACCESS: 37481710  HIT: 37140047  MISS: 341663  HIT %: 99.0885  MISS %: 0.911546  AVERAGE MISS PENALTY: 121.916
LLC3 WRITEBACK ACCESS: 16992  HIT: 16762  MISS:   230  HIT %: 98.6464  MISS %: 1.35358  AVERAGE MISS PENALTY: 0
LLC3 PREFETCH  REQUESTED:     0  ISSUED:     0  USEFUL: 36682  USELESS: 301953
 USEFUL LOAD PREFETCHES:      36682 PREFETCH ISSUED TO LOWER LEVEL:     341663  ACCURACY: 10.7363
 TIMELY PREFETCHES:      36682 LATE PREFETCHES: 0 DROPPED PREFETCHES: 0
LLC3 AVERAGE MISS LATENCY: 122.52 cycles
LLC4 TOTAL     ACCESS: 40890239  HIT: 40543016  MISS: 347223  HIT %: 99.1508  MISS %: 0.849159  AVERAGE MISS PENALTY: 122.688
LLC4 LOAD      ACCESS: 3744508  HIT: 3740722  MISS:  3786  HIT %: 99.8989  MISS %: 0.101108  AVERAGE MISS PENALTY: 177.344
LLC4 RFO       ACCESS:  8183  HIT:  6874  MISS:  1309  HIT %: 84.0034  MISS %: 15.9966  AVERAGE MISS PENALTY: 141.236
LLC4 PREFETCH  ACCESS: 37120553  HIT: 36778665  MISS: 341888  HIT %: 99.079  MISS %: 0.921021  AVERAGE MISS PENALTY: 122.098
LLC4 WRITEBACK ACCESS: 16995  HIT: 16755  MISS:   240  HIT %: 98.5878  MISS %: 1.41218  AVERAGE MISS PENALTY: 0
LLC4 PREFETCH  REQUESTED:     0  ISSUED:     0  USEFUL: 37052  USELESS: 301783
 USEFUL LOAD PREFETCHES:      37052 PREFETCH ISSUED TO LOWER LEVEL:     341888  ACCURACY: 10.8375
 TIMELY PREFETCHES:      37052 LATE PREFETCHES: 0 DROPPED PREFETCHES: 0
LLC4 AVERAGE MISS LATENCY: 122.688 cycles
LLC5 TOTAL     ACCESS: 40478390  HIT: 40131597  MISS: 346793  HIT %: 99.1433  MISS %: 0.856736  AVERAGE MISS PENALTY: 122.946
LLC5 LOAD      ACCESS: 3667869  HIT: 3663903  MISS:  3966  HIT %: 99.8919  MISS %: 0.108128  AVERAGE MISS PENALTY: 178.054
LLC5 RFO       ACCESS:  8185  HIT:  6852  MISS:  1333  HIT %: 83.7141  MISS %: 16.2859  AVERAGE MISS PENALTY: 150.786
LLC5 PREFETCH  ACCESS: 36785343  HIT: 36444099  MISS: 341244  HIT %: 99.0723  MISS %: 0.927663  AVERAGE MISS PENALTY: 122.287
LLC5 WRITEBACK ACCESS: 16993  HIT: 16743  MISS:   250  HIT %: 98.5288  MISS %: 1.47119  AVERAGE MISS PENALTY: 0
LLC5 PREFETCH  REQUESTED:     0  ISSUED:     0  USEFUL: 36503  USELESS: 301831
 USEFUL LOAD PREFETCHES:      36503 PREFETCH ISSUED TO LOWER LEVEL:     341244  ACCURACY: 10.697
 TIMELY PREFETCHES:      36503 LATE PREFETCHES: 0 DROPPED PREFETCHES: 0
LLC5 AVERAGE MISS LATENCY: 122.946 cycles
LLC6 TOTAL     ACCESS: 39698054  HIT: 39351451  MISS: 346603  HIT %: 99.1269  MISS %: 0.873098  AVERAGE MISS PENALTY: 123.461
LLC6 LOAD      ACCESS: 3667469  HIT: 3663509  MISS:  3960  HIT %: 99.892  MISS %: 0.107976  AVERAGE MISS PENALTY: 177.895
LLC6 RFO       ACCESS:  8186  HIT:  6883  MISS:  1303  HIT %: 84.0826  MISS %: 15.9174  AVERAGE MISS PENALTY: 145.933
LLC6 PREFETCH  ACCESS: 36005405  HIT: 35664311  MISS: 341094  HIT %: 99.0527  MISS %: 0.947341  AVERAGE MISS PENALTY: 122.832
LLC6 WRITEBACK ACCESS: 16994  HIT: 16748  MISS:   246  HIT %: 98.5524  MISS %: 1.44757  AVERAGE MISS PENALTY: 0
LLC6 PREFETCH  REQUESTED:     0  ISSUED:     0  USEFUL: 36450  USELESS: 301742
 USEFUL LOAD PREFETCHES:      36450 PREFETCH ISSUED TO LOWER LEVEL:     341094  ACCURACY: 10.6862
 TIMELY PREFETCHES:      36450 LATE PREFETCHES: 0 DROPPED PREFETCHES: 0
LLC6 AVERAGE MISS LATENCY: 123.461 cycles
LLC7 TOTAL     ACCESS: 38980511  HIT: 38634029  MISS: 346482  HIT %: 99.1111  MISS %: 0.88886  AVERAGE MISS PENALTY: 122.786
LLC7 LOAD      ACCESS: 3674242  HIT: 3669997  MISS:  4245  HIT %: 99.8845  MISS %: 0.115534  AVERAGE MISS PENALTY: 177.84
LLC7 RFO       ACCESS:  8187  HIT:  6852  MISS:  1335  HIT %: 83.6937  MISS %: 16.3063  AVERAGE MISS PENALTY: 148.685
LLC7 PREFETCH  ACCESS: 35281084  HIT: 34940456  MISS: 340628  HIT %: 99.0345  MISS %: 0.965469  AVERAGE MISS PENALTY: 122.097
LLC7 WRITEBACK ACCESS: 16998  HIT: 16724  MISS:   274  HIT %: 98.388  MISS %: 1.61195  AVERAGE MISS PENALTY: 0
LLC7 PREFETCH  REQUESTED:     0  ISSUED:     0  USEFUL: 35841  USELESS: 301930
 USEFUL LOAD PREFETCHES:      35841 PREFETCH ISSUED TO LOWER LEVEL:     340628  ACCURACY: 10.522
 TIMELY PREFETCHES:      35841 LATE PREFETCHES: 0 DROPPED PREFETCHES: 0
LLC7 AVERAGE MISS LATENCY: 122.786 cycles
ROI Average ROB Stall Cycles:	54.2003
ROI Total ROB Stalls Cycles:	2311654210
ROI TOTAL ROB counter      :	42650247
ROI Average Load ROB Stall Cycles:	63.387
ROI Total Load ROB Stalls Cycle  :	2230293637
ROI Total Load ROB stalls Counter:	35185346
Major fault: 0 Minor fault: 34815

