
*** ChampSim Multicore Out-of-Order Simulator ***

Warmup Instructions: 200000000
Simulation Instructions: 200000000
Number of CPUs: 1
threads:1

L1I Configuration:
L1I_SET:64
L1I_WAY:8
L1I_RQ_SIZE:64
L1I_WQ_SIZE:64
L1I_PQ_SIZE:8
L1I_MSHR_SIZE:8

L1D Configuration:
L1D_SET:64
L1D_WAY:12
L1D_RQ_SIZE:64
L1D_WQ_SIZE:64
L1D_PQ_SIZE:8
L1D_MSHR_SIZE:16

L2C Configuration:
L2C_SET:1024
L2C_WAY:8
L2C_RQ_SIZE:32
L2C_WQ_SIZE:32
L2C_PQ_SIZE:16
L2C_MSHR_SIZE:32

LLC Configuration:
LLC_SET:4096
LLC_WAY:16
LLC SLICES:8
LLC_RQ_SIZE:64
LLC_WQ_SIZE:64
LLC_PQ_SIZE:32
LLC_MSHR_SIZE:64

Interconnect OFF
Attacker deprioritize is: OFF
Off-chip DRAM Size: 4096 MB Channels: 1 Width: 64-bit Data Rate: 3200 MT/s
PAGE SIZE in KB: 4.000000 
PAGE SIZE in MB: 0.003906 
PAGE offset in bits: 12 
CEASER-S_LLC:0
MIRAGE : 1
CEASER_LATENCY:3
REMAP : OFF
Partitions : 1
Multi-Step : OFF
BFS : OFF

CPU 0 runs /home/anubhav/gap/pr-5.trace.gz
CPU 0 Bimodal branch predictor
Initialize Hawkeye state
Initialize Hawkeye state
Initialize Hawkeye state
Initialize Hawkeye state
Initialize Hawkeye state
Initialize Hawkeye state
Initialize Hawkeye state
Initialize Hawkeye state
Heartbeat CPU 0 instructions: 10000001 cycles: 3863805 heartbeat IPC: 2.58812 cumulative IPC: 2.58812 (Simulation time: 0 hr 3 min 11 sec) 
 Total Blocks : 524288 Invalid Blocks : 338839
Heartbeat CPU 0 instructions: 20000000 cycles: 12747040 heartbeat IPC: 1.12572 cumulative IPC: 1.56899 (Simulation time: 0 hr 7 min 35 sec) 
 Total Blocks : 524288 Invalid Blocks : 249198
Heartbeat CPU 0 instructions: 30000000 cycles: 22616214 heartbeat IPC: 1.01326 cumulative IPC: 1.32648 (Simulation time: 0 hr 13 min 37 sec) 
 Total Blocks : 524288 Invalid Blocks : 192132
Heartbeat CPU 0 instructions: 40000001 cycles: 33095877 heartbeat IPC: 0.954229 cumulative IPC: 1.20861 (Simulation time: 0 hr 20 min 58 sec) 
 Total Blocks : 524288 Invalid Blocks : 148254
Heartbeat CPU 0 instructions: 50000002 cycles: 43594809 heartbeat IPC: 0.952478 cumulative IPC: 1.14693 (Simulation time: 0 hr 28 min 10 sec) 
 Total Blocks : 524288 Invalid Blocks : 114015
Heartbeat CPU 0 instructions: 60000000 cycles: 53879294 heartbeat IPC: 0.972338 cumulative IPC: 1.1136 (Simulation time: 0 hr 35 min 15 sec) 
 Total Blocks : 524288 Invalid Blocks : 87638
Heartbeat CPU 0 instructions: 70000001 cycles: 64430890 heartbeat IPC: 0.947724 cumulative IPC: 1.08644 (Simulation time: 0 hr 42 min 30 sec) 
 Total Blocks : 524288 Invalid Blocks : 67242
Heartbeat CPU 0 instructions: 80000000 cycles: 74906436 heartbeat IPC: 0.954604 cumulative IPC: 1.068 (Simulation time: 0 hr 49 min 41 sec) 
 Total Blocks : 524288 Invalid Blocks : 51646
Heartbeat CPU 0 instructions: 90000000 cycles: 85295455 heartbeat IPC: 0.962555 cumulative IPC: 1.05516 (Simulation time: 0 hr 56 min 39 sec) 
 Total Blocks : 524288 Invalid Blocks : 39707
Heartbeat CPU 0 instructions: 100000000 cycles: 95758702 heartbeat IPC: 0.955726 cumulative IPC: 1.04429 (Simulation time: 1 hr 3 min 23 sec) 
 Total Blocks : 524288 Invalid Blocks : 30360
Heartbeat CPU 0 instructions: 110000000 cycles: 106226226 heartbeat IPC: 0.955336 cumulative IPC: 1.03553 (Simulation time: 1 hr 11 min 31 sec) 
 Total Blocks : 524288 Invalid Blocks : 23265
Heartbeat CPU 0 instructions: 120000001 cycles: 116724392 heartbeat IPC: 0.952547 cumulative IPC: 1.02806 (Simulation time: 1 hr 18 min 54 sec) 
 Total Blocks : 524288 Invalid Blocks : 17866
Heartbeat CPU 0 instructions: 130000002 cycles: 127141233 heartbeat IPC: 0.959984 cumulative IPC: 1.02249 (Simulation time: 1 hr 26 min 5 sec) 
 Total Blocks : 524288 Invalid Blocks : 13622
Heartbeat CPU 0 instructions: 140000000 cycles: 137603655 heartbeat IPC: 0.955801 cumulative IPC: 1.01741 (Simulation time: 1 hr 33 min 27 sec) 
 Total Blocks : 524288 Invalid Blocks : 10443
Heartbeat CPU 0 instructions: 150000000 cycles: 148087001 heartbeat IPC: 0.953894 cumulative IPC: 1.01292 (Simulation time: 1 hr 40 min 13 sec) 
 Total Blocks : 524288 Invalid Blocks : 8012
Heartbeat CPU 0 instructions: 160000000 cycles: 158511760 heartbeat IPC: 0.959255 cumulative IPC: 1.00939 (Simulation time: 1 hr 46 min 52 sec) 
 Total Blocks : 524288 Invalid Blocks : 6116
Heartbeat CPU 0 instructions: 170000000 cycles: 168981225 heartbeat IPC: 0.955159 cumulative IPC: 1.00603 (Simulation time: 1 hr 53 min 31 sec) 
 Total Blocks : 524288 Invalid Blocks : 4701
Heartbeat CPU 0 instructions: 180000000 cycles: 179510062 heartbeat IPC: 0.949773 cumulative IPC: 1.00273 (Simulation time: 2 hr 0 min 13 sec) 
 Total Blocks : 524288 Invalid Blocks : 3571
Heartbeat CPU 0 instructions: 190000003 cycles: 188034048 heartbeat IPC: 1.17316 cumulative IPC: 1.01046 (Simulation time: 2 hr 5 min 22 sec) 
 Total Blocks : 524288 Invalid Blocks : 2645
Heartbeat CPU 0 instructions: 200000002 cycles: 192863002 heartbeat IPC: 2.07084 cumulative IPC: 1.03701 (Simulation time: 2 hr 7 min 54 sec) 
 Total Blocks : 524288 Invalid Blocks : 1983

Warmup complete CPU 0 instructions: 200000002 cycles: 192863002 (Simulation time: 2 hr 7 min 54 sec) 

Heartbeat CPU 0 instructions: 210000000 cycles: 319167045 heartbeat IPC: 0.079174 cumulative IPC: 0.079174 (Simulation time: 2 hr 26 min 55 sec) 
 Total Blocks : 524288 Invalid Blocks : 1569
Heartbeat CPU 0 instructions: 220000000 cycles: 442084031 heartbeat IPC: 0.0813557 cumulative IPC: 0.08025 (Simulation time: 2 hr 42 min 21 sec) 
 Total Blocks : 524288 Invalid Blocks : 1239
Heartbeat CPU 0 instructions: 230000000 cycles: 566143061 heartbeat IPC: 0.0806068 cumulative IPC: 0.0803686 (Simulation time: 2 hr 57 min 26 sec) 
 Total Blocks : 524288 Invalid Blocks : 949
Heartbeat CPU 0 instructions: 240000000 cycles: 690605046 heartbeat IPC: 0.0803458 cumulative IPC: 0.0803629 (Simulation time: 3 hr 12 min 14 sec) 
 Total Blocks : 524288 Invalid Blocks : 737
Heartbeat CPU 0 instructions: 250000002 cycles: 811631495 heartbeat IPC: 0.0826266 cumulative IPC: 0.0808057 (Simulation time: 3 hr 23 min 12 sec) 
 Total Blocks : 524288 Invalid Blocks : 585
Heartbeat CPU 0 instructions: 260000003 cycles: 936832062 heartbeat IPC: 0.0798718 cumulative IPC: 0.0806485 (Simulation time: 3 hr 32 min 27 sec) 
 Total Blocks : 524288 Invalid Blocks : 434
Heartbeat CPU 0 instructions: 270000000 cycles: 1060113324 heartbeat IPC: 0.0811153 cumulative IPC: 0.0807149 (Simulation time: 3 hr 40 min 31 sec) 
 Total Blocks : 524288 Invalid Blocks : 317
Heartbeat CPU 0 instructions: 280000000 cycles: 1183670252 heartbeat IPC: 0.0809344 cumulative IPC: 0.0807422 (Simulation time: 3 hr 48 min 32 sec) 
 Total Blocks : 524288 Invalid Blocks : 244
Heartbeat CPU 0 instructions: 290000001 cycles: 1308578063 heartbeat IPC: 0.0800591 cumulative IPC: 0.0806658 (Simulation time: 3 hr 56 min 38 sec) 
 Total Blocks : 524288 Invalid Blocks : 196
Heartbeat CPU 0 instructions: 300000000 cycles: 1433610880 heartbeat IPC: 0.079979 cumulative IPC: 0.0805966 (Simulation time: 4 hr 4 min 43 sec) 
 Total Blocks : 524288 Invalid Blocks : 159
Heartbeat CPU 0 instructions: 310000002 cycles: 1557828695 heartbeat IPC: 0.0805038 cumulative IPC: 0.0805881 (Simulation time: 4 hr 12 min 45 sec) 
 Total Blocks : 524288 Invalid Blocks : 122
Heartbeat CPU 0 instructions: 320000001 cycles: 1681771347 heartbeat IPC: 0.0806825 cumulative IPC: 0.080596 (Simulation time: 4 hr 20 min 46 sec) 
 Total Blocks : 524288 Invalid Blocks : 88
Heartbeat CPU 0 instructions: 330000000 cycles: 1806085302 heartbeat IPC: 0.0804415 cumulative IPC: 0.0805841 (Simulation time: 4 hr 28 min 46 sec) 
 Total Blocks : 524288 Invalid Blocks : 66
Heartbeat CPU 0 instructions: 340000000 cycles: 1929414793 heartbeat IPC: 0.0810836 cumulative IPC: 0.0806195 (Simulation time: 4 hr 36 min 43 sec) 
 Total Blocks : 524288 Invalid Blocks : 54
Heartbeat CPU 0 instructions: 350000000 cycles: 2053717301 heartbeat IPC: 0.0804489 cumulative IPC: 0.0806081 (Simulation time: 4 hr 44 min 40 sec) 
 Total Blocks : 524288 Invalid Blocks : 43
Heartbeat CPU 0 instructions: 360000001 cycles: 2178134240 heartbeat IPC: 0.0803749 cumulative IPC: 0.0805935 (Simulation time: 4 hr 52 min 36 sec) 
 Total Blocks : 524288 Invalid Blocks : 33
Heartbeat CPU 0 instructions: 370000000 cycles: 2304385438 heartbeat IPC: 0.0792072 cumulative IPC: 0.0805106 (Simulation time: 5 hr 0 min 38 sec) 
 Total Blocks : 524288 Invalid Blocks : 27
Heartbeat CPU 0 instructions: 380000001 cycles: 2358044279 heartbeat IPC: 0.186363 cumulative IPC: 0.0831339 (Simulation time: 5 hr 4 min 21 sec) 
 Total Blocks : 524288 Invalid Blocks : 23
Heartbeat CPU 0 instructions: 390000000 cycles: 2418139605 heartbeat IPC: 0.166402 cumulative IPC: 0.0853826 (Simulation time: 5 hr 8 min 25 sec) 
 Total Blocks : 524288 Invalid Blocks : 20
Heartbeat CPU 0 instructions: 400000000 cycles: 2542537801 heartbeat IPC: 0.080387 cumulative IPC: 0.0851182 (Simulation time: 5 hr 16 min 15 sec) 
 Total Blocks : 524288 Invalid Blocks : 15
Finished CPU 0 instructions: 200000003 cycles: 2349674813 cumulative IPC: 0.0851182 (Simulation time: 5 hr 16 min 15 sec) 

CPU 0 Branch Prediction Accuracy: 96.4308% MPKI: 6.60772 Average ROB Occupancy at Mispredict: 145.749

ChampSim completed all CPUs

Region of Interest Statistics

CPU 0 cumulative IPC: 0.0851182 instructions: 200000003 cycles: 2349674813
ITLB TOTAL     ACCESS: 34190486  HIT: 34190486  MISS:     0  HIT %:   100  MISS %:     0  AVERAGE MISS PENALTY: 0
ITLB LOAD      ACCESS: 34190486  HIT: 34190486  MISS:     0  HIT %:   100  MISS %:     0  AVERAGE MISS PENALTY: 0
ITLB RFO       ACCESS:     0  HIT:     0  MISS:     0  HIT %:     0  MISS %:     0  AVERAGE MISS PENALTY: 0
ITLB PREFETCH  ACCESS:     0  HIT:     0  MISS:     0  HIT %:     0  MISS %:     0  AVERAGE MISS PENALTY: 0
ITLB WRITEBACK ACCESS:     0  HIT:     0  MISS:     0  HIT %:     0  MISS %:     0  AVERAGE MISS PENALTY: 0
ITLB PREFETCH  REQUESTED:     0  ISSUED:     0  USEFUL:     0  USELESS:     0
 USEFUL LOAD PREFETCHES:          0 PREFETCH ISSUED TO LOWER LEVEL:          0  ACCURACY: -nan
 TIMELY PREFETCHES:          0 LATE PREFETCHES: 0 DROPPED PREFETCHES: 0
ITLB AVERAGE MISS LATENCY: -nan cycles
DTLB TOTAL     ACCESS: 78325098  HIT: 55378396  MISS: 22946702  HIT %: 70.7033  MISS %: 29.2967  AVERAGE MISS PENALTY: 9.18664
DTLB LOAD      ACCESS: 75590997  HIT: 52649291  MISS: 22941706  HIT %: 69.6502  MISS %: 30.3498  AVERAGE MISS PENALTY: 9.18336
DTLB RFO       ACCESS: 2734101  HIT: 2729105  MISS:  4996  HIT %: 99.8173  MISS %: 0.182729  AVERAGE MISS PENALTY: 24.247
DTLB PREFETCH  ACCESS:     0  HIT:     0  MISS:     0  HIT %:     0  MISS %:     0  AVERAGE MISS PENALTY: 0
DTLB WRITEBACK ACCESS:     0  HIT:     0  MISS:     0  HIT %:     0  MISS %:     0  AVERAGE MISS PENALTY: 0
DTLB PREFETCH  REQUESTED:     0  ISSUED:     0  USEFUL:     0  USELESS:     0
 USEFUL LOAD PREFETCHES:          0 PREFETCH ISSUED TO LOWER LEVEL:          0  ACCURACY: -nan
 TIMELY PREFETCHES:          0 LATE PREFETCHES: 0 DROPPED PREFETCHES: 0
DTLB AVERAGE MISS LATENCY: 9.18664 cycles
STLB TOTAL     ACCESS: 22946702  HIT: 22905891  MISS: 40811  HIT %: 99.8221  MISS %: 0.177851  AVERAGE MISS PENALTY: 100
STLB LOAD      ACCESS: 22941706  HIT: 22901652  MISS: 40054  HIT %: 99.8254  MISS %: 0.17459  AVERAGE MISS PENALTY: 100
STLB RFO       ACCESS:  4996  HIT:  4239  MISS:   757  HIT %: 84.8479  MISS %: 15.1521  AVERAGE MISS PENALTY: 100
STLB PREFETCH  ACCESS:     0  HIT:     0  MISS:     0  HIT %:     0  MISS %:     0  AVERAGE MISS PENALTY: 0
STLB WRITEBACK ACCESS:     0  HIT:     0  MISS:     0  HIT %:     0  MISS %:     0  AVERAGE MISS PENALTY: 0
STLB PREFETCH  REQUESTED:     0  ISSUED:     0  USEFUL:     0  USELESS:     0
 USEFUL LOAD PREFETCHES:          0 PREFETCH ISSUED TO LOWER LEVEL:          0  ACCURACY: -nan
 TIMELY PREFETCHES:          0 LATE PREFETCHES: 0 DROPPED PREFETCHES: 0
STLB AVERAGE MISS LATENCY: 100 cycles
L1D TOTAL     ACCESS: 257540806  HIT: 48088143  MISS: 209452663  HIT %: 18.672  MISS %: 81.328  AVERAGE MISS PENALTY: 4.04976e+06
L1D LOAD      ACCESS: 66663839  HIT: 35058473  MISS: 31605366  HIT %: 52.5899  MISS %: 47.4101  AVERAGE MISS PENALTY: 2.68379e+07
L1D RFO       ACCESS: 2585400  HIT: 2519839  MISS: 65561  HIT %: 97.4642  MISS %: 2.53582  AVERAGE MISS PENALTY: 82.8244
L1D PREFETCH  ACCESS: 188291567  HIT: 10509831  MISS: 177781736  HIT %: 5.58168  MISS %: 94.4183  AVERAGE MISS PENALTY: 70.0355
L1D WRITEBACK ACCESS:     0  HIT:     0  MISS:     0  HIT %:     0  MISS %:     0  AVERAGE MISS PENALTY: 0
L1D PREFETCH  REQUESTED: 193212818  ISSUED: 191976750  USEFUL: 4183935  USELESS: 173597764
 USEFUL LOAD PREFETCHES:    4183935 PREFETCH ISSUED TO LOWER LEVEL:  181356473  ACCURACY: 2.30702
 TIMELY PREFETCHES:    4183935 LATE PREFETCHES: 626611 DROPPED PREFETCHES: 1236068
L1D AVERAGE MISS LATENCY: 52.4658 cycles
L1I TOTAL     ACCESS: 35934235  HIT: 35934222  MISS:    13  HIT %:   100  MISS %: 3.61772e-05  AVERAGE MISS PENALTY: 124.385
L1I LOAD      ACCESS: 35934235  HIT: 35934222  MISS:    13  HIT %:   100  MISS %: 3.61772e-05  AVERAGE MISS PENALTY: 124.385
L1I RFO       ACCESS:     0  HIT:     0  MISS:     0  HIT %:     0  MISS %:     0  AVERAGE MISS PENALTY: 0
L1I PREFETCH  ACCESS:     0  HIT:     0  MISS:     0  HIT %:     0  MISS %:     0  AVERAGE MISS PENALTY: 0
L1I WRITEBACK ACCESS:     0  HIT:     0  MISS:     0  HIT %:     0  MISS %:     0  AVERAGE MISS PENALTY: 0
L1I PREFETCH  REQUESTED:     0  ISSUED:     0  USEFUL:     0  USELESS:     0
 USEFUL LOAD PREFETCHES:          0 PREFETCH ISSUED TO LOWER LEVEL:          0  ACCURACY: -nan
 TIMELY PREFETCHES:          0 LATE PREFETCHES: 0 DROPPED PREFETCHES: 0
L1I AVERAGE MISS LATENCY: 124.385 cycles
L2C TOTAL     ACCESS: 351037514  HIT: 24693839  MISS: 326343675  HIT %: 7.03453  MISS %: 92.9655  AVERAGE MISS PENALTY: 2.18153e+06
L2C LOAD      ACCESS: 31536219  HIT: 1786959  MISS: 29749260  HIT %: 5.66637  MISS %: 94.3336  AVERAGE MISS PENALTY: 2.39305e+07
L2C RFO       ACCESS: 65561  HIT:    75  MISS: 65486  HIT %: 0.114397  MISS %: 99.8856  AVERAGE MISS PENALTY: 67.8658
L2C PREFETCH  ACCESS: 319200300  HIT: 22671376  MISS: 296528924  HIT %: 7.10255  MISS %: 92.8974  AVERAGE MISS PENALTY: 39.7668
L2C WRITEBACK ACCESS: 235434  HIT: 235429  MISS:     5  HIT %: 99.9979  MISS %: 0.00212374  AVERAGE MISS PENALTY: 0
L2C PREFETCH  REQUESTED: 784411896  ISSUED: 784394328  USEFUL: 1394087  USELESS: 295133861
 USEFUL LOAD PREFETCHES:    1394087 PREFETCH ISSUED TO LOWER LEVEL:  300187287  ACCURACY: 0.464406
 TIMELY PREFETCHES:    1394087 LATE PREFETCHES: 647752 DROPPED PREFETCHES: 17568
L2C AVERAGE MISS LATENCY: 39.0668 cycles
LLC0 TOTAL     ACCESS: 42026863  HIT: 41680583  MISS: 346280  HIT %: 99.1761  MISS %: 0.823949  AVERAGE MISS PENALTY: 120.172
LLC0 LOAD      ACCESS: 3846924  HIT: 3805413  MISS: 41511  HIT %: 98.9209  MISS %: 1.07907  AVERAGE MISS PENALTY: 131.724
LLC0 RFO       ACCESS:  8186  HIT:  6836  MISS:  1350  HIT %: 83.5084  MISS %: 16.4916  AVERAGE MISS PENALTY: 162.181
LLC0 PREFETCH  ACCESS: 38154764  HIT: 37851593  MISS: 303171  HIT %: 99.2054  MISS %: 0.794582  AVERAGE MISS PENALTY: 118.502
LLC0 WRITEBACK ACCESS: 16989  HIT: 16741  MISS:   248  HIT %: 98.5402  MISS %: 1.45977  AVERAGE MISS PENALTY: 0
LLC0 PREFETCH  REQUESTED:     0  ISSUED:     0  USEFUL: 36364  USELESS: 264403
 USEFUL LOAD PREFETCHES:      36364 PREFETCH ISSUED TO LOWER LEVEL:     303171  ACCURACY: 11.9946
 TIMELY PREFETCHES:      36364 LATE PREFETCHES: 0 DROPPED PREFETCHES: 0
LLC0 AVERAGE MISS LATENCY: 120.172 cycles
Deadblocks : 36493 Deadblock percentage : 87.9116

LLC1 TOTAL     ACCESS: 42130341  HIT: 41783956  MISS: 346385  HIT %: 99.1778  MISS %: 0.822175  AVERAGE MISS PENALTY: 121.028
LLC1 LOAD      ACCESS: 3790491  HIT: 3782399  MISS:  8092  HIT %: 99.7865  MISS %: 0.213482  AVERAGE MISS PENALTY: 153.545
LLC1 RFO       ACCESS:  8188  HIT:  6858  MISS:  1330  HIT %: 83.7567  MISS %: 16.2433  AVERAGE MISS PENALTY: 165.168
LLC1 PREFETCH  ACCESS: 38314670  HIT: 37977947  MISS: 336723  HIT %: 99.1212  MISS %: 0.878836  AVERAGE MISS PENALTY: 120.159
LLC1 WRITEBACK ACCESS: 16992  HIT: 16752  MISS:   240  HIT %: 98.5876  MISS %: 1.41243  AVERAGE MISS PENALTY: 0
LLC1 PREFETCH  REQUESTED:     0  ISSUED:     0  USEFUL: 36708  USELESS: 297146
 USEFUL LOAD PREFETCHES:      36708 PREFETCH ISSUED TO LOWER LEVEL:     336723  ACCURACY: 10.9015
 TIMELY PREFETCHES:      36708 LATE PREFETCHES: 0 DROPPED PREFETCHES: 0
LLC1 AVERAGE MISS LATENCY: 121.028 cycles
LLC2 TOTAL     ACCESS: 41755849  HIT: 41409022  MISS: 346827  HIT %: 99.1694  MISS %: 0.830607  AVERAGE MISS PENALTY: 122.03
LLC2 LOAD      ACCESS: 3607504  HIT: 3603932  MISS:  3572  HIT %: 99.901  MISS %: 0.0990158  AVERAGE MISS PENALTY: 177.857
LLC2 RFO       ACCESS:  8185  HIT:  6787  MISS:  1398  HIT %: 82.92  MISS %: 17.08  AVERAGE MISS PENALTY: 161.841
LLC2 PREFETCH  ACCESS: 38123168  HIT: 37781583  MISS: 341585  HIT %: 99.104  MISS %: 0.896004  AVERAGE MISS PENALTY: 121.381
LLC2 WRITEBACK ACCESS: 16992  HIT: 16720  MISS:   272  HIT %: 98.3992  MISS %: 1.60075  AVERAGE MISS PENALTY: 0
LLC2 PREFETCH  REQUESTED:     0  ISSUED:     0  USEFUL: 36765  USELESS: 301563
 USEFUL LOAD PREFETCHES:      36765 PREFETCH ISSUED TO LOWER LEVEL:     341585  ACCURACY: 10.7631
 TIMELY PREFETCHES:      36765 LATE PREFETCHES: 0 DROPPED PREFETCHES: 0
LLC2 AVERAGE MISS LATENCY: 122.03 cycles
LLC3 TOTAL     ACCESS: 40988801  HIT: 40642195  MISS: 346606  HIT %: 99.1544  MISS %: 0.845611  AVERAGE MISS PENALTY: 122.525
LLC3 LOAD      ACCESS: 3696243  HIT: 3692549  MISS:  3694  HIT %: 99.9001  MISS %: 0.0999393  AVERAGE MISS PENALTY: 177.82
LLC3 RFO       ACCESS:  8185  HIT:  6790  MISS:  1395  HIT %: 82.9566  MISS %: 17.0434  AVERAGE MISS PENALTY: 158.101
LLC3 PREFETCH  ACCESS: 37267381  HIT: 36926103  MISS: 341278  HIT %: 99.0842  MISS %: 0.915755  AVERAGE MISS PENALTY: 121.867
LLC3 WRITEBACK ACCESS: 16992  HIT: 16753  MISS:   239  HIT %: 98.5935  MISS %: 1.40654  AVERAGE MISS PENALTY: 0
LLC3 PREFETCH  REQUESTED:     0  ISSUED:     0  USEFUL: 36486  USELESS: 301711
 USEFUL LOAD PREFETCHES:      36486 PREFETCH ISSUED TO LOWER LEVEL:     341278  ACCURACY: 10.691
 TIMELY PREFETCHES:      36486 LATE PREFETCHES: 0 DROPPED PREFETCHES: 0
LLC3 AVERAGE MISS LATENCY: 122.525 cycles
LLC4 TOTAL     ACCESS: 40808957  HIT: 40462586  MISS: 346371  HIT %: 99.1512  MISS %: 0.848762  AVERAGE MISS PENALTY: 122.378
LLC4 LOAD      ACCESS: 3693593  HIT: 3689842  MISS:  3751  HIT %: 99.8984  MISS %: 0.101554  AVERAGE MISS PENALTY: 178.02
LLC4 RFO       ACCESS:  8185  HIT:  6844  MISS:  1341  HIT %: 83.6164  MISS %: 16.3836  AVERAGE MISS PENALTY: 151.057
LLC4 PREFETCH  ACCESS: 37090188  HIT: 36749162  MISS: 341026  HIT %: 99.0805  MISS %: 0.919451  AVERAGE MISS PENALTY: 121.744
LLC4 WRITEBACK ACCESS: 16991  HIT: 16738  MISS:   253  HIT %: 98.511  MISS %: 1.48902  AVERAGE MISS PENALTY: 0
LLC4 PREFETCH  REQUESTED:     0  ISSUED:     0  USEFUL: 36293  USELESS: 301781
 USEFUL LOAD PREFETCHES:      36293 PREFETCH ISSUED TO LOWER LEVEL:     341026  ACCURACY: 10.6423
 TIMELY PREFETCHES:      36293 LATE PREFETCHES: 0 DROPPED PREFETCHES: 0
LLC4 AVERAGE MISS LATENCY: 122.378 cycles
LLC5 TOTAL     ACCESS: 40367728  HIT: 40021232  MISS: 346496  HIT %: 99.1417  MISS %: 0.858349  AVERAGE MISS PENALTY: 122.733
LLC5 LOAD      ACCESS: 3581579  HIT: 3577793  MISS:  3786  HIT %: 99.8943  MISS %: 0.105708  AVERAGE MISS PENALTY: 177.623
LLC5 RFO       ACCESS:  8186  HIT:  6833  MISS:  1353  HIT %: 83.4718  MISS %: 16.5282  AVERAGE MISS PENALTY: 153.066
LLC5 PREFETCH  ACCESS: 36760972  HIT: 36419883  MISS: 341089  HIT %: 99.0721  MISS %: 0.927856  AVERAGE MISS PENALTY: 122.099
LLC5 WRITEBACK ACCESS: 16991  HIT: 16723  MISS:   268  HIT %: 98.4227  MISS %: 1.57731  AVERAGE MISS PENALTY: 0
LLC5 PREFETCH  REQUESTED:     0  ISSUED:     0  USEFUL: 36291  USELESS: 301908
 USEFUL LOAD PREFETCHES:      36291 PREFETCH ISSUED TO LOWER LEVEL:     341089  ACCURACY: 10.6397
 TIMELY PREFETCHES:      36291 LATE PREFETCHES: 0 DROPPED PREFETCHES: 0
LLC5 AVERAGE MISS LATENCY: 122.733 cycles
LLC6 TOTAL     ACCESS: 39648592  HIT: 39302188  MISS: 346404  HIT %: 99.1263  MISS %: 0.873686  AVERAGE MISS PENALTY: 123.033
LLC6 LOAD      ACCESS: 3811133  HIT: 3806954  MISS:  4179  HIT %: 99.8903  MISS %: 0.109652  AVERAGE MISS PENALTY: 177.502
LLC6 RFO       ACCESS:  8186  HIT:  6836  MISS:  1350  HIT %: 83.5084  MISS %: 16.4916  AVERAGE MISS PENALTY: 156.163
LLC6 PREFETCH  ACCESS: 35812281  HIT: 35471665  MISS: 340616  HIT %: 99.0489  MISS %: 0.951115  AVERAGE MISS PENALTY: 122.327
LLC6 WRITEBACK ACCESS: 16992  HIT: 16733  MISS:   259  HIT %: 98.4758  MISS %: 1.52425  AVERAGE MISS PENALTY: 0
LLC6 PREFETCH  REQUESTED:     0  ISSUED:     0  USEFUL: 35937  USELESS: 301830
 USEFUL LOAD PREFETCHES:      35937 PREFETCH ISSUED TO LOWER LEVEL:     340616  ACCURACY: 10.5506
 TIMELY PREFETCHES:      35937 LATE PREFETCHES: 0 DROPPED PREFETCHES: 0
LLC6 AVERAGE MISS LATENCY: 123.033 cycles
LLC7 TOTAL     ACCESS: 38752469  HIT: 38405714  MISS: 346755  HIT %: 99.1052  MISS %: 0.894795  AVERAGE MISS PENALTY: 122.798
LLC7 LOAD      ACCESS: 3641447  HIT: 3637144  MISS:  4303  HIT %: 99.8818  MISS %: 0.118167  AVERAGE MISS PENALTY: 177.664
LLC7 RFO       ACCESS:  8185  HIT:  6859  MISS:  1326  HIT %: 83.7996  MISS %: 16.2004  AVERAGE MISS PENALTY: 151.213
LLC7 PREFETCH  ACCESS: 35085847  HIT: 34744963  MISS: 340884  HIT %: 99.0284  MISS %: 0.971571  AVERAGE MISS PENALTY: 122.082
LLC7 WRITEBACK ACCESS: 16990  HIT: 16748  MISS:   242  HIT %: 98.5756  MISS %: 1.42437  AVERAGE MISS PENALTY: 0
LLC7 PREFETCH  REQUESTED:     0  ISSUED:     0  USEFUL: 36178  USELESS: 301696
 USEFUL LOAD PREFETCHES:      36178 PREFETCH ISSUED TO LOWER LEVEL:     340884  ACCURACY: 10.613
 TIMELY PREFETCHES:      36178 LATE PREFETCHES: 0 DROPPED PREFETCHES: 0
LLC7 AVERAGE MISS LATENCY: 122.798 cycles
ROI Average ROB Stall Cycles:	54.1413
ROI Total ROB Stalls Cycles:	2311136581
ROI TOTAL ROB counter      :	42687111
ROI Average Load ROB Stall Cycles:	63.426
ROI Total Load ROB Stalls Cycle  :	2229847914
ROI Total Load ROB stalls Counter:	35156696
Major fault: 0 Minor fault: 34808

