
*** ChampSim Multicore Out-of-Order Simulator ***

Warmup Instructions: 200000000
Simulation Instructions: 200000000
Number of CPUs: 1
threads:1

L1I Configuration:
L1I_SET:64
L1I_WAY:8
L1I_RQ_SIZE:64
L1I_WQ_SIZE:64
L1I_PQ_SIZE:8
L1I_MSHR_SIZE:8

L1D Configuration:
L1D_SET:64
L1D_WAY:12
L1D_RQ_SIZE:64
L1D_WQ_SIZE:64
L1D_PQ_SIZE:8
L1D_MSHR_SIZE:16

L2C Configuration:
L2C_SET:1024
L2C_WAY:8
L2C_RQ_SIZE:32
L2C_WQ_SIZE:32
L2C_PQ_SIZE:16
L2C_MSHR_SIZE:32

LLC Configuration:
LLC_SET:4096
LLC_WAY:16
LLC SLICES:8
LLC_RQ_SIZE:64
LLC_WQ_SIZE:64
LLC_PQ_SIZE:32
LLC_MSHR_SIZE:64

Interconnect OFF
Attacker deprioritize is: OFF
Off-chip DRAM Size: 4096 MB Channels: 1 Width: 64-bit Data Rate: 3200 MT/s
PAGE SIZE in KB: 4.000000 
PAGE SIZE in MB: 0.003906 
PAGE offset in bits: 12 
CEASER-S_LLC:0
MIRAGE : 0
CEASER_LATENCY:3
REMAP : OFF
Partitions : 1
Multi-Step : OFF
BFS : OFF

CPU 0 runs /home/anubhav/spec_2017/600.perlbench_s-570B.champsimtrace.xz
CPU 0 Bimodal branch predictor
Initialize Hawkeye state
Initialize Hawkeye state
Initialize Hawkeye state
Initialize Hawkeye state
Initialize Hawkeye state
Initialize Hawkeye state
Initialize Hawkeye state
Initialize Hawkeye state
Heartbeat CPU 0 instructions: 10000002 cycles: 4995839 heartbeat IPC: 2.00167 cumulative IPC: 2.00167 (Simulation time: 0 hr 1 min 8 sec) 
 Total Blocks : 524288 Invalid Blocks : 520212
Heartbeat CPU 0 instructions: 20000002 cycles: 9928113 heartbeat IPC: 2.02746 cumulative IPC: 2.01448 (Simulation time: 0 hr 2 min 29 sec) 
 Total Blocks : 524288 Invalid Blocks : 518580
Heartbeat CPU 0 instructions: 30000000 cycles: 15052397 heartbeat IPC: 1.95149 cumulative IPC: 1.99304 (Simulation time: 0 hr 4 min 23 sec) 
 Total Blocks : 524288 Invalid Blocks : 516527
Heartbeat CPU 0 instructions: 40000001 cycles: 19996123 heartbeat IPC: 2.02277 cumulative IPC: 2.00039 (Simulation time: 0 hr 6 min 13 sec) 
 Total Blocks : 524288 Invalid Blocks : 514464
Heartbeat CPU 0 instructions: 50000002 cycles: 24955278 heartbeat IPC: 2.01647 cumulative IPC: 2.00358 (Simulation time: 0 hr 8 min 49 sec) 
 Total Blocks : 524288 Invalid Blocks : 512621
Heartbeat CPU 0 instructions: 60000000 cycles: 29881600 heartbeat IPC: 2.02991 cumulative IPC: 2.00792 (Simulation time: 0 hr 11 min 23 sec) 
 Total Blocks : 524288 Invalid Blocks : 511216
Heartbeat CPU 0 instructions: 70000001 cycles: 36346166 heartbeat IPC: 1.54689 cumulative IPC: 1.92593 (Simulation time: 0 hr 14 min 3 sec) 
 Total Blocks : 524288 Invalid Blocks : 476326
Heartbeat CPU 0 instructions: 80000000 cycles: 43065112 heartbeat IPC: 1.48833 cumulative IPC: 1.85765 (Simulation time: 0 hr 16 min 57 sec) 
 Total Blocks : 524288 Invalid Blocks : 448813
Heartbeat CPU 0 instructions: 90000000 cycles: 50803958 heartbeat IPC: 1.29218 cumulative IPC: 1.77152 (Simulation time: 0 hr 19 min 50 sec) 
 Total Blocks : 524288 Invalid Blocks : 411782
Heartbeat CPU 0 instructions: 100000002 cycles: 55805882 heartbeat IPC: 1.99923 cumulative IPC: 1.79193 (Simulation time: 0 hr 22 min 29 sec) 
 Total Blocks : 524288 Invalid Blocks : 404507
Heartbeat CPU 0 instructions: 110000000 cycles: 60891828 heartbeat IPC: 1.9662 cumulative IPC: 1.80648 (Simulation time: 0 hr 25 min 7 sec) 
 Total Blocks : 524288 Invalid Blocks : 397633
Heartbeat CPU 0 instructions: 120000001 cycles: 66010840 heartbeat IPC: 1.9535 cumulative IPC: 1.81788 (Simulation time: 0 hr 27 min 51 sec) 
 Total Blocks : 524288 Invalid Blocks : 389504
Heartbeat CPU 0 instructions: 130000000 cycles: 71086377 heartbeat IPC: 1.97023 cumulative IPC: 1.82876 (Simulation time: 0 hr 30 min 27 sec) 
 Total Blocks : 524288 Invalid Blocks : 386833
Heartbeat CPU 0 instructions: 140000003 cycles: 78727058 heartbeat IPC: 1.30878 cumulative IPC: 1.7783 (Simulation time: 0 hr 33 min 4 sec) 
 Total Blocks : 524288 Invalid Blocks : 375430
Heartbeat CPU 0 instructions: 150000001 cycles: 86792534 heartbeat IPC: 1.23985 cumulative IPC: 1.72826 (Simulation time: 0 hr 35 min 49 sec) 
 Total Blocks : 524288 Invalid Blocks : 366438
Heartbeat CPU 0 instructions: 160000000 cycles: 93128254 heartbeat IPC: 1.57835 cumulative IPC: 1.71806 (Simulation time: 0 hr 38 min 31 sec) 
 Total Blocks : 524288 Invalid Blocks : 360933
Heartbeat CPU 0 instructions: 170000001 cycles: 98416091 heartbeat IPC: 1.89113 cumulative IPC: 1.72736 (Simulation time: 0 hr 41 min 6 sec) 
 Total Blocks : 524288 Invalid Blocks : 358600
Heartbeat CPU 0 instructions: 180000003 cycles: 104422139 heartbeat IPC: 1.66499 cumulative IPC: 1.72377 (Simulation time: 0 hr 43 min 41 sec) 
 Total Blocks : 524288 Invalid Blocks : 354929
Heartbeat CPU 0 instructions: 190000001 cycles: 112218620 heartbeat IPC: 1.28263 cumulative IPC: 1.69312 (Simulation time: 0 hr 46 min 23 sec) 
 Total Blocks : 524288 Invalid Blocks : 347503
Heartbeat CPU 0 instructions: 200000001 cycles: 120403415 heartbeat IPC: 1.22178 cumulative IPC: 1.66108 (Simulation time: 0 hr 49 min 4 sec) 
 Total Blocks : 524288 Invalid Blocks : 343260

Warmup complete CPU 0 instructions: 200000001 cycles: 120403415 (Simulation time: 0 hr 49 min 4 sec) 

Heartbeat CPU 0 instructions: 210000000 cycles: 138979573 heartbeat IPC: 0.538324 cumulative IPC: 0.538324 (Simulation time: 0 hr 54 min 29 sec) 
 Total Blocks : 524288 Invalid Blocks : 340964
Heartbeat CPU 0 instructions: 220000000 cycles: 153323905 heartbeat IPC: 0.697139 cumulative IPC: 0.607524 (Simulation time: 0 hr 59 min 17 sec) 
 Total Blocks : 524288 Invalid Blocks : 340222
Heartbeat CPU 0 instructions: 230000003 cycles: 166639555 heartbeat IPC: 0.750996 cumulative IPC: 0.648843 (Simulation time: 1 hr 4 min 1 sec) 
 Total Blocks : 524288 Invalid Blocks : 339689
Heartbeat CPU 0 instructions: 240000001 cycles: 180825077 heartbeat IPC: 0.704944 cumulative IPC: 0.662014 (Simulation time: 1 hr 8 min 59 sec) 
 Total Blocks : 524288 Invalid Blocks : 339011
Heartbeat CPU 0 instructions: 250000002 cycles: 195922267 heartbeat IPC: 0.662375 cumulative IPC: 0.662086 (Simulation time: 1 hr 14 min 0 sec) 
 Total Blocks : 524288 Invalid Blocks : 338364
Heartbeat CPU 0 instructions: 260000002 cycles: 210435558 heartbeat IPC: 0.689024 cumulative IPC: 0.666429 (Simulation time: 1 hr 18 min 54 sec) 
 Total Blocks : 524288 Invalid Blocks : 337792
Heartbeat CPU 0 instructions: 270000001 cycles: 225216656 heartbeat IPC: 0.67654 cumulative IPC: 0.667855 (Simulation time: 1 hr 23 min 46 sec) 
 Total Blocks : 524288 Invalid Blocks : 337039
Heartbeat CPU 0 instructions: 280000002 cycles: 239991108 heartbeat IPC: 0.676844 cumulative IPC: 0.668965 (Simulation time: 1 hr 28 min 25 sec) 
 Total Blocks : 524288 Invalid Blocks : 336473
Heartbeat CPU 0 instructions: 290000001 cycles: 258065605 heartbeat IPC: 0.553266 cumulative IPC: 0.653774 (Simulation time: 1 hr 33 min 44 sec) 
 Total Blocks : 524288 Invalid Blocks : 335127
Heartbeat CPU 0 instructions: 300000001 cycles: 283015103 heartbeat IPC: 0.40081 cumulative IPC: 0.614962 (Simulation time: 1 hr 39 min 38 sec) 
 Total Blocks : 524288 Invalid Blocks : 332134
Heartbeat CPU 0 instructions: 310000000 cycles: 308514656 heartbeat IPC: 0.392164 cumulative IPC: 0.58476 (Simulation time: 1 hr 45 min 36 sec) 
 Total Blocks : 524288 Invalid Blocks : 329484
Heartbeat CPU 0 instructions: 320000002 cycles: 327907669 heartbeat IPC: 0.51565 cumulative IPC: 0.578301 (Simulation time: 1 hr 50 min 49 sec) 
 Total Blocks : 524288 Invalid Blocks : 327738
Heartbeat CPU 0 instructions: 330000000 cycles: 341150002 heartbeat IPC: 0.755154 cumulative IPC: 0.588911 (Simulation time: 1 hr 55 min 7 sec) 
 Total Blocks : 524288 Invalid Blocks : 327294
Heartbeat CPU 0 instructions: 340000003 cycles: 355165600 heartbeat IPC: 0.713491 cumulative IPC: 0.596348 (Simulation time: 1 hr 59 min 36 sec) 
 Total Blocks : 524288 Invalid Blocks : 326833
Heartbeat CPU 0 instructions: 350000001 cycles: 369120685 heartbeat IPC: 0.716585 cumulative IPC: 0.603094 (Simulation time: 2 hr 3 min 53 sec) 
 Total Blocks : 524288 Invalid Blocks : 326461
Heartbeat CPU 0 instructions: 360000001 cycles: 383185165 heartbeat IPC: 0.711011 cumulative IPC: 0.60887 (Simulation time: 2 hr 8 min 18 sec) 
 Total Blocks : 524288 Invalid Blocks : 326076
Heartbeat CPU 0 instructions: 370000001 cycles: 408773615 heartbeat IPC: 0.390801 cumulative IPC: 0.58952 (Simulation time: 2 hr 13 min 47 sec) 
 Total Blocks : 524288 Invalid Blocks : 324130
Heartbeat CPU 0 instructions: 380000000 cycles: 432966812 heartbeat IPC: 0.413339 cumulative IPC: 0.575883 (Simulation time: 2 hr 19 min 15 sec) 
 Total Blocks : 524288 Invalid Blocks : 322038
Heartbeat CPU 0 instructions: 390000003 cycles: 452945429 heartbeat IPC: 0.500535 cumulative IPC: 0.571356 (Simulation time: 2 hr 24 min 8 sec) 
 Total Blocks : 524288 Invalid Blocks : 320663
Heartbeat CPU 0 instructions: 400000000 cycles: 465435579 heartbeat IPC: 0.800631 cumulative IPC: 0.579656 (Simulation time: 2 hr 28 min 10 sec) 
 Total Blocks : 524288 Invalid Blocks : 320587
Finished CPU 0 instructions: 200000000 cycles: 345032172 cumulative IPC: 0.579656 (Simulation time: 2 hr 28 min 10 sec) 

CPU 0 Branch Prediction Accuracy: 96.1878% MPKI: 5.40214 Average ROB Occupancy at Mispredict: 136.185

ChampSim completed all CPUs

Region of Interest Statistics

CPU 0 cumulative IPC: 0.579656 instructions: 200000000 cycles: 345032172
ITLB TOTAL     ACCESS: 31130814  HIT: 31087655  MISS: 43159  HIT %: 99.8614  MISS %: 0.138638  AVERAGE MISS PENALTY: 10.8715
ITLB LOAD      ACCESS: 31130814  HIT: 31087655  MISS: 43159  HIT %: 99.8614  MISS %: 0.138638  AVERAGE MISS PENALTY: 10.8715
ITLB RFO       ACCESS:     0  HIT:     0  MISS:     0  HIT %:     0  MISS %:     0  AVERAGE MISS PENALTY: 0
ITLB PREFETCH  ACCESS:     0  HIT:     0  MISS:     0  HIT %:     0  MISS %:     0  AVERAGE MISS PENALTY: 0
ITLB WRITEBACK ACCESS:     0  HIT:     0  MISS:     0  HIT %:     0  MISS %:     0  AVERAGE MISS PENALTY: 0
ITLB PREFETCH  REQUESTED:     0  ISSUED:     0  USEFUL:     0  USELESS:     0
 USEFUL LOAD PREFETCHES:          0 PREFETCH ISSUED TO LOWER LEVEL:          0  ACCURACY: -nan
 TIMELY PREFETCHES:          0 LATE PREFETCHES: 0 DROPPED PREFETCHES: 0
ITLB AVERAGE MISS LATENCY: 10.8715 cycles
DTLB TOTAL     ACCESS: 52203504  HIT: 51757443  MISS: 446061  HIT %: 99.1455  MISS %: 0.854466  AVERAGE MISS PENALTY: 13.2271
DTLB LOAD      ACCESS: 30726536  HIT: 30318528  MISS: 408008  HIT %: 98.6721  MISS %: 1.32787  AVERAGE MISS PENALTY: 13.1374
DTLB RFO       ACCESS: 21476968  HIT: 21438915  MISS: 38053  HIT %: 99.8228  MISS %: 0.177181  AVERAGE MISS PENALTY: 14.1894
DTLB PREFETCH  ACCESS:     0  HIT:     0  MISS:     0  HIT %:     0  MISS %:     0  AVERAGE MISS PENALTY: 0
DTLB WRITEBACK ACCESS:     0  HIT:     0  MISS:     0  HIT %:     0  MISS %:     0  AVERAGE MISS PENALTY: 0
DTLB PREFETCH  REQUESTED:     0  ISSUED:     0  USEFUL:     0  USELESS:     0
 USEFUL LOAD PREFETCHES:          0 PREFETCH ISSUED TO LOWER LEVEL:          0  ACCURACY: -nan
 TIMELY PREFETCHES:          0 LATE PREFETCHES: 0 DROPPED PREFETCHES: 0
DTLB AVERAGE MISS LATENCY: 13.2271 cycles
STLB TOTAL     ACCESS: 489220  HIT: 470872  MISS: 18348  HIT %: 96.2495  MISS %: 3.75046  AVERAGE MISS PENALTY: 100
STLB LOAD      ACCESS: 451167  HIT: 434728  MISS: 16439  HIT %: 96.3563  MISS %: 3.64366  AVERAGE MISS PENALTY: 100
STLB RFO       ACCESS: 38053  HIT: 36144  MISS:  1909  HIT %: 94.9833  MISS %: 5.01669  AVERAGE MISS PENALTY: 100
STLB PREFETCH  ACCESS:     0  HIT:     0  MISS:     0  HIT %:     0  MISS %:     0  AVERAGE MISS PENALTY: 0
STLB WRITEBACK ACCESS:     0  HIT:     0  MISS:     0  HIT %:     0  MISS %:     0  AVERAGE MISS PENALTY: 0
STLB PREFETCH  REQUESTED:     0  ISSUED:     0  USEFUL:     0  USELESS:     0
 USEFUL LOAD PREFETCHES:          0 PREFETCH ISSUED TO LOWER LEVEL:          0  ACCURACY: -nan
 TIMELY PREFETCHES:          0 LATE PREFETCHES: 0 DROPPED PREFETCHES: 0
STLB AVERAGE MISS LATENCY: 100 cycles
L1D TOTAL     ACCESS: 85681462  HIT: 84508376  MISS: 1173086  HIT %: 98.6309  MISS %: 1.36912  AVERAGE MISS PENALTY: 1.47032e+06
L1D LOAD      ACCESS: 33943669  HIT: 33589904  MISS: 353765  HIT %: 98.9578  MISS %: 1.04221  AVERAGE MISS PENALTY: 4.75844e+06
L1D RFO       ACCESS: 40101691  HIT: 40067159  MISS: 34532  HIT %: 99.9139  MISS %: 0.0861111  AVERAGE MISS PENALTY: 1.1994e+06
L1D PREFETCH  ACCESS: 11636102  HIT: 10851313  MISS: 784789  HIT %: 93.2556  MISS %: 6.74443  AVERAGE MISS PENALTY: 33.6649
L1D WRITEBACK ACCESS:     0  HIT:     0  MISS:     0  HIT %:     0  MISS %:     0  AVERAGE MISS PENALTY: 0
L1D PREFETCH  REQUESTED: 13128596  ISSUED: 13031614  USEFUL: 174435  USELESS: 610333
 USEFUL LOAD PREFETCHES:     174435 PREFETCH ISSUED TO LOWER LEVEL:     849426  ACCURACY: 20.5356
 TIMELY PREFETCHES:     174435 LATE PREFETCHES: 37830 DROPPED PREFETCHES: 96982
L1D AVERAGE MISS LATENCY: 35337.4 cycles
L1I TOTAL     ACCESS: 42962751  HIT: 42324320  MISS: 638431  HIT %: 98.514  MISS %: 1.48601  AVERAGE MISS PENALTY: 14.2288
L1I LOAD      ACCESS: 42962751  HIT: 42324320  MISS: 638431  HIT %: 98.514  MISS %: 1.48601  AVERAGE MISS PENALTY: 14.2288
L1I RFO       ACCESS:     0  HIT:     0  MISS:     0  HIT %:     0  MISS %:     0  AVERAGE MISS PENALTY: 0
L1I PREFETCH  ACCESS:     0  HIT:     0  MISS:     0  HIT %:     0  MISS %:     0  AVERAGE MISS PENALTY: 0
L1I WRITEBACK ACCESS:     0  HIT:     0  MISS:     0  HIT %:     0  MISS %:     0  AVERAGE MISS PENALTY: 0
L1I PREFETCH  REQUESTED:     0  ISSUED:     0  USEFUL:     0  USELESS:     0
 USEFUL LOAD PREFETCHES:          0 PREFETCH ISSUED TO LOWER LEVEL:          0  ACCURACY: -nan
 TIMELY PREFETCHES:          0 LATE PREFETCHES: 0 DROPPED PREFETCHES: 0
L1I AVERAGE MISS LATENCY: 14.2288 cycles
L2C TOTAL     ACCESS: 2887991  HIT: 2231014  MISS: 656977  HIT %: 77.2514  MISS %: 22.7486  AVERAGE MISS PENALTY: 1.53587e+06
L2C LOAD      ACCESS: 990511  HIT: 819676  MISS: 170835  HIT %: 82.7528  MISS %: 17.2472  AVERAGE MISS PENALTY: 5.88433e+06
L2C RFO       ACCESS: 34409  HIT: 23377  MISS: 11032  HIT %: 67.9386  MISS %: 32.0614  AVERAGE MISS PENALTY: 340932
L2C PREFETCH  ACCESS: 1706348  HIT: 1232309  MISS: 474039  HIT %: 72.2191  MISS %: 27.7809  AVERAGE MISS PENALTY: 45.1041
L2C WRITEBACK ACCESS: 156723  HIT: 155652  MISS:  1071  HIT %: 99.3166  MISS %: 0.683371  AVERAGE MISS PENALTY: 0
L2C PREFETCH  REQUESTED: 1220288  ISSUED: 1197052  USEFUL: 46537  USELESS: 426888
 USEFUL LOAD PREFETCHES:      46537 PREFETCH ISSUED TO LOWER LEVEL:     506328  ACCURACY: 9.19108
 TIMELY PREFETCHES:      46537 LATE PREFETCHES: 29513 DROPPED PREFETCHES: 23236
L2C AVERAGE MISS LATENCY: 43.0006 cycles
LLC0 TOTAL     ACCESS: 86282  HIT: 81868  MISS:  4414  HIT %: 94.8842  MISS %: 5.11578  AVERAGE MISS PENALTY: 148.463
LLC0 LOAD      ACCESS: 21945  HIT: 21596  MISS:   349  HIT %: 98.4097  MISS %: 1.59034  AVERAGE MISS PENALTY: 146.883
LLC0 RFO       ACCESS:  1443  HIT:  1353  MISS:    90  HIT %: 93.763  MISS %: 6.23701  AVERAGE MISS PENALTY: 136.478
LLC0 PREFETCH  ACCESS: 56070  HIT: 52097  MISS:  3973  HIT %: 92.9142  MISS %: 7.08579  AVERAGE MISS PENALTY: 148.948
LLC0 WRITEBACK ACCESS:  6824  HIT:  6822  MISS:     2  HIT %: 99.9707  MISS %: 0.0293083  AVERAGE MISS PENALTY: 0
LLC0 PREFETCH  REQUESTED:     0  ISSUED:     0  USEFUL:   697  USELESS:  1306
 USEFUL LOAD PREFETCHES:        697 PREFETCH ISSUED TO LOWER LEVEL:       3973  ACCURACY: 17.5434
 TIMELY PREFETCHES:        697 LATE PREFETCHES: 0 DROPPED PREFETCHES: 0
LLC0 AVERAGE MISS LATENCY: 148.463 cycles
Deadblocks : 328 Deadblock percentage : 93.9828

LLC1 TOTAL     ACCESS: 89525  HIT: 84954  MISS:  4571  HIT %: 94.8942  MISS %: 5.10584  AVERAGE MISS PENALTY: 149.419
LLC1 LOAD      ACCESS: 21840  HIT: 21465  MISS:   375  HIT %: 98.283  MISS %: 1.71703  AVERAGE MISS PENALTY: 142.837
LLC1 RFO       ACCESS:  1405  HIT:  1316  MISS:    89  HIT %: 93.6655  MISS %: 6.33452  AVERAGE MISS PENALTY: 133.843
LLC1 PREFETCH  ACCESS: 59255  HIT: 55148  MISS:  4107  HIT %: 93.0689  MISS %: 6.93106  AVERAGE MISS PENALTY: 150.357
LLC1 WRITEBACK ACCESS:  7025  HIT:  7025  MISS:     0  HIT %:   100  MISS %:     0  AVERAGE MISS PENALTY: 0
LLC1 PREFETCH  REQUESTED:     0  ISSUED:     0  USEFUL:   768  USELESS:  1318
 USEFUL LOAD PREFETCHES:        768 PREFETCH ISSUED TO LOWER LEVEL:       4107  ACCURACY: 18.6998
 TIMELY PREFETCHES:        768 LATE PREFETCHES: 0 DROPPED PREFETCHES: 0
LLC1 AVERAGE MISS LATENCY: 149.419 cycles
LLC2 TOTAL     ACCESS: 89906  HIT: 85354  MISS:  4552  HIT %: 94.9369  MISS %: 5.06307  AVERAGE MISS PENALTY: 149.214
LLC2 LOAD      ACCESS: 21228  HIT: 20849  MISS:   379  HIT %: 98.2146  MISS %: 1.78538  AVERAGE MISS PENALTY: 145.496
LLC2 RFO       ACCESS:  1407  HIT:  1329  MISS:    78  HIT %: 94.4563  MISS %: 5.54371  AVERAGE MISS PENALTY: 137
LLC2 PREFETCH  ACCESS: 60122  HIT: 56031  MISS:  4091  HIT %: 93.1955  MISS %: 6.8045  AVERAGE MISS PENALTY: 149.938
LLC2 WRITEBACK ACCESS:  7149  HIT:  7145  MISS:     4  HIT %: 99.944  MISS %: 0.0559519  AVERAGE MISS PENALTY: 0
LLC2 PREFETCH  REQUESTED:     0  ISSUED:     0  USEFUL:   749  USELESS:  1349
 USEFUL LOAD PREFETCHES:        749 PREFETCH ISSUED TO LOWER LEVEL:       4091  ACCURACY: 18.3085
 TIMELY PREFETCHES:        749 LATE PREFETCHES: 0 DROPPED PREFETCHES: 0
LLC2 AVERAGE MISS LATENCY: 149.214 cycles
LLC3 TOTAL     ACCESS: 90200  HIT: 85617  MISS:  4583  HIT %: 94.9191  MISS %: 5.08093  AVERAGE MISS PENALTY: 149.157
LLC3 LOAD      ACCESS: 21258  HIT: 20878  MISS:   380  HIT %: 98.2124  MISS %: 1.78756  AVERAGE MISS PENALTY: 147.421
LLC3 RFO       ACCESS:  1491  HIT:  1413  MISS:    78  HIT %: 94.7686  MISS %: 5.23139  AVERAGE MISS PENALTY: 132.462
LLC3 PREFETCH  ACCESS: 60209  HIT: 56087  MISS:  4122  HIT %: 93.1538  MISS %: 6.84615  AVERAGE MISS PENALTY: 149.742
LLC3 WRITEBACK ACCESS:  7242  HIT:  7239  MISS:     3  HIT %: 99.9586  MISS %: 0.041425  AVERAGE MISS PENALTY: 0
LLC3 PREFETCH  REQUESTED:     0  ISSUED:     0  USEFUL:   775  USELESS:  1396
 USEFUL LOAD PREFETCHES:        775 PREFETCH ISSUED TO LOWER LEVEL:       4122  ACCURACY: 18.8016
 TIMELY PREFETCHES:        775 LATE PREFETCHES: 0 DROPPED PREFETCHES: 0
LLC3 AVERAGE MISS LATENCY: 149.157 cycles
LLC4 TOTAL     ACCESS: 90201  HIT: 85530  MISS:  4671  HIT %: 94.8216  MISS %: 5.17843  AVERAGE MISS PENALTY: 148.517
LLC4 LOAD      ACCESS: 21100  HIT: 20707  MISS:   393  HIT %: 98.1374  MISS %: 1.86256  AVERAGE MISS PENALTY: 148.964
LLC4 RFO       ACCESS:  1404  HIT:  1324  MISS:    80  HIT %: 94.302  MISS %: 5.69801  AVERAGE MISS PENALTY: 136.85
LLC4 PREFETCH  ACCESS: 60331  HIT: 56135  MISS:  4196  HIT %: 93.045  MISS %: 6.95497  AVERAGE MISS PENALTY: 148.768
LLC4 WRITEBACK ACCESS:  7366  HIT:  7364  MISS:     2  HIT %: 99.9728  MISS %: 0.0271518  AVERAGE MISS PENALTY: 0
LLC4 PREFETCH  REQUESTED:     0  ISSUED:     0  USEFUL:   807  USELESS:  1430
 USEFUL LOAD PREFETCHES:        807 PREFETCH ISSUED TO LOWER LEVEL:       4196  ACCURACY: 19.2326
 TIMELY PREFETCHES:        807 LATE PREFETCHES: 0 DROPPED PREFETCHES: 0
LLC4 AVERAGE MISS LATENCY: 148.517 cycles
LLC5 TOTAL     ACCESS: 89930  HIT: 85188  MISS:  4742  HIT %: 94.727  MISS %: 5.27299  AVERAGE MISS PENALTY: 149.03
LLC5 LOAD      ACCESS: 21244  HIT: 20877  MISS:   367  HIT %: 98.2725  MISS %: 1.72755  AVERAGE MISS PENALTY: 146.635
LLC5 RFO       ACCESS:  1241  HIT:  1161  MISS:    80  HIT %: 93.5536  MISS %: 6.44641  AVERAGE MISS PENALTY: 146.038
LLC5 PREFETCH  ACCESS: 60172  HIT: 55882  MISS:  4290  HIT %: 92.8704  MISS %: 7.12956  AVERAGE MISS PENALTY: 149.465
LLC5 WRITEBACK ACCESS:  7273  HIT:  7268  MISS:     5  HIT %: 99.9313  MISS %: 0.0687474  AVERAGE MISS PENALTY: 0
LLC5 PREFETCH  REQUESTED:     0  ISSUED:     0  USEFUL:   746  USELESS:  1433
 USEFUL LOAD PREFETCHES:        746 PREFETCH ISSUED TO LOWER LEVEL:       4290  ACCURACY: 17.3893
 TIMELY PREFETCHES:        746 LATE PREFETCHES: 0 DROPPED PREFETCHES: 0
LLC5 AVERAGE MISS LATENCY: 149.03 cycles
LLC6 TOTAL     ACCESS: 88422  HIT: 83744  MISS:  4678  HIT %: 94.7095  MISS %: 5.29054  AVERAGE MISS PENALTY: 148.46
LLC6 LOAD      ACCESS: 20514  HIT: 20138  MISS:   376  HIT %: 98.1671  MISS %: 1.83289  AVERAGE MISS PENALTY: 148.984
LLC6 RFO       ACCESS:  1249  HIT:  1165  MISS:    84  HIT %: 93.2746  MISS %: 6.72538  AVERAGE MISS PENALTY: 142.94
LLC6 PREFETCH  ACCESS: 59581  HIT: 55364  MISS:  4217  HIT %: 92.9222  MISS %: 7.07776  AVERAGE MISS PENALTY: 148.559
LLC6 WRITEBACK ACCESS:  7078  HIT:  7077  MISS:     1  HIT %: 99.9859  MISS %: 0.0141283  AVERAGE MISS PENALTY: 0
LLC6 PREFETCH  REQUESTED:     0  ISSUED:     0  USEFUL:   760  USELESS:  1407
 USEFUL LOAD PREFETCHES:        760 PREFETCH ISSUED TO LOWER LEVEL:       4217  ACCURACY: 18.0223
 TIMELY PREFETCHES:        760 LATE PREFETCHES: 0 DROPPED PREFETCHES: 0
LLC6 AVERAGE MISS LATENCY: 148.46 cycles
LLC7 TOTAL     ACCESS: 88501  HIT: 84021  MISS:  4480  HIT %: 94.9379  MISS %: 5.06209  AVERAGE MISS PENALTY: 150.351
LLC7 LOAD      ACCESS: 20776  HIT: 20404  MISS:   372  HIT %: 98.2095  MISS %: 1.79053  AVERAGE MISS PENALTY: 148.392
LLC7 RFO       ACCESS:  1389  HIT:  1292  MISS:    97  HIT %: 93.0166  MISS %: 6.98344  AVERAGE MISS PENALTY: 129.299
LLC7 PREFETCH  ACCESS: 59228  HIT: 55218  MISS:  4010  HIT %: 93.2296  MISS %: 6.77045  AVERAGE MISS PENALTY: 151.08
LLC7 WRITEBACK ACCESS:  7108  HIT:  7107  MISS:     1  HIT %: 99.9859  MISS %: 0.0140687  AVERAGE MISS PENALTY: 0
LLC7 PREFETCH  REQUESTED:     0  ISSUED:     0  USEFUL:   741  USELESS:  1308
 USEFUL LOAD PREFETCHES:        741 PREFETCH ISSUED TO LOWER LEVEL:       4010  ACCURACY: 18.4788
 TIMELY PREFETCHES:        741 LATE PREFETCHES: 0 DROPPED PREFETCHES: 0
LLC7 AVERAGE MISS LATENCY: 150.351 cycles
ROI Average ROB Stall Cycles:	6.81353
ROI Total ROB Stalls Cycles:	293350425
ROI TOTAL ROB counter      :	43054082
ROI Average Load ROB Stall Cycles:	8.11057
ROI Total Load ROB Stalls Cycle  :	52170716
ROI Total Load ROB stalls Counter:	6432439
Major fault: 0 Minor fault: 5898

