
*** ChampSim Multicore Out-of-Order Simulator ***

Warmup Instructions: 200000000
Simulation Instructions: 200000000
Number of CPUs: 1
threads:1

L1I Configuration:
L1I_SET:64
L1I_WAY:8
L1I_RQ_SIZE:64
L1I_WQ_SIZE:64
L1I_PQ_SIZE:8
L1I_MSHR_SIZE:8

L1D Configuration:
L1D_SET:64
L1D_WAY:12
L1D_RQ_SIZE:64
L1D_WQ_SIZE:64
L1D_PQ_SIZE:8
L1D_MSHR_SIZE:16

L2C Configuration:
L2C_SET:1024
L2C_WAY:8
L2C_RQ_SIZE:32
L2C_WQ_SIZE:32
L2C_PQ_SIZE:16
L2C_MSHR_SIZE:32

LLC Configuration:
LLC_SET:4096
LLC_WAY:16
LLC SLICES:8
LLC_RQ_SIZE:64
LLC_WQ_SIZE:64
LLC_PQ_SIZE:32
LLC_MSHR_SIZE:64

Interconnect OFF
Attacker deprioritize is: OFF
Off-chip DRAM Size: 4096 MB Channels: 1 Width: 64-bit Data Rate: 3200 MT/s
PAGE SIZE in KB: 4.000000 
PAGE SIZE in MB: 0.003906 
PAGE offset in bits: 12 
CEASER-S_LLC:0
MIRAGE : 0
CEASER_LATENCY:3
REMAP : OFF
Partitions : 1
Multi-Step : OFF
BFS : OFF

CPU 0 runs /home/anubhav/spec_2017/605.mcf_s-994B.champsimtrace.xz
CPU 0 Bimodal branch predictor
Initialize Hawkeye state
Initialize Hawkeye state
Initialize Hawkeye state
Initialize Hawkeye state
Initialize Hawkeye state
Initialize Hawkeye state
Initialize Hawkeye state
Initialize Hawkeye state
Heartbeat CPU 0 instructions: 10000000 cycles: 8099084 heartbeat IPC: 1.23471 cumulative IPC: 1.23471 (Simulation time: 0 hr 1 min 1 sec) 
 Total Blocks : 524288 Invalid Blocks : 383715
Heartbeat CPU 0 instructions: 20000002 cycles: 16351140 heartbeat IPC: 1.21182 cumulative IPC: 1.22316 (Simulation time: 0 hr 4 min 38 sec) 
 Total Blocks : 524288 Invalid Blocks : 285172
Heartbeat CPU 0 instructions: 30000000 cycles: 24905762 heartbeat IPC: 1.16896 cumulative IPC: 1.20454 (Simulation time: 0 hr 17 min 31 sec) 
 Total Blocks : 524288 Invalid Blocks : 209236
Heartbeat CPU 0 instructions: 40000000 cycles: 33309276 heartbeat IPC: 1.18998 cumulative IPC: 1.20087 (Simulation time: 0 hr 20 min 3 sec) 
 Total Blocks : 524288 Invalid Blocks : 157249
Heartbeat CPU 0 instructions: 50000000 cycles: 45571762 heartbeat IPC: 0.815495 cumulative IPC: 1.09717 (Simulation time: 2 hr 13 min 6 sec) 
 Total Blocks : 524288 Invalid Blocks : 78175
Heartbeat CPU 0 instructions: 60000002 cycles: 54447889 heartbeat IPC: 1.12662 cumulative IPC: 1.10197 (Simulation time: 2 hr 15 min 15 sec) 
 Total Blocks : 524288 Invalid Blocks : 61042
Heartbeat CPU 0 instructions: 70000002 cycles: 63312983 heartbeat IPC: 1.12802 cumulative IPC: 1.10562 (Simulation time: 2 hr 17 min 22 sec) 
 Total Blocks : 524288 Invalid Blocks : 44371
Heartbeat CPU 0 instructions: 80000000 cycles: 71437412 heartbeat IPC: 1.23086 cumulative IPC: 1.11986 (Simulation time: 2 hr 19 min 21 sec) 
 Total Blocks : 524288 Invalid Blocks : 31318
Heartbeat CPU 0 instructions: 90000002 cycles: 79392371 heartbeat IPC: 1.25708 cumulative IPC: 1.13361 (Simulation time: 2 hr 21 min 24 sec) 
 Total Blocks : 524288 Invalid Blocks : 23431
Heartbeat CPU 0 instructions: 100000001 cycles: 87611658 heartbeat IPC: 1.21665 cumulative IPC: 1.1414 (Simulation time: 2 hr 23 min 17 sec) 
 Total Blocks : 524288 Invalid Blocks : 18608
Heartbeat CPU 0 instructions: 110000000 cycles: 96694079 heartbeat IPC: 1.10103 cumulative IPC: 1.13761 (Simulation time: 2 hr 25 min 23 sec) 
 Total Blocks : 524288 Invalid Blocks : 12231
Heartbeat CPU 0 instructions: 120000003 cycles: 105367388 heartbeat IPC: 1.15296 cumulative IPC: 1.13887 (Simulation time: 2 hr 27 min 45 sec) 
 Total Blocks : 524288 Invalid Blocks : 9224
Heartbeat CPU 0 instructions: 130000001 cycles: 113543276 heartbeat IPC: 1.22311 cumulative IPC: 1.14494 (Simulation time: 2 hr 29 min 42 sec) 
 Total Blocks : 524288 Invalid Blocks : 6235
Heartbeat CPU 0 instructions: 140000001 cycles: 122832258 heartbeat IPC: 1.07654 cumulative IPC: 1.13977 (Simulation time: 3 hr 4 min 21 sec) 
 Total Blocks : 524288 Invalid Blocks : 3655
Heartbeat CPU 0 instructions: 150000002 cycles: 132391987 heartbeat IPC: 1.04605 cumulative IPC: 1.133 (Simulation time: 3 hr 45 min 28 sec) 
 Total Blocks : 524288 Invalid Blocks : 2093
Heartbeat CPU 0 instructions: 160000003 cycles: 140405599 heartbeat IPC: 1.24788 cumulative IPC: 1.13956 (Simulation time: 3 hr 46 min 18 sec) 
 Total Blocks : 524288 Invalid Blocks : 1548
Heartbeat CPU 0 instructions: 170000002 cycles: 148154719 heartbeat IPC: 1.29047 cumulative IPC: 1.14745 (Simulation time: 3 hr 47 min 7 sec) 
 Total Blocks : 524288 Invalid Blocks : 1279
Heartbeat CPU 0 instructions: 180000000 cycles: 159144192 heartbeat IPC: 0.909962 cumulative IPC: 1.13105 (Simulation time: 3 hr 48 min 11 sec) 
 Total Blocks : 524288 Invalid Blocks : 821
Heartbeat CPU 0 instructions: 190000002 cycles: 166908587 heartbeat IPC: 1.28793 cumulative IPC: 1.13835 (Simulation time: 3 hr 49 min 0 sec) 
 Total Blocks : 524288 Invalid Blocks : 660
Heartbeat CPU 0 instructions: 200000003 cycles: 175379015 heartbeat IPC: 1.18058 cumulative IPC: 1.14039 (Simulation time: 3 hr 49 min 49 sec) 
 Total Blocks : 524288 Invalid Blocks : 523

Warmup complete CPU 0 instructions: 200000003 cycles: 175379015 (Simulation time: 3 hr 49 min 49 sec) 

Heartbeat CPU 0 instructions: 210000000 cycles: 220181116 heartbeat IPC: 0.223204 cumulative IPC: 0.223204 (Simulation time: 3 hr 52 min 25 sec) 
 Total Blocks : 524288 Invalid Blocks : 313
Heartbeat CPU 0 instructions: 220000000 cycles: 272588834 heartbeat IPC: 0.190812 cumulative IPC: 0.20574 (Simulation time: 3 hr 55 min 24 sec) 
 Total Blocks : 524288 Invalid Blocks : 205
Heartbeat CPU 0 instructions: 230000001 cycles: 305932863 heartbeat IPC: 0.299904 cumulative IPC: 0.22979 (Simulation time: 3 hr 57 min 26 sec) 
 Total Blocks : 524288 Invalid Blocks : 172
Heartbeat CPU 0 instructions: 240000002 cycles: 339383459 heartbeat IPC: 0.298948 cumulative IPC: 0.243896 (Simulation time: 3 hr 59 min 32 sec) 
 Total Blocks : 524288 Invalid Blocks : 139
Heartbeat CPU 0 instructions: 250000002 cycles: 365421668 heartbeat IPC: 0.384051 cumulative IPC: 0.263099 (Simulation time: 4 hr 1 min 21 sec) 
 Total Blocks : 524288 Invalid Blocks : 116
Heartbeat CPU 0 instructions: 260000001 cycles: 452121502 heartbeat IPC: 0.11534 cumulative IPC: 0.216808 (Simulation time: 4 hr 52 min 14 sec) 
 Total Blocks : 524288 Invalid Blocks : 7
Heartbeat CPU 0 instructions: 270000000 cycles: 559151854 heartbeat IPC: 0.0934314 cumulative IPC: 0.1824 (Simulation time: 5 hr 27 min 24 sec) 
 Total Blocks : 524288 Invalid Blocks : 0
Heartbeat CPU 0 instructions: 280000001 cycles: 600936660 heartbeat IPC: 0.239321 cumulative IPC: 0.187989 (Simulation time: 5 hr 29 min 38 sec) 
 Total Blocks : 524288 Invalid Blocks : 0
Heartbeat CPU 0 instructions: 290000000 cycles: 648755790 heartbeat IPC: 0.209121 cumulative IPC: 0.190123 (Simulation time: 5 hr 32 min 7 sec) 
 Total Blocks : 524288 Invalid Blocks : 0
Heartbeat CPU 0 instructions: 300000000 cycles: 698137242 heartbeat IPC: 0.202505 cumulative IPC: 0.191293 (Simulation time: 5 hr 34 min 32 sec) 
 Total Blocks : 524288 Invalid Blocks : 0
Heartbeat CPU 0 instructions: 310000002 cycles: 732441388 heartbeat IPC: 0.29151 cumulative IPC: 0.197464 (Simulation time: 5 hr 36 min 23 sec) 
 Total Blocks : 524288 Invalid Blocks : 0
Heartbeat CPU 0 instructions: 320000000 cycles: 769295675 heartbeat IPC: 0.271339 cumulative IPC: 0.202049 (Simulation time: 5 hr 38 min 21 sec) 
 Total Blocks : 524288 Invalid Blocks : 0
Heartbeat CPU 0 instructions: 330000000 cycles: 824371859 heartbeat IPC: 0.181567 cumulative IPC: 0.20031 (Simulation time: 5 hr 40 min 53 sec) 
 Total Blocks : 524288 Invalid Blocks : 0
Heartbeat CPU 0 instructions: 340000001 cycles: 852660211 heartbeat IPC: 0.353502 cumulative IPC: 0.206709 (Simulation time: 5 hr 42 min 31 sec) 
 Total Blocks : 524288 Invalid Blocks : 0
Heartbeat CPU 0 instructions: 350000000 cycles: 877824830 heartbeat IPC: 0.397383 cumulative IPC: 0.21354 (Simulation time: 5 hr 44 min 0 sec) 
 Total Blocks : 524288 Invalid Blocks : 0
Heartbeat CPU 0 instructions: 360000002 cycles: 925358055 heartbeat IPC: 0.210379 cumulative IPC: 0.213339 (Simulation time: 5 hr 46 min 17 sec) 
 Total Blocks : 524288 Invalid Blocks : 0
Heartbeat CPU 0 instructions: 370000002 cycles: 960060281 heartbeat IPC: 0.288166 cumulative IPC: 0.216648 (Simulation time: 5 hr 48 min 5 sec) 
 Total Blocks : 524288 Invalid Blocks : 0
Heartbeat CPU 0 instructions: 380000001 cycles: 991968610 heartbeat IPC: 0.313398 cumulative IPC: 0.220429 (Simulation time: 5 hr 49 min 48 sec) 
 Total Blocks : 524288 Invalid Blocks : 0
Heartbeat CPU 0 instructions: 390000000 cycles: 1051501820 heartbeat IPC: 0.167973 cumulative IPC: 0.216865 (Simulation time: 5 hr 52 min 33 sec) 
 Total Blocks : 524288 Invalid Blocks : 0
Heartbeat CPU 0 instructions: 400000002 cycles: 1114143783 heartbeat IPC: 0.159637 cumulative IPC: 0.213046 (Simulation time: 5 hr 55 min 35 sec) 
 Total Blocks : 524288 Invalid Blocks : 0
Finished CPU 0 instructions: 200000000 cycles: 938764769 cumulative IPC: 0.213046 (Simulation time: 5 hr 55 min 35 sec) 

CPU 0 Branch Prediction Accuracy: 90.4105% MPKI: 18.1367 Average ROB Occupancy at Mispredict: 55.0313

ChampSim completed all CPUs

Region of Interest Statistics

CPU 0 cumulative IPC: 0.213046 instructions: 200000000 cycles: 938764769
ITLB TOTAL     ACCESS: 30965589  HIT: 30965589  MISS:     0  HIT %:   100  MISS %:     0  AVERAGE MISS PENALTY: 0
ITLB LOAD      ACCESS: 30965589  HIT: 30965589  MISS:     0  HIT %:   100  MISS %:     0  AVERAGE MISS PENALTY: 0
ITLB RFO       ACCESS:     0  HIT:     0  MISS:     0  HIT %:     0  MISS %:     0  AVERAGE MISS PENALTY: 0
ITLB PREFETCH  ACCESS:     0  HIT:     0  MISS:     0  HIT %:     0  MISS %:     0  AVERAGE MISS PENALTY: 0
ITLB WRITEBACK ACCESS:     0  HIT:     0  MISS:     0  HIT %:     0  MISS %:     0  AVERAGE MISS PENALTY: 0
ITLB PREFETCH  REQUESTED:     0  ISSUED:     0  USEFUL:     0  USELESS:     0
 USEFUL LOAD PREFETCHES:          0 PREFETCH ISSUED TO LOWER LEVEL:          0  ACCURACY: -nan
 TIMELY PREFETCHES:          0 LATE PREFETCHES: 0 DROPPED PREFETCHES: 0
ITLB AVERAGE MISS LATENCY: -nan cycles
DTLB TOTAL     ACCESS: 62844315  HIT: 59965403  MISS: 2878912  HIT %: 95.419  MISS %: 4.58102  AVERAGE MISS PENALTY: 81.1737
DTLB LOAD      ACCESS: 49537797  HIT: 46660826  MISS: 2876971  HIT %: 94.1924  MISS %: 5.80763  AVERAGE MISS PENALTY: 81.2172
DTLB RFO       ACCESS: 13306518  HIT: 13304577  MISS:  1941  HIT %: 99.9854  MISS %: 0.0145868  AVERAGE MISS PENALTY: 16.7187
DTLB PREFETCH  ACCESS:     0  HIT:     0  MISS:     0  HIT %:     0  MISS %:     0  AVERAGE MISS PENALTY: 0
DTLB WRITEBACK ACCESS:     0  HIT:     0  MISS:     0  HIT %:     0  MISS %:     0  AVERAGE MISS PENALTY: 0
DTLB PREFETCH  REQUESTED:     0  ISSUED:     0  USEFUL:     0  USELESS:     0
 USEFUL LOAD PREFETCHES:          0 PREFETCH ISSUED TO LOWER LEVEL:          0  ACCURACY: -nan
 TIMELY PREFETCHES:          0 LATE PREFETCHES: 0 DROPPED PREFETCHES: 0
DTLB AVERAGE MISS LATENCY: 81.1737 cycles
STLB TOTAL     ACCESS: 2878912  HIT: 1251977  MISS: 1626935  HIT %: 43.4879  MISS %: 56.5121  AVERAGE MISS PENALTY: 100
STLB LOAD      ACCESS: 2876971  HIT: 1250182  MISS: 1626789  HIT %: 43.4548  MISS %: 56.5452  AVERAGE MISS PENALTY: 100
STLB RFO       ACCESS:  1941  HIT:  1795  MISS:   146  HIT %: 92.4781  MISS %: 7.5219  AVERAGE MISS PENALTY: 100
STLB PREFETCH  ACCESS:     0  HIT:     0  MISS:     0  HIT %:     0  MISS %:     0  AVERAGE MISS PENALTY: 0
STLB WRITEBACK ACCESS:     0  HIT:     0  MISS:     0  HIT %:     0  MISS %:     0  AVERAGE MISS PENALTY: 0
STLB PREFETCH  REQUESTED:     0  ISSUED:     0  USEFUL:     0  USELESS:     0
 USEFUL LOAD PREFETCHES:          0 PREFETCH ISSUED TO LOWER LEVEL:          0  ACCURACY: -nan
 TIMELY PREFETCHES:          0 LATE PREFETCHES: 0 DROPPED PREFETCHES: 0
STLB AVERAGE MISS LATENCY: 100 cycles
L1D TOTAL     ACCESS: 124191027  HIT: 95859465  MISS: 28331562  HIT %: 77.1871  MISS %: 22.8129  AVERAGE MISS PENALTY: 5.0162e+06
L1D LOAD      ACCESS: 62563832  HIT: 55727815  MISS: 6836017  HIT %: 89.0735  MISS %: 10.9265  AVERAGE MISS PENALTY: 2.07085e+07
L1D RFO       ACCESS: 19828306  HIT: 19746457  MISS: 81849  HIT %: 99.5872  MISS %: 0.412789  AVERAGE MISS PENALTY: 6.7264e+06
L1D PREFETCH  ACCESS: 41798889  HIT: 20385193  MISS: 21413696  HIT %: 48.7697  MISS %: 51.2303  AVERAGE MISS PENALTY: 107.63
L1D WRITEBACK ACCESS:     0  HIT:     0  MISS:     0  HIT %:     0  MISS %:     0  AVERAGE MISS PENALTY: 0
L1D PREFETCH  REQUESTED: 48408569  ISSUED: 43481182  USEFUL: 1690759  USELESS: 19722355
 USEFUL LOAD PREFETCHES:    1690759 PREFETCH ISSUED TO LOWER LEVEL:   52478919  ACCURACY: 3.22179
 TIMELY PREFETCHES:    1690759 LATE PREFETCHES: 529106 DROPPED PREFETCHES: 4927387
L1D AVERAGE MISS LATENCY: 19538.5 cycles
L1I TOTAL     ACCESS: 39815024  HIT: 39815024  MISS:     0  HIT %:   100  MISS %:     0  AVERAGE MISS PENALTY: 0
L1I LOAD      ACCESS: 39815024  HIT: 39815024  MISS:     0  HIT %:   100  MISS %:     0  AVERAGE MISS PENALTY: 0
L1I RFO       ACCESS:     0  HIT:     0  MISS:     0  HIT %:     0  MISS %:     0  AVERAGE MISS PENALTY: 0
L1I PREFETCH  ACCESS:     0  HIT:     0  MISS:     0  HIT %:     0  MISS %:     0  AVERAGE MISS PENALTY: 0
L1I WRITEBACK ACCESS:     0  HIT:     0  MISS:     0  HIT %:     0  MISS %:     0  AVERAGE MISS PENALTY: 0
L1I PREFETCH  REQUESTED:     0  ISSUED:     0  USEFUL:     0  USELESS:     0
 USEFUL LOAD PREFETCHES:          0 PREFETCH ISSUED TO LOWER LEVEL:          0  ACCURACY: -nan
 TIMELY PREFETCHES:          0 LATE PREFETCHES: 0 DROPPED PREFETCHES: 0
L1I AVERAGE MISS LATENCY: -nan cycles
L2C TOTAL     ACCESS: 48442490  HIT: 17750462  MISS: 30692028  HIT %: 36.6423  MISS %: 63.3577  AVERAGE MISS PENALTY: 3.00237e+06
L2C LOAD      ACCESS: 6786879  HIT: 2061718  MISS: 4725161  HIT %: 30.378  MISS %: 69.622  AVERAGE MISS PENALTY: 1.94999e+07
L2C RFO       ACCESS: 81132  HIT: 65505  MISS: 15627  HIT %: 80.7388  MISS %: 19.2612  AVERAGE MISS PENALTY: 343757
L2C PREFETCH  ACCESS: 40918677  HIT: 14970745  MISS: 25947932  HIT %: 36.5866  MISS %: 63.4134  AVERAGE MISS PENALTY: 139.421
L2C WRITEBACK ACCESS: 655802  HIT: 652494  MISS:  3308  HIT %: 99.4956  MISS %: 0.504421  AVERAGE MISS PENALTY: 0
L2C PREFETCH  REQUESTED: 85113112  ISSUED: 84132129  USEFUL: 499123  USELESS: 25442506
 USEFUL LOAD PREFETCHES:     499123 PREFETCH ISSUED TO LOWER LEVEL:   28467477  ACCURACY: 1.75331
 TIMELY PREFETCHES:     499123 LATE PREFETCHES: 453428 DROPPED PREFETCHES: 980983
L2C AVERAGE MISS LATENCY: 136.541 cycles
LLC0 TOTAL     ACCESS: 3895458  HIT: 2216702  MISS: 1678756  HIT %: 56.9048  MISS %: 43.0952  AVERAGE MISS PENALTY: 219.106
LLC0 LOAD      ACCESS: 589137  HIT: 353802  MISS: 235335  HIT %: 60.0543  MISS %: 39.9457  AVERAGE MISS PENALTY: 203.226
LLC0 RFO       ACCESS:  1890  HIT:  1834  MISS:    56  HIT %: 97.037  MISS %: 2.96296  AVERAGE MISS PENALTY: 155.214
LLC0 PREFETCH  ACCESS: 3247709  HIT: 1804474  MISS: 1443235  HIT %: 55.5614  MISS %: 44.4386  AVERAGE MISS PENALTY: 221.718
LLC0 WRITEBACK ACCESS: 56722  HIT: 56592  MISS:   130  HIT %: 99.7708  MISS %: 0.229188  AVERAGE MISS PENALTY: 0
LLC0 PREFETCH  REQUESTED:     0  ISSUED:     0  USEFUL: 18340  USELESS: 1408465
 USEFUL LOAD PREFETCHES:      18340 PREFETCH ISSUED TO LOWER LEVEL:    1443235  ACCURACY: 1.27076
 TIMELY PREFETCHES:      18340 LATE PREFETCHES: 0 DROPPED PREFETCHES: 0
LLC0 AVERAGE MISS LATENCY: 219.106 cycles
Deadblocks : 218591 Deadblock percentage : 92.885

LLC1 TOTAL     ACCESS: 3919021  HIT: 2232384  MISS: 1686637  HIT %: 56.9628  MISS %: 43.0372  AVERAGE MISS PENALTY: 219.073
LLC1 LOAD      ACCESS: 576315  HIT: 345568  MISS: 230747  HIT %: 59.9617  MISS %: 40.0383  AVERAGE MISS PENALTY: 202.215
LLC1 RFO       ACCESS:  1962  HIT:  1903  MISS:    59  HIT %: 96.9929  MISS %: 3.00714  AVERAGE MISS PENALTY: 150.949
LLC1 PREFETCH  ACCESS: 3283891  HIT: 1828129  MISS: 1455762  HIT %: 55.6696  MISS %: 44.3304  AVERAGE MISS PENALTY: 221.758
LLC1 WRITEBACK ACCESS: 56853  HIT: 56784  MISS:    69  HIT %: 99.8786  MISS %: 0.121366  AVERAGE MISS PENALTY: 0
LLC1 PREFETCH  REQUESTED:     0  ISSUED:     0  USEFUL: 18636  USELESS: 1420532
 USEFUL LOAD PREFETCHES:      18636 PREFETCH ISSUED TO LOWER LEVEL:    1455762  ACCURACY: 1.28015
 TIMELY PREFETCHES:      18636 LATE PREFETCHES: 0 DROPPED PREFETCHES: 0
LLC1 AVERAGE MISS LATENCY: 219.073 cycles
LLC2 TOTAL     ACCESS: 3941307  HIT: 2242617  MISS: 1698690  HIT %: 56.9003  MISS %: 43.0997  AVERAGE MISS PENALTY: 218.784
LLC2 LOAD      ACCESS: 579479  HIT: 348175  MISS: 231304  HIT %: 60.0841  MISS %: 39.9159  AVERAGE MISS PENALTY: 202.64
LLC2 RFO       ACCESS:  1820  HIT:  1762  MISS:    58  HIT %: 96.8132  MISS %: 3.18681  AVERAGE MISS PENALTY: 156.862
LLC2 PREFETCH  ACCESS: 3303206  HIT: 1835954  MISS: 1467252  HIT %: 55.581  MISS %: 44.419  AVERAGE MISS PENALTY: 221.343
LLC2 WRITEBACK ACCESS: 56802  HIT: 56726  MISS:    76  HIT %: 99.8662  MISS %: 0.133798  AVERAGE MISS PENALTY: 0
LLC2 PREFETCH  REQUESTED:     0  ISSUED:     0  USEFUL: 18308  USELESS: 1432417
 USEFUL LOAD PREFETCHES:      18308 PREFETCH ISSUED TO LOWER LEVEL:    1467252  ACCURACY: 1.24777
 TIMELY PREFETCHES:      18308 LATE PREFETCHES: 0 DROPPED PREFETCHES: 0
LLC2 AVERAGE MISS LATENCY: 218.784 cycles
LLC3 TOTAL     ACCESS: 3930554  HIT: 2236185  MISS: 1694369  HIT %: 56.8924  MISS %: 43.1076  AVERAGE MISS PENALTY: 218.474
LLC3 LOAD      ACCESS: 580050  HIT: 347957  MISS: 232093  HIT %: 59.9874  MISS %: 40.0126  AVERAGE MISS PENALTY: 202.579
LLC3 RFO       ACCESS:  1688  HIT:  1630  MISS:    58  HIT %: 96.564  MISS %: 3.43602  AVERAGE MISS PENALTY: 161.414
LLC3 PREFETCH  ACCESS: 3291973  HIT: 1829829  MISS: 1462144  HIT %: 55.5846  MISS %: 44.4154  AVERAGE MISS PENALTY: 221.011
LLC3 WRITEBACK ACCESS: 56843  HIT: 56769  MISS:    74  HIT %: 99.8698  MISS %: 0.130183  AVERAGE MISS PENALTY: 0
LLC3 PREFETCH  REQUESTED:     0  ISSUED:     0  USEFUL: 18303  USELESS: 1427381
 USEFUL LOAD PREFETCHES:      18303 PREFETCH ISSUED TO LOWER LEVEL:    1462144  ACCURACY: 1.25179
 TIMELY PREFETCHES:      18303 LATE PREFETCHES: 0 DROPPED PREFETCHES: 0
LLC3 AVERAGE MISS LATENCY: 218.474 cycles
LLC4 TOTAL     ACCESS: 3914488  HIT: 2226720  MISS: 1687768  HIT %: 56.8841  MISS %: 43.1159  AVERAGE MISS PENALTY: 218.217
LLC4 LOAD      ACCESS: 578187  HIT: 347202  MISS: 230985  HIT %: 60.0501  MISS %: 39.9499  AVERAGE MISS PENALTY: 202.477
LLC4 RFO       ACCESS:  1778  HIT:  1721  MISS:    57  HIT %: 96.7942  MISS %: 3.20585  AVERAGE MISS PENALTY: 170.123
LLC4 PREFETCH  ACCESS: 3277710  HIT: 1821051  MISS: 1456659  HIT %: 55.5586  MISS %: 44.4414  AVERAGE MISS PENALTY: 220.725
LLC4 WRITEBACK ACCESS: 56813  HIT: 56746  MISS:    67  HIT %: 99.8821  MISS %: 0.117931  AVERAGE MISS PENALTY: 0
LLC4 PREFETCH  REQUESTED:     0  ISSUED:     0  USEFUL: 18129  USELESS: 1421882
 USEFUL LOAD PREFETCHES:      18129 PREFETCH ISSUED TO LOWER LEVEL:    1456659  ACCURACY: 1.24456
 TIMELY PREFETCHES:      18129 LATE PREFETCHES: 0 DROPPED PREFETCHES: 0
LLC4 AVERAGE MISS LATENCY: 218.217 cycles
LLC5 TOTAL     ACCESS: 3886480  HIT: 2211695  MISS: 1674785  HIT %: 56.9074  MISS %: 43.0926  AVERAGE MISS PENALTY: 217.562
LLC5 LOAD      ACCESS: 580589  HIT: 349498  MISS: 231091  HIT %: 60.1971  MISS %: 39.8029  AVERAGE MISS PENALTY: 202.066
LLC5 RFO       ACCESS:  2081  HIT:  2025  MISS:    56  HIT %: 97.309  MISS %: 2.69101  AVERAGE MISS PENALTY: 160.089
LLC5 PREFETCH  ACCESS: 3247184  HIT: 1803617  MISS: 1443567  HIT %: 55.544  MISS %: 44.456  AVERAGE MISS PENALTY: 220.055
LLC5 WRITEBACK ACCESS: 56626  HIT: 56555  MISS:    71  HIT %: 99.8746  MISS %: 0.125384  AVERAGE MISS PENALTY: 0
LLC5 PREFETCH  REQUESTED:     0  ISSUED:     0  USEFUL: 18546  USELESS: 1408738
 USEFUL LOAD PREFETCHES:      18546 PREFETCH ISSUED TO LOWER LEVEL:    1443567  ACCURACY: 1.28473
 TIMELY PREFETCHES:      18546 LATE PREFETCHES: 0 DROPPED PREFETCHES: 0
LLC5 AVERAGE MISS LATENCY: 217.562 cycles
LLC6 TOTAL     ACCESS: 3846633  HIT: 2188184  MISS: 1658449  HIT %: 56.8857  MISS %: 43.1143  AVERAGE MISS PENALTY: 217.11
LLC6 LOAD      ACCESS: 580787  HIT: 349420  MISS: 231367  HIT %: 60.1632  MISS %: 39.8368  AVERAGE MISS PENALTY: 201.659
LLC6 RFO       ACCESS:  2299  HIT:  2214  MISS:    85  HIT %: 96.3027  MISS %: 3.69726  AVERAGE MISS PENALTY: 165.576
LLC6 PREFETCH  ACCESS: 3206995  HIT: 1780060  MISS: 1426935  HIT %: 55.5055  MISS %: 44.4945  AVERAGE MISS PENALTY: 219.628
LLC6 WRITEBACK ACCESS: 56552  HIT: 56490  MISS:    62  HIT %: 99.8904  MISS %: 0.109634  AVERAGE MISS PENALTY: 0
LLC6 PREFETCH  REQUESTED:     0  ISSUED:     0  USEFUL: 18367  USELESS: 1392363
 USEFUL LOAD PREFETCHES:      18367 PREFETCH ISSUED TO LOWER LEVEL:    1426935  ACCURACY: 1.28716
 TIMELY PREFETCHES:      18367 LATE PREFETCHES: 0 DROPPED PREFETCHES: 0
LLC6 AVERAGE MISS LATENCY: 217.11 cycles
LLC7 TOTAL     ACCESS: 3808536  HIT: 2165810  MISS: 1642726  HIT %: 56.8673  MISS %: 43.1327  AVERAGE MISS PENALTY: 216.395
LLC7 LOAD      ACCESS: 580761  HIT: 348354  MISS: 232407  HIT %: 59.9823  MISS %: 40.0177  AVERAGE MISS PENALTY: 200.437
LLC7 RFO       ACCESS:  2107  HIT:  2041  MISS:    66  HIT %: 96.8676  MISS %: 3.13242  AVERAGE MISS PENALTY: 158.273
LLC7 PREFETCH  ACCESS: 3169115  HIT: 1758959  MISS: 1410156  HIT %: 55.5032  MISS %: 44.4968  AVERAGE MISS PENALTY: 219.043
LLC7 WRITEBACK ACCESS: 56553  HIT: 56456  MISS:    97  HIT %: 99.8285  MISS %: 0.171521  AVERAGE MISS PENALTY: 0
LLC7 PREFETCH  REQUESTED:     0  ISSUED:     0  USEFUL: 18216  USELESS: 1376290
 USEFUL LOAD PREFETCHES:      18216 PREFETCH ISSUED TO LOWER LEVEL:    1410156  ACCURACY: 1.29177
 TIMELY PREFETCHES:      18216 LATE PREFETCHES: 0 DROPPED PREFETCHES: 0
LLC7 AVERAGE MISS LATENCY: 216.395 cycles
ROI Average ROB Stall Cycles:	13.5296
ROI Total ROB Stalls Cycles:	853996167
ROI TOTAL ROB counter      :	63120496
ROI Average Load ROB Stall Cycles:	13.1665
ROI Total Load ROB Stalls Cycle  :	250395472
ROI Total Load ROB stalls Counter:	19017581
Major fault: 0 Minor fault: 219884

