
*** ChampSim Multicore Out-of-Order Simulator ***

Warmup Instructions: 200000000
Simulation Instructions: 200000000
Number of CPUs: 1
threads:1

L1I Configuration:
L1I_SET:64
L1I_WAY:8
L1I_RQ_SIZE:64
L1I_WQ_SIZE:64
L1I_PQ_SIZE:8
L1I_MSHR_SIZE:8

L1D Configuration:
L1D_SET:64
L1D_WAY:12
L1D_RQ_SIZE:64
L1D_WQ_SIZE:64
L1D_PQ_SIZE:8
L1D_MSHR_SIZE:16

L2C Configuration:
L2C_SET:1024
L2C_WAY:8
L2C_RQ_SIZE:32
L2C_WQ_SIZE:32
L2C_PQ_SIZE:16
L2C_MSHR_SIZE:32

LLC Configuration:
LLC_SET:4096
LLC_WAY:16
LLC SLICES:8
LLC_RQ_SIZE:64
LLC_WQ_SIZE:64
LLC_PQ_SIZE:32
LLC_MSHR_SIZE:64

Interconnect OFF
Attacker deprioritize is: OFF
Off-chip DRAM Size: 4096 MB Channels: 1 Width: 64-bit Data Rate: 3200 MT/s
PAGE SIZE in KB: 4.000000 
PAGE SIZE in MB: 0.003906 
PAGE offset in bits: 12 
CEASER-S_LLC:0
MIRAGE : 0
CEASER_LATENCY:3
REMAP : OFF
Partitions : 1
Multi-Step : OFF
BFS : OFF

CPU 0 runs /home/anubhav/spec_2017/605.mcf_s-1644B.champsimtrace.xz
CPU 0 Bimodal branch predictor
Initialize Hawkeye state
Initialize Hawkeye state
Initialize Hawkeye state
Initialize Hawkeye state
Initialize Hawkeye state
Initialize Hawkeye state
Initialize Hawkeye state
Initialize Hawkeye state
Heartbeat CPU 0 instructions: 10000002 cycles: 10858960 heartbeat IPC: 0.920899 cumulative IPC: 0.920899 (Simulation time: 1 hr 30 min 39 sec) 
 Total Blocks : 524288 Invalid Blocks : 139485
Heartbeat CPU 0 instructions: 20000000 cycles: 21525063 heartbeat IPC: 0.937549 cumulative IPC: 0.929149 (Simulation time: 3 hr 3 min 30 sec) 
 Total Blocks : 524288 Invalid Blocks : 40698
Heartbeat CPU 0 instructions: 30000000 cycles: 32677236 heartbeat IPC: 0.896686 cumulative IPC: 0.91807 (Simulation time: 3 hr 51 min 10 sec) 
 Total Blocks : 524288 Invalid Blocks : 14022
Heartbeat CPU 0 instructions: 40000000 cycles: 43726129 heartbeat IPC: 0.905068 cumulative IPC: 0.914785 (Simulation time: 4 hr 15 min 36 sec) 
 Total Blocks : 524288 Invalid Blocks : 6003
Heartbeat CPU 0 instructions: 50000003 cycles: 54697518 heartbeat IPC: 0.911462 cumulative IPC: 0.914118 (Simulation time: 4 hr 34 min 29 sec) 
 Total Blocks : 524288 Invalid Blocks : 3195
Heartbeat CPU 0 instructions: 60000000 cycles: 65652427 heartbeat IPC: 0.912832 cumulative IPC: 0.913904 (Simulation time: 4 hr 48 min 31 sec) 
 Total Blocks : 524288 Invalid Blocks : 2127
Heartbeat CPU 0 instructions: 70000000 cycles: 76564500 heartbeat IPC: 0.916416 cumulative IPC: 0.914262 (Simulation time: 5 hr 0 min 40 sec) 
 Total Blocks : 524288 Invalid Blocks : 1551
Heartbeat CPU 0 instructions: 80000000 cycles: 87483456 heartbeat IPC: 0.915838 cumulative IPC: 0.914459 (Simulation time: 5 hr 11 min 5 sec) 
 Total Blocks : 524288 Invalid Blocks : 1180
Heartbeat CPU 0 instructions: 90000003 cycles: 98307486 heartbeat IPC: 0.923871 cumulative IPC: 0.915495 (Simulation time: 5 hr 20 min 47 sec) 
 Total Blocks : 524288 Invalid Blocks : 881
Heartbeat CPU 0 instructions: 100000000 cycles: 109199151 heartbeat IPC: 0.918133 cumulative IPC: 0.915758 (Simulation time: 5 hr 30 min 23 sec) 
 Total Blocks : 524288 Invalid Blocks : 686
Heartbeat CPU 0 instructions: 110000000 cycles: 120096857 heartbeat IPC: 0.917624 cumulative IPC: 0.915927 (Simulation time: 5 hr 40 min 28 sec) 
 Total Blocks : 524288 Invalid Blocks : 563
Heartbeat CPU 0 instructions: 120000000 cycles: 131030117 heartbeat IPC: 0.91464 cumulative IPC: 0.91582 (Simulation time: 5 hr 50 min 24 sec) 
 Total Blocks : 524288 Invalid Blocks : 446
Heartbeat CPU 0 instructions: 130000000 cycles: 142017193 heartbeat IPC: 0.91016 cumulative IPC: 0.915382 (Simulation time: 5 hr 58 min 55 sec) 
 Total Blocks : 524288 Invalid Blocks : 339
Heartbeat CPU 0 instructions: 140000002 cycles: 153030782 heartbeat IPC: 0.907969 cumulative IPC: 0.914849 (Simulation time: 6 hr 7 min 34 sec) 
 Total Blocks : 524288 Invalid Blocks : 269
Heartbeat CPU 0 instructions: 150000003 cycles: 163862055 heartbeat IPC: 0.923253 cumulative IPC: 0.915404 (Simulation time: 6 hr 16 min 4 sec) 
 Total Blocks : 524288 Invalid Blocks : 206
Heartbeat CPU 0 instructions: 160000001 cycles: 174344336 heartbeat IPC: 0.953991 cumulative IPC: 0.917724 (Simulation time: 6 hr 31 min 40 sec) 
 Total Blocks : 524288 Invalid Blocks : 113
Heartbeat CPU 0 instructions: 170000003 cycles: 185515461 heartbeat IPC: 0.895165 cumulative IPC: 0.916366 (Simulation time: 6 hr 48 min 35 sec) 
 Total Blocks : 524288 Invalid Blocks : 89
Heartbeat CPU 0 instructions: 180000002 cycles: 196601973 heartbeat IPC: 0.901997 cumulative IPC: 0.915555 (Simulation time: 6 hr 59 min 3 sec) 
 Total Blocks : 524288 Invalid Blocks : 81
Heartbeat CPU 0 instructions: 190000000 cycles: 207665084 heartbeat IPC: 0.903905 cumulative IPC: 0.914935 (Simulation time: 7 hr 8 min 35 sec) 
 Total Blocks : 524288 Invalid Blocks : 78
Heartbeat CPU 0 instructions: 200000001 cycles: 218781558 heartbeat IPC: 0.899566 cumulative IPC: 0.914154 (Simulation time: 7 hr 17 min 47 sec) 
 Total Blocks : 524288 Invalid Blocks : 67

Warmup complete CPU 0 instructions: 200000001 cycles: 218781558 (Simulation time: 7 hr 17 min 47 sec) 

Heartbeat CPU 0 instructions: 210000000 cycles: 277267672 heartbeat IPC: 0.170981 cumulative IPC: 0.170981 (Simulation time: 7 hr 29 min 16 sec) 
 Total Blocks : 524288 Invalid Blocks : 66
Heartbeat CPU 0 instructions: 220000000 cycles: 335897875 heartbeat IPC: 0.170561 cumulative IPC: 0.17077 (Simulation time: 7 hr 40 min 48 sec) 
 Total Blocks : 524288 Invalid Blocks : 64
Heartbeat CPU 0 instructions: 230000000 cycles: 394348772 heartbeat IPC: 0.171084 cumulative IPC: 0.170875 (Simulation time: 7 hr 52 min 23 sec) 
 Total Blocks : 524288 Invalid Blocks : 64
Heartbeat CPU 0 instructions: 240000001 cycles: 452932768 heartbeat IPC: 0.170695 cumulative IPC: 0.17083 (Simulation time: 8 hr 4 min 2 sec) 
 Total Blocks : 524288 Invalid Blocks : 60
Heartbeat CPU 0 instructions: 250000000 cycles: 511727740 heartbeat IPC: 0.170083 cumulative IPC: 0.17068 (Simulation time: 8 hr 15 min 47 sec) 
 Total Blocks : 524288 Invalid Blocks : 57
Heartbeat CPU 0 instructions: 260000000 cycles: 570293155 heartbeat IPC: 0.170749 cumulative IPC: 0.170691 (Simulation time: 8 hr 27 min 39 sec) 
 Total Blocks : 524288 Invalid Blocks : 53
Heartbeat CPU 0 instructions: 270000000 cycles: 629270272 heartbeat IPC: 0.169557 cumulative IPC: 0.170528 (Simulation time: 8 hr 39 min 38 sec) 
 Total Blocks : 524288 Invalid Blocks : 50
Heartbeat CPU 0 instructions: 280000000 cycles: 687970602 heartbeat IPC: 0.170357 cumulative IPC: 0.170507 (Simulation time: 8 hr 51 min 40 sec) 
 Total Blocks : 524288 Invalid Blocks : 46
Heartbeat CPU 0 instructions: 290000000 cycles: 746483215 heartbeat IPC: 0.170903 cumulative IPC: 0.170551 (Simulation time: 9 hr 3 min 46 sec) 
 Total Blocks : 524288 Invalid Blocks : 46
Heartbeat CPU 0 instructions: 300000000 cycles: 805077285 heartbeat IPC: 0.170666 cumulative IPC: 0.170562 (Simulation time: 9 hr 15 min 58 sec) 
 Total Blocks : 524288 Invalid Blocks : 40
Heartbeat CPU 0 instructions: 310000002 cycles: 864263498 heartbeat IPC: 0.168958 cumulative IPC: 0.170415 (Simulation time: 9 hr 28 min 19 sec) 
 Total Blocks : 524288 Invalid Blocks : 36
Heartbeat CPU 0 instructions: 320000000 cycles: 922779656 heartbeat IPC: 0.170893 cumulative IPC: 0.170455 (Simulation time: 9 hr 40 min 47 sec) 
 Total Blocks : 524288 Invalid Blocks : 32
Heartbeat CPU 0 instructions: 330000000 cycles: 981533659 heartbeat IPC: 0.170201 cumulative IPC: 0.170435 (Simulation time: 9 hr 53 min 21 sec) 
 Total Blocks : 524288 Invalid Blocks : 31
Heartbeat CPU 0 instructions: 340000000 cycles: 1040384882 heartbeat IPC: 0.16992 cumulative IPC: 0.170399 (Simulation time: 10 hr 6 min 3 sec) 
 Total Blocks : 524288 Invalid Blocks : 31
Heartbeat CPU 0 instructions: 350000002 cycles: 1099123254 heartbeat IPC: 0.170246 cumulative IPC: 0.170388 (Simulation time: 10 hr 18 min 53 sec) 
 Total Blocks : 524288 Invalid Blocks : 29
Heartbeat CPU 0 instructions: 360000002 cycles: 1157923713 heartbeat IPC: 0.170067 cumulative IPC: 0.170368 (Simulation time: 10 hr 31 min 51 sec) 
 Total Blocks : 524288 Invalid Blocks : 29
Heartbeat CPU 0 instructions: 370000000 cycles: 1216707941 heartbeat IPC: 0.170114 cumulative IPC: 0.170353 (Simulation time: 10 hr 44 min 53 sec) 
 Total Blocks : 524288 Invalid Blocks : 29
Heartbeat CPU 0 instructions: 380000000 cycles: 1275706840 heartbeat IPC: 0.169495 cumulative IPC: 0.170305 (Simulation time: 10 hr 58 min 5 sec) 
 Total Blocks : 524288 Invalid Blocks : 25
Heartbeat CPU 0 instructions: 390000000 cycles: 1334896997 heartbeat IPC: 0.168947 cumulative IPC: 0.170233 (Simulation time: 11 hr 11 min 25 sec) 
 Total Blocks : 524288 Invalid Blocks : 24
Heartbeat CPU 0 instructions: 400000003 cycles: 1393685030 heartbeat IPC: 0.170103 cumulative IPC: 0.170227 (Simulation time: 11 hr 24 min 53 sec) 
 Total Blocks : 524288 Invalid Blocks : 22
Finished CPU 0 instructions: 200000002 cycles: 1174903472 cumulative IPC: 0.170227 (Simulation time: 11 hr 24 min 53 sec) 

CPU 0 Branch Prediction Accuracy: 91.1649% MPKI: 7.11484 Average ROB Occupancy at Mispredict: 119.34

ChampSim completed all CPUs

Region of Interest Statistics

CPU 0 cumulative IPC: 0.170227 instructions: 200000002 cycles: 1174903472
ITLB TOTAL     ACCESS: 28954337  HIT: 28954337  MISS:     0  HIT %:   100  MISS %:     0  AVERAGE MISS PENALTY: 0
ITLB LOAD      ACCESS: 28954337  HIT: 28954337  MISS:     0  HIT %:   100  MISS %:     0  AVERAGE MISS PENALTY: 0
ITLB RFO       ACCESS:     0  HIT:     0  MISS:     0  HIT %:     0  MISS %:     0  AVERAGE MISS PENALTY: 0
ITLB PREFETCH  ACCESS:     0  HIT:     0  MISS:     0  HIT %:     0  MISS %:     0  AVERAGE MISS PENALTY: 0
ITLB WRITEBACK ACCESS:     0  HIT:     0  MISS:     0  HIT %:     0  MISS %:     0  AVERAGE MISS PENALTY: 0
ITLB PREFETCH  REQUESTED:     0  ISSUED:     0  USEFUL:     0  USELESS:     0
 USEFUL LOAD PREFETCHES:          0 PREFETCH ISSUED TO LOWER LEVEL:          0  ACCURACY: -nan
 TIMELY PREFETCHES:          0 LATE PREFETCHES: 0 DROPPED PREFETCHES: 0
ITLB AVERAGE MISS LATENCY: -nan cycles
DTLB TOTAL     ACCESS: 117660926  HIT: 112307873  MISS: 5353053  HIT %: 95.4504  MISS %: 4.54956  AVERAGE MISS PENALTY: 103.98
DTLB LOAD      ACCESS: 56419020  HIT: 55515023  MISS: 903997  HIT %: 98.3977  MISS %: 1.60229  AVERAGE MISS PENALTY: 73.8031
DTLB RFO       ACCESS: 61241906  HIT: 56792850  MISS: 4449056  HIT %: 92.7353  MISS %: 7.26472  AVERAGE MISS PENALTY: 110.112
DTLB PREFETCH  ACCESS:     0  HIT:     0  MISS:     0  HIT %:     0  MISS %:     0  AVERAGE MISS PENALTY: 0
DTLB WRITEBACK ACCESS:     0  HIT:     0  MISS:     0  HIT %:     0  MISS %:     0  AVERAGE MISS PENALTY: 0
DTLB PREFETCH  REQUESTED:     0  ISSUED:     0  USEFUL:     0  USELESS:     0
 USEFUL LOAD PREFETCHES:          0 PREFETCH ISSUED TO LOWER LEVEL:          0  ACCURACY: -nan
 TIMELY PREFETCHES:          0 LATE PREFETCHES: 0 DROPPED PREFETCHES: 0
DTLB AVERAGE MISS LATENCY: 103.98 cycles
STLB TOTAL     ACCESS: 5353053  HIT: 537839  MISS: 4815214  HIT %: 10.0473  MISS %: 89.9527  AVERAGE MISS PENALTY: 100
STLB LOAD      ACCESS: 903997  HIT: 500508  MISS: 403489  HIT %: 55.3661  MISS %: 44.6339  AVERAGE MISS PENALTY: 100
STLB RFO       ACCESS: 4449056  HIT: 37331  MISS: 4411725  HIT %: 0.839077  MISS %: 99.1609  AVERAGE MISS PENALTY: 100
STLB PREFETCH  ACCESS:     0  HIT:     0  MISS:     0  HIT %:     0  MISS %:     0  AVERAGE MISS PENALTY: 0
STLB WRITEBACK ACCESS:     0  HIT:     0  MISS:     0  HIT %:     0  MISS %:     0  AVERAGE MISS PENALTY: 0
STLB PREFETCH  REQUESTED:     0  ISSUED:     0  USEFUL:     0  USELESS:     0
 USEFUL LOAD PREFETCHES:          0 PREFETCH ISSUED TO LOWER LEVEL:          0  ACCURACY: -nan
 TIMELY PREFETCHES:          0 LATE PREFETCHES: 0 DROPPED PREFETCHES: 0
STLB AVERAGE MISS LATENCY: 100 cycles
L1D TOTAL     ACCESS: 153659524  HIT: 131390203  MISS: 22269321  HIT %: 85.5074  MISS %: 14.4926  AVERAGE MISS PENALTY: 1.6924e+06
L1D LOAD      ACCESS: 63781853  HIT: 59393980  MISS: 4387873  HIT %: 93.1205  MISS %: 6.8795  AVERAGE MISS PENALTY: 8.58845e+06
L1D RFO       ACCESS: 39855144  HIT: 31108270  MISS: 8746874  HIT %: 78.0533  MISS %: 21.9467  AVERAGE MISS PENALTY: 329.973
L1D PREFETCH  ACCESS: 50022527  HIT: 40887953  MISS: 9134574  HIT %: 81.7391  MISS %: 18.2609  AVERAGE MISS PENALTY: 70.6577
L1D WRITEBACK ACCESS:     0  HIT:     0  MISS:     0  HIT %:     0  MISS %:     0  AVERAGE MISS PENALTY: 0
L1D PREFETCH  REQUESTED: 71197243  ISSUED: 65153954  USEFUL: 4853253  USELESS: 4281236
 USEFUL LOAD PREFETCHES:    4853253 PREFETCH ISSUED TO LOWER LEVEL:    9819462  ACCURACY: 49.4248
 TIMELY PREFETCHES:    4853253 LATE PREFETCHES: 279393 DROPPED PREFETCHES: 6043289
L1D AVERAGE MISS LATENCY: 170.479 cycles
L1I TOTAL     ACCESS: 36326141  HIT: 36326141  MISS:     0  HIT %:   100  MISS %:     0  AVERAGE MISS PENALTY: 0
L1I LOAD      ACCESS: 36326141  HIT: 36326141  MISS:     0  HIT %:   100  MISS %:     0  AVERAGE MISS PENALTY: 0
L1I RFO       ACCESS:     0  HIT:     0  MISS:     0  HIT %:     0  MISS %:     0  AVERAGE MISS PENALTY: 0
L1I PREFETCH  ACCESS:     0  HIT:     0  MISS:     0  HIT %:     0  MISS %:     0  AVERAGE MISS PENALTY: 0
L1I WRITEBACK ACCESS:     0  HIT:     0  MISS:     0  HIT %:     0  MISS %:     0  AVERAGE MISS PENALTY: 0
L1I PREFETCH  REQUESTED:     0  ISSUED:     0  USEFUL:     0  USELESS:     0
 USEFUL LOAD PREFETCHES:          0 PREFETCH ISSUED TO LOWER LEVEL:          0  ACCURACY: -nan
 TIMELY PREFETCHES:          0 LATE PREFETCHES: 0 DROPPED PREFETCHES: 0
L1I AVERAGE MISS LATENCY: -nan cycles
L2C TOTAL     ACCESS: 50596604  HIT: 28620996  MISS: 21975608  HIT %: 56.567  MISS %: 43.433  AVERAGE MISS PENALTY: 856245
L2C LOAD      ACCESS: 4376062  HIT: 1026983  MISS: 3349079  HIT %: 23.4682  MISS %: 76.5318  AVERAGE MISS PENALTY: 5.61706e+06
L2C RFO       ACCESS: 8746874  HIT:   172  MISS: 8746702  HIT %: 0.00196642  MISS %: 99.998  AVERAGE MISS PENALTY: 309.432
L2C PREFETCH  ACCESS: 19485583  HIT: 9611416  MISS: 9874167  HIT %: 49.3258  MISS %: 50.6742  AVERAGE MISS PENALTY: 183.408
L2C WRITEBACK ACCESS: 17988085  HIT: 17982425  MISS:  5660  HIT %: 99.9685  MISS %: 0.0314653  AVERAGE MISS PENALTY: 0
L2C PREFETCH  REQUESTED: 21229250  ISSUED: 21120156  USEFUL: 139361  USELESS: 9733964
 USEFUL LOAD PREFETCHES:     139361 PREFETCH ISSUED TO LOWER LEVEL:   11513034  ACCURACY: 1.21046
 TIMELY PREFETCHES:     139361 LATE PREFETCHES: 230070 DROPPED PREFETCHES: 109094
L2C AVERAGE MISS LATENCY: 213.493 cycles
LLC0 TOTAL     ACCESS: 4820758  HIT: 3057731  MISS: 1763027  HIT %: 63.4284  MISS %: 36.5716  AVERAGE MISS PENALTY: 257.078
LLC0 LOAD      ACCESS: 474536  HIT: 393772  MISS: 80764  HIT %: 82.9804  MISS %: 17.0196  AVERAGE MISS PENALTY: 213.929
LLC0 RFO       ACCESS: 1099752  HIT: 65965  MISS: 1033787  HIT %: 5.99817  MISS %: 94.0018  AVERAGE MISS PENALTY: 272.645
LLC0 PREFETCH  ACCESS: 1108413  HIT: 555112  MISS: 553301  HIT %: 50.0817  MISS %: 49.9183  AVERAGE MISS PENALTY: 278.512
LLC0 WRITEBACK ACCESS: 2138057  HIT: 2042882  MISS: 95175  HIT %: 95.5485  MISS %: 4.45147  AVERAGE MISS PENALTY: 0
LLC0 PREFETCH  REQUESTED:     0  ISSUED:     0  USEFUL:  1964  USELESS: 552341
 USEFUL LOAD PREFETCHES:       1964 PREFETCH ISSUED TO LOWER LEVEL:     553302  ACCURACY: 0.35496
 TIMELY PREFETCHES:       1964 LATE PREFETCHES: 0 DROPPED PREFETCHES: 0
LLC0 AVERAGE MISS LATENCY: 257.078 cycles
Deadblocks : 77447 Deadblock percentage : 95.893

LLC1 TOTAL     ACCESS: 4873449  HIT: 3150420  MISS: 1723029  HIT %: 64.6446  MISS %: 35.3554  AVERAGE MISS PENALTY: 263.826
LLC1 LOAD      ACCESS: 443278  HIT: 405712  MISS: 37566  HIT %: 91.5254  MISS %: 8.47459  AVERAGE MISS PENALTY: 223.861
LLC1 RFO       ACCESS: 1089985  HIT: 68231  MISS: 1021754  HIT %: 6.25981  MISS %: 93.7402  AVERAGE MISS PENALTY: 274.606
LLC1 PREFETCH  ACCESS: 1198407  HIT: 600747  MISS: 597660  HIT %: 50.1288  MISS %: 49.8712  AVERAGE MISS PENALTY: 277.064
LLC1 WRITEBACK ACCESS: 2141779  HIT: 2075730  MISS: 66049  HIT %: 96.9162  MISS %: 3.08384  AVERAGE MISS PENALTY: 0
LLC1 PREFETCH  REQUESTED:     0  ISSUED:     0  USEFUL:  2048  USELESS: 597245
 USEFUL LOAD PREFETCHES:       2048 PREFETCH ISSUED TO LOWER LEVEL:     597661  ACCURACY: 0.342669
 TIMELY PREFETCHES:       2048 LATE PREFETCHES: 0 DROPPED PREFETCHES: 0
LLC1 AVERAGE MISS LATENCY: 263.826 cycles
LLC2 TOTAL     ACCESS: 4901607  HIT: 3185700  MISS: 1715907  HIT %: 64.993  MISS %: 35.007  AVERAGE MISS PENALTY: 266.91
LLC2 LOAD      ACCESS: 415775  HIT: 398117  MISS: 17658  HIT %: 95.753  MISS %: 4.24701  AVERAGE MISS PENALTY: 254.165
LLC2 RFO       ACCESS: 1087807  HIT: 68235  MISS: 1019572  HIT %: 6.27271  MISS %: 93.7273  AVERAGE MISS PENALTY: 273.793
LLC2 PREFETCH  ACCESS: 1264811  HIT: 647119  MISS: 617692  HIT %: 51.1633  MISS %: 48.8367  AVERAGE MISS PENALTY: 282.266
LLC2 WRITEBACK ACCESS: 2133214  HIT: 2072229  MISS: 60985  HIT %: 97.1412  MISS %: 2.85883  AVERAGE MISS PENALTY: 0
LLC2 PREFETCH  REQUESTED:     0  ISSUED:     0  USEFUL:  2173  USELESS: 616167
 USEFUL LOAD PREFETCHES:       2173 PREFETCH ISSUED TO LOWER LEVEL:     617692  ACCURACY: 0.351793
 TIMELY PREFETCHES:       2173 LATE PREFETCHES: 0 DROPPED PREFETCHES: 0
LLC2 AVERAGE MISS LATENCY: 266.91 cycles
LLC3 TOTAL     ACCESS: 4907970  HIT: 3183486  MISS: 1724484  HIT %: 64.8636  MISS %: 35.1364  AVERAGE MISS PENALTY: 268.152
LLC3 LOAD      ACCESS: 399821  HIT: 392783  MISS:  7038  HIT %: 98.2397  MISS %: 1.76029  AVERAGE MISS PENALTY: 281.962
LLC3 RFO       ACCESS: 1096963  HIT: 69818  MISS: 1027145  HIT %: 6.36466  MISS %: 93.6353  AVERAGE MISS PENALTY: 274.628
LLC3 PREFETCH  ACCESS: 1275549  HIT: 646422  MISS: 629127  HIT %: 50.6779  MISS %: 49.3221  AVERAGE MISS PENALTY: 283.498
LLC3 WRITEBACK ACCESS: 2135637  HIT: 2074463  MISS: 61174  HIT %: 97.1356  MISS %: 2.86444  AVERAGE MISS PENALTY: 0
LLC3 PREFETCH  REQUESTED:     0  ISSUED:     0  USEFUL:  2416  USELESS: 626916
 USEFUL LOAD PREFETCHES:       2416 PREFETCH ISSUED TO LOWER LEVEL:     629127  ACCURACY: 0.384024
 TIMELY PREFETCHES:       2416 LATE PREFETCHES: 0 DROPPED PREFETCHES: 0
LLC3 AVERAGE MISS LATENCY: 268.152 cycles
LLC4 TOTAL     ACCESS: 4896003  HIT: 3166531  MISS: 1729472  HIT %: 64.6758  MISS %: 35.3242  AVERAGE MISS PENALTY: 266.84
LLC4 LOAD      ACCESS: 395484  HIT: 391322  MISS:  4162  HIT %: 98.9476  MISS %: 1.05238  AVERAGE MISS PENALTY: 301.564
LLC4 RFO       ACCESS: 1098626  HIT: 68172  MISS: 1030454  HIT %: 6.20521  MISS %: 93.7948  AVERAGE MISS PENALTY: 275.091
LLC4 PREFETCH  ACCESS: 1264566  HIT: 631261  MISS: 633305  HIT %: 49.9192  MISS %: 50.0808  AVERAGE MISS PENALTY: 279.119
LLC4 WRITEBACK ACCESS: 2137327  HIT: 2075776  MISS: 61551  HIT %: 97.1202  MISS %: 2.87981  AVERAGE MISS PENALTY: 0
LLC4 PREFETCH  REQUESTED:     0  ISSUED:     0  USEFUL:  2425  USELESS: 631471
 USEFUL LOAD PREFETCHES:       2425 PREFETCH ISSUED TO LOWER LEVEL:     633305  ACCURACY: 0.382912
 TIMELY PREFETCHES:       2425 LATE PREFETCHES: 0 DROPPED PREFETCHES: 0
LLC4 AVERAGE MISS LATENCY: 266.84 cycles
LLC5 TOTAL     ACCESS: 4853599  HIT: 3133070  MISS: 1720529  HIT %: 64.5515  MISS %: 35.4485  AVERAGE MISS PENALTY: 266.208
LLC5 LOAD      ACCESS: 385828  HIT: 381164  MISS:  4664  HIT %: 98.7912  MISS %: 1.20883  AVERAGE MISS PENALTY: 302.35
LLC5 RFO       ACCESS: 1088496  HIT: 66988  MISS: 1021508  HIT %: 6.15418  MISS %: 93.8458  AVERAGE MISS PENALTY: 275.317
LLC5 PREFETCH  ACCESS: 1261712  HIT: 627275  MISS: 634437  HIT %: 49.7162  MISS %: 50.2838  AVERAGE MISS PENALTY: 276.417
LLC5 WRITEBACK ACCESS: 2117563  HIT: 2057643  MISS: 59920  HIT %: 97.1703  MISS %: 2.82967  AVERAGE MISS PENALTY: 0
LLC5 PREFETCH  REQUESTED:     0  ISSUED:     0  USEFUL:  2579  USELESS: 632351
 USEFUL LOAD PREFETCHES:       2579 PREFETCH ISSUED TO LOWER LEVEL:     634437  ACCURACY: 0.406502
 TIMELY PREFETCHES:       2579 LATE PREFETCHES: 0 DROPPED PREFETCHES: 0
LLC5 AVERAGE MISS LATENCY: 266.208 cycles
LLC6 TOTAL     ACCESS: 4887406  HIT: 3167220  MISS: 1720186  HIT %: 64.8037  MISS %: 35.1963  AVERAGE MISS PENALTY: 266.191
LLC6 LOAD      ACCESS: 409337  HIT: 404286  MISS:  5051  HIT %: 98.7661  MISS %: 1.23395  AVERAGE MISS PENALTY: 299.617
LLC6 RFO       ACCESS: 1087175  HIT: 67335  MISS: 1019840  HIT %: 6.19358  MISS %: 93.8064  AVERAGE MISS PENALTY: 275.041
LLC6 PREFETCH  ACCESS: 1254569  HIT: 619194  MISS: 635375  HIT %: 49.3551  MISS %: 50.6449  AVERAGE MISS PENALTY: 276.822
LLC6 WRITEBACK ACCESS: 2136325  HIT: 2076405  MISS: 59920  HIT %: 97.1952  MISS %: 2.80482  AVERAGE MISS PENALTY: 0
LLC6 PREFETCH  REQUESTED:     0  ISSUED:     0  USEFUL:  2768  USELESS: 632379
 USEFUL LOAD PREFETCHES:       2768 PREFETCH ISSUED TO LOWER LEVEL:     635375  ACCURACY: 0.435648
 TIMELY PREFETCHES:       2768 LATE PREFETCHES: 0 DROPPED PREFETCHES: 0
LLC6 AVERAGE MISS LATENCY: 266.191 cycles
LLC7 TOTAL     ACCESS: 4911198  HIT: 3177940  MISS: 1733258  HIT %: 64.708  MISS %: 35.292  AVERAGE MISS PENALTY: 265.669
LLC7 LOAD      ACCESS: 402999  HIT: 397828  MISS:  5171  HIT %: 98.7169  MISS %: 1.28313  AVERAGE MISS PENALTY: 301.202
LLC7 RFO       ACCESS: 1097898  HIT: 68460  MISS: 1029438  HIT %: 6.23555  MISS %: 93.7644  AVERAGE MISS PENALTY: 274.381
LLC7 PREFETCH  ACCESS: 1268065  HIT: 631786  MISS: 636279  HIT %: 49.8228  MISS %: 50.1772  AVERAGE MISS PENALTY: 277.327
LLC7 WRITEBACK ACCESS: 2142236  HIT: 2079866  MISS: 62370  HIT %: 97.0886  MISS %: 2.91144  AVERAGE MISS PENALTY: 0
LLC7 PREFETCH  REQUESTED:     0  ISSUED:     0  USEFUL:  2994  USELESS: 633198
 USEFUL LOAD PREFETCHES:       2994 PREFETCH ISSUED TO LOWER LEVEL:     636279  ACCURACY: 0.470548
 TIMELY PREFETCHES:       2994 LATE PREFETCHES: 0 DROPPED PREFETCHES: 0
LLC7 AVERAGE MISS LATENCY: 265.669 cycles
ROI Average ROB Stall Cycles:	18.3468
ROI Total ROB Stalls Cycles:	955031303
ROI TOTAL ROB counter      :	52054412
ROI Average Load ROB Stall Cycles:	20.2717
ROI Total Load ROB Stalls Cycle  :	74432060
ROI Total Load ROB stalls Counter:	3671714
Major fault: 0 Minor fault: 375703

Interconnect Stats 
LINK 0 BW : 0LINK 1 BW : 0LINK 2 BW : 0LINK 3 BW : 0LINK 4 BW : 0LINK 5 BW : 0LINK 6 BW : 0LINK 7 BW : 0
DRAM Statistics
 CHANNEL 0
 RQ ROW_BUFFER_HIT: 258506  ROW_BUFFER_MISS: 13044066
 DBUS_CONGESTED: 14798009
 WQ ROW_BUFFER_HIT: 2353738  ROW_BUFFER_MISS: 10852443  FULL:     0

 AVG_CONGESTED_CYCLE: 6
DRAM PAGES: 1048576
Allocated PAGES: 375703
L2C destructor called
L1D destructor called
L1I destructor called
STLB destructor called
DTLB destructor called
ITLB destructor called
