
*** ChampSim Multicore Out-of-Order Simulator ***

Warmup Instructions: 200000000
Simulation Instructions: 200000000
Number of CPUs: 1
threads:1

L1I Configuration:
L1I_SET:64
L1I_WAY:8
L1I_RQ_SIZE:64
L1I_WQ_SIZE:64
L1I_PQ_SIZE:8
L1I_MSHR_SIZE:8

L1D Configuration:
L1D_SET:64
L1D_WAY:12
L1D_RQ_SIZE:64
L1D_WQ_SIZE:64
L1D_PQ_SIZE:8
L1D_MSHR_SIZE:16

L2C Configuration:
L2C_SET:1024
L2C_WAY:8
L2C_RQ_SIZE:32
L2C_WQ_SIZE:32
L2C_PQ_SIZE:16
L2C_MSHR_SIZE:32

LLC Configuration:
LLC_SET:4096
LLC_WAY:16
LLC SLICES:8
LLC_RQ_SIZE:64
LLC_WQ_SIZE:64
LLC_PQ_SIZE:32
LLC_MSHR_SIZE:64

Interconnect OFF
Attacker deprioritize is: OFF
Off-chip DRAM Size: 4096 MB Channels: 1 Width: 64-bit Data Rate: 3200 MT/s
PAGE SIZE in KB: 4.000000 
PAGE SIZE in MB: 0.003906 
PAGE offset in bits: 12 
CEASER-S_LLC:0
MIRAGE : 0
CEASER_LATENCY:3
REMAP : OFF
Partitions : 1
Multi-Step : OFF
BFS : OFF

CPU 0 runs /home/anubhav/spec_2017/605.mcf_s-1554B.champsimtrace.xz
CPU 0 Bimodal branch predictor
Initialize Hawkeye state
Initialize Hawkeye state
Initialize Hawkeye state
Initialize Hawkeye state
Initialize Hawkeye state
Initialize Hawkeye state
Initialize Hawkeye state
Initialize Hawkeye state
Heartbeat CPU 0 instructions: 10000000 cycles: 5933303 heartbeat IPC: 1.6854 cumulative IPC: 1.6854 (Simulation time: 0 hr 0 min 58 sec) 
 Total Blocks : 524288 Invalid Blocks : 439432
Heartbeat CPU 0 instructions: 20000003 cycles: 11775986 heartbeat IPC: 1.71154 cumulative IPC: 1.69837 (Simulation time: 0 hr 1 min 57 sec) 
 Total Blocks : 524288 Invalid Blocks : 414226
Heartbeat CPU 0 instructions: 30000002 cycles: 17506385 heartbeat IPC: 1.74508 cumulative IPC: 1.71366 (Simulation time: 0 hr 3 min 52 sec) 
 Total Blocks : 524288 Invalid Blocks : 394301
Heartbeat CPU 0 instructions: 40000003 cycles: 23320812 heartbeat IPC: 1.71986 cumulative IPC: 1.71521 (Simulation time: 0 hr 5 min 58 sec) 
 Total Blocks : 524288 Invalid Blocks : 377778
Heartbeat CPU 0 instructions: 50000003 cycles: 29145807 heartbeat IPC: 1.71674 cumulative IPC: 1.71551 (Simulation time: 0 hr 9 min 33 sec) 
 Total Blocks : 524288 Invalid Blocks : 362786
Heartbeat CPU 0 instructions: 60000001 cycles: 34899106 heartbeat IPC: 1.73813 cumulative IPC: 1.71924 (Simulation time: 0 hr 13 min 12 sec) 
 Total Blocks : 524288 Invalid Blocks : 350830
Heartbeat CPU 0 instructions: 70000001 cycles: 40768558 heartbeat IPC: 1.70374 cumulative IPC: 1.71701 (Simulation time: 0 hr 16 min 56 sec) 
 Total Blocks : 524288 Invalid Blocks : 339206
Heartbeat CPU 0 instructions: 80000000 cycles: 46648212 heartbeat IPC: 1.70078 cumulative IPC: 1.71496 (Simulation time: 0 hr 20 min 34 sec) 
 Total Blocks : 524288 Invalid Blocks : 327709
Heartbeat CPU 0 instructions: 90000003 cycles: 52409632 heartbeat IPC: 1.73568 cumulative IPC: 1.71724 (Simulation time: 0 hr 24 min 25 sec) 
 Total Blocks : 524288 Invalid Blocks : 319663
Heartbeat CPU 0 instructions: 100000000 cycles: 58156164 heartbeat IPC: 1.74018 cumulative IPC: 1.71951 (Simulation time: 0 hr 28 min 10 sec) 
 Total Blocks : 524288 Invalid Blocks : 311139
Heartbeat CPU 0 instructions: 110000000 cycles: 63887554 heartbeat IPC: 1.74478 cumulative IPC: 1.72178 (Simulation time: 0 hr 31 min 55 sec) 
 Total Blocks : 524288 Invalid Blocks : 300411
Heartbeat CPU 0 instructions: 120000000 cycles: 69460027 heartbeat IPC: 1.79454 cumulative IPC: 1.72761 (Simulation time: 0 hr 35 min 57 sec) 
 Total Blocks : 524288 Invalid Blocks : 291027
Heartbeat CPU 0 instructions: 130000003 cycles: 75160283 heartbeat IPC: 1.75431 cumulative IPC: 1.72964 (Simulation time: 0 hr 39 min 38 sec) 
 Total Blocks : 524288 Invalid Blocks : 283146
Heartbeat CPU 0 instructions: 140000003 cycles: 80767459 heartbeat IPC: 1.78343 cumulative IPC: 1.73337 (Simulation time: 0 hr 43 min 21 sec) 
 Total Blocks : 524288 Invalid Blocks : 278528
Heartbeat CPU 0 instructions: 150000000 cycles: 86356528 heartbeat IPC: 1.78921 cumulative IPC: 1.73699 (Simulation time: 0 hr 47 min 3 sec) 
 Total Blocks : 524288 Invalid Blocks : 274965
Heartbeat CPU 0 instructions: 160000001 cycles: 91769423 heartbeat IPC: 1.84744 cumulative IPC: 1.7435 (Simulation time: 0 hr 50 min 52 sec) 
 Total Blocks : 524288 Invalid Blocks : 272738
Heartbeat CPU 0 instructions: 170000002 cycles: 97141839 heartbeat IPC: 1.86136 cumulative IPC: 1.75002 (Simulation time: 0 hr 54 min 30 sec) 
 Total Blocks : 524288 Invalid Blocks : 270273
Heartbeat CPU 0 instructions: 180000002 cycles: 102534326 heartbeat IPC: 1.85443 cumulative IPC: 1.75551 (Simulation time: 0 hr 58 min 18 sec) 
 Total Blocks : 524288 Invalid Blocks : 268201
Heartbeat CPU 0 instructions: 190000000 cycles: 107972670 heartbeat IPC: 1.83879 cumulative IPC: 1.7597 (Simulation time: 1 hr 2 min 14 sec) 
 Total Blocks : 524288 Invalid Blocks : 266714
Heartbeat CPU 0 instructions: 200000001 cycles: 113289053 heartbeat IPC: 1.88098 cumulative IPC: 1.7654 (Simulation time: 1 hr 6 min 6 sec) 
 Total Blocks : 524288 Invalid Blocks : 265412

Warmup complete CPU 0 instructions: 200000001 cycles: 113289053 (Simulation time: 1 hr 6 min 6 sec) 

Heartbeat CPU 0 instructions: 210000000 cycles: 128908065 heartbeat IPC: 0.640245 cumulative IPC: 0.640245 (Simulation time: 1 hr 12 min 34 sec) 
 Total Blocks : 524288 Invalid Blocks : 259715
Heartbeat CPU 0 instructions: 220000000 cycles: 144602913 heartbeat IPC: 0.637152 cumulative IPC: 0.638695 (Simulation time: 1 hr 18 min 59 sec) 
 Total Blocks : 524288 Invalid Blocks : 256317
Heartbeat CPU 0 instructions: 230000000 cycles: 159681709 heartbeat IPC: 0.663183 cumulative IPC: 0.646654 (Simulation time: 1 hr 25 min 39 sec) 
 Total Blocks : 524288 Invalid Blocks : 254710
Heartbeat CPU 0 instructions: 240000001 cycles: 175337706 heartbeat IPC: 0.638733 cumulative IPC: 0.644655 (Simulation time: 1 hr 31 min 59 sec) 
 Total Blocks : 524288 Invalid Blocks : 252282
Heartbeat CPU 0 instructions: 250000000 cycles: 190944765 heartbeat IPC: 0.640736 cumulative IPC: 0.643868 (Simulation time: 1 hr 38 min 10 sec) 
 Total Blocks : 524288 Invalid Blocks : 250464
Heartbeat CPU 0 instructions: 260000002 cycles: 205837515 heartbeat IPC: 0.671468 cumulative IPC: 0.648309 (Simulation time: 1 hr 44 min 22 sec) 
 Total Blocks : 524288 Invalid Blocks : 249707
Heartbeat CPU 0 instructions: 270000002 cycles: 221923376 heartbeat IPC: 0.621664 cumulative IPC: 0.644364 (Simulation time: 1 hr 50 min 26 sec) 
 Total Blocks : 524288 Invalid Blocks : 247232
Heartbeat CPU 0 instructions: 280000000 cycles: 237804219 heartbeat IPC: 0.629689 cumulative IPC: 0.642492 (Simulation time: 1 hr 56 min 25 sec) 
 Total Blocks : 524288 Invalid Blocks : 245265
Heartbeat CPU 0 instructions: 290000000 cycles: 253525604 heartbeat IPC: 0.636076 cumulative IPC: 0.641773 (Simulation time: 2 hr 2 min 18 sec) 
 Total Blocks : 524288 Invalid Blocks : 243507
Heartbeat CPU 0 instructions: 300000002 cycles: 268624351 heartbeat IPC: 0.662307 cumulative IPC: 0.643769 (Simulation time: 2 hr 8 min 16 sec) 
 Total Blocks : 524288 Invalid Blocks : 242708
Heartbeat CPU 0 instructions: 310000003 cycles: 284417998 heartbeat IPC: 0.633166 cumulative IPC: 0.64279 (Simulation time: 2 hr 13 min 59 sec) 
 Total Blocks : 524288 Invalid Blocks : 240927
Heartbeat CPU 0 instructions: 320000001 cycles: 300458557 heartbeat IPC: 0.62342 cumulative IPC: 0.64113 (Simulation time: 2 hr 20 min 3 sec) 
 Total Blocks : 524288 Invalid Blocks : 239048
Heartbeat CPU 0 instructions: 330000000 cycles: 316755396 heartbeat IPC: 0.613616 cumulative IPC: 0.638926 (Simulation time: 2 hr 25 min 50 sec) 
 Total Blocks : 524288 Invalid Blocks : 236530
Heartbeat CPU 0 instructions: 340000001 cycles: 333308098 heartbeat IPC: 0.604131 cumulative IPC: 0.636309 (Simulation time: 2 hr 31 min 26 sec) 
 Total Blocks : 524288 Invalid Blocks : 233946
Heartbeat CPU 0 instructions: 350000000 cycles: 349825020 heartbeat IPC: 0.60544 cumulative IPC: 0.634153 (Simulation time: 2 hr 36 min 41 sec) 
 Total Blocks : 524288 Invalid Blocks : 231606
Heartbeat CPU 0 instructions: 360000001 cycles: 366318918 heartbeat IPC: 0.606285 cumulative IPC: 0.632336 (Simulation time: 2 hr 41 min 29 sec) 
 Total Blocks : 524288 Invalid Blocks : 229785
Heartbeat CPU 0 instructions: 370000001 cycles: 382174606 heartbeat IPC: 0.630688 cumulative IPC: 0.632239 (Simulation time: 2 hr 45 min 30 sec) 
 Total Blocks : 524288 Invalid Blocks : 228515
Heartbeat CPU 0 instructions: 380000000 cycles: 397542062 heartbeat IPC: 0.650726 cumulative IPC: 0.633239 (Simulation time: 2 hr 49 min 40 sec) 
 Total Blocks : 524288 Invalid Blocks : 227754
Heartbeat CPU 0 instructions: 390000002 cycles: 412725492 heartbeat IPC: 0.658613 cumulative IPC: 0.634525 (Simulation time: 2 hr 53 min 47 sec) 
 Total Blocks : 524288 Invalid Blocks : 227300
Heartbeat CPU 0 instructions: 400000000 cycles: 428277436 heartbeat IPC: 0.643006 cumulative IPC: 0.634944 (Simulation time: 2 hr 57 min 17 sec) 
 Total Blocks : 524288 Invalid Blocks : 226715
Finished CPU 0 instructions: 200000003 cycles: 314988384 cumulative IPC: 0.634944 (Simulation time: 2 hr 57 min 17 sec) 

CPU 0 Branch Prediction Accuracy: 98.0544% MPKI: 3.50182 Average ROB Occupancy at Mispredict: 69.186

ChampSim completed all CPUs

Region of Interest Statistics

CPU 0 cumulative IPC: 0.634944 instructions: 200000003 cycles: 314988384
ITLB TOTAL     ACCESS: 52743006  HIT: 52743006  MISS:     0  HIT %:   100  MISS %:     0  AVERAGE MISS PENALTY: 0
ITLB LOAD      ACCESS: 52743006  HIT: 52743006  MISS:     0  HIT %:   100  MISS %:     0  AVERAGE MISS PENALTY: 0
ITLB RFO       ACCESS:     0  HIT:     0  MISS:     0  HIT %:     0  MISS %:     0  AVERAGE MISS PENALTY: 0
ITLB PREFETCH  ACCESS:     0  HIT:     0  MISS:     0  HIT %:     0  MISS %:     0  AVERAGE MISS PENALTY: 0
ITLB WRITEBACK ACCESS:     0  HIT:     0  MISS:     0  HIT %:     0  MISS %:     0  AVERAGE MISS PENALTY: 0
ITLB PREFETCH  REQUESTED:     0  ISSUED:     0  USEFUL:     0  USELESS:     0
 USEFUL LOAD PREFETCHES:          0 PREFETCH ISSUED TO LOWER LEVEL:          0  ACCURACY: -nan
 TIMELY PREFETCHES:          0 LATE PREFETCHES: 0 DROPPED PREFETCHES: 0
ITLB AVERAGE MISS LATENCY: -nan cycles
DTLB TOTAL     ACCESS: 67751123  HIT: 66969044  MISS: 782079  HIT %: 98.8457  MISS %: 1.15434  AVERAGE MISS PENALTY: 10.4796
DTLB LOAD      ACCESS: 57277236  HIT: 56501852  MISS: 775384  HIT %: 98.6463  MISS %: 1.35374  AVERAGE MISS PENALTY: 9.73479
DTLB RFO       ACCESS: 10473887  HIT: 10467192  MISS:  6695  HIT %: 99.9361  MISS %: 0.0639209  AVERAGE MISS PENALTY: 96.7411
DTLB PREFETCH  ACCESS:     0  HIT:     0  MISS:     0  HIT %:     0  MISS %:     0  AVERAGE MISS PENALTY: 0
DTLB WRITEBACK ACCESS:     0  HIT:     0  MISS:     0  HIT %:     0  MISS %:     0  AVERAGE MISS PENALTY: 0
DTLB PREFETCH  REQUESTED:     0  ISSUED:     0  USEFUL:     0  USELESS:     0
 USEFUL LOAD PREFETCHES:          0 PREFETCH ISSUED TO LOWER LEVEL:          0  ACCURACY: -nan
 TIMELY PREFETCHES:          0 LATE PREFETCHES: 0 DROPPED PREFETCHES: 0
DTLB AVERAGE MISS LATENCY: 10.4796 cycles
STLB TOTAL     ACCESS: 782079  HIT: 770788  MISS: 11291  HIT %: 98.5563  MISS %: 1.44372  AVERAGE MISS PENALTY: 100
STLB LOAD      ACCESS: 775384  HIT: 769964  MISS:  5420  HIT %: 99.301  MISS %: 0.699008  AVERAGE MISS PENALTY: 100
STLB RFO       ACCESS:  6695  HIT:   824  MISS:  5871  HIT %: 12.3077  MISS %: 87.6923  AVERAGE MISS PENALTY: 100
STLB PREFETCH  ACCESS:     0  HIT:     0  MISS:     0  HIT %:     0  MISS %:     0  AVERAGE MISS PENALTY: 0
STLB WRITEBACK ACCESS:     0  HIT:     0  MISS:     0  HIT %:     0  MISS %:     0  AVERAGE MISS PENALTY: 0
STLB PREFETCH  REQUESTED:     0  ISSUED:     0  USEFUL:     0  USELESS:     0
 USEFUL LOAD PREFETCHES:          0 PREFETCH ISSUED TO LOWER LEVEL:          0  ACCURACY: -nan
 TIMELY PREFETCHES:          0 LATE PREFETCHES: 0 DROPPED PREFETCHES: 0
STLB AVERAGE MISS LATENCY: 100 cycles
L1D TOTAL     ACCESS: 128618977  HIT: 95522059  MISS: 33096918  HIT %: 74.2675  MISS %: 25.7325  AVERAGE MISS PENALTY: 7.26193e+07
L1D LOAD      ACCESS: 66101097  HIT: 53569541  MISS: 12531556  HIT %: 81.0418  MISS %: 18.9582  AVERAGE MISS PENALTY: 1.91723e+08
L1D RFO       ACCESS: 13057850  HIT: 12696988  MISS: 360862  HIT %: 97.2364  MISS %: 2.76356  AVERAGE MISS PENALTY: 2.46665e+06
L1D PREFETCH  ACCESS: 49460030  HIT: 29255530  MISS: 20204500  HIT %: 59.1498  MISS %: 40.8502  AVERAGE MISS PENALTY: 44.4687
L1D WRITEBACK ACCESS:     0  HIT:     0  MISS:     0  HIT %:     0  MISS %:     0  AVERAGE MISS PENALTY: 0
L1D PREFETCH  REQUESTED: 102327006  ISSUED: 93646186  USEFUL: 17516520  USELESS: 2687896
 USEFUL LOAD PREFETCHES:   17516520 PREFETCH ISSUED TO LOWER LEVEL:   56634765  ACCURACY: 30.9289
 TIMELY PREFETCHES:   17516520 LATE PREFETCHES: 11667513 DROPPED PREFETCHES: 8680820
L1D AVERAGE MISS LATENCY: 26934.2 cycles
L1I TOTAL     ACCESS: 66620784  HIT: 66620783  MISS:     1  HIT %:   100  MISS %: 1.50103e-06  AVERAGE MISS PENALTY: 219
L1I LOAD      ACCESS: 66620784  HIT: 66620783  MISS:     1  HIT %:   100  MISS %: 1.50103e-06  AVERAGE MISS PENALTY: 219
L1I RFO       ACCESS:     0  HIT:     0  MISS:     0  HIT %:     0  MISS %:     0  AVERAGE MISS PENALTY: 0
L1I PREFETCH  ACCESS:     0  HIT:     0  MISS:     0  HIT %:     0  MISS %:     0  AVERAGE MISS PENALTY: 0
L1I WRITEBACK ACCESS:     0  HIT:     0  MISS:     0  HIT %:     0  MISS %:     0  AVERAGE MISS PENALTY: 0
L1I PREFETCH  REQUESTED:     0  ISSUED:     0  USEFUL:     0  USELESS:     0
 USEFUL LOAD PREFETCHES:          0 PREFETCH ISSUED TO LOWER LEVEL:          0  ACCURACY: -nan
 TIMELY PREFETCHES:          0 LATE PREFETCHES: 0 DROPPED PREFETCHES: 0
L1I AVERAGE MISS LATENCY: 219 cycles
L2C TOTAL     ACCESS: 42514508  HIT: 9382460  MISS: 33132048  HIT %: 22.0688  MISS %: 77.9312  AVERAGE MISS PENALTY: 2.48004e+07
L2C LOAD      ACCESS: 7735183  HIT: 67553  MISS: 7667630  HIT %: 0.873321  MISS %: 99.1267  AVERAGE MISS PENALTY: 1.07149e+08
L2C RFO       ACCESS: 357714  HIT:  5586  MISS: 352128  HIT %: 1.56158  MISS %: 98.4384  AVERAGE MISS PENALTY: 312913
L2C PREFETCH  ACCESS: 33820685  HIT: 8709371  MISS: 25111314  HIT %: 25.7516  MISS %: 74.2484  AVERAGE MISS PENALTY: 36.346
L2C WRITEBACK ACCESS: 600926  HIT: 599950  MISS:   976  HIT %: 99.8376  MISS %: 0.162416  AVERAGE MISS PENALTY: 0
L2C PREFETCH  REQUESTED: 13378690  ISSUED: 13363556  USEFUL: 67962  USELESS: 25044852
 USEFUL LOAD PREFETCHES:      67962 PREFETCH ISSUED TO LOWER LEVEL:   29175760  ACCURACY: 0.23294
 TIMELY PREFETCHES:      67962 LATE PREFETCHES: 3062529 DROPPED PREFETCHES: 15134
L2C AVERAGE MISS LATENCY: 37.5142 cycles
LLC0 TOTAL     ACCESS: 4217660  HIT: 4128041  MISS: 89619  HIT %: 97.8751  MISS %: 2.12485  AVERAGE MISS PENALTY: 174.176
LLC0 LOAD      ACCESS: 610870  HIT: 602405  MISS:  8465  HIT %: 98.6143  MISS %: 1.38573  AVERAGE MISS PENALTY: 180.166
LLC0 RFO       ACCESS: 44766  HIT:   757  MISS: 44009  HIT %: 1.69102  MISS %: 98.309  AVERAGE MISS PENALTY: 171.527
LLC0 PREFETCH  ACCESS: 3487913  HIT: 3450771  MISS: 37142  HIT %: 98.9351  MISS %: 1.06488  AVERAGE MISS PENALTY: 175.964
LLC0 WRITEBACK ACCESS: 74111  HIT: 74108  MISS:     3  HIT %: 99.996  MISS %: 0.00404798  AVERAGE MISS PENALTY: 0
LLC0 PREFETCH  REQUESTED:     0  ISSUED:     0  USEFUL:  2172  USELESS: 34058
 USEFUL LOAD PREFETCHES:       2172 PREFETCH ISSUED TO LOWER LEVEL:      37142  ACCURACY: 5.84783
 TIMELY PREFETCHES:       2172 LATE PREFETCHES: 0 DROPPED PREFETCHES: 0
LLC0 AVERAGE MISS LATENCY: 174.176 cycles
Deadblocks : 8324 Deadblock percentage : 98.3343

LLC1 TOTAL     ACCESS: 4234339  HIT: 4143711  MISS: 90628  HIT %: 97.8597  MISS %: 2.14031  AVERAGE MISS PENALTY: 175.213
LLC1 LOAD      ACCESS: 662883  HIT: 657381  MISS:  5502  HIT %: 99.17  MISS %: 0.830011  AVERAGE MISS PENALTY: 192.014
LLC1 RFO       ACCESS: 43474  HIT:    33  MISS: 43441  HIT %: 0.0759074  MISS %: 99.9241  AVERAGE MISS PENALTY: 171.297
LLC1 PREFETCH  ACCESS: 3453508  HIT: 3411834  MISS: 41674  HIT %: 98.7933  MISS %: 1.20672  AVERAGE MISS PENALTY: 177.124
LLC1 WRITEBACK ACCESS: 74474  HIT: 74463  MISS:    11  HIT %: 99.9852  MISS %: 0.0147703  AVERAGE MISS PENALTY: 0
LLC1 PREFETCH  REQUESTED:     0  ISSUED:     0  USEFUL:  2171  USELESS: 38119
 USEFUL LOAD PREFETCHES:       2171 PREFETCH ISSUED TO LOWER LEVEL:      41674  ACCURACY: 5.20948
 TIMELY PREFETCHES:       2171 LATE PREFETCHES: 0 DROPPED PREFETCHES: 0
LLC1 AVERAGE MISS LATENCY: 175.213 cycles
LLC2 TOTAL     ACCESS: 4230742  HIT: 4139153  MISS: 91589  HIT %: 97.8352  MISS %: 2.16484  AVERAGE MISS PENALTY: 175.64
LLC2 LOAD      ACCESS: 640526  HIT: 635768  MISS:  4758  HIT %: 99.2572  MISS %: 0.742827  AVERAGE MISS PENALTY: 183.187
LLC2 RFO       ACCESS: 43656  HIT:    35  MISS: 43621  HIT %: 0.0801723  MISS %: 99.9198  AVERAGE MISS PENALTY: 171.91
LLC2 PREFETCH  ACCESS: 3471325  HIT: 3428119  MISS: 43206  HIT %: 98.7553  MISS %: 1.24465  AVERAGE MISS PENALTY: 178.591
LLC2 WRITEBACK ACCESS: 75235  HIT: 75231  MISS:     4  HIT %: 99.9947  MISS %: 0.00531667  AVERAGE MISS PENALTY: 0
LLC2 PREFETCH  REQUESTED:     0  ISSUED:     0  USEFUL:  2215  USELESS: 39663
 USEFUL LOAD PREFETCHES:       2215 PREFETCH ISSUED TO LOWER LEVEL:      43206  ACCURACY: 5.1266
 TIMELY PREFETCHES:       2215 LATE PREFETCHES: 0 DROPPED PREFETCHES: 0
LLC2 AVERAGE MISS LATENCY: 175.64 cycles
LLC3 TOTAL     ACCESS: 4226675  HIT: 4135070  MISS: 91605  HIT %: 97.8327  MISS %: 2.16731  AVERAGE MISS PENALTY: 175.481
LLC3 LOAD      ACCESS: 737663  HIT: 732774  MISS:  4889  HIT %: 99.3372  MISS %: 0.662769  AVERAGE MISS PENALTY: 178.483
LLC3 RFO       ACCESS: 43377  HIT:    27  MISS: 43350  HIT %: 0.062245  MISS %: 99.9378  AVERAGE MISS PENALTY: 171.748
LLC3 PREFETCH  ACCESS: 3370404  HIT: 3327045  MISS: 43359  HIT %: 98.7135  MISS %: 1.28646  AVERAGE MISS PENALTY: 178.903
LLC3 WRITEBACK ACCESS: 75231  HIT: 75224  MISS:     7  HIT %: 99.9907  MISS %: 0.00930467  AVERAGE MISS PENALTY: 0
LLC3 PREFETCH  REQUESTED:     0  ISSUED:     0  USEFUL:  2131  USELESS: 39348
 USEFUL LOAD PREFETCHES:       2131 PREFETCH ISSUED TO LOWER LEVEL:      43359  ACCURACY: 4.91478
 TIMELY PREFETCHES:       2131 LATE PREFETCHES: 0 DROPPED PREFETCHES: 0
LLC3 AVERAGE MISS LATENCY: 175.481 cycles
LLC4 TOTAL     ACCESS: 4220013  HIT: 4128629  MISS: 91384  HIT %: 97.8345  MISS %: 2.16549  AVERAGE MISS PENALTY: 174.976
LLC4 LOAD      ACCESS: 776752  HIT: 772111  MISS:  4641  HIT %: 99.4025  MISS %: 0.597488  AVERAGE MISS PENALTY: 178.87
LLC4 RFO       ACCESS: 43653  HIT:    46  MISS: 43607  HIT %: 0.105376  MISS %: 99.8946  AVERAGE MISS PENALTY: 170.948
LLC4 PREFETCH  ACCESS: 3325973  HIT: 3282851  MISS: 43122  HIT %: 98.7035  MISS %: 1.29652  AVERAGE MISS PENALTY: 178.686
LLC4 WRITEBACK ACCESS: 73635  HIT: 73621  MISS:    14  HIT %: 99.981  MISS %: 0.0190127  AVERAGE MISS PENALTY: 0
LLC4 PREFETCH  REQUESTED:     0  ISSUED:     0  USEFUL:  2128  USELESS: 38771
 USEFUL LOAD PREFETCHES:       2128 PREFETCH ISSUED TO LOWER LEVEL:      43122  ACCURACY: 4.93484
 TIMELY PREFETCHES:       2128 LATE PREFETCHES: 0 DROPPED PREFETCHES: 0
LLC4 AVERAGE MISS LATENCY: 174.976 cycles
LLC5 TOTAL     ACCESS: 4207931  HIT: 4117092  MISS: 90839  HIT %: 97.8412  MISS %: 2.15876  AVERAGE MISS PENALTY: 175.085
LLC5 LOAD      ACCESS: 822416  HIT: 817710  MISS:  4706  HIT %: 99.4278  MISS %: 0.572216  AVERAGE MISS PENALTY: 178.846
LLC5 RFO       ACCESS: 44193  HIT:   771  MISS: 43422  HIT %: 1.74462  MISS %: 98.2554  AVERAGE MISS PENALTY: 171.625
LLC5 PREFETCH  ACCESS: 3267259  HIT: 3224553  MISS: 42706  HIT %: 98.6929  MISS %: 1.30709  AVERAGE MISS PENALTY: 178.209
LLC5 WRITEBACK ACCESS: 74063  HIT: 74058  MISS:     5  HIT %: 99.9932  MISS %: 0.00675101  AVERAGE MISS PENALTY: 0
LLC5 PREFETCH  REQUESTED:     0  ISSUED:     0  USEFUL:  1993  USELESS: 38085
 USEFUL LOAD PREFETCHES:       1993 PREFETCH ISSUED TO LOWER LEVEL:      42706  ACCURACY: 4.66679
 TIMELY PREFETCHES:       1993 LATE PREFETCHES: 0 DROPPED PREFETCHES: 0
LLC5 AVERAGE MISS LATENCY: 175.085 cycles
LLC6 TOTAL     ACCESS: 4201951  HIT: 4112476  MISS: 89475  HIT %: 97.8706  MISS %: 2.12937  AVERAGE MISS PENALTY: 177.719
LLC6 LOAD      ACCESS: 912669  HIT: 908190  MISS:  4479  HIT %: 99.5092  MISS %: 0.490758  AVERAGE MISS PENALTY: 183.743
LLC6 RFO       ACCESS: 44490  HIT:   770  MISS: 43720  HIT %: 1.73073  MISS %: 98.2693  AVERAGE MISS PENALTY: 174.343
LLC6 PREFETCH  ACCESS: 3169129  HIT: 3127862  MISS: 41267  HIT %: 98.6978  MISS %: 1.30216  AVERAGE MISS PENALTY: 180.68
LLC6 WRITEBACK ACCESS: 75663  HIT: 75654  MISS:     9  HIT %: 99.9881  MISS %: 0.0118948  AVERAGE MISS PENALTY: 0
LLC6 PREFETCH  REQUESTED:     0  ISSUED:     0  USEFUL:  1921  USELESS: 36276
 USEFUL LOAD PREFETCHES:       1921 PREFETCH ISSUED TO LOWER LEVEL:      41267  ACCURACY: 4.65505
 TIMELY PREFETCHES:       1921 LATE PREFETCHES: 0 DROPPED PREFETCHES: 0
LLC6 AVERAGE MISS LATENCY: 177.719 cycles
LLC7 TOTAL     ACCESS: 4189871  HIT: 4100893  MISS: 88978  HIT %: 97.8764  MISS %: 2.12365  AVERAGE MISS PENALTY: 177.909
LLC7 LOAD      ACCESS: 1027090  HIT: 1022001  MISS:  5089  HIT %: 99.5045  MISS %: 0.495478  AVERAGE MISS PENALTY: 178.655
LLC7 RFO       ACCESS: 44120  HIT:   777  MISS: 43343  HIT %: 1.76111  MISS %: 98.2389  AVERAGE MISS PENALTY: 174.036
LLC7 PREFETCH  ACCESS: 3042964  HIT: 3002439  MISS: 40525  HIT %: 98.6682  MISS %: 1.33176  AVERAGE MISS PENALTY: 182.05
LLC7 WRITEBACK ACCESS: 75697  HIT: 75676  MISS:    21  HIT %: 99.9723  MISS %: 0.0277422  AVERAGE MISS PENALTY: 0
LLC7 PREFETCH  REQUESTED:     0  ISSUED:     0  USEFUL:  2039  USELESS: 34635
 USEFUL LOAD PREFETCHES:       2039 PREFETCH ISSUED TO LOWER LEVEL:      40525  ACCURACY: 5.03146
 TIMELY PREFETCHES:       2039 LATE PREFETCHES: 0 DROPPED PREFETCHES: 0
LLC7 AVERAGE MISS LATENCY: 177.909 cycles
ROI Average ROB Stall Cycles:	5.33632
ROI Total ROB Stalls Cycles:	269814672
ROI TOTAL ROB counter      :	50561967
ROI Average Load ROB Stall Cycles:	14.6888
ROI Total Load ROB Stalls Cycle  :	101211238
ROI Total Load ROB stalls Counter:	6890371
Major fault: 0 Minor fault: 25655

