
*** ChampSim Multicore Out-of-Order Simulator ***

Warmup Instructions: 200000000
Simulation Instructions: 200000000
Number of CPUs: 1
threads:1

L1I Configuration:
L1I_SET:64
L1I_WAY:8
L1I_RQ_SIZE:64
L1I_WQ_SIZE:64
L1I_PQ_SIZE:8
L1I_MSHR_SIZE:8

L1D Configuration:
L1D_SET:64
L1D_WAY:12
L1D_RQ_SIZE:64
L1D_WQ_SIZE:64
L1D_PQ_SIZE:8
L1D_MSHR_SIZE:16

L2C Configuration:
L2C_SET:1024
L2C_WAY:8
L2C_RQ_SIZE:32
L2C_WQ_SIZE:32
L2C_PQ_SIZE:16
L2C_MSHR_SIZE:32

LLC Configuration:
LLC_SET:4096
LLC_WAY:16
LLC SLICES:8
LLC_RQ_SIZE:64
LLC_WQ_SIZE:64
LLC_PQ_SIZE:32
LLC_MSHR_SIZE:64

Interconnect OFF
Attacker deprioritize is: OFF
Off-chip DRAM Size: 4096 MB Channels: 1 Width: 64-bit Data Rate: 3200 MT/s
PAGE SIZE in KB: 4.000000 
PAGE SIZE in MB: 0.003906 
PAGE offset in bits: 12 
CEASER-S_LLC:0
MIRAGE : 0
CEASER_LATENCY:3
REMAP : OFF
Partitions : 1
Multi-Step : OFF
BFS : OFF

CPU 0 runs /home/anubhav/spec_2017/605.mcf_s-782B.champsimtrace.xz
CPU 0 Bimodal branch predictor
Initialize Hawkeye state
Initialize Hawkeye state
Initialize Hawkeye state
Initialize Hawkeye state
Initialize Hawkeye state
Initialize Hawkeye state
Initialize Hawkeye state
Initialize Hawkeye state
Heartbeat CPU 0 instructions: 10000000 cycles: 8714643 heartbeat IPC: 1.14749 cumulative IPC: 1.14749 (Simulation time: 0 hr 1 min 46 sec) 
 Total Blocks : 524288 Invalid Blocks : 175755
Heartbeat CPU 0 instructions: 20000003 cycles: 17025133 heartbeat IPC: 1.2033 cumulative IPC: 1.17473 (Simulation time: 0 hr 4 min 41 sec) 
 Total Blocks : 524288 Invalid Blocks : 86330
Heartbeat CPU 0 instructions: 30000000 cycles: 25725494 heartbeat IPC: 1.14938 cumulative IPC: 1.16616 (Simulation time: 0 hr 9 min 22 sec) 
 Total Blocks : 524288 Invalid Blocks : 52439
Heartbeat CPU 0 instructions: 40000001 cycles: 34264825 heartbeat IPC: 1.17105 cumulative IPC: 1.16738 (Simulation time: 0 hr 16 min 5 sec) 
 Total Blocks : 524288 Invalid Blocks : 37838
Heartbeat CPU 0 instructions: 50000000 cycles: 42901868 heartbeat IPC: 1.1578 cumulative IPC: 1.16545 (Simulation time: 0 hr 24 min 1 sec) 
 Total Blocks : 524288 Invalid Blocks : 30722
Heartbeat CPU 0 instructions: 60000002 cycles: 51232084 heartbeat IPC: 1.20045 cumulative IPC: 1.17114 (Simulation time: 0 hr 33 min 31 sec) 
 Total Blocks : 524288 Invalid Blocks : 26332
Heartbeat CPU 0 instructions: 70000001 cycles: 59581335 heartbeat IPC: 1.19771 cumulative IPC: 1.17486 (Simulation time: 0 hr 43 min 47 sec) 
 Total Blocks : 524288 Invalid Blocks : 23407
Heartbeat CPU 0 instructions: 80000001 cycles: 68016144 heartbeat IPC: 1.18556 cumulative IPC: 1.17619 (Simulation time: 0 hr 54 min 43 sec) 
 Total Blocks : 524288 Invalid Blocks : 21271
Heartbeat CPU 0 instructions: 90000002 cycles: 76770200 heartbeat IPC: 1.14233 cumulative IPC: 1.17233 (Simulation time: 1 hr 7 min 47 sec) 
 Total Blocks : 524288 Invalid Blocks : 19490
Heartbeat CPU 0 instructions: 100000000 cycles: 85688383 heartbeat IPC: 1.1213 cumulative IPC: 1.16702 (Simulation time: 1 hr 20 min 57 sec) 
 Total Blocks : 524288 Invalid Blocks : 18108
Heartbeat CPU 0 instructions: 110000000 cycles: 94791214 heartbeat IPC: 1.09856 cumulative IPC: 1.16045 (Simulation time: 1 hr 35 min 38 sec) 
 Total Blocks : 524288 Invalid Blocks : 16914
Heartbeat CPU 0 instructions: 120000003 cycles: 103713409 heartbeat IPC: 1.1208 cumulative IPC: 1.15703 (Simulation time: 1 hr 49 min 38 sec) 
 Total Blocks : 524288 Invalid Blocks : 15847
Heartbeat CPU 0 instructions: 130000002 cycles: 112078759 heartbeat IPC: 1.19541 cumulative IPC: 1.1599 (Simulation time: 2 hr 5 min 3 sec) 
 Total Blocks : 524288 Invalid Blocks : 14898
Heartbeat CPU 0 instructions: 140000000 cycles: 120418408 heartbeat IPC: 1.19909 cumulative IPC: 1.16261 (Simulation time: 2 hr 19 min 40 sec) 
 Total Blocks : 524288 Invalid Blocks : 14172
Heartbeat CPU 0 instructions: 150000003 cycles: 128853786 heartbeat IPC: 1.18548 cumulative IPC: 1.16411 (Simulation time: 2 hr 33 min 16 sec) 
 Total Blocks : 524288 Invalid Blocks : 13598
Heartbeat CPU 0 instructions: 160000001 cycles: 137279001 heartbeat IPC: 1.18691 cumulative IPC: 1.16551 (Simulation time: 2 hr 46 min 10 sec) 
 Total Blocks : 524288 Invalid Blocks : 12869
Heartbeat CPU 0 instructions: 170000000 cycles: 145684769 heartbeat IPC: 1.18966 cumulative IPC: 1.1669 (Simulation time: 2 hr 58 min 22 sec) 
 Total Blocks : 524288 Invalid Blocks : 12276
Heartbeat CPU 0 instructions: 180000001 cycles: 154038700 heartbeat IPC: 1.19704 cumulative IPC: 1.16854 (Simulation time: 3 hr 8 min 31 sec) 
 Total Blocks : 524288 Invalid Blocks : 11830
Heartbeat CPU 0 instructions: 190000000 cycles: 162866554 heartbeat IPC: 1.13278 cumulative IPC: 1.1666 (Simulation time: 3 hr 19 min 18 sec) 
 Total Blocks : 524288 Invalid Blocks : 11393
Heartbeat CPU 0 instructions: 200000001 cycles: 171732753 heartbeat IPC: 1.12788 cumulative IPC: 1.1646 (Simulation time: 3 hr 30 min 37 sec) 
 Total Blocks : 524288 Invalid Blocks : 10921

Warmup complete CPU 0 instructions: 200000001 cycles: 171732753 (Simulation time: 3 hr 30 min 37 sec) 

Heartbeat CPU 0 instructions: 210000002 cycles: 209013075 heartbeat IPC: 0.268238 cumulative IPC: 0.268238 (Simulation time: 3 hr 43 min 29 sec) 
 Total Blocks : 524288 Invalid Blocks : 10269
Heartbeat CPU 0 instructions: 220000000 cycles: 246012216 heartbeat IPC: 0.270276 cumulative IPC: 0.269253 (Simulation time: 3 hr 56 min 37 sec) 
 Total Blocks : 524288 Invalid Blocks : 9744
Heartbeat CPU 0 instructions: 230000000 cycles: 282999513 heartbeat IPC: 0.270363 cumulative IPC: 0.269622 (Simulation time: 4 hr 10 min 32 sec) 
 Total Blocks : 524288 Invalid Blocks : 9294
Heartbeat CPU 0 instructions: 240000000 cycles: 320068649 heartbeat IPC: 0.269766 cumulative IPC: 0.269658 (Simulation time: 4 hr 24 min 39 sec) 
 Total Blocks : 524288 Invalid Blocks : 8881
Heartbeat CPU 0 instructions: 250000002 cycles: 356742120 heartbeat IPC: 0.272677 cumulative IPC: 0.270257 (Simulation time: 4 hr 38 min 56 sec) 
 Total Blocks : 524288 Invalid Blocks : 8574
Heartbeat CPU 0 instructions: 260000001 cycles: 392766059 heartbeat IPC: 0.277593 cumulative IPC: 0.271452 (Simulation time: 4 hr 53 min 22 sec) 
 Total Blocks : 524288 Invalid Blocks : 8288
Heartbeat CPU 0 instructions: 270000001 cycles: 427890697 heartbeat IPC: 0.2847 cumulative IPC: 0.273269 (Simulation time: 5 hr 8 min 21 sec) 
 Total Blocks : 524288 Invalid Blocks : 7999
Heartbeat CPU 0 instructions: 280000000 cycles: 464032749 heartbeat IPC: 0.276686 cumulative IPC: 0.273691 (Simulation time: 5 hr 23 min 3 sec) 
 Total Blocks : 524288 Invalid Blocks : 7719
Heartbeat CPU 0 instructions: 290000001 cycles: 499209339 heartbeat IPC: 0.28428 cumulative IPC: 0.274829 (Simulation time: 5 hr 38 min 49 sec) 
 Total Blocks : 524288 Invalid Blocks : 7471
Heartbeat CPU 0 instructions: 300000000 cycles: 534901787 heartbeat IPC: 0.280171 cumulative IPC: 0.275354 (Simulation time: 5 hr 54 min 14 sec) 
 Total Blocks : 524288 Invalid Blocks : 7231
Heartbeat CPU 0 instructions: 310000001 cycles: 570212334 heartbeat IPC: 0.283202 cumulative IPC: 0.276049 (Simulation time: 6 hr 9 min 49 sec) 
 Total Blocks : 524288 Invalid Blocks : 7033
Heartbeat CPU 0 instructions: 320000001 cycles: 604678878 heartbeat IPC: 0.290136 cumulative IPC: 0.277171 (Simulation time: 6 hr 26 min 27 sec) 
 Total Blocks : 524288 Invalid Blocks : 6808
Heartbeat CPU 0 instructions: 330000000 cycles: 639377691 heartbeat IPC: 0.288194 cumulative IPC: 0.277989 (Simulation time: 6 hr 43 min 31 sec) 
 Total Blocks : 524288 Invalid Blocks : 6594
Heartbeat CPU 0 instructions: 340000000 cycles: 675719631 heartbeat IPC: 0.275164 cumulative IPC: 0.277785 (Simulation time: 7 hr 0 min 31 sec) 
 Total Blocks : 524288 Invalid Blocks : 6410
Heartbeat CPU 0 instructions: 350000000 cycles: 710924408 heartbeat IPC: 0.284052 cumulative IPC: 0.278194 (Simulation time: 7 hr 18 min 33 sec) 
 Total Blocks : 524288 Invalid Blocks : 6222
Heartbeat CPU 0 instructions: 360000000 cycles: 745825355 heartbeat IPC: 0.286525 cumulative IPC: 0.278701 (Simulation time: 7 hr 37 min 6 sec) 
 Total Blocks : 524288 Invalid Blocks : 6035
Heartbeat CPU 0 instructions: 370000001 cycles: 780821702 heartbeat IPC: 0.285744 cumulative IPC: 0.279105 (Simulation time: 7 hr 55 min 37 sec) 
 Total Blocks : 524288 Invalid Blocks : 5875
Heartbeat CPU 0 instructions: 380000002 cycles: 817940835 heartbeat IPC: 0.269403 cumulative IPC: 0.278548 (Simulation time: 8 hr 14 min 2 sec) 
 Total Blocks : 524288 Invalid Blocks : 5684
Heartbeat CPU 0 instructions: 390000001 cycles: 855066830 heartbeat IPC: 0.269353 cumulative IPC: 0.278048 (Simulation time: 8 hr 31 min 46 sec) 
 Total Blocks : 524288 Invalid Blocks : 5563
Heartbeat CPU 0 instructions: 400000000 cycles: 889366417 heartbeat IPC: 0.291549 cumulative IPC: 0.278694 (Simulation time: 8 hr 49 min 21 sec) 
 Total Blocks : 524288 Invalid Blocks : 5460
Finished CPU 0 instructions: 200000002 cycles: 717633666 cumulative IPC: 0.278694 (Simulation time: 8 hr 49 min 21 sec) 

CPU 0 Branch Prediction Accuracy: 96.2028% MPKI: 11.179 Average ROB Occupancy at Mispredict: 70.5261

ChampSim completed all CPUs

Region of Interest Statistics

CPU 0 cumulative IPC: 0.278694 instructions: 200000002 cycles: 717633666
ITLB TOTAL     ACCESS: 29977588  HIT: 29977588  MISS:     0  HIT %:   100  MISS %:     0  AVERAGE MISS PENALTY: 0
ITLB LOAD      ACCESS: 29977588  HIT: 29977588  MISS:     0  HIT %:   100  MISS %:     0  AVERAGE MISS PENALTY: 0
ITLB RFO       ACCESS:     0  HIT:     0  MISS:     0  HIT %:     0  MISS %:     0  AVERAGE MISS PENALTY: 0
ITLB PREFETCH  ACCESS:     0  HIT:     0  MISS:     0  HIT %:     0  MISS %:     0  AVERAGE MISS PENALTY: 0
ITLB WRITEBACK ACCESS:     0  HIT:     0  MISS:     0  HIT %:     0  MISS %:     0  AVERAGE MISS PENALTY: 0
ITLB PREFETCH  REQUESTED:     0  ISSUED:     0  USEFUL:     0  USELESS:     0
 USEFUL LOAD PREFETCHES:          0 PREFETCH ISSUED TO LOWER LEVEL:          0  ACCURACY: -nan
 TIMELY PREFETCHES:          0 LATE PREFETCHES: 0 DROPPED PREFETCHES: 0
ITLB AVERAGE MISS LATENCY: -nan cycles
DTLB TOTAL     ACCESS: 41074331  HIT: 23900903  MISS: 17173428  HIT %: 58.1894  MISS %: 41.8106  AVERAGE MISS PENALTY: 11.0519
DTLB LOAD      ACCESS: 38466625  HIT: 21405844  MISS: 17060781  HIT %: 55.6478  MISS %: 44.3522  AVERAGE MISS PENALTY: 11.0421
DTLB RFO       ACCESS: 2607706  HIT: 2495059  MISS: 112647  HIT %: 95.6802  MISS %: 4.31977  AVERAGE MISS PENALTY: 12.5425
DTLB PREFETCH  ACCESS:     0  HIT:     0  MISS:     0  HIT %:     0  MISS %:     0  AVERAGE MISS PENALTY: 0
DTLB WRITEBACK ACCESS:     0  HIT:     0  MISS:     0  HIT %:     0  MISS %:     0  AVERAGE MISS PENALTY: 0
DTLB PREFETCH  REQUESTED:     0  ISSUED:     0  USEFUL:     0  USELESS:     0
 USEFUL LOAD PREFETCHES:          0 PREFETCH ISSUED TO LOWER LEVEL:          0  ACCURACY: -nan
 TIMELY PREFETCHES:          0 LATE PREFETCHES: 0 DROPPED PREFETCHES: 0
DTLB AVERAGE MISS LATENCY: 11.0519 cycles
STLB TOTAL     ACCESS: 17173428  HIT: 16933565  MISS: 239863  HIT %: 98.6033  MISS %: 1.39671  AVERAGE MISS PENALTY: 100
STLB LOAD      ACCESS: 17060781  HIT: 16824668  MISS: 236113  HIT %: 98.616  MISS %: 1.38395  AVERAGE MISS PENALTY: 100
STLB RFO       ACCESS: 112647  HIT: 108897  MISS:  3750  HIT %: 96.671  MISS %: 3.32898  AVERAGE MISS PENALTY: 100
STLB PREFETCH  ACCESS:     0  HIT:     0  MISS:     0  HIT %:     0  MISS %:     0  AVERAGE MISS PENALTY: 0
STLB WRITEBACK ACCESS:     0  HIT:     0  MISS:     0  HIT %:     0  MISS %:     0  AVERAGE MISS PENALTY: 0
STLB PREFETCH  REQUESTED:     0  ISSUED:     0  USEFUL:     0  USELESS:     0
 USEFUL LOAD PREFETCHES:          0 PREFETCH ISSUED TO LOWER LEVEL:          0  ACCURACY: -nan
 TIMELY PREFETCHES:          0 LATE PREFETCHES: 0 DROPPED PREFETCHES: 0
STLB AVERAGE MISS LATENCY: 100 cycles
L1D TOTAL     ACCESS: 82938068  HIT: 50257762  MISS: 32680306  HIT %: 60.5967  MISS %: 39.4033  AVERAGE MISS PENALTY: 2.24443e+07
L1D LOAD      ACCESS: 43368997  HIT: 22363299  MISS: 21005698  HIT %: 51.5652  MISS %: 48.4348  AVERAGE MISS PENALTY: 3.49168e+07
L1D RFO       ACCESS: 3841916  HIT: 3760950  MISS: 80966  HIT %: 97.8926  MISS %: 2.10744  AVERAGE MISS PENALTY: 394553
L1D PREFETCH  ACCESS: 35727155  HIT: 24133513  MISS: 11593642  HIT %: 67.5495  MISS %: 32.4505  AVERAGE MISS PENALTY: 90.4405
L1D WRITEBACK ACCESS:     0  HIT:     0  MISS:     0  HIT %:     0  MISS %:     0  AVERAGE MISS PENALTY: 0
L1D PREFETCH  REQUESTED: 76404695  ISSUED: 70070797  USEFUL: 9068652  USELESS: 2525050
 USEFUL LOAD PREFETCHES:    9068652 PREFETCH ISSUED TO LOWER LEVEL:   23852764  ACCURACY: 38.0193
 TIMELY PREFETCHES:    9068652 LATE PREFETCHES: 2495563 DROPPED PREFETCHES: 6333898
L1D AVERAGE MISS LATENCY: 1037.81 cycles
L1I TOTAL     ACCESS: 32200523  HIT: 32200523  MISS:     0  HIT %:   100  MISS %:     0  AVERAGE MISS PENALTY: 0
L1I LOAD      ACCESS: 32200523  HIT: 32200523  MISS:     0  HIT %:   100  MISS %:     0  AVERAGE MISS PENALTY: 0
L1I RFO       ACCESS:     0  HIT:     0  MISS:     0  HIT %:     0  MISS %:     0  AVERAGE MISS PENALTY: 0
L1I PREFETCH  ACCESS:     0  HIT:     0  MISS:     0  HIT %:     0  MISS %:     0  AVERAGE MISS PENALTY: 0
L1I WRITEBACK ACCESS:     0  HIT:     0  MISS:     0  HIT %:     0  MISS %:     0  AVERAGE MISS PENALTY: 0
L1I PREFETCH  REQUESTED:     0  ISSUED:     0  USEFUL:     0  USELESS:     0
 USEFUL LOAD PREFETCHES:          0 PREFETCH ISSUED TO LOWER LEVEL:          0  ACCURACY: -nan
 TIMELY PREFETCHES:          0 LATE PREFETCHES: 0 DROPPED PREFETCHES: 0
L1I AVERAGE MISS LATENCY: -nan cycles
L2C TOTAL     ACCESS: 42250476  HIT: 12026201  MISS: 30224275  HIT %: 28.4641  MISS %: 71.5359  AVERAGE MISS PENALTY: 8.95143e+06
L2C LOAD      ACCESS: 20718922  HIT: 3383083  MISS: 17335839  HIT %: 16.3285  MISS %: 83.6715  AVERAGE MISS PENALTY: 1.56058e+07
L2C RFO       ACCESS: 80909  HIT: 11554  MISS: 69355  HIT %: 14.2802  MISS %: 85.7198  AVERAGE MISS PENALTY: 137233
L2C PREFETCH  ACCESS: 20873025  HIT: 8053981  MISS: 12819044  HIT %: 38.5856  MISS %: 61.4144  AVERAGE MISS PENALTY: 129.334
L2C WRITEBACK ACCESS: 577620  HIT: 577583  MISS:    37  HIT %: 99.9936  MISS %: 0.0064056  AVERAGE MISS PENALTY: 0
L2C PREFETCH  REQUESTED: 33519534  ISSUED: 33497879  USEFUL: 573847  USELESS: 12246044
 USEFUL LOAD PREFETCHES:     573847 PREFETCH ISSUED TO LOWER LEVEL:   17113460  ACCURACY: 3.35319
 TIMELY PREFETCHES:     573847 LATE PREFETCHES: 1162410 DROPPED PREFETCHES: 21655
L2C AVERAGE MISS LATENCY: 74.7398 cycles
LLC0 TOTAL     ACCESS: 3820101  HIT: 2371034  MISS: 1449067  HIT %: 62.0673  MISS %: 37.9327  AVERAGE MISS PENALTY: 107.41
LLC0 LOAD      ACCESS: 2230953  HIT: 1987230  MISS: 243723  HIT %: 89.0754  MISS %: 10.9246  AVERAGE MISS PENALTY: 115.655
LLC0 RFO       ACCESS:  9365  HIT:  9044  MISS:   321  HIT %: 96.5723  MISS %: 3.42766  AVERAGE MISS PENALTY: 172.452
LLC0 PREFETCH  ACCESS: 1510828  HIT: 305889  MISS: 1204939  HIT %: 20.2464  MISS %: 79.7536  AVERAGE MISS PENALTY: 105.732
LLC0 WRITEBACK ACCESS: 68955  HIT: 68871  MISS:    84  HIT %: 99.8782  MISS %: 0.121819  AVERAGE MISS PENALTY: 0
LLC0 PREFETCH  REQUESTED:     0  ISSUED:     0  USEFUL: 11264  USELESS: 1193532
 USEFUL LOAD PREFETCHES:      11264 PREFETCH ISSUED TO LOWER LEVEL:    1204940  ACCURACY: 0.934818
 TIMELY PREFETCHES:      11264 LATE PREFETCHES: 0 DROPPED PREFETCHES: 0
LLC0 AVERAGE MISS LATENCY: 107.41 cycles
Deadblocks : 235509 Deadblock percentage : 96.6298

LLC1 TOTAL     ACCESS: 3836686  HIT: 2377935  MISS: 1458751  HIT %: 61.9789  MISS %: 38.0211  AVERAGE MISS PENALTY: 109.438
LLC1 LOAD      ACCESS: 2184380  HIT: 1981777  MISS: 202603  HIT %: 90.7249  MISS %: 9.27508  AVERAGE MISS PENALTY: 125.538
LLC1 RFO       ACCESS:  8876  HIT:  8572  MISS:   304  HIT %: 96.575  MISS %: 3.42497  AVERAGE MISS PENALTY: 170.78
LLC1 PREFETCH  ACCESS: 1579986  HIT: 324184  MISS: 1255802  HIT %: 20.5182  MISS %: 79.4818  AVERAGE MISS PENALTY: 106.829
LLC1 WRITEBACK ACCESS: 63444  HIT: 63402  MISS:    42  HIT %: 99.9338  MISS %: 0.0662001  AVERAGE MISS PENALTY: 0
LLC1 PREFETCH  REQUESTED:     0  ISSUED:     0  USEFUL: 12364  USELESS: 1246306
 USEFUL LOAD PREFETCHES:      12364 PREFETCH ISSUED TO LOWER LEVEL:    1255804  ACCURACY: 0.984549
 TIMELY PREFETCHES:      12364 LATE PREFETCHES: 0 DROPPED PREFETCHES: 0
LLC1 AVERAGE MISS LATENCY: 109.438 cycles
LLC2 TOTAL     ACCESS: 3869994  HIT: 2407939  MISS: 1462055  HIT %: 62.2207  MISS %: 37.7793  AVERAGE MISS PENALTY: 110.809
LLC2 LOAD      ACCESS: 2167304  HIT: 1995615  MISS: 171689  HIT %: 92.0782  MISS %: 7.92178  AVERAGE MISS PENALTY: 133.925
LLC2 RFO       ACCESS:  9530  HIT:  9182  MISS:   348  HIT %: 96.3484  MISS %: 3.65163  AVERAGE MISS PENALTY: 173.526
LLC2 PREFETCH  ACCESS: 1625317  HIT: 335329  MISS: 1289988  HIT %: 20.6316  MISS %: 79.3684  AVERAGE MISS PENALTY: 107.718
LLC2 WRITEBACK ACCESS: 67843  HIT: 67813  MISS:    30  HIT %: 99.9558  MISS %: 0.0442197  AVERAGE MISS PENALTY: 0
LLC2 PREFETCH  REQUESTED:     0  ISSUED:     0  USEFUL: 12957  USELESS: 1279518
 USEFUL LOAD PREFETCHES:      12957 PREFETCH ISSUED TO LOWER LEVEL:    1289989  ACCURACY: 1.00443
 TIMELY PREFETCHES:      12957 LATE PREFETCHES: 0 DROPPED PREFETCHES: 0
LLC2 AVERAGE MISS LATENCY: 110.809 cycles
LLC3 TOTAL     ACCESS: 3843375  HIT: 2382379  MISS: 1460996  HIT %: 61.9866  MISS %: 38.0134  AVERAGE MISS PENALTY: 108.947
LLC3 LOAD      ACCESS: 2094823  HIT: 1948875  MISS: 145948  HIT %: 93.0329  MISS %: 6.96708  AVERAGE MISS PENALTY: 140.203
LLC3 RFO       ACCESS:  8555  HIT:  8225  MISS:   330  HIT %: 96.1426  MISS %: 3.85739  AVERAGE MISS PENALTY: 173.545
LLC3 PREFETCH  ACCESS: 1664195  HIT: 349516  MISS: 1314679  HIT %: 21.0021  MISS %: 78.9979  AVERAGE MISS PENALTY: 105.465
LLC3 WRITEBACK ACCESS: 75802  HIT: 75763  MISS:    39  HIT %: 99.9486  MISS %: 0.0514498  AVERAGE MISS PENALTY: 0
LLC3 PREFETCH  REQUESTED:     0  ISSUED:     0  USEFUL: 13020  USELESS: 1303527
 USEFUL LOAD PREFETCHES:      13020 PREFETCH ISSUED TO LOWER LEVEL:    1314679  ACCURACY: 0.990356
 TIMELY PREFETCHES:      13020 LATE PREFETCHES: 0 DROPPED PREFETCHES: 0
LLC3 AVERAGE MISS LATENCY: 108.947 cycles
LLC4 TOTAL     ACCESS: 3861110  HIT: 2403108  MISS: 1458002  HIT %: 62.2388  MISS %: 37.7612  AVERAGE MISS PENALTY: 107.063
LLC4 LOAD      ACCESS: 2108447  HIT: 1983748  MISS: 124699  HIT %: 94.0857  MISS %: 5.91426  AVERAGE MISS PENALTY: 143.362
LLC4 RFO       ACCESS:  7777  HIT:  7467  MISS:   310  HIT %: 96.0139  MISS %: 3.98611  AVERAGE MISS PENALTY: 171.635
LLC4 PREFETCH  ACCESS: 1677659  HIT: 344694  MISS: 1332965  HIT %: 20.5461  MISS %: 79.4539  AVERAGE MISS PENALTY: 103.654
LLC4 WRITEBACK ACCESS: 67227  HIT: 67199  MISS:    28  HIT %: 99.9584  MISS %: 0.0416499  AVERAGE MISS PENALTY: 0
LLC4 PREFETCH  REQUESTED:     0  ISSUED:     0  USEFUL: 12837  USELESS: 1321390
 USEFUL LOAD PREFETCHES:      12837 PREFETCH ISSUED TO LOWER LEVEL:    1332965  ACCURACY: 0.963041
 TIMELY PREFETCHES:      12837 LATE PREFETCHES: 0 DROPPED PREFETCHES: 0
LLC4 AVERAGE MISS LATENCY: 107.063 cycles
LLC5 TOTAL     ACCESS: 3792353  HIT: 2337681  MISS: 1454672  HIT %: 61.642  MISS %: 38.358  AVERAGE MISS PENALTY: 105.895
LLC5 LOAD      ACCESS: 2024313  HIT: 1917480  MISS: 106833  HIT %: 94.7225  MISS %: 5.27749  AVERAGE MISS PENALTY: 146.434
LLC5 RFO       ACCESS:  8403  HIT:  8105  MISS:   298  HIT %: 96.4536  MISS %: 3.54635  AVERAGE MISS PENALTY: 174.463
LLC5 PREFETCH  ACCESS: 1694033  HIT: 346524  MISS: 1347509  HIT %: 20.4556  MISS %: 79.5444  AVERAGE MISS PENALTY: 102.668
LLC5 WRITEBACK ACCESS: 65604  HIT: 65572  MISS:    32  HIT %: 99.9512  MISS %: 0.0487775  AVERAGE MISS PENALTY: 0
LLC5 PREFETCH  REQUESTED:     0  ISSUED:     0  USEFUL: 13126  USELESS: 1334984
 USEFUL LOAD PREFETCHES:      13126 PREFETCH ISSUED TO LOWER LEVEL:    1347510  ACCURACY: 0.974093
 TIMELY PREFETCHES:      13126 LATE PREFETCHES: 0 DROPPED PREFETCHES: 0
LLC5 AVERAGE MISS LATENCY: 105.895 cycles
LLC6 TOTAL     ACCESS: 3873187  HIT: 2421591  MISS: 1451596  HIT %: 62.5219  MISS %: 37.4781  AVERAGE MISS PENALTY: 105.833
LLC6 LOAD      ACCESS: 2091947  HIT: 1997531  MISS: 94416  HIT %: 95.4867  MISS %: 4.51331  AVERAGE MISS PENALTY: 149.773
LLC6 RFO       ACCESS:  8170  HIT:  7829  MISS:   341  HIT %: 95.8262  MISS %: 4.17381  AVERAGE MISS PENALTY: 169.062
LLC6 PREFETCH  ACCESS: 1713176  HIT: 356376  MISS: 1356800  HIT %: 20.8021  MISS %: 79.1979  AVERAGE MISS PENALTY: 102.762
LLC6 WRITEBACK ACCESS: 59894  HIT: 59855  MISS:    39  HIT %: 99.9349  MISS %: 0.065115  AVERAGE MISS PENALTY: 0
LLC6 PREFETCH  REQUESTED:     0  ISSUED:     0  USEFUL: 12534  USELESS: 1344454
 USEFUL LOAD PREFETCHES:      12534 PREFETCH ISSUED TO LOWER LEVEL:    1356800  ACCURACY: 0.923791
 TIMELY PREFETCHES:      12534 LATE PREFETCHES: 0 DROPPED PREFETCHES: 0
LLC6 AVERAGE MISS LATENCY: 105.833 cycles
LLC7 TOTAL     ACCESS: 3865856  HIT: 2412489  MISS: 1453367  HIT %: 62.405  MISS %: 37.595  AVERAGE MISS PENALTY: 106.042
LLC7 LOAD      ACCESS: 2064702  HIT: 1979196  MISS: 85506  HIT %: 95.8587  MISS %: 4.14132  AVERAGE MISS PENALTY: 153.634
LLC7 RFO       ACCESS:  8664  HIT:  8354  MISS:   310  HIT %: 96.422  MISS %: 3.57802  AVERAGE MISS PENALTY: 172.11
LLC7 PREFETCH  ACCESS: 1722833  HIT: 355342  MISS: 1367491  HIT %: 20.6254  MISS %: 79.3746  AVERAGE MISS PENALTY: 103.056
LLC7 WRITEBACK ACCESS: 69657  HIT: 69597  MISS:    60  HIT %: 99.9139  MISS %: 0.0861364  AVERAGE MISS PENALTY: 0
LLC7 PREFETCH  REQUESTED:     0  ISSUED:     0  USEFUL: 12326  USELESS: 1354972
 USEFUL LOAD PREFETCHES:      12326 PREFETCH ISSUED TO LOWER LEVEL:    1367491  ACCURACY: 0.901359
 TIMELY PREFETCHES:      12326 LATE PREFETCHES: 0 DROPPED PREFETCHES: 0
LLC7 AVERAGE MISS LATENCY: 106.042 cycles
ROI Average ROB Stall Cycles:	8.70188
ROI Total ROB Stalls Cycles:	658088751
ROI TOTAL ROB counter      :	75626002
ROI Average Load ROB Stall Cycles:	25.6362
ROI Total Load ROB Stalls Cycle  :	233498368
ROI Total Load ROB stalls Counter:	9108151
Major fault: 0 Minor fault: 341292

