
*** ChampSim Multicore Out-of-Order Simulator ***

Warmup Instructions: 200000000
Simulation Instructions: 200000000
Number of CPUs: 1
threads:1

L1I Configuration:
L1I_SET:64
L1I_WAY:8
L1I_RQ_SIZE:64
L1I_WQ_SIZE:64
L1I_PQ_SIZE:8
L1I_MSHR_SIZE:8

L1D Configuration:
L1D_SET:64
L1D_WAY:12
L1D_RQ_SIZE:64
L1D_WQ_SIZE:64
L1D_PQ_SIZE:8
L1D_MSHR_SIZE:16

L2C Configuration:
L2C_SET:1024
L2C_WAY:8
L2C_RQ_SIZE:32
L2C_WQ_SIZE:32
L2C_PQ_SIZE:16
L2C_MSHR_SIZE:32

LLC Configuration:
LLC_SET:4096
LLC_WAY:16
LLC SLICES:8
LLC_RQ_SIZE:64
LLC_WQ_SIZE:64
LLC_PQ_SIZE:32
LLC_MSHR_SIZE:64

Interconnect OFF
Attacker deprioritize is: OFF
Off-chip DRAM Size: 4096 MB Channels: 1 Width: 64-bit Data Rate: 3200 MT/s
PAGE SIZE in KB: 4.000000 
PAGE SIZE in MB: 0.003906 
PAGE offset in bits: 12 
CEASER-S_LLC:0
MIRAGE : 0
CEASER_LATENCY:3
REMAP : OFF
Partitions : 1
Multi-Step : OFF
BFS : OFF

CPU 0 runs /home/anubhav/spec_2017/607.cactuBSSN_s-2421B.champsimtrace.xz
CPU 0 Bimodal branch predictor
Initialize Hawkeye state
Initialize Hawkeye state
Initialize Hawkeye state
Initialize Hawkeye state
Initialize Hawkeye state
Initialize Hawkeye state
Initialize Hawkeye state
Initialize Hawkeye state
Heartbeat CPU 0 instructions: 10000001 cycles: 5480292 heartbeat IPC: 1.82472 cumulative IPC: 1.82472 (Simulation time: 0 hr 1 min 48 sec) 
 Total Blocks : 524288 Invalid Blocks : 492027
Heartbeat CPU 0 instructions: 20000000 cycles: 10969926 heartbeat IPC: 1.82161 cumulative IPC: 1.82317 (Simulation time: 0 hr 4 min 21 sec) 
 Total Blocks : 524288 Invalid Blocks : 465833
Heartbeat CPU 0 instructions: 30000001 cycles: 16449158 heartbeat IPC: 1.82507 cumulative IPC: 1.8238 (Simulation time: 0 hr 7 min 18 sec) 
 Total Blocks : 524288 Invalid Blocks : 447798
Heartbeat CPU 0 instructions: 40000000 cycles: 21928839 heartbeat IPC: 1.82492 cumulative IPC: 1.82408 (Simulation time: 0 hr 10 min 59 sec) 
 Total Blocks : 524288 Invalid Blocks : 429065
Heartbeat CPU 0 instructions: 50000003 cycles: 27409066 heartbeat IPC: 1.82474 cumulative IPC: 1.82421 (Simulation time: 0 hr 14 min 47 sec) 
 Total Blocks : 524288 Invalid Blocks : 410558
Heartbeat CPU 0 instructions: 60000003 cycles: 31645561 heartbeat IPC: 2.36044 cumulative IPC: 1.896 (Simulation time: 0 hr 18 min 8 sec) 
 Total Blocks : 524288 Invalid Blocks : 374715
Heartbeat CPU 0 instructions: 70000000 cycles: 35522481 heartbeat IPC: 2.57937 cumulative IPC: 1.97058 (Simulation time: 0 hr 21 min 28 sec) 
 Total Blocks : 524288 Invalid Blocks : 348669
Heartbeat CPU 0 instructions: 80000002 cycles: 39399669 heartbeat IPC: 2.57919 cumulative IPC: 2.03047 (Simulation time: 0 hr 24 min 48 sec) 
 Total Blocks : 524288 Invalid Blocks : 324364
Heartbeat CPU 0 instructions: 90000003 cycles: 43279763 heartbeat IPC: 2.57726 cumulative IPC: 2.07949 (Simulation time: 0 hr 28 min 11 sec) 
 Total Blocks : 524288 Invalid Blocks : 303683
Heartbeat CPU 0 instructions: 100000001 cycles: 47158651 heartbeat IPC: 2.57806 cumulative IPC: 2.1205 (Simulation time: 0 hr 31 min 31 sec) 
 Total Blocks : 524288 Invalid Blocks : 283064
Heartbeat CPU 0 instructions: 110000000 cycles: 51036206 heartbeat IPC: 2.57894 cumulative IPC: 2.15533 (Simulation time: 0 hr 34 min 53 sec) 
 Total Blocks : 524288 Invalid Blocks : 261288
Heartbeat CPU 0 instructions: 120000000 cycles: 54912844 heartbeat IPC: 2.57955 cumulative IPC: 2.18528 (Simulation time: 0 hr 38 min 20 sec) 
 Total Blocks : 524288 Invalid Blocks : 240944
Heartbeat CPU 0 instructions: 130000001 cycles: 58790573 heartbeat IPC: 2.57883 cumulative IPC: 2.21124 (Simulation time: 0 hr 41 min 44 sec) 
 Total Blocks : 524288 Invalid Blocks : 222681
Heartbeat CPU 0 instructions: 140000002 cycles: 62670555 heartbeat IPC: 2.57733 cumulative IPC: 2.2339 (Simulation time: 0 hr 45 min 13 sec) 
 Total Blocks : 524288 Invalid Blocks : 206282
Heartbeat CPU 0 instructions: 150000000 cycles: 66548021 heartbeat IPC: 2.579 cumulative IPC: 2.25401 (Simulation time: 0 hr 48 min 35 sec) 
 Total Blocks : 524288 Invalid Blocks : 189536
Heartbeat CPU 0 instructions: 160000002 cycles: 70425409 heartbeat IPC: 2.57906 cumulative IPC: 2.27191 (Simulation time: 0 hr 51 min 51 sec) 
 Total Blocks : 524288 Invalid Blocks : 172400
Heartbeat CPU 0 instructions: 170000002 cycles: 74303175 heartbeat IPC: 2.5788 cumulative IPC: 2.28792 (Simulation time: 0 hr 55 min 7 sec) 
 Total Blocks : 524288 Invalid Blocks : 156967
Heartbeat CPU 0 instructions: 180000000 cycles: 78179922 heartbeat IPC: 2.57948 cumulative IPC: 2.30238 (Simulation time: 0 hr 58 min 26 sec) 
 Total Blocks : 524288 Invalid Blocks : 142705
Heartbeat CPU 0 instructions: 190000000 cycles: 82057180 heartbeat IPC: 2.57914 cumulative IPC: 2.31546 (Simulation time: 1 hr 1 min 51 sec) 
 Total Blocks : 524288 Invalid Blocks : 129885
Heartbeat CPU 0 instructions: 200000001 cycles: 85937073 heartbeat IPC: 2.57739 cumulative IPC: 2.32728 (Simulation time: 1 hr 5 min 25 sec) 
 Total Blocks : 524288 Invalid Blocks : 117657

Warmup complete CPU 0 instructions: 200000001 cycles: 85937073 (Simulation time: 1 hr 5 min 25 sec) 

Heartbeat CPU 0 instructions: 210000002 cycles: 92316679 heartbeat IPC: 1.5675 cumulative IPC: 1.5675 (Simulation time: 1 hr 9 min 26 sec) 
 Total Blocks : 524288 Invalid Blocks : 106079
Heartbeat CPU 0 instructions: 220000000 cycles: 98709094 heartbeat IPC: 1.56435 cumulative IPC: 1.56592 (Simulation time: 1 hr 13 min 25 sec) 
 Total Blocks : 524288 Invalid Blocks : 95603
Heartbeat CPU 0 instructions: 230000001 cycles: 105107421 heartbeat IPC: 1.56291 cumulative IPC: 1.56492 (Simulation time: 1 hr 17 min 21 sec) 
 Total Blocks : 524288 Invalid Blocks : 86048
Heartbeat CPU 0 instructions: 240000003 cycles: 111553873 heartbeat IPC: 1.55124 cumulative IPC: 1.56148 (Simulation time: 1 hr 21 min 28 sec) 
 Total Blocks : 524288 Invalid Blocks : 76929
Heartbeat CPU 0 instructions: 250000002 cycles: 117934626 heartbeat IPC: 1.56721 cumulative IPC: 1.56262 (Simulation time: 1 hr 25 min 17 sec) 
 Total Blocks : 524288 Invalid Blocks : 69030
Heartbeat CPU 0 instructions: 260000000 cycles: 124289911 heartbeat IPC: 1.57349 cumulative IPC: 1.56442 (Simulation time: 1 hr 29 min 11 sec) 
 Total Blocks : 524288 Invalid Blocks : 61979
Heartbeat CPU 0 instructions: 270000002 cycles: 130666032 heartbeat IPC: 1.56835 cumulative IPC: 1.56498 (Simulation time: 1 hr 32 min 57 sec) 
 Total Blocks : 524288 Invalid Blocks : 55433
Heartbeat CPU 0 instructions: 280000000 cycles: 137023179 heartbeat IPC: 1.57303 cumulative IPC: 1.56598 (Simulation time: 1 hr 36 min 44 sec) 
 Total Blocks : 524288 Invalid Blocks : 49410
Heartbeat CPU 0 instructions: 290000000 cycles: 143392174 heartbeat IPC: 1.57011 cumulative IPC: 1.56644 (Simulation time: 1 hr 40 min 33 sec) 
 Total Blocks : 524288 Invalid Blocks : 44192
Heartbeat CPU 0 instructions: 300000000 cycles: 149745760 heartbeat IPC: 1.57391 cumulative IPC: 1.56718 (Simulation time: 1 hr 44 min 20 sec) 
 Total Blocks : 524288 Invalid Blocks : 39560
Heartbeat CPU 0 instructions: 310000000 cycles: 156103027 heartbeat IPC: 1.573 cumulative IPC: 1.56771 (Simulation time: 1 hr 48 min 7 sec) 
 Total Blocks : 524288 Invalid Blocks : 35262
Heartbeat CPU 0 instructions: 320000001 cycles: 162456191 heartbeat IPC: 1.57402 cumulative IPC: 1.56824 (Simulation time: 1 hr 51 min 54 sec) 
 Total Blocks : 524288 Invalid Blocks : 31457
Heartbeat CPU 0 instructions: 330000000 cycles: 168792881 heartbeat IPC: 1.57811 cumulative IPC: 1.56899 (Simulation time: 1 hr 55 min 48 sec) 
 Total Blocks : 524288 Invalid Blocks : 28103
Heartbeat CPU 0 instructions: 340000002 cycles: 175210641 heartbeat IPC: 1.55818 cumulative IPC: 1.56821 (Simulation time: 1 hr 59 min 30 sec) 
 Total Blocks : 524288 Invalid Blocks : 24856
Heartbeat CPU 0 instructions: 350000003 cycles: 181570861 heartbeat IPC: 1.57227 cumulative IPC: 1.56848 (Simulation time: 2 hr 3 min 8 sec) 
 Total Blocks : 524288 Invalid Blocks : 22101
Heartbeat CPU 0 instructions: 360000002 cycles: 187961301 heartbeat IPC: 1.56484 cumulative IPC: 1.56825 (Simulation time: 2 hr 6 min 51 sec) 
 Total Blocks : 524288 Invalid Blocks : 19725
Heartbeat CPU 0 instructions: 370000003 cycles: 194342560 heartbeat IPC: 1.56709 cumulative IPC: 1.56819 (Simulation time: 2 hr 10 min 21 sec) 
 Total Blocks : 524288 Invalid Blocks : 17514
Heartbeat CPU 0 instructions: 380000001 cycles: 200722137 heartbeat IPC: 1.5675 cumulative IPC: 1.56815 (Simulation time: 2 hr 14 min 3 sec) 
 Total Blocks : 524288 Invalid Blocks : 15637
Heartbeat CPU 0 instructions: 390000000 cycles: 207090524 heartbeat IPC: 1.57026 cumulative IPC: 1.56826 (Simulation time: 2 hr 17 min 27 sec) 
 Total Blocks : 524288 Invalid Blocks : 13873
Heartbeat CPU 0 instructions: 400000000 cycles: 213473379 heartbeat IPC: 1.5667 cumulative IPC: 1.56818 (Simulation time: 2 hr 20 min 53 sec) 
 Total Blocks : 524288 Invalid Blocks : 12387
Finished CPU 0 instructions: 200000003 cycles: 127536308 cumulative IPC: 1.56818 (Simulation time: 2 hr 20 min 53 sec) 

CPU 0 Branch Prediction Accuracy: 99.8486% MPKI: 0.001795 Average ROB Occupancy at Mispredict: 348.404

ChampSim completed all CPUs

Region of Interest Statistics

CPU 0 cumulative IPC: 1.56818 instructions: 200000003 cycles: 127536308
ITLB TOTAL     ACCESS: 35548883  HIT: 35548883  MISS:     0  HIT %:   100  MISS %:     0  AVERAGE MISS PENALTY: 0
ITLB LOAD      ACCESS: 35548883  HIT: 35548883  MISS:     0  HIT %:   100  MISS %:     0  AVERAGE MISS PENALTY: 0
ITLB RFO       ACCESS:     0  HIT:     0  MISS:     0  HIT %:     0  MISS %:     0  AVERAGE MISS PENALTY: 0
ITLB PREFETCH  ACCESS:     0  HIT:     0  MISS:     0  HIT %:     0  MISS %:     0  AVERAGE MISS PENALTY: 0
ITLB WRITEBACK ACCESS:     0  HIT:     0  MISS:     0  HIT %:     0  MISS %:     0  AVERAGE MISS PENALTY: 0
ITLB PREFETCH  REQUESTED:     0  ISSUED:     0  USEFUL:     0  USELESS:     0
 USEFUL LOAD PREFETCHES:          0 PREFETCH ISSUED TO LOWER LEVEL:          0  ACCURACY: -nan
 TIMELY PREFETCHES:          0 LATE PREFETCHES: 0 DROPPED PREFETCHES: 0
ITLB AVERAGE MISS LATENCY: -nan cycles
DTLB TOTAL     ACCESS: 39784113  HIT: 24703099  MISS: 15081014  HIT %: 62.0929  MISS %: 37.9071  AVERAGE MISS PENALTY: 10.2298
DTLB LOAD      ACCESS: 27811617  HIT: 14197400  MISS: 13614217  HIT %: 51.0485  MISS %: 48.9515  AVERAGE MISS PENALTY: 10.2863
DTLB RFO       ACCESS: 11972496  HIT: 10505699  MISS: 1466797  HIT %: 87.7486  MISS %: 12.2514  AVERAGE MISS PENALTY: 9.70556
DTLB PREFETCH  ACCESS:     0  HIT:     0  MISS:     0  HIT %:     0  MISS %:     0  AVERAGE MISS PENALTY: 0
DTLB WRITEBACK ACCESS:     0  HIT:     0  MISS:     0  HIT %:     0  MISS %:     0  AVERAGE MISS PENALTY: 0
DTLB PREFETCH  REQUESTED:     0  ISSUED:     0  USEFUL:     0  USELESS:     0
 USEFUL LOAD PREFETCHES:          0 PREFETCH ISSUED TO LOWER LEVEL:          0  ACCURACY: -nan
 TIMELY PREFETCHES:          0 LATE PREFETCHES: 0 DROPPED PREFETCHES: 0
DTLB AVERAGE MISS LATENCY: 10.2298 cycles
STLB TOTAL     ACCESS: 15081014  HIT: 15056657  MISS: 24357  HIT %: 99.8385  MISS %: 0.161508  AVERAGE MISS PENALTY: 100
STLB LOAD      ACCESS: 13614217  HIT: 13589864  MISS: 24353  HIT %: 99.8211  MISS %: 0.178879  AVERAGE MISS PENALTY: 100
STLB RFO       ACCESS: 1466797  HIT: 1466793  MISS:     4  HIT %: 99.9997  MISS %: 0.000272703  AVERAGE MISS PENALTY: 100
STLB PREFETCH  ACCESS:     0  HIT:     0  MISS:     0  HIT %:     0  MISS %:     0  AVERAGE MISS PENALTY: 0
STLB WRITEBACK ACCESS:     0  HIT:     0  MISS:     0  HIT %:     0  MISS %:     0  AVERAGE MISS PENALTY: 0
STLB PREFETCH  REQUESTED:     0  ISSUED:     0  USEFUL:     0  USELESS:     0
 USEFUL LOAD PREFETCHES:          0 PREFETCH ISSUED TO LOWER LEVEL:          0  ACCURACY: -nan
 TIMELY PREFETCHES:          0 LATE PREFETCHES: 0 DROPPED PREFETCHES: 0
STLB AVERAGE MISS LATENCY: 100 cycles
L1D TOTAL     ACCESS: 70954913  HIT: 39373962  MISS: 31580951  HIT %: 55.4915  MISS %: 44.5085  AVERAGE MISS PENALTY: 64426.2
L1D LOAD      ACCESS: 34516616  HIT: 12986173  MISS: 21530443  HIT %: 37.623  MISS %: 62.377  AVERAGE MISS PENALTY: 94452.9
L1D RFO       ACCESS: 22572041  HIT: 20932071  MISS: 1639970  HIT %: 92.7345  MISS %: 7.26549  AVERAGE MISS PENALTY: 476.865
L1D PREFETCH  ACCESS: 13866256  HIT: 5455718  MISS: 8410538  HIT %: 39.3453  MISS %: 60.6547  AVERAGE MISS PENALTY: 29.3938
L1D WRITEBACK ACCESS:     0  HIT:     0  MISS:     0  HIT %:     0  MISS %:     0  AVERAGE MISS PENALTY: 0
L1D PREFETCH  REQUESTED: 17536656  ISSUED: 14716591  USEFUL: 127459  USELESS: 8283023
 USEFUL LOAD PREFETCHES:     127459 PREFETCH ISSUED TO LOWER LEVEL:   27124241  ACCURACY: 0.469908
 TIMELY PREFETCHES:     127459 LATE PREFETCHES: 533322 DROPPED PREFETCHES: 2820065
L1D AVERAGE MISS LATENCY: 44.2234 cycles
L1I TOTAL     ACCESS: 47067646  HIT: 47067646  MISS:     0  HIT %:   100  MISS %:     0  AVERAGE MISS PENALTY: 0
L1I LOAD      ACCESS: 47067646  HIT: 47067646  MISS:     0  HIT %:   100  MISS %:     0  AVERAGE MISS PENALTY: 0
L1I RFO       ACCESS:     0  HIT:     0  MISS:     0  HIT %:     0  MISS %:     0  AVERAGE MISS PENALTY: 0
L1I PREFETCH  ACCESS:     0  HIT:     0  MISS:     0  HIT %:     0  MISS %:     0  AVERAGE MISS PENALTY: 0
L1I WRITEBACK ACCESS:     0  HIT:     0  MISS:     0  HIT %:     0  MISS %:     0  AVERAGE MISS PENALTY: 0
L1I PREFETCH  REQUESTED:     0  ISSUED:     0  USEFUL:     0  USELESS:     0
 USEFUL LOAD PREFETCHES:          0 PREFETCH ISSUED TO LOWER LEVEL:          0  ACCURACY: -nan
 TIMELY PREFETCHES:          0 LATE PREFETCHES: 0 DROPPED PREFETCHES: 0
L1I AVERAGE MISS LATENCY: -nan cycles
L2C TOTAL     ACCESS: 61485612  HIT: 59680127  MISS: 1805485  HIT %: 97.0636  MISS %: 2.93643  AVERAGE MISS PENALTY: 177.752
L2C LOAD      ACCESS: 21196680  HIT: 21104921  MISS: 91759  HIT %: 99.5671  MISS %: 0.432893  AVERAGE MISS PENALTY: 251.206
L2C RFO       ACCESS: 1636669  HIT: 1635559  MISS:  1110  HIT %: 99.9322  MISS %: 0.0678207  AVERAGE MISS PENALTY: 33.309
L2C PREFETCH  ACCESS: 36784803  HIT: 35072388  MISS: 1712415  HIT %: 95.3448  MISS %: 4.65522  AVERAGE MISS PENALTY: 173.931
L2C WRITEBACK ACCESS: 1867460  HIT: 1867259  MISS:   201  HIT %: 99.9892  MISS %: 0.0107633  AVERAGE MISS PENALTY: 0
L2C PREFETCH  REQUESTED: 66158085  ISSUED: 39113634  USEFUL: 1708558  USELESS:  3579
 USEFUL LOAD PREFETCHES:    1708558 PREFETCH ISSUED TO LOWER LEVEL:    1767690  ACCURACY: 96.6548
 TIMELY PREFETCHES:    1708558 LATE PREFETCHES: 1185 DROPPED PREFETCHES: 27044451
L2C AVERAGE MISS LATENCY: 177.752 cycles
LLC0 TOTAL     ACCESS: 250994  HIT: 101320  MISS: 149674  HIT %: 40.3675  MISS %: 59.6325  AVERAGE MISS PENALTY: 213.972
LLC0 LOAD      ACCESS: 37606  HIT: 13044  MISS: 24562  HIT %: 34.686  MISS %: 65.314  AVERAGE MISS PENALTY: 209.753
LLC0 RFO       ACCESS:    97  HIT:    97  MISS:     0  HIT %:   100  MISS %:     0  AVERAGE MISS PENALTY: 0
LLC0 PREFETCH  ACCESS: 189295  HIT: 64331  MISS: 124964  HIT %: 33.9845  MISS %: 66.0155  AVERAGE MISS PENALTY: 215.055
LLC0 WRITEBACK ACCESS: 23996  HIT: 23848  MISS:   148  HIT %: 99.3832  MISS %: 0.616769  AVERAGE MISS PENALTY: 0
LLC0 PREFETCH  REQUESTED:     0  ISSUED:     0  USEFUL:   535  USELESS: 106839
 USEFUL LOAD PREFETCHES:        535 PREFETCH ISSUED TO LOWER LEVEL:     124964  ACCURACY: 0.428123
 TIMELY PREFETCHES:        535 LATE PREFETCHES: 0 DROPPED PREFETCHES: 0
LLC0 AVERAGE MISS LATENCY: 213.972 cycles
Deadblocks : 19405 Deadblock percentage : 79.0042

LLC1 TOTAL     ACCESS: 250363  HIT: 102872  MISS: 147491  HIT %: 41.0891  MISS %: 58.9109  AVERAGE MISS PENALTY: 214.436
LLC1 LOAD      ACCESS:  7584  HIT:   836  MISS:  6748  HIT %: 11.0232  MISS %: 88.9768  AVERAGE MISS PENALTY: 300.953
LLC1 RFO       ACCESS:    76  HIT:    76  MISS:     0  HIT %:   100  MISS %:     0  AVERAGE MISS PENALTY: 0
LLC1 PREFETCH  ACCESS: 218731  HIT: 78030  MISS: 140701  HIT %: 35.674  MISS %: 64.326  AVERAGE MISS PENALTY: 210.351
LLC1 WRITEBACK ACCESS: 23972  HIT: 23930  MISS:    42  HIT %: 99.8248  MISS %: 0.175204  AVERAGE MISS PENALTY: 0
LLC1 PREFETCH  REQUESTED:     0  ISSUED:     0  USEFUL:   592  USELESS: 123447
 USEFUL LOAD PREFETCHES:        592 PREFETCH ISSUED TO LOWER LEVEL:     140701  ACCURACY: 0.42075
 TIMELY PREFETCHES:        592 LATE PREFETCHES: 0 DROPPED PREFETCHES: 0
LLC1 AVERAGE MISS LATENCY: 214.436 cycles
LLC2 TOTAL     ACCESS: 249628  HIT: 102500  MISS: 147128  HIT %: 41.0611  MISS %: 58.9389  AVERAGE MISS PENALTY: 216.894
LLC2 LOAD      ACCESS:  7446  HIT:   770  MISS:  6676  HIT %: 10.3411  MISS %: 89.6589  AVERAGE MISS PENALTY: 297.983
LLC2 RFO       ACCESS:    74  HIT:    74  MISS:     0  HIT %:   100  MISS %:     0  AVERAGE MISS PENALTY: 0
LLC2 PREFETCH  ACCESS: 218158  HIT: 77735  MISS: 140423  HIT %: 35.6324  MISS %: 64.3676  AVERAGE MISS PENALTY: 213.083
LLC2 WRITEBACK ACCESS: 23950  HIT: 23921  MISS:    29  HIT %: 99.8789  MISS %: 0.121086  AVERAGE MISS PENALTY: 0
LLC2 PREFETCH  REQUESTED:     0  ISSUED:     0  USEFUL:   545  USELESS: 123605
 USEFUL LOAD PREFETCHES:        545 PREFETCH ISSUED TO LOWER LEVEL:     140423  ACCURACY: 0.388113
 TIMELY PREFETCHES:        545 LATE PREFETCHES: 0 DROPPED PREFETCHES: 0
LLC2 AVERAGE MISS LATENCY: 216.894 cycles
LLC3 TOTAL     ACCESS: 248983  HIT: 102440  MISS: 146543  HIT %: 41.1434  MISS %: 58.8566  AVERAGE MISS PENALTY: 216.241
LLC3 LOAD      ACCESS:  7505  HIT:   832  MISS:  6673  HIT %: 11.0859  MISS %: 88.9141  AVERAGE MISS PENALTY: 304.617
LLC3 RFO       ACCESS:    87  HIT:    87  MISS:     0  HIT %:   100  MISS %:     0  AVERAGE MISS PENALTY: 0
LLC3 PREFETCH  ACCESS: 217413  HIT: 77562  MISS: 139851  HIT %: 35.675  MISS %: 64.325  AVERAGE MISS PENALTY: 212.053
LLC3 WRITEBACK ACCESS: 23978  HIT: 23959  MISS:    19  HIT %: 99.9208  MISS %: 0.0792393  AVERAGE MISS PENALTY: 0
LLC3 PREFETCH  REQUESTED:     0  ISSUED:     0  USEFUL:   563  USELESS: 123010
 USEFUL LOAD PREFETCHES:        563 PREFETCH ISSUED TO LOWER LEVEL:     139851  ACCURACY: 0.402571
 TIMELY PREFETCHES:        563 LATE PREFETCHES: 0 DROPPED PREFETCHES: 0
LLC3 AVERAGE MISS LATENCY: 216.241 cycles
LLC4 TOTAL     ACCESS: 249459  HIT: 103307  MISS: 146152  HIT %: 41.4124  MISS %: 58.5876  AVERAGE MISS PENALTY: 216.385
LLC4 LOAD      ACCESS:  7831  HIT:  1187  MISS:  6644  HIT %: 15.1577  MISS %: 84.8423  AVERAGE MISS PENALTY: 300.614
LLC4 RFO       ACCESS:   165  HIT:   165  MISS:     0  HIT %:   100  MISS %:     0  AVERAGE MISS PENALTY: 0
LLC4 PREFETCH  ACCESS: 217439  HIT: 77945  MISS: 139494  HIT %: 35.8468  MISS %: 64.1532  AVERAGE MISS PENALTY: 212.395
LLC4 WRITEBACK ACCESS: 24024  HIT: 24010  MISS:    14  HIT %: 99.9417  MISS %: 0.0582751  AVERAGE MISS PENALTY: 0
LLC4 PREFETCH  REQUESTED:     0  ISSUED:     0  USEFUL:   715  USELESS: 123559
 USEFUL LOAD PREFETCHES:        715 PREFETCH ISSUED TO LOWER LEVEL:     139494  ACCURACY: 0.512567
 TIMELY PREFETCHES:        715 LATE PREFETCHES: 0 DROPPED PREFETCHES: 0
LLC4 AVERAGE MISS LATENCY: 216.385 cycles
LLC5 TOTAL     ACCESS: 249268  HIT: 103175  MISS: 146093  HIT %: 41.3912  MISS %: 58.6088  AVERAGE MISS PENALTY: 217.388
LLC5 LOAD      ACCESS:  7986  HIT:  1126  MISS:  6860  HIT %: 14.0997  MISS %: 85.9003  AVERAGE MISS PENALTY: 301.902
LLC5 RFO       ACCESS:   144  HIT:   144  MISS:     0  HIT %:   100  MISS %:     0  AVERAGE MISS PENALTY: 0
LLC5 PREFETCH  ACCESS: 217111  HIT: 77893  MISS: 139218  HIT %: 35.877  MISS %: 64.123  AVERAGE MISS PENALTY: 213.247
LLC5 WRITEBACK ACCESS: 24027  HIT: 24012  MISS:    15  HIT %: 99.9376  MISS %: 0.0624298  AVERAGE MISS PENALTY: 0
LLC5 PREFETCH  REQUESTED:     0  ISSUED:     0  USEFUL:   746  USELESS: 123659
 USEFUL LOAD PREFETCHES:        746 PREFETCH ISSUED TO LOWER LEVEL:     139218  ACCURACY: 0.53585
 TIMELY PREFETCHES:        746 LATE PREFETCHES: 0 DROPPED PREFETCHES: 0
LLC5 AVERAGE MISS LATENCY: 217.388 cycles
LLC6 TOTAL     ACCESS: 248996  HIT: 102474  MISS: 146522  HIT %: 41.1549  MISS %: 58.8451  AVERAGE MISS PENALTY: 220.208
LLC6 LOAD      ACCESS:  7818  HIT:  1023  MISS:  6795  HIT %: 13.0852  MISS %: 86.9148  AVERAGE MISS PENALTY: 301.575
LLC6 RFO       ACCESS:   165  HIT:   165  MISS:     0  HIT %:   100  MISS %:     0  AVERAGE MISS PENALTY: 0
LLC6 PREFETCH  ACCESS: 216964  HIT: 77250  MISS: 139714  HIT %: 35.605  MISS %: 64.395  AVERAGE MISS PENALTY: 216.271
LLC6 WRITEBACK ACCESS: 24049  HIT: 24036  MISS:    13  HIT %: 99.9459  MISS %: 0.0540563  AVERAGE MISS PENALTY: 0
LLC6 PREFETCH  REQUESTED:     0  ISSUED:     0  USEFUL:   691  USELESS: 123815
 USEFUL LOAD PREFETCHES:        691 PREFETCH ISSUED TO LOWER LEVEL:     139714  ACCURACY: 0.494582
 TIMELY PREFETCHES:        691 LATE PREFETCHES: 0 DROPPED PREFETCHES: 0
LLC6 AVERAGE MISS LATENCY: 220.208 cycles
LLC7 TOTAL     ACCESS: 249861  HIT: 102932  MISS: 146929  HIT %: 41.1957  MISS %: 58.8043  AVERAGE MISS PENALTY: 221.199
LLC7 LOAD      ACCESS:  7982  HIT:  1434  MISS:  6548  HIT %: 17.9654  MISS %: 82.0346  AVERAGE MISS PENALTY: 303.89
LLC7 RFO       ACCESS:   270  HIT:   270  MISS:     0  HIT %:   100  MISS %:     0  AVERAGE MISS PENALTY: 0
LLC7 PREFETCH  ACCESS: 217304  HIT: 76938  MISS: 140366  HIT %: 35.4057  MISS %: 64.5943  AVERAGE MISS PENALTY: 217.366
LLC7 WRITEBACK ACCESS: 24305  HIT: 24290  MISS:    15  HIT %: 99.9383  MISS %: 0.0617157  AVERAGE MISS PENALTY: 0
LLC7 PREFETCH  REQUESTED:     0  ISSUED:     0  USEFUL:   738  USELESS: 123307
 USEFUL LOAD PREFETCHES:        738 PREFETCH ISSUED TO LOWER LEVEL:     140366  ACCURACY: 0.525768
 TIMELY PREFETCHES:        738 LATE PREFETCHES: 0 DROPPED PREFETCHES: 0
LLC7 AVERAGE MISS LATENCY: 221.199 cycles
ROI Average ROB Stall Cycles:	4.59275
ROI Total ROB Stalls Cycles:	83666058
ROI TOTAL ROB counter      :	18216966
ROI Average Load ROB Stall Cycles:	13.6298
ROI Total Load ROB Stalls Cycle  :	25020365
ROI Total Load ROB stalls Counter:	1835713
Major fault: 0 Minor fault: 21701

