
*** ChampSim Multicore Out-of-Order Simulator ***

Warmup Instructions: 200000000
Simulation Instructions: 200000000
Number of CPUs: 1
threads:1

L1I Configuration:
L1I_SET:64
L1I_WAY:8
L1I_RQ_SIZE:64
L1I_WQ_SIZE:64
L1I_PQ_SIZE:8
L1I_MSHR_SIZE:8

L1D Configuration:
L1D_SET:64
L1D_WAY:12
L1D_RQ_SIZE:64
L1D_WQ_SIZE:64
L1D_PQ_SIZE:8
L1D_MSHR_SIZE:16

L2C Configuration:
L2C_SET:1024
L2C_WAY:8
L2C_RQ_SIZE:32
L2C_WQ_SIZE:32
L2C_PQ_SIZE:16
L2C_MSHR_SIZE:32

LLC Configuration:
LLC_SET:4096
LLC_WAY:16
LLC SLICES:8
LLC_RQ_SIZE:64
LLC_WQ_SIZE:64
LLC_PQ_SIZE:32
LLC_MSHR_SIZE:64

Interconnect OFF
Attacker deprioritize is: OFF
Off-chip DRAM Size: 4096 MB Channels: 1 Width: 64-bit Data Rate: 3200 MT/s
PAGE SIZE in KB: 4.000000 
PAGE SIZE in MB: 0.003906 
PAGE offset in bits: 12 
CEASER-S_LLC:0
MIRAGE : 0
CEASER_LATENCY:3
REMAP : OFF
Partitions : 1
Multi-Step : OFF
BFS : OFF

CPU 0 runs /home/anubhav/spec_2017/607.cactuBSSN_s-4004B.champsimtrace.xz
CPU 0 Bimodal branch predictor
Initialize Hawkeye state
Initialize Hawkeye state
Initialize Hawkeye state
Initialize Hawkeye state
Initialize Hawkeye state
Initialize Hawkeye state
Initialize Hawkeye state
Initialize Hawkeye state
Heartbeat CPU 0 instructions: 10000000 cycles: 5486779 heartbeat IPC: 1.82256 cumulative IPC: 1.82256 (Simulation time: 0 hr 1 min 3 sec) 
 Total Blocks : 524288 Invalid Blocks : 491983
Heartbeat CPU 0 instructions: 20000000 cycles: 10972738 heartbeat IPC: 1.82284 cumulative IPC: 1.8227 (Simulation time: 0 hr 2 min 13 sec) 
 Total Blocks : 524288 Invalid Blocks : 465815
Heartbeat CPU 0 instructions: 30000001 cycles: 16458478 heartbeat IPC: 1.82291 cumulative IPC: 1.82277 (Simulation time: 0 hr 4 min 17 sec) 
 Total Blocks : 524288 Invalid Blocks : 447830
Heartbeat CPU 0 instructions: 40000001 cycles: 21943639 heartbeat IPC: 1.8231 cumulative IPC: 1.82285 (Simulation time: 0 hr 7 min 13 sec) 
 Total Blocks : 524288 Invalid Blocks : 429167
Heartbeat CPU 0 instructions: 50000000 cycles: 27429556 heartbeat IPC: 1.82285 cumulative IPC: 1.82285 (Simulation time: 0 hr 11 min 4 sec) 
 Total Blocks : 524288 Invalid Blocks : 411411
Heartbeat CPU 0 instructions: 60000001 cycles: 32915868 heartbeat IPC: 1.82272 cumulative IPC: 1.82283 (Simulation time: 0 hr 14 min 59 sec) 
 Total Blocks : 524288 Invalid Blocks : 398143
Heartbeat CPU 0 instructions: 70000001 cycles: 38401197 heartbeat IPC: 1.82304 cumulative IPC: 1.82286 (Simulation time: 0 hr 18 min 44 sec) 
 Total Blocks : 524288 Invalid Blocks : 383942
Heartbeat CPU 0 instructions: 80000001 cycles: 43886778 heartbeat IPC: 1.82296 cumulative IPC: 1.82287 (Simulation time: 0 hr 22 min 32 sec) 
 Total Blocks : 524288 Invalid Blocks : 369528
Heartbeat CPU 0 instructions: 90000001 cycles: 49372967 heartbeat IPC: 1.82276 cumulative IPC: 1.82286 (Simulation time: 0 hr 26 min 33 sec) 
 Total Blocks : 524288 Invalid Blocks : 357866
Heartbeat CPU 0 instructions: 100000003 cycles: 54858499 heartbeat IPC: 1.82298 cumulative IPC: 1.82287 (Simulation time: 0 hr 30 min 22 sec) 
 Total Blocks : 524288 Invalid Blocks : 346399
Heartbeat CPU 0 instructions: 110000000 cycles: 60344271 heartbeat IPC: 1.8229 cumulative IPC: 1.82287 (Simulation time: 0 hr 34 min 13 sec) 
 Total Blocks : 524288 Invalid Blocks : 336031
Heartbeat CPU 0 instructions: 120000000 cycles: 65829662 heartbeat IPC: 1.82302 cumulative IPC: 1.82289 (Simulation time: 0 hr 38 min 1 sec) 
 Total Blocks : 524288 Invalid Blocks : 327762
Heartbeat CPU 0 instructions: 130000003 cycles: 71315601 heartbeat IPC: 1.82284 cumulative IPC: 1.82288 (Simulation time: 0 hr 41 min 43 sec) 
 Total Blocks : 524288 Invalid Blocks : 319748
Heartbeat CPU 0 instructions: 140000003 cycles: 76801459 heartbeat IPC: 1.82287 cumulative IPC: 1.82288 (Simulation time: 0 hr 45 min 28 sec) 
 Total Blocks : 524288 Invalid Blocks : 312206
Heartbeat CPU 0 instructions: 150000000 cycles: 82287663 heartbeat IPC: 1.82275 cumulative IPC: 1.82287 (Simulation time: 0 hr 49 min 8 sec) 
 Total Blocks : 524288 Invalid Blocks : 304792
Heartbeat CPU 0 instructions: 160000002 cycles: 87772611 heartbeat IPC: 1.82317 cumulative IPC: 1.82289 (Simulation time: 0 hr 52 min 50 sec) 
 Total Blocks : 524288 Invalid Blocks : 297799
Heartbeat CPU 0 instructions: 170000001 cycles: 93258557 heartbeat IPC: 1.82284 cumulative IPC: 1.82289 (Simulation time: 0 hr 56 min 48 sec) 
 Total Blocks : 524288 Invalid Blocks : 289711
Heartbeat CPU 0 instructions: 180000000 cycles: 98744257 heartbeat IPC: 1.82292 cumulative IPC: 1.82289 (Simulation time: 1 hr 0 min 38 sec) 
 Total Blocks : 524288 Invalid Blocks : 281299
Heartbeat CPU 0 instructions: 190000002 cycles: 104230102 heartbeat IPC: 1.82287 cumulative IPC: 1.82289 (Simulation time: 1 hr 4 min 31 sec) 
 Total Blocks : 524288 Invalid Blocks : 272718
Heartbeat CPU 0 instructions: 200000002 cycles: 109715355 heartbeat IPC: 1.82307 cumulative IPC: 1.8229 (Simulation time: 1 hr 8 min 18 sec) 
 Total Blocks : 524288 Invalid Blocks : 264885

Warmup complete CPU 0 instructions: 200000002 cycles: 109715355 (Simulation time: 1 hr 8 min 18 sec) 

Heartbeat CPU 0 instructions: 210000000 cycles: 118184311 heartbeat IPC: 1.18078 cumulative IPC: 1.18078 (Simulation time: 1 hr 12 min 51 sec) 
 Total Blocks : 524288 Invalid Blocks : 256513
Heartbeat CPU 0 instructions: 220000000 cycles: 126653689 heartbeat IPC: 1.18072 cumulative IPC: 1.18075 (Simulation time: 1 hr 17 min 15 sec) 
 Total Blocks : 524288 Invalid Blocks : 248407
Heartbeat CPU 0 instructions: 230000000 cycles: 135116786 heartbeat IPC: 1.1816 cumulative IPC: 1.18104 (Simulation time: 1 hr 21 min 55 sec) 
 Total Blocks : 524288 Invalid Blocks : 241049
Heartbeat CPU 0 instructions: 240000001 cycles: 143610950 heartbeat IPC: 1.17728 cumulative IPC: 1.18009 (Simulation time: 1 hr 26 min 34 sec) 
 Total Blocks : 524288 Invalid Blocks : 231989
Heartbeat CPU 0 instructions: 250000003 cycles: 152080934 heartbeat IPC: 1.18064 cumulative IPC: 1.1802 (Simulation time: 1 hr 31 min 13 sec) 
 Total Blocks : 524288 Invalid Blocks : 224819
Heartbeat CPU 0 instructions: 260000000 cycles: 160539252 heartbeat IPC: 1.18227 cumulative IPC: 1.18055 (Simulation time: 1 hr 35 min 42 sec) 
 Total Blocks : 524288 Invalid Blocks : 217679
Heartbeat CPU 0 instructions: 270000003 cycles: 169006144 heartbeat IPC: 1.18107 cumulative IPC: 1.18062 (Simulation time: 1 hr 40 min 2 sec) 
 Total Blocks : 524288 Invalid Blocks : 211234
Heartbeat CPU 0 instructions: 280000001 cycles: 177475932 heartbeat IPC: 1.18067 cumulative IPC: 1.18063 (Simulation time: 1 hr 44 min 24 sec) 
 Total Blocks : 524288 Invalid Blocks : 205059
Heartbeat CPU 0 instructions: 290000001 cycles: 185937827 heartbeat IPC: 1.18177 cumulative IPC: 1.18075 (Simulation time: 1 hr 48 min 35 sec) 
 Total Blocks : 524288 Invalid Blocks : 199191
Heartbeat CPU 0 instructions: 300000001 cycles: 194402565 heartbeat IPC: 1.18137 cumulative IPC: 1.18082 (Simulation time: 1 hr 52 min 53 sec) 
 Total Blocks : 524288 Invalid Blocks : 193404
Heartbeat CPU 0 instructions: 310000000 cycles: 202855818 heartbeat IPC: 1.18298 cumulative IPC: 1.18101 (Simulation time: 1 hr 57 min 25 sec) 
 Total Blocks : 524288 Invalid Blocks : 187884
Heartbeat CPU 0 instructions: 320000000 cycles: 211317826 heartbeat IPC: 1.18175 cumulative IPC: 1.18107 (Simulation time: 2 hr 1 min 40 sec) 
 Total Blocks : 524288 Invalid Blocks : 182250
Heartbeat CPU 0 instructions: 330000000 cycles: 219780739 heartbeat IPC: 1.18163 cumulative IPC: 1.18112 (Simulation time: 2 hr 5 min 53 sec) 
 Total Blocks : 524288 Invalid Blocks : 176896
Heartbeat CPU 0 instructions: 340000003 cycles: 228240458 heartbeat IPC: 1.18207 cumulative IPC: 1.18118 (Simulation time: 2 hr 9 min 58 sec) 
 Total Blocks : 524288 Invalid Blocks : 171239
Heartbeat CPU 0 instructions: 350000002 cycles: 236698010 heartbeat IPC: 1.18238 cumulative IPC: 1.18126 (Simulation time: 2 hr 14 min 7 sec) 
 Total Blocks : 524288 Invalid Blocks : 165773
Heartbeat CPU 0 instructions: 360000001 cycles: 245158153 heartbeat IPC: 1.18201 cumulative IPC: 1.18131 (Simulation time: 2 hr 18 min 3 sec) 
 Total Blocks : 524288 Invalid Blocks : 160582
Heartbeat CPU 0 instructions: 370000001 cycles: 253615172 heartbeat IPC: 1.18245 cumulative IPC: 1.18138 (Simulation time: 2 hr 22 min 3 sec) 
 Total Blocks : 524288 Invalid Blocks : 155233
Heartbeat CPU 0 instructions: 380000001 cycles: 262078358 heartbeat IPC: 1.18159 cumulative IPC: 1.18139 (Simulation time: 2 hr 26 min 11 sec) 
 Total Blocks : 524288 Invalid Blocks : 149910
Heartbeat CPU 0 instructions: 390000003 cycles: 270575695 heartbeat IPC: 1.17684 cumulative IPC: 1.18115 (Simulation time: 2 hr 30 min 21 sec) 
 Total Blocks : 524288 Invalid Blocks : 144079
Heartbeat CPU 0 instructions: 400000000 cycles: 279043481 heartbeat IPC: 1.18095 cumulative IPC: 1.18114 (Simulation time: 2 hr 34 min 11 sec) 
 Total Blocks : 524288 Invalid Blocks : 139187
Finished CPU 0 instructions: 200000002 cycles: 169328127 cumulative IPC: 1.18114 (Simulation time: 2 hr 34 min 11 sec) 

CPU 0 Branch Prediction Accuracy: 99.9835% MPKI: 0.00111 Average ROB Occupancy at Mispredict: 345.432

ChampSim completed all CPUs

Region of Interest Statistics

CPU 0 cumulative IPC: 1.18114 instructions: 200000002 cycles: 169328127
ITLB TOTAL     ACCESS: 39119288  HIT: 39119288  MISS:     0  HIT %:   100  MISS %:     0  AVERAGE MISS PENALTY: 0
ITLB LOAD      ACCESS: 39119288  HIT: 39119288  MISS:     0  HIT %:   100  MISS %:     0  AVERAGE MISS PENALTY: 0
ITLB RFO       ACCESS:     0  HIT:     0  MISS:     0  HIT %:     0  MISS %:     0  AVERAGE MISS PENALTY: 0
ITLB PREFETCH  ACCESS:     0  HIT:     0  MISS:     0  HIT %:     0  MISS %:     0  AVERAGE MISS PENALTY: 0
ITLB WRITEBACK ACCESS:     0  HIT:     0  MISS:     0  HIT %:     0  MISS %:     0  AVERAGE MISS PENALTY: 0
ITLB PREFETCH  REQUESTED:     0  ISSUED:     0  USEFUL:     0  USELESS:     0
 USEFUL LOAD PREFETCHES:          0 PREFETCH ISSUED TO LOWER LEVEL:          0  ACCURACY: -nan
 TIMELY PREFETCHES:          0 LATE PREFETCHES: 0 DROPPED PREFETCHES: 0
ITLB AVERAGE MISS LATENCY: -nan cycles
DTLB TOTAL     ACCESS: 53692507  HIT: 45969526  MISS: 7722981  HIT %: 85.6163  MISS %: 14.3837  AVERAGE MISS PENALTY: 9.7822
DTLB LOAD      ACCESS: 45242434  HIT: 38428560  MISS: 6813874  HIT %: 84.9392  MISS %: 15.0608  AVERAGE MISS PENALTY: 9.61608
DTLB RFO       ACCESS: 8450073  HIT: 7540966  MISS: 909107  HIT %: 89.2414  MISS %: 10.7586  AVERAGE MISS PENALTY: 11.0273
DTLB PREFETCH  ACCESS:     0  HIT:     0  MISS:     0  HIT %:     0  MISS %:     0  AVERAGE MISS PENALTY: 0
DTLB WRITEBACK ACCESS:     0  HIT:     0  MISS:     0  HIT %:     0  MISS %:     0  AVERAGE MISS PENALTY: 0
DTLB PREFETCH  REQUESTED:     0  ISSUED:     0  USEFUL:     0  USELESS:     0
 USEFUL LOAD PREFETCHES:          0 PREFETCH ISSUED TO LOWER LEVEL:          0  ACCURACY: -nan
 TIMELY PREFETCHES:          0 LATE PREFETCHES: 0 DROPPED PREFETCHES: 0
DTLB AVERAGE MISS LATENCY: 9.7822 cycles
STLB TOTAL     ACCESS: 7722981  HIT: 7714457  MISS:  8524  HIT %: 99.8896  MISS %: 0.110372  AVERAGE MISS PENALTY: 100
STLB LOAD      ACCESS: 6813874  HIT: 6807250  MISS:  6624  HIT %: 99.9028  MISS %: 0.0972134  AVERAGE MISS PENALTY: 100
STLB RFO       ACCESS: 909107  HIT: 907207  MISS:  1900  HIT %: 99.791  MISS %: 0.208996  AVERAGE MISS PENALTY: 100
STLB PREFETCH  ACCESS:     0  HIT:     0  MISS:     0  HIT %:     0  MISS %:     0  AVERAGE MISS PENALTY: 0
STLB WRITEBACK ACCESS:     0  HIT:     0  MISS:     0  HIT %:     0  MISS %:     0  AVERAGE MISS PENALTY: 0
STLB PREFETCH  REQUESTED:     0  ISSUED:     0  USEFUL:     0  USELESS:     0
 USEFUL LOAD PREFETCHES:          0 PREFETCH ISSUED TO LOWER LEVEL:          0  ACCURACY: -nan
 TIMELY PREFETCHES:          0 LATE PREFETCHES: 0 DROPPED PREFETCHES: 0
STLB AVERAGE MISS LATENCY: 100 cycles
L1D TOTAL     ACCESS: 115434441  HIT: 91479641  MISS: 23954800  HIT %: 79.2481  MISS %: 20.7519  AVERAGE MISS PENALTY: 1.57028e+06
L1D LOAD      ACCESS: 61740111  HIT: 47920762  MISS: 13819349  HIT %: 77.6169  MISS %: 22.3831  AVERAGE MISS PENALTY: 2.67066e+06
L1D RFO       ACCESS: 15991670  HIT: 14669504  MISS: 1322166  HIT %: 91.7322  MISS %: 8.26784  AVERAGE MISS PENALTY: 536120
L1D PREFETCH  ACCESS: 37702660  HIT: 28889375  MISS: 8813285  HIT %: 76.6242  MISS %: 23.3758  AVERAGE MISS PENALTY: 23.2129
L1D WRITEBACK ACCESS:     0  HIT:     0  MISS:     0  HIT %:     0  MISS %:     0  AVERAGE MISS PENALTY: 0
L1D PREFETCH  REQUESTED: 43912585  ISSUED: 39504489  USEFUL: 579549  USELESS: 8233711
 USEFUL LOAD PREFETCHES:     579549 PREFETCH ISSUED TO LOWER LEVEL:   24003050  ACCURACY: 2.41448
 TIMELY PREFETCHES:     579549 LATE PREFETCHES: 575998 DROPPED PREFETCHES: 4408096
L1D AVERAGE MISS LATENCY: 29608.4 cycles
L1I TOTAL     ACCESS: 45572334  HIT: 40372329  MISS: 5200005  HIT %: 88.5896  MISS %: 11.4104  AVERAGE MISS PENALTY: 32.1704
L1I LOAD      ACCESS: 45572334  HIT: 40372329  MISS: 5200005  HIT %: 88.5896  MISS %: 11.4104  AVERAGE MISS PENALTY: 32.1704
L1I RFO       ACCESS:     0  HIT:     0  MISS:     0  HIT %:     0  MISS %:     0  AVERAGE MISS PENALTY: 0
L1I PREFETCH  ACCESS:     0  HIT:     0  MISS:     0  HIT %:     0  MISS %:     0  AVERAGE MISS PENALTY: 0
L1I WRITEBACK ACCESS:     0  HIT:     0  MISS:     0  HIT %:     0  MISS %:     0  AVERAGE MISS PENALTY: 0
L1I PREFETCH  REQUESTED:     0  ISSUED:     0  USEFUL:     0  USELESS:     0
 USEFUL LOAD PREFETCHES:          0 PREFETCH ISSUED TO LOWER LEVEL:          0  ACCURACY: -nan
 TIMELY PREFETCHES:          0 LATE PREFETCHES: 0 DROPPED PREFETCHES: 0
L1I AVERAGE MISS LATENCY: 11.0713 cycles
L2C TOTAL     ACCESS: 50509637  HIT: 49549744  MISS: 959893  HIT %: 98.0996  MISS %: 1.90042  AVERAGE MISS PENALTY: 1164.45
L2C LOAD      ACCESS: 18982880  HIT: 18959872  MISS: 23008  HIT %: 99.8788  MISS %: 0.121204  AVERAGE MISS PENALTY: 41432.1
L2C RFO       ACCESS: 1316152  HIT: 1198446  MISS: 117706  HIT %: 91.0568  MISS %: 8.94319  AVERAGE MISS PENALTY: 716.46
L2C PREFETCH  ACCESS: 28706360  HIT: 27887370  MISS: 818990  HIT %: 97.147  MISS %: 2.85299  AVERAGE MISS PENALTY: 97.8636
L2C WRITEBACK ACCESS: 1504245  HIT: 1504056  MISS:   189  HIT %: 99.9874  MISS %: 0.0125644  AVERAGE MISS PENALTY: 0
L2C PREFETCH  REQUESTED: 31843657  ISSUED: 25664227  USEFUL: 810125  USELESS:  8721
 USEFUL LOAD PREFETCHES:     810125 PREFETCH ISSUED TO LOWER LEVEL:     822122  ACCURACY: 98.5407
 TIMELY PREFETCHES:     810125 LATE PREFETCHES: 16 DROPPED PREFETCHES: 6179430
L2C AVERAGE MISS LATENCY: 173.601 cycles
LLC0 TOTAL     ACCESS: 136427  HIT: 84248  MISS: 52179  HIT %: 61.7532  MISS %: 38.2468  AVERAGE MISS PENALTY: 309.993
LLC0 LOAD      ACCESS: 13907  HIT:  9302  MISS:  4605  HIT %: 66.8872  MISS %: 33.1128  AVERAGE MISS PENALTY: 158.627
LLC0 RFO       ACCESS: 14700  HIT:     0  MISS: 14700  HIT %:     0  MISS %:   100  AVERAGE MISS PENALTY: 633.971
LLC0 PREFETCH  ACCESS: 93121  HIT: 60264  MISS: 32857  HIT %: 64.7158  MISS %: 35.2842  AVERAGE MISS PENALTY: 186.422
LLC0 WRITEBACK ACCESS: 14699  HIT: 14682  MISS:    17  HIT %: 99.8843  MISS %: 0.115654  AVERAGE MISS PENALTY: 0
LLC0 PREFETCH  REQUESTED:     0  ISSUED:     0  USEFUL:   117  USELESS: 23042
 USEFUL LOAD PREFETCHES:        117 PREFETCH ISSUED TO LOWER LEVEL:      32857  ACCURACY: 0.356089
 TIMELY PREFETCHES:        117 LATE PREFETCHES: 0 DROPPED PREFETCHES: 0
LLC0 AVERAGE MISS LATENCY: 309.993 cycles
Deadblocks : 3141 Deadblock percentage : 68.2085

LLC1 TOTAL     ACCESS: 133288  HIT: 83089  MISS: 50199  HIT %: 62.3379  MISS %: 37.6621  AVERAGE MISS PENALTY: 331.619
LLC1 LOAD      ACCESS:   980  HIT:   514  MISS:   466  HIT %: 52.449  MISS %: 47.551  AVERAGE MISS PENALTY: 192.721
LLC1 RFO       ACCESS: 14700  HIT:     0  MISS: 14700  HIT %:     0  MISS %:   100  AVERAGE MISS PENALTY: 688.156
LLC1 PREFETCH  ACCESS: 102904  HIT: 67883  MISS: 35021  HIT %: 65.9673  MISS %: 34.0327  AVERAGE MISS PENALTY: 183.926
LLC1 WRITEBACK ACCESS: 14704  HIT: 14692  MISS:    12  HIT %: 99.9184  MISS %: 0.0816104  AVERAGE MISS PENALTY: 0
LLC1 PREFETCH  REQUESTED:     0  ISSUED:     0  USEFUL:   175  USELESS: 24739
 USEFUL LOAD PREFETCHES:        175 PREFETCH ISSUED TO LOWER LEVEL:      35021  ACCURACY: 0.4997
 TIMELY PREFETCHES:        175 LATE PREFETCHES: 0 DROPPED PREFETCHES: 0
LLC1 AVERAGE MISS LATENCY: 331.619 cycles
LLC2 TOTAL     ACCESS: 133124  HIT: 83122  MISS: 50002  HIT %: 62.4395  MISS %: 37.5605  AVERAGE MISS PENALTY: 332.119
LLC2 LOAD      ACCESS:  1085  HIT:   647  MISS:   438  HIT %: 59.6313  MISS %: 40.3687  AVERAGE MISS PENALTY: 186.265
LLC2 RFO       ACCESS: 14700  HIT:     0  MISS: 14700  HIT %:     0  MISS %:   100  AVERAGE MISS PENALTY: 688.456
LLC2 PREFETCH  ACCESS: 102661  HIT: 67805  MISS: 34856  HIT %: 66.0475  MISS %: 33.9525  AVERAGE MISS PENALTY: 183.748
LLC2 WRITEBACK ACCESS: 14678  HIT: 14670  MISS:     8  HIT %: 99.9455  MISS %: 0.0545033  AVERAGE MISS PENALTY: 0
LLC2 PREFETCH  REQUESTED:     0  ISSUED:     0  USEFUL:   169  USELESS: 24653
 USEFUL LOAD PREFETCHES:        169 PREFETCH ISSUED TO LOWER LEVEL:      34856  ACCURACY: 0.484852
 TIMELY PREFETCHES:        169 LATE PREFETCHES: 0 DROPPED PREFETCHES: 0
LLC2 AVERAGE MISS LATENCY: 332.119 cycles
LLC3 TOTAL     ACCESS: 135976  HIT: 85381  MISS: 50595  HIT %: 62.7912  MISS %: 37.2088  AVERAGE MISS PENALTY: 332.311
LLC3 LOAD      ACCESS:  2535  HIT:  2124  MISS:   411  HIT %: 83.787  MISS %: 16.213  AVERAGE MISS PENALTY: 190.74
LLC3 RFO       ACCESS: 14725  HIT:     0  MISS: 14725  HIT %:     0  MISS %:   100  AVERAGE MISS PENALTY: 687.232
LLC3 PREFETCH  ACCESS: 103944  HIT: 68491  MISS: 35453  HIT %: 65.8922  MISS %: 34.1078  AVERAGE MISS PENALTY: 186.596
LLC3 WRITEBACK ACCESS: 14772  HIT: 14766  MISS:     6  HIT %: 99.9594  MISS %: 0.0406174  AVERAGE MISS PENALTY: 0
LLC3 PREFETCH  REQUESTED:     0  ISSUED:     0  USEFUL:   136  USELESS: 25100
 USEFUL LOAD PREFETCHES:        136 PREFETCH ISSUED TO LOWER LEVEL:      35453  ACCURACY: 0.383606
 TIMELY PREFETCHES:        136 LATE PREFETCHES: 0 DROPPED PREFETCHES: 0
LLC3 AVERAGE MISS LATENCY: 332.311 cycles
LLC4 TOTAL     ACCESS: 133834  HIT: 83596  MISS: 50238  HIT %: 62.4625  MISS %: 37.5375  AVERAGE MISS PENALTY: 332.387
LLC4 LOAD      ACCESS:  1092  HIT:   672  MISS:   420  HIT %: 61.5385  MISS %: 38.4615  AVERAGE MISS PENALTY: 201.39
LLC4 RFO       ACCESS: 14702  HIT:     2  MISS: 14700  HIT %: 0.0136036  MISS %: 99.9864  AVERAGE MISS PENALTY: 687.954
LLC4 PREFETCH  ACCESS: 103359  HIT: 68248  MISS: 35111  HIT %: 66.0301  MISS %: 33.9699  AVERAGE MISS PENALTY: 185.154
LLC4 WRITEBACK ACCESS: 14681  HIT: 14674  MISS:     7  HIT %: 99.9523  MISS %: 0.0476807  AVERAGE MISS PENALTY: 0
LLC4 PREFETCH  REQUESTED:     0  ISSUED:     0  USEFUL:   146  USELESS: 25016
 USEFUL LOAD PREFETCHES:        146 PREFETCH ISSUED TO LOWER LEVEL:      35111  ACCURACY: 0.415824
 TIMELY PREFETCHES:        146 LATE PREFETCHES: 0 DROPPED PREFETCHES: 0
LLC4 AVERAGE MISS LATENCY: 332.387 cycles
LLC5 TOTAL     ACCESS: 133798  HIT: 84143  MISS: 49655  HIT %: 62.8881  MISS %: 37.1119  AVERAGE MISS PENALTY: 335.527
LLC5 LOAD      ACCESS:  1139  HIT:   747  MISS:   392  HIT %: 65.5838  MISS %: 34.4162  AVERAGE MISS PENALTY: 190.742
LLC5 RFO       ACCESS: 14725  HIT:     0  MISS: 14725  HIT %:     0  MISS %:   100  AVERAGE MISS PENALTY: 688.416
LLC5 PREFETCH  ACCESS: 103223  HIT: 68687  MISS: 34536  HIT %: 66.5423  MISS %: 33.4577  AVERAGE MISS PENALTY: 186.73
LLC5 WRITEBACK ACCESS: 14711  HIT: 14709  MISS:     2  HIT %: 99.9864  MISS %: 0.0135953  AVERAGE MISS PENALTY: 0
LLC5 PREFETCH  REQUESTED:     0  ISSUED:     0  USEFUL:   144  USELESS: 24485
 USEFUL LOAD PREFETCHES:        144 PREFETCH ISSUED TO LOWER LEVEL:      34536  ACCURACY: 0.416956
 TIMELY PREFETCHES:        144 LATE PREFETCHES: 0 DROPPED PREFETCHES: 0
LLC5 AVERAGE MISS LATENCY: 335.527 cycles
LLC6 TOTAL     ACCESS: 134373  HIT: 84387  MISS: 49986  HIT %: 62.8006  MISS %: 37.1994  AVERAGE MISS PENALTY: 334.855
LLC6 LOAD      ACCESS:  1087  HIT:   676  MISS:   411  HIT %: 62.1895  MISS %: 37.8105  AVERAGE MISS PENALTY: 190.467
LLC6 RFO       ACCESS: 14726  HIT:     1  MISS: 14725  HIT %: 0.00679071  MISS %: 99.9932  AVERAGE MISS PENALTY: 688.672
LLC6 PREFETCH  ACCESS: 103850  HIT: 69002  MISS: 34848  HIT %: 66.4439  MISS %: 33.5561  AVERAGE MISS PENALTY: 187.072
LLC6 WRITEBACK ACCESS: 14710  HIT: 14708  MISS:     2  HIT %: 99.9864  MISS %: 0.0135962  AVERAGE MISS PENALTY: 0
LLC6 PREFETCH  REQUESTED:     0  ISSUED:     0  USEFUL:   138  USELESS: 24753
 USEFUL LOAD PREFETCHES:        138 PREFETCH ISSUED TO LOWER LEVEL:      34848  ACCURACY: 0.396006
 TIMELY PREFETCHES:        138 LATE PREFETCHES: 0 DROPPED PREFETCHES: 0
LLC6 AVERAGE MISS LATENCY: 334.855 cycles
LLC7 TOTAL     ACCESS: 136697  HIT: 85577  MISS: 51120  HIT %: 62.6034  MISS %: 37.3966  AVERAGE MISS PENALTY: 331.829
LLC7 LOAD      ACCESS:  1183  HIT:   766  MISS:   417  HIT %: 64.7506  MISS %: 35.2494  AVERAGE MISS PENALTY: 194.707
LLC7 RFO       ACCESS: 14728  HIT:     3  MISS: 14725  HIT %: 0.0203694  MISS %: 99.9796  AVERAGE MISS PENALTY: 687.839
LLC7 PREFETCH  ACCESS: 105928  HIT: 69954  MISS: 35974  HIT %: 66.0392  MISS %: 33.9608  AVERAGE MISS PENALTY: 187.732
LLC7 WRITEBACK ACCESS: 14858  HIT: 14854  MISS:     4  HIT %: 99.9731  MISS %: 0.0269215  AVERAGE MISS PENALTY: 0
LLC7 PREFETCH  REQUESTED:     0  ISSUED:     0  USEFUL:   142  USELESS: 25615
 USEFUL LOAD PREFETCHES:        142 PREFETCH ISSUED TO LOWER LEVEL:      35974  ACCURACY: 0.39473
 TIMELY PREFETCHES:        142 LATE PREFETCHES: 0 DROPPED PREFETCHES: 0
LLC7 AVERAGE MISS LATENCY: 331.829 cycles
ROI Average ROB Stall Cycles:	5.78616
ROI Total ROB Stalls Cycles:	127296739
ROI TOTAL ROB counter      :	22000224
ROI Average Load ROB Stall Cycles:	11.9503
ROI Total Load ROB Stalls Cycle  :	38744829
ROI Total Load ROB stalls Counter:	3242158
Major fault: 0 Minor fault: 11251

