
*** ChampSim Multicore Out-of-Order Simulator ***

Warmup Instructions: 200000000
Simulation Instructions: 200000000
Number of CPUs: 1
threads:1

L1I Configuration:
L1I_SET:64
L1I_WAY:8
L1I_RQ_SIZE:64
L1I_WQ_SIZE:64
L1I_PQ_SIZE:8
L1I_MSHR_SIZE:8

L1D Configuration:
L1D_SET:64
L1D_WAY:12
L1D_RQ_SIZE:64
L1D_WQ_SIZE:64
L1D_PQ_SIZE:8
L1D_MSHR_SIZE:16

L2C Configuration:
L2C_SET:1024
L2C_WAY:8
L2C_RQ_SIZE:32
L2C_WQ_SIZE:32
L2C_PQ_SIZE:16
L2C_MSHR_SIZE:32

LLC Configuration:
LLC_SET:4096
LLC_WAY:16
LLC SLICES:8
LLC_RQ_SIZE:64
LLC_WQ_SIZE:64
LLC_PQ_SIZE:32
LLC_MSHR_SIZE:64

Interconnect OFF
Attacker deprioritize is: OFF
Off-chip DRAM Size: 4096 MB Channels: 1 Width: 64-bit Data Rate: 3200 MT/s
PAGE SIZE in KB: 4.000000 
PAGE SIZE in MB: 0.003906 
PAGE offset in bits: 12 
CEASER-S_LLC:0
MIRAGE : 0
CEASER_LATENCY:3
REMAP : OFF
Partitions : 1
Multi-Step : OFF
BFS : OFF

CPU 0 runs /home/anubhav/spec_2017/654.roms_s-523B.champsimtrace.xz
CPU 0 Bimodal branch predictor
Initialize Hawkeye state
Initialize Hawkeye state
Initialize Hawkeye state
Initialize Hawkeye state
Initialize Hawkeye state
Initialize Hawkeye state
Initialize Hawkeye state
Initialize Hawkeye state
Heartbeat CPU 0 instructions: 10000001 cycles: 4579853 heartbeat IPC: 2.18348 cumulative IPC: 2.18348 (Simulation time: 0 hr 0 min 47 sec) 
 Total Blocks : 524288 Invalid Blocks : 401825
Heartbeat CPU 0 instructions: 20000003 cycles: 9027093 heartbeat IPC: 2.24859 cumulative IPC: 2.21555 (Simulation time: 0 hr 1 min 33 sec) 
 Total Blocks : 524288 Invalid Blocks : 329957
Heartbeat CPU 0 instructions: 30000001 cycles: 14181125 heartbeat IPC: 1.94023 cumulative IPC: 2.11549 (Simulation time: 0 hr 4 min 22 sec) 
 Total Blocks : 524288 Invalid Blocks : 213945
Heartbeat CPU 0 instructions: 40000003 cycles: 18581125 heartbeat IPC: 2.27273 cumulative IPC: 2.15272 (Simulation time: 0 hr 7 min 28 sec) 
 Total Blocks : 524288 Invalid Blocks : 148049
Heartbeat CPU 0 instructions: 50000002 cycles: 23686829 heartbeat IPC: 1.95859 cumulative IPC: 2.11088 (Simulation time: 0 hr 10 min 40 sec) 
 Total Blocks : 524288 Invalid Blocks : 129991
Heartbeat CPU 0 instructions: 60000000 cycles: 28766588 heartbeat IPC: 1.9686 cumulative IPC: 2.08575 (Simulation time: 0 hr 14 min 11 sec) 
 Total Blocks : 524288 Invalid Blocks : 103285
Heartbeat CPU 0 instructions: 70000000 cycles: 33682908 heartbeat IPC: 2.03404 cumulative IPC: 2.07821 (Simulation time: 0 hr 17 min 6 sec) 
 Total Blocks : 524288 Invalid Blocks : 79902
Heartbeat CPU 0 instructions: 80000001 cycles: 38632460 heartbeat IPC: 2.02039 cumulative IPC: 2.0708 (Simulation time: 0 hr 19 min 53 sec) 
 Total Blocks : 524288 Invalid Blocks : 71747
Heartbeat CPU 0 instructions: 90000002 cycles: 43236278 heartbeat IPC: 2.17211 cumulative IPC: 2.08159 (Simulation time: 0 hr 22 min 6 sec) 
 Total Blocks : 524288 Invalid Blocks : 63470
Heartbeat CPU 0 instructions: 100000000 cycles: 47655407 heartbeat IPC: 2.26289 cumulative IPC: 2.0984 (Simulation time: 0 hr 23 min 58 sec) 
 Total Blocks : 524288 Invalid Blocks : 57089
Heartbeat CPU 0 instructions: 110000000 cycles: 52802678 heartbeat IPC: 1.94278 cumulative IPC: 2.08323 (Simulation time: 0 hr 27 min 43 sec) 
 Total Blocks : 524288 Invalid Blocks : 38458
Heartbeat CPU 0 instructions: 120000002 cycles: 57222841 heartbeat IPC: 2.26236 cumulative IPC: 2.09706 (Simulation time: 0 hr 31 min 37 sec) 
 Total Blocks : 524288 Invalid Blocks : 26495
Heartbeat CPU 0 instructions: 130000000 cycles: 62307039 heartbeat IPC: 1.96688 cumulative IPC: 2.08644 (Simulation time: 0 hr 34 min 49 sec) 
 Total Blocks : 524288 Invalid Blocks : 23434
Heartbeat CPU 0 instructions: 140000002 cycles: 67353367 heartbeat IPC: 1.98164 cumulative IPC: 2.07859 (Simulation time: 0 hr 38 min 4 sec) 
 Total Blocks : 524288 Invalid Blocks : 19111
Heartbeat CPU 0 instructions: 150000003 cycles: 72296819 heartbeat IPC: 2.02288 cumulative IPC: 2.07478 (Simulation time: 0 hr 40 min 56 sec) 
 Total Blocks : 524288 Invalid Blocks : 15346
Heartbeat CPU 0 instructions: 160000001 cycles: 77238662 heartbeat IPC: 2.02354 cumulative IPC: 2.0715 (Simulation time: 0 hr 43 min 45 sec) 
 Total Blocks : 524288 Invalid Blocks : 14338
Heartbeat CPU 0 instructions: 170000002 cycles: 81864583 heartbeat IPC: 2.16173 cumulative IPC: 2.0766 (Simulation time: 0 hr 46 min 3 sec) 
 Total Blocks : 524288 Invalid Blocks : 13074
Heartbeat CPU 0 instructions: 180000002 cycles: 86249885 heartbeat IPC: 2.28034 cumulative IPC: 2.08696 (Simulation time: 0 hr 47 min 55 sec) 
 Total Blocks : 524288 Invalid Blocks : 12111
Heartbeat CPU 0 instructions: 190000001 cycles: 91403496 heartbeat IPC: 1.94039 cumulative IPC: 2.0787 (Simulation time: 0 hr 51 min 43 sec) 
 Total Blocks : 524288 Invalid Blocks : 8618
Heartbeat CPU 0 instructions: 200000000 cycles: 95847064 heartbeat IPC: 2.25044 cumulative IPC: 2.08666 (Simulation time: 0 hr 55 min 53 sec) 
 Total Blocks : 524288 Invalid Blocks : 6309

Warmup complete CPU 0 instructions: 200000004 cycles: 95847065 (Simulation time: 0 hr 55 min 53 sec) 

Heartbeat CPU 0 instructions: 210000002 cycles: 103677737 heartbeat IPC: 1.27703 cumulative IPC: 1.27703 (Simulation time: 0 hr 59 min 39 sec) 
 Total Blocks : 524288 Invalid Blocks : 5631
Heartbeat CPU 0 instructions: 220000000 cycles: 112183262 heartbeat IPC: 1.17571 cumulative IPC: 1.22427 (Simulation time: 1 hr 3 min 25 sec) 
 Total Blocks : 524288 Invalid Blocks : 4659
Heartbeat CPU 0 instructions: 230000001 cycles: 120621398 heartbeat IPC: 1.1851 cumulative IPC: 1.21093 (Simulation time: 1 hr 6 min 47 sec) 
 Total Blocks : 524288 Invalid Blocks : 3882
Heartbeat CPU 0 instructions: 240000003 cycles: 127665171 heartbeat IPC: 1.41969 cumulative IPC: 1.25715 (Simulation time: 1 hr 9 min 56 sec) 
 Total Blocks : 524288 Invalid Blocks : 3697
Heartbeat CPU 0 instructions: 250000000 cycles: 134579497 heartbeat IPC: 1.44627 cumulative IPC: 1.29091 (Simulation time: 1 hr 13 min 6 sec) 
 Total Blocks : 524288 Invalid Blocks : 3399
Heartbeat CPU 0 instructions: 260000003 cycles: 141375150 heartbeat IPC: 1.47153 cumulative IPC: 1.31787 (Simulation time: 1 hr 15 min 50 sec) 
 Total Blocks : 524288 Invalid Blocks : 3228
Heartbeat CPU 0 instructions: 270000000 cycles: 151873032 heartbeat IPC: 0.952573 cumulative IPC: 1.24942 (Simulation time: 1 hr 21 min 11 sec) 
 Total Blocks : 524288 Invalid Blocks : 2441
Heartbeat CPU 0 instructions: 280000001 cycles: 162030848 heartbeat IPC: 0.984464 cumulative IPC: 1.20876 (Simulation time: 1 hr 27 min 40 sec) 
 Total Blocks : 524288 Invalid Blocks : 1873
Heartbeat CPU 0 instructions: 290000000 cycles: 169917445 heartbeat IPC: 1.26797 cumulative IPC: 1.21506 (Simulation time: 1 hr 31 min 32 sec) 
 Total Blocks : 524288 Invalid Blocks : 1678
Heartbeat CPU 0 instructions: 300000000 cycles: 178370414 heartbeat IPC: 1.18302 cumulative IPC: 1.21178 (Simulation time: 1 hr 35 min 34 sec) 
 Total Blocks : 524288 Invalid Blocks : 1417
Heartbeat CPU 0 instructions: 310000000 cycles: 186863427 heartbeat IPC: 1.17744 cumulative IPC: 1.20857 (Simulation time: 1 hr 39 min 1 sec) 
 Total Blocks : 524288 Invalid Blocks : 1210
Heartbeat CPU 0 instructions: 320000003 cycles: 193944141 heartbeat IPC: 1.41229 cumulative IPC: 1.22328 (Simulation time: 1 hr 42 min 9 sec) 
 Total Blocks : 524288 Invalid Blocks : 1159
Heartbeat CPU 0 instructions: 330000000 cycles: 200884215 heartbeat IPC: 1.44091 cumulative IPC: 1.23766 (Simulation time: 1 hr 44 min 59 sec) 
 Total Blocks : 524288 Invalid Blocks : 1083
Heartbeat CPU 0 instructions: 340000003 cycles: 207555968 heartbeat IPC: 1.49886 cumulative IPC: 1.25326 (Simulation time: 1 hr 47 min 26 sec) 
 Total Blocks : 524288 Invalid Blocks : 1061
Heartbeat CPU 0 instructions: 350000001 cycles: 218109486 heartbeat IPC: 0.947551 cumulative IPC: 1.22687 (Simulation time: 1 hr 52 min 8 sec) 
 Total Blocks : 524288 Invalid Blocks : 832
Heartbeat CPU 0 instructions: 360000003 cycles: 228317402 heartbeat IPC: 0.979632 cumulative IPC: 1.20782 (Simulation time: 1 hr 57 min 49 sec) 
 Total Blocks : 524288 Invalid Blocks : 640
Heartbeat CPU 0 instructions: 370000000 cycles: 236302011 heartbeat IPC: 1.25241 cumulative IPC: 1.21035 (Simulation time: 2 hr 1 min 14 sec) 
 Total Blocks : 524288 Invalid Blocks : 570
Heartbeat CPU 0 instructions: 380000002 cycles: 244726679 heartbeat IPC: 1.18699 cumulative IPC: 1.20903 (Simulation time: 2 hr 4 min 56 sec) 
 Total Blocks : 524288 Invalid Blocks : 481
Heartbeat CPU 0 instructions: 390000003 cycles: 253280658 heartbeat IPC: 1.16905 cumulative IPC: 1.20686 (Simulation time: 2 hr 7 min 57 sec) 
 Total Blocks : 524288 Invalid Blocks : 420
Heartbeat CPU 0 instructions: 400000001 cycles: 260410752 heartbeat IPC: 1.40251 cumulative IPC: 1.21533 (Simulation time: 2 hr 10 min 44 sec) 
 Total Blocks : 524288 Invalid Blocks : 399
Finished CPU 0 instructions: 200000001 cycles: 164563688 cumulative IPC: 1.21534 (Simulation time: 2 hr 10 min 44 sec) 

CPU 0 Branch Prediction Accuracy: 99.8572% MPKI: 0.09689 Average ROB Occupancy at Mispredict: 348.143

ChampSim completed all CPUs

Region of Interest Statistics

CPU 0 cumulative IPC: 1.21534 instructions: 200000001 cycles: 164563688
ITLB TOTAL     ACCESS: 34815043  HIT: 34815043  MISS:     0  HIT %:   100  MISS %:     0  AVERAGE MISS PENALTY: 0
ITLB LOAD      ACCESS: 34815043  HIT: 34815043  MISS:     0  HIT %:   100  MISS %:     0  AVERAGE MISS PENALTY: 0
ITLB RFO       ACCESS:     0  HIT:     0  MISS:     0  HIT %:     0  MISS %:     0  AVERAGE MISS PENALTY: 0
ITLB PREFETCH  ACCESS:     0  HIT:     0  MISS:     0  HIT %:     0  MISS %:     0  AVERAGE MISS PENALTY: 0
ITLB WRITEBACK ACCESS:     0  HIT:     0  MISS:     0  HIT %:     0  MISS %:     0  AVERAGE MISS PENALTY: 0
ITLB PREFETCH  REQUESTED:     0  ISSUED:     0  USEFUL:     0  USELESS:     0
 USEFUL LOAD PREFETCHES:          0 PREFETCH ISSUED TO LOWER LEVEL:          0  ACCURACY: -nan
 TIMELY PREFETCHES:          0 LATE PREFETCHES: 0 DROPPED PREFETCHES: 0
ITLB AVERAGE MISS LATENCY: -nan cycles
DTLB TOTAL     ACCESS: 55317004  HIT: 55215657  MISS: 101347  HIT %: 99.8168  MISS %: 0.183211  AVERAGE MISS PENALTY: 118.669
DTLB LOAD      ACCESS: 47979413  HIT: 47896819  MISS: 82594  HIT %: 99.8279  MISS %: 0.172145  AVERAGE MISS PENALTY: 120.71
DTLB RFO       ACCESS: 7337591  HIT: 7318838  MISS: 18753  HIT %: 99.7444  MISS %: 0.255574  AVERAGE MISS PENALTY: 109.677
DTLB PREFETCH  ACCESS:     0  HIT:     0  MISS:     0  HIT %:     0  MISS %:     0  AVERAGE MISS PENALTY: 0
DTLB WRITEBACK ACCESS:     0  HIT:     0  MISS:     0  HIT %:     0  MISS %:     0  AVERAGE MISS PENALTY: 0
DTLB PREFETCH  REQUESTED:     0  ISSUED:     0  USEFUL:     0  USELESS:     0
 USEFUL LOAD PREFETCHES:          0 PREFETCH ISSUED TO LOWER LEVEL:          0  ACCURACY: -nan
 TIMELY PREFETCHES:          0 LATE PREFETCHES: 0 DROPPED PREFETCHES: 0
DTLB AVERAGE MISS LATENCY: 118.669 cycles
STLB TOTAL     ACCESS: 101347  HIT:   737  MISS: 100610  HIT %: 0.727205  MISS %: 99.2728  AVERAGE MISS PENALTY: 100
STLB LOAD      ACCESS: 82594  HIT:   735  MISS: 81859  HIT %: 0.889895  MISS %: 99.1101  AVERAGE MISS PENALTY: 100
STLB RFO       ACCESS: 18753  HIT:     2  MISS: 18751  HIT %: 0.010665  MISS %: 99.9893  AVERAGE MISS PENALTY: 100
STLB PREFETCH  ACCESS:     0  HIT:     0  MISS:     0  HIT %:     0  MISS %:     0  AVERAGE MISS PENALTY: 0
STLB WRITEBACK ACCESS:     0  HIT:     0  MISS:     0  HIT %:     0  MISS %:     0  AVERAGE MISS PENALTY: 0
STLB PREFETCH  REQUESTED:     0  ISSUED:     0  USEFUL:     0  USELESS:     0
 USEFUL LOAD PREFETCHES:          0 PREFETCH ISSUED TO LOWER LEVEL:          0  ACCURACY: -nan
 TIMELY PREFETCHES:          0 LATE PREFETCHES: 0 DROPPED PREFETCHES: 0
STLB AVERAGE MISS LATENCY: 100 cycles
L1D TOTAL     ACCESS: 67666594  HIT: 63108488  MISS: 4558106  HIT %: 93.2639  MISS %: 6.73612  AVERAGE MISS PENALTY: 4.63906e+06
L1D LOAD      ACCESS: 44574301  HIT: 44356104  MISS: 218197  HIT %: 99.5105  MISS %: 0.489513  AVERAGE MISS PENALTY: 9.6906e+07
L1D RFO       ACCESS: 5082549  HIT: 3884795  MISS: 1197754  HIT %: 76.434  MISS %: 23.566  AVERAGE MISS PENALTY: 494.689
L1D PREFETCH  ACCESS: 18009744  HIT: 14867589  MISS: 3142155  HIT %: 82.553  MISS %: 17.447  AVERAGE MISS PENALTY: 46.8102
L1D WRITEBACK ACCESS:     0  HIT:     0  MISS:     0  HIT %:     0  MISS %:     0  AVERAGE MISS PENALTY: 0
L1D PREFETCH  REQUESTED: 21102627  ISSUED: 20782828  USEFUL: 3020270  USELESS: 121882
 USEFUL LOAD PREFETCHES:    3020270 PREFETCH ISSUED TO LOWER LEVEL:    6194840  ACCURACY: 48.7546
 TIMELY PREFETCHES:    3020270 LATE PREFETCHES: 149571 DROPPED PREFETCHES: 319799
L1D AVERAGE MISS LATENCY: 170.309 cycles
L1I TOTAL     ACCESS: 48108123  HIT: 48108123  MISS:     0  HIT %:   100  MISS %:     0  AVERAGE MISS PENALTY: 0
L1I LOAD      ACCESS: 48108123  HIT: 48108123  MISS:     0  HIT %:   100  MISS %:     0  AVERAGE MISS PENALTY: 0
L1I RFO       ACCESS:     0  HIT:     0  MISS:     0  HIT %:     0  MISS %:     0  AVERAGE MISS PENALTY: 0
L1I PREFETCH  ACCESS:     0  HIT:     0  MISS:     0  HIT %:     0  MISS %:     0  AVERAGE MISS PENALTY: 0
L1I WRITEBACK ACCESS:     0  HIT:     0  MISS:     0  HIT %:     0  MISS %:     0  AVERAGE MISS PENALTY: 0
L1I PREFETCH  REQUESTED:     0  ISSUED:     0  USEFUL:     0  USELESS:     0
 USEFUL LOAD PREFETCHES:          0 PREFETCH ISSUED TO LOWER LEVEL:          0  ACCURACY: -nan
 TIMELY PREFETCHES:          0 LATE PREFETCHES: 0 DROPPED PREFETCHES: 0
L1I AVERAGE MISS LATENCY: -nan cycles
L2C TOTAL     ACCESS: 14452207  HIT: 9786631  MISS: 4665576  HIT %: 67.7172  MISS %: 32.2828  AVERAGE MISS PENALTY: 3.90181e+06
L2C LOAD      ACCESS: 207816  HIT:  2815  MISS: 205001  HIT %: 1.35456  MISS %: 98.6454  AVERAGE MISS PENALTY: 8.8797e+07
L2C RFO       ACCESS: 1197752  HIT:    14  MISS: 1197738  HIT %: 0.00116886  MISS %: 99.9988  AVERAGE MISS PENALTY: 204.046
L2C PREFETCH  ACCESS: 11582297  HIT: 8319527  MISS: 3262770  HIT %: 71.8297  MISS %: 28.1703  AVERAGE MISS PENALTY: 145.07
L2C WRITEBACK ACCESS: 1464342  HIT: 1464275  MISS:    67  HIT %: 99.9954  MISS %: 0.00457543  AVERAGE MISS PENALTY: 0
L2C PREFETCH  REQUESTED: 11421911  ISSUED: 11419520  USEFUL:  1296  USELESS: 3261556
 USEFUL LOAD PREFETCHES:       1296 PREFETCH ISSUED TO LOWER LEVEL:    4942691  ACCURACY: 0.0262205
 TIMELY PREFETCHES:       1296 LATE PREFETCHES: 120899 DROPPED PREFETCHES: 2391
L2C AVERAGE MISS LATENCY: 161.017 cycles
LLC0 TOTAL     ACCESS: 764454  HIT: 492817  MISS: 271637  HIT %: 64.4665  MISS %: 35.5335  AVERAGE MISS PENALTY: 275.77
LLC0 LOAD      ACCESS: 56328  HIT: 34379  MISS: 21949  HIT %: 61.0336  MISS %: 38.9664  AVERAGE MISS PENALTY: 253.193
LLC0 RFO       ACCESS: 149715  HIT: 52234  MISS: 97481  HIT %: 34.889  MISS %: 65.111  AVERAGE MISS PENALTY: 250.498
LLC0 PREFETCH  ACCESS: 375460  HIT: 223906  MISS: 151554  HIT %: 59.6351  MISS %: 40.3649  AVERAGE MISS PENALTY: 296.484
LLC0 WRITEBACK ACCESS: 182951  HIT: 182298  MISS:   653  HIT %: 99.6431  MISS %: 0.356926  AVERAGE MISS PENALTY: 0
LLC0 PREFETCH  REQUESTED:     0  ISSUED:     0  USEFUL: 11231  USELESS: 147818
 USEFUL LOAD PREFETCHES:      11231 PREFETCH ISSUED TO LOWER LEVEL:     151554  ACCURACY: 7.41056
 TIMELY PREFETCHES:      11231 LATE PREFETCHES: 0 DROPPED PREFETCHES: 0
LLC0 AVERAGE MISS LATENCY: 275.77 cycles
Deadblocks : 11494 Deadblock percentage : 52.3669

LLC1 TOTAL     ACCESS: 764967  HIT: 495113  MISS: 269854  HIT %: 64.7234  MISS %: 35.2766  AVERAGE MISS PENALTY: 279.311
LLC1 LOAD      ACCESS: 12118  HIT:  5710  MISS:  6408  HIT %: 47.12  MISS %: 52.88  AVERAGE MISS PENALTY: 276.402
LLC1 RFO       ACCESS: 149714  HIT: 51424  MISS: 98290  HIT %: 34.3482  MISS %: 65.6518  AVERAGE MISS PENALTY: 251.774
LLC1 PREFETCH  ACCESS: 420185  HIT: 255493  MISS: 164692  HIT %: 60.8049  MISS %: 39.1951  AVERAGE MISS PENALTY: 296.646
LLC1 WRITEBACK ACCESS: 182950  HIT: 182486  MISS:   464  HIT %: 99.7464  MISS %: 0.253621  AVERAGE MISS PENALTY: 0
LLC1 PREFETCH  REQUESTED:     0  ISSUED:     0  USEFUL: 13503  USELESS: 161205
 USEFUL LOAD PREFETCHES:      13503 PREFETCH ISSUED TO LOWER LEVEL:     164692  ACCURACY: 8.19894
 TIMELY PREFETCHES:      13503 LATE PREFETCHES: 0 DROPPED PREFETCHES: 0
LLC1 AVERAGE MISS LATENCY: 279.311 cycles
LLC2 TOTAL     ACCESS: 765604  HIT: 497419  MISS: 268185  HIT %: 64.9708  MISS %: 35.0292  AVERAGE MISS PENALTY: 282.276
LLC2 LOAD      ACCESS:  6626  HIT:  3234  MISS:  3392  HIT %: 48.8077  MISS %: 51.1923  AVERAGE MISS PENALTY: 311.451
LLC2 RFO       ACCESS: 149725  HIT: 51241  MISS: 98484  HIT %: 34.2234  MISS %: 65.7766  AVERAGE MISS PENALTY: 252.97
LLC2 PREFETCH  ACCESS: 426261  HIT: 260354  MISS: 165907  HIT %: 61.0785  MISS %: 38.9215  AVERAGE MISS PENALTY: 299.759
LLC2 WRITEBACK ACCESS: 182992  HIT: 182590  MISS:   402  HIT %: 99.7803  MISS %: 0.219682  AVERAGE MISS PENALTY: 0
LLC2 PREFETCH  REQUESTED:     0  ISSUED:     0  USEFUL: 12179  USELESS: 162544
 USEFUL LOAD PREFETCHES:      12179 PREFETCH ISSUED TO LOWER LEVEL:     165907  ACCURACY: 7.34086
 TIMELY PREFETCHES:      12179 LATE PREFETCHES: 0 DROPPED PREFETCHES: 0
LLC2 AVERAGE MISS LATENCY: 282.276 cycles
LLC3 TOTAL     ACCESS: 765987  HIT: 497527  MISS: 268460  HIT %: 64.9524  MISS %: 35.0476  AVERAGE MISS PENALTY: 285.065
LLC3 LOAD      ACCESS:  6598  HIT:  3181  MISS:  3417  HIT %: 48.2116  MISS %: 51.7884  AVERAGE MISS PENALTY: 310.479
LLC3 RFO       ACCESS: 149715  HIT: 50425  MISS: 99290  HIT %: 33.6807  MISS %: 66.3193  AVERAGE MISS PENALTY: 254.299
LLC3 PREFETCH  ACCESS: 426708  HIT: 261280  MISS: 165428  HIT %: 61.2316  MISS %: 38.7684  AVERAGE MISS PENALTY: 303.567
LLC3 WRITEBACK ACCESS: 182966  HIT: 182641  MISS:   325  HIT %: 99.8224  MISS %: 0.177629  AVERAGE MISS PENALTY: 0
LLC3 PREFETCH  REQUESTED:     0  ISSUED:     0  USEFUL: 11877  USELESS: 162702
 USEFUL LOAD PREFETCHES:      11877 PREFETCH ISSUED TO LOWER LEVEL:     165429  ACCURACY: 7.17952
 TIMELY PREFETCHES:      11877 LATE PREFETCHES: 0 DROPPED PREFETCHES: 0
LLC3 AVERAGE MISS LATENCY: 285.065 cycles
LLC4 TOTAL     ACCESS: 766434  HIT: 497860  MISS: 268574  HIT %: 64.958  MISS %: 35.042  AVERAGE MISS PENALTY: 285.263
LLC4 LOAD      ACCESS:  6652  HIT:  3176  MISS:  3476  HIT %: 47.745  MISS %: 52.255  AVERAGE MISS PENALTY: 310.032
LLC4 RFO       ACCESS: 149718  HIT: 50507  MISS: 99211  HIT %: 33.7348  MISS %: 66.2652  AVERAGE MISS PENALTY: 254.428
LLC4 PREFETCH  ACCESS: 427088  HIT: 261523  MISS: 165565  HIT %: 61.234  MISS %: 38.766  AVERAGE MISS PENALTY: 303.775
LLC4 WRITEBACK ACCESS: 182976  HIT: 182654  MISS:   322  HIT %: 99.824  MISS %: 0.175979  AVERAGE MISS PENALTY: 0
LLC4 PREFETCH  REQUESTED:     0  ISSUED:     0  USEFUL: 11722  USELESS: 163144
 USEFUL LOAD PREFETCHES:      11722 PREFETCH ISSUED TO LOWER LEVEL:     165565  ACCURACY: 7.08
 TIMELY PREFETCHES:      11722 LATE PREFETCHES: 0 DROPPED PREFETCHES: 0
LLC4 AVERAGE MISS LATENCY: 285.263 cycles
LLC5 TOTAL     ACCESS: 766852  HIT: 498296  MISS: 268556  HIT %: 64.9794  MISS %: 35.0206  AVERAGE MISS PENALTY: 286.282
LLC5 LOAD      ACCESS:  6653  HIT:  3210  MISS:  3443  HIT %: 48.2489  MISS %: 51.7511  AVERAGE MISS PENALTY: 311.574
LLC5 RFO       ACCESS: 149717  HIT: 50492  MISS: 99225  HIT %: 33.725  MISS %: 66.275  AVERAGE MISS PENALTY: 254.191
LLC5 PREFETCH  ACCESS: 427505  HIT: 261912  MISS: 165593  HIT %: 61.2652  MISS %: 38.7348  AVERAGE MISS PENALTY: 305.495
LLC5 WRITEBACK ACCESS: 182977  HIT: 182682  MISS:   295  HIT %: 99.8388  MISS %: 0.161222  AVERAGE MISS PENALTY: 0
LLC5 PREFETCH  REQUESTED:     0  ISSUED:     0  USEFUL: 11752  USELESS: 163060
 USEFUL LOAD PREFETCHES:      11752 PREFETCH ISSUED TO LOWER LEVEL:     165593  ACCURACY: 7.09692
 TIMELY PREFETCHES:      11752 LATE PREFETCHES: 0 DROPPED PREFETCHES: 0
LLC5 AVERAGE MISS LATENCY: 286.282 cycles
LLC6 TOTAL     ACCESS: 767309  HIT: 498369  MISS: 268940  HIT %: 64.9502  MISS %: 35.0498  AVERAGE MISS PENALTY: 286.827
LLC6 LOAD      ACCESS:  6694  HIT:  3197  MISS:  3497  HIT %: 47.7592  MISS %: 52.2408  AVERAGE MISS PENALTY: 312.308
LLC6 RFO       ACCESS: 149716  HIT: 50896  MISS: 98820  HIT %: 33.995  MISS %: 66.005  AVERAGE MISS PENALTY: 254.681
LLC6 PREFETCH  ACCESS: 427931  HIT: 261617  MISS: 166314  HIT %: 61.1353  MISS %: 38.8647  AVERAGE MISS PENALTY: 305.924
LLC6 WRITEBACK ACCESS: 182968  HIT: 182659  MISS:   309  HIT %: 99.8311  MISS %: 0.168882  AVERAGE MISS PENALTY: 0
LLC6 PREFETCH  REQUESTED:     0  ISSUED:     0  USEFUL: 11836  USELESS: 163779
 USEFUL LOAD PREFETCHES:      11836 PREFETCH ISSUED TO LOWER LEVEL:     166314  ACCURACY: 7.11666
 TIMELY PREFETCHES:      11836 LATE PREFETCHES: 0 DROPPED PREFETCHES: 0
LLC6 AVERAGE MISS LATENCY: 286.827 cycles
LLC7 TOTAL     ACCESS: 767648  HIT: 497345  MISS: 270303  HIT %: 64.7882  MISS %: 35.2118  AVERAGE MISS PENALTY: 287.538
LLC7 LOAD      ACCESS:  6659  HIT:  3083  MISS:  3576  HIT %: 46.2982  MISS %: 53.7018  AVERAGE MISS PENALTY: 310.427
LLC7 RFO       ACCESS: 149719  HIT: 50624  MISS: 99095  HIT %: 33.8127  MISS %: 66.1873  AVERAGE MISS PENALTY: 255.131
LLC7 PREFETCH  ACCESS: 428305  HIT: 260981  MISS: 167324  HIT %: 60.9334  MISS %: 39.0666  AVERAGE MISS PENALTY: 306.77
LLC7 WRITEBACK ACCESS: 182965  HIT: 182657  MISS:   308  HIT %: 99.8317  MISS %: 0.168338  AVERAGE MISS PENALTY: 0
LLC7 PREFETCH  REQUESTED:     0  ISSUED:     0  USEFUL: 11816  USELESS: 164765
 USEFUL LOAD PREFETCHES:      11816 PREFETCH ISSUED TO LOWER LEVEL:     167324  ACCURACY: 7.06175
 TIMELY PREFETCHES:      11816 LATE PREFETCHES: 0 DROPPED PREFETCHES: 0
LLC7 AVERAGE MISS LATENCY: 287.538 cycles
ROI Average ROB Stall Cycles:	7.35683
ROI Total ROB Stalls Cycles:	118421037
ROI TOTAL ROB counter      :	16096740
ROI Average Load ROB Stall Cycles:	15.0751
ROI Total Load ROB Stalls Cycle  :	41391360
ROI Total Load ROB stalls Counter:	2745677
Major fault: 0 Minor fault: 49369

