
*** ChampSim Multicore Out-of-Order Simulator ***

Warmup Instructions: 200000000
Simulation Instructions: 200000000
Number of CPUs: 8
threads:1

L1I Configuration:
L1I_SET:64
L1I_WAY:8
L1I_RQ_SIZE:64
L1I_WQ_SIZE:64
L1I_PQ_SIZE:8
L1I_MSHR_SIZE:8

L1D Configuration:
L1D_SET:64
L1D_WAY:12
L1D_RQ_SIZE:64
L1D_WQ_SIZE:64
L1D_PQ_SIZE:8
L1D_MSHR_SIZE:16

L2C Configuration:
L2C_SET:1024
L2C_WAY:8
L2C_RQ_SIZE:32
L2C_WQ_SIZE:32
L2C_PQ_SIZE:16
L2C_MSHR_SIZE:32

LLC Configuration:
LLC_SET:2048
LLC_WAY:16
LLC SLICES:8
LLC_RQ_SIZE:64
LLC_WQ_SIZE:64
LLC_PQ_SIZE:32
LLC_MSHR_SIZE:64

Interconnect OFF
Attacker deprioritize is: OFF
Off-chip DRAM Size: 8192 MB Channels: 2 Width: 64-bit Data Rate: 3200 MT/s
PAGE SIZE in KB: 4.000000 
PAGE SIZE in MB: 0.003906 
PAGE offset in bits: 12 
CEASER-S_LLC:0
MIRAGE : 0
CEASER_LATENCY:3
REMAP : OFF
Partitions : 1
Multi-Step : OFF
BFS : OFF

CPU 0 runs /home/anubhav/gap/bc-3.trace.gz
CPU 1 runs /home/anubhav/gap/bc-3.trace.gz
CPU 2 runs /home/anubhav/gap/bc-3.trace.gz
CPU 3 runs /home/anubhav/gap/bc-3.trace.gz
CPU 4 runs /home/anubhav/gap/bc-3.trace.gz
CPU 5 runs /home/anubhav/gap/bc-3.trace.gz
CPU 6 runs /home/anubhav/gap/bc-3.trace.gz
CPU 7 runs /home/anubhav/gap/bc-3.trace.gz
CPU 0 Bimodal branch predictor
Initialize Hawkeye state
Initialize Hawkeye state
Initialize Hawkeye state
Initialize Hawkeye state
Initialize Hawkeye state
Initialize Hawkeye state
Initialize Hawkeye state
Initialize Hawkeye state
CPU 1 Bimodal branch predictor
Initialize Hawkeye state
Initialize Hawkeye state
Initialize Hawkeye state
Initialize Hawkeye state
Initialize Hawkeye state
Initialize Hawkeye state
Initialize Hawkeye state
Initialize Hawkeye state
CPU 2 Bimodal branch predictor
Initialize Hawkeye state
Initialize Hawkeye state
Initialize Hawkeye state
Initialize Hawkeye state
Initialize Hawkeye state
Initialize Hawkeye state
Initialize Hawkeye state
Initialize Hawkeye state
CPU 3 Bimodal branch predictor
Initialize Hawkeye state
Initialize Hawkeye state
Initialize Hawkeye state
Initialize Hawkeye state
Initialize Hawkeye state
Initialize Hawkeye state
Initialize Hawkeye state
Initialize Hawkeye state
CPU 4 Bimodal branch predictor
Initialize Hawkeye state
Initialize Hawkeye state
Initialize Hawkeye state
Initialize Hawkeye state
Initialize Hawkeye state
Initialize Hawkeye state
Initialize Hawkeye state
Initialize Hawkeye state
CPU 5 Bimodal branch predictor
Initialize Hawkeye state
Initialize Hawkeye state
Initialize Hawkeye state
Initialize Hawkeye state
Initialize Hawkeye state
Initialize Hawkeye state
Initialize Hawkeye state
Initialize Hawkeye state
CPU 6 Bimodal branch predictor
Initialize Hawkeye state
Initialize Hawkeye state
Initialize Hawkeye state
Initialize Hawkeye state
Initialize Hawkeye state
Initialize Hawkeye state
Initialize Hawkeye state
Initialize Hawkeye state
CPU 7 Bimodal branch predictor
Initialize Hawkeye state
Initialize Hawkeye state
Initialize Hawkeye state
Initialize Hawkeye state
Initialize Hawkeye state
Initialize Hawkeye state
Initialize Hawkeye state
Initialize Hawkeye state
Heartbeat CPU 0 instructions: 10000001 cycles: 7913768 heartbeat IPC: 1.26362 cumulative IPC: 1.26362 (Simulation time: 0 hr 25 min 3 sec) 
 Total Blocks : 262144 Invalid Blocks : 0
Heartbeat CPU 1 instructions: 10000001 cycles: 7914564 heartbeat IPC: 1.26349 cumulative IPC: 1.26349 (Simulation time: 0 hr 25 min 4 sec) 
 Total Blocks : 262144 Invalid Blocks : 0
Heartbeat CPU 2 instructions: 10000001 cycles: 7915276 heartbeat IPC: 1.26338 cumulative IPC: 1.26338 (Simulation time: 0 hr 25 min 4 sec) 
 Total Blocks : 262144 Invalid Blocks : 0
Heartbeat CPU 3 instructions: 10000001 cycles: 7915457 heartbeat IPC: 1.26335 cumulative IPC: 1.26335 (Simulation time: 0 hr 25 min 4 sec) 
 Total Blocks : 262144 Invalid Blocks : 0
Heartbeat CPU 4 instructions: 10000001 cycles: 7916139 heartbeat IPC: 1.26324 cumulative IPC: 1.26324 (Simulation time: 0 hr 25 min 4 sec) 
 Total Blocks : 262144 Invalid Blocks : 0
Heartbeat CPU 5 instructions: 10000001 cycles: 7916865 heartbeat IPC: 1.26313 cumulative IPC: 1.26313 (Simulation time: 0 hr 25 min 4 sec) 
 Total Blocks : 262144 Invalid Blocks : 0
Heartbeat CPU 6 instructions: 10000001 cycles: 7917193 heartbeat IPC: 1.26307 cumulative IPC: 1.26307 (Simulation time: 0 hr 25 min 4 sec) 
 Total Blocks : 262144 Invalid Blocks : 0
Heartbeat CPU 7 instructions: 10000001 cycles: 7917388 heartbeat IPC: 1.26304 cumulative IPC: 1.26304 (Simulation time: 0 hr 25 min 4 sec) 
 Total Blocks : 262144 Invalid Blocks : 0
Heartbeat CPU 0 instructions: 20000002 cycles: 19882116 heartbeat IPC: 0.835537 cumulative IPC: 1.00593 (Simulation time: 0 hr 44 min 19 sec) 
 Total Blocks : 262144 Invalid Blocks : 0
Heartbeat CPU 1 instructions: 20000000 cycles: 19885214 heartbeat IPC: 0.835376 cumulative IPC: 1.00577 (Simulation time: 0 hr 44 min 19 sec) 
 Total Blocks : 262144 Invalid Blocks : 0
Heartbeat CPU 2 instructions: 20000000 cycles: 19888265 heartbeat IPC: 0.835213 cumulative IPC: 1.00562 (Simulation time: 0 hr 44 min 20 sec) 
 Total Blocks : 262144 Invalid Blocks : 0
Heartbeat CPU 3 instructions: 20000002 cycles: 19890332 heartbeat IPC: 0.835082 cumulative IPC: 1.00551 (Simulation time: 0 hr 44 min 20 sec) 
 Total Blocks : 262144 Invalid Blocks : 0
Heartbeat CPU 4 instructions: 20000000 cycles: 19892343 heartbeat IPC: 0.834989 cumulative IPC: 1.00541 (Simulation time: 0 hr 44 min 20 sec) 
 Total Blocks : 262144 Invalid Blocks : 0
Heartbeat CPU 5 instructions: 20000002 cycles: 19895346 heartbeat IPC: 0.83483 cumulative IPC: 1.00526 (Simulation time: 0 hr 44 min 20 sec) 
 Total Blocks : 262144 Invalid Blocks : 0
Heartbeat CPU 6 instructions: 20000000 cycles: 19896983 heartbeat IPC: 0.834739 cumulative IPC: 1.00518 (Simulation time: 0 hr 44 min 21 sec) 
 Total Blocks : 262144 Invalid Blocks : 0
Heartbeat CPU 7 instructions: 20000002 cycles: 19898786 heartbeat IPC: 0.834627 cumulative IPC: 1.00509 (Simulation time: 0 hr 44 min 21 sec) 
 Total Blocks : 262144 Invalid Blocks : 0
Heartbeat CPU 0 instructions: 30000001 cycles: 30351911 heartbeat IPC: 0.955128 cumulative IPC: 0.988406 (Simulation time: 1 hr 7 min 25 sec) 
 Total Blocks : 262144 Invalid Blocks : 0
Heartbeat CPU 1 instructions: 30000001 cycles: 30358832 heartbeat IPC: 0.95478 cumulative IPC: 0.98818 (Simulation time: 1 hr 7 min 26 sec) 
 Total Blocks : 262144 Invalid Blocks : 0
Heartbeat CPU 2 instructions: 30000001 cycles: 30365220 heartbeat IPC: 0.954476 cumulative IPC: 0.987972 (Simulation time: 1 hr 7 min 27 sec) 
 Total Blocks : 262144 Invalid Blocks : 0
Heartbeat CPU 3 instructions: 30000001 cycles: 30370168 heartbeat IPC: 0.954213 cumulative IPC: 0.987812 (Simulation time: 1 hr 7 min 28 sec) 
 Total Blocks : 262144 Invalid Blocks : 0
Heartbeat CPU 4 instructions: 30000001 cycles: 30374387 heartbeat IPC: 0.954013 cumulative IPC: 0.987674 (Simulation time: 1 hr 7 min 29 sec) 
 Total Blocks : 262144 Invalid Blocks : 0
Heartbeat CPU 5 instructions: 30000001 cycles: 30380657 heartbeat IPC: 0.953715 cumulative IPC: 0.98747 (Simulation time: 1 hr 7 min 30 sec) 
 Total Blocks : 262144 Invalid Blocks : 0
Heartbeat CPU 6 instructions: 30000001 cycles: 30384967 heartbeat IPC: 0.953472 cumulative IPC: 0.98733 (Simulation time: 1 hr 7 min 30 sec) 
 Total Blocks : 262144 Invalid Blocks : 0
Heartbeat CPU 7 instructions: 30000001 cycles: 30390133 heartbeat IPC: 0.953166 cumulative IPC: 0.987163 (Simulation time: 1 hr 7 min 31 sec) 
 Total Blocks : 262144 Invalid Blocks : 0
Heartbeat CPU 0 instructions: 40000003 cycles: 40380248 heartbeat IPC: 0.997175 cumulative IPC: 0.990583 (Simulation time: 1 hr 33 min 6 sec) 
 Total Blocks : 262144 Invalid Blocks : 0
Heartbeat CPU 1 instructions: 40000003 cycles: 40390825 heartbeat IPC: 0.996811 cumulative IPC: 0.990324 (Simulation time: 1 hr 33 min 8 sec) 
 Total Blocks : 262144 Invalid Blocks : 0
Heartbeat CPU 2 instructions: 40000003 cycles: 40401846 heartbeat IPC: 0.996351 cumulative IPC: 0.990054 (Simulation time: 1 hr 33 min 10 sec) 
 Total Blocks : 262144 Invalid Blocks : 0
Heartbeat CPU 3 instructions: 40000003 cycles: 40410340 heartbeat IPC: 0.995999 cumulative IPC: 0.989846 (Simulation time: 1 hr 33 min 11 sec) 
 Total Blocks : 262144 Invalid Blocks : 0
Heartbeat CPU 4 instructions: 40000003 cycles: 40415986 heartbeat IPC: 0.995858 cumulative IPC: 0.989707 (Simulation time: 1 hr 33 min 12 sec) 
 Total Blocks : 262144 Invalid Blocks : 0
Heartbeat CPU 5 instructions: 40000003 cycles: 40425843 heartbeat IPC: 0.995502 cumulative IPC: 0.989466 (Simulation time: 1 hr 33 min 14 sec) 
 Total Blocks : 262144 Invalid Blocks : 0
Heartbeat CPU 6 instructions: 40000003 cycles: 40433064 heartbeat IPC: 0.995214 cumulative IPC: 0.989289 (Simulation time: 1 hr 33 min 15 sec) 
 Total Blocks : 262144 Invalid Blocks : 0
Heartbeat CPU 7 instructions: 40000003 cycles: 40442303 heartbeat IPC: 0.99481 cumulative IPC: 0.989063 (Simulation time: 1 hr 33 min 17 sec) 
 Total Blocks : 262144 Invalid Blocks : 0
Heartbeat CPU 0 instructions: 50000000 cycles: 50372004 heartbeat IPC: 1.00082 cumulative IPC: 0.992615 (Simulation time: 1 hr 58 min 4 sec) 
 Total Blocks : 262144 Invalid Blocks : 0
Heartbeat CPU 1 instructions: 50000000 cycles: 50386307 heartbeat IPC: 1.00045 cumulative IPC: 0.992333 (Simulation time: 1 hr 58 min 7 sec) 
 Total Blocks : 262144 Invalid Blocks : 0
Heartbeat CPU 2 instructions: 50000000 cycles: 50401368 heartbeat IPC: 1.00005 cumulative IPC: 0.992037 (Simulation time: 1 hr 58 min 10 sec) 
 Total Blocks : 262144 Invalid Blocks : 0
Heartbeat CPU 3 instructions: 50000000 cycles: 50413737 heartbeat IPC: 0.99966 cumulative IPC: 0.991793 (Simulation time: 1 hr 58 min 13 sec) 
 Total Blocks : 262144 Invalid Blocks : 0
Heartbeat CPU 4 instructions: 50000000 cycles: 50421004 heartbeat IPC: 0.999498 cumulative IPC: 0.99165 (Simulation time: 1 hr 58 min 14 sec) 
 Total Blocks : 262144 Invalid Blocks : 0
Heartbeat CPU 5 instructions: 50000000 cycles: 50434724 heartbeat IPC: 0.999112 cumulative IPC: 0.99138 (Simulation time: 1 hr 58 min 16 sec) 
 Total Blocks : 262144 Invalid Blocks : 0
Heartbeat CPU 6 instructions: 50000000 cycles: 50445379 heartbeat IPC: 0.99877 cumulative IPC: 0.991171 (Simulation time: 1 hr 58 min 18 sec) 
 Total Blocks : 262144 Invalid Blocks : 0
Heartbeat CPU 7 instructions: 50000000 cycles: 50457090 heartbeat IPC: 0.998523 cumulative IPC: 0.990941 (Simulation time: 1 hr 58 min 20 sec) 
 Total Blocks : 262144 Invalid Blocks : 0
Heartbeat CPU 0 instructions: 60000000 cycles: 60347075 heartbeat IPC: 1.0025 cumulative IPC: 0.994249 (Simulation time: 2 hr 23 min 9 sec) 
 Total Blocks : 262144 Invalid Blocks : 0
Heartbeat CPU 1 instructions: 60000000 cycles: 60364845 heartbeat IPC: 1.00215 cumulative IPC: 0.993956 (Simulation time: 2 hr 23 min 11 sec) 
 Total Blocks : 262144 Invalid Blocks : 0
Heartbeat CPU 2 instructions: 60000000 cycles: 60384721 heartbeat IPC: 1.00167 cumulative IPC: 0.993629 (Simulation time: 2 hr 23 min 14 sec) 
 Total Blocks : 262144 Invalid Blocks : 0
Heartbeat CPU 3 instructions: 60000000 cycles: 60401232 heartbeat IPC: 1.00125 cumulative IPC: 0.993357 (Simulation time: 2 hr 23 min 16 sec) 
 Total Blocks : 262144 Invalid Blocks : 0
Heartbeat CPU 4 instructions: 60000000 cycles: 60409674 heartbeat IPC: 1.00113 cumulative IPC: 0.993218 (Simulation time: 2 hr 23 min 17 sec) 
 Total Blocks : 262144 Invalid Blocks : 0
Heartbeat CPU 5 instructions: 60000000 cycles: 60426411 heartbeat IPC: 1.00083 cumulative IPC: 0.992943 (Simulation time: 2 hr 23 min 20 sec) 
 Total Blocks : 262144 Invalid Blocks : 0
Heartbeat CPU 6 instructions: 60000000 cycles: 60440251 heartbeat IPC: 1.00051 cumulative IPC: 0.992716 (Simulation time: 2 hr 23 min 22 sec) 
 Total Blocks : 262144 Invalid Blocks : 0
Heartbeat CPU 7 instructions: 60000000 cycles: 60454940 heartbeat IPC: 1.00022 cumulative IPC: 0.992475 (Simulation time: 2 hr 23 min 24 sec) 
 Total Blocks : 262144 Invalid Blocks : 0
Heartbeat CPU 0 instructions: 70000002 cycles: 70233781 heartbeat IPC: 1.01146 cumulative IPC: 0.996671 (Simulation time: 2 hr 51 min 7 sec) 
 Total Blocks : 262144 Invalid Blocks : 0
Heartbeat CPU 1 instructions: 70000002 cycles: 70255333 heartbeat IPC: 1.01107 cumulative IPC: 0.996366 (Simulation time: 2 hr 51 min 10 sec) 
 Total Blocks : 262144 Invalid Blocks : 0
Heartbeat CPU 2 instructions: 70000002 cycles: 70278356 heartbeat IPC: 1.01075 cumulative IPC: 0.996039 (Simulation time: 2 hr 51 min 13 sec) 
 Total Blocks : 262144 Invalid Blocks : 0
Heartbeat CPU 3 instructions: 70000002 cycles: 70299434 heartbeat IPC: 1.01028 cumulative IPC: 0.995741 (Simulation time: 2 hr 51 min 16 sec) 
 Total Blocks : 262144 Invalid Blocks : 0
Heartbeat CPU 4 instructions: 70000002 cycles: 70309466 heartbeat IPC: 1.01012 cumulative IPC: 0.995599 (Simulation time: 2 hr 51 min 18 sec) 
 Total Blocks : 262144 Invalid Blocks : 0
Heartbeat CPU 5 instructions: 70000002 cycles: 70329332 heartbeat IPC: 1.0098 cumulative IPC: 0.995317 (Simulation time: 2 hr 51 min 21 sec) 
 Total Blocks : 262144 Invalid Blocks : 0
Heartbeat CPU 6 instructions: 70000002 cycles: 70346158 heartbeat IPC: 1.0095 cumulative IPC: 0.995079 (Simulation time: 2 hr 51 min 24 sec) 
 Total Blocks : 262144 Invalid Blocks : 0
Heartbeat CPU 7 instructions: 70000002 cycles: 70364084 heartbeat IPC: 1.00917 cumulative IPC: 0.994826 (Simulation time: 2 hr 51 min 28 sec) 
 Total Blocks : 262144 Invalid Blocks : 0
Heartbeat CPU 0 instructions: 80000003 cycles: 80056948 heartbeat IPC: 1.018 cumulative IPC: 0.999289 (Simulation time: 3 hr 18 min 41 sec) 
 Total Blocks : 262144 Invalid Blocks : 0
Heartbeat CPU 1 instructions: 80000003 cycles: 80082180 heartbeat IPC: 1.01762 cumulative IPC: 0.998974 (Simulation time: 3 hr 18 min 45 sec) 
 Total Blocks : 262144 Invalid Blocks : 0
Heartbeat CPU 2 instructions: 80000003 cycles: 80109237 heartbeat IPC: 1.0172 cumulative IPC: 0.998636 (Simulation time: 3 hr 18 min 49 sec) 
 Total Blocks : 262144 Invalid Blocks : 0
Heartbeat CPU 3 instructions: 80000003 cycles: 80134140 heartbeat IPC: 1.01681 cumulative IPC: 0.998326 (Simulation time: 3 hr 18 min 53 sec) 
 Total Blocks : 262144 Invalid Blocks : 0
Heartbeat CPU 4 instructions: 80000003 cycles: 80146136 heartbeat IPC: 1.0166 cumulative IPC: 0.998177 (Simulation time: 3 hr 18 min 55 sec) 
 Total Blocks : 262144 Invalid Blocks : 0
Heartbeat CPU 5 instructions: 80000003 cycles: 80168562 heartbeat IPC: 1.01634 cumulative IPC: 0.997897 (Simulation time: 3 hr 18 min 58 sec) 
 Total Blocks : 262144 Invalid Blocks : 0
Heartbeat CPU 6 instructions: 80000003 cycles: 80188910 heartbeat IPC: 1.01598 cumulative IPC: 0.997644 (Simulation time: 3 hr 19 min 1 sec) 
 Total Blocks : 262144 Invalid Blocks : 0
Heartbeat CPU 7 instructions: 80000003 cycles: 80209506 heartbeat IPC: 1.0157 cumulative IPC: 0.997388 (Simulation time: 3 hr 19 min 4 sec) 
 Total Blocks : 262144 Invalid Blocks : 0
Heartbeat CPU 0 instructions: 90000000 cycles: 89825277 heartbeat IPC: 1.02372 cumulative IPC: 1.00195 (Simulation time: 3 hr 50 min 15 sec) 
 Total Blocks : 262144 Invalid Blocks : 0
Heartbeat CPU 1 instructions: 90000000 cycles: 89853867 heartbeat IPC: 1.02336 cumulative IPC: 1.00163 (Simulation time: 3 hr 50 min 22 sec) 
 Total Blocks : 262144 Invalid Blocks : 0
Heartbeat CPU 2 instructions: 90000000 cycles: 89885615 heartbeat IPC: 1.02287 cumulative IPC: 1.00127 (Simulation time: 3 hr 50 min 28 sec) 
 Total Blocks : 262144 Invalid Blocks : 0
Heartbeat CPU 3 instructions: 90000000 cycles: 89914301 heartbeat IPC: 1.02248 cumulative IPC: 1.00095 (Simulation time: 3 hr 50 min 32 sec) 
 Total Blocks : 262144 Invalid Blocks : 0
Heartbeat CPU 4 instructions: 90000000 cycles: 89928027 heartbeat IPC: 1.0223 cumulative IPC: 1.0008 (Simulation time: 3 hr 50 min 35 sec) 
 Total Blocks : 262144 Invalid Blocks : 0
Heartbeat CPU 5 instructions: 90000000 cycles: 89953652 heartbeat IPC: 1.02196 cumulative IPC: 1.00052 (Simulation time: 3 hr 50 min 39 sec) 
 Total Blocks : 262144 Invalid Blocks : 0
Heartbeat CPU 6 instructions: 90000000 cycles: 89977557 heartbeat IPC: 1.02159 cumulative IPC: 1.00025 (Simulation time: 3 hr 50 min 46 sec) 
 Total Blocks : 262144 Invalid Blocks : 0
Heartbeat CPU 7 instructions: 90000000 cycles: 90000695 heartbeat IPC: 1.02133 cumulative IPC: 0.999992 (Simulation time: 3 hr 50 min 52 sec) 
 Total Blocks : 262144 Invalid Blocks : 0
Heartbeat CPU 0 instructions: 100000002 cycles: 99490895 heartbeat IPC: 1.0346 cumulative IPC: 1.00512 (Simulation time: 4 hr 25 min 36 sec) 
 Total Blocks : 262144 Invalid Blocks : 0
Heartbeat CPU 1 instructions: 100000002 cycles: 99523337 heartbeat IPC: 1.03418 cumulative IPC: 1.00479 (Simulation time: 4 hr 25 min 44 sec) 
 Total Blocks : 262144 Invalid Blocks : 0
Heartbeat CPU 2 instructions: 100000002 cycles: 99559436 heartbeat IPC: 1.03372 cumulative IPC: 1.00443 (Simulation time: 4 hr 25 min 51 sec) 
 Total Blocks : 262144 Invalid Blocks : 0
Heartbeat CPU 3 instructions: 100000002 cycles: 99592510 heartbeat IPC: 1.03325 cumulative IPC: 1.00409 (Simulation time: 4 hr 25 min 59 sec) 
 Total Blocks : 262144 Invalid Blocks : 0
Heartbeat CPU 4 instructions: 100000002 cycles: 99607991 heartbeat IPC: 1.03306 cumulative IPC: 1.00394 (Simulation time: 4 hr 26 min 2 sec) 
 Total Blocks : 262144 Invalid Blocks : 0
Heartbeat CPU 5 instructions: 100000002 cycles: 99636145 heartbeat IPC: 1.03279 cumulative IPC: 1.00365 (Simulation time: 4 hr 26 min 8 sec) 
 Total Blocks : 262144 Invalid Blocks : 0
Heartbeat CPU 6 instructions: 100000002 cycles: 99664389 heartbeat IPC: 1.03233 cumulative IPC: 1.00337 (Simulation time: 4 hr 26 min 14 sec) 
 Total Blocks : 262144 Invalid Blocks : 0
Heartbeat CPU 7 instructions: 100000002 cycles: 99690931 heartbeat IPC: 1.03197 cumulative IPC: 1.0031 (Simulation time: 4 hr 26 min 19 sec) 
 Total Blocks : 262144 Invalid Blocks : 0
Heartbeat CPU 0 instructions: 110000000 cycles: 109183461 heartbeat IPC: 1.03172 cumulative IPC: 1.00748 (Simulation time: 4 hr 57 min 55 sec) 
 Total Blocks : 262144 Invalid Blocks : 0
Heartbeat CPU 1 instructions: 110000000 cycles: 109220057 heartbeat IPC: 1.03128 cumulative IPC: 1.00714 (Simulation time: 4 hr 58 min 2 sec) 
 Total Blocks : 262144 Invalid Blocks : 0
Heartbeat CPU 2 instructions: 110000000 cycles: 109259882 heartbeat IPC: 1.03088 cumulative IPC: 1.00677 (Simulation time: 4 hr 58 min 9 sec) 
 Total Blocks : 262144 Invalid Blocks : 0
Heartbeat CPU 3 instructions: 110000000 cycles: 109297178 heartbeat IPC: 1.03043 cumulative IPC: 1.00643 (Simulation time: 4 hr 58 min 16 sec) 
 Total Blocks : 262144 Invalid Blocks : 0
Heartbeat CPU 4 instructions: 110000000 cycles: 109314606 heartbeat IPC: 1.03023 cumulative IPC: 1.00627 (Simulation time: 4 hr 58 min 19 sec) 
 Total Blocks : 262144 Invalid Blocks : 0
Heartbeat CPU 5 instructions: 110000000 cycles: 109345705 heartbeat IPC: 1.02991 cumulative IPC: 1.00598 (Simulation time: 4 hr 58 min 24 sec) 
 Total Blocks : 262144 Invalid Blocks : 0
Heartbeat CPU 6 instructions: 110000000 cycles: 109377711 heartbeat IPC: 1.02951 cumulative IPC: 1.00569 (Simulation time: 4 hr 58 min 29 sec) 
 Total Blocks : 262144 Invalid Blocks : 0
Heartbeat CPU 7 instructions: 110000000 cycles: 109407714 heartbeat IPC: 1.02915 cumulative IPC: 1.00541 (Simulation time: 4 hr 58 min 34 sec) 
 Total Blocks : 262144 Invalid Blocks : 0
Heartbeat CPU 0 instructions: 120000000 cycles: 118705441 heartbeat IPC: 1.0502 cumulative IPC: 1.01091 (Simulation time: 5 hr 29 min 23 sec) 
 Total Blocks : 262144 Invalid Blocks : 0
Heartbeat CPU 1 instructions: 120000000 cycles: 118745670 heartbeat IPC: 1.0498 cumulative IPC: 1.01056 (Simulation time: 5 hr 29 min 31 sec) 
 Total Blocks : 262144 Invalid Blocks : 0
Heartbeat CPU 2 instructions: 120000000 cycles: 118790454 heartbeat IPC: 1.04926 cumulative IPC: 1.01018 (Simulation time: 5 hr 29 min 41 sec) 
 Total Blocks : 262144 Invalid Blocks : 0
Heartbeat CPU 3 instructions: 120000000 cycles: 118831231 heartbeat IPC: 1.04887 cumulative IPC: 1.00984 (Simulation time: 5 hr 29 min 49 sec) 
 Total Blocks : 262144 Invalid Blocks : 0
Heartbeat CPU 4 instructions: 120000000 cycles: 118850956 heartbeat IPC: 1.04862 cumulative IPC: 1.00967 (Simulation time: 5 hr 29 min 53 sec) 
 Total Blocks : 262144 Invalid Blocks : 0
Heartbeat CPU 5 instructions: 120000000 cycles: 118885383 heartbeat IPC: 1.04825 cumulative IPC: 1.00938 (Simulation time: 5 hr 30 min 0 sec) 
 Total Blocks : 262144 Invalid Blocks : 0
Heartbeat CPU 6 instructions: 120000000 cycles: 118921051 heartbeat IPC: 1.04785 cumulative IPC: 1.00907 (Simulation time: 5 hr 30 min 5 sec) 
 Total Blocks : 262144 Invalid Blocks : 0
Heartbeat CPU 7 instructions: 120000000 cycles: 118954654 heartbeat IPC: 1.04746 cumulative IPC: 1.00879 (Simulation time: 5 hr 30 min 12 sec) 
 Total Blocks : 262144 Invalid Blocks : 0
Heartbeat CPU 0 instructions: 130000001 cycles: 128357544 heartbeat IPC: 1.03604 cumulative IPC: 1.0128 (Simulation time: 6 hr 1 min 38 sec) 
 Total Blocks : 262144 Invalid Blocks : 0
Heartbeat CPU 1 instructions: 130000001 cycles: 128401267 heartbeat IPC: 1.03567 cumulative IPC: 1.01245 (Simulation time: 6 hr 1 min 46 sec) 
 Total Blocks : 262144 Invalid Blocks : 0
Heartbeat CPU 2 instructions: 130000001 cycles: 128450829 heartbeat IPC: 1.03516 cumulative IPC: 1.01206 (Simulation time: 6 hr 1 min 55 sec) 
 Total Blocks : 262144 Invalid Blocks : 0
Heartbeat CPU 3 instructions: 130000001 cycles: 128495129 heartbeat IPC: 1.03478 cumulative IPC: 1.01171 (Simulation time: 6 hr 2 min 3 sec) 
 Total Blocks : 262144 Invalid Blocks : 0
Heartbeat CPU 4 instructions: 130000001 cycles: 128516950 heartbeat IPC: 1.03455 cumulative IPC: 1.01154 (Simulation time: 6 hr 2 min 7 sec) 
 Total Blocks : 262144 Invalid Blocks : 0
Heartbeat CPU 5 instructions: 130000001 cycles: 128554325 heartbeat IPC: 1.03424 cumulative IPC: 1.01125 (Simulation time: 6 hr 2 min 14 sec) 
 Total Blocks : 262144 Invalid Blocks : 0
Heartbeat CPU 6 instructions: 130000001 cycles: 128594734 heartbeat IPC: 1.03373 cumulative IPC: 1.01093 (Simulation time: 6 hr 2 min 23 sec) 
 Total Blocks : 262144 Invalid Blocks : 0
Heartbeat CPU 7 instructions: 130000001 cycles: 128630942 heartbeat IPC: 1.03345 cumulative IPC: 1.01064 (Simulation time: 6 hr 2 min 31 sec) 
 Total Blocks : 262144 Invalid Blocks : 0
Heartbeat CPU 0 instructions: 140000000 cycles: 137935842 heartbeat IPC: 1.04403 cumulative IPC: 1.01496 (Simulation time: 6 hr 45 min 30 sec) 
 Total Blocks : 262144 Invalid Blocks : 0
Heartbeat CPU 1 instructions: 140000000 cycles: 137983024 heartbeat IPC: 1.04365 cumulative IPC: 1.01462 (Simulation time: 6 hr 45 min 38 sec) 
 Total Blocks : 262144 Invalid Blocks : 0
Heartbeat CPU 2 instructions: 140000000 cycles: 138037232 heartbeat IPC: 1.04314 cumulative IPC: 1.01422 (Simulation time: 6 hr 45 min 48 sec) 
 Total Blocks : 262144 Invalid Blocks : 0
Heartbeat CPU 3 instructions: 140000000 cycles: 138085503 heartbeat IPC: 1.04271 cumulative IPC: 1.01386 (Simulation time: 6 hr 45 min 57 sec) 
 Total Blocks : 262144 Invalid Blocks : 0
Heartbeat CPU 4 instructions: 140000000 cycles: 138108876 heartbeat IPC: 1.04254 cumulative IPC: 1.01369 (Simulation time: 6 hr 46 min 1 sec) 
 Total Blocks : 262144 Invalid Blocks : 0
Heartbeat CPU 5 instructions: 140000000 cycles: 138149856 heartbeat IPC: 1.04215 cumulative IPC: 1.01339 (Simulation time: 6 hr 46 min 10 sec) 
 Total Blocks : 262144 Invalid Blocks : 0
Heartbeat CPU 6 instructions: 140000000 cycles: 138194093 heartbeat IPC: 1.04174 cumulative IPC: 1.01307 (Simulation time: 6 hr 46 min 20 sec) 
 Total Blocks : 262144 Invalid Blocks : 0
Heartbeat CPU 7 instructions: 140000000 cycles: 138232845 heartbeat IPC: 1.04146 cumulative IPC: 1.01278 (Simulation time: 6 hr 46 min 30 sec) 
 Total Blocks : 262144 Invalid Blocks : 0
Heartbeat CPU 0 instructions: 150000000 cycles: 147510687 heartbeat IPC: 1.0444 cumulative IPC: 1.01688 (Simulation time: 7 hr 20 min 54 sec) 
 Total Blocks : 262144 Invalid Blocks : 0
Heartbeat CPU 1 instructions: 150000000 cycles: 147560869 heartbeat IPC: 1.04408 cumulative IPC: 1.01653 (Simulation time: 7 hr 21 min 5 sec) 
 Total Blocks : 262144 Invalid Blocks : 0
Heartbeat CPU 2 instructions: 150000000 cycles: 147620364 heartbeat IPC: 1.0435 cumulative IPC: 1.01612 (Simulation time: 7 hr 21 min 18 sec) 
 Total Blocks : 262144 Invalid Blocks : 0
Heartbeat CPU 3 instructions: 150000000 cycles: 147671596 heartbeat IPC: 1.04318 cumulative IPC: 1.01577 (Simulation time: 7 hr 21 min 26 sec) 
 Total Blocks : 262144 Invalid Blocks : 0
Heartbeat CPU 4 instructions: 150000000 cycles: 147697215 heartbeat IPC: 1.04293 cumulative IPC: 1.01559 (Simulation time: 7 hr 21 min 32 sec) 
 Total Blocks : 262144 Invalid Blocks : 0
Heartbeat CPU 5 instructions: 150000000 cycles: 147741001 heartbeat IPC: 1.04263 cumulative IPC: 1.01529 (Simulation time: 7 hr 21 min 40 sec) 
 Total Blocks : 262144 Invalid Blocks : 0
Heartbeat CPU 6 instructions: 150000000 cycles: 147789453 heartbeat IPC: 1.04217 cumulative IPC: 1.01496 (Simulation time: 7 hr 21 min 51 sec) 
 Total Blocks : 262144 Invalid Blocks : 0
Heartbeat CPU 7 instructions: 150000000 cycles: 147831012 heartbeat IPC: 1.04187 cumulative IPC: 1.01467 (Simulation time: 7 hr 22 min 2 sec) 
 Total Blocks : 262144 Invalid Blocks : 0
Heartbeat CPU 0 instructions: 160000000 cycles: 156860773 heartbeat IPC: 1.06951 cumulative IPC: 1.02001 (Simulation time: 7 hr 59 min 37 sec) 
 Total Blocks : 262144 Invalid Blocks : 0
Heartbeat CPU 1 instructions: 160000000 cycles: 156915051 heartbeat IPC: 1.06904 cumulative IPC: 1.01966 (Simulation time: 7 hr 59 min 49 sec) 
 Total Blocks : 262144 Invalid Blocks : 0
Heartbeat CPU 2 instructions: 160000000 cycles: 156979701 heartbeat IPC: 1.06845 cumulative IPC: 1.01924 (Simulation time: 8 hr 0 min 3 sec) 
 Total Blocks : 262144 Invalid Blocks : 0
Heartbeat CPU 3 instructions: 160000000 cycles: 157034310 heartbeat IPC: 1.06807 cumulative IPC: 1.01889 (Simulation time: 8 hr 0 min 15 sec) 
 Total Blocks : 262144 Invalid Blocks : 0
Heartbeat CPU 4 instructions: 160000000 cycles: 157062289 heartbeat IPC: 1.0678 cumulative IPC: 1.0187 (Simulation time: 8 hr 0 min 21 sec) 
 Total Blocks : 262144 Invalid Blocks : 0
Heartbeat CPU 5 instructions: 160000000 cycles: 157108702 heartbeat IPC: 1.0675 cumulative IPC: 1.0184 (Simulation time: 8 hr 0 min 32 sec) 
 Total Blocks : 262144 Invalid Blocks : 0
Heartbeat CPU 6 instructions: 160000000 cycles: 157161744 heartbeat IPC: 1.06697 cumulative IPC: 1.01806 (Simulation time: 8 hr 0 min 44 sec) 
 Total Blocks : 262144 Invalid Blocks : 0
Heartbeat CPU 7 instructions: 160000000 cycles: 157207169 heartbeat IPC: 1.06653 cumulative IPC: 1.01777 (Simulation time: 8 hr 0 min 56 sec) 
 Total Blocks : 262144 Invalid Blocks : 0
Heartbeat CPU 0 instructions: 170000000 cycles: 166064016 heartbeat IPC: 1.08657 cumulative IPC: 1.0237 (Simulation time: 8 hr 38 min 17 sec) 
 Total Blocks : 262144 Invalid Blocks : 0
Heartbeat CPU 1 instructions: 170000000 cycles: 166121416 heartbeat IPC: 1.08621 cumulative IPC: 1.02335 (Simulation time: 8 hr 38 min 31 sec) 
 Total Blocks : 262144 Invalid Blocks : 0
Heartbeat CPU 2 instructions: 170000000 cycles: 166191807 heartbeat IPC: 1.08553 cumulative IPC: 1.02291 (Simulation time: 8 hr 38 min 49 sec) 
 Total Blocks : 262144 Invalid Blocks : 0
Heartbeat CPU 3 instructions: 170000000 cycles: 166249989 heartbeat IPC: 1.08511 cumulative IPC: 1.02256 (Simulation time: 8 hr 39 min 3 sec) 
 Total Blocks : 262144 Invalid Blocks : 0
Heartbeat CPU 4 instructions: 170000000 cycles: 166280016 heartbeat IPC: 1.08487 cumulative IPC: 1.02237 (Simulation time: 8 hr 39 min 10 sec) 
 Total Blocks : 262144 Invalid Blocks : 0
Heartbeat CPU 5 instructions: 170000000 cycles: 166329820 heartbeat IPC: 1.08447 cumulative IPC: 1.02207 (Simulation time: 8 hr 39 min 22 sec) 
 Total Blocks : 262144 Invalid Blocks : 0
Heartbeat CPU 6 instructions: 170000000 cycles: 166387357 heartbeat IPC: 1.08394 cumulative IPC: 1.02171 (Simulation time: 8 hr 39 min 35 sec) 
 Total Blocks : 262144 Invalid Blocks : 0
Heartbeat CPU 7 instructions: 170000000 cycles: 166436851 heartbeat IPC: 1.08346 cumulative IPC: 1.02141 (Simulation time: 8 hr 39 min 48 sec) 
 Total Blocks : 262144 Invalid Blocks : 0
Heartbeat CPU 0 instructions: 180000003 cycles: 175084482 heartbeat IPC: 1.10859 cumulative IPC: 1.02808 (Simulation time: 9 hr 8 min 26 sec) 
 Total Blocks : 262144 Invalid Blocks : 0
Heartbeat CPU 1 instructions: 180000003 cycles: 175145229 heartbeat IPC: 1.10818 cumulative IPC: 1.02772 (Simulation time: 9 hr 8 min 37 sec) 
 Total Blocks : 262144 Invalid Blocks : 0
Heartbeat CPU 2 instructions: 180000003 cycles: 175220181 heartbeat IPC: 1.10762 cumulative IPC: 1.02728 (Simulation time: 9 hr 8 min 51 sec) 
 Total Blocks : 262144 Invalid Blocks : 0
Heartbeat CPU 3 instructions: 180000003 cycles: 175282229 heartbeat IPC: 1.10715 cumulative IPC: 1.02692 (Simulation time: 9 hr 9 min 1 sec) 
 Total Blocks : 262144 Invalid Blocks : 0
Heartbeat CPU 4 instructions: 180000003 cycles: 175314625 heartbeat IPC: 1.10686 cumulative IPC: 1.02673 (Simulation time: 9 hr 9 min 7 sec) 
 Total Blocks : 262144 Invalid Blocks : 0
Heartbeat CPU 5 instructions: 180000003 cycles: 175367353 heartbeat IPC: 1.1065 cumulative IPC: 1.02642 (Simulation time: 9 hr 9 min 16 sec) 
 Total Blocks : 262144 Invalid Blocks : 0
Heartbeat CPU 6 instructions: 180000003 cycles: 175428712 heartbeat IPC: 1.10603 cumulative IPC: 1.02606 (Simulation time: 9 hr 9 min 27 sec) 
 Total Blocks : 262144 Invalid Blocks : 0
Heartbeat CPU 7 instructions: 180000003 cycles: 175482937 heartbeat IPC: 1.10545 cumulative IPC: 1.02574 (Simulation time: 9 hr 9 min 36 sec) 
 Total Blocks : 262144 Invalid Blocks : 0
Heartbeat CPU 0 instructions: 190000002 cycles: 184048377 heartbeat IPC: 1.11559 cumulative IPC: 1.03234 (Simulation time: 9 hr 34 min 9 sec) 
 Total Blocks : 262144 Invalid Blocks : 0
Heartbeat CPU 1 instructions: 190000002 cycles: 184112391 heartbeat IPC: 1.11518 cumulative IPC: 1.03198 (Simulation time: 9 hr 34 min 20 sec) 
 Total Blocks : 262144 Invalid Blocks : 0
Heartbeat CPU 2 instructions: 190000002 cycles: 184192544 heartbeat IPC: 1.11453 cumulative IPC: 1.03153 (Simulation time: 9 hr 34 min 35 sec) 
 Total Blocks : 262144 Invalid Blocks : 0
Heartbeat CPU 3 instructions: 190000002 cycles: 184258340 heartbeat IPC: 1.11407 cumulative IPC: 1.03116 (Simulation time: 9 hr 34 min 47 sec) 
 Total Blocks : 262144 Invalid Blocks : 0
Heartbeat CPU 4 instructions: 190000002 cycles: 184292740 heartbeat IPC: 1.11382 cumulative IPC: 1.03097 (Simulation time: 9 hr 34 min 53 sec) 
 Total Blocks : 262144 Invalid Blocks : 0
Heartbeat CPU 5 instructions: 190000002 cycles: 184348941 heartbeat IPC: 1.11339 cumulative IPC: 1.03065 (Simulation time: 9 hr 35 min 4 sec) 
 Total Blocks : 262144 Invalid Blocks : 0
Heartbeat CPU 6 instructions: 190000002 cycles: 184414391 heartbeat IPC: 1.11288 cumulative IPC: 1.03029 (Simulation time: 9 hr 35 min 16 sec) 
 Total Blocks : 262144 Invalid Blocks : 0
Heartbeat CPU 7 instructions: 190000002 cycles: 184472441 heartbeat IPC: 1.11241 cumulative IPC: 1.02996 (Simulation time: 9 hr 35 min 26 sec) 
 Total Blocks : 262144 Invalid Blocks : 0
Heartbeat CPU 0 instructions: 200000002 cycles: 192975834 heartbeat IPC: 1.12014 cumulative IPC: 1.0364 (Simulation time: 10 hr 0 min 38 sec) 
 Total Blocks : 262144 Invalid Blocks : 0
Heartbeat CPU 1 instructions: 200000002 cycles: 193043438 heartbeat IPC: 1.11969 cumulative IPC: 1.03604 (Simulation time: 10 hr 0 min 51 sec) 
 Total Blocks : 262144 Invalid Blocks : 0
Heartbeat CPU 2 instructions: 200000002 cycles: 193127869 heartbeat IPC: 1.11915 cumulative IPC: 1.03558 (Simulation time: 10 hr 1 min 6 sec) 
 Total Blocks : 262144 Invalid Blocks : 0
Heartbeat CPU 3 instructions: 200000002 cycles: 193197670 heartbeat IPC: 1.11865 cumulative IPC: 1.03521 (Simulation time: 10 hr 1 min 19 sec) 
 Total Blocks : 262144 Invalid Blocks : 0
Heartbeat CPU 4 instructions: 200000002 cycles: 193234033 heartbeat IPC: 1.11841 cumulative IPC: 1.03501 (Simulation time: 10 hr 1 min 25 sec) 
 Total Blocks : 262144 Invalid Blocks : 0
Heartbeat CPU 5 instructions: 200000002 cycles: 193293436 heartbeat IPC: 1.11801 cumulative IPC: 1.0347 (Simulation time: 10 hr 1 min 35 sec) 
 Total Blocks : 262144 Invalid Blocks : 0
Heartbeat CPU 6 instructions: 200000002 cycles: 193363240 heartbeat IPC: 1.11746 cumulative IPC: 1.03432 (Simulation time: 10 hr 1 min 46 sec) 
 Total Blocks : 262144 Invalid Blocks : 0
Heartbeat CPU 7 instructions: 200000002 cycles: 193424989 heartbeat IPC: 1.117 cumulative IPC: 1.03399 (Simulation time: 10 hr 1 min 55 sec) 
 Total Blocks : 262144 Invalid Blocks : 0

Warmup complete CPU 0 instructions: 200503173 cycles: 193424989 (Simulation time: 10 hr 1 min 55 sec) 
Warmup complete CPU 1 instructions: 200429045 cycles: 193424989 (Simulation time: 10 hr 1 min 55 sec) 
Warmup complete CPU 2 instructions: 200333172 cycles: 193424989 (Simulation time: 10 hr 1 min 55 sec) 
Warmup complete CPU 3 instructions: 200250375 cycles: 193424989 (Simulation time: 10 hr 1 min 55 sec) 
Warmup complete CPU 4 instructions: 200210411 cycles: 193424989 (Simulation time: 10 hr 1 min 55 sec) 
Warmup complete CPU 5 instructions: 200147402 cycles: 193424989 (Simulation time: 10 hr 1 min 55 sec) 
Warmup complete CPU 6 instructions: 200070711 cycles: 193424989 (Simulation time: 10 hr 1 min 55 sec) 
Warmup complete CPU 7 instructions: 200000002 cycles: 193424989 (Simulation time: 10 hr 1 min 55 sec) 

Heartbeat CPU 0 instructions: 210000002 cycles: 374487249 heartbeat IPC: 0.055093 cumulative IPC: 0.0524506 (Simulation time: 11 hr 7 min 19 sec) 
 Total Blocks : 262144 Invalid Blocks : 0
Heartbeat CPU 1 instructions: 210000002 cycles: 376136660 heartbeat IPC: 0.054617 cumulative IPC: 0.0523828 (Simulation time: 11 hr 7 min 55 sec) 
 Total Blocks : 262144 Invalid Blocks : 0
Heartbeat CPU 2 instructions: 210000002 cycles: 377846251 heartbeat IPC: 0.0541365 cumulative IPC: 0.0524171 (Simulation time: 11 hr 8 min 33 sec) 
 Total Blocks : 262144 Invalid Blocks : 0
Heartbeat CPU 3 instructions: 210000002 cycles: 379665622 heartbeat IPC: 0.0536285 cumulative IPC: 0.0523496 (Simulation time: 11 hr 9 min 14 sec) 
 Total Blocks : 262144 Invalid Blocks : 0
Heartbeat CPU 4 instructions: 210000002 cycles: 379740441 heartbeat IPC: 0.0536175 cumulative IPC: 0.0525431 (Simulation time: 11 hr 9 min 16 sec) 
 Total Blocks : 262144 Invalid Blocks : 0
Heartbeat CPU 5 instructions: 210000002 cycles: 381619315 heartbeat IPC: 0.0530994 cumulative IPC: 0.0523533 (Simulation time: 11 hr 9 min 57 sec) 
 Total Blocks : 262144 Invalid Blocks : 0
Heartbeat CPU 6 instructions: 210000002 cycles: 383273683 heartbeat IPC: 0.0526564 cumulative IPC: 0.0523011 (Simulation time: 11 hr 10 min 35 sec) 
 Total Blocks : 262144 Invalid Blocks : 0
Heartbeat CPU 7 instructions: 210000002 cycles: 384664312 heartbeat IPC: 0.0522905 cumulative IPC: 0.0522905 (Simulation time: 11 hr 11 min 5 sec) 
 Total Blocks : 262144 Invalid Blocks : 0
Heartbeat CPU 0 instructions: 220000000 cycles: 565216626 heartbeat IPC: 0.0524303 cumulative IPC: 0.0524402 (Simulation time: 12 hr 16 min 36 sec) 
 Total Blocks : 262144 Invalid Blocks : 0
Heartbeat CPU 1 instructions: 220000000 cycles: 567109723 heartbeat IPC: 0.0523634 cumulative IPC: 0.0523729 (Simulation time: 12 hr 17 min 20 sec) 
 Total Blocks : 262144 Invalid Blocks : 0
Heartbeat CPU 2 instructions: 220000000 cycles: 569744772 heartbeat IPC: 0.0521109 cumulative IPC: 0.0522609 (Simulation time: 12 hr 18 min 18 sec) 
 Total Blocks : 262144 Invalid Blocks : 0
Heartbeat CPU 4 instructions: 220000000 cycles: 571012584 heartbeat IPC: 0.0522815 cumulative IPC: 0.0524106 (Simulation time: 12 hr 18 min 47 sec) 
 Total Blocks : 262144 Invalid Blocks : 0
Heartbeat CPU 3 instructions: 220000000 cycles: 571668487 heartbeat IPC: 0.0520825 cumulative IPC: 0.052214 (Simulation time: 12 hr 19 min 2 sec) 
 Total Blocks : 262144 Invalid Blocks : 0
Heartbeat CPU 5 instructions: 220000000 cycles: 572779009 heartbeat IPC: 0.0523123 cumulative IPC: 0.0523326 (Simulation time: 12 hr 19 min 27 sec) 
 Total Blocks : 262144 Invalid Blocks : 0
Heartbeat CPU 6 instructions: 220000000 cycles: 574377208 heartbeat IPC: 0.0523276 cumulative IPC: 0.0523144 (Simulation time: 12 hr 20 min 2 sec) 
 Total Blocks : 262144 Invalid Blocks : 0
Heartbeat CPU 7 instructions: 220000000 cycles: 576140976 heartbeat IPC: 0.0522257 cumulative IPC: 0.0522581 (Simulation time: 12 hr 20 min 41 sec) 
 Total Blocks : 262144 Invalid Blocks : 0
Heartbeat CPU 0 instructions: 230000000 cycles: 756533092 heartbeat IPC: 0.0522694 cumulative IPC: 0.0523822 (Simulation time: 13 hr 26 min 58 sec) 
 Total Blocks : 262144 Invalid Blocks : 0
Heartbeat CPU 1 instructions: 230000000 cycles: 757953601 heartbeat IPC: 0.0523989 cumulative IPC: 0.0523817 (Simulation time: 13 hr 27 min 30 sec) 
 Total Blocks : 262144 Invalid Blocks : 0
Heartbeat CPU 2 instructions: 230000000 cycles: 760874549 heartbeat IPC: 0.0523205 cumulative IPC: 0.052281 (Simulation time: 13 hr 28 min 36 sec) 
 Total Blocks : 262144 Invalid Blocks : 0
Heartbeat CPU 4 instructions: 230000000 cycles: 762469344 heartbeat IPC: 0.0522311 cumulative IPC: 0.0523502 (Simulation time: 13 hr 29 min 12 sec) 
 Total Blocks : 262144 Invalid Blocks : 0
Heartbeat CPU 3 instructions: 230000000 cycles: 763371914 heartbeat IPC: 0.0521639 cumulative IPC: 0.0521972 (Simulation time: 13 hr 29 min 32 sec) 
 Total Blocks : 262144 Invalid Blocks : 0
Heartbeat CPU 5 instructions: 230000000 cycles: 764046617 heartbeat IPC: 0.0522828 cumulative IPC: 0.0523159 (Simulation time: 13 hr 29 min 47 sec) 
 Total Blocks : 262144 Invalid Blocks : 0
Heartbeat CPU 6 instructions: 230000000 cycles: 765700054 heartbeat IPC: 0.0522677 cumulative IPC: 0.0522988 (Simulation time: 13 hr 30 min 25 sec) 
 Total Blocks : 262144 Invalid Blocks : 0
Heartbeat CPU 7 instructions: 230000000 cycles: 767573200 heartbeat IPC: 0.0522378 cumulative IPC: 0.0522513 (Simulation time: 13 hr 31 min 7 sec) 
 Total Blocks : 262144 Invalid Blocks : 0
Heartbeat CPU 0 instructions: 240000001 cycles: 946776360 heartbeat IPC: 0.0525643 cumulative IPC: 0.0524282 (Simulation time: 14 hr 37 min 5 sec) 
 Total Blocks : 262144 Invalid Blocks : 0
Heartbeat CPU 1 instructions: 240000001 cycles: 948477537 heartbeat IPC: 0.0524868 cumulative IPC: 0.0524082 (Simulation time: 14 hr 37 min 43 sec) 
 Total Blocks : 262144 Invalid Blocks : 0
Heartbeat CPU 2 instructions: 240000000 cycles: 951356794 heartbeat IPC: 0.0524983 cumulative IPC: 0.0523356 (Simulation time: 14 hr 38 min 47 sec) 
 Total Blocks : 262144 Invalid Blocks : 0
Heartbeat CPU 4 instructions: 240000001 cycles: 952988642 heartbeat IPC: 0.0524881 cumulative IPC: 0.0523848 (Simulation time: 14 hr 39 min 23 sec) 
 Total Blocks : 262144 Invalid Blocks : 0
Heartbeat CPU 3 instructions: 240000001 cycles: 954137462 heartbeat IPC: 0.0524204 cumulative IPC: 0.0522532 (Simulation time: 14 hr 39 min 48 sec) 
 Total Blocks : 262144 Invalid Blocks : 0
Heartbeat CPU 5 instructions: 240000001 cycles: 954215094 heartbeat IPC: 0.052585 cumulative IPC: 0.0523832 (Simulation time: 14 hr 39 min 50 sec) 
 Total Blocks : 262144 Invalid Blocks : 0
Heartbeat CPU 6 instructions: 240000001 cycles: 956276681 heartbeat IPC: 0.0524723 cumulative IPC: 0.0523421 (Simulation time: 14 hr 40 min 36 sec) 
 Total Blocks : 262144 Invalid Blocks : 0
Heartbeat CPU 7 instructions: 240000001 cycles: 958340540 heartbeat IPC: 0.0524199 cumulative IPC: 0.0522934 (Simulation time: 14 hr 41 min 22 sec) 
 Total Blocks : 262144 Invalid Blocks : 0
Heartbeat CPU 0 instructions: 250000001 cycles: 1137828865 heartbeat IPC: 0.0523416 cumulative IPC: 0.0524107 (Simulation time: 15 hr 47 min 39 sec) 
 Total Blocks : 262144 Invalid Blocks : 0
Heartbeat CPU 1 instructions: 250000001 cycles: 1139212334 heartbeat IPC: 0.0524288 cumulative IPC: 0.0524124 (Simulation time: 15 hr 48 min 10 sec) 
 Total Blocks : 262144 Invalid Blocks : 0
Heartbeat CPU 2 instructions: 250000001 cycles: 1142137998 heartbeat IPC: 0.0524161 cumulative IPC: 0.0523518 (Simulation time: 15 hr 49 min 15 sec) 
 Total Blocks : 262144 Invalid Blocks : 0
Heartbeat CPU 4 instructions: 250000001 cycles: 1143478696 heartbeat IPC: 0.0524962 cumulative IPC: 0.0524071 (Simulation time: 15 hr 49 min 46 sec) 
 Total Blocks : 262144 Invalid Blocks : 0
Heartbeat CPU 5 instructions: 250000001 cycles: 1145047876 heartbeat IPC: 0.0524019 cumulative IPC: 0.0523869 (Simulation time: 15 hr 50 min 21 sec) 
 Total Blocks : 262144 Invalid Blocks : 0
Heartbeat CPU 3 instructions: 250000001 cycles: 1145127471 heartbeat IPC: 0.0523588 cumulative IPC: 0.0522743 (Simulation time: 15 hr 50 min 22 sec) 
 Total Blocks : 262144 Invalid Blocks : 0
Heartbeat CPU 6 instructions: 250000001 cycles: 1147183584 heartbeat IPC: 0.0523816 cumulative IPC: 0.05235 (Simulation time: 15 hr 51 min 8 sec) 
 Total Blocks : 262144 Invalid Blocks : 0
Heartbeat CPU 7 instructions: 250000001 cycles: 1149173503 heartbeat IPC: 0.0524018 cumulative IPC: 0.052315 (Simulation time: 15 hr 51 min 52 sec) 
 Total Blocks : 262144 Invalid Blocks : 0
Heartbeat CPU 0 instructions: 260000000 cycles: 1328751250 heartbeat IPC: 0.0523773 cumulative IPC: 0.052405 (Simulation time: 16 hr 58 min 19 sec) 
 Total Blocks : 262144 Invalid Blocks : 0
Heartbeat CPU 1 instructions: 260000000 cycles: 1330659575 heartbeat IPC: 0.0522337 cumulative IPC: 0.0523823 (Simulation time: 16 hr 59 min 1 sec) 
 Total Blocks : 262144 Invalid Blocks : 0
Heartbeat CPU 2 instructions: 260000000 cycles: 1333503553 heartbeat IPC: 0.052256 cumulative IPC: 0.0523357 (Simulation time: 17 hr 0 min 3 sec) 
 Total Blocks : 262144 Invalid Blocks : 0
Heartbeat CPU 4 instructions: 260000000 cycles: 1334211392 heartbeat IPC: 0.0524294 cumulative IPC: 0.0524109 (Simulation time: 17 hr 0 min 18 sec) 
 Total Blocks : 262144 Invalid Blocks : 0
Heartbeat CPU 5 instructions: 260000000 cycles: 1336386257 heartbeat IPC: 0.0522634 cumulative IPC: 0.0523663 (Simulation time: 17 hr 1 min 4 sec) 
 Total Blocks : 262144 Invalid Blocks : 0
Heartbeat CPU 3 instructions: 260000000 cycles: 1336401408 heartbeat IPC: 0.052281 cumulative IPC: 0.0522755 (Simulation time: 17 hr 1 min 4 sec) 
 Total Blocks : 262144 Invalid Blocks : 0
Heartbeat CPU 6 instructions: 260000000 cycles: 1338581398 heartbeat IPC: 0.0522472 cumulative IPC: 0.0523328 (Simulation time: 17 hr 1 min 50 sec) 
 Total Blocks : 262144 Invalid Blocks : 0
Heartbeat CPU 7 instructions: 260000000 cycles: 1340431455 heartbeat IPC: 0.0522854 cumulative IPC: 0.0523101 (Simulation time: 17 hr 2 min 29 sec) 
 Total Blocks : 262144 Invalid Blocks : 0
Heartbeat CPU 0 instructions: 270000001 cycles: 1519383333 heartbeat IPC: 0.0524571 cumulative IPC: 0.0524125 (Simulation time: 18 hr 8 min 36 sec) 
 Total Blocks : 262144 Invalid Blocks : 0
Heartbeat CPU 1 instructions: 270000001 cycles: 1521472468 heartbeat IPC: 0.0524074 cumulative IPC: 0.0523859 (Simulation time: 18 hr 9 min 23 sec) 
 Total Blocks : 262144 Invalid Blocks : 0
Heartbeat CPU 4 instructions: 270000001 cycles: 1524499921 heartbeat IPC: 0.0525518 cumulative IPC: 0.052431 (Simulation time: 18 hr 10 min 29 sec) 
 Total Blocks : 262144 Invalid Blocks : 0
Heartbeat CPU 2 instructions: 270000001 cycles: 1524755179 heartbeat IPC: 0.0522871 cumulative IPC: 0.0523287 (Simulation time: 18 hr 10 min 34 sec) 
 Total Blocks : 262144 Invalid Blocks : 0
Heartbeat CPU 5 instructions: 270000001 cycles: 1527015720 heartbeat IPC: 0.0524578 cumulative IPC: 0.0523793 (Simulation time: 18 hr 11 min 22 sec) 
 Total Blocks : 262144 Invalid Blocks : 0
Heartbeat CPU 3 instructions: 270000001 cycles: 1527206238 heartbeat IPC: 0.0524096 cumulative IPC: 0.0522947 (Simulation time: 18 hr 11 min 26 sec) 
 Total Blocks : 262144 Invalid Blocks : 0
Heartbeat CPU 6 instructions: 270000001 cycles: 1529457445 heartbeat IPC: 0.05239 cumulative IPC: 0.052341 (Simulation time: 18 hr 12 min 14 sec) 
 Total Blocks : 262144 Invalid Blocks : 0
Heartbeat CPU 7 instructions: 270000001 cycles: 1531689102 heartbeat IPC: 0.0522855 cumulative IPC: 0.0523066 (Simulation time: 18 hr 13 min 3 sec) 
 Total Blocks : 262144 Invalid Blocks : 0
Heartbeat CPU 0 instructions: 280000003 cycles: 1710056757 heartbeat IPC: 0.0524457 cumulative IPC: 0.0524167 (Simulation time: 19 hr 18 min 46 sec) 
 Total Blocks : 262144 Invalid Blocks : 0
Heartbeat CPU 1 instructions: 280000003 cycles: 1712272304 heartbeat IPC: 0.052411 cumulative IPC: 0.052389 (Simulation time: 19 hr 19 min 35 sec) 
 Total Blocks : 262144 Invalid Blocks : 0
Heartbeat CPU 4 instructions: 280000003 cycles: 1715412115 heartbeat IPC: 0.0523801 cumulative IPC: 0.0524246 (Simulation time: 19 hr 20 min 45 sec) 
 Total Blocks : 262144 Invalid Blocks : 0
Heartbeat CPU 2 instructions: 280000003 cycles: 1715731690 heartbeat IPC: 0.0523625 cumulative IPC: 0.052333 (Simulation time: 19 hr 20 min 53 sec) 
 Total Blocks : 262144 Invalid Blocks : 0
Heartbeat CPU 5 instructions: 280000003 cycles: 1718162857 heartbeat IPC: 0.0523157 cumulative IPC: 0.0523714 (Simulation time: 19 hr 21 min 48 sec) 
 Total Blocks : 262144 Invalid Blocks : 0
Heartbeat CPU 3 instructions: 280000003 cycles: 1718368492 heartbeat IPC: 0.0523116 cumulative IPC: 0.0522968 (Simulation time: 19 hr 21 min 52 sec) 
 Total Blocks : 262144 Invalid Blocks : 0
Heartbeat CPU 6 instructions: 280000003 cycles: 1720866570 heartbeat IPC: 0.0522441 cumulative IPC: 0.0523289 (Simulation time: 19 hr 22 min 50 sec) 
 Total Blocks : 262144 Invalid Blocks : 0
Heartbeat CPU 7 instructions: 280000003 cycles: 1722808568 heartbeat IPC: 0.0523233 cumulative IPC: 0.0523087 (Simulation time: 19 hr 23 min 33 sec) 
 Total Blocks : 262144 Invalid Blocks : 0
Heartbeat CPU 0 instructions: 290000000 cycles: 1900987122 heartbeat IPC: 0.0523751 cumulative IPC: 0.052412 (Simulation time: 20 hr 31 min 15 sec) 
 Total Blocks : 262144 Invalid Blocks : 0
Heartbeat CPU 1 instructions: 290000001 cycles: 1903018436 heartbeat IPC: 0.0524257 cumulative IPC: 0.0523931 (Simulation time: 20 hr 32 min 1 sec) 
 Total Blocks : 262144 Invalid Blocks : 0
Heartbeat CPU 4 instructions: 290000000 cycles: 1905813072 heartbeat IPC: 0.0525207 cumulative IPC: 0.0524353 (Simulation time: 20 hr 33 min 5 sec) 
 Total Blocks : 262144 Invalid Blocks : 0
Heartbeat CPU 2 instructions: 290000001 cycles: 1906321967 heartbeat IPC: 0.0524686 cumulative IPC: 0.0523481 (Simulation time: 20 hr 33 min 17 sec) 
 Total Blocks : 262144 Invalid Blocks : 0
Heartbeat CPU 5 instructions: 290000001 cycles: 1908792908 heartbeat IPC: 0.0524576 cumulative IPC: 0.0523809 (Simulation time: 20 hr 34 min 15 sec) 
 Total Blocks : 262144 Invalid Blocks : 0
Heartbeat CPU 3 instructions: 290000000 cycles: 1909430875 heartbeat IPC: 0.0523389 cumulative IPC: 0.0523015 (Simulation time: 20 hr 34 min 29 sec) 
 Total Blocks : 262144 Invalid Blocks : 0
Heartbeat CPU 6 instructions: 290000000 cycles: 1911858457 heartbeat IPC: 0.0523582 cumulative IPC: 0.0523321 (Simulation time: 20 hr 35 min 26 sec) 
 Total Blocks : 262144 Invalid Blocks : 0
Heartbeat CPU 7 instructions: 290000000 cycles: 1913848692 heartbeat IPC: 0.052345 cumulative IPC: 0.0523127 (Simulation time: 20 hr 36 min 12 sec) 
 Total Blocks : 262144 Invalid Blocks : 0
Heartbeat CPU 0 instructions: 300000001 cycles: 2091885089 heartbeat IPC: 0.052384 cumulative IPC: 0.0524092 (Simulation time: 21 hr 43 min 1 sec) 
 Total Blocks : 262144 Invalid Blocks : 0
Heartbeat CPU 1 instructions: 300000001 cycles: 2093497290 heartbeat IPC: 0.0524993 cumulative IPC: 0.0524038 (Simulation time: 21 hr 43 min 36 sec) 
 Total Blocks : 262144 Invalid Blocks : 0
Heartbeat CPU 2 instructions: 300000000 cycles: 2096415816 heartbeat IPC: 0.0526056 cumulative IPC: 0.0523738 (Simulation time: 21 hr 44 min 42 sec) 
 Total Blocks : 262144 Invalid Blocks : 0
Heartbeat CPU 4 instructions: 300000000 cycles: 2096546865 heartbeat IPC: 0.0524291 cumulative IPC: 0.0524347 (Simulation time: 21 hr 44 min 45 sec) 
 Total Blocks : 262144 Invalid Blocks : 0
Heartbeat CPU 5 instructions: 300000001 cycles: 2099380599 heartbeat IPC: 0.0524693 cumulative IPC: 0.0523898 (Simulation time: 21 hr 45 min 50 sec) 
 Total Blocks : 262144 Invalid Blocks : 0
Heartbeat CPU 3 instructions: 300000000 cycles: 2100551142 heartbeat IPC: 0.0523231 cumulative IPC: 0.0523036 (Simulation time: 21 hr 46 min 16 sec) 
 Total Blocks : 262144 Invalid Blocks : 0
Heartbeat CPU 6 instructions: 300000000 cycles: 2102471332 heartbeat IPC: 0.0524624 cumulative IPC: 0.0523451 (Simulation time: 21 hr 47 min 1 sec) 
 Total Blocks : 262144 Invalid Blocks : 0
Heartbeat CPU 7 instructions: 300000000 cycles: 2104755310 heartbeat IPC: 0.0523816 cumulative IPC: 0.0523196 (Simulation time: 21 hr 47 min 54 sec) 
 Total Blocks : 262144 Invalid Blocks : 0
Heartbeat CPU 0 instructions: 310000003 cycles: 2282044240 heartbeat IPC: 0.0525875 cumulative IPC: 0.0524255 (Simulation time: 22 hr 55 min 22 sec) 
 Total Blocks : 262144 Invalid Blocks : 0
Heartbeat CPU 1 instructions: 310000002 cycles: 2283653849 heartbeat IPC: 0.0525883 cumulative IPC: 0.0524206 (Simulation time: 22 hr 56 min 0 sec) 
 Total Blocks : 262144 Invalid Blocks : 0
Heartbeat CPU 4 instructions: 310000003 cycles: 2286521906 heartbeat IPC: 0.0526385 cumulative IPC: 0.0524532 (Simulation time: 22 hr 57 min 7 sec) 
 Total Blocks : 262144 Invalid Blocks : 0
Heartbeat CPU 2 instructions: 310000003 cycles: 2286811089 heartbeat IPC: 0.0525223 cumulative IPC: 0.0523873 (Simulation time: 22 hr 57 min 13 sec) 
 Total Blocks : 262144 Invalid Blocks : 0
Heartbeat CPU 5 instructions: 310000002 cycles: 2289439971 heartbeat IPC: 0.0526151 cumulative IPC: 0.0524102 (Simulation time: 22 hr 58 min 14 sec) 
 Total Blocks : 262144 Invalid Blocks : 0
Heartbeat CPU 3 instructions: 310000002 cycles: 2290916205 heartbeat IPC: 0.0525307 cumulative IPC: 0.0523242 (Simulation time: 22 hr 58 min 49 sec) 
 Total Blocks : 262144 Invalid Blocks : 0
Heartbeat CPU 6 instructions: 310000002 cycles: 2292970965 heartbeat IPC: 0.0524935 cumulative IPC: 0.0523586 (Simulation time: 22 hr 59 min 35 sec) 
 Total Blocks : 262144 Invalid Blocks : 0
Heartbeat CPU 7 instructions: 310000002 cycles: 2295417628 heartbeat IPC: 0.0524488 cumulative IPC: 0.0523313 (Simulation time: 23 hr 0 min 31 sec) 
 Total Blocks : 262144 Invalid Blocks : 0
Heartbeat CPU 0 instructions: 320000001 cycles: 2472746033 heartbeat IPC: 0.0524379 cumulative IPC: 0.0524265 (Simulation time: 24 hr 7 min 58 sec) 
 Total Blocks : 262144 Invalid Blocks : 0
Heartbeat CPU 1 instructions: 320000001 cycles: 2474366194 heartbeat IPC: 0.052435 cumulative IPC: 0.0524218 (Simulation time: 24 hr 8 min 33 sec) 
 Total Blocks : 262144 Invalid Blocks : 0
Heartbeat CPU 4 instructions: 320000001 cycles: 2477642149 heartbeat IPC: 0.0523231 cumulative IPC: 0.0524423 (Simulation time: 24 hr 9 min 46 sec) 
 Total Blocks : 262144 Invalid Blocks : 0
Heartbeat CPU 2 instructions: 320000001 cycles: 2477946179 heartbeat IPC: 0.052319 cumulative IPC: 0.0523816 (Simulation time: 24 hr 9 min 53 sec) 
 Total Blocks : 262144 Invalid Blocks : 0
Heartbeat CPU 5 instructions: 320000001 cycles: 2480111321 heartbeat IPC: 0.0524463 cumulative IPC: 0.0524132 (Simulation time: 24 hr 10 min 42 sec) 
 Total Blocks : 262144 Invalid Blocks : 0
Heartbeat CPU 3 instructions: 320000001 cycles: 2482195084 heartbeat IPC: 0.0522797 cumulative IPC: 0.0523205 (Simulation time: 24 hr 11 min 29 sec) 
 Total Blocks : 262144 Invalid Blocks : 0
Heartbeat CPU 6 instructions: 320000001 cycles: 2483785335 heartbeat IPC: 0.0524069 cumulative IPC: 0.0523626 (Simulation time: 24 hr 12 min 3 sec) 
 Total Blocks : 262144 Invalid Blocks : 0
Heartbeat CPU 7 instructions: 320000001 cycles: 2486341256 heartbeat IPC: 0.052377 cumulative IPC: 0.0523351 (Simulation time: 24 hr 13 min 1 sec) 
 Total Blocks : 262144 Invalid Blocks : 0
Heartbeat CPU 0 instructions: 330000000 cycles: 2669300600 heartbeat IPC: 0.0508765 cumulative IPC: 0.0523034 (Simulation time: 25 hr 6 min 18 sec) 
 Total Blocks : 262144 Invalid Blocks : 0
Heartbeat CPU 1 instructions: 330000000 cycles: 2670811470 heartbeat IPC: 0.0509048 cumulative IPC: 0.0523015 (Simulation time: 25 hr 6 min 43 sec) 
 Total Blocks : 262144 Invalid Blocks : 0
Heartbeat CPU 4 instructions: 330000000 cycles: 2673810577 heartbeat IPC: 0.0509766 cumulative IPC: 0.0523264 (Simulation time: 25 hr 7 min 31 sec) 
 Total Blocks : 262144 Invalid Blocks : 0
Heartbeat CPU 2 instructions: 330000000 cycles: 2674153103 heartbeat IPC: 0.0509666 cumulative IPC: 0.0522697 (Simulation time: 25 hr 7 min 36 sec) 
 Total Blocks : 262144 Invalid Blocks : 0
Heartbeat CPU 5 instructions: 330000000 cycles: 2676261975 heartbeat IPC: 0.0509812 cumulative IPC: 0.0523001 (Simulation time: 25 hr 8 min 10 sec) 
 Total Blocks : 262144 Invalid Blocks : 0
Heartbeat CPU 3 instructions: 330000000 cycles: 2678202918 heartbeat IPC: 0.0510184 cumulative IPC: 0.0522178 (Simulation time: 25 hr 8 min 41 sec) 
 Total Blocks : 262144 Invalid Blocks : 0
Heartbeat CPU 6 instructions: 330000000 cycles: 2680011071 heartbeat IPC: 0.0509617 cumulative IPC: 0.0522521 (Simulation time: 25 hr 9 min 10 sec) 
 Total Blocks : 262144 Invalid Blocks : 0
Heartbeat CPU 7 instructions: 330000000 cycles: 2682377462 heartbeat IPC: 0.051011 cumulative IPC: 0.0522308 (Simulation time: 25 hr 9 min 48 sec) 
 Total Blocks : 262144 Invalid Blocks : 0
Heartbeat CPU 0 instructions: 340000002 cycles: 2868988006 heartbeat IPC: 0.0500783 cumulative IPC: 0.0521374 (Simulation time: 25 hr 58 min 29 sec) 
 Total Blocks : 262144 Invalid Blocks : 0
Heartbeat CPU 1 instructions: 340000002 cycles: 2870321510 heartbeat IPC: 0.0501228 cumulative IPC: 0.0521391 (Simulation time: 25 hr 58 min 50 sec) 
 Total Blocks : 262144 Invalid Blocks : 0
Heartbeat CPU 4 instructions: 340000002 cycles: 2873648141 heartbeat IPC: 0.0500407 cumulative IPC: 0.052156 (Simulation time: 25 hr 59 min 41 sec) 
 Total Blocks : 262144 Invalid Blocks : 0
Heartbeat CPU 2 instructions: 340000002 cycles: 2873689851 heartbeat IPC: 0.0501161 cumulative IPC: 0.0521093 (Simulation time: 25 hr 59 min 42 sec) 
 Total Blocks : 262144 Invalid Blocks : 0
Heartbeat CPU 5 instructions: 340000002 cycles: 2875681655 heartbeat IPC: 0.0501455 cumulative IPC: 0.0521399 (Simulation time: 26 hr 0 min 13 sec) 
 Total Blocks : 262144 Invalid Blocks : 0
Heartbeat CPU 3 instructions: 340000002 cycles: 2878329293 heartbeat IPC: 0.0499684 cumulative IPC: 0.0520501 (Simulation time: 26 hr 0 min 53 sec) 
 Total Blocks : 262144 Invalid Blocks : 0
Heartbeat CPU 6 instructions: 340000002 cycles: 2879838913 heartbeat IPC: 0.0500431 cumulative IPC: 0.0520878 (Simulation time: 26 hr 1 min 16 sec) 
 Total Blocks : 262144 Invalid Blocks : 0
Heartbeat CPU 7 instructions: 340000002 cycles: 2882287877 heartbeat IPC: 0.0500224 cumulative IPC: 0.0520666 (Simulation time: 26 hr 1 min 54 sec) 
 Total Blocks : 262144 Invalid Blocks : 0
Heartbeat CPU 0 instructions: 350000001 cycles: 3069795863 heartbeat IPC: 0.0497988 cumulative IPC: 0.0519741 (Simulation time: 26 hr 50 min 20 sec) 
 Total Blocks : 262144 Invalid Blocks : 0
Heartbeat CPU 1 instructions: 350000001 cycles: 3071409154 heartbeat IPC: 0.0497296 cumulative IPC: 0.0519707 (Simulation time: 26 hr 50 min 45 sec) 
 Total Blocks : 262144 Invalid Blocks : 0
Heartbeat CPU 2 instructions: 350000001 cycles: 3074659409 heartbeat IPC: 0.0497588 cumulative IPC: 0.0519454 (Simulation time: 26 hr 51 min 35 sec) 
 Total Blocks : 262144 Invalid Blocks : 0
Heartbeat CPU 4 instructions: 350000001 cycles: 3074846677 heartbeat IPC: 0.0497021 cumulative IPC: 0.0519846 (Simulation time: 26 hr 51 min 38 sec) 
 Total Blocks : 262144 Invalid Blocks : 0
Heartbeat CPU 5 instructions: 350000001 cycles: 3076571309 heartbeat IPC: 0.0497786 cumulative IPC: 0.0519754 (Simulation time: 26 hr 52 min 4 sec) 
 Total Blocks : 262144 Invalid Blocks : 0
Heartbeat CPU 3 instructions: 350000001 cycles: 3079842826 heartbeat IPC: 0.0496245 cumulative IPC: 0.0518808 (Simulation time: 26 hr 52 min 55 sec) 
 Total Blocks : 262144 Invalid Blocks : 0
Heartbeat CPU 6 instructions: 350000001 cycles: 3081293825 heartbeat IPC: 0.0496389 cumulative IPC: 0.0519169 (Simulation time: 26 hr 53 min 17 sec) 
 Total Blocks : 262144 Invalid Blocks : 0
Heartbeat CPU 7 instructions: 350000001 cycles: 3083325453 heartbeat IPC: 0.0497419 cumulative IPC: 0.0519049 (Simulation time: 26 hr 53 min 48 sec) 
 Total Blocks : 262144 Invalid Blocks : 0
Heartbeat CPU 0 instructions: 360000000 cycles: 3253234913 heartbeat IPC: 0.054514 cumulative IPC: 0.0521264 (Simulation time: 27 hr 43 min 38 sec) 
 Total Blocks : 262144 Invalid Blocks : 0
Heartbeat CPU 1 instructions: 360000000 cycles: 3255049054 heartbeat IPC: 0.0544544 cumulative IPC: 0.0521197 (Simulation time: 27 hr 45 min 23 sec) 
 Total Blocks : 262144 Invalid Blocks : 0
Heartbeat CPU 2 instructions: 360000000 cycles: 3258698064 heartbeat IPC: 0.0543364 cumulative IPC: 0.0520889 (Simulation time: 27 hr 48 min 56 sec) 
 Total Blocks : 262144 Invalid Blocks : 0
Heartbeat CPU 4 instructions: 360000000 cycles: 3258725082 heartbeat IPC: 0.0543838 cumulative IPC: 0.0521285 (Simulation time: 27 hr 48 min 58 sec) 
 Total Blocks : 262144 Invalid Blocks : 0
Heartbeat CPU 5 instructions: 360000000 cycles: 3260435739 heartbeat IPC: 0.0543879 cumulative IPC: 0.05212 (Simulation time: 27 hr 50 min 24 sec) 
 Total Blocks : 262144 Invalid Blocks : 0
Heartbeat CPU 3 instructions: 360000000 cycles: 3263767041 heartbeat IPC: 0.0543702 cumulative IPC: 0.0520299 (Simulation time: 27 hr 52 min 58 sec) 
 Total Blocks : 262144 Invalid Blocks : 0
Heartbeat CPU 6 instructions: 360000000 cycles: 3265708022 heartbeat IPC: 0.0542258 cumulative IPC: 0.0520555 (Simulation time: 27 hr 54 min 57 sec) 
 Total Blocks : 262144 Invalid Blocks : 0
Heartbeat CPU 7 instructions: 360000000 cycles: 3267866388 heartbeat IPC: 0.0541885 cumulative IPC: 0.052042 (Simulation time: 27 hr 57 min 8 sec) 
 Total Blocks : 262144 Invalid Blocks : 0
Heartbeat CPU 0 instructions: 370000000 cycles: 3392772050 heartbeat IPC: 0.0716655 cumulative IPC: 0.0529786 (Simulation time: 29 hr 0 min 16 sec) 
 Total Blocks : 262144 Invalid Blocks : 0
Heartbeat CPU 1 instructions: 370000000 cycles: 3394590296 heartbeat IPC: 0.0716634 cumulative IPC: 0.0529716 (Simulation time: 29 hr 0 min 58 sec) 
 Total Blocks : 262144 Invalid Blocks : 0
Heartbeat CPU 2 instructions: 370000000 cycles: 3398254004 heartbeat IPC: 0.0716559 cumulative IPC: 0.052941 (Simulation time: 29 hr 2 min 24 sec) 
 Total Blocks : 262144 Invalid Blocks : 0
Heartbeat CPU 4 instructions: 370000000 cycles: 3398351085 heartbeat IPC: 0.0716199 cumulative IPC: 0.0529777 (Simulation time: 29 hr 2 min 26 sec) 
 Total Blocks : 262144 Invalid Blocks : 0
Heartbeat CPU 5 instructions: 370000000 cycles: 3399673353 heartbeat IPC: 0.0718197 cumulative IPC: 0.0529755 (Simulation time: 29 hr 2 min 57 sec) 
 Total Blocks : 262144 Invalid Blocks : 0
Heartbeat CPU 3 instructions: 370000000 cycles: 3403088875 heartbeat IPC: 0.0717763 cumulative IPC: 0.052887 (Simulation time: 29 hr 4 min 17 sec) 
 Total Blocks : 262144 Invalid Blocks : 0
Heartbeat CPU 6 instructions: 370000000 cycles: 3405051579 heartbeat IPC: 0.0717651 cumulative IPC: 0.0529107 (Simulation time: 29 hr 5 min 3 sec) 
 Total Blocks : 262144 Invalid Blocks : 0
Heartbeat CPU 7 instructions: 370000000 cycles: 3406838618 heartbeat IPC: 0.0719568 cumulative IPC: 0.0529032 (Simulation time: 29 hr 5 min 44 sec) 
 Total Blocks : 262144 Invalid Blocks : 0
Heartbeat CPU 0 instructions: 380000000 cycles: 3535264629 heartbeat IPC: 0.0701791 cumulative IPC: 0.053712 (Simulation time: 30 hr 0 min 25 sec) 
 Total Blocks : 262144 Invalid Blocks : 0
Heartbeat CPU 1 instructions: 380000000 cycles: 3536837258 heartbeat IPC: 0.0703003 cumulative IPC: 0.0537089 (Simulation time: 30 hr 1 min 31 sec) 
 Total Blocks : 262144 Invalid Blocks : 0
Heartbeat CPU 2 instructions: 380000000 cycles: 3540374529 heartbeat IPC: 0.0703628 cumulative IPC: 0.0536808 (Simulation time: 30 hr 4 min 2 sec) 
 Total Blocks : 262144 Invalid Blocks : 0
Heartbeat CPU 4 instructions: 380000000 cycles: 3540948783 heartbeat IPC: 0.0701274 cumulative IPC: 0.0537082 (Simulation time: 30 hr 4 min 27 sec) 
 Total Blocks : 262144 Invalid Blocks : 0
Heartbeat CPU 5 instructions: 380000000 cycles: 3542148190 heartbeat IPC: 0.0701878 cumulative IPC: 0.0537078 (Simulation time: 30 hr 5 min 17 sec) 
 Total Blocks : 262144 Invalid Blocks : 0
Heartbeat CPU 3 instructions: 380000000 cycles: 3545223487 heartbeat IPC: 0.0703558 cumulative IPC: 0.0536278 (Simulation time: 30 hr 7 min 49 sec) 
 Total Blocks : 262144 Invalid Blocks : 0
Heartbeat CPU 6 instructions: 380000000 cycles: 3546906260 heartbeat IPC: 0.0704947 cumulative IPC: 0.0536545 (Simulation time: 30 hr 8 min 57 sec) 
 Total Blocks : 262144 Invalid Blocks : 0
Heartbeat CPU 7 instructions: 380000000 cycles: 3548549603 heartbeat IPC: 0.0705662 cumulative IPC: 0.0536493 (Simulation time: 30 hr 10 min 16 sec) 
 Total Blocks : 262144 Invalid Blocks : 0
Heartbeat CPU 0 instructions: 390000001 cycles: 3682358273 heartbeat IPC: 0.0679839 cumulative IPC: 0.0543137 (Simulation time: 31 hr 46 min 5 sec) 
 Total Blocks : 262144 Invalid Blocks : 0
Heartbeat CPU 1 instructions: 390000001 cycles: 3683930916 heartbeat IPC: 0.0679839 cumulative IPC: 0.0543105 (Simulation time: 31 hr 47 min 7 sec) 
 Total Blocks : 262144 Invalid Blocks : 0
Heartbeat CPU 2 instructions: 390000001 cycles: 3687135066 heartbeat IPC: 0.0681382 cumulative IPC: 0.0542881 (Simulation time: 31 hr 49 min 35 sec) 
 Total Blocks : 262144 Invalid Blocks : 0
Heartbeat CPU 4 instructions: 390000001 cycles: 3688062135 heartbeat IPC: 0.0679748 cumulative IPC: 0.0543088 (Simulation time: 31 hr 50 min 15 sec) 
 Total Blocks : 262144 Invalid Blocks : 0
Heartbeat CPU 5 instructions: 390000001 cycles: 3688938475 heartbeat IPC: 0.0681244 cumulative IPC: 0.0543132 (Simulation time: 31 hr 50 min 47 sec) 
 Total Blocks : 262144 Invalid Blocks : 0
Heartbeat CPU 3 instructions: 390000001 cycles: 3691926420 heartbeat IPC: 0.068165 cumulative IPC: 0.0542374 (Simulation time: 31 hr 52 min 55 sec) 
 Total Blocks : 262144 Invalid Blocks : 0
Heartbeat CPU 6 instructions: 390000001 cycles: 3693273907 heartbeat IPC: 0.0683211 cumulative IPC: 0.0542679 (Simulation time: 31 hr 53 min 58 sec) 
 Total Blocks : 262144 Invalid Blocks : 0
Heartbeat CPU 7 instructions: 390000001 cycles: 3695024841 heartbeat IPC: 0.0682709 cumulative IPC: 0.0542609 (Simulation time: 31 hr 55 min 13 sec) 
 Total Blocks : 262144 Invalid Blocks : 0
Heartbeat CPU 0 instructions: 400000001 cycles: 3835066005 heartbeat IPC: 0.0654846 cumulative IPC: 0.0547821 (Simulation time: 33 hr 29 min 0 sec) 
 Total Blocks : 262144 Invalid Blocks : 0
Heartbeat CPU 1 instructions: 400000001 cycles: 3836545186 heartbeat IPC: 0.0655247 cumulative IPC: 0.0547802 (Simulation time: 33 hr 30 min 0 sec) 
 Total Blocks : 262144 Invalid Blocks : 0
Heartbeat CPU 2 instructions: 400000001 cycles: 3839647701 heartbeat IPC: 0.0655683 cumulative IPC: 0.0547599 (Simulation time: 33 hr 31 min 49 sec) 
 Total Blocks : 262144 Invalid Blocks : 0
Heartbeat CPU 4 instructions: 400000001 cycles: 3840478689 heartbeat IPC: 0.0656097 cumulative IPC: 0.0547811 (Simulation time: 33 hr 32 min 18 sec) 
 Total Blocks : 262144 Invalid Blocks : 0
Heartbeat CPU 5 instructions: 400000001 cycles: 3841260986 heartbeat IPC: 0.0656502 cumulative IPC: 0.0547866 (Simulation time: 33 hr 32 min 46 sec) 
 Total Blocks : 262144 Invalid Blocks : 0
Finished CPU 0 instructions: 200000001 cycles: 3649512632 cumulative IPC: 0.0548018 (Simulation time: 33 hr 33 min 44 sec) 
Finished CPU 1 instructions: 200000001 cycles: 3649744232 cumulative IPC: 0.0547984 (Simulation time: 33 hr 33 min 52 sec) 
Finished CPU 5 instructions: 200000000 cycles: 3650113980 cumulative IPC: 0.0547928 (Simulation time: 33 hr 34 min 5 sec) 
Finished CPU 4 instructions: 200000001 cycles: 3650297258 cumulative IPC: 0.0547901 (Simulation time: 33 hr 34 min 11 sec) 
Heartbeat CPU 3 instructions: 400000001 cycles: 3844227317 heartbeat IPC: 0.0656595 cumulative IPC: 0.0547139 (Simulation time: 33 hr 34 min 29 sec) 
 Total Blocks : 262144 Invalid Blocks : 0
Finished CPU 2 instructions: 200000003 cycles: 3651380413 cumulative IPC: 0.0547738 (Simulation time: 33 hr 34 min 49 sec) 
Heartbeat CPU 6 instructions: 400000001 cycles: 3845238354 heartbeat IPC: 0.0658049 cumulative IPC: 0.054748 (Simulation time: 33 hr 35 min 4 sec) 
 Total Blocks : 262144 Invalid Blocks : 0
Finished CPU 6 instructions: 200000001 cycles: 3652872274 cumulative IPC: 0.0547514 (Simulation time: 33 hr 35 min 41 sec) 
Heartbeat CPU 7 instructions: 400000001 cycles: 3846782110 heartbeat IPC: 0.0658947 cumulative IPC: 0.0547442 (Simulation time: 33 hr 35 min 58 sec) 
 Total Blocks : 262144 Invalid Blocks : 0
Finished CPU 7 instructions: 200000003 cycles: 3653357123 cumulative IPC: 0.0547442 (Simulation time: 33 hr 35 min 58 sec) 
Finished CPU 3 instructions: 200000000 cycles: 3654659550 cumulative IPC: 0.0547247 (Simulation time: 33 hr 36 min 43 sec) 

CPU 0 Branch Prediction Accuracy: 93.7415% MPKI: 14.4411 Average ROB Occupancy at Mispredict: 75.5251

CPU 1 Branch Prediction Accuracy: 93.7387% MPKI: 14.4518 Average ROB Occupancy at Mispredict: 75.5181

CPU 2 Branch Prediction Accuracy: 93.733% MPKI: 14.4693 Average ROB Occupancy at Mispredict: 75.315

CPU 3 Branch Prediction Accuracy: 93.7255% MPKI: 14.4894 Average ROB Occupancy at Mispredict: 75.2486

CPU 4 Branch Prediction Accuracy: 93.7308% MPKI: 14.4824 Average ROB Occupancy at Mispredict: 75.4638

CPU 5 Branch Prediction Accuracy: 93.7288% MPKI: 14.4907 Average ROB Occupancy at Mispredict: 75.4764

CPU 6 Branch Prediction Accuracy: 93.722% MPKI: 14.5091 Average ROB Occupancy at Mispredict: 75.2247

CPU 7 Branch Prediction Accuracy: 93.7191% MPKI: 14.5198 Average ROB Occupancy at Mispredict: 75.2256

ChampSim completed all CPUs

Total Simulation Statistics (not including warmup)

CPU 0 cumulative IPC: 0.0548146 instructions: 200328847 cycles: 3654659550
ITLB TOTAL     ACCESS: 29527705  HIT: 29527705  MISS:     0  HIT %:   100  MISS %:     0  AVERAGE MISS PENALTY: 0
ITLB LOAD      ACCESS: 29527705  HIT: 29527705  MISS:     0  HIT %:   100  MISS %:     0  AVERAGE MISS PENALTY: 0
ITLB RFO       ACCESS:     0  HIT:     0  MISS:     0  HIT %:     0  MISS %:     0  AVERAGE MISS PENALTY: 0
ITLB PREFETCH  ACCESS:     0  HIT:     0  MISS:     0  HIT %:     0  MISS %:     0  AVERAGE MISS PENALTY: 0
ITLB WRITEBACK ACCESS:     0  HIT:     0  MISS:     0  HIT %:     0  MISS %:     0  AVERAGE MISS PENALTY: 0

DTLB TOTAL     ACCESS: 42365661  HIT: 27387889  MISS: 14977772  HIT %: 64.6464  MISS %: 35.3536  AVERAGE MISS PENALTY: 32.3312
DTLB LOAD      ACCESS: 37629312  HIT: 24769467  MISS: 12859845  HIT %: 65.8249  MISS %: 34.1751  AVERAGE MISS PENALTY: 26.4665
DTLB RFO       ACCESS: 4736349  HIT: 2618422  MISS: 2117927  HIT %: 55.2836  MISS %: 44.7164  AVERAGE MISS PENALTY: 67.941
DTLB PREFETCH  ACCESS:     0  HIT:     0  MISS:     0  HIT %:     0  MISS %:     0  AVERAGE MISS PENALTY: 0
DTLB WRITEBACK ACCESS:     0  HIT:     0  MISS:     0  HIT %:     0  MISS %:     0  AVERAGE MISS PENALTY: 0

STLB TOTAL     ACCESS: 14977772  HIT: 13149131  MISS: 1828641  HIT %: 87.791  MISS %: 12.209  AVERAGE MISS PENALTY: 100
STLB LOAD      ACCESS: 12859845  HIT: 12100039  MISS: 759806  HIT %: 94.0916  MISS %: 5.90836  AVERAGE MISS PENALTY: 100
STLB RFO       ACCESS: 2117927  HIT: 1049092  MISS: 1068835  HIT %: 49.5339  MISS %: 50.4661  AVERAGE MISS PENALTY: 100
STLB PREFETCH  ACCESS:     0  HIT:     0  MISS:     0  HIT %:     0  MISS %:     0  AVERAGE MISS PENALTY: 0
STLB WRITEBACK ACCESS:     0  HIT:     0  MISS:     0  HIT %:     0  MISS %:     0  AVERAGE MISS PENALTY: 0

L1D TOTAL     ACCESS: 83655685  HIT: 26926323  MISS: 56729362  HIT %: 32.1871  MISS %: 67.8129  AVERAGE MISS PENALTY: 1.23326e+06
L1D LOAD      ACCESS: 38083488  HIT: 20407061  MISS: 17676427  HIT %: 53.5851  MISS %: 46.4149  AVERAGE MISS PENALTY: 3.95699e+06
L1D RFO       ACCESS: 4837948  HIT: 4801025  MISS: 36923  HIT %: 99.2368  MISS %: 0.763195  AVERAGE MISS PENALTY: 243.634
L1D PREFETCH  ACCESS: 40734249  HIT: 1718237  MISS: 39016012  HIT %: 4.21816  MISS %: 95.7818  AVERAGE MISS PENALTY: 418.358
L1D WRITEBACK ACCESS:     0  HIT:     0  MISS:     0  HIT %:     0  MISS %:     0  AVERAGE MISS PENALTY: 0

L1I TOTAL     ACCESS: 45288868  HIT: 45288868  MISS:     0  HIT %:   100  MISS %:     0  AVERAGE MISS PENALTY: 0
L1I LOAD      ACCESS: 45288868  HIT: 45288868  MISS:     0  HIT %:   100  MISS %:     0  AVERAGE MISS PENALTY: 0
L1I RFO       ACCESS:     0  HIT:     0  MISS:     0  HIT %:     0  MISS %:     0  AVERAGE MISS PENALTY: 0
L1I PREFETCH  ACCESS:     0  HIT:     0  MISS:     0  HIT %:     0  MISS %:     0  AVERAGE MISS PENALTY: 0
L1I WRITEBACK ACCESS:     0  HIT:     0  MISS:     0  HIT %:     0  MISS %:     0  AVERAGE MISS PENALTY: 0

L2C TOTAL     ACCESS: 93026902  HIT: 5916959  MISS: 87109943  HIT %: 6.36048  MISS %: 93.6395  AVERAGE MISS PENALTY: 736769
L2C LOAD      ACCESS: 17675723  HIT: 212213  MISS: 17463510  HIT %: 1.20059  MISS %: 98.7994  AVERAGE MISS PENALTY: 3.6734e+06
L2C RFO       ACCESS: 36914  HIT: 15659  MISS: 21255  HIT %: 42.4202  MISS %: 57.5798  AVERAGE MISS PENALTY: 395.354
L2C PREFETCH  ACCESS: 72867617  HIT: 4944779  MISS: 67922838  HIT %: 6.78598  MISS %: 93.214  AVERAGE MISS PENALTY: 432.609
L2C WRITEBACK ACCESS: 2446648  HIT: 744308  MISS: 1702340  HIT %: 30.4215  MISS %: 69.5785  AVERAGE MISS PENALTY: 0


LLC0 TOTAL     ACCESS: 11209235  HIT: 5478557  MISS: 5730678  HIT %: 48.8754  MISS %: 51.1246  AVERAGE MISS PENALTY: 761.258
LLC0 LOAD      ACCESS: 2211813  HIT: 1014451  MISS: 1197362  HIT %: 45.8651  MISS %: 54.1349  AVERAGE MISS PENALTY: 743.786
LLC0 RFO       ACCESS:  2764  HIT:  1439  MISS:  1325  HIT %: 52.0622  MISS %: 47.9378  AVERAGE MISS PENALTY: 729.704
LLC0 PREFETCH  ACCESS: 8692520  HIT: 4172967  MISS: 4519553  HIT %: 48.0064  MISS %: 51.9936  AVERAGE MISS PENALTY: 767.991
LLC0 WRITEBACK ACCESS: 302138  HIT: 289700  MISS: 12438  HIT %: 95.8833  MISS %: 4.11666  AVERAGE MISS PENALTY: 0

LLC1 TOTAL     ACCESS: 11352558  HIT: 5511271  MISS: 5841287  HIT %: 48.5465  MISS %: 51.4535  AVERAGE MISS PENALTY: 764.794
LLC1 LOAD      ACCESS: 2167069  HIT: 980887  MISS: 1186182  HIT %: 45.2633  MISS %: 54.7367  AVERAGE MISS PENALTY: 748.713
LLC1 RFO       ACCESS:  2764  HIT:  1443  MISS:  1321  HIT %: 52.2069  MISS %: 47.7931  AVERAGE MISS PENALTY: 741.245
LLC1 PREFETCH  ACCESS: 8877764  HIT: 4234677  MISS: 4643087  HIT %: 47.6998  MISS %: 52.3002  AVERAGE MISS PENALTY: 770.671
LLC1 WRITEBACK ACCESS: 304961  HIT: 294264  MISS: 10697  HIT %: 96.4923  MISS %: 3.50766  AVERAGE MISS PENALTY: 0

LLC2 TOTAL     ACCESS: 11307758  HIT: 5466455  MISS: 5841303  HIT %: 48.3425  MISS %: 51.6575  AVERAGE MISS PENALTY: 751.622
LLC2 LOAD      ACCESS: 2159240  HIT: 984824  MISS: 1174416  HIT %: 45.6098  MISS %: 54.3902  AVERAGE MISS PENALTY: 742.161
LLC2 RFO       ACCESS:  2745  HIT:  1428  MISS:  1317  HIT %: 52.0219  MISS %: 47.9781  AVERAGE MISS PENALTY: 736.448
LLC2 PREFETCH  ACCESS: 8843173  HIT: 4190083  MISS: 4653090  HIT %: 47.3821  MISS %: 52.6179  AVERAGE MISS PENALTY: 756.03
LLC2 WRITEBACK ACCESS: 302600  HIT: 290120  MISS: 12480  HIT %: 95.8757  MISS %: 4.12426  AVERAGE MISS PENALTY: 0

LLC3 TOTAL     ACCESS: 11103636  HIT: 5367958  MISS: 5735678  HIT %: 48.3441  MISS %: 51.6559  AVERAGE MISS PENALTY: 756.811
LLC3 LOAD      ACCESS: 2176619  HIT: 994450  MISS: 1182169  HIT %: 45.6878  MISS %: 54.3122  AVERAGE MISS PENALTY: 746.883
LLC3 RFO       ACCESS:  2664  HIT:  1346  MISS:  1318  HIT %: 50.5255  MISS %: 49.4745  AVERAGE MISS PENALTY: 729.546
LLC3 PREFETCH  ACCESS: 8622765  HIT: 4082688  MISS: 4540077  HIT %: 47.3478  MISS %: 52.6522  AVERAGE MISS PENALTY: 761.423
LLC3 WRITEBACK ACCESS: 301588  HIT: 289474  MISS: 12114  HIT %: 95.9833  MISS %: 4.01674  AVERAGE MISS PENALTY: 0

LLC4 TOTAL     ACCESS: 10971453  HIT: 5293418  MISS: 5678035  HIT %: 48.2472  MISS %: 51.7528  AVERAGE MISS PENALTY: 732.39
LLC4 LOAD      ACCESS: 2159201  HIT: 976143  MISS: 1183058  HIT %: 45.2085  MISS %: 54.7915  AVERAGE MISS PENALTY: 708.422
LLC4 RFO       ACCESS:  2637  HIT:  1317  MISS:  1320  HIT %: 49.9431  MISS %: 50.0569  AVERAGE MISS PENALTY: 719.545
LLC4 PREFETCH  ACCESS: 8506711  HIT: 4022490  MISS: 4484221  HIT %: 47.2861  MISS %: 52.7139  AVERAGE MISS PENALTY: 740.258
LLC4 WRITEBACK ACCESS: 302904  HIT: 293468  MISS:  9436  HIT %: 96.8848  MISS %: 3.11518  AVERAGE MISS PENALTY: 0

LLC5 TOTAL     ACCESS: 10850709  HIT: 5237975  MISS: 5612734  HIT %: 48.2731  MISS %: 51.7269  AVERAGE MISS PENALTY: 723.706
LLC5 LOAD      ACCESS: 2195839  HIT: 1018442  MISS: 1177397  HIT %: 46.3805  MISS %: 53.6195  AVERAGE MISS PENALTY: 695.44
LLC5 RFO       ACCESS:  2630  HIT:  1309  MISS:  1321  HIT %: 49.7719  MISS %: 50.2281  AVERAGE MISS PENALTY: 701.582
LLC5 PREFETCH  ACCESS: 8346760  HIT: 3922490  MISS: 4424270  HIT %: 46.9942  MISS %: 53.0058  AVERAGE MISS PENALTY: 732.829
LLC5 WRITEBACK ACCESS: 305480  HIT: 295734  MISS:  9746  HIT %: 96.8096  MISS %: 3.19039  AVERAGE MISS PENALTY: 0

LLC6 TOTAL     ACCESS: 10628477  HIT: 5092706  MISS: 5535771  HIT %: 47.9157  MISS %: 52.0843  AVERAGE MISS PENALTY: 728.886
LLC6 LOAD      ACCESS: 2187827  HIT: 990555  MISS: 1197272  HIT %: 45.2757  MISS %: 54.7243  AVERAGE MISS PENALTY: 709.871
LLC6 RFO       ACCESS:  2554  HIT:  1238  MISS:  1316  HIT %: 48.473  MISS %: 51.527  AVERAGE MISS PENALTY: 712.324
LLC6 PREFETCH  ACCESS: 8131224  HIT: 3808081  MISS: 4323143  HIT %: 46.8328  MISS %: 53.1672  AVERAGE MISS PENALTY: 736.524
LLC6 WRITEBACK ACCESS: 306872  HIT: 292832  MISS: 14040  HIT %: 95.4248  MISS %: 4.5752  AVERAGE MISS PENALTY: 0

LLC7 TOTAL     ACCESS: 10413698  HIT: 4980979  MISS: 5432719  HIT %: 47.831  MISS %: 52.169  AVERAGE MISS PENALTY: 722.19
LLC7 LOAD      ACCESS: 2179426  HIT: 1000879  MISS: 1178547  HIT %: 45.924  MISS %: 54.076  AVERAGE MISS PENALTY: 695.869
LLC7 RFO       ACCESS:  2497  HIT:  1177  MISS:  1320  HIT %: 47.1366  MISS %: 52.8634  AVERAGE MISS PENALTY: 700.706
LLC7 PREFETCH  ACCESS: 7928398  HIT: 3697137  MISS: 4231261  HIT %: 46.6316  MISS %: 53.3684  AVERAGE MISS PENALTY: 733.213
LLC7 WRITEBACK ACCESS: 303377  HIT: 281786  MISS: 21591  HIT %: 92.8831  MISS %: 7.11689  AVERAGE MISS PENALTY: 0

Total Rob stall cycles : 	3590765896
Total Load Rob Stall cycles : 	2925743365
Average Rob Stall cycles : 	 66
Average Load Rob Stall cycles : 	 478

CPU 1 cumulative IPC: 0.0548103 instructions: 200313163 cycles: 3654659550
ITLB TOTAL     ACCESS: 29519537  HIT: 29519537  MISS:     0  HIT %:   100  MISS %:     0  AVERAGE MISS PENALTY: 0
ITLB LOAD      ACCESS: 29519537  HIT: 29519537  MISS:     0  HIT %:   100  MISS %:     0  AVERAGE MISS PENALTY: 0
ITLB RFO       ACCESS:     0  HIT:     0  MISS:     0  HIT %:     0  MISS %:     0  AVERAGE MISS PENALTY: 0
ITLB PREFETCH  ACCESS:     0  HIT:     0  MISS:     0  HIT %:     0  MISS %:     0  AVERAGE MISS PENALTY: 0
ITLB WRITEBACK ACCESS:     0  HIT:     0  MISS:     0  HIT %:     0  MISS %:     0  AVERAGE MISS PENALTY: 0

DTLB TOTAL     ACCESS: 42366854  HIT: 27391575  MISS: 14975279  HIT %: 64.6533  MISS %: 35.3467  AVERAGE MISS PENALTY: 32.2453
DTLB LOAD      ACCESS: 37628999  HIT: 24772087  MISS: 12856912  HIT %: 65.8324  MISS %: 34.1676  AVERAGE MISS PENALTY: 26.3628
DTLB RFO       ACCESS: 4737855  HIT: 2619488  MISS: 2118367  HIT %: 55.2885  MISS %: 44.7115  AVERAGE MISS PENALTY: 67.9482
DTLB PREFETCH  ACCESS:     0  HIT:     0  MISS:     0  HIT %:     0  MISS %:     0  AVERAGE MISS PENALTY: 0
DTLB WRITEBACK ACCESS:     0  HIT:     0  MISS:     0  HIT %:     0  MISS %:     0  AVERAGE MISS PENALTY: 0

STLB TOTAL     ACCESS: 14975279  HIT: 13146631  MISS: 1828648  HIT %: 87.7889  MISS %: 12.2111  AVERAGE MISS PENALTY: 100
STLB LOAD      ACCESS: 12856912  HIT: 12097296  MISS: 759616  HIT %: 94.0918  MISS %: 5.90823  AVERAGE MISS PENALTY: 100
STLB RFO       ACCESS: 2118367  HIT: 1049335  MISS: 1069032  HIT %: 49.5351  MISS %: 50.4649  AVERAGE MISS PENALTY: 100
STLB PREFETCH  ACCESS:     0  HIT:     0  MISS:     0  HIT %:     0  MISS %:     0  AVERAGE MISS PENALTY: 0
STLB WRITEBACK ACCESS:     0  HIT:     0  MISS:     0  HIT %:     0  MISS %:     0  AVERAGE MISS PENALTY: 0

L1D TOTAL     ACCESS: 83669280  HIT: 26932928  MISS: 56736352  HIT %: 32.1897  MISS %: 67.8103  AVERAGE MISS PENALTY: 1.22276e+06
L1D LOAD      ACCESS: 38087027  HIT: 20413028  MISS: 17673999  HIT %: 53.5958  MISS %: 46.4042  AVERAGE MISS PENALTY: 3.92434e+06
L1D RFO       ACCESS: 4839780  HIT: 4802946  MISS: 36834  HIT %: 99.2389  MISS %: 0.761068  AVERAGE MISS PENALTY: 238.551
L1D PREFETCH  ACCESS: 40742473  HIT: 1716954  MISS: 39025519  HIT %: 4.21416  MISS %: 95.7858  AVERAGE MISS PENALTY: 413.177
L1D WRITEBACK ACCESS:     0  HIT:     0  MISS:     0  HIT %:     0  MISS %:     0  AVERAGE MISS PENALTY: 0

L1I TOTAL     ACCESS: 45275181  HIT: 45275181  MISS:     0  HIT %:   100  MISS %:     0  AVERAGE MISS PENALTY: 0
L1I LOAD      ACCESS: 45275181  HIT: 45275181  MISS:     0  HIT %:   100  MISS %:     0  AVERAGE MISS PENALTY: 0
L1I RFO       ACCESS:     0  HIT:     0  MISS:     0  HIT %:     0  MISS %:     0  AVERAGE MISS PENALTY: 0
L1I PREFETCH  ACCESS:     0  HIT:     0  MISS:     0  HIT %:     0  MISS %:     0  AVERAGE MISS PENALTY: 0
L1I WRITEBACK ACCESS:     0  HIT:     0  MISS:     0  HIT %:     0  MISS %:     0  AVERAGE MISS PENALTY: 0

L2C TOTAL     ACCESS: 93036779  HIT: 5888270  MISS: 87148509  HIT %: 6.32897  MISS %: 93.671  AVERAGE MISS PENALTY: 727244
L2C LOAD      ACCESS: 17673269  HIT: 169921  MISS: 17503348  HIT %: 0.961458  MISS %: 99.0385  AVERAGE MISS PENALTY: 3.61924e+06
L2C RFO       ACCESS: 36830  HIT: 16899  MISS: 19931  HIT %: 45.8838  MISS %: 54.1162  AVERAGE MISS PENALTY: 410.684
L2C PREFETCH  ACCESS: 72879074  HIT: 4966679  MISS: 67912395  HIT %: 6.81496  MISS %: 93.185  AVERAGE MISS PENALTY: 432.468
L2C WRITEBACK ACCESS: 2447606  HIT: 734771  MISS: 1712835  HIT %: 30.02  MISS %: 69.98  AVERAGE MISS PENALTY: 0


LLC0 TOTAL     ACCESS: 11224234  HIT: 5491183  MISS: 5733051  HIT %: 48.9226  MISS %: 51.0774  AVERAGE MISS PENALTY: 761.194
LLC0 LOAD      ACCESS: 2226858  HIT: 1028597  MISS: 1198261  HIT %: 46.1905  MISS %: 53.8095  AVERAGE MISS PENALTY: 744.033
LLC0 RFO       ACCESS:  2550  HIT:  1224  MISS:  1326  HIT %:    48  MISS %:    52  AVERAGE MISS PENALTY: 741.002
LLC0 PREFETCH  ACCESS: 8692886  HIT: 4171767  MISS: 4521119  HIT %: 47.9906  MISS %: 52.0094  AVERAGE MISS PENALTY: 767.827
LLC0 WRITEBACK ACCESS: 301940  HIT: 289595  MISS: 12345  HIT %: 95.9114  MISS %: 4.08856  AVERAGE MISS PENALTY: 0

LLC1 TOTAL     ACCESS: 11348448  HIT: 5507729  MISS: 5840719  HIT %: 48.5329  MISS %: 51.4671  AVERAGE MISS PENALTY: 764.333
LLC1 LOAD      ACCESS: 2165561  HIT: 980416  MISS: 1185145  HIT %: 45.2731  MISS %: 54.7269  AVERAGE MISS PENALTY: 748.203
LLC1 RFO       ACCESS:  2603  HIT:  1288  MISS:  1315  HIT %: 49.4814  MISS %: 50.5186  AVERAGE MISS PENALTY: 706.859
LLC1 PREFETCH  ACCESS: 8875564  HIT: 4232141  MISS: 4643423  HIT %: 47.6831  MISS %: 52.3169  AVERAGE MISS PENALTY: 770.25
LLC1 WRITEBACK ACCESS: 304720  HIT: 293884  MISS: 10836  HIT %: 96.4439  MISS %: 3.55605  AVERAGE MISS PENALTY: 0

LLC2 TOTAL     ACCESS: 11308306  HIT: 5465456  MISS: 5842850  HIT %: 48.3313  MISS %: 51.6687  AVERAGE MISS PENALTY: 750.967
LLC2 LOAD      ACCESS: 2163379  HIT: 988840  MISS: 1174539  HIT %: 45.7081  MISS %: 54.2919  AVERAGE MISS PENALTY: 741.087
LLC2 RFO       ACCESS:  2557  HIT:  1233  MISS:  1324  HIT %: 48.2206  MISS %: 51.7794  AVERAGE MISS PENALTY: 700.301
LLC2 PREFETCH  ACCESS: 8839989  HIT: 4185549  MISS: 4654440  HIT %: 47.3479  MISS %: 52.6521  AVERAGE MISS PENALTY: 755.5
LLC2 WRITEBACK ACCESS: 302381  HIT: 289834  MISS: 12547  HIT %: 95.8506  MISS %: 4.1494  AVERAGE MISS PENALTY: 0

[...]
LLC2 RFO       ACCESS:  1302  HIT:     1  MISS:  1301  HIT %: 0.0768049  MISS %: 99.9232  AVERAGE MISS PENALTY: 721.823
LLC2 PREFETCH  ACCESS: 8808592  HIT: 4138377  MISS: 4670215  HIT %: 46.9811  MISS %: 53.0189  AVERAGE MISS PENALTY: 755.413
LLC2 WRITEBACK ACCESS: 298318  HIT: 235462  MISS: 62856  HIT %: 78.9299  MISS %: 21.0701  AVERAGE MISS PENALTY: 0
LLC2 PREFETCH  REQUESTED:     0  ISSUED:     0  USEFUL: 3069627  USELESS: 34236773
 USEFUL LOAD PREFETCHES:    3069627 PREFETCH ISSUED TO LOWER LEVEL:  303510143  ACCURACY: 1.01138
 TIMELY PREFETCHES:    3069627 LATE PREFETCHES: 0 DROPPED PREFETCHES: 0
LLC2 AVERAGE MISS LATENCY: 744.745 cycles
LLC3 TOTAL     ACCESS: 11046196  HIT: 5245916  MISS: 5800280  HIT %: 47.4907  MISS %: 52.5093  AVERAGE MISS PENALTY: 749.73
LLC3 LOAD      ACCESS: 2161093  HIT: 980870  MISS: 1180223  HIT %: 45.3877  MISS %: 54.6123  AVERAGE MISS PENALTY: 746.367
LLC3 RFO       ACCESS:  1305  HIT:     3  MISS:  1302  HIT %: 0.229885  MISS %: 99.7701  AVERAGE MISS PENALTY: 703.911
LLC3 PREFETCH  ACCESS: 8586354  HIT: 4028880  MISS: 4557474  HIT %: 46.9219  MISS %: 53.0781  AVERAGE MISS PENALTY: 760.695
LLC3 WRITEBACK ACCESS: 297444  HIT: 236163  MISS: 61281  HIT %: 79.3975  MISS %: 20.6025  AVERAGE MISS PENALTY: 0
LLC3 PREFETCH  REQUESTED:     0  ISSUED:     0  USEFUL: 3079516  USELESS: 33329078
 USEFUL LOAD PREFETCHES:    3079516 PREFETCH ISSUED TO LOWER LEVEL:  279693707  ACCURACY: 1.10103
 TIMELY PREFETCHES:    3079516 LATE PREFETCHES: 0 DROPPED PREFETCHES: 0
LLC3 AVERAGE MISS LATENCY: 749.73 cycles
LLC4 TOTAL     ACCESS: 10914886  HIT: 5164915  MISS: 5749971  HIT %: 47.3199  MISS %: 52.6801  AVERAGE MISS PENALTY: 725.955
LLC4 LOAD      ACCESS: 2143574  HIT: 957457  MISS: 1186117  HIT %: 44.6664  MISS %: 55.3336  AVERAGE MISS PENALTY: 708.094
LLC4 RFO       ACCESS:  1308  HIT:     4  MISS:  1304  HIT %: 0.30581  MISS %: 99.6942  AVERAGE MISS PENALTY: 727.46
LLC4 PREFETCH  ACCESS: 8471148  HIT: 3967553  MISS: 4503595  HIT %: 46.8361  MISS %: 53.1639  AVERAGE MISS PENALTY: 740.162
LLC4 WRITEBACK ACCESS: 298856  HIT: 239901  MISS: 58955  HIT %: 80.2731  MISS %: 19.7269  AVERAGE MISS PENALTY: 0
LLC4 PREFETCH  REQUESTED:     0  ISSUED:     0  USEFUL: 3100515  USELESS: 32851619
 USEFUL LOAD PREFETCHES:    3100515 PREFETCH ISSUED TO LOWER LEVEL:  389641292  ACCURACY: 0.795736
 TIMELY PREFETCHES:    3100515 LATE PREFETCHES: 0 DROPPED PREFETCHES: 0
LLC4 AVERAGE MISS LATENCY: 725.955 cycles
LLC5 TOTAL     ACCESS: 10793796  HIT: 5112260  MISS: 5681536  HIT %: 47.3629  MISS %: 52.6371  AVERAGE MISS PENALTY: 717.056
LLC5 LOAD      ACCESS: 2179748  HIT: 1001073  MISS: 1178675  HIT %: 45.9261  MISS %: 54.0739  AVERAGE MISS PENALTY: 695.761
LLC5 RFO       ACCESS:  1305  HIT:     4  MISS:  1301  HIT %: 0.306513  MISS %: 99.6935  AVERAGE MISS PENALTY: 709.1
LLC5 PREFETCH  ACCESS: 8311473  HIT: 3869749  MISS: 4441724  HIT %: 46.5591  MISS %: 53.4409  AVERAGE MISS PENALTY: 732.369
LLC5 WRITEBACK ACCESS: 301270  HIT: 241434  MISS: 59836  HIT %: 80.1387  MISS %: 19.8613  AVERAGE MISS PENALTY: 0
LLC5 PREFETCH  REQUESTED:     0  ISSUED:     0  USEFUL: 2997941  USELESS: 32474560
 USEFUL LOAD PREFETCHES:    2997941 PREFETCH ISSUED TO LOWER LEVEL:  357800313  ACCURACY: 0.837881
 TIMELY PREFETCHES:    2997941 LATE PREFETCHES: 0 DROPPED PREFETCHES: 0
LLC5 AVERAGE MISS LATENCY: 717.056 cycles
LLC6 TOTAL     ACCESS: 10572883  HIT: 4973201  MISS: 5599682  HIT %: 47.0373  MISS %: 52.9627  AVERAGE MISS PENALTY: 722.817
LLC6 LOAD      ACCESS: 2171858  HIT: 973979  MISS: 1197879  HIT %: 44.8454  MISS %: 55.1546  AVERAGE MISS PENALTY: 709.73
LLC6 RFO       ACCESS:  1305  HIT:     3  MISS:  1302  HIT %: 0.229885  MISS %: 99.7701  AVERAGE MISS PENALTY: 720.808
LLC6 PREFETCH  ACCESS: 8095900  HIT: 3757065  MISS: 4338835  HIT %: 46.407  MISS %: 53.593  AVERAGE MISS PENALTY: 736.703
LLC6 WRITEBACK ACCESS: 303820  HIT: 242154  MISS: 61666  HIT %: 79.7031  MISS %: 20.2969  AVERAGE MISS PENALTY: 0
LLC6 PREFETCH  REQUESTED:     0  ISSUED:     0  USEFUL: 2969135  USELESS: 31686940
 USEFUL LOAD PREFETCHES:    2969135 PREFETCH ISSUED TO LOWER LEVEL:  504528935  ACCURACY: 0.588496
 TIMELY PREFETCHES:    2969135 LATE PREFETCHES: 0 DROPPED PREFETCHES: 0
LLC6 AVERAGE MISS LATENCY: 722.817 cycles
LLC7 TOTAL     ACCESS: 10359355  HIT: 4868223  MISS: 5491132  HIT %: 46.9935  MISS %: 53.0065  AVERAGE MISS PENALTY: 716.064
LLC7 LOAD      ACCESS: 2161226  HIT: 981931  MISS: 1179295  HIT %: 45.434  MISS %: 54.566  AVERAGE MISS PENALTY: 695.655
LLC7 RFO       ACCESS:  1305  HIT:     1  MISS:  1304  HIT %: 0.0766284  MISS %: 99.9234  AVERAGE MISS PENALTY: 692.682
LLC7 PREFETCH  ACCESS: 7897143  HIT: 3653829  MISS: 4243314  HIT %: 46.2677  MISS %: 53.7323  AVERAGE MISS PENALTY: 733.086
LLC7 WRITEBACK ACCESS: 299681  HIT: 232462  MISS: 67219  HIT %: 77.5698  MISS %: 22.4302  AVERAGE MISS PENALTY: 0
LLC7 PREFETCH  REQUESTED:     0  ISSUED:     0  USEFUL: 2842493  USELESS: 31070207
 USEFUL LOAD PREFETCHES:    2842493 PREFETCH ISSUED TO LOWER LEVEL:  457674172  ACCURACY: 0.621074
 TIMELY PREFETCHES:    2842493 LATE PREFETCHES: 0 DROPPED PREFETCHES: 0
LLC7 AVERAGE MISS LATENCY: 716.064 cycles
ROI Average ROB Stall Cycles:	66.1011
ROI Total ROB Stalls Cycles:	3588864442
ROI TOTAL ROB counter      :	54293538
ROI Average Load ROB Stall Cycles:	477.744
ROI Total Load ROB Stalls Cycle  :	2927306364
ROI Total Load ROB stalls Counter:	6127354
Major fault: 0 Minor fault: 37418

CPU 7 cumulative IPC: 0.0547442 instructions: 200000003 cycles: 3653357123
ITLB TOTAL     ACCESS: 29448485  HIT: 29448485  MISS:     0  HIT %:   100  MISS %:     0  AVERAGE MISS PENALTY: 0
ITLB LOAD      ACCESS: 29448485  HIT: 29448485  MISS:     0  HIT %:   100  MISS %:     0  AVERAGE MISS PENALTY: 0
ITLB RFO       ACCESS:     0  HIT:     0  MISS:     0  HIT %:     0  MISS %:     0  AVERAGE MISS PENALTY: 0
ITLB PREFETCH  ACCESS:     0  HIT:     0  MISS:     0  HIT %:     0  MISS %:     0  AVERAGE MISS PENALTY: 0
ITLB WRITEBACK ACCESS:     0  HIT:     0  MISS:     0  HIT %:     0  MISS %:     0  AVERAGE MISS PENALTY: 0
ITLB PREFETCH  REQUESTED:     0  ISSUED:     0  USEFUL:     0  USELESS:     0
 USEFUL LOAD PREFETCHES:          0 PREFETCH ISSUED TO LOWER LEVEL:          0  ACCURACY: -nan
 TIMELY PREFETCHES:          0 LATE PREFETCHES: 0 DROPPED PREFETCHES: 0
ITLB AVERAGE MISS LATENCY: -nan cycles
DTLB TOTAL     ACCESS: 42328524  HIT: 27386467  MISS: 14942057  HIT %: 64.6998  MISS %: 35.3002  AVERAGE MISS PENALTY: 32.4099
DTLB LOAD      ACCESS: 37581988  HIT: 24763718  MISS: 12818270  HIT %: 65.8925  MISS %: 34.1075  AVERAGE MISS PENALTY: 26.522
DTLB RFO       ACCESS: 4746536  HIT: 2622749  MISS: 2123787  HIT %: 55.2561  MISS %: 44.7439  AVERAGE MISS PENALTY: 67.9467
DTLB PREFETCH  ACCESS:     0  HIT:     0  MISS:     0  HIT %:     0  MISS %:     0  AVERAGE MISS PENALTY: 0
DTLB WRITEBACK ACCESS:     0  HIT:     0  MISS:     0  HIT %:     0  MISS %:     0  AVERAGE MISS PENALTY: 0
DTLB PREFETCH  REQUESTED:     0  ISSUED:     0  USEFUL:     0  USELESS:     0
 USEFUL LOAD PREFETCHES:          0 PREFETCH ISSUED TO LOWER LEVEL:          0  ACCURACY: -nan
 TIMELY PREFETCHES:          0 LATE PREFETCHES: 0 DROPPED PREFETCHES: 0
DTLB AVERAGE MISS LATENCY: 32.4099 cycles
STLB TOTAL     ACCESS: 14942057  HIT: 13115494  MISS: 1826563  HIT %: 87.7757  MISS %: 12.2243  AVERAGE MISS PENALTY: 100
STLB LOAD      ACCESS: 12818270  HIT: 12063342  MISS: 754928  HIT %: 94.1105  MISS %: 5.88947  AVERAGE MISS PENALTY: 100
STLB RFO       ACCESS: 2123787  HIT: 1052152  MISS: 1071635  HIT %: 49.5413  MISS %: 50.4587  AVERAGE MISS PENALTY: 100
STLB PREFETCH  ACCESS:     0  HIT:     0  MISS:     0  HIT %:     0  MISS %:     0  AVERAGE MISS PENALTY: 0
STLB WRITEBACK ACCESS:     0  HIT:     0  MISS:     0  HIT %:     0  MISS %:     0  AVERAGE MISS PENALTY: 0
STLB PREFETCH  REQUESTED:     0  ISSUED:     0  USEFUL:     0  USELESS:     0
 USEFUL LOAD PREFETCHES:          0 PREFETCH ISSUED TO LOWER LEVEL:          0  ACCURACY: -nan
 TIMELY PREFETCHES:          0 LATE PREFETCHES: 0 DROPPED PREFETCHES: 0
STLB AVERAGE MISS LATENCY: 100 cycles
L1D TOTAL     ACCESS: 83605983  HIT: 26937663  MISS: 56668320  HIT %: 32.2198  MISS %: 67.7802  AVERAGE MISS PENALTY: 1.22426e+06
L1D LOAD      ACCESS: 38063991  HIT: 20419544  MISS: 17644447  HIT %: 53.6453  MISS %: 46.3547  AVERAGE MISS PENALTY: 3.93101e+06
L1D RFO       ACCESS: 4848441  HIT: 4811658  MISS: 36783  HIT %: 99.2413  MISS %: 0.758656  AVERAGE MISS PENALTY: 238.963
L1D PREFETCH  ACCESS: 40693551  HIT: 1706461  MISS: 38987090  HIT %: 4.19344  MISS %: 95.8066  AVERAGE MISS PENALTY: 415.068
L1D WRITEBACK ACCESS:     0  HIT:     0  MISS:     0  HIT %:     0  MISS %:     0  AVERAGE MISS PENALTY: 0
L1D PREFETCH  REQUESTED: 61585196  ISSUED: 40947600  USEFUL: 934644  USELESS: 38052523
 USEFUL LOAD PREFETCHES:     934644 PREFETCH ISSUED TO LOWER LEVEL:  539150590  ACCURACY: 0.173355
 TIMELY PREFETCHES:     934644 LATE PREFETCHES: 107352 DROPPED PREFETCHES: 20637596
L1D AVERAGE MISS LATENCY: 424.105 cycles
L1I TOTAL     ACCESS: 45156867  HIT: 45156867  MISS:     0  HIT %:   100  MISS %:     0  AVERAGE MISS PENALTY: 0
L1I LOAD      ACCESS: 45156867  HIT: 45156867  MISS:     0  HIT %:   100  MISS %:     0  AVERAGE MISS PENALTY: 0
L1I RFO       ACCESS:     0  HIT:     0  MISS:     0  HIT %:     0  MISS %:     0  AVERAGE MISS PENALTY: 0
L1I PREFETCH  ACCESS:     0  HIT:     0  MISS:     0  HIT %:     0  MISS %:     0  AVERAGE MISS PENALTY: 0
L1I WRITEBACK ACCESS:     0  HIT:     0  MISS:     0  HIT %:     0  MISS %:     0  AVERAGE MISS PENALTY: 0
L1I PREFETCH  REQUESTED:     0  ISSUED:     0  USEFUL:     0  USELESS:     0
 USEFUL LOAD PREFETCHES:          0 PREFETCH ISSUED TO LOWER LEVEL:          0  ACCURACY: -nan
 TIMELY PREFETCHES:          0 LATE PREFETCHES: 0 DROPPED PREFETCHES: 0
L1I AVERAGE MISS LATENCY: -nan cycles
L2C TOTAL     ACCESS: 92937474  HIT: 7819965  MISS: 85117509  HIT %: 8.41422  MISS %: 91.5858  AVERAGE MISS PENALTY: 739715
L2C LOAD      ACCESS: 17643692  HIT: 293711  MISS: 17349981  HIT %: 1.66468  MISS %: 98.3353  AVERAGE MISS PENALTY: 3.62728e+06
L2C RFO       ACCESS: 36774  HIT: 17776  MISS: 18998  HIT %: 48.3385  MISS %: 51.6615  AVERAGE MISS PENALTY: 431.741
L2C PREFETCH  ACCESS: 72803756  HIT: 5127918  MISS: 67675838  HIT %: 7.04348  MISS %: 92.9565  AVERAGE MISS PENALTY: 435.461
L2C WRITEBACK ACCESS: 2453252  HIT: 2380560  MISS: 72692  HIT %: 97.0369  MISS %: 2.96309  AVERAGE MISS PENALTY: 0
L2C PREFETCH  REQUESTED: 93282187  ISSUED: 92615384  USEFUL: 173897  USELESS: 67503700
 USEFUL LOAD PREFETCHES:     173897 PREFETCH ISSUED TO LOWER LEVEL:   87477055  ACCURACY: 0.198792
 TIMELY PREFETCHES:     173897 LATE PREFETCHES: 270105 DROPPED PREFETCHES: 666803
L2C AVERAGE MISS LATENCY: 434.422 cycles
LLC0 TOTAL     ACCESS: 11164585  HIT: 5353361  MISS: 5811224  HIT %: 47.9495  MISS %: 52.0505  AVERAGE MISS PENALTY: 754.141
LLC0 LOAD      ACCESS: 2199319  HIT: 1000030  MISS: 1199289  HIT %: 45.47  MISS %: 54.53  AVERAGE MISS PENALTY: 744.726
LLC0 RFO       ACCESS:  2460  HIT:  1144  MISS:  1316  HIT %: 46.5041  MISS %: 53.4959  AVERAGE MISS PENALTY: 723.362
LLC0 PREFETCH  ACCESS: 8662847  HIT: 4119899  MISS: 4542948  HIT %: 47.5583  MISS %: 52.4417  AVERAGE MISS PENALTY: 767.869
LLC0 WRITEBACK ACCESS: 299959  HIT: 232288  MISS: 67671  HIT %: 77.4399  MISS %: 22.5601  AVERAGE MISS PENALTY: 0
LLC0 PREFETCH  REQUESTED:     0  ISSUED:     0  USEFUL: 3146811  USELESS: 33103412
 USEFUL LOAD PREFETCHES:    3146811 PREFETCH ISSUED TO LOWER LEVEL:  232710068  ACCURACY: 1.35225
 TIMELY PREFETCHES:    3146811 LATE PREFETCHES: 0 DROPPED PREFETCHES: 0
LLC0 AVERAGE MISS LATENCY: 754.141 cycles
Deadblocks : 8549430 Deadblock percentage : 712.875

LLC1 TOTAL     ACCESS: 11306388  HIT: 5389674  MISS: 5916714  HIT %: 47.6693  MISS %: 52.3307  AVERAGE MISS PENALTY: 757.685
LLC1 LOAD      ACCESS: 2153207  HIT: 966684  MISS: 1186523  HIT %: 44.8951  MISS %: 55.1049  AVERAGE MISS PENALTY: 748.285
LLC1 RFO       ACCESS:  2437  HIT:  1115  MISS:  1322  HIT %: 45.753  MISS %: 54.247  AVERAGE MISS PENALTY: 732.856
LLC1 PREFETCH  ACCESS: 8847909  HIT: 4182832  MISS: 4665077  HIT %: 47.2748  MISS %: 52.7252  AVERAGE MISS PENALTY: 770.444
LLC1 WRITEBACK ACCESS: 302835  HIT: 239043  MISS: 63792  HIT %: 78.9351  MISS %: 21.0649  AVERAGE MISS PENALTY: 0
LLC1 PREFETCH  REQUESTED:     0  ISSUED:     0  USEFUL: 3134062  USELESS: 34103401
 USEFUL LOAD PREFETCHES:    3134062 PREFETCH ISSUED TO LOWER LEVEL:  223461377  ACCURACY: 1.40251
 TIMELY PREFETCHES:    3134062 LATE PREFETCHES: 0 DROPPED PREFETCHES: 0
LLC1 AVERAGE MISS LATENCY: 757.685 cycles
LLC2 TOTAL     ACCESS: 11260989  HIT: 5349660  MISS: 5911329  HIT %: 47.5061  MISS %: 52.4939  AVERAGE MISS PENALTY: 744.653
LLC2 LOAD      ACCESS: 2145696  HIT: 969470  MISS: 1176226  HIT %: 45.1821  MISS %: 54.8179  AVERAGE MISS PENALTY: 741.302
LLC2 RFO       ACCESS:  2441  HIT:  1132  MISS:  1309  HIT %: 46.3744  MISS %: 53.6256  AVERAGE MISS PENALTY: 734.777
LLC2 PREFETCH  ACCESS: 8812138  HIT: 4140807  MISS: 4671331  HIT %: 46.9898  MISS %: 53.0102  AVERAGE MISS PENALTY: 755.456
LLC2 WRITEBACK ACCESS: 300714  HIT: 238251  MISS: 62463  HIT %: 79.2284  MISS %: 20.7716  AVERAGE MISS PENALTY: 0
LLC2 PREFETCH  REQUESTED:     0  ISSUED:     0  USEFUL: 3069627  USELESS: 34236773
 USEFUL LOAD PREFETCHES:    3069627 PREFETCH ISSUED TO LOWER LEVEL:  303510143  ACCURACY: 1.01138
 TIMELY PREFETCHES:    3069627 LATE PREFETCHES: 0 DROPPED PREFETCHES: 0
LLC2 AVERAGE MISS LATENCY: 744.653 cycles
LLC3 TOTAL     ACCESS: 11053497  HIT: 5249087  MISS: 5804410  HIT %: 47.488  MISS %: 52.512  AVERAGE MISS PENALTY: 749.51
LLC3 LOAD      ACCESS: 2162797  HIT: 980400  MISS: 1182397  HIT %: 45.3302  MISS %: 54.6698  AVERAGE MISS PENALTY: 745.51
LLC3 RFO       ACCESS:  2382  HIT:  1053  MISS:  1329  HIT %: 44.2065  MISS %: 55.7935  AVERAGE MISS PENALTY: 696.927
LLC3 PREFETCH  ACCESS: 8588565  HIT: 4028815  MISS: 4559750  HIT %: 46.9091  MISS %: 53.0909  AVERAGE MISS PENALTY: 760.579
LLC3 WRITEBACK ACCESS: 299753  HIT: 238819  MISS: 60934  HIT %: 79.6719  MISS %: 20.3281  AVERAGE MISS PENALTY: 0
LLC3 PREFETCH  REQUESTED:     0  ISSUED:     0  USEFUL: 3079516  USELESS: 33329078
 USEFUL LOAD PREFETCHES:    3079516 PREFETCH ISSUED TO LOWER LEVEL:  279693707  ACCURACY: 1.10103
 TIMELY PREFETCHES:    3079516 LATE PREFETCHES: 0 DROPPED PREFETCHES: 0
LLC3 AVERAGE MISS LATENCY: 749.51 cycles
LLC4 TOTAL     ACCESS: 10923631  HIT: 5177057  MISS: 5746574  HIT %: 47.3932  MISS %: 52.6068  AVERAGE MISS PENALTY: 725.448
LLC4 LOAD      ACCESS: 2145159  HIT: 960350  MISS: 1184809  HIT %: 44.7682  MISS %: 55.2318  AVERAGE MISS PENALTY: 707.31
LLC4 RFO       ACCESS:  2342  HIT:  1020  MISS:  1322  HIT %: 43.5525  MISS %: 56.4475  AVERAGE MISS PENALTY: 709.339
LLC4 PREFETCH  ACCESS: 8474978  HIT: 3973440  MISS: 4501538  HIT %: 46.8844  MISS %: 53.1156  AVERAGE MISS PENALTY: 739.72
LLC4 WRITEBACK ACCESS: 301152  HIT: 242247  MISS: 58905  HIT %: 80.4401  MISS %: 19.5599  AVERAGE MISS PENALTY: 0
LLC4 PREFETCH  REQUESTED:     0  ISSUED:     0  USEFUL: 3100515  USELESS: 32851619
 USEFUL LOAD PREFETCHES:    3100515 PREFETCH ISSUED TO LOWER LEVEL:  389641292  ACCURACY: 0.795736
 TIMELY PREFETCHES:    3100515 LATE PREFETCHES: 0 DROPPED PREFETCHES: 0
LLC4 AVERAGE MISS LATENCY: 725.448 cycles
LLC5 TOTAL     ACCESS: 10802868  HIT: 5121514  MISS: 5681354  HIT %: 47.4088  MISS %: 52.5912  AVERAGE MISS PENALTY: 717.105
LLC5 LOAD      ACCESS: 2181569  HIT: 1004041  MISS: 1177528  HIT %: 46.0238  MISS %: 53.9762  AVERAGE MISS PENALTY: 696.374
LLC5 RFO       ACCESS:  2366  HIT:  1041  MISS:  1325  HIT %: 43.9983  MISS %: 56.0017  AVERAGE MISS PENALTY: 695.377
LLC5 PREFETCH  ACCESS: 8315414  HIT: 3871974  MISS: 4443440  HIT %: 46.5638  MISS %: 53.4362  AVERAGE MISS PENALTY: 732.137
LLC5 WRITEBACK ACCESS: 303519  HIT: 244458  MISS: 59061  HIT %: 80.5413  MISS %: 19.4587  AVERAGE MISS PENALTY: 0
LLC5 PREFETCH  REQUESTED:     0  ISSUED:     0  USEFUL: 2997941  USELESS: 32474560
 USEFUL LOAD PREFETCHES:    2997941 PREFETCH ISSUED TO LOWER LEVEL:  357800313  ACCURACY: 0.837881
 TIMELY PREFETCHES:    2997941 LATE PREFETCHES: 0 DROPPED PREFETCHES: 0
LLC5 AVERAGE MISS LATENCY: 717.105 cycles
LLC6 TOTAL     ACCESS: 10582028  HIT: 4982852  MISS: 5599176  HIT %: 47.0879  MISS %: 52.9121  AVERAGE MISS PENALTY: 722.68
LLC6 LOAD      ACCESS: 2173510  HIT: 975167  MISS: 1198343  HIT %: 44.866  MISS %: 55.134  AVERAGE MISS PENALTY: 709.827
LLC6 RFO       ACCESS:  2343  HIT:  1027  MISS:  1316  HIT %: 43.8327  MISS %: 56.1673  AVERAGE MISS PENALTY: 696.789
LLC6 PREFETCH  ACCESS: 8100131  HIT: 3761698  MISS: 4338433  HIT %: 46.44  MISS %: 53.56  AVERAGE MISS PENALTY: 736.414
LLC6 WRITEBACK ACCESS: 306044  HIT: 244960  MISS: 61084  HIT %: 80.0408  MISS %: 19.9592  AVERAGE MISS PENALTY: 0
LLC6 PREFETCH  REQUESTED:     0  ISSUED:     0  USEFUL: 2969135  USELESS: 31686940
 USEFUL LOAD PREFETCHES:    2969135 PREFETCH ISSUED TO LOWER LEVEL:  504528935  ACCURACY: 0.588496
 TIMELY PREFETCHES:    2969135 LATE PREFETCHES: 0 DROPPED PREFETCHES: 0
LLC6 AVERAGE MISS LATENCY: 722.68 cycles
LLC7 TOTAL     ACCESS: 10366549  HIT: 4872432  MISS: 5494117  HIT %: 47.0015  MISS %: 52.9985  AVERAGE MISS PENALTY: 715.624
LLC7 LOAD      ACCESS: 2162788  HIT: 983927  MISS: 1178861  HIT %: 45.4935  MISS %: 54.5065  AVERAGE MISS PENALTY: 694.884
LLC7 RFO       ACCESS:  2223  HIT:   908  MISS:  1315  HIT %: 40.8457  MISS %: 59.1543  AVERAGE MISS PENALTY: 693.188
LLC7 PREFETCH  ACCESS: 7899787  HIT: 3652320  MISS: 4247467  HIT %: 46.2331  MISS %: 53.7669  AVERAGE MISS PENALTY: 732.586
LLC7 WRITEBACK ACCESS: 301751  HIT: 235277  MISS: 66474  HIT %: 77.9706  MISS %: 22.0294  AVERAGE MISS PENALTY: 0
LLC7 PREFETCH  REQUESTED:     0  ISSUED:     0  USEFUL: 2842493  USELESS: 31070207
 USEFUL LOAD PREFETCHES:    2842493 PREFETCH ISSUED TO LOWER LEVEL:  457674172  ACCURACY: 0.621074
 TIMELY PREFETCHES:    2842493 LATE PREFETCHES: 0 DROPPED PREFETCHES: 0
LLC7 AVERAGE MISS LATENCY: 715.624 cycles
ROI Average ROB Stall Cycles:	66.1138
ROI Total ROB Stalls Cycles:	3589303552
ROI TOTAL ROB counter      :	54289756
ROI Average Load ROB Stall Cycles:	477.876
ROI Total Load ROB Stalls Cycle  :	2928106713
ROI Total Load ROB stalls Counter:	6127332
Major fault: 0 Minor fault: 37418








Interconnect Stats 
LINK 0 BW : 0LINK 1 BW : 0LINK 2 BW : 0LINK 3 BW : 0LINK 4 BW : 0LINK 5 BW : 0LINK 6 BW : 0LINK 7 BW : 0
DRAM Statistics
 CHANNEL 0
 RQ ROW_BUFFER_HIT: 48957729  ROW_BUFFER_MISS: 133290542
 DBUS_CONGESTED: 98795732
 WQ ROW_BUFFER_HIT: 366758  ROW_BUFFER_MISS: 8944614  FULL:     0

 CHANNEL 1
 RQ ROW_BUFFER_HIT: 48295743  ROW_BUFFER_MISS: 132561217
 DBUS_CONGESTED: 98795732
 WQ ROW_BUFFER_HIT: 367068  ROW_BUFFER_MISS: 8939391  FULL:     0

 AVG_CONGESTED_CYCLE: 5
DRAM PAGES: 2097152
Allocated PAGES: 299344
L2C destructor called
L1D destructor called
L1I destructor called
STLB destructor called
DTLB destructor called
ITLB destructor called
L2C destructor called
L1D destructor called
L1I destructor called
STLB destructor called
DTLB destructor called
ITLB destructor called
L2C destructor called
L1D destructor called
L1I destructor called
STLB destructor called
DTLB destructor called
ITLB destructor called
L2C destructor called
L1D destructor called
L1I destructor called
STLB destructor called
DTLB destructor called
ITLB destructor called
L2C destructor called
L1D destructor called
L1I destructor called
STLB destructor called
DTLB destructor called
ITLB destructor called
L2C destructor called
L1D destructor called
L1I destructor called
STLB destructor called
DTLB destructor called
ITLB destructor called
L2C destructor called
L1D destructor called
L1I destructor called
STLB destructor called
DTLB destructor called
ITLB destructor called
L2C destructor called
L1D destructor called
L1I destructor called
STLB destructor called
DTLB destructor called
ITLB destructor called
