
*** ChampSim Multicore Out-of-Order Simulator ***

Warmup Instructions: 200000000
Simulation Instructions: 200000000
Number of CPUs: 8
threads:1

L1I Configuration:
L1I_SET:64
L1I_WAY:8
L1I_RQ_SIZE:64
L1I_WQ_SIZE:64
L1I_PQ_SIZE:8
L1I_MSHR_SIZE:8

L1D Configuration:
L1D_SET:64
L1D_WAY:12
L1D_RQ_SIZE:64
L1D_WQ_SIZE:64
L1D_PQ_SIZE:8
L1D_MSHR_SIZE:16

L2C Configuration:
L2C_SET:1024
L2C_WAY:8
L2C_RQ_SIZE:32
L2C_WQ_SIZE:32
L2C_PQ_SIZE:16
L2C_MSHR_SIZE:32

LLC Configuration:
LLC_SET:2048
LLC_WAY:16
LLC SLICES:8
LLC_RQ_SIZE:64
LLC_WQ_SIZE:64
LLC_PQ_SIZE:32
LLC_MSHR_SIZE:64

Interconnect OFF
Attacker deprioritize is: OFF
Off-chip DRAM Size: 8192 MB Channels: 2 Width: 64-bit Data Rate: 3200 MT/s
PAGE SIZE in KB: 4.000000 
PAGE SIZE in MB: 0.003906 
PAGE offset in bits: 12 
CEASER-S_LLC:0
MIRAGE : 0
CEASER_LATENCY:3
REMAP : OFF
Partitions : 1
Multi-Step : OFF
BFS : OFF

CPU 0 runs /home/anubhav/gap/bc-5.trace.gz
CPU 1 runs /home/anubhav/gap/bc-5.trace.gz
CPU 2 runs /home/anubhav/gap/bc-5.trace.gz
CPU 3 runs /home/anubhav/gap/bc-5.trace.gz
CPU 4 runs /home/anubhav/gap/bc-5.trace.gz
CPU 5 runs /home/anubhav/gap/bc-5.trace.gz
CPU 6 runs /home/anubhav/gap/bc-5.trace.gz
CPU 7 runs /home/anubhav/gap/bc-5.trace.gz
CPU 0 Bimodal branch predictor
Initialize Hawkeye state
Initialize Hawkeye state
Initialize Hawkeye state
Initialize Hawkeye state
Initialize Hawkeye state
Initialize Hawkeye state
Initialize Hawkeye state
Initialize Hawkeye state
CPU 1 Bimodal branch predictor
Initialize Hawkeye state
Initialize Hawkeye state
Initialize Hawkeye state
Initialize Hawkeye state
Initialize Hawkeye state
Initialize Hawkeye state
Initialize Hawkeye state
Initialize Hawkeye state
CPU 2 Bimodal branch predictor
Initialize Hawkeye state
Initialize Hawkeye state
Initialize Hawkeye state
Initialize Hawkeye state
Initialize Hawkeye state
Initialize Hawkeye state
Initialize Hawkeye state
Initialize Hawkeye state
CPU 3 Bimodal branch predictor
Initialize Hawkeye state
Initialize Hawkeye state
Initialize Hawkeye state
Initialize Hawkeye state
Initialize Hawkeye state
Initialize Hawkeye state
Initialize Hawkeye state
Initialize Hawkeye state
CPU 4 Bimodal branch predictor
Initialize Hawkeye state
Initialize Hawkeye state
Initialize Hawkeye state
Initialize Hawkeye state
Initialize Hawkeye state
Initialize Hawkeye state
Initialize Hawkeye state
Initialize Hawkeye state
CPU 5 Bimodal branch predictor
Initialize Hawkeye state
Initialize Hawkeye state
Initialize Hawkeye state
Initialize Hawkeye state
Initialize Hawkeye state
Initialize Hawkeye state
Initialize Hawkeye state
Initialize Hawkeye state
CPU 6 Bimodal branch predictor
Initialize Hawkeye state
Initialize Hawkeye state
Initialize Hawkeye state
Initialize Hawkeye state
Initialize Hawkeye state
Initialize Hawkeye state
Initialize Hawkeye state
Initialize Hawkeye state
CPU 7 Bimodal branch predictor
Initialize Hawkeye state
Initialize Hawkeye state
Initialize Hawkeye state
Initialize Hawkeye state
Initialize Hawkeye state
Initialize Hawkeye state
Initialize Hawkeye state
Initialize Hawkeye state
Heartbeat CPU 0 instructions: 10000003 cycles: 8669831 heartbeat IPC: 1.15343 cumulative IPC: 1.15343 (Simulation time: 0 hr 24 min 39 sec) 
 Total Blocks : 262144 Invalid Blocks : 0
Heartbeat CPU 1 instructions: 10000003 cycles: 8671195 heartbeat IPC: 1.15324 cumulative IPC: 1.15324 (Simulation time: 0 hr 24 min 39 sec) 
 Total Blocks : 262144 Invalid Blocks : 0
Heartbeat CPU 2 instructions: 10000003 cycles: 8671681 heartbeat IPC: 1.15318 cumulative IPC: 1.15318 (Simulation time: 0 hr 24 min 39 sec) 
 Total Blocks : 262144 Invalid Blocks : 0
Heartbeat CPU 5 instructions: 10000003 cycles: 8672401 heartbeat IPC: 1.15308 cumulative IPC: 1.15308 (Simulation time: 0 hr 24 min 39 sec) 
 Total Blocks : 262144 Invalid Blocks : 0
Heartbeat CPU 4 instructions: 10000003 cycles: 8672687 heartbeat IPC: 1.15305 cumulative IPC: 1.15305 (Simulation time: 0 hr 24 min 39 sec) 
 Total Blocks : 262144 Invalid Blocks : 0
Heartbeat CPU 3 instructions: 10000003 cycles: 8672967 heartbeat IPC: 1.15301 cumulative IPC: 1.15301 (Simulation time: 0 hr 24 min 39 sec) 
 Total Blocks : 262144 Invalid Blocks : 0
Heartbeat CPU 7 instructions: 10000003 cycles: 8673066 heartbeat IPC: 1.153 cumulative IPC: 1.153 (Simulation time: 0 hr 24 min 39 sec) 
 Total Blocks : 262144 Invalid Blocks : 0
Heartbeat CPU 6 instructions: 10000003 cycles: 8674451 heartbeat IPC: 1.15281 cumulative IPC: 1.15281 (Simulation time: 0 hr 24 min 39 sec) 
 Total Blocks : 262144 Invalid Blocks : 0
Heartbeat CPU 0 instructions: 20000000 cycles: 16464793 heartbeat IPC: 1.28288 cumulative IPC: 1.21471 (Simulation time: 0 hr 40 min 43 sec) 
 Total Blocks : 262144 Invalid Blocks : 0
Heartbeat CPU 1 instructions: 20000000 cycles: 16467646 heartbeat IPC: 1.28263 cumulative IPC: 1.2145 (Simulation time: 0 hr 40 min 44 sec) 
 Total Blocks : 262144 Invalid Blocks : 0
Heartbeat CPU 2 instructions: 20000000 cycles: 16469622 heartbeat IPC: 1.28239 cumulative IPC: 1.21436 (Simulation time: 0 hr 40 min 44 sec) 
 Total Blocks : 262144 Invalid Blocks : 0
Heartbeat CPU 5 instructions: 20000000 cycles: 16471213 heartbeat IPC: 1.28225 cumulative IPC: 1.21424 (Simulation time: 0 hr 40 min 44 sec) 
 Total Blocks : 262144 Invalid Blocks : 0
Heartbeat CPU 3 instructions: 20000000 cycles: 16471434 heartbeat IPC: 1.2823 cumulative IPC: 1.21422 (Simulation time: 0 hr 40 min 44 sec) 
 Total Blocks : 262144 Invalid Blocks : 0
Heartbeat CPU 4 instructions: 20000000 cycles: 16472098 heartbeat IPC: 1.28215 cumulative IPC: 1.21417 (Simulation time: 0 hr 40 min 44 sec) 
 Total Blocks : 262144 Invalid Blocks : 0
Heartbeat CPU 7 instructions: 20000000 cycles: 16473668 heartbeat IPC: 1.28195 cumulative IPC: 1.21406 (Simulation time: 0 hr 40 min 45 sec) 
 Total Blocks : 262144 Invalid Blocks : 0
Heartbeat CPU 6 instructions: 20000000 cycles: 16475525 heartbeat IPC: 1.28187 cumulative IPC: 1.21392 (Simulation time: 0 hr 40 min 45 sec) 
 Total Blocks : 262144 Invalid Blocks : 0
Heartbeat CPU 0 instructions: 30000003 cycles: 23511528 heartbeat IPC: 1.4191 cumulative IPC: 1.27597 (Simulation time: 0 hr 58 min 1 sec) 
 Total Blocks : 262144 Invalid Blocks : 0
Heartbeat CPU 1 instructions: 30000003 cycles: 23515602 heartbeat IPC: 1.41885 cumulative IPC: 1.27575 (Simulation time: 0 hr 58 min 2 sec) 
 Total Blocks : 262144 Invalid Blocks : 0
Heartbeat CPU 2 instructions: 30000003 cycles: 23518593 heartbeat IPC: 1.41865 cumulative IPC: 1.27559 (Simulation time: 0 hr 58 min 2 sec) 
 Total Blocks : 262144 Invalid Blocks : 0
Heartbeat CPU 3 instructions: 30000003 cycles: 23520965 heartbeat IPC: 1.41853 cumulative IPC: 1.27546 (Simulation time: 0 hr 58 min 3 sec) 
 Total Blocks : 262144 Invalid Blocks : 0
Heartbeat CPU 5 instructions: 30000003 cycles: 23521217 heartbeat IPC: 1.41844 cumulative IPC: 1.27544 (Simulation time: 0 hr 58 min 3 sec) 
 Total Blocks : 262144 Invalid Blocks : 0
Heartbeat CPU 4 instructions: 30000003 cycles: 23522355 heartbeat IPC: 1.41839 cumulative IPC: 1.27538 (Simulation time: 0 hr 58 min 3 sec) 
 Total Blocks : 262144 Invalid Blocks : 0
Heartbeat CPU 7 instructions: 30000003 cycles: 23525614 heartbeat IPC: 1.41805 cumulative IPC: 1.27521 (Simulation time: 0 hr 58 min 3 sec) 
 Total Blocks : 262144 Invalid Blocks : 0
Heartbeat CPU 6 instructions: 30000003 cycles: 23527665 heartbeat IPC: 1.41801 cumulative IPC: 1.27509 (Simulation time: 0 hr 58 min 4 sec) 
 Total Blocks : 262144 Invalid Blocks : 0
Heartbeat CPU 0 instructions: 40000002 cycles: 30106773 heartbeat IPC: 1.51624 cumulative IPC: 1.3286 (Simulation time: 1 hr 15 min 43 sec) 
 Total Blocks : 262144 Invalid Blocks : 0
Heartbeat CPU 1 instructions: 40000002 cycles: 30111719 heartbeat IPC: 1.51604 cumulative IPC: 1.32839 (Simulation time: 1 hr 15 min 44 sec) 
 Total Blocks : 262144 Invalid Blocks : 0
Heartbeat CPU 2 instructions: 40000002 cycles: 30115676 heartbeat IPC: 1.51582 cumulative IPC: 1.32821 (Simulation time: 1 hr 15 min 44 sec) 
 Total Blocks : 262144 Invalid Blocks : 0
Heartbeat CPU 3 instructions: 40000002 cycles: 30118465 heartbeat IPC: 1.51573 cumulative IPC: 1.32809 (Simulation time: 1 hr 15 min 45 sec) 
 Total Blocks : 262144 Invalid Blocks : 0
Heartbeat CPU 5 instructions: 40000002 cycles: 30119611 heartbeat IPC: 1.51552 cumulative IPC: 1.32804 (Simulation time: 1 hr 15 min 45 sec) 
 Total Blocks : 262144 Invalid Blocks : 0
Heartbeat CPU 4 instructions: 40000002 cycles: 30120728 heartbeat IPC: 1.51552 cumulative IPC: 1.32799 (Simulation time: 1 hr 15 min 45 sec) 
 Total Blocks : 262144 Invalid Blocks : 0
Heartbeat CPU 7 instructions: 40000002 cycles: 30125134 heartbeat IPC: 1.51526 cumulative IPC: 1.3278 (Simulation time: 1 hr 15 min 46 sec) 
 Total Blocks : 262144 Invalid Blocks : 0
Heartbeat CPU 6 instructions: 40000002 cycles: 30127256 heartbeat IPC: 1.51525 cumulative IPC: 1.3277 (Simulation time: 1 hr 15 min 46 sec) 
 Total Blocks : 262144 Invalid Blocks : 0
Heartbeat CPU 0 instructions: 50000001 cycles: 36711534 heartbeat IPC: 1.51406 cumulative IPC: 1.36197 (Simulation time: 1 hr 34 min 12 sec) 
 Total Blocks : 262144 Invalid Blocks : 0
Heartbeat CPU 1 instructions: 50000001 cycles: 36717331 heartbeat IPC: 1.51386 cumulative IPC: 1.36175 (Simulation time: 1 hr 34 min 13 sec) 
 Total Blocks : 262144 Invalid Blocks : 0
Heartbeat CPU 2 instructions: 50000001 cycles: 36722018 heartbeat IPC: 1.5137 cumulative IPC: 1.36158 (Simulation time: 1 hr 34 min 13 sec) 
 Total Blocks : 262144 Invalid Blocks : 0
Heartbeat CPU 3 instructions: 50000001 cycles: 36725559 heartbeat IPC: 1.51352 cumulative IPC: 1.36145 (Simulation time: 1 hr 34 min 14 sec) 
 Total Blocks : 262144 Invalid Blocks : 0
Heartbeat CPU 5 instructions: 50000001 cycles: 36727312 heartbeat IPC: 1.51339 cumulative IPC: 1.36138 (Simulation time: 1 hr 34 min 14 sec) 
 Total Blocks : 262144 Invalid Blocks : 0
Heartbeat CPU 4 instructions: 50000001 cycles: 36727858 heartbeat IPC: 1.51352 cumulative IPC: 1.36136 (Simulation time: 1 hr 34 min 14 sec) 
 Total Blocks : 262144 Invalid Blocks : 0
Heartbeat CPU 7 instructions: 50000001 cycles: 36734293 heartbeat IPC: 1.51305 cumulative IPC: 1.36113 (Simulation time: 1 hr 34 min 15 sec) 
 Total Blocks : 262144 Invalid Blocks : 0
Heartbeat CPU 6 instructions: 50000001 cycles: 36735991 heartbeat IPC: 1.51315 cumulative IPC: 1.36106 (Simulation time: 1 hr 34 min 15 sec) 
 Total Blocks : 262144 Invalid Blocks : 0
Heartbeat CPU 0 instructions: 60000003 cycles: 43042110 heartbeat IPC: 1.57964 cumulative IPC: 1.39398 (Simulation time: 1 hr 52 min 32 sec) 
 Total Blocks : 262144 Invalid Blocks : 0
Heartbeat CPU 1 instructions: 60000003 cycles: 43048964 heartbeat IPC: 1.57937 cumulative IPC: 1.39376 (Simulation time: 1 hr 52 min 33 sec) 
 Total Blocks : 262144 Invalid Blocks : 0
Heartbeat CPU 2 instructions: 60000003 cycles: 43054310 heartbeat IPC: 1.57921 cumulative IPC: 1.39359 (Simulation time: 1 hr 52 min 35 sec) 
 Total Blocks : 262144 Invalid Blocks : 0
Heartbeat CPU 3 instructions: 60000003 cycles: 43058949 heartbeat IPC: 1.57893 cumulative IPC: 1.39344 (Simulation time: 1 hr 52 min 35 sec) 
 Total Blocks : 262144 Invalid Blocks : 0
Heartbeat CPU 4 instructions: 60000003 cycles: 43061123 heartbeat IPC: 1.57896 cumulative IPC: 1.39337 (Simulation time: 1 hr 52 min 36 sec) 
 Total Blocks : 262144 Invalid Blocks : 0
Heartbeat CPU 5 instructions: 60000003 cycles: 43061497 heartbeat IPC: 1.57874 cumulative IPC: 1.39336 (Simulation time: 1 hr 52 min 36 sec) 
 Total Blocks : 262144 Invalid Blocks : 0
Heartbeat CPU 7 instructions: 60000003 cycles: 43069804 heartbeat IPC: 1.5784 cumulative IPC: 1.39309 (Simulation time: 1 hr 52 min 37 sec) 
 Total Blocks : 262144 Invalid Blocks : 0
Heartbeat CPU 6 instructions: 60000003 cycles: 43071203 heartbeat IPC: 1.57848 cumulative IPC: 1.39304 (Simulation time: 1 hr 52 min 37 sec) 
 Total Blocks : 262144 Invalid Blocks : 0
Heartbeat CPU 0 instructions: 70000000 cycles: 49375185 heartbeat IPC: 1.57901 cumulative IPC: 1.41772 (Simulation time: 2 hr 12 min 38 sec) 
 Total Blocks : 262144 Invalid Blocks : 0
Heartbeat CPU 1 instructions: 70000000 cycles: 49382777 heartbeat IPC: 1.57883 cumulative IPC: 1.4175 (Simulation time: 2 hr 12 min 40 sec) 
 Total Blocks : 262144 Invalid Blocks : 0
Heartbeat CPU 2 instructions: 70000000 cycles: 49388921 heartbeat IPC: 1.57863 cumulative IPC: 1.41732 (Simulation time: 2 hr 12 min 41 sec) 
 Total Blocks : 262144 Invalid Blocks : 0
Heartbeat CPU 3 instructions: 70000000 cycles: 49394342 heartbeat IPC: 1.57843 cumulative IPC: 1.41717 (Simulation time: 2 hr 12 min 42 sec) 
 Total Blocks : 262144 Invalid Blocks : 0
Heartbeat CPU 4 instructions: 70000000 cycles: 49396298 heartbeat IPC: 1.57849 cumulative IPC: 1.41711 (Simulation time: 2 hr 12 min 42 sec) 
 Total Blocks : 262144 Invalid Blocks : 0
Heartbeat CPU 5 instructions: 70000000 cycles: 49397503 heartbeat IPC: 1.57828 cumulative IPC: 1.41708 (Simulation time: 2 hr 12 min 42 sec) 
 Total Blocks : 262144 Invalid Blocks : 0
Heartbeat CPU 7 instructions: 70000000 cycles: 49407115 heartbeat IPC: 1.57796 cumulative IPC: 1.4168 (Simulation time: 2 hr 12 min 44 sec) 
 Total Blocks : 262144 Invalid Blocks : 0
Heartbeat CPU 6 instructions: 70000000 cycles: 49408311 heartbeat IPC: 1.57801 cumulative IPC: 1.41677 (Simulation time: 2 hr 12 min 45 sec) 
 Total Blocks : 262144 Invalid Blocks : 0
Heartbeat CPU 0 instructions: 80000002 cycles: 55516409 heartbeat IPC: 1.62834 cumulative IPC: 1.44102 (Simulation time: 2 hr 31 min 49 sec) 
 Total Blocks : 262144 Invalid Blocks : 0
Heartbeat CPU 1 instructions: 80000002 cycles: 55524875 heartbeat IPC: 1.62811 cumulative IPC: 1.4408 (Simulation time: 2 hr 31 min 51 sec) 
 Total Blocks : 262144 Invalid Blocks : 0
Heartbeat CPU 2 instructions: 80000002 cycles: 55531942 heartbeat IPC: 1.62786 cumulative IPC: 1.44061 (Simulation time: 2 hr 31 min 53 sec) 
 Total Blocks : 262144 Invalid Blocks : 0
Heartbeat CPU 3 instructions: 80000002 cycles: 55537936 heartbeat IPC: 1.62771 cumulative IPC: 1.44046 (Simulation time: 2 hr 31 min 54 sec) 
 Total Blocks : 262144 Invalid Blocks : 0
Heartbeat CPU 4 instructions: 80000002 cycles: 55539997 heartbeat IPC: 1.62768 cumulative IPC: 1.4404 (Simulation time: 2 hr 31 min 55 sec) 
 Total Blocks : 262144 Invalid Blocks : 0
Heartbeat CPU 5 instructions: 80000002 cycles: 55542140 heartbeat IPC: 1.62744 cumulative IPC: 1.44035 (Simulation time: 2 hr 31 min 55 sec) 
 Total Blocks : 262144 Invalid Blocks : 0
Heartbeat CPU 7 instructions: 80000002 cycles: 55553293 heartbeat IPC: 1.62703 cumulative IPC: 1.44006 (Simulation time: 2 hr 31 min 58 sec) 
 Total Blocks : 262144 Invalid Blocks : 0
Heartbeat CPU 6 instructions: 80000002 cycles: 55554456 heartbeat IPC: 1.62704 cumulative IPC: 1.44003 (Simulation time: 2 hr 31 min 58 sec) 
 Total Blocks : 262144 Invalid Blocks : 0
Heartbeat CPU 0 instructions: 90000000 cycles: 61668349 heartbeat IPC: 1.6255 cumulative IPC: 1.45942 (Simulation time: 2 hr 52 min 30 sec) 
 Total Blocks : 262144 Invalid Blocks : 0
Heartbeat CPU 1 instructions: 90000000 cycles: 61677686 heartbeat IPC: 1.62527 cumulative IPC: 1.4592 (Simulation time: 2 hr 52 min 32 sec) 
 Total Blocks : 262144 Invalid Blocks : 0
Heartbeat CPU 2 instructions: 90000000 cycles: 61685450 heartbeat IPC: 1.62509 cumulative IPC: 1.45902 (Simulation time: 2 hr 52 min 34 sec) 
 Total Blocks : 262144 Invalid Blocks : 0
Heartbeat CPU 3 instructions: 90000000 cycles: 61692601 heartbeat IPC: 1.62478 cumulative IPC: 1.45885 (Simulation time: 2 hr 52 min 37 sec) 
 Total Blocks : 262144 Invalid Blocks : 0
Heartbeat CPU 4 instructions: 90000000 cycles: 61694327 heartbeat IPC: 1.62487 cumulative IPC: 1.45881 (Simulation time: 2 hr 52 min 37 sec) 
 Total Blocks : 262144 Invalid Blocks : 0
Heartbeat CPU 5 instructions: 90000000 cycles: 61696920 heartbeat IPC: 1.62475 cumulative IPC: 1.45874 (Simulation time: 2 hr 52 min 38 sec) 
 Total Blocks : 262144 Invalid Blocks : 0
Heartbeat CPU 7 instructions: 90000000 cycles: 61709454 heartbeat IPC: 1.62439 cumulative IPC: 1.45845 (Simulation time: 2 hr 52 min 43 sec) 
 Total Blocks : 262144 Invalid Blocks : 0
Heartbeat CPU 6 instructions: 90000000 cycles: 61710959 heartbeat IPC: 1.6243 cumulative IPC: 1.45841 (Simulation time: 2 hr 52 min 43 sec) 
 Total Blocks : 262144 Invalid Blocks : 0
Heartbeat CPU 0 instructions: 100000003 cycles: 67624735 heartbeat IPC: 1.67887 cumulative IPC: 1.47875 (Simulation time: 3 hr 12 min 38 sec) 
 Total Blocks : 262144 Invalid Blocks : 0
Heartbeat CPU 1 instructions: 100000003 cycles: 67634745 heartbeat IPC: 1.67868 cumulative IPC: 1.47853 (Simulation time: 3 hr 12 min 41 sec) 
 Total Blocks : 262144 Invalid Blocks : 0
Heartbeat CPU 2 instructions: 100000003 cycles: 67643323 heartbeat IPC: 1.67845 cumulative IPC: 1.47834 (Simulation time: 3 hr 12 min 43 sec) 
 Total Blocks : 262144 Invalid Blocks : 0
Heartbeat CPU 3 instructions: 100000003 cycles: 67650989 heartbeat IPC: 1.67831 cumulative IPC: 1.47818 (Simulation time: 3 hr 12 min 45 sec) 
 Total Blocks : 262144 Invalid Blocks : 0
Heartbeat CPU 4 instructions: 100000003 cycles: 67653310 heartbeat IPC: 1.67814 cumulative IPC: 1.47812 (Simulation time: 3 hr 12 min 46 sec) 
 Total Blocks : 262144 Invalid Blocks : 0
Heartbeat CPU 5 instructions: 100000003 cycles: 67656726 heartbeat IPC: 1.67791 cumulative IPC: 1.47805 (Simulation time: 3 hr 12 min 46 sec) 
 Total Blocks : 262144 Invalid Blocks : 0
Heartbeat CPU 7 instructions: 100000003 cycles: 67670083 heartbeat IPC: 1.67768 cumulative IPC: 1.47776 (Simulation time: 3 hr 12 min 49 sec) 
 Total Blocks : 262144 Invalid Blocks : 0
Heartbeat CPU 6 instructions: 100000003 cycles: 67671408 heartbeat IPC: 1.67773 cumulative IPC: 1.47773 (Simulation time: 3 hr 12 min 49 sec) 
 Total Blocks : 262144 Invalid Blocks : 0
Heartbeat CPU 0 instructions: 110000000 cycles: 73720081 heartbeat IPC: 1.6406 cumulative IPC: 1.49213 (Simulation time: 3 hr 31 min 41 sec) 
 Total Blocks : 262144 Invalid Blocks : 0
Heartbeat CPU 1 instructions: 110000000 cycles: 73730793 heartbeat IPC: 1.64041 cumulative IPC: 1.49191 (Simulation time: 3 hr 31 min 43 sec) 
 Total Blocks : 262144 Invalid Blocks : 0
Heartbeat CPU 2 instructions: 110000000 cycles: 73740309 heartbeat IPC: 1.64015 cumulative IPC: 1.49172 (Simulation time: 3 hr 31 min 44 sec) 
 Total Blocks : 262144 Invalid Blocks : 0
Heartbeat CPU 3 instructions: 110000000 cycles: 73748726 heartbeat IPC: 1.63995 cumulative IPC: 1.49155 (Simulation time: 3 hr 31 min 45 sec) 
 Total Blocks : 262144 Invalid Blocks : 0
Heartbeat CPU 4 instructions: 110000000 cycles: 73750971 heartbeat IPC: 1.63997 cumulative IPC: 1.49151 (Simulation time: 3 hr 31 min 46 sec) 
 Total Blocks : 262144 Invalid Blocks : 0
Heartbeat CPU 5 instructions: 110000000 cycles: 73754800 heartbeat IPC: 1.63986 cumulative IPC: 1.49143 (Simulation time: 3 hr 31 min 46 sec) 
 Total Blocks : 262144 Invalid Blocks : 0
Heartbeat CPU 7 instructions: 110000000 cycles: 73769627 heartbeat IPC: 1.63947 cumulative IPC: 1.49113 (Simulation time: 3 hr 31 min 48 sec) 
 Total Blocks : 262144 Invalid Blocks : 0
Heartbeat CPU 6 instructions: 110000000 cycles: 73770978 heartbeat IPC: 1.63946 cumulative IPC: 1.4911 (Simulation time: 3 hr 31 min 48 sec) 
 Total Blocks : 262144 Invalid Blocks : 0
Heartbeat CPU 0 instructions: 120000000 cycles: 79797158 heartbeat IPC: 1.64553 cumulative IPC: 1.50381 (Simulation time: 3 hr 52 min 18 sec) 
 Total Blocks : 262144 Invalid Blocks : 0
Heartbeat CPU 1 instructions: 120000000 cycles: 79808608 heartbeat IPC: 1.64533 cumulative IPC: 1.5036 (Simulation time: 3 hr 52 min 21 sec) 
 Total Blocks : 262144 Invalid Blocks : 0
Heartbeat CPU 2 instructions: 120000000 cycles: 79818830 heartbeat IPC: 1.64514 cumulative IPC: 1.5034 (Simulation time: 3 hr 52 min 22 sec) 
 Total Blocks : 262144 Invalid Blocks : 0
Heartbeat CPU 3 instructions: 120000000 cycles: 79828061 heartbeat IPC: 1.64492 cumulative IPC: 1.50323 (Simulation time: 3 hr 52 min 24 sec) 
 Total Blocks : 262144 Invalid Blocks : 0
Heartbeat CPU 4 instructions: 120000000 cycles: 79829993 heartbeat IPC: 1.645 cumulative IPC: 1.50319 (Simulation time: 3 hr 52 min 24 sec) 
 Total Blocks : 262144 Invalid Blocks : 0
Heartbeat CPU 5 instructions: 120000000 cycles: 79834782 heartbeat IPC: 1.64474 cumulative IPC: 1.5031 (Simulation time: 3 hr 52 min 25 sec) 
 Total Blocks : 262144 Invalid Blocks : 0
Heartbeat CPU 7 instructions: 120000000 cycles: 79850845 heartbeat IPC: 1.64441 cumulative IPC: 1.5028 (Simulation time: 3 hr 52 min 28 sec) 
 Total Blocks : 262144 Invalid Blocks : 0
Heartbeat CPU 6 instructions: 120000000 cycles: 79852008 heartbeat IPC: 1.64446 cumulative IPC: 1.50278 (Simulation time: 3 hr 52 min 28 sec) 
 Total Blocks : 262144 Invalid Blocks : 0
Heartbeat CPU 0 instructions: 130000000 cycles: 85889061 heartbeat IPC: 1.64152 cumulative IPC: 1.51358 (Simulation time: 4 hr 11 min 23 sec) 
 Total Blocks : 262144 Invalid Blocks : 0
Heartbeat CPU 1 instructions: 130000000 cycles: 85901471 heartbeat IPC: 1.64126 cumulative IPC: 1.51336 (Simulation time: 4 hr 11 min 26 sec) 
 Total Blocks : 262144 Invalid Blocks : 0
Heartbeat CPU 2 instructions: 130000000 cycles: 85912031 heartbeat IPC: 1.64117 cumulative IPC: 1.51318 (Simulation time: 4 hr 11 min 29 sec) 
 Total Blocks : 262144 Invalid Blocks : 0
Heartbeat CPU 3 instructions: 130000000 cycles: 85922170 heartbeat IPC: 1.64093 cumulative IPC: 1.513 (Simulation time: 4 hr 11 min 32 sec) 
 Total Blocks : 262144 Invalid Blocks : 0
Heartbeat CPU 4 instructions: 130000000 cycles: 85924033 heartbeat IPC: 1.64095 cumulative IPC: 1.51296 (Simulation time: 4 hr 11 min 32 sec) 
 Total Blocks : 262144 Invalid Blocks : 0
Heartbeat CPU 5 instructions: 130000000 cycles: 85929371 heartbeat IPC: 1.6408 cumulative IPC: 1.51287 (Simulation time: 4 hr 11 min 33 sec) 
 Total Blocks : 262144 Invalid Blocks : 0
Heartbeat CPU 7 instructions: 130000000 cycles: 85946846 heartbeat IPC: 1.64042 cumulative IPC: 1.51256 (Simulation time: 4 hr 11 min 37 sec) 
 Total Blocks : 262144 Invalid Blocks : 0
Heartbeat CPU 6 instructions: 130000000 cycles: 85947816 heartbeat IPC: 1.64047 cumulative IPC: 1.51255 (Simulation time: 4 hr 11 min 37 sec) 
 Total Blocks : 262144 Invalid Blocks : 0
Heartbeat CPU 0 instructions: 140000001 cycles: 91038882 heartbeat IPC: 1.94182 cumulative IPC: 1.5378 (Simulation time: 4 hr 41 min 10 sec) 
 Total Blocks : 262144 Invalid Blocks : 0
Heartbeat CPU 1 instructions: 140000001 cycles: 91051879 heartbeat IPC: 1.94159 cumulative IPC: 1.53759 (Simulation time: 4 hr 41 min 16 sec) 
 Total Blocks : 262144 Invalid Blocks : 0
Heartbeat CPU 2 instructions: 140000001 cycles: 91063005 heartbeat IPC: 1.94138 cumulative IPC: 1.5374 (Simulation time: 4 hr 41 min 21 sec) 
 Total Blocks : 262144 Invalid Blocks : 0
Heartbeat CPU 3 instructions: 140000001 cycles: 91074054 heartbeat IPC: 1.94104 cumulative IPC: 1.53721 (Simulation time: 4 hr 41 min 26 sec) 
 Total Blocks : 262144 Invalid Blocks : 0
Heartbeat CPU 4 instructions: 140000001 cycles: 91075890 heartbeat IPC: 1.94105 cumulative IPC: 1.53718 (Simulation time: 4 hr 41 min 27 sec) 
 Total Blocks : 262144 Invalid Blocks : 0
Heartbeat CPU 5 instructions: 140000001 cycles: 91081740 heartbeat IPC: 1.94086 cumulative IPC: 1.53708 (Simulation time: 4 hr 41 min 30 sec) 
 Total Blocks : 262144 Invalid Blocks : 0
Heartbeat CPU 7 instructions: 140000001 cycles: 91100430 heartbeat IPC: 1.9404 cumulative IPC: 1.53677 (Simulation time: 4 hr 41 min 39 sec) 
 Total Blocks : 262144 Invalid Blocks : 0
Heartbeat CPU 6 instructions: 140000001 cycles: 91101193 heartbeat IPC: 1.94048 cumulative IPC: 1.53675 (Simulation time: 4 hr 41 min 39 sec) 
 Total Blocks : 262144 Invalid Blocks : 0
Heartbeat CPU 0 instructions: 150000000 cycles: 95247035 heartbeat IPC: 2.37634 cumulative IPC: 1.57485 (Simulation time: 5 hr 20 min 23 sec) 
 Total Blocks : 262144 Invalid Blocks : 0
Heartbeat CPU 1 instructions: 150000000 cycles: 95260769 heartbeat IPC: 2.37592 cumulative IPC: 1.57463 (Simulation time: 5 hr 20 min 31 sec) 
 Total Blocks : 262144 Invalid Blocks : 0
Heartbeat CPU 2 instructions: 150000000 cycles: 95272306 heartbeat IPC: 2.37569 cumulative IPC: 1.57443 (Simulation time: 5 hr 20 min 37 sec) 
 Total Blocks : 262144 Invalid Blocks : 0
Heartbeat CPU 3 instructions: 150000000 cycles: 95284063 heartbeat IPC: 2.37529 cumulative IPC: 1.57424 (Simulation time: 5 hr 20 min 43 sec) 
 Total Blocks : 262144 Invalid Blocks : 0
Heartbeat CPU 4 instructions: 150000000 cycles: 95285927 heartbeat IPC: 2.37528 cumulative IPC: 1.57421 (Simulation time: 5 hr 20 min 44 sec) 
 Total Blocks : 262144 Invalid Blocks : 0
Heartbeat CPU 5 instructions: 150000000 cycles: 95292744 heartbeat IPC: 2.37473 cumulative IPC: 1.5741 (Simulation time: 5 hr 20 min 48 sec) 
 Total Blocks : 262144 Invalid Blocks : 0
Heartbeat CPU 7 instructions: 150000000 cycles: 95312205 heartbeat IPC: 2.3743 cumulative IPC: 1.57378 (Simulation time: 5 hr 20 min 58 sec) 
 Total Blocks : 262144 Invalid Blocks : 0
Heartbeat CPU 6 instructions: 150000000 cycles: 95312384 heartbeat IPC: 2.37462 cumulative IPC: 1.57377 (Simulation time: 5 hr 20 min 58 sec) 
 Total Blocks : 262144 Invalid Blocks : 0
Heartbeat CPU 0 instructions: 160000000 cycles: 99404039 heartbeat IPC: 2.40558 cumulative IPC: 1.60959 (Simulation time: 6 hr 1 min 56 sec) 
 Total Blocks : 262144 Invalid Blocks : 0
Heartbeat CPU 1 instructions: 160000000 cycles: 99418575 heartbeat IPC: 2.40511 cumulative IPC: 1.60936 (Simulation time: 6 hr 2 min 4 sec) 
 Total Blocks : 262144 Invalid Blocks : 0
Heartbeat CPU 2 instructions: 160000000 cycles: 99430693 heartbeat IPC: 2.40478 cumulative IPC: 1.60916 (Simulation time: 6 hr 2 min 11 sec) 
 Total Blocks : 262144 Invalid Blocks : 0
Heartbeat CPU 3 instructions: 160000000 cycles: 99442952 heartbeat IPC: 2.40449 cumulative IPC: 1.60896 (Simulation time: 6 hr 2 min 20 sec) 
 Total Blocks : 262144 Invalid Blocks : 0
Heartbeat CPU 4 instructions: 160000000 cycles: 99445234 heartbeat IPC: 2.40425 cumulative IPC: 1.60893 (Simulation time: 6 hr 2 min 22 sec) 
 Total Blocks : 262144 Invalid Blocks : 0
Heartbeat CPU 5 instructions: 160000000 cycles: 99452788 heartbeat IPC: 2.40382 cumulative IPC: 1.6088 (Simulation time: 6 hr 2 min 27 sec) 
 Total Blocks : 262144 Invalid Blocks : 0
Heartbeat CPU 6 instructions: 160000000 cycles: 99472938 heartbeat IPC: 2.40353 cumulative IPC: 1.60848 (Simulation time: 6 hr 2 min 44 sec) 
 Total Blocks : 262144 Invalid Blocks : 0
Heartbeat CPU 7 instructions: 160000000 cycles: 99473382 heartbeat IPC: 2.40317 cumulative IPC: 1.60847 (Simulation time: 6 hr 2 min 44 sec) 
 Total Blocks : 262144 Invalid Blocks : 0
Heartbeat CPU 0 instructions: 170000000 cycles: 103505355 heartbeat IPC: 2.43824 cumulative IPC: 1.64243 (Simulation time: 6 hr 46 min 42 sec) 
 Total Blocks : 262144 Invalid Blocks : 0
Heartbeat CPU 1 instructions: 170000000 cycles: 103521037 heartbeat IPC: 2.43756 cumulative IPC: 1.64218 (Simulation time: 6 hr 46 min 53 sec) 
 Total Blocks : 262144 Invalid Blocks : 0
Heartbeat CPU 2 instructions: 170000000 cycles: 103533664 heartbeat IPC: 2.43726 cumulative IPC: 1.64198 (Simulation time: 6 hr 47 min 0 sec) 
 Total Blocks : 262144 Invalid Blocks : 0
Heartbeat CPU 3 instructions: 170000000 cycles: 103546134 heartbeat IPC: 2.43713 cumulative IPC: 1.64178 (Simulation time: 6 hr 47 min 8 sec) 
 Total Blocks : 262144 Invalid Blocks : 0
Heartbeat CPU 4 instructions: 170000000 cycles: 103548930 heartbeat IPC: 2.43683 cumulative IPC: 1.64174 (Simulation time: 6 hr 47 min 11 sec) 
 Total Blocks : 262144 Invalid Blocks : 0
Heartbeat CPU 5 instructions: 170000000 cycles: 103557272 heartbeat IPC: 2.43636 cumulative IPC: 1.6416 (Simulation time: 6 hr 47 min 15 sec) 
 Total Blocks : 262144 Invalid Blocks : 0
Heartbeat CPU 6 instructions: 170000000 cycles: 103577838 heartbeat IPC: 2.43611 cumulative IPC: 1.64128 (Simulation time: 6 hr 47 min 29 sec) 
 Total Blocks : 262144 Invalid Blocks : 0
Heartbeat CPU 7 instructions: 170000000 cycles: 103578508 heartbeat IPC: 2.43598 cumulative IPC: 1.64127 (Simulation time: 6 hr 47 min 29 sec) 
 Total Blocks : 262144 Invalid Blocks : 0
Heartbeat CPU 0 instructions: 180000002 cycles: 107580342 heartbeat IPC: 2.454 cumulative IPC: 1.67317 (Simulation time: 7 hr 30 min 21 sec) 
 Total Blocks : 262144 Invalid Blocks : 0
Heartbeat CPU 1 instructions: 180000002 cycles: 107596751 heartbeat IPC: 2.45356 cumulative IPC: 1.67291 (Simulation time: 7 hr 30 min 36 sec) 
 Total Blocks : 262144 Invalid Blocks : 0
Heartbeat CPU 2 instructions: 180000002 cycles: 107610283 heartbeat IPC: 2.45301 cumulative IPC: 1.6727 (Simulation time: 7 hr 30 min 49 sec) 
 Total Blocks : 262144 Invalid Blocks : 0
Heartbeat CPU 3 instructions: 180000002 cycles: 107623471 heartbeat IPC: 2.45258 cumulative IPC: 1.6725 (Simulation time: 7 hr 31 min 0 sec) 
 Total Blocks : 262144 Invalid Blocks : 0
Heartbeat CPU 4 instructions: 180000002 cycles: 107626521 heartbeat IPC: 2.45243 cumulative IPC: 1.67245 (Simulation time: 7 hr 31 min 4 sec) 
 Total Blocks : 262144 Invalid Blocks : 0
Heartbeat CPU 5 instructions: 180000002 cycles: 107635296 heartbeat IPC: 2.45217 cumulative IPC: 1.67231 (Simulation time: 7 hr 31 min 10 sec) 
 Total Blocks : 262144 Invalid Blocks : 0
Heartbeat CPU 6 instructions: 180000002 cycles: 107656367 heartbeat IPC: 2.45186 cumulative IPC: 1.67199 (Simulation time: 7 hr 31 min 27 sec) 
 Total Blocks : 262144 Invalid Blocks : 0
Heartbeat CPU 7 instructions: 180000002 cycles: 107657353 heartbeat IPC: 2.45167 cumulative IPC: 1.67197 (Simulation time: 7 hr 31 min 28 sec) 
 Total Blocks : 262144 Invalid Blocks : 0
Heartbeat CPU 0 instructions: 190000000 cycles: 111617950 heartbeat IPC: 2.47671 cumulative IPC: 1.70224 (Simulation time: 8 hr 14 min 27 sec) 
 Total Blocks : 262144 Invalid Blocks : 0
Heartbeat CPU 1 instructions: 190000000 cycles: 111635382 heartbeat IPC: 2.47609 cumulative IPC: 1.70197 (Simulation time: 8 hr 14 min 38 sec) 
 Total Blocks : 262144 Invalid Blocks : 0
Heartbeat CPU 2 instructions: 190000000 cycles: 111649383 heartbeat IPC: 2.4758 cumulative IPC: 1.70176 (Simulation time: 8 hr 14 min 47 sec) 
 Total Blocks : 262144 Invalid Blocks : 0
Heartbeat CPU 3 instructions: 190000000 cycles: 111663129 heartbeat IPC: 2.47546 cumulative IPC: 1.70155 (Simulation time: 8 hr 14 min 54 sec) 
 Total Blocks : 262144 Invalid Blocks : 0
Heartbeat CPU 4 instructions: 190000000 cycles: 111666499 heartbeat IPC: 2.47526 cumulative IPC: 1.7015 (Simulation time: 8 hr 14 min 56 sec) 
 Total Blocks : 262144 Invalid Blocks : 0
Heartbeat CPU 5 instructions: 190000000 cycles: 111676037 heartbeat IPC: 2.47479 cumulative IPC: 1.70135 (Simulation time: 8 hr 15 min 2 sec) 
 Total Blocks : 262144 Invalid Blocks : 0
Heartbeat CPU 6 instructions: 190000000 cycles: 111697663 heartbeat IPC: 2.47445 cumulative IPC: 1.70102 (Simulation time: 8 hr 15 min 11 sec) 
 Total Blocks : 262144 Invalid Blocks : 0
Heartbeat CPU 7 instructions: 190000000 cycles: 111698621 heartbeat IPC: 2.47447 cumulative IPC: 1.70101 (Simulation time: 8 hr 15 min 11 sec) 
 Total Blocks : 262144 Invalid Blocks : 0
Heartbeat CPU 0 instructions: 200000001 cycles: 115644959 heartbeat IPC: 2.48323 cumulative IPC: 1.72943 (Simulation time: 9 hr 6 min 32 sec) 
 Total Blocks : 262144 Invalid Blocks : 0
Heartbeat CPU 1 instructions: 200000001 cycles: 115663581 heartbeat IPC: 2.4825 cumulative IPC: 1.72915 (Simulation time: 9 hr 6 min 46 sec) 
 Total Blocks : 262144 Invalid Blocks : 0
Heartbeat CPU 2 instructions: 200000001 cycles: 115677966 heartbeat IPC: 2.48226 cumulative IPC: 1.72894 (Simulation time: 9 hr 6 min 57 sec) 
 Total Blocks : 262144 Invalid Blocks : 0
Heartbeat CPU 3 instructions: 200000001 cycles: 115692104 heartbeat IPC: 2.48202 cumulative IPC: 1.72873 (Simulation time: 9 hr 7 min 8 sec) 
 Total Blocks : 262144 Invalid Blocks : 0
Heartbeat CPU 4 instructions: 200000001 cycles: 115696082 heartbeat IPC: 2.48165 cumulative IPC: 1.72867 (Simulation time: 9 hr 7 min 11 sec) 
 Total Blocks : 262144 Invalid Blocks : 0
Heartbeat CPU 5 instructions: 200000001 cycles: 115705990 heartbeat IPC: 2.48142 cumulative IPC: 1.72852 (Simulation time: 9 hr 7 min 20 sec) 
 Total Blocks : 262144 Invalid Blocks : 0
Heartbeat CPU 6 instructions: 200000001 cycles: 115728518 heartbeat IPC: 2.48086 cumulative IPC: 1.72818 (Simulation time: 9 hr 7 min 38 sec) 
 Total Blocks : 262144 Invalid Blocks : 0
Heartbeat CPU 7 instructions: 200000001 cycles: 115729617 heartbeat IPC: 2.48078 cumulative IPC: 1.72817 (Simulation time: 9 hr 7 min 38 sec) 
 Total Blocks : 262144 Invalid Blocks : 0

Warmup complete CPU 0 instructions: 200211452 cycles: 115729617 (Simulation time: 9 hr 7 min 38 sec) 
Warmup complete CPU 1 instructions: 200164728 cycles: 115729617 (Simulation time: 9 hr 7 min 38 sec) 
Warmup complete CPU 2 instructions: 200127456 cycles: 115729617 (Simulation time: 9 hr 7 min 38 sec) 
Warmup complete CPU 3 instructions: 200092637 cycles: 115729617 (Simulation time: 9 hr 7 min 38 sec) 
Warmup complete CPU 4 instructions: 200083106 cycles: 115729617 (Simulation time: 9 hr 7 min 38 sec) 
Warmup complete CPU 5 instructions: 200056289 cycles: 115729617 (Simulation time: 9 hr 7 min 38 sec) 
Warmup complete CPU 6 instructions: 200002802 cycles: 115729617 (Simulation time: 9 hr 7 min 38 sec) 
Warmup complete CPU 7 instructions: 200000001 cycles: 115729617 (Simulation time: 9 hr 7 min 38 sec) 

Heartbeat CPU 0 instructions: 210000002 cycles: 166031548 heartbeat IPC: 0.198466 cumulative IPC: 0.194596 (Simulation time: 10 hr 29 min 46 sec) 
 Total Blocks : 262144 Invalid Blocks : 0
Heartbeat CPU 1 instructions: 210000002 cycles: 166375739 heartbeat IPC: 0.197191 cumulative IPC: 0.194196 (Simulation time: 10 hr 30 min 22 sec) 
 Total Blocks : 262144 Invalid Blocks : 0
Heartbeat CPU 2 instructions: 210000002 cycles: 166450461 heartbeat IPC: 0.196957 cumulative IPC: 0.194645 (Simulation time: 10 hr 30 min 31 sec) 
 Total Blocks : 262144 Invalid Blocks : 0
Heartbeat CPU 3 instructions: 210000002 cycles: 166709554 heartbeat IPC: 0.196011 cumulative IPC: 0.194339 (Simulation time: 10 hr 30 min 59 sec) 
 Total Blocks : 262144 Invalid Blocks : 0
Heartbeat CPU 4 instructions: 210000002 cycles: 166891507 heartbeat IPC: 0.19533 cumulative IPC: 0.193834 (Simulation time: 10 hr 31 min 20 sec) 
 Total Blocks : 262144 Invalid Blocks : 0
Heartbeat CPU 5 instructions: 210000002 cycles: 167110805 heartbeat IPC: 0.194534 cumulative IPC: 0.193528 (Simulation time: 10 hr 31 min 42 sec) 
 Total Blocks : 262144 Invalid Blocks : 0
Heartbeat CPU 6 instructions: 210000002 cycles: 167221430 heartbeat IPC: 0.194201 cumulative IPC: 0.194151 (Simulation time: 10 hr 31 min 56 sec) 
 Total Blocks : 262144 Invalid Blocks : 0
Heartbeat CPU 7 instructions: 210000002 cycles: 167290544 heartbeat IPC: 0.193945 cumulative IPC: 0.193945 (Simulation time: 10 hr 32 min 5 sec) 
 Total Blocks : 262144 Invalid Blocks : 0
Heartbeat CPU 0 instructions: 220000000 cycles: 217860284 heartbeat IPC: 0.192943 cumulative IPC: 0.193757 (Simulation time: 11 hr 56 min 31 sec) 
 Total Blocks : 262144 Invalid Blocks : 0
Heartbeat CPU 1 instructions: 220000000 cycles: 218173174 heartbeat IPC: 0.19306 cumulative IPC: 0.193621 (Simulation time: 11 hr 56 min 59 sec) 
 Total Blocks : 262144 Invalid Blocks : 0
Heartbeat CPU 2 instructions: 220000000 cycles: 218308441 heartbeat IPC: 0.192834 cumulative IPC: 0.193729 (Simulation time: 11 hr 57 min 11 sec) 
 Total Blocks : 262144 Invalid Blocks : 0
Heartbeat CPU 3 instructions: 220000000 cycles: 218620631 heartbeat IPC: 0.192637 cumulative IPC: 0.19348 (Simulation time: 11 hr 57 min 41 sec) 
 Total Blocks : 262144 Invalid Blocks : 0
Heartbeat CPU 4 instructions: 220000000 cycles: 218828919 heartbeat IPC: 0.192539 cumulative IPC: 0.193182 (Simulation time: 11 hr 58 min 1 sec) 
 Total Blocks : 262144 Invalid Blocks : 0
Heartbeat CPU 6 instructions: 220000000 cycles: 218980336 heartbeat IPC: 0.193203 cumulative IPC: 0.193676 (Simulation time: 11 hr 58 min 15 sec) 
 Total Blocks : 262144 Invalid Blocks : 0
Heartbeat CPU 5 instructions: 220000000 cycles: 219131502 heartbeat IPC: 0.192231 cumulative IPC: 0.192876 (Simulation time: 11 hr 58 min 31 sec) 
 Total Blocks : 262144 Invalid Blocks : 0
Heartbeat CPU 7 instructions: 220000000 cycles: 219329783 heartbeat IPC: 0.192163 cumulative IPC: 0.19305 (Simulation time: 11 hr 58 min 51 sec) 
 Total Blocks : 262144 Invalid Blocks : 0
Heartbeat CPU 0 instructions: 230000001 cycles: 269882098 heartbeat IPC: 0.192227 cumulative IPC: 0.193241 (Simulation time: 13 hr 12 min 50 sec) 
 Total Blocks : 262144 Invalid Blocks : 0
Heartbeat CPU 1 instructions: 230000001 cycles: 270297011 heartbeat IPC: 0.191851 cumulative IPC: 0.193024 (Simulation time: 13 hr 13 min 18 sec) 
 Total Blocks : 262144 Invalid Blocks : 0
Heartbeat CPU 2 instructions: 230000001 cycles: 270430361 heartbeat IPC: 0.191858 cumulative IPC: 0.193099 (Simulation time: 13 hr 13 min 26 sec) 
 Total Blocks : 262144 Invalid Blocks : 0
Heartbeat CPU 3 instructions: 230000001 cycles: 270691632 heartbeat IPC: 0.192045 cumulative IPC: 0.192998 (Simulation time: 13 hr 13 min 45 sec) 
 Total Blocks : 262144 Invalid Blocks : 0
Heartbeat CPU 4 instructions: 230000001 cycles: 270948854 heartbeat IPC: 0.191865 cumulative IPC: 0.19274 (Simulation time: 13 hr 14 min 5 sec) 
 Total Blocks : 262144 Invalid Blocks : 0
Heartbeat CPU 6 instructions: 230000001 cycles: 271220204 heartbeat IPC: 0.191425 cumulative IPC: 0.19292 (Simulation time: 13 hr 14 min 26 sec) 
 Total Blocks : 262144 Invalid Blocks : 0
Heartbeat CPU 5 instructions: 230000001 cycles: 271401360 heartbeat IPC: 0.191315 cumulative IPC: 0.192352 (Simulation time: 13 hr 14 min 39 sec) 
 Total Blocks : 262144 Invalid Blocks : 0
Heartbeat CPU 7 instructions: 230000001 cycles: 271597354 heartbeat IPC: 0.191323 cumulative IPC: 0.192471 (Simulation time: 13 hr 14 min 54 sec) 
 Total Blocks : 262144 Invalid Blocks : 0
Heartbeat CPU 0 instructions: 240000001 cycles: 321885066 heartbeat IPC: 0.192297 cumulative IPC: 0.193003 (Simulation time: 14 hr 9 min 26 sec) 
 Total Blocks : 262144 Invalid Blocks : 0
Heartbeat CPU 1 instructions: 240000001 cycles: 322294997 heartbeat IPC: 0.192315 cumulative IPC: 0.192846 (Simulation time: 14 hr 9 min 51 sec) 
 Total Blocks : 262144 Invalid Blocks : 0
Heartbeat CPU 2 instructions: 240000001 cycles: 322564662 heartbeat IPC: 0.191812 cumulative IPC: 0.192775 (Simulation time: 14 hr 10 min 8 sec) 
 Total Blocks : 262144 Invalid Blocks : 0
Heartbeat CPU 3 instructions: 240000001 cycles: 322776087 heartbeat IPC: 0.191996 cumulative IPC: 0.192746 (Simulation time: 14 hr 10 min 21 sec) 
 Total Blocks : 262144 Invalid Blocks : 0
Heartbeat CPU 4 instructions: 240000001 cycles: 323286410 heartbeat IPC: 0.191067 cumulative IPC: 0.192318 (Simulation time: 14 hr 10 min 56 sec) 
 Total Blocks : 262144 Invalid Blocks : 0
Heartbeat CPU 6 instructions: 240000001 cycles: 323350878 heartbeat IPC: 0.191826 cumulative IPC: 0.192645 (Simulation time: 14 hr 11 min 0 sec) 
 Total Blocks : 262144 Invalid Blocks : 0
Heartbeat CPU 5 instructions: 240000001 cycles: 323755291 heartbeat IPC: 0.191008 cumulative IPC: 0.192013 (Simulation time: 14 hr 11 min 26 sec) 
 Total Blocks : 262144 Invalid Blocks : 0
Heartbeat CPU 7 instructions: 240000001 cycles: 323795210 heartbeat IPC: 0.191579 cumulative IPC: 0.192247 (Simulation time: 14 hr 11 min 29 sec) 
 Total Blocks : 262144 Invalid Blocks : 0
Heartbeat CPU 0 instructions: 250000001 cycles: 374016593 heartbeat IPC: 0.191822 cumulative IPC: 0.192764 (Simulation time: 15 hr 5 min 38 sec) 
 Total Blocks : 262144 Invalid Blocks : 0
Heartbeat CPU 1 instructions: 250000001 cycles: 374546825 heartbeat IPC: 0.191381 cumulative IPC: 0.19255 (Simulation time: 15 hr 6 min 8 sec) 
 Total Blocks : 262144 Invalid Blocks : 0
Heartbeat CPU 2 instructions: 250000001 cycles: 374894249 heartbeat IPC: 0.191096 cumulative IPC: 0.192436 (Simulation time: 15 hr 6 min 29 sec) 
 Total Blocks : 262144 Invalid Blocks : 0
Heartbeat CPU 3 instructions: 250000001 cycles: 375018135 heartbeat IPC: 0.191417 cumulative IPC: 0.192478 (Simulation time: 15 hr 6 min 37 sec) 
 Total Blocks : 262144 Invalid Blocks : 0
Heartbeat CPU 6 instructions: 250000001 cycles: 375605364 heartbeat IPC: 0.191371 cumulative IPC: 0.192389 (Simulation time: 15 hr 7 min 11 sec) 
 Total Blocks : 262144 Invalid Blocks : 0
Heartbeat CPU 4 instructions: 250000001 cycles: 375660568 heartbeat IPC: 0.190934 cumulative IPC: 0.192039 (Simulation time: 15 hr 7 min 14 sec) 
 Total Blocks : 262144 Invalid Blocks : 0
Heartbeat CPU 5 instructions: 250000001 cycles: 376066109 heartbeat IPC: 0.191165 cumulative IPC: 0.191843 (Simulation time: 15 hr 7 min 41 sec) 
 Total Blocks : 262144 Invalid Blocks : 0
Heartbeat CPU 7 instructions: 250000001 cycles: 376112907 heartbeat IPC: 0.19114 cumulative IPC: 0.192025 (Simulation time: 15 hr 7 min 44 sec) 
 Total Blocks : 262144 Invalid Blocks : 0
Heartbeat CPU 0 instructions: 260000003 cycles: 426981884 heartbeat IPC: 0.188803 cumulative IPC: 0.19209 (Simulation time: 15 hr 58 min 54 sec) 
 Total Blocks : 262144 Invalid Blocks : 0
Heartbeat CPU 1 instructions: 260000003 cycles: 427451012 heartbeat IPC: 0.189021 cumulative IPC: 0.191951 (Simulation time: 15 hr 59 min 23 sec) 
 Total Blocks : 262144 Invalid Blocks : 0
Heartbeat CPU 2 instructions: 260000003 cycles: 427853999 heartbeat IPC: 0.188823 cumulative IPC: 0.191823 (Simulation time: 15 hr 59 min 48 sec) 
 Total Blocks : 262144 Invalid Blocks : 0
Heartbeat CPU 3 instructions: 260000003 cycles: 427983002 heartbeat IPC: 0.188804 cumulative IPC: 0.191855 (Simulation time: 15 hr 59 min 54 sec) 
 Total Blocks : 262144 Invalid Blocks : 0
Heartbeat CPU 6 instructions: 260000003 cycles: 428654579 heartbeat IPC: 0.188504 cumulative IPC: 0.19173 (Simulation time: 16 hr 0 min 34 sec) 
 Total Blocks : 262144 Invalid Blocks : 0
Heartbeat CPU 4 instructions: 260000003 cycles: 428766733 heartbeat IPC: 0.188302 cumulative IPC: 0.191405 (Simulation time: 16 hr 0 min 41 sec) 
 Total Blocks : 262144 Invalid Blocks : 0
Heartbeat CPU 5 instructions: 260000003 cycles: 429120652 heartbeat IPC: 0.188485 cumulative IPC: 0.191275 (Simulation time: 16 hr 1 min 0 sec) 
 Total Blocks : 262144 Invalid Blocks : 0
Heartbeat CPU 7 instructions: 260000003 cycles: 429225042 heartbeat IPC: 0.188281 cumulative IPC: 0.19139 (Simulation time: 16 hr 1 min 6 sec) 
 Total Blocks : 262144 Invalid Blocks : 0
Heartbeat CPU 0 instructions: 270000001 cycles: 480336515 heartbeat IPC: 0.187425 cumulative IPC: 0.191408 (Simulation time: 16 hr 49 min 1 sec) 
 Total Blocks : 262144 Invalid Blocks : 0
Heartbeat CPU 1 instructions: 270000001 cycles: 480840892 heartbeat IPC: 0.187301 cumulative IPC: 0.191271 (Simulation time: 16 hr 49 min 29 sec) 
 Total Blocks : 262144 Invalid Blocks : 0
Heartbeat CPU 2 instructions: 270000001 cycles: 481198584 heartbeat IPC: 0.18746 cumulative IPC: 0.191186 (Simulation time: 16 hr 49 min 52 sec) 
 Total Blocks : 262144 Invalid Blocks : 0
Heartbeat CPU 3 instructions: 270000001 cycles: 481326317 heartbeat IPC: 0.187465 cumulative IPC: 0.191214 (Simulation time: 16 hr 49 min 58 sec) 
 Total Blocks : 262144 Invalid Blocks : 0
Heartbeat CPU 6 instructions: 270000001 cycles: 482125951 heartbeat IPC: 0.187016 cumulative IPC: 0.191042 (Simulation time: 16 hr 50 min 50 sec) 
 Total Blocks : 262144 Invalid Blocks : 0
Heartbeat CPU 4 instructions: 270000001 cycles: 482292821 heartbeat IPC: 0.186825 cumulative IPC: 0.190736 (Simulation time: 16 hr 51 min 0 sec) 
 Total Blocks : 262144 Invalid Blocks : 0
Heartbeat CPU 5 instructions: 270000001 cycles: 482578533 heartbeat IPC: 0.187063 cumulative IPC: 0.190661 (Simulation time: 16 hr 51 min 17 sec) 
 Total Blocks : 262144 Invalid Blocks : 0
Heartbeat CPU 7 instructions: 270000001 cycles: 482782817 heartbeat IPC: 0.186714 cumulative IPC: 0.190708 (Simulation time: 16 hr 51 min 28 sec) 
 Total Blocks : 262144 Invalid Blocks : 0
Heartbeat CPU 0 instructions: 280000000 cycles: 534092307 heartbeat IPC: 0.186026 cumulative IPC: 0.190716 (Simulation time: 17 hr 35 min 46 sec) 
 Total Blocks : 262144 Invalid Blocks : 0
Heartbeat CPU 1 instructions: 280000002 cycles: 534522720 heartbeat IPC: 0.186283 cumulative IPC: 0.190632 (Simulation time: 17 hr 36 min 5 sec) 
 Total Blocks : 262144 Invalid Blocks : 0
Heartbeat CPU 2 instructions: 280000002 cycles: 534943793 heartbeat IPC: 0.186063 cumulative IPC: 0.190529 (Simulation time: 17 hr 36 min 23 sec) 
 Total Blocks : 262144 Invalid Blocks : 0
Heartbeat CPU 3 instructions: 280000003 cycles: 535049863 heartbeat IPC: 0.186138 cumulative IPC: 0.190564 (Simulation time: 17 hr 36 min 26 sec) 
 Total Blocks : 262144 Invalid Blocks : 0
Heartbeat CPU 6 instructions: 280000002 cycles: 535841730 heartbeat IPC: 0.186165 cumulative IPC: 0.190419 (Simulation time: 17 hr 37 min 0 sec) 
 Total Blocks : 262144 Invalid Blocks : 0
Heartbeat CPU 4 instructions: 280000000 cycles: 536027934 heartbeat IPC: 0.186098 cumulative IPC: 0.190143 (Simulation time: 17 hr 37 min 9 sec) 
 Total Blocks : 262144 Invalid Blocks : 0
Heartbeat CPU 5 instructions: 280000002 cycles: 536344207 heartbeat IPC: 0.185992 cumulative IPC: 0.190064 (Simulation time: 17 hr 37 min 23 sec) 
 Total Blocks : 262144 Invalid Blocks : 0
Heartbeat CPU 7 instructions: 280000002 cycles: 536596622 heartbeat IPC: 0.185826 cumulative IPC: 0.190084 (Simulation time: 17 hr 37 min 36 sec) 
 Total Blocks : 262144 Invalid Blocks : 0
Heartbeat CPU 0 instructions: 290000001 cycles: 588262525 heartbeat IPC: 0.184603 cumulative IPC: 0.190015 (Simulation time: 18 hr 16 min 24 sec) 
 Total Blocks : 262144 Invalid Blocks : 0
Heartbeat CPU 1 instructions: 290000001 cycles: 588679004 heartbeat IPC: 0.184651 cumulative IPC: 0.189947 (Simulation time: 18 hr 16 min 39 sec) 
 Total Blocks : 262144 Invalid Blocks : 0
Heartbeat CPU 2 instructions: 290000001 cycles: 589095016 heartbeat IPC: 0.184668 cumulative IPC: 0.189859 (Simulation time: 18 hr 16 min 55 sec) 
 Total Blocks : 262144 Invalid Blocks : 0
Heartbeat CPU 3 instructions: 290000001 cycles: 589296861 heartbeat IPC: 0.184342 cumulative IPC: 0.189851 (Simulation time: 18 hr 17 min 4 sec) 
 Total Blocks : 262144 Invalid Blocks : 0
Heartbeat CPU 6 instructions: 290000001 cycles: 590149759 heartbeat IPC: 0.184135 cumulative IPC: 0.189699 (Simulation time: 18 hr 17 min 39 sec) 
 Total Blocks : 262144 Invalid Blocks : 0
Heartbeat CPU 4 instructions: 290000001 cycles: 590442384 heartbeat IPC: 0.183775 cumulative IPC: 0.189413 (Simulation time: 18 hr 17 min 51 sec) 
 Total Blocks : 262144 Invalid Blocks : 0
Heartbeat CPU 5 instructions: 290000001 cycles: 590697063 heartbeat IPC: 0.183983 cumulative IPC: 0.189368 (Simulation time: 18 hr 18 min 1 sec) 
 Total Blocks : 262144 Invalid Blocks : 0
Heartbeat CPU 7 instructions: 290000001 cycles: 590851307 heartbeat IPC: 0.184316 cumulative IPC: 0.189425 (Simulation time: 18 hr 18 min 7 sec) 
 Total Blocks : 262144 Invalid Blocks : 0
Heartbeat CPU 0 instructions: 300000001 cycles: 643430560 heartbeat IPC: 0.181264 cumulative IPC: 0.189101 (Simulation time: 18 hr 51 min 30 sec) 
 Total Blocks : 262144 Invalid Blocks : 0
Heartbeat CPU 1 instructions: 300000001 cycles: 643800332 heartbeat IPC: 0.181418 cumulative IPC: 0.189057 (Simulation time: 18 hr 51 min 43 sec) 
 Total Blocks : 262144 Invalid Blocks : 0
Heartbeat CPU 2 instructions: 300000001 cycles: 644241598 heartbeat IPC: 0.181335 cumulative IPC: 0.188969 (Simulation time: 18 hr 51 min 58 sec) 
 Total Blocks : 262144 Invalid Blocks : 0
Heartbeat CPU 3 instructions: 300000001 cycles: 644402623 heartbeat IPC: 0.181469 cumulative IPC: 0.188978 (Simulation time: 18 hr 52 min 3 sec) 
 Total Blocks : 262144 Invalid Blocks : 0
Heartbeat CPU 6 instructions: 300000001 cycles: 645248213 heartbeat IPC: 0.181493 cumulative IPC: 0.188845 (Simulation time: 18 hr 52 min 32 sec) 
 Total Blocks : 262144 Invalid Blocks : 0
Heartbeat CPU 4 instructions: 300000001 cycles: 645656077 heartbeat IPC: 0.181114 cumulative IPC: 0.188549 (Simulation time: 18 hr 52 min 45 sec) 
 Total Blocks : 262144 Invalid Blocks : 0
Heartbeat CPU 5 instructions: 300000001 cycles: 645934684 heartbeat IPC: 0.181036 cumulative IPC: 0.1885 (Simulation time: 18 hr 52 min 55 sec) 
 Total Blocks : 262144 Invalid Blocks : 0
Heartbeat CPU 7 instructions: 300000001 cycles: 646078775 heartbeat IPC: 0.181069 cumulative IPC: 0.188555 (Simulation time: 18 hr 53 min 0 sec) 
 Total Blocks : 262144 Invalid Blocks : 0
Heartbeat CPU 0 instructions: 310000003 cycles: 699792810 heartbeat IPC: 0.177424 cumulative IPC: 0.187974 (Simulation time: 19 hr 22 min 54 sec) 
 Total Blocks : 262144 Invalid Blocks : 0
Heartbeat CPU 1 instructions: 310000003 cycles: 700112089 heartbeat IPC: 0.177583 cumulative IPC: 0.187951 (Simulation time: 19 hr 23 min 4 sec) 
 Total Blocks : 262144 Invalid Blocks : 0
Heartbeat CPU 2 instructions: 310000003 cycles: 700589695 heartbeat IPC: 0.177468 cumulative IPC: 0.187861 (Simulation time: 19 hr 23 min 20 sec) 
 Total Blocks : 262144 Invalid Blocks : 0
Heartbeat CPU 3 instructions: 310000003 cycles: 700779031 heartbeat IPC: 0.177379 cumulative IPC: 0.18786 (Simulation time: 19 hr 23 min 26 sec) 
 Total Blocks : 262144 Invalid Blocks : 0
Heartbeat CPU 6 instructions: 310000003 cycles: 701635040 heartbeat IPC: 0.177346 cumulative IPC: 0.187739 (Simulation time: 19 hr 23 min 53 sec) 
 Total Blocks : 262144 Invalid Blocks : 0
Heartbeat CPU 4 instructions: 310000003 cycles: 702046779 heartbeat IPC: 0.177334 cumulative IPC: 0.18747 (Simulation time: 19 hr 24 min 7 sec) 
 Total Blocks : 262144 Invalid Blocks : 0
Heartbeat CPU 5 instructions: 310000003 cycles: 702311448 heartbeat IPC: 0.177378 cumulative IPC: 0.187431 (Simulation time: 19 hr 24 min 15 sec) 
 Total Blocks : 262144 Invalid Blocks : 0
Heartbeat CPU 7 instructions: 310000003 cycles: 702472998 heartbeat IPC: 0.177323 cumulative IPC: 0.187475 (Simulation time: 19 hr 24 min 20 sec) 
 Total Blocks : 262144 Invalid Blocks : 0
Heartbeat CPU 0 instructions: 320000000 cycles: 756699985 heartbeat IPC: 0.175725 cumulative IPC: 0.186886 (Simulation time: 19 hr 50 min 58 sec) 
 Total Blocks : 262144 Invalid Blocks : 0
Heartbeat CPU 1 instructions: 320000000 cycles: 756775459 heartbeat IPC: 0.176481 cumulative IPC: 0.186937 (Simulation time: 19 hr 51 min 1 sec) 
 Total Blocks : 262144 Invalid Blocks : 0
Heartbeat CPU 2 instructions: 320000000 cycles: 757309193 heartbeat IPC: 0.176306 cumulative IPC: 0.18684 (Simulation time: 19 hr 51 min 17 sec) 
 Total Blocks : 262144 Invalid Blocks : 0
Heartbeat CPU 3 instructions: 320000000 cycles: 757703729 heartbeat IPC: 0.175671 cumulative IPC: 0.186779 (Simulation time: 19 hr 51 min 27 sec) 
 Total Blocks : 262144 Invalid Blocks : 0
Heartbeat CPU 6 instructions: 320000000 cycles: 758443649 heartbeat IPC: 0.17603 cumulative IPC: 0.186704 (Simulation time: 19 hr 51 min 47 sec) 
 Total Blocks : 262144 Invalid Blocks : 0
Heartbeat CPU 4 instructions: 320000000 cycles: 758847105 heartbeat IPC: 0.176055 cumulative IPC: 0.186462 (Simulation time: 19 hr 51 min 59 sec) 
 Total Blocks : 262144 Invalid Blocks : 0
Heartbeat CPU 5 instructions: 320000000 cycles: 759234118 heartbeat IPC: 0.175677 cumulative IPC: 0.186391 (Simulation time: 19 hr 52 min 9 sec) 
 Total Blocks : 262144 Invalid Blocks : 0
Heartbeat CPU 7 instructions: 320000000 cycles: 759387938 heartbeat IPC: 0.175701 cumulative IPC: 0.186434 (Simulation time: 19 hr 52 min 13 sec) 
 Total Blocks : 262144 Invalid Blocks : 0
Heartbeat CPU 0 instructions: 330000000 cycles: 814936955 heartbeat IPC: 0.171712 cumulative IPC: 0.185622 (Simulation time: 20 hr 17 min 8 sec) 
 Total Blocks : 262144 Invalid Blocks : 0
Heartbeat CPU 1 instructions: 330000000 cycles: 815147020 heartbeat IPC: 0.171316 cumulative IPC: 0.185633 (Simulation time: 20 hr 17 min 13 sec) 
 Total Blocks : 262144 Invalid Blocks : 0
Heartbeat CPU 2 instructions: 330000000 cycles: 815711603 heartbeat IPC: 0.171226 cumulative IPC: 0.185537 (Simulation time: 20 hr 17 min 27 sec) 
 Total Blocks : 262144 Invalid Blocks : 0
Heartbeat CPU 3 instructions: 330000000 cycles: 816086490 heartbeat IPC: 0.171283 cumulative IPC: 0.185487 (Simulation time: 20 hr 17 min 36 sec) 
 Total Blocks : 262144 Invalid Blocks : 0
Heartbeat CPU 6 instructions: 330000000 cycles: 816771786 heartbeat IPC: 0.171444 cumulative IPC: 0.185434 (Simulation time: 20 hr 17 min 53 sec) 
 Total Blocks : 262144 Invalid Blocks : 0
Heartbeat CPU 4 instructions: 330000000 cycles: 817268102 heartbeat IPC: 0.171171 cumulative IPC: 0.185189 (Simulation time: 20 hr 18 min 6 sec) 
 Total Blocks : 262144 Invalid Blocks : 0
Heartbeat CPU 5 instructions: 330000000 cycles: 817616277 heartbeat IPC: 0.171285 cumulative IPC: 0.185135 (Simulation time: 20 hr 18 min 15 sec) 
 Total Blocks : 262144 Invalid Blocks : 0
Heartbeat CPU 7 instructions: 330000000 cycles: 817726851 heartbeat IPC: 0.171412 cumulative IPC: 0.185186 (Simulation time: 20 hr 18 min 18 sec) 
 Total Blocks : 262144 Invalid Blocks : 0
Heartbeat CPU 0 instructions: 340000001 cycles: 874612958 heartbeat IPC: 0.167572 cumulative IPC: 0.184203 (Simulation time: 20 hr 42 min 3 sec) 
 Total Blocks : 262144 Invalid Blocks : 0
Heartbeat CPU 1 instructions: 340000001 cycles: 874808975 heartbeat IPC: 0.167611 cumulative IPC: 0.184217 (Simulation time: 20 hr 42 min 8 sec) 
 Total Blocks : 262144 Invalid Blocks : 0
Heartbeat CPU 2 instructions: 340000001 cycles: 875381738 heartbeat IPC: 0.167588 cumulative IPC: 0.184127 (Simulation time: 20 hr 42 min 22 sec) 
 Total Blocks : 262144 Invalid Blocks : 0
Heartbeat CPU 3 instructions: 340000001 cycles: 875673475 heartbeat IPC: 0.167822 cumulative IPC: 0.184102 (Simulation time: 20 hr 42 min 29 sec) 
 Total Blocks : 262144 Invalid Blocks : 0
Heartbeat CPU 6 instructions: 340000001 cycles: 876467873 heartbeat IPC: 0.167515 cumulative IPC: 0.184028 (Simulation time: 20 hr 42 min 48 sec) 
 Total Blocks : 262144 Invalid Blocks : 0
Heartbeat CPU 4 instructions: 340000001 cycles: 877041439 heartbeat IPC: 0.167299 cumulative IPC: 0.183784 (Simulation time: 20 hr 43 min 2 sec) 
 Total Blocks : 262144 Invalid Blocks : 0
Heartbeat CPU 5 instructions: 340000001 cycles: 877351809 heartbeat IPC: 0.167405 cumulative IPC: 0.183744 (Simulation time: 20 hr 43 min 9 sec) 
 Total Blocks : 262144 Invalid Blocks : 0
Heartbeat CPU 7 instructions: 340000001 cycles: 877393701 heartbeat IPC: 0.167597 cumulative IPC: 0.183808 (Simulation time: 20 hr 43 min 10 sec) 
 Total Blocks : 262144 Invalid Blocks : 0
Heartbeat CPU 0 instructions: 350000000 cycles: 936616678 heartbeat IPC: 0.161281 cumulative IPC: 0.182472 (Simulation time: 21 hr 7 min 24 sec) 
 Total Blocks : 262144 Invalid Blocks : 0
Heartbeat CPU 1 instructions: 350000000 cycles: 936715881 heartbeat IPC: 0.161533 cumulative IPC: 0.182506 (Simulation time: 21 hr 7 min 27 sec) 
 Total Blocks : 262144 Invalid Blocks : 0
Heartbeat CPU 2 instructions: 350000000 cycles: 937419610 heartbeat IPC: 0.161192 cumulative IPC: 0.182395 (Simulation time: 21 hr 7 min 43 sec) 
 Total Blocks : 262144 Invalid Blocks : 0
Heartbeat CPU 3 instructions: 350000000 cycles: 937650445 heartbeat IPC: 0.16135 cumulative IPC: 0.182387 (Simulation time: 21 hr 7 min 48 sec) 
 Total Blocks : 262144 Invalid Blocks : 0
Heartbeat CPU 6 instructions: 350000000 cycles: 938484458 heartbeat IPC: 0.161247 cumulative IPC: 0.182311 (Simulation time: 21 hr 8 min 8 sec) 
 Total Blocks : 262144 Invalid Blocks : 0
Heartbeat CPU 4 instructions: 350000000 cycles: 939085009 heartbeat IPC: 0.161177 cumulative IPC: 0.18208 (Simulation time: 21 hr 8 min 22 sec) 
 Total Blocks : 262144 Invalid Blocks : 0
Heartbeat CPU 7 instructions: 350000000 cycles: 939386357 heartbeat IPC: 0.161309 cumulative IPC: 0.182115 (Simulation time: 21 hr 8 min 29 sec) 
 Total Blocks : 262144 Invalid Blocks : 0
Heartbeat CPU 5 instructions: 350000000 cycles: 939485584 heartbeat IPC: 0.160943 cumulative IPC: 0.182024 (Simulation time: 21 hr 8 min 31 sec) 
 Total Blocks : 262144 Invalid Blocks : 0
Heartbeat CPU 0 instructions: 360000002 cycles: 1000963362 heartbeat IPC: 0.155408 cumulative IPC: 0.180504 (Simulation time: 21 hr 32 min 12 sec) 
 Total Blocks : 262144 Invalid Blocks : 0
Heartbeat CPU 1 instructions: 360000002 cycles: 1001112912 heartbeat IPC: 0.155287 cumulative IPC: 0.180527 (Simulation time: 21 hr 32 min 15 sec) 
 Total Blocks : 262144 Invalid Blocks : 0
Heartbeat CPU 2 instructions: 360000002 cycles: 1001914519 heartbeat IPC: 0.155051 cumulative IPC: 0.180405 (Simulation time: 21 hr 32 min 33 sec) 
 Total Blocks : 262144 Invalid Blocks : 0
Heartbeat CPU 3 instructions: 360000002 cycles: 1002034331 heartbeat IPC: 0.155318 cumulative IPC: 0.18042 (Simulation time: 21 hr 32 min 36 sec) 
 Total Blocks : 262144 Invalid Blocks : 0
Heartbeat CPU 6 instructions: 360000002 cycles: 1002933404 heartbeat IPC: 0.155162 cumulative IPC: 0.180339 (Simulation time: 21 hr 32 min 56 sec) 
 Total Blocks : 262144 Invalid Blocks : 0
Heartbeat CPU 4 instructions: 360000002 cycles: 1003580146 heartbeat IPC: 0.15505 cumulative IPC: 0.180117 (Simulation time: 21 hr 33 min 11 sec) 
 Total Blocks : 262144 Invalid Blocks : 0
Heartbeat CPU 7 instructions: 360000002 cycles: 1003716668 heartbeat IPC: 0.155448 cumulative IPC: 0.180183 (Simulation time: 21 hr 33 min 14 sec) 
 Total Blocks : 262144 Invalid Blocks : 0
Heartbeat CPU 5 instructions: 360000002 cycles: 1004034458 heartbeat IPC: 0.154921 cumulative IPC: 0.180055 (Simulation time: 21 hr 33 min 21 sec) 
 Total Blocks : 262144 Invalid Blocks : 0
Heartbeat CPU 0 instructions: 370000000 cycles: 1068486223 heartbeat IPC: 0.148098 cumulative IPC: 0.178208 (Simulation time: 21 hr 57 min 18 sec) 
 Total Blocks : 262144 Invalid Blocks : 0
Heartbeat CPU 1 instructions: 370000000 cycles: 1068650887 heartbeat IPC: 0.148065 cumulative IPC: 0.178226 (Simulation time: 21 hr 57 min 21 sec) 
 Total Blocks : 262144 Invalid Blocks : 0
Heartbeat CPU 2 instructions: 370000000 cycles: 1069475768 heartbeat IPC: 0.148014 cumulative IPC: 0.178111 (Simulation time: 21 hr 57 min 39 sec) 
 Total Blocks : 262144 Invalid Blocks : 0
Heartbeat CPU 3 instructions: 370000000 cycles: 1069491755 heartbeat IPC: 0.148242 cumulative IPC: 0.178144 (Simulation time: 21 hr 57 min 40 sec) 
 Total Blocks : 262144 Invalid Blocks : 0
Heartbeat CPU 6 instructions: 370000000 cycles: 1070482459 heartbeat IPC: 0.148041 cumulative IPC: 0.178054 (Simulation time: 21 hr 58 min 1 sec) 
 Total Blocks : 262144 Invalid Blocks : 0
Heartbeat CPU 4 instructions: 370000000 cycles: 1071154129 heartbeat IPC: 0.147986 cumulative IPC: 0.177844 (Simulation time: 21 hr 58 min 16 sec) 
 Total Blocks : 262144 Invalid Blocks : 0
Heartbeat CPU 7 instructions: 370000000 cycles: 1071238390 heartbeat IPC: 0.1481 cumulative IPC: 0.177916 (Simulation time: 21 hr 58 min 18 sec) 
 Total Blocks : 262144 Invalid Blocks : 0
Heartbeat CPU 5 instructions: 370000000 cycles: 1071733731 heartbeat IPC: 0.147712 cumulative IPC: 0.177765 (Simulation time: 21 hr 58 min 29 sec) 
 Total Blocks : 262144 Invalid Blocks : 0
Heartbeat CPU 0 instructions: 380000003 cycles: 1140103883 heartbeat IPC: 0.13963 cumulative IPC: 0.175511 (Simulation time: 22 hr 22 min 42 sec) 
 Total Blocks : 262144 Invalid Blocks : 0
Heartbeat CPU 1 instructions: 380000003 cycles: 1140439773 heartbeat IPC: 0.139297 cumulative IPC: 0.175499 (Simulation time: 22 hr 22 min 49 sec) 
 Total Blocks : 262144 Invalid Blocks : 0
Heartbeat CPU 2 instructions: 380000003 cycles: 1141154988 heartbeat IPC: 0.13951 cumulative IPC: 0.175413 (Simulation time: 22 hr 23 min 4 sec) 
 Total Blocks : 262144 Invalid Blocks : 0
Heartbeat CPU 3 instructions: 380000003 cycles: 1141160268 heartbeat IPC: 0.139531 cumulative IPC: 0.175446 (Simulation time: 22 hr 23 min 5 sec) 
 Total Blocks : 262144 Invalid Blocks : 0
Heartbeat CPU 6 instructions: 380000003 cycles: 1142147121 heartbeat IPC: 0.139539 cumulative IPC: 0.175365 (Simulation time: 22 hr 23 min 25 sec) 
 Total Blocks : 262144 Invalid Blocks : 0
Heartbeat CPU 4 instructions: 380000003 cycles: 1142906244 heartbeat IPC: 0.139369 cumulative IPC: 0.175157 (Simulation time: 22 hr 23 min 42 sec) 
 Total Blocks : 262144 Invalid Blocks : 0
Heartbeat CPU 7 instructions: 380000003 cycles: 1142962185 heartbeat IPC: 0.139424 cumulative IPC: 0.175228 (Simulation time: 22 hr 23 min 43 sec) 
 Total Blocks : 262144 Invalid Blocks : 0
Heartbeat CPU 5 instructions: 380000003 cycles: 1143473589 heartbeat IPC: 0.139393 cumulative IPC: 0.175086 (Simulation time: 22 hr 23 min 54 sec) 
 Total Blocks : 262144 Invalid Blocks : 0
Heartbeat CPU 0 instructions: 390000001 cycles: 1216701213 heartbeat IPC: 0.130553 cumulative IPC: 0.172383 (Simulation time: 22 hr 49 min 8 sec) 
 Total Blocks : 262144 Invalid Blocks : 0
Heartbeat CPU 1 instructions: 390000001 cycles: 1217022729 heartbeat IPC: 0.130577 cumulative IPC: 0.172375 (Simulation time: 22 hr 49 min 14 sec) 
 Total Blocks : 262144 Invalid Blocks : 0
Heartbeat CPU 2 instructions: 390000001 cycles: 1217619278 heartbeat IPC: 0.13078 cumulative IPC: 0.172315 (Simulation time: 22 hr 49 min 25 sec) 
 Total Blocks : 262144 Invalid Blocks : 0
Heartbeat CPU 3 instructions: 390000001 cycles: 1217784154 heartbeat IPC: 0.130508 cumulative IPC: 0.172321 (Simulation time: 22 hr 49 min 29 sec) 
 Total Blocks : 262144 Invalid Blocks : 0
Heartbeat CPU 6 instructions: 390000001 cycles: 1218620259 heartbeat IPC: 0.130765 cumulative IPC: 0.172272 (Simulation time: 22 hr 49 min 45 sec) 
 Total Blocks : 262144 Invalid Blocks : 0
Heartbeat CPU 7 instructions: 390000001 cycles: 1219501794 heartbeat IPC: 0.130651 cumulative IPC: 0.172137 (Simulation time: 22 hr 50 min 2 sec) 
 Total Blocks : 262144 Invalid Blocks : 0
Heartbeat CPU 4 instructions: 390000001 cycles: 1219590488 heartbeat IPC: 0.130405 cumulative IPC: 0.172048 (Simulation time: 22 hr 50 min 4 sec) 
 Total Blocks : 262144 Invalid Blocks : 0
Heartbeat CPU 5 instructions: 390000001 cycles: 1220056622 heartbeat IPC: 0.130577 cumulative IPC: 0.172 (Simulation time: 22 hr 50 min 13 sec) 
 Total Blocks : 262144 Invalid Blocks : 0
Heartbeat CPU 0 instructions: 400000003 cycles: 1301625327 heartbeat IPC: 0.117752 cumulative IPC: 0.168471 (Simulation time: 23 hr 15 min 21 sec) 
 Total Blocks : 262144 Invalid Blocks : 0
Heartbeat CPU 1 instructions: 400000003 cycles: 1301866558 heartbeat IPC: 0.117864 cumulative IPC: 0.168476 (Simulation time: 23 hr 15 min 25 sec) 
 Total Blocks : 262144 Invalid Blocks : 0
Heartbeat CPU 2 instructions: 400000003 cycles: 1302496869 heartbeat IPC: 0.117817 cumulative IPC: 0.168418 (Simulation time: 23 hr 15 min 36 sec) 
 Total Blocks : 262144 Invalid Blocks : 0
Heartbeat CPU 3 instructions: 400000003 cycles: 1302626496 heartbeat IPC: 0.117866 cumulative IPC: 0.168429 (Simulation time: 23 hr 15 min 38 sec) 
 Total Blocks : 262144 Invalid Blocks : 0
Finished CPU 1 instructions: 200000001 cycles: 1187636918 cumulative IPC: 0.168402 (Simulation time: 23 hr 15 min 51 sec) 
Finished CPU 3 instructions: 200000000 cycles: 1187731448 cumulative IPC: 0.168388 (Simulation time: 23 hr 15 min 53 sec) 
Heartbeat CPU 6 instructions: 400000003 cycles: 1303506260 heartbeat IPC: 0.117805 cumulative IPC: 0.168379 (Simulation time: 23 hr 15 min 54 sec) 
 Total Blocks : 262144 Invalid Blocks : 0
Finished CPU 6 instructions: 200000001 cycles: 1187799485 cumulative IPC: 0.168379 (Simulation time: 23 hr 15 min 54 sec) 
Finished CPU 0 instructions: 200000000 cycles: 1187816754 cumulative IPC: 0.168376 (Simulation time: 23 hr 15 min 55 sec) 
Finished CPU 2 instructions: 200000001 cycles: 1187913335 cumulative IPC: 0.168362 (Simulation time: 23 hr 15 min 56 sec) 
Heartbeat CPU 4 instructions: 400000003 cycles: 1304461573 heartbeat IPC: 0.117826 cumulative IPC: 0.168177 (Simulation time: 23 hr 16 min 11 sec) 
 Total Blocks : 262144 Invalid Blocks : 0
Heartbeat CPU 7 instructions: 400000003 cycles: 1304486146 heartbeat IPC: 0.117669 cumulative IPC: 0.168243 (Simulation time: 23 hr 16 min 11 sec) 
 Total Blocks : 262144 Invalid Blocks : 0
Finished CPU 7 instructions: 200000002 cycles: 1188756529 cumulative IPC: 0.168243 (Simulation time: 23 hr 16 min 11 sec) 
Heartbeat CPU 5 instructions: 400000003 cycles: 1304889135 heartbeat IPC: 0.117879 cumulative IPC: 0.168139 (Simulation time: 23 hr 16 min 18 sec) 
 Total Blocks : 262144 Invalid Blocks : 0
Finished CPU 4 instructions: 200000001 cycles: 1189496048 cumulative IPC: 0.168138 (Simulation time: 23 hr 16 min 24 sec) 
Finished CPU 5 instructions: 200000001 cycles: 1189679837 cumulative IPC: 0.168112 (Simulation time: 23 hr 16 min 27 sec) 

CPU 0 Branch Prediction Accuracy: 98.7935% MPKI: 3.19329 Average ROB Occupancy at Mispredict: 185.527

CPU 1 Branch Prediction Accuracy: 98.7937% MPKI: 3.19349 Average ROB Occupancy at Mispredict: 185.559

CPU 2 Branch Prediction Accuracy: 98.7942% MPKI: 3.1928 Average ROB Occupancy at Mispredict: 185.597

CPU 3 Branch Prediction Accuracy: 98.7943% MPKI: 3.19317 Average ROB Occupancy at Mispredict: 185.575

CPU 4 Branch Prediction Accuracy: 98.7955% MPKI: 3.1902 Average ROB Occupancy at Mispredict: 185.633

CPU 5 Branch Prediction Accuracy: 98.7958% MPKI: 3.18978 Average ROB Occupancy at Mispredict: 185.668

CPU 6 Branch Prediction Accuracy: 98.7949% MPKI: 3.19313 Average ROB Occupancy at Mispredict: 185.607

CPU 7 Branch Prediction Accuracy: 98.7955% MPKI: 3.19147 Average ROB Occupancy at Mispredict: 185.64

ChampSim completed all CPUs

Total Simulation Statistics (not including warmup)

CPU 0 cumulative IPC: 0.168285 instructions: 200204947 cycles: 1189679837
ITLB TOTAL     ACCESS: 41006872  HIT: 41006872  MISS:     0  HIT %:   100  MISS %:     0  AVERAGE MISS PENALTY: 0
ITLB LOAD      ACCESS: 41006872  HIT: 41006872  MISS:     0  HIT %:   100  MISS %:     0  AVERAGE MISS PENALTY: 0
ITLB RFO       ACCESS:     0  HIT:     0  MISS:     0  HIT %:     0  MISS %:     0  AVERAGE MISS PENALTY: 0
ITLB PREFETCH  ACCESS:     0  HIT:     0  MISS:     0  HIT %:     0  MISS %:     0  AVERAGE MISS PENALTY: 0
ITLB WRITEBACK ACCESS:     0  HIT:     0  MISS:     0  HIT %:     0  MISS %:     0  AVERAGE MISS PENALTY: 0

DTLB TOTAL     ACCESS: 35154201  HIT: 20048684  MISS: 15105517  HIT %: 57.0307  MISS %: 42.9693  AVERAGE MISS PENALTY: 17.2562
DTLB LOAD      ACCESS: 34091640  HIT: 19487071  MISS: 14604569  HIT %: 57.1608  MISS %: 42.8392  AVERAGE MISS PENALTY: 15.2142
DTLB RFO       ACCESS: 1062561  HIT: 561613  MISS: 500948  HIT %: 52.8547  MISS %: 47.1453  AVERAGE MISS PENALTY: 76.788
DTLB PREFETCH  ACCESS:     0  HIT:     0  MISS:     0  HIT %:     0  MISS %:     0  AVERAGE MISS PENALTY: 0
DTLB WRITEBACK ACCESS:     0  HIT:     0  MISS:     0  HIT %:     0  MISS %:     0  AVERAGE MISS PENALTY: 0

STLB TOTAL     ACCESS: 15105517  HIT: 14368460  MISS: 737057  HIT %: 95.1206  MISS %: 4.87939  AVERAGE MISS PENALTY: 100
STLB LOAD      ACCESS: 14604569  HIT: 14158529  MISS: 446040  HIT %: 96.9459  MISS %: 3.05411  AVERAGE MISS PENALTY: 100
STLB RFO       ACCESS: 500948  HIT: 209931  MISS: 291017  HIT %: 41.9067  MISS %: 58.0933  AVERAGE MISS PENALTY: 100
STLB PREFETCH  ACCESS:     0  HIT:     0  MISS:     0  HIT %:     0  MISS %:     0  AVERAGE MISS PENALTY: 0
STLB WRITEBACK ACCESS:     0  HIT:     0  MISS:     0  HIT %:     0  MISS %:     0  AVERAGE MISS PENALTY: 0

L1D TOTAL     ACCESS: 35174472  HIT: 16070518  MISS: 19103954  HIT %: 45.688  MISS %: 54.312  AVERAGE MISS PENALTY: 1.0571e+06
L1D LOAD      ACCESS: 31566550  HIT: 14096554  MISS: 17469996  HIT %: 44.6566  MISS %: 55.3434  AVERAGE MISS PENALTY: 1.15595e+06
L1D RFO       ACCESS: 1064807  HIT: 1047441  MISS: 17366  HIT %: 98.3691  MISS %: 1.63091  AVERAGE MISS PENALTY: 288.821
L1D PREFETCH  ACCESS: 2543115  HIT: 926523  MISS: 1616592  HIT %: 36.4326  MISS %: 63.5674  AVERAGE MISS PENALTY: 141.305
L1D WRITEBACK ACCESS:     0  HIT:     0  MISS:     0  HIT %:     0  MISS %:     0  AVERAGE MISS PENALTY: 0

L1I TOTAL     ACCESS: 64990962  HIT: 64990962  MISS:     0  HIT %:   100  MISS %:     0  AVERAGE MISS PENALTY: 0
L1I LOAD      ACCESS: 64990962  HIT: 64990962  MISS:     0  HIT %:   100  MISS %:     0  AVERAGE MISS PENALTY: 0
L1I RFO       ACCESS:     0  HIT:     0  MISS:     0  HIT %:     0  MISS %:     0  AVERAGE MISS PENALTY: 0
L1I PREFETCH  ACCESS:     0  HIT:     0  MISS:     0  HIT %:     0  MISS %:     0  AVERAGE MISS PENALTY: 0
L1I WRITEBACK ACCESS:     0  HIT:     0  MISS:     0  HIT %:     0  MISS %:     0  AVERAGE MISS PENALTY: 0

L2C TOTAL     ACCESS: 21983661  HIT: 2705340  MISS: 19278321  HIT %: 12.3061  MISS %: 87.6939  AVERAGE MISS PENALTY: 533198
L2C LOAD      ACCESS: 17469369  HIT: 433331  MISS: 17036038  HIT %: 2.48052  MISS %: 97.5195  AVERAGE MISS PENALTY: 603336
L2C RFO       ACCESS: 17366  HIT:  2768  MISS: 14598  HIT %: 15.9392  MISS %: 84.0608  AVERAGE MISS PENALTY: 324.841
L2C PREFETCH  ACCESS: 3944806  HIT: 1801037  MISS: 2143769  HIT %: 45.6559  MISS %: 54.3441  AVERAGE MISS PENALTY: 327.22
L2C WRITEBACK ACCESS: 552120  HIT: 468204  MISS: 83916  HIT %: 84.8011  MISS %: 15.1989  AVERAGE MISS PENALTY: 0


LLC0 TOTAL     ACCESS: 2438052  HIT: 1332006  MISS: 1106046  HIT %: 54.634  MISS %: 45.366  AVERAGE MISS PENALTY: 308.388
LLC0 LOAD      ACCESS: 2125158  HIT: 1252510  MISS: 872648  HIT %: 58.9373  MISS %: 41.0627  AVERAGE MISS PENALTY: 311.93
LLC0 RFO       ACCESS:  1823  HIT:    67  MISS:  1756  HIT %: 3.67526  MISS %: 96.3247  AVERAGE MISS PENALTY: 295.799
LLC0 PREFETCH  ACCESS: 242720  HIT: 17926  MISS: 224794  HIT %: 7.38546  MISS %: 92.6145  AVERAGE MISS PENALTY: 304.129
LLC0 WRITEBACK ACCESS: 68351  HIT: 61503  MISS:  6848  HIT %: 89.9811  MISS %: 10.0189  AVERAGE MISS PENALTY: 0

LLC1 TOTAL     ACCESS: 2481478  HIT: 1368373  MISS: 1113105  HIT %: 55.1435  MISS %: 44.8565  AVERAGE MISS PENALTY: 310.775
LLC1 LOAD      ACCESS: 2146822  HIT: 1287036  MISS: 859786  HIT %: 59.9508  MISS %: 40.0492  AVERAGE MISS PENALTY: 314.644
LLC1 RFO       ACCESS:  1819  HIT:    64  MISS:  1755  HIT %: 3.51842  MISS %: 96.4816  AVERAGE MISS PENALTY: 296.674
LLC1 PREFETCH  ACCESS: 264118  HIT: 18586  MISS: 245532  HIT %: 7.03701  MISS %: 92.963  AVERAGE MISS PENALTY: 304.964
LLC1 WRITEBACK ACCESS: 68719  HIT: 62687  MISS:  6032  HIT %: 91.2222  MISS %: 8.77778  AVERAGE MISS PENALTY: 0

LLC2 TOTAL     ACCESS: 2444557  HIT: 1320644  MISS: 1123913  HIT %: 54.0239  MISS %: 45.9761  AVERAGE MISS PENALTY: 313.272
LLC2 LOAD      ACCESS: 2104949  HIT: 1238763  MISS: 866186  HIT %: 58.85  MISS %: 41.15  AVERAGE MISS PENALTY: 313.046
LLC2 RFO       ACCESS:  1818  HIT:    68  MISS:  1750  HIT %: 3.74037  MISS %: 96.2596  AVERAGE MISS PENALTY: 304.192
LLC2 PREFETCH  ACCESS: 269207  HIT: 19159  MISS: 250048  HIT %: 7.11683  MISS %: 92.8832  AVERAGE MISS PENALTY: 321.544
LLC2 WRITEBACK ACCESS: 68583  HIT: 62654  MISS:  5929  HIT %: 91.355  MISS %: 8.645  AVERAGE MISS PENALTY: 0

LLC3 TOTAL     ACCESS: 2449457  HIT: 1315475  MISS: 1133982  HIT %: 53.7048  MISS %: 46.2952  AVERAGE MISS PENALTY: 315.172
LLC3 LOAD      ACCESS: 2106375  HIT: 1233517  MISS: 872858  HIT %: 58.5611  MISS %: 41.4389  AVERAGE MISS PENALTY: 314.767
LLC3 RFO       ACCESS:  1823  HIT:    60  MISS:  1763  HIT %: 3.29128  MISS %: 96.7087  AVERAGE MISS PENALTY: 302.279
LLC3 PREFETCH  ACCESS: 272278  HIT: 18967  MISS: 253311  HIT %: 6.96604  MISS %: 93.034  AVERAGE MISS PENALTY: 324.184
LLC3 WRITEBACK ACCESS: 68981  HIT: 62931  MISS:  6050  HIT %: 91.2295  MISS %: 8.77053  AVERAGE MISS PENALTY: 0

LLC4 TOTAL     ACCESS: 2487163  HIT: 1348221  MISS: 1138942  HIT %: 54.2072  MISS %: 45.7928  AVERAGE MISS PENALTY: 314.385
LLC4 LOAD      ACCESS: 2140127  HIT: 1265789  MISS: 874338  HIT %: 59.1455  MISS %: 40.8545  AVERAGE MISS PENALTY: 318.416
LLC4 RFO       ACCESS:  1822  HIT:    62  MISS:  1760  HIT %: 3.40285  MISS %: 96.5971  AVERAGE MISS PENALTY: 291.575
LLC4 PREFETCH  ACCESS: 275894  HIT: 19349  MISS: 256545  HIT %: 7.0132  MISS %: 92.9868  AVERAGE MISS PENALTY: 308.526
LLC4 WRITEBACK ACCESS: 69320  HIT: 63021  MISS:  6299  HIT %: 90.9132  MISS %: 9.08684  AVERAGE MISS PENALTY: 0

LLC5 TOTAL     ACCESS: 2467458  HIT: 1330089  MISS: 1137369  HIT %: 53.9052  MISS %: 46.0948  AVERAGE MISS PENALTY: 314.681
LLC5 LOAD      ACCESS: 2119643  HIT: 1246727  MISS: 872916  HIT %: 58.8178  MISS %: 41.1822  AVERAGE MISS PENALTY: 319.126
LLC5 RFO       ACCESS:  1827  HIT:    66  MISS:  1761  HIT %: 3.61248  MISS %: 96.3875  AVERAGE MISS PENALTY: 294.417
LLC5 PREFETCH  ACCESS: 276248  HIT: 19838  MISS: 256410  HIT %: 7.18123  MISS %: 92.8188  AVERAGE MISS PENALTY: 307.395
LLC5 WRITEBACK ACCESS: 69740  HIT: 63458  MISS:  6282  HIT %: 90.9923  MISS %: 9.00774  AVERAGE MISS PENALTY: 0

LLC6 TOTAL     ACCESS: 2463850  HIT: 1320806  MISS: 1143044  HIT %: 53.6074  MISS %: 46.3926  AVERAGE MISS PENALTY: 318.601
LLC6 LOAD      ACCESS: 2116591  HIT: 1238012  MISS: 878579  HIT %: 58.4908  MISS %: 41.5092  AVERAGE MISS PENALTY: 318.914
LLC6 RFO       ACCESS:  1835  HIT:    76  MISS:  1759  HIT %: 4.14169  MISS %: 95.8583  AVERAGE MISS PENALTY: 299.717
LLC6 PREFETCH  ACCESS: 276611  HIT: 19960  MISS: 256651  HIT %: 7.21591  MISS %: 92.7841  AVERAGE MISS PENALTY: 325.177
LLC6 WRITEBACK ACCESS: 68813  HIT: 62758  MISS:  6055  HIT %: 91.2008  MISS %: 8.79921  AVERAGE MISS PENALTY: 0

LLC7 TOTAL     ACCESS: 2513589  HIT: 1375614  MISS: 1137975  HIT %: 54.7271  MISS %: 45.2729  AVERAGE MISS PENALTY: 318.877
LLC7 LOAD      ACCESS: 2166690  HIT: 1292666  MISS: 874024  HIT %: 59.6609  MISS %: 40.3391  AVERAGE MISS PENALTY: 319.307
LLC7 RFO       ACCESS:  1831  HIT:    72  MISS:  1759  HIT %: 3.93228  MISS %: 96.0677  AVERAGE MISS PENALTY: 307.738
LLC7 PREFETCH  ACCESS: 276376  HIT: 20103  MISS: 256273  HIT %: 7.27379  MISS %: 92.7262  AVERAGE MISS PENALTY: 324.853
LLC7 WRITEBACK ACCESS: 68692  HIT: 62773  MISS:  5919  HIT %: 91.3833  MISS %: 8.61672  AVERAGE MISS PENALTY: 0

Total Rob stall cycles : 	1157883040
Total Load Rob Stall cycles : 	763577211
Average Rob Stall cycles : 	 18
Average Load Rob Stall cycles : 	 166

CPU 1 cumulative IPC: 0.1683 instructions: 200223693 cycles: 1189679837
ITLB TOTAL     ACCESS: 41011128  HIT: 41011128  MISS:     0  HIT %:   100  MISS %:     0  AVERAGE MISS PENALTY: 0
ITLB LOAD      ACCESS: 41011128  HIT: 41011128  MISS:     0  HIT %:   100  MISS %:     0  AVERAGE MISS PENALTY: 0
ITLB RFO       ACCESS:     0  HIT:     0  MISS:     0  HIT %:     0  MISS %:     0  AVERAGE MISS PENALTY: 0
ITLB PREFETCH  ACCESS:     0  HIT:     0  MISS:     0  HIT %:     0  MISS %:     0  AVERAGE MISS PENALTY: 0
ITLB WRITEBACK ACCESS:     0  HIT:     0  MISS:     0  HIT %:     0  MISS %:     0  AVERAGE MISS PENALTY: 0

DTLB TOTAL     ACCESS: 35156717  HIT: 20050955  MISS: 15105762  HIT %: 57.0331  MISS %: 42.9669  AVERAGE MISS PENALTY: 17.2512
DTLB LOAD      ACCESS: 34094130  HIT: 19489299  MISS: 14604831  HIT %: 57.1632  MISS %: 42.8368  AVERAGE MISS PENALTY: 15.2088
DTLB RFO       ACCESS: 1062587  HIT: 561656  MISS: 500931  HIT %: 52.8574  MISS %: 47.1426  AVERAGE MISS PENALTY: 76.7964
DTLB PREFETCH  ACCESS:     0  HIT:     0  MISS:     0  HIT %:     0  MISS %:     0  AVERAGE MISS PENALTY: 0
DTLB WRITEBACK ACCESS:     0  HIT:     0  MISS:     0  HIT %:     0  MISS %:     0  AVERAGE MISS PENALTY: 0

STLB TOTAL     ACCESS: 15105762  HIT: 14369030  MISS: 736732  HIT %: 95.1228  MISS %: 4.87716  AVERAGE MISS PENALTY: 100
STLB LOAD      ACCESS: 14604831  HIT: 14159094  MISS: 445737  HIT %: 96.948  MISS %: 3.05198  AVERAGE MISS PENALTY: 100
STLB RFO       ACCESS: 500931  HIT: 209936  MISS: 290995  HIT %: 41.9092  MISS %: 58.0908  AVERAGE MISS PENALTY: 100
STLB PREFETCH  ACCESS:     0  HIT:     0  MISS:     0  HIT %:     0  MISS %:     0  AVERAGE MISS PENALTY: 0
STLB WRITEBACK ACCESS:     0  HIT:     0  MISS:     0  HIT %:     0  MISS %:     0  AVERAGE MISS PENALTY: 0

L1D TOTAL     ACCESS: 35176692  HIT: 16071087  MISS: 19105605  HIT %: 45.6867  MISS %: 54.3133  AVERAGE MISS PENALTY: 1.04844e+06
L1D LOAD      ACCESS: 31568246  HIT: 14096805  MISS: 17471441  HIT %: 44.655  MISS %: 55.345  AVERAGE MISS PENALTY: 1.14649e+06
L1D RFO       ACCESS: 1064868  HIT: 1047499  MISS: 17369  HIT %: 98.3689  MISS %: 1.63109  AVERAGE MISS PENALTY: 287.71
L1D PREFETCH  ACCESS: 2543578  HIT: 926783  MISS: 1616795  HIT %: 36.4362  MISS %: 63.5638  AVERAGE MISS PENALTY: 141.197
L1D WRITEBACK ACCESS:     0  HIT:     0  MISS:     0  HIT %:     0  MISS %:     0  AVERAGE MISS PENALTY: 0

L1I TOTAL     ACCESS: 64996948  HIT: 64996948  MISS:     0  HIT %:   100  MISS %:     0  AVERAGE MISS PENALTY: 0
L1I LOAD      ACCESS: 64996948  HIT: 64996948  MISS:     0  HIT %:   100  MISS %:     0  AVERAGE MISS PENALTY: 0
L1I RFO       ACCESS:     0  HIT:     0  MISS:     0  HIT %:     0  MISS %:     0  AVERAGE MISS PENALTY: 0
L1I PREFETCH  ACCESS:     0  HIT:     0  MISS:     0  HIT %:     0  MISS %:     0  AVERAGE MISS PENALTY: 0
L1I WRITEBACK ACCESS:     0  HIT:     0  MISS:     0  HIT %:     0  MISS %:     0  AVERAGE MISS PENALTY: 0

L2C TOTAL     ACCESS: 21984580  HIT: 2699286  MISS: 19285294  HIT %: 12.2781  MISS %: 87.7219  AVERAGE MISS PENALTY: 529683
L2C LOAD      ACCESS: 17470851  HIT: 425857  MISS: 17044994  HIT %: 2.43753  MISS %: 97.5625  AVERAGE MISS PENALTY: 599260
L2C RFO       ACCESS: 17369  HIT:  2873  MISS: 14496  HIT %: 16.541  MISS %: 83.459  AVERAGE MISS PENALTY: 325.867
L2C PREFETCH  ACCESS: 3944181  HIT: 1799581  MISS: 2144600  HIT %: 45.6262  MISS %: 54.3738  AVERAGE MISS PENALTY: 327.152
L2C WRITEBACK ACCESS: 552179  HIT: 470975  MISS: 81204  HIT %: 85.2939  MISS %: 14.7061  AVERAGE MISS PENALTY: 0


LLC0 TOTAL     ACCESS: 2438296  HIT: 1332161  MISS: 1106135  HIT %: 54.6349  MISS %: 45.3651  AVERAGE MISS PENALTY: 308.8
LLC0 LOAD      ACCESS: 2125494  HIT: 1252578  MISS: 872916  HIT %: 58.9311  MISS %: 41.0689  AVERAGE MISS PENALTY: 312.252
LLC0 RFO       ACCESS:  1813  HIT:    53  MISS:  1760  HIT %: 2.92333  MISS %: 97.0767  AVERAGE MISS PENALTY: 287.674
LLC0 PREFETCH  ACCESS: 242704  HIT: 18120  MISS: 224584  HIT %: 7.46588  MISS %: 92.5341  AVERAGE MISS PENALTY: 304.999
LLC0 WRITEBACK ACCESS: 68285  HIT: 61410  MISS:  6875  HIT %: 89.9319  MISS %: 10.0681  AVERAGE MISS PENALTY: 0

LLC1 TOTAL     ACCESS: 2481723  HIT: 1368867  MISS: 1112856  HIT %: 55.1579  MISS %: 44.8421  AVERAGE MISS PENALTY: 310.611
LLC1 LOAD      ACCESS: 2147079  HIT: 1287600  MISS: 859479  HIT %: 59.9698  MISS %: 40.0302  AVERAGE MISS PENALTY: 314.546
LLC1 RFO       ACCESS:  1805  HIT:    53  MISS:  1752  HIT %: 2.93629  MISS %: 97.0637  AVERAGE MISS PENALTY: 291.09
LLC1 PREFETCH  ACCESS: 264181  HIT: 18761  MISS: 245420  HIT %: 7.10157  MISS %: 92.8984  AVERAGE MISS PENALTY: 304.826
LLC1 WRITEBACK ACCESS: 68658  HIT: 62453  MISS:  6205  HIT %: 90.9625  MISS %: 9.03755  AVERAGE MISS PENALTY: 0

LLC2 TOTAL     ACCESS: 2448301  HIT: 1325043  MISS: 1123258  HIT %: 54.1209  MISS %: 45.8791  AVERAGE MISS PENALTY: 313.146
LLC2 LOAD      ACCESS: 2108593  HIT: 1243300  MISS: 865293  HIT %: 58.9635  MISS %: 41.0365  AVERAGE MISS PENALTY: 312.901
LLC2 RFO       ACCESS:  1799  HIT:    46  MISS:  1753  HIT %: 2.55698  MISS %: 97.443  AVERAGE MISS PENALTY: 299.472
LLC2 PREFETCH  ACCESS: 269390  HIT: 19281  MISS: 250109  HIT %: 7.15728  MISS %: 92.8427  AVERAGE MISS PENALTY: 321.728
LLC2 WRITEBACK ACCESS: 68519  HIT: 62416  MISS:  6103  HIT %: 91.093  MISS %: 8.90702  AVERAGE MISS PENALTY: 0

LLC3 TOTAL     ACCESS: 2449878  HIT: 1316790  MISS: 1133088  HIT %: 53.7492  MISS %: 46.2508  AVERAGE MISS PENALTY: 315.127
LLC3 LOAD      ACCESS: 2106574  HIT: 1234663  MISS: 871911  HIT %: 58.61  MISS %: 41.39  AVERAGE MISS PENALTY: 314.988
LLC3 RFO       ACCESS:  1815  HIT:    57  MISS:  1758  HIT %: 3.1405  MISS %: 96.8595  AVERAGE MISS PENALTY: 305.18
LLC3 PREFETCH  ACCESS: 272556  HIT: 19227  MISS: 253329  HIT %: 7.05433  MISS %: 92.9457  AVERAGE MISS PENALTY: 323.247
LLC3 WRITEBACK ACCESS: 68933  HIT: 62843  MISS:  6090  HIT %: 91.1653  MISS %: 8.83467  AVERAGE MISS PENALTY: 0

LLC4 TOTAL     ACCESS: 2487275  HIT: 1350295  MISS: 1136980  HIT %: 54.2881  MISS %: 45.7119  AVERAGE MISS PENALTY: 314.403
[...]
LLC1 AVERAGE MISS LATENCY: 308.968 cycles
LLC2 TOTAL     ACCESS: 2439721  HIT: 1310934  MISS: 1128787  HIT %: 53.7329  MISS %: 46.2671  AVERAGE MISS PENALTY: 311.842
LLC2 LOAD      ACCESS: 2100665  HIT: 1235061  MISS: 865604  HIT %: 58.7938  MISS %: 41.2062  AVERAGE MISS PENALTY: 313.151
LLC2 RFO       ACCESS:  1804  HIT:    51  MISS:  1753  HIT %: 2.82705  MISS %: 97.1729  AVERAGE MISS PENALTY: 303.594
LLC2 PREFETCH  ACCESS: 268791  HIT: 19181  MISS: 249610  HIT %: 7.13603  MISS %: 92.864  AVERAGE MISS PENALTY: 322.127
LLC2 WRITEBACK ACCESS: 68461  HIT: 56641  MISS: 11820  HIT %: 82.7347  MISS %: 17.2653  AVERAGE MISS PENALTY: 0
LLC2 PREFETCH  REQUESTED:     0  ISSUED:     0  USEFUL: 71985  USELESS: 1925887
 USEFUL LOAD PREFETCHES:      71985 PREFETCH ISSUED TO LOWER LEVEL:    1999386  ACCURACY: 3.60036
 TIMELY PREFETCHES:      71985 LATE PREFETCHES: 0 DROPPED PREFETCHES: 0
LLC2 AVERAGE MISS LATENCY: 311.842 cycles
LLC3 TOTAL     ACCESS: 2444213  HIT: 1305785  MISS: 1138428  HIT %: 53.4235  MISS %: 46.5765  AVERAGE MISS PENALTY: 313.583
LLC3 LOAD      ACCESS: 2101452  HIT: 1229827  MISS: 871625  HIT %: 58.5227  MISS %: 41.4773  AVERAGE MISS PENALTY: 315.037
LLC3 RFO       ACCESS:  1814  HIT:    53  MISS:  1761  HIT %: 2.92172  MISS %: 97.0783  AVERAGE MISS PENALTY: 310.774
LLC3 PREFETCH  ACCESS: 272066  HIT: 19162  MISS: 252904  HIT %: 7.04314  MISS %: 92.9569  AVERAGE MISS PENALTY: 323.644
LLC3 WRITEBACK ACCESS: 68881  HIT: 56743  MISS: 12138  HIT %: 82.3783  MISS %: 17.6217  AVERAGE MISS PENALTY: 0
LLC3 PREFETCH  REQUESTED:     0  ISSUED:     0  USEFUL: 72149  USELESS: 1951669
 USEFUL LOAD PREFETCHES:      72149 PREFETCH ISSUED TO LOWER LEVEL:    2025391  ACCURACY: 3.56223
 TIMELY PREFETCHES:      72149 LATE PREFETCHES: 0 DROPPED PREFETCHES: 0
LLC3 AVERAGE MISS LATENCY: 313.583 cycles
LLC4 TOTAL     ACCESS: 2482199  HIT: 1339664  MISS: 1142535  HIT %: 53.9709  MISS %: 46.0291  AVERAGE MISS PENALTY: 313.093
LLC4 LOAD      ACCESS: 2135752  HIT: 1263003  MISS: 872749  HIT %: 59.1362  MISS %: 40.8638  AVERAGE MISS PENALTY: 318.78
LLC4 RFO       ACCESS:  1814  HIT:    65  MISS:  1749  HIT %: 3.58324  MISS %: 96.4168  AVERAGE MISS PENALTY: 308.858
LLC4 PREFETCH  ACCESS: 275442  HIT: 19568  MISS: 255874  HIT %: 7.10422  MISS %: 92.8958  AVERAGE MISS PENALTY: 308.606
LLC4 WRITEBACK ACCESS: 69191  HIT: 57028  MISS: 12163  HIT %: 82.4211  MISS %: 17.5789  AVERAGE MISS PENALTY: 0
LLC4 PREFETCH  REQUESTED:     0  ISSUED:     0  USEFUL: 74543  USELESS: 1974508
 USEFUL LOAD PREFETCHES:      74543 PREFETCH ISSUED TO LOWER LEVEL:    2050630  ACCURACY: 3.63513
 TIMELY PREFETCHES:      74543 LATE PREFETCHES: 0 DROPPED PREFETCHES: 0
LLC4 AVERAGE MISS LATENCY: 313.093 cycles
LLC5 TOTAL     ACCESS: 2462911  HIT: 1319474  MISS: 1143437  HIT %: 53.5738  MISS %: 46.4262  AVERAGE MISS PENALTY: 313.305
LLC5 LOAD      ACCESS: 2115863  HIT: 1241978  MISS: 873885  HIT %: 58.6984  MISS %: 41.3016  AVERAGE MISS PENALTY: 319.259
LLC5 RFO       ACCESS:  1823  HIT:    67  MISS:  1756  HIT %: 3.67526  MISS %: 96.3247  AVERAGE MISS PENALTY: 302.286
LLC5 PREFETCH  ACCESS: 275593  HIT: 19877  MISS: 255716  HIT %: 7.21245  MISS %: 92.7876  AVERAGE MISS PENALTY: 307.837
LLC5 WRITEBACK ACCESS: 69632  HIT: 57552  MISS: 12080  HIT %: 82.6517  MISS %: 17.3483  AVERAGE MISS PENALTY: 0
LLC5 PREFETCH  REQUESTED:     0  ISSUED:     0  USEFUL: 75006  USELESS: 1973007
 USEFUL LOAD PREFETCHES:      75006 PREFETCH ISSUED TO LOWER LEVEL:    2049774  ACCURACY: 3.65923
 TIMELY PREFETCHES:      75006 LATE PREFETCHES: 0 DROPPED PREFETCHES: 0
LLC5 AVERAGE MISS LATENCY: 313.305 cycles
LLC6 TOTAL     ACCESS: 2459386  HIT: 1311576  MISS: 1147810  HIT %: 53.3294  MISS %: 46.6706  AVERAGE MISS PENALTY: 317.093
LLC6 LOAD      ACCESS: 2112687  HIT: 1234489  MISS: 878198  HIT %: 58.4322  MISS %: 41.5678  AVERAGE MISS PENALTY: 319.154
LLC6 RFO       ACCESS:  1825  HIT:    65  MISS:  1760  HIT %: 3.56164  MISS %: 96.4384  AVERAGE MISS PENALTY: 307.265
LLC6 PREFETCH  ACCESS: 276158  HIT: 20230  MISS: 255928  HIT %: 7.32552  MISS %: 92.6745  AVERAGE MISS PENALTY: 324.864
LLC6 WRITEBACK ACCESS: 68716  HIT: 56792  MISS: 11924  HIT %: 82.6474  MISS %: 17.3526  AVERAGE MISS PENALTY: 0
LLC6 PREFETCH  REQUESTED:     0  ISSUED:     0  USEFUL: 76013  USELESS: 1973197
 USEFUL LOAD PREFETCHES:      76013 PREFETCH ISSUED TO LOWER LEVEL:    2050940  ACCURACY: 3.70625
 TIMELY PREFETCHES:      76013 LATE PREFETCHES: 0 DROPPED PREFETCHES: 0
LLC6 AVERAGE MISS LATENCY: 317.093 cycles
LLC7 TOTAL     ACCESS: 2509416  HIT: 1365830  MISS: 1143586  HIT %: 54.4282  MISS %: 45.5718  AVERAGE MISS PENALTY: 317.669
LLC7 LOAD      ACCESS: 2162925  HIT: 1289082  MISS: 873843  HIT %: 59.599  MISS %: 40.401  AVERAGE MISS PENALTY: 319.831
LLC7 RFO       ACCESS:  1827  HIT:    70  MISS:  1757  HIT %: 3.83142  MISS %: 96.1686  AVERAGE MISS PENALTY: 309.731
LLC7 PREFETCH  ACCESS: 276083  HIT: 20143  MISS: 255940  HIT %: 7.29599  MISS %: 92.704  AVERAGE MISS PENALTY: 325.293
LLC7 WRITEBACK ACCESS: 68581  HIT: 56535  MISS: 12046  HIT %: 82.4354  MISS %: 17.5646  AVERAGE MISS PENALTY: 0
LLC7 PREFETCH  REQUESTED:     0  ISSUED:     0  USEFUL: 74560  USELESS: 1972659
 USEFUL LOAD PREFETCHES:      74560 PREFETCH ISSUED TO LOWER LEVEL:    2048722  ACCURACY: 3.63934
 TIMELY PREFETCHES:      74560 LATE PREFETCHES: 0 DROPPED PREFETCHES: 0
LLC7 AVERAGE MISS LATENCY: 317.669 cycles
ROI Average ROB Stall Cycles:	18.6031
ROI Total ROB Stalls Cycles:	1156049515
ROI TOTAL ROB counter      :	62142818
ROI Average Load ROB Stall Cycles:	166.312
ROI Total Load ROB Stalls Cycle  :	763700377
ROI Total Load ROB stalls Counter:	4591987
Major fault: 0 Minor fault: 37424

CPU 7 cumulative IPC: 0.168243 instructions: 200000002 cycles: 1188756529
ITLB TOTAL     ACCESS: 41006385  HIT: 41006385  MISS:     0  HIT %:   100  MISS %:     0  AVERAGE MISS PENALTY: 0
ITLB LOAD      ACCESS: 41006385  HIT: 41006385  MISS:     0  HIT %:   100  MISS %:     0  AVERAGE MISS PENALTY: 0
ITLB RFO       ACCESS:     0  HIT:     0  MISS:     0  HIT %:     0  MISS %:     0  AVERAGE MISS PENALTY: 0
ITLB PREFETCH  ACCESS:     0  HIT:     0  MISS:     0  HIT %:     0  MISS %:     0  AVERAGE MISS PENALTY: 0
ITLB WRITEBACK ACCESS:     0  HIT:     0  MISS:     0  HIT %:     0  MISS %:     0  AVERAGE MISS PENALTY: 0
ITLB PREFETCH  REQUESTED:     0  ISSUED:     0  USEFUL:     0  USELESS:     0
 USEFUL LOAD PREFETCHES:          0 PREFETCH ISSUED TO LOWER LEVEL:          0  ACCURACY: -nan
 TIMELY PREFETCHES:          0 LATE PREFETCHES: 0 DROPPED PREFETCHES: 0
ITLB AVERAGE MISS LATENCY: -nan cycles
DTLB TOTAL     ACCESS: 35117391  HIT: 20035235  MISS: 15082156  HIT %: 57.0522  MISS %: 42.9478  AVERAGE MISS PENALTY: 17.2149
DTLB LOAD      ACCESS: 34056762  HIT: 19475038  MISS: 14581724  HIT %: 57.1841  MISS %: 42.8159  AVERAGE MISS PENALTY: 15.1742
DTLB RFO       ACCESS: 1060629  HIT: 560197  MISS: 500432  HIT %: 52.8174  MISS %: 47.1826  AVERAGE MISS PENALTY: 76.6766
DTLB PREFETCH  ACCESS:     0  HIT:     0  MISS:     0  HIT %:     0  MISS %:     0  AVERAGE MISS PENALTY: 0
DTLB WRITEBACK ACCESS:     0  HIT:     0  MISS:     0  HIT %:     0  MISS %:     0  AVERAGE MISS PENALTY: 0
DTLB PREFETCH  REQUESTED:     0  ISSUED:     0  USEFUL:     0  USELESS:     0
 USEFUL LOAD PREFETCHES:          0 PREFETCH ISSUED TO LOWER LEVEL:          0  ACCURACY: -nan
 TIMELY PREFETCHES:          0 LATE PREFETCHES: 0 DROPPED PREFETCHES: 0
DTLB AVERAGE MISS LATENCY: 17.2149 cycles
STLB TOTAL     ACCESS: 15082156  HIT: 14350351  MISS: 731805  HIT %: 95.1479  MISS %: 4.85212  AVERAGE MISS PENALTY: 100
STLB LOAD      ACCESS: 14581724  HIT: 14140309  MISS: 441415  HIT %: 96.9728  MISS %: 3.02718  AVERAGE MISS PENALTY: 100
STLB RFO       ACCESS: 500432  HIT: 210042  MISS: 290390  HIT %: 41.9721  MISS %: 58.0279  AVERAGE MISS PENALTY: 100
STLB PREFETCH  ACCESS:     0  HIT:     0  MISS:     0  HIT %:     0  MISS %:     0  AVERAGE MISS PENALTY: 0
STLB WRITEBACK ACCESS:     0  HIT:     0  MISS:     0  HIT %:     0  MISS %:     0  AVERAGE MISS PENALTY: 0
STLB PREFETCH  REQUESTED:     0  ISSUED:     0  USEFUL:     0  USELESS:     0
 USEFUL LOAD PREFETCHES:          0 PREFETCH ISSUED TO LOWER LEVEL:          0  ACCURACY: -nan
 TIMELY PREFETCHES:          0 LATE PREFETCHES: 0 DROPPED PREFETCHES: 0
STLB AVERAGE MISS LATENCY: 100 cycles
L1D TOTAL     ACCESS: 35143633  HIT: 16059221  MISS: 19084412  HIT %: 45.696  MISS %: 54.304  AVERAGE MISS PENALTY: 1.05562e+06
L1D LOAD      ACCESS: 31537795  HIT: 14086512  MISS: 17451283  HIT %: 44.6655  MISS %: 55.3345  AVERAGE MISS PENALTY: 1.15439e+06
L1D RFO       ACCESS: 1062877  HIT: 1045519  MISS: 17358  HIT %: 98.3669  MISS %: 1.63311  AVERAGE MISS PENALTY: 293.794
L1D PREFETCH  ACCESS: 2542961  HIT: 927190  MISS: 1615771  HIT %: 36.461  MISS %: 63.539  AVERAGE MISS PENALTY: 141.256
L1D WRITEBACK ACCESS:     0  HIT:     0  MISS:     0  HIT %:     0  MISS %:     0  AVERAGE MISS PENALTY: 0
L1D PREFETCH  REQUESTED: 2690968  ISSUED: 2690930  USEFUL: 938445  USELESS: 677336
 USEFUL LOAD PREFETCHES:     938445 PREFETCH ISSUED TO LOWER LEVEL:    2038145  ACCURACY: 46.0441
 TIMELY PREFETCHES:     938445 LATE PREFETCHES: 70987 DROPPED PREFETCHES: 38
L1D AVERAGE MISS LATENCY: 174.062 cycles
L1I TOTAL     ACCESS: 64981612  HIT: 64981612  MISS:     0  HIT %:   100  MISS %:     0  AVERAGE MISS PENALTY: 0
L1I LOAD      ACCESS: 64981612  HIT: 64981612  MISS:     0  HIT %:   100  MISS %:     0  AVERAGE MISS PENALTY: 0
L1I RFO       ACCESS:     0  HIT:     0  MISS:     0  HIT %:     0  MISS %:     0  AVERAGE MISS PENALTY: 0
L1I PREFETCH  ACCESS:     0  HIT:     0  MISS:     0  HIT %:     0  MISS %:     0  AVERAGE MISS PENALTY: 0
L1I WRITEBACK ACCESS:     0  HIT:     0  MISS:     0  HIT %:     0  MISS %:     0  AVERAGE MISS PENALTY: 0
L1I PREFETCH  REQUESTED:     0  ISSUED:     0  USEFUL:     0  USELESS:     0
 USEFUL LOAD PREFETCHES:          0 PREFETCH ISSUED TO LOWER LEVEL:          0  ACCURACY: -nan
 TIMELY PREFETCHES:          0 LATE PREFETCHES: 0 DROPPED PREFETCHES: 0
L1I AVERAGE MISS LATENCY: -nan cycles
L2C TOTAL     ACCESS: 21960668  HIT: 2830777  MISS: 19129891  HIT %: 12.8902  MISS %: 87.1098  AVERAGE MISS PENALTY: 539188
L2C LOAD      ACCESS: 17450693  HIT: 485436  MISS: 16965257  HIT %: 2.78176  MISS %: 97.2182  AVERAGE MISS PENALTY: 607943
L2C RFO       ACCESS: 17358  HIT:  3107  MISS: 14251  HIT %: 17.8995  MISS %: 82.1005  AVERAGE MISS PENALTY: 338.536
L2C PREFETCH  ACCESS: 3940963  HIT: 1803457  MISS: 2137506  HIT %: 45.7618  MISS %: 54.2382  AVERAGE MISS PENALTY: 327.603
L2C WRITEBACK ACCESS: 551654  HIT: 538777  MISS: 12877  HIT %: 97.6657  MISS %: 2.33425  AVERAGE MISS PENALTY: 0
L2C PREFETCH  REQUESTED: 3298632  ISSUED: 3298046  USEFUL: 60926  USELESS: 2079042
 USEFUL LOAD PREFETCHES:      60926 PREFETCH ISSUED TO LOWER LEVEL:    2326921  ACCURACY: 2.61831
 TIMELY PREFETCHES:      60926 LATE PREFETCHES: 92471 DROPPED PREFETCHES: 586
L2C AVERAGE MISS LATENCY: 183.368 cycles
LLC0 TOTAL     ACCESS: 2428219  HIT: 1299407  MISS: 1128812  HIT %: 53.5128  MISS %: 46.4872  AVERAGE MISS PENALTY: 304.025
LLC0 LOAD      ACCESS: 2116767  HIT: 1239531  MISS: 877236  HIT %: 58.5577  MISS %: 41.4423  AVERAGE MISS PENALTY: 312.695
LLC0 RFO       ACCESS:  1783  HIT:    29  MISS:  1754  HIT %: 1.62647  MISS %: 98.3735  AVERAGE MISS PENALTY: 296.936
LLC0 PREFETCH  ACCESS: 242017  HIT: 17663  MISS: 224354  HIT %: 7.29825  MISS %: 92.7018  AVERAGE MISS PENALTY: 304.69
LLC0 WRITEBACK ACCESS: 67652  HIT: 42184  MISS: 25468  HIT %: 62.3544  MISS %: 37.6456  AVERAGE MISS PENALTY: 0
LLC0 PREFETCH  REQUESTED:     0  ISSUED:     0  USEFUL: 66819  USELESS: 1728205
 USEFUL LOAD PREFETCHES:      66819 PREFETCH ISSUED TO LOWER LEVEL:    1796613  ACCURACY: 3.71916
 TIMELY PREFETCHES:      66819 LATE PREFETCHES: 0 DROPPED PREFETCHES: 0
LLC0 AVERAGE MISS LATENCY: 304.025 cycles
Deadblocks : 4834189 Deadblock percentage : 551.071

LLC1 TOTAL     ACCESS: 2470457  HIT: 1335233  MISS: 1135224  HIT %: 54.048  MISS %: 45.952  AVERAGE MISS PENALTY: 305.687
LLC1 LOAD      ACCESS: 2137195  HIT: 1273965  MISS: 863230  HIT %: 59.6092  MISS %: 40.3908  AVERAGE MISS PENALTY: 314.903
LLC1 RFO       ACCESS:  1772  HIT:    27  MISS:  1745  HIT %: 1.5237  MISS %: 98.4763  AVERAGE MISS PENALTY: 303.212
LLC1 PREFETCH  ACCESS: 263428  HIT: 18262  MISS: 245166  HIT %: 6.93244  MISS %: 93.0676  AVERAGE MISS PENALTY: 304.529
LLC1 WRITEBACK ACCESS: 68062  HIT: 42979  MISS: 25083  HIT %: 63.1468  MISS %: 36.8532  AVERAGE MISS PENALTY: 0
LLC1 PREFETCH  REQUESTED:     0  ISSUED:     0  USEFUL: 69877  USELESS: 1891978
 USEFUL LOAD PREFETCHES:      69877 PREFETCH ISSUED TO LOWER LEVEL:    1963361  ACCURACY: 3.55905
 TIMELY PREFETCHES:      69877 LATE PREFETCHES: 0 DROPPED PREFETCHES: 0
LLC1 AVERAGE MISS LATENCY: 305.687 cycles
LLC2 TOTAL     ACCESS: 2434502  HIT: 1288789  MISS: 1145713  HIT %: 52.9385  MISS %: 47.0615  AVERAGE MISS PENALTY: 308.474
LLC2 LOAD      ACCESS: 2096348  HIT: 1226952  MISS: 869396  HIT %: 58.5281  MISS %: 41.4719  AVERAGE MISS PENALTY: 313.359
LLC2 RFO       ACCESS:  1782  HIT:    34  MISS:  1748  HIT %: 1.90797  MISS %: 98.092  AVERAGE MISS PENALTY: 310.045
LLC2 PREFETCH  ACCESS: 268377  HIT: 18700  MISS: 249677  HIT %: 6.96781  MISS %: 93.0322  AVERAGE MISS PENALTY: 322.207
LLC2 WRITEBACK ACCESS: 67995  HIT: 43103  MISS: 24892  HIT %: 63.3914  MISS %: 36.6086  AVERAGE MISS PENALTY: 0
LLC2 PREFETCH  REQUESTED:     0  ISSUED:     0  USEFUL: 71985  USELESS: 1925887
 USEFUL LOAD PREFETCHES:      71985 PREFETCH ISSUED TO LOWER LEVEL:    1999386  ACCURACY: 3.60036
 TIMELY PREFETCHES:      71985 LATE PREFETCHES: 0 DROPPED PREFETCHES: 0
LLC2 AVERAGE MISS LATENCY: 308.474 cycles
LLC3 TOTAL     ACCESS: 2438574  HIT: 1282953  MISS: 1155621  HIT %: 52.6108  MISS %: 47.3892  AVERAGE MISS PENALTY: 310.195
LLC3 LOAD      ACCESS: 2096741  HIT: 1220986  MISS: 875755  HIT %: 58.2326  MISS %: 41.7674  AVERAGE MISS PENALTY: 315.374
LLC3 RFO       ACCESS:  1783  HIT:    25  MISS:  1758  HIT %: 1.40213  MISS %: 98.5979  AVERAGE MISS PENALTY: 313.789
LLC3 PREFETCH  ACCESS: 271667  HIT: 18687  MISS: 252980  HIT %: 6.87864  MISS %: 93.1214  AVERAGE MISS PENALTY: 323.051
LLC3 WRITEBACK ACCESS: 68383  HIT: 43255  MISS: 25128  HIT %: 63.254  MISS %: 36.746  AVERAGE MISS PENALTY: 0
LLC3 PREFETCH  REQUESTED:     0  ISSUED:     0  USEFUL: 72149  USELESS: 1951669
 USEFUL LOAD PREFETCHES:      72149 PREFETCH ISSUED TO LOWER LEVEL:    2025391  ACCURACY: 3.56223
 TIMELY PREFETCHES:      72149 LATE PREFETCHES: 0 DROPPED PREFETCHES: 0
LLC3 AVERAGE MISS LATENCY: 310.195 cycles
LLC4 TOTAL     ACCESS: 2476675  HIT: 1316957  MISS: 1159718  HIT %: 53.1744  MISS %: 46.8256  AVERAGE MISS PENALTY: 309.349
LLC4 LOAD      ACCESS: 2131085  HIT: 1254287  MISS: 876798  HIT %: 58.8567  MISS %: 41.1433  AVERAGE MISS PENALTY: 318.481
LLC4 RFO       ACCESS:  1780  HIT:    24  MISS:  1756  HIT %: 1.34831  MISS %: 98.6517  AVERAGE MISS PENALTY: 301.204
LLC4 PREFETCH  ACCESS: 275161  HIT: 19024  MISS: 256137  HIT %: 6.91377  MISS %: 93.0862  AVERAGE MISS PENALTY: 308.37
LLC4 WRITEBACK ACCESS: 68649  HIT: 43622  MISS: 25027  HIT %: 63.5435  MISS %: 36.4565  AVERAGE MISS PENALTY: 0
LLC4 PREFETCH  REQUESTED:     0  ISSUED:     0  USEFUL: 74543  USELESS: 1974508
 USEFUL LOAD PREFETCHES:      74543 PREFETCH ISSUED TO LOWER LEVEL:    2050630  ACCURACY: 3.63513
 TIMELY PREFETCHES:      74543 LATE PREFETCHES: 0 DROPPED PREFETCHES: 0
LLC4 AVERAGE MISS LATENCY: 309.349 cycles
LLC5 TOTAL     ACCESS: 2457399  HIT: 1297670  MISS: 1159729  HIT %: 52.8066  MISS %: 47.1934  AVERAGE MISS PENALTY: 310.055
LLC5 LOAD      ACCESS: 2111246  HIT: 1234305  MISS: 876941  HIT %: 58.4633  MISS %: 41.5367  AVERAGE MISS PENALTY: 319.348
LLC5 RFO       ACCESS:  1784  HIT:    28  MISS:  1756  HIT %: 1.56951  MISS %: 98.4305  AVERAGE MISS PENALTY: 300.143
LLC5 PREFETCH  ACCESS: 275304  HIT: 19336  MISS: 255968  HIT %: 7.02351  MISS %: 92.9765  AVERAGE MISS PENALTY: 308.646
LLC5 WRITEBACK ACCESS: 69065  HIT: 44001  MISS: 25064  HIT %: 63.7095  MISS %: 36.2905  AVERAGE MISS PENALTY: 0
LLC5 PREFETCH  REQUESTED:     0  ISSUED:     0  USEFUL: 75006  USELESS: 1973007
 USEFUL LOAD PREFETCHES:      75006 PREFETCH ISSUED TO LOWER LEVEL:    2049774  ACCURACY: 3.65923
 TIMELY PREFETCHES:      75006 LATE PREFETCHES: 0 DROPPED PREFETCHES: 0
LLC5 AVERAGE MISS LATENCY: 310.055 cycles
LLC6 TOTAL     ACCESS: 2453811  HIT: 1288431  MISS: 1165380  HIT %: 52.5073  MISS %: 47.4927  AVERAGE MISS PENALTY: 313.551
LLC6 LOAD      ACCESS: 2108129  HIT: 1225730  MISS: 882399  HIT %: 58.143  MISS %: 41.857  AVERAGE MISS PENALTY: 319.308
LLC6 RFO       ACCESS:  1783  HIT:    25  MISS:  1758  HIT %: 1.40213  MISS %: 98.5979  AVERAGE MISS PENALTY: 310.274
LLC6 PREFETCH  ACCESS: 275706  HIT: 19618  MISS: 256088  HIT %: 7.11555  MISS %: 92.8844  AVERAGE MISS PENALTY: 324.511
LLC6 WRITEBACK ACCESS: 68193  HIT: 43058  MISS: 25135  HIT %: 63.1414  MISS %: 36.8586  AVERAGE MISS PENALTY: 0
LLC6 PREFETCH  REQUESTED:     0  ISSUED:     0  USEFUL: 76013  USELESS: 1973197
 USEFUL LOAD PREFETCHES:      76013 PREFETCH ISSUED TO LOWER LEVEL:    2050940  ACCURACY: 3.70625
 TIMELY PREFETCHES:      76013 LATE PREFETCHES: 0 DROPPED PREFETCHES: 0
LLC6 AVERAGE MISS LATENCY: 313.551 cycles
LLC7 TOTAL     ACCESS: 2503424  HIT: 1341779  MISS: 1161645  HIT %: 53.5978  MISS %: 46.4022  AVERAGE MISS PENALTY: 313.943
LLC7 LOAD      ACCESS: 2158109  HIT: 1278979  MISS: 879130  HIT %: 59.2639  MISS %: 40.7361  AVERAGE MISS PENALTY: 319.49
LLC7 RFO       ACCESS:  1784  HIT:    23  MISS:  1761  HIT %: 1.28924  MISS %: 98.7108  AVERAGE MISS PENALTY: 317.659
LLC7 PREFETCH  ACCESS: 275483  HIT: 19826  MISS: 255657  HIT %: 7.19681  MISS %: 92.8032  AVERAGE MISS PENALTY: 325.663
LLC7 WRITEBACK ACCESS: 68048  HIT: 42951  MISS: 25097  HIT %: 63.1187  MISS %: 36.8813  AVERAGE MISS PENALTY: 0
LLC7 PREFETCH  REQUESTED:     0  ISSUED:     0  USEFUL: 74560  USELESS: 1972659
 USEFUL LOAD PREFETCHES:      74560 PREFETCH ISSUED TO LOWER LEVEL:    2048722  ACCURACY: 3.63934
 TIMELY PREFETCHES:      74560 LATE PREFETCHES: 0 DROPPED PREFETCHES: 0
LLC7 AVERAGE MISS LATENCY: 313.943 cycles
ROI Average ROB Stall Cycles:	18.5989
ROI Total ROB Stalls Cycles:	1157035965
ROI TOTAL ROB counter      :	62209968
ROI Average Load ROB Stall Cycles:	166.108
ROI Total Load ROB Stalls Cycle  :	764671763
ROI Total Load ROB stalls Counter:	4603460
Major fault: 0 Minor fault: 37424








Interconnect Stats 
LINK 0 BW : 0LINK 1 BW : 0LINK 2 BW : 0LINK 3 BW : 0LINK 4 BW : 0LINK 5 BW : 0LINK 6 BW : 0LINK 7 BW : 0
DRAM Statistics
 CHANNEL 0
 RQ ROW_BUFFER_HIT: 2461958  ROW_BUFFER_MISS: 33478485
 DBUS_CONGESTED: 18927483
 WQ ROW_BUFFER_HIT: 73094  ROW_BUFFER_MISS: 2091294  FULL:     0

 CHANNEL 1
 RQ ROW_BUFFER_HIT: 2481892  ROW_BUFFER_MISS: 33562285
 DBUS_CONGESTED: 18927483
 WQ ROW_BUFFER_HIT: 73974  ROW_BUFFER_MISS: 2099400  FULL:     0

 AVG_CONGESTED_CYCLE: 5
DRAM PAGES: 2097152
Allocated PAGES: 299392
L2C destructor called
L1D destructor called
L1I destructor called
STLB destructor called
DTLB destructor called
ITLB destructor called
L2C destructor called
L1D destructor called
L1I destructor called
STLB destructor called
DTLB destructor called
ITLB destructor called
L2C destructor called
L1D destructor called
L1I destructor called
STLB destructor called
DTLB destructor called
ITLB destructor called
L2C destructor called
L1D destructor called
L1I destructor called
STLB destructor called
DTLB destructor called
ITLB destructor called
L2C destructor called
L1D destructor called
L1I destructor called
STLB destructor called
DTLB destructor called
ITLB destructor called
L2C destructor called
L1D destructor called
L1I destructor called
STLB destructor called
DTLB destructor called
ITLB destructor called
L2C destructor called
L1D destructor called
L1I destructor called
STLB destructor called
DTLB destructor called
ITLB destructor called
L2C destructor called
L1D destructor called
L1I destructor called
STLB destructor called
DTLB destructor called
ITLB destructor called
