
*** ChampSim Multicore Out-of-Order Simulator ***

Warmup Instructions: 200000000
Simulation Instructions: 200000000
Number of CPUs: 8
threads:1

L1I Configuration:
L1I_SET:64
L1I_WAY:8
L1I_RQ_SIZE:64
L1I_WQ_SIZE:64
L1I_PQ_SIZE:8
L1I_MSHR_SIZE:8

L1D Configuration:
L1D_SET:64
L1D_WAY:12
L1D_RQ_SIZE:64
L1D_WQ_SIZE:64
L1D_PQ_SIZE:8
L1D_MSHR_SIZE:16

L2C Configuration:
L2C_SET:1024
L2C_WAY:8
L2C_RQ_SIZE:32
L2C_WQ_SIZE:32
L2C_PQ_SIZE:16
L2C_MSHR_SIZE:32

LLC Configuration:
LLC_SET:2048
LLC_WAY:16
LLC SLICES:8
LLC_RQ_SIZE:64
LLC_WQ_SIZE:64
LLC_PQ_SIZE:32
LLC_MSHR_SIZE:64

Interconnect OFF
Attacker deprioritize is: OFF
Off-chip DRAM Size: 8192 MB Channels: 2 Width: 64-bit Data Rate: 3200 MT/s
PAGE SIZE in KB: 4.000000 
PAGE SIZE in MB: 0.003906 
PAGE offset in bits: 12 
CEASER-S_LLC:0
MIRAGE : 0
CEASER_LATENCY:3
REMAP : OFF
Partitions : 1
Multi-Step : OFF
BFS : OFF

CPU 0 runs /home/anubhav/gap/bfs-3.trace.gz
CPU 1 runs /home/anubhav/gap/bfs-3.trace.gz
CPU 2 runs /home/anubhav/gap/bfs-3.trace.gz
CPU 3 runs /home/anubhav/gap/bfs-3.trace.gz
CPU 4 runs /home/anubhav/gap/bfs-3.trace.gz
CPU 5 runs /home/anubhav/gap/bfs-3.trace.gz
CPU 6 runs /home/anubhav/gap/bfs-3.trace.gz
CPU 7 runs /home/anubhav/gap/bfs-3.trace.gz
CPU 0 Bimodal branch predictor
Initialize Hawkeye state
Initialize Hawkeye state
Initialize Hawkeye state
Initialize Hawkeye state
Initialize Hawkeye state
Initialize Hawkeye state
Initialize Hawkeye state
Initialize Hawkeye state
CPU 1 Bimodal branch predictor
Initialize Hawkeye state
Initialize Hawkeye state
Initialize Hawkeye state
Initialize Hawkeye state
Initialize Hawkeye state
Initialize Hawkeye state
Initialize Hawkeye state
Initialize Hawkeye state
CPU 2 Bimodal branch predictor
Initialize Hawkeye state
Initialize Hawkeye state
Initialize Hawkeye state
Initialize Hawkeye state
Initialize Hawkeye state
Initialize Hawkeye state
Initialize Hawkeye state
Initialize Hawkeye state
CPU 3 Bimodal branch predictor
Initialize Hawkeye state
Initialize Hawkeye state
Initialize Hawkeye state
Initialize Hawkeye state
Initialize Hawkeye state
Initialize Hawkeye state
Initialize Hawkeye state
Initialize Hawkeye state
CPU 4 Bimodal branch predictor
Initialize Hawkeye state
Initialize Hawkeye state
Initialize Hawkeye state
Initialize Hawkeye state
Initialize Hawkeye state
Initialize Hawkeye state
Initialize Hawkeye state
Initialize Hawkeye state
CPU 5 Bimodal branch predictor
Initialize Hawkeye state
Initialize Hawkeye state
Initialize Hawkeye state
Initialize Hawkeye state
Initialize Hawkeye state
Initialize Hawkeye state
Initialize Hawkeye state
Initialize Hawkeye state
CPU 6 Bimodal branch predictor
Initialize Hawkeye state
Initialize Hawkeye state
Initialize Hawkeye state
Initialize Hawkeye state
Initialize Hawkeye state
Initialize Hawkeye state
Initialize Hawkeye state
Initialize Hawkeye state
CPU 7 Bimodal branch predictor
Initialize Hawkeye state
Initialize Hawkeye state
Initialize Hawkeye state
Initialize Hawkeye state
Initialize Hawkeye state
Initialize Hawkeye state
Initialize Hawkeye state
Initialize Hawkeye state
Heartbeat CPU 0 instructions: 10000003 cycles: 14677576 heartbeat IPC: 0.681312 cumulative IPC: 0.681312 (Simulation time: 0 hr 11 min 53 sec) 
 Total Blocks : 262144 Invalid Blocks : 7432
Heartbeat CPU 1 instructions: 10000003 cycles: 14677582 heartbeat IPC: 0.681311 cumulative IPC: 0.681311 (Simulation time: 0 hr 11 min 53 sec) 
 Total Blocks : 262144 Invalid Blocks : 7432
Heartbeat CPU 2 instructions: 10000003 cycles: 14677588 heartbeat IPC: 0.681311 cumulative IPC: 0.681311 (Simulation time: 0 hr 11 min 53 sec) 
 Total Blocks : 262144 Invalid Blocks : 7432
Heartbeat CPU 3 instructions: 10000003 cycles: 14677591 heartbeat IPC: 0.681311 cumulative IPC: 0.681311 (Simulation time: 0 hr 11 min 53 sec) 
 Total Blocks : 262144 Invalid Blocks : 7432
Heartbeat CPU 4 instructions: 10000003 cycles: 14677595 heartbeat IPC: 0.681311 cumulative IPC: 0.681311 (Simulation time: 0 hr 11 min 53 sec) 
 Total Blocks : 262144 Invalid Blocks : 7432
Heartbeat CPU 5 instructions: 10000003 cycles: 14677598 heartbeat IPC: 0.681311 cumulative IPC: 0.681311 (Simulation time: 0 hr 11 min 53 sec) 
 Total Blocks : 262144 Invalid Blocks : 7432
Heartbeat CPU 6 instructions: 10000003 cycles: 14677601 heartbeat IPC: 0.68131 cumulative IPC: 0.68131 (Simulation time: 0 hr 11 min 53 sec) 
 Total Blocks : 262144 Invalid Blocks : 7432
Heartbeat CPU 7 instructions: 10000003 cycles: 14677604 heartbeat IPC: 0.68131 cumulative IPC: 0.68131 (Simulation time: 0 hr 11 min 53 sec) 
 Total Blocks : 262144 Invalid Blocks : 7432
Heartbeat CPU 6 instructions: 20000002 cycles: 27836442 heartbeat IPC: 0.759945 cumulative IPC: 0.718483 (Simulation time: 1 hr 1 min 2 sec) 
 Total Blocks : 262144 Invalid Blocks : 955
Heartbeat CPU 7 instructions: 20000002 cycles: 27836487 heartbeat IPC: 0.759943 cumulative IPC: 0.718482 (Simulation time: 1 hr 1 min 2 sec) 
 Total Blocks : 262144 Invalid Blocks : 955
Heartbeat CPU 3 instructions: 20000002 cycles: 27847893 heartbeat IPC: 0.759284 cumulative IPC: 0.718187 (Simulation time: 1 hr 1 min 6 sec) 
 Total Blocks : 262144 Invalid Blocks : 955
Heartbeat CPU 0 instructions: 20000002 cycles: 27847919 heartbeat IPC: 0.759282 cumulative IPC: 0.718187 (Simulation time: 1 hr 1 min 6 sec) 
 Total Blocks : 262144 Invalid Blocks : 955
Heartbeat CPU 1 instructions: 20000002 cycles: 27847930 heartbeat IPC: 0.759281 cumulative IPC: 0.718186 (Simulation time: 1 hr 1 min 6 sec) 
 Total Blocks : 262144 Invalid Blocks : 955
Heartbeat CPU 2 instructions: 20000002 cycles: 27848288 heartbeat IPC: 0.759261 cumulative IPC: 0.718177 (Simulation time: 1 hr 1 min 6 sec) 
 Total Blocks : 262144 Invalid Blocks : 955
Heartbeat CPU 4 instructions: 20000002 cycles: 27848599 heartbeat IPC: 0.759243 cumulative IPC: 0.718169 (Simulation time: 1 hr 1 min 6 sec) 
 Total Blocks : 262144 Invalid Blocks : 955
Heartbeat CPU 5 instructions: 20000002 cycles: 27848600 heartbeat IPC: 0.759244 cumulative IPC: 0.718169 (Simulation time: 1 hr 1 min 6 sec) 
 Total Blocks : 262144 Invalid Blocks : 955
Heartbeat CPU 6 instructions: 30000000 cycles: 41086185 heartbeat IPC: 0.754731 cumulative IPC: 0.730172 (Simulation time: 2 hr 34 min 45 sec) 
 Total Blocks : 262144 Invalid Blocks : 529
Heartbeat CPU 7 instructions: 30000000 cycles: 41086195 heartbeat IPC: 0.754733 cumulative IPC: 0.730172 (Simulation time: 2 hr 34 min 45 sec) 
 Total Blocks : 262144 Invalid Blocks : 529
Heartbeat CPU 3 instructions: 30000000 cycles: 41108772 heartbeat IPC: 0.754098 cumulative IPC: 0.729771 (Simulation time: 2 hr 34 min 59 sec) 
 Total Blocks : 262144 Invalid Blocks : 529
Heartbeat CPU 0 instructions: 30000000 cycles: 41108850 heartbeat IPC: 0.754095 cumulative IPC: 0.72977 (Simulation time: 2 hr 34 min 59 sec) 
 Total Blocks : 262144 Invalid Blocks : 529
Heartbeat CPU 1 instructions: 30000000 cycles: 41109452 heartbeat IPC: 0.754061 cumulative IPC: 0.729759 (Simulation time: 2 hr 34 min 59 sec) 
 Total Blocks : 262144 Invalid Blocks : 529
Heartbeat CPU 2 instructions: 30000000 cycles: 41109459 heartbeat IPC: 0.754081 cumulative IPC: 0.729759 (Simulation time: 2 hr 34 min 59 sec) 
 Total Blocks : 262144 Invalid Blocks : 529
Heartbeat CPU 4 instructions: 30000000 cycles: 41111192 heartbeat IPC: 0.754 cumulative IPC: 0.729728 (Simulation time: 2 hr 35 min 0 sec) 
 Total Blocks : 262144 Invalid Blocks : 529
Heartbeat CPU 5 instructions: 30000000 cycles: 41111296 heartbeat IPC: 0.753994 cumulative IPC: 0.729726 (Simulation time: 2 hr 35 min 0 sec) 
 Total Blocks : 262144 Invalid Blocks : 529
Heartbeat CPU 6 instructions: 40000000 cycles: 54324936 heartbeat IPC: 0.755358 cumulative IPC: 0.73631 (Simulation time: 4 hr 48 min 27 sec) 
 Total Blocks : 262144 Invalid Blocks : 356
Heartbeat CPU 7 instructions: 40000000 cycles: 54324966 heartbeat IPC: 0.755357 cumulative IPC: 0.73631 (Simulation time: 4 hr 48 min 27 sec) 
 Total Blocks : 262144 Invalid Blocks : 356
Heartbeat CPU 0 instructions: 40000000 cycles: 54359658 heartbeat IPC: 0.754671 cumulative IPC: 0.73584 (Simulation time: 4 hr 48 min 46 sec) 
 Total Blocks : 262144 Invalid Blocks : 356
Heartbeat CPU 2 instructions: 40000000 cycles: 54359680 heartbeat IPC: 0.754704 cumulative IPC: 0.735839 (Simulation time: 4 hr 48 min 46 sec) 
 Total Blocks : 262144 Invalid Blocks : 356
Heartbeat CPU 1 instructions: 40000000 cycles: 54359692 heartbeat IPC: 0.754703 cumulative IPC: 0.735839 (Simulation time: 4 hr 48 min 46 sec) 
 Total Blocks : 262144 Invalid Blocks : 356
Heartbeat CPU 3 instructions: 40000000 cycles: 54359742 heartbeat IPC: 0.754662 cumulative IPC: 0.735839 (Simulation time: 4 hr 48 min 46 sec) 
 Total Blocks : 262144 Invalid Blocks : 356
Heartbeat CPU 4 instructions: 40000000 cycles: 54362993 heartbeat IPC: 0.754614 cumulative IPC: 0.735795 (Simulation time: 4 hr 48 min 47 sec) 
 Total Blocks : 262144 Invalid Blocks : 356
Heartbeat CPU 5 instructions: 40000000 cycles: 54363217 heartbeat IPC: 0.754608 cumulative IPC: 0.735792 (Simulation time: 4 hr 48 min 47 sec) 
 Total Blocks : 262144 Invalid Blocks : 356
Heartbeat CPU 6 instructions: 50000000 cycles: 69869596 heartbeat IPC: 0.643308 cumulative IPC: 0.715619 (Simulation time: 6 hr 4 min 43 sec) 
 Total Blocks : 262144 Invalid Blocks : 8
Heartbeat CPU 7 instructions: 50000000 cycles: 69869784 heartbeat IPC: 0.643301 cumulative IPC: 0.715617 (Simulation time: 6 hr 4 min 43 sec) 
 Total Blocks : 262144 Invalid Blocks : 8
Heartbeat CPU 0 instructions: 50000000 cycles: 69909403 heartbeat IPC: 0.643097 cumulative IPC: 0.715211 (Simulation time: 6 hr 4 min 44 sec) 
 Total Blocks : 262144 Invalid Blocks : 8
Heartbeat CPU 1 instructions: 50000000 cycles: 69909445 heartbeat IPC: 0.643097 cumulative IPC: 0.715211 (Simulation time: 6 hr 4 min 44 sec) 
 Total Blocks : 262144 Invalid Blocks : 8
Heartbeat CPU 2 instructions: 50000000 cycles: 69909538 heartbeat IPC: 0.643093 cumulative IPC: 0.71521 (Simulation time: 6 hr 4 min 44 sec) 
 Total Blocks : 262144 Invalid Blocks : 8
Heartbeat CPU 3 instructions: 50000000 cycles: 69909742 heartbeat IPC: 0.643087 cumulative IPC: 0.715208 (Simulation time: 6 hr 4 min 44 sec) 
 Total Blocks : 262144 Invalid Blocks : 8
Heartbeat CPU 4 instructions: 50000000 cycles: 69913327 heartbeat IPC: 0.643073 cumulative IPC: 0.715171 (Simulation time: 6 hr 4 min 44 sec) 
 Total Blocks : 262144 Invalid Blocks : 8
Heartbeat CPU 5 instructions: 50000000 cycles: 69913931 heartbeat IPC: 0.643057 cumulative IPC: 0.715165 (Simulation time: 6 hr 4 min 44 sec) 
 Total Blocks : 262144 Invalid Blocks : 8
Heartbeat CPU 6 instructions: 60000002 cycles: 87486399 heartbeat IPC: 0.56764 cumulative IPC: 0.685821 (Simulation time: 6 hr 10 min 32 sec) 
 Total Blocks : 262144 Invalid Blocks : 0
Heartbeat CPU 7 instructions: 60000002 cycles: 87486633 heartbeat IPC: 0.567639 cumulative IPC: 0.685819 (Simulation time: 6 hr 10 min 32 sec) 
 Total Blocks : 262144 Invalid Blocks : 0
Heartbeat CPU 2 instructions: 60000002 cycles: 87525283 heartbeat IPC: 0.567674 cumulative IPC: 0.685516 (Simulation time: 6 hr 10 min 33 sec) 
 Total Blocks : 262144 Invalid Blocks : 0
Heartbeat CPU 0 instructions: 60000002 cycles: 87525452 heartbeat IPC: 0.567664 cumulative IPC: 0.685515 (Simulation time: 6 hr 10 min 33 sec) 
 Total Blocks : 262144 Invalid Blocks : 0
Heartbeat CPU 1 instructions: 60000002 cycles: 87525469 heartbeat IPC: 0.567665 cumulative IPC: 0.685515 (Simulation time: 6 hr 10 min 33 sec) 
 Total Blocks : 262144 Invalid Blocks : 0
Heartbeat CPU 3 instructions: 60000002 cycles: 87525918 heartbeat IPC: 0.56766 cumulative IPC: 0.685511 (Simulation time: 6 hr 10 min 33 sec) 
 Total Blocks : 262144 Invalid Blocks : 0
Heartbeat CPU 4 instructions: 60000002 cycles: 87530548 heartbeat IPC: 0.567627 cumulative IPC: 0.685475 (Simulation time: 6 hr 10 min 33 sec) 
 Total Blocks : 262144 Invalid Blocks : 0
Heartbeat CPU 5 instructions: 60000002 cycles: 87531379 heartbeat IPC: 0.567619 cumulative IPC: 0.685468 (Simulation time: 6 hr 10 min 33 sec) 
 Total Blocks : 262144 Invalid Blocks : 0
Heartbeat CPU 6 instructions: 70000001 cycles: 101998379 heartbeat IPC: 0.689086 cumulative IPC: 0.686285 (Simulation time: 6 hr 15 min 32 sec) 
 Total Blocks : 262144 Invalid Blocks : 0
Heartbeat CPU 7 instructions: 70000001 cycles: 101998602 heartbeat IPC: 0.689086 cumulative IPC: 0.686284 (Simulation time: 6 hr 15 min 32 sec) 
 Total Blocks : 262144 Invalid Blocks : 0
Heartbeat CPU 2 instructions: 70000001 cycles: 102038384 heartbeat IPC: 0.689033 cumulative IPC: 0.686016 (Simulation time: 6 hr 15 min 36 sec) 
 Total Blocks : 262144 Invalid Blocks : 0
Heartbeat CPU 0 instructions: 70000001 cycles: 102038558 heartbeat IPC: 0.689032 cumulative IPC: 0.686015 (Simulation time: 6 hr 15 min 36 sec) 
 Total Blocks : 262144 Invalid Blocks : 0
Heartbeat CPU 1 instructions: 70000001 cycles: 102038572 heartbeat IPC: 0.689032 cumulative IPC: 0.686015 (Simulation time: 6 hr 15 min 36 sec) 
 Total Blocks : 262144 Invalid Blocks : 0
Heartbeat CPU 3 instructions: 70000001 cycles: 102039028 heartbeat IPC: 0.689032 cumulative IPC: 0.686012 (Simulation time: 6 hr 15 min 36 sec) 
 Total Blocks : 262144 Invalid Blocks : 0
Heartbeat CPU 4 instructions: 70000001 cycles: 102043672 heartbeat IPC: 0.689031 cumulative IPC: 0.685981 (Simulation time: 6 hr 15 min 36 sec) 
 Total Blocks : 262144 Invalid Blocks : 0
Heartbeat CPU 5 instructions: 70000001 cycles: 102044513 heartbeat IPC: 0.689031 cumulative IPC: 0.685975 (Simulation time: 6 hr 15 min 36 sec) 
 Total Blocks : 262144 Invalid Blocks : 0
Heartbeat CPU 6 instructions: 80000000 cycles: 105123259 heartbeat IPC: 3.20012 cumulative IPC: 0.761011 (Simulation time: 6 hr 20 min 28 sec) 
 Total Blocks : 262144 Invalid Blocks : 0
Heartbeat CPU 7 instructions: 80000000 cycles: 105123473 heartbeat IPC: 3.20013 cumulative IPC: 0.76101 (Simulation time: 6 hr 20 min 28 sec) 
 Total Blocks : 262144 Invalid Blocks : 0
Heartbeat CPU 2 instructions: 80000000 cycles: 105163220 heartbeat IPC: 3.20017 cumulative IPC: 0.760722 (Simulation time: 6 hr 20 min 34 sec) 
 Total Blocks : 262144 Invalid Blocks : 0
Heartbeat CPU 0 instructions: 80000000 cycles: 105163369 heartbeat IPC: 3.20019 cumulative IPC: 0.760721 (Simulation time: 6 hr 20 min 34 sec) 
 Total Blocks : 262144 Invalid Blocks : 0
Heartbeat CPU 1 instructions: 80000000 cycles: 105163390 heartbeat IPC: 3.20019 cumulative IPC: 0.760721 (Simulation time: 6 hr 20 min 34 sec) 
 Total Blocks : 262144 Invalid Blocks : 0
Heartbeat CPU 3 instructions: 80000000 cycles: 105163830 heartbeat IPC: 3.2002 cumulative IPC: 0.760718 (Simulation time: 6 hr 20 min 34 sec) 
 Total Blocks : 262144 Invalid Blocks : 0
Heartbeat CPU 4 instructions: 80000000 cycles: 105168590 heartbeat IPC: 3.20008 cumulative IPC: 0.760683 (Simulation time: 6 hr 20 min 35 sec) 
 Total Blocks : 262144 Invalid Blocks : 0
Heartbeat CPU 5 instructions: 80000000 cycles: 105169425 heartbeat IPC: 3.20009 cumulative IPC: 0.760677 (Simulation time: 6 hr 20 min 35 sec) 
 Total Blocks : 262144 Invalid Blocks : 0
Heartbeat CPU 6 instructions: 90000000 cycles: 114290671 heartbeat IPC: 1.09082 cumulative IPC: 0.787466 (Simulation time: 6 hr 27 min 43 sec) 
 Total Blocks : 262144 Invalid Blocks : 0
Heartbeat CPU 7 instructions: 90000000 cycles: 114290860 heartbeat IPC: 1.09082 cumulative IPC: 0.787465 (Simulation time: 6 hr 27 min 43 sec) 
 Total Blocks : 262144 Invalid Blocks : 0
Heartbeat CPU 2 instructions: 90000000 cycles: 114330581 heartbeat IPC: 1.09083 cumulative IPC: 0.787191 (Simulation time: 6 hr 27 min 44 sec) 
 Total Blocks : 262144 Invalid Blocks : 0
Heartbeat CPU 0 instructions: 90000000 cycles: 114330742 heartbeat IPC: 1.09083 cumulative IPC: 0.78719 (Simulation time: 6 hr 27 min 44 sec) 
 Total Blocks : 262144 Invalid Blocks : 0
Heartbeat CPU 1 instructions: 90000000 cycles: 114330755 heartbeat IPC: 1.09083 cumulative IPC: 0.78719 (Simulation time: 6 hr 27 min 44 sec) 
 Total Blocks : 262144 Invalid Blocks : 0
Heartbeat CPU 3 instructions: 90000000 cycles: 114331213 heartbeat IPC: 1.09082 cumulative IPC: 0.787187 (Simulation time: 6 hr 27 min 44 sec) 
 Total Blocks : 262144 Invalid Blocks : 0
Heartbeat CPU 4 instructions: 90000000 cycles: 114335971 heartbeat IPC: 1.09082 cumulative IPC: 0.787154 (Simulation time: 6 hr 27 min 44 sec) 
 Total Blocks : 262144 Invalid Blocks : 0
Heartbeat CPU 5 instructions: 90000000 cycles: 114336825 heartbeat IPC: 1.09082 cumulative IPC: 0.787148 (Simulation time: 6 hr 27 min 44 sec) 
 Total Blocks : 262144 Invalid Blocks : 0
Heartbeat CPU 6 instructions: 100000000 cycles: 126711837 heartbeat IPC: 0.805077 cumulative IPC: 0.789192 (Simulation time: 6 hr 41 min 24 sec) 
 Total Blocks : 262144 Invalid Blocks : 0
Heartbeat CPU 7 instructions: 100000000 cycles: 126712424 heartbeat IPC: 0.805052 cumulative IPC: 0.789189 (Simulation time: 6 hr 41 min 24 sec) 
 Total Blocks : 262144 Invalid Blocks : 0
Heartbeat CPU 0 instructions: 100000000 cycles: 126749784 heartbeat IPC: 0.805215 cumulative IPC: 0.788956 (Simulation time: 6 hr 41 min 30 sec) 
 Total Blocks : 262144 Invalid Blocks : 0
Heartbeat CPU 1 instructions: 100000000 cycles: 126750113 heartbeat IPC: 0.805195 cumulative IPC: 0.788954 (Simulation time: 6 hr 41 min 30 sec) 
 Total Blocks : 262144 Invalid Blocks : 0
Heartbeat CPU 2 instructions: 100000000 cycles: 126750120 heartbeat IPC: 0.805183 cumulative IPC: 0.788954 (Simulation time: 6 hr 41 min 30 sec) 
 Total Blocks : 262144 Invalid Blocks : 0
Heartbeat CPU 3 instructions: 100000000 cycles: 126751368 heartbeat IPC: 0.805143 cumulative IPC: 0.788946 (Simulation time: 6 hr 41 min 30 sec) 
 Total Blocks : 262144 Invalid Blocks : 0
Heartbeat CPU 4 instructions: 100000000 cycles: 126756519 heartbeat IPC: 0.805117 cumulative IPC: 0.788914 (Simulation time: 6 hr 41 min 30 sec) 
 Total Blocks : 262144 Invalid Blocks : 0
Heartbeat CPU 5 instructions: 100000000 cycles: 126757570 heartbeat IPC: 0.805105 cumulative IPC: 0.788908 (Simulation time: 6 hr 41 min 31 sec) 
 Total Blocks : 262144 Invalid Blocks : 0
Heartbeat CPU 6 instructions: 110000000 cycles: 136955266 heartbeat IPC: 0.976236 cumulative IPC: 0.803182 (Simulation time: 6 hr 52 min 10 sec) 
 Total Blocks : 262144 Invalid Blocks : 0
Heartbeat CPU 7 instructions: 110000000 cycles: 136956184 heartbeat IPC: 0.976204 cumulative IPC: 0.803177 (Simulation time: 6 hr 52 min 10 sec) 
 Total Blocks : 262144 Invalid Blocks : 0
Heartbeat CPU 0 instructions: 110000000 cycles: 137005717 heartbeat IPC: 0.975045 cumulative IPC: 0.802886 (Simulation time: 6 hr 52 min 11 sec) 
 Total Blocks : 262144 Invalid Blocks : 0
Heartbeat CPU 1 instructions: 110000000 cycles: 137006491 heartbeat IPC: 0.975003 cumulative IPC: 0.802882 (Simulation time: 6 hr 52 min 11 sec) 
 Total Blocks : 262144 Invalid Blocks : 0
Heartbeat CPU 2 instructions: 110000000 cycles: 137007238 heartbeat IPC: 0.974933 cumulative IPC: 0.802877 (Simulation time: 6 hr 52 min 11 sec) 
 Total Blocks : 262144 Invalid Blocks : 0
Heartbeat CPU 3 instructions: 110000000 cycles: 137008501 heartbeat IPC: 0.974931 cumulative IPC: 0.80287 (Simulation time: 6 hr 52 min 11 sec) 
 Total Blocks : 262144 Invalid Blocks : 0
Heartbeat CPU 4 instructions: 110000000 cycles: 137014655 heartbeat IPC: 0.974836 cumulative IPC: 0.802834 (Simulation time: 6 hr 52 min 12 sec) 
 Total Blocks : 262144 Invalid Blocks : 0
Heartbeat CPU 5 instructions: 110000000 cycles: 137016557 heartbeat IPC: 0.974755 cumulative IPC: 0.802823 (Simulation time: 6 hr 52 min 12 sec) 
 Total Blocks : 262144 Invalid Blocks : 0
Heartbeat CPU 6 instructions: 120000000 cycles: 149764447 heartbeat IPC: 0.78069 cumulative IPC: 0.801258 (Simulation time: 6 hr 58 min 11 sec) 
 Total Blocks : 262144 Invalid Blocks : 0
Heartbeat CPU 7 instructions: 120000000 cycles: 149765313 heartbeat IPC: 0.780693 cumulative IPC: 0.801254 (Simulation time: 6 hr 58 min 11 sec) 
 Total Blocks : 262144 Invalid Blocks : 0
Heartbeat CPU 0 instructions: 120000000 cycles: 149837331 heartbeat IPC: 0.779325 cumulative IPC: 0.800869 (Simulation time: 6 hr 58 min 13 sec) 
 Total Blocks : 262144 Invalid Blocks : 0
Heartbeat CPU 2 instructions: 120000000 cycles: 149838110 heartbeat IPC: 0.77937 cumulative IPC: 0.800864 (Simulation time: 6 hr 58 min 13 sec) 
 Total Blocks : 262144 Invalid Blocks : 0
Heartbeat CPU 1 instructions: 120000000 cycles: 149838233 heartbeat IPC: 0.779317 cumulative IPC: 0.800864 (Simulation time: 6 hr 58 min 13 sec) 
 Total Blocks : 262144 Invalid Blocks : 0
Heartbeat CPU 3 instructions: 120000000 cycles: 149839857 heartbeat IPC: 0.779341 cumulative IPC: 0.800855 (Simulation time: 6 hr 58 min 13 sec) 
 Total Blocks : 262144 Invalid Blocks : 0
Heartbeat CPU 4 instructions: 120000000 cycles: 149850003 heartbeat IPC: 0.779098 cumulative IPC: 0.800801 (Simulation time: 6 hr 58 min 14 sec) 
 Total Blocks : 262144 Invalid Blocks : 0
Heartbeat CPU 5 instructions: 120000000 cycles: 149852196 heartbeat IPC: 0.779081 cumulative IPC: 0.800789 (Simulation time: 6 hr 58 min 14 sec) 
 Total Blocks : 262144 Invalid Blocks : 0
Heartbeat CPU 6 instructions: 130000002 cycles: 165032508 heartbeat IPC: 0.654962 cumulative IPC: 0.787724 (Simulation time: 7 hr 3 min 47 sec) 
 Total Blocks : 262144 Invalid Blocks : 0
Heartbeat CPU 7 instructions: 130000002 cycles: 165033243 heartbeat IPC: 0.654968 cumulative IPC: 0.78772 (Simulation time: 7 hr 3 min 47 sec) 
 Total Blocks : 262144 Invalid Blocks : 0
Heartbeat CPU 0 instructions: 130000002 cycles: 165116274 heartbeat IPC: 0.654496 cumulative IPC: 0.787324 (Simulation time: 7 hr 3 min 48 sec) 
 Total Blocks : 262144 Invalid Blocks : 0
Heartbeat CPU 2 instructions: 130000002 cycles: 165116518 heartbeat IPC: 0.654519 cumulative IPC: 0.787323 (Simulation time: 7 hr 3 min 48 sec) 
 Total Blocks : 262144 Invalid Blocks : 0
Heartbeat CPU 1 instructions: 130000002 cycles: 165116736 heartbeat IPC: 0.654514 cumulative IPC: 0.787322 (Simulation time: 7 hr 3 min 48 sec) 
 Total Blocks : 262144 Invalid Blocks : 0
Heartbeat CPU 3 instructions: 130000002 cycles: 165119011 heartbeat IPC: 0.654487 cumulative IPC: 0.787311 (Simulation time: 7 hr 3 min 48 sec) 
 Total Blocks : 262144 Invalid Blocks : 0
Heartbeat CPU 4 instructions: 130000002 cycles: 165129084 heartbeat IPC: 0.65449 cumulative IPC: 0.787263 (Simulation time: 7 hr 3 min 48 sec) 
 Total Blocks : 262144 Invalid Blocks : 0
Heartbeat CPU 5 instructions: 130000002 cycles: 165131473 heartbeat IPC: 0.654481 cumulative IPC: 0.787252 (Simulation time: 7 hr 3 min 48 sec) 
 Total Blocks : 262144 Invalid Blocks : 0
Heartbeat CPU 6 instructions: 140000000 cycles: 173501884 heartbeat IPC: 1.18072 cumulative IPC: 0.806908 (Simulation time: 7 hr 8 min 16 sec) 
 Total Blocks : 262144 Invalid Blocks : 0
Heartbeat CPU 7 instructions: 140000000 cycles: 173502652 heartbeat IPC: 1.18072 cumulative IPC: 0.806904 (Simulation time: 7 hr 8 min 16 sec) 
 Total Blocks : 262144 Invalid Blocks : 0
Heartbeat CPU 0 instructions: 140000000 cycles: 173585650 heartbeat IPC: 1.18072 cumulative IPC: 0.806518 (Simulation time: 7 hr 8 min 22 sec) 
 Total Blocks : 262144 Invalid Blocks : 0
Heartbeat CPU 2 instructions: 140000000 cycles: 173585854 heartbeat IPC: 1.18073 cumulative IPC: 0.806517 (Simulation time: 7 hr 8 min 22 sec) 
 Total Blocks : 262144 Invalid Blocks : 0
Heartbeat CPU 1 instructions: 140000000 cycles: 173586129 heartbeat IPC: 1.18072 cumulative IPC: 0.806516 (Simulation time: 7 hr 8 min 22 sec) 
 Total Blocks : 262144 Invalid Blocks : 0
Heartbeat CPU 3 instructions: 140000000 cycles: 173588332 heartbeat IPC: 1.18073 cumulative IPC: 0.806506 (Simulation time: 7 hr 8 min 22 sec) 
 Total Blocks : 262144 Invalid Blocks : 0
Heartbeat CPU 4 instructions: 140000000 cycles: 173598470 heartbeat IPC: 1.18072 cumulative IPC: 0.806459 (Simulation time: 7 hr 8 min 23 sec) 
 Total Blocks : 262144 Invalid Blocks : 0
Heartbeat CPU 5 instructions: 140000000 cycles: 173600852 heartbeat IPC: 1.18072 cumulative IPC: 0.806448 (Simulation time: 7 hr 8 min 23 sec) 
 Total Blocks : 262144 Invalid Blocks : 0
Heartbeat CPU 6 instructions: 150000001 cycles: 177111124 heartbeat IPC: 2.77067 cumulative IPC: 0.846926 (Simulation time: 7 hr 16 min 14 sec) 
 Total Blocks : 262144 Invalid Blocks : 0
Heartbeat CPU 7 instructions: 150000001 cycles: 177111769 heartbeat IPC: 2.77076 cumulative IPC: 0.846923 (Simulation time: 7 hr 16 min 14 sec) 
 Total Blocks : 262144 Invalid Blocks : 0
Heartbeat CPU 0 instructions: 150000001 cycles: 177194556 heartbeat IPC: 2.77092 cumulative IPC: 0.846527 (Simulation time: 7 hr 16 min 34 sec) 
 Total Blocks : 262144 Invalid Blocks : 0
Heartbeat CPU 2 instructions: 150000001 cycles: 177195004 heartbeat IPC: 2.77074 cumulative IPC: 0.846525 (Simulation time: 7 hr 16 min 34 sec) 
 Total Blocks : 262144 Invalid Blocks : 0
Heartbeat CPU 1 instructions: 150000001 cycles: 177195096 heartbeat IPC: 2.77088 cumulative IPC: 0.846525 (Simulation time: 7 hr 16 min 34 sec) 
 Total Blocks : 262144 Invalid Blocks : 0
Heartbeat CPU 3 instructions: 150000001 cycles: 177197549 heartbeat IPC: 2.77068 cumulative IPC: 0.846513 (Simulation time: 7 hr 16 min 35 sec) 
 Total Blocks : 262144 Invalid Blocks : 0
Heartbeat CPU 4 instructions: 150000001 cycles: 177207608 heartbeat IPC: 2.77075 cumulative IPC: 0.846465 (Simulation time: 7 hr 16 min 37 sec) 
 Total Blocks : 262144 Invalid Blocks : 0
Heartbeat CPU 5 instructions: 150000001 cycles: 177210077 heartbeat IPC: 2.77068 cumulative IPC: 0.846453 (Simulation time: 7 hr 16 min 37 sec) 
 Total Blocks : 262144 Invalid Blocks : 0
Heartbeat CPU 6 instructions: 160000000 cycles: 190580790 heartbeat IPC: 0.742409 cumulative IPC: 0.839539 (Simulation time: 7 hr 24 min 33 sec) 
 Total Blocks : 262144 Invalid Blocks : 0
Heartbeat CPU 7 instructions: 160000000 cycles: 190581436 heartbeat IPC: 0.742409 cumulative IPC: 0.839536 (Simulation time: 7 hr 24 min 33 sec) 
 Total Blocks : 262144 Invalid Blocks : 0
Heartbeat CPU 0 instructions: 160000000 cycles: 190664175 heartbeat IPC: 0.742411 cumulative IPC: 0.839172 (Simulation time: 7 hr 24 min 36 sec) 
 Total Blocks : 262144 Invalid Blocks : 0
Heartbeat CPU 2 instructions: 160000000 cycles: 190664658 heartbeat IPC: 0.742409 cumulative IPC: 0.83917 (Simulation time: 7 hr 24 min 36 sec) 
 Total Blocks : 262144 Invalid Blocks : 0
Heartbeat CPU 1 instructions: 160000000 cycles: 190664743 heartbeat IPC: 0.74241 cumulative IPC: 0.839169 (Simulation time: 7 hr 24 min 36 sec) 
 Total Blocks : 262144 Invalid Blocks : 0
Heartbeat CPU 3 instructions: 160000000 cycles: 190667187 heartbeat IPC: 0.74241 cumulative IPC: 0.839159 (Simulation time: 7 hr 24 min 36 sec) 
 Total Blocks : 262144 Invalid Blocks : 0
Heartbeat CPU 4 instructions: 160000000 cycles: 190677250 heartbeat IPC: 0.74241 cumulative IPC: 0.839114 (Simulation time: 7 hr 24 min 36 sec) 
 Total Blocks : 262144 Invalid Blocks : 0
Heartbeat CPU 5 instructions: 160000000 cycles: 190679740 heartbeat IPC: 0.742409 cumulative IPC: 0.839103 (Simulation time: 7 hr 24 min 36 sec) 
 Total Blocks : 262144 Invalid Blocks : 0
Heartbeat CPU 6 instructions: 170000000 cycles: 200382151 heartbeat IPC: 1.02027 cumulative IPC: 0.848379 (Simulation time: 7 hr 41 min 33 sec) 
 Total Blocks : 262144 Invalid Blocks : 0
Heartbeat CPU 7 instructions: 170000000 cycles: 200383615 heartbeat IPC: 1.02018 cumulative IPC: 0.848373 (Simulation time: 7 hr 41 min 33 sec) 
 Total Blocks : 262144 Invalid Blocks : 0
Heartbeat CPU 0 instructions: 170000000 cycles: 200458104 heartbeat IPC: 1.02104 cumulative IPC: 0.848058 (Simulation time: 7 hr 41 min 46 sec) 
 Total Blocks : 262144 Invalid Blocks : 0
Heartbeat CPU 1 instructions: 170000000 cycles: 200459948 heartbeat IPC: 1.02091 cumulative IPC: 0.84805 (Simulation time: 7 hr 41 min 46 sec) 
 Total Blocks : 262144 Invalid Blocks : 0
Heartbeat CPU 2 instructions: 170000000 cycles: 200460980 heartbeat IPC: 1.02079 cumulative IPC: 0.848045 (Simulation time: 7 hr 41 min 46 sec) 
 Total Blocks : 262144 Invalid Blocks : 0
Heartbeat CPU 3 instructions: 170000000 cycles: 200465370 heartbeat IPC: 1.0206 cumulative IPC: 0.848027 (Simulation time: 7 hr 41 min 47 sec) 
 Total Blocks : 262144 Invalid Blocks : 0
Heartbeat CPU 4 instructions: 170000000 cycles: 200476629 heartbeat IPC: 1.02047 cumulative IPC: 0.847979 (Simulation time: 7 hr 41 min 49 sec) 
 Total Blocks : 262144 Invalid Blocks : 0
Heartbeat CPU 5 instructions: 170000000 cycles: 200480234 heartbeat IPC: 1.02036 cumulative IPC: 0.847964 (Simulation time: 7 hr 41 min 49 sec) 
 Total Blocks : 262144 Invalid Blocks : 0
Heartbeat CPU 6 instructions: 180000002 cycles: 206853781 heartbeat IPC: 1.54521 cumulative IPC: 0.87018 (Simulation time: 8 hr 3 min 33 sec) 
 Total Blocks : 262144 Invalid Blocks : 0
Heartbeat CPU 7 instructions: 180000002 cycles: 206855837 heartbeat IPC: 1.54506 cumulative IPC: 0.870171 (Simulation time: 8 hr 3 min 33 sec) 
 Total Blocks : 262144 Invalid Blocks : 0
Heartbeat CPU 0 instructions: 180000002 cycles: 206922064 heartbeat IPC: 1.54704 cumulative IPC: 0.869893 (Simulation time: 8 hr 3 min 51 sec) 
 Total Blocks : 262144 Invalid Blocks : 0
Heartbeat CPU 1 instructions: 180000002 cycles: 206925735 heartbeat IPC: 1.5466 cumulative IPC: 0.869877 (Simulation time: 8 hr 3 min 53 sec) 
 Total Blocks : 262144 Invalid Blocks : 0
Heartbeat CPU 2 instructions: 180000002 cycles: 206928148 heartbeat IPC: 1.54627 cumulative IPC: 0.869867 (Simulation time: 8 hr 3 min 53 sec) 
 Total Blocks : 262144 Invalid Blocks : 0
Heartbeat CPU 3 instructions: 180000002 cycles: 206933859 heartbeat IPC: 1.54596 cumulative IPC: 0.869843 (Simulation time: 8 hr 3 min 54 sec) 
 Total Blocks : 262144 Invalid Blocks : 0
Heartbeat CPU 4 instructions: 180000002 cycles: 206945891 heartbeat IPC: 1.54577 cumulative IPC: 0.869793 (Simulation time: 8 hr 3 min 57 sec) 
 Total Blocks : 262144 Invalid Blocks : 0
Heartbeat CPU 5 instructions: 180000002 cycles: 206950683 heartbeat IPC: 1.54549 cumulative IPC: 0.869772 (Simulation time: 8 hr 3 min 59 sec) 
 Total Blocks : 262144 Invalid Blocks : 0
Heartbeat CPU 6 instructions: 190000000 cycles: 211682970 heartbeat IPC: 2.07074 cumulative IPC: 0.897569 (Simulation time: 8 hr 22 min 45 sec) 
 Total Blocks : 262144 Invalid Blocks : 0
Heartbeat CPU 7 instructions: 190000000 cycles: 211685701 heartbeat IPC: 2.07045 cumulative IPC: 0.897557 (Simulation time: 8 hr 22 min 45 sec) 
 Total Blocks : 262144 Invalid Blocks : 0
Heartbeat CPU 0 instructions: 190000000 cycles: 211746307 heartbeat IPC: 2.07286 cumulative IPC: 0.8973 (Simulation time: 8 hr 22 min 47 sec) 
 Total Blocks : 262144 Invalid Blocks : 0
Heartbeat CPU 1 instructions: 190000000 cycles: 211751150 heartbeat IPC: 2.07236 cumulative IPC: 0.89728 (Simulation time: 8 hr 22 min 47 sec) 
 Total Blocks : 262144 Invalid Blocks : 0
Heartbeat CPU 2 instructions: 190000000 cycles: 211754530 heartbeat IPC: 2.07194 cumulative IPC: 0.897265 (Simulation time: 8 hr 22 min 47 sec) 
 Total Blocks : 262144 Invalid Blocks : 0
Heartbeat CPU 3 instructions: 190000000 cycles: 211760823 heartbeat IPC: 2.0717 cumulative IPC: 0.897239 (Simulation time: 8 hr 22 min 47 sec) 
 Total Blocks : 262144 Invalid Blocks : 0
Heartbeat CPU 4 instructions: 190000000 cycles: 211773998 heartbeat IPC: 2.0712 cumulative IPC: 0.897183 (Simulation time: 8 hr 22 min 47 sec) 
 Total Blocks : 262144 Invalid Blocks : 0
Heartbeat CPU 5 instructions: 190000000 cycles: 211779504 heartbeat IPC: 2.0709 cumulative IPC: 0.89716 (Simulation time: 8 hr 22 min 48 sec) 
 Total Blocks : 262144 Invalid Blocks : 0
Heartbeat CPU 6 instructions: 200000002 cycles: 227072309 heartbeat IPC: 0.649801 cumulative IPC: 0.880777 (Simulation time: 8 hr 30 min 9 sec) 
 Total Blocks : 262144 Invalid Blocks : 0
Heartbeat CPU 7 instructions: 200000002 cycles: 227075137 heartbeat IPC: 0.649797 cumulative IPC: 0.880766 (Simulation time: 8 hr 30 min 9 sec) 
 Total Blocks : 262144 Invalid Blocks : 0
Heartbeat CPU 0 instructions: 200000002 cycles: 227161244 heartbeat IPC: 0.648722 cumulative IPC: 0.880432 (Simulation time: 8 hr 30 min 11 sec) 
 Total Blocks : 262144 Invalid Blocks : 0
Heartbeat CPU 1 instructions: 200000002 cycles: 227166502 heartbeat IPC: 0.648704 cumulative IPC: 0.880412 (Simulation time: 8 hr 30 min 11 sec) 
 Total Blocks : 262144 Invalid Blocks : 0
Heartbeat CPU 2 instructions: 200000002 cycles: 227170111 heartbeat IPC: 0.648694 cumulative IPC: 0.880397 (Simulation time: 8 hr 30 min 11 sec) 
 Total Blocks : 262144 Invalid Blocks : 0
Heartbeat CPU 3 instructions: 200000002 cycles: 227175440 heartbeat IPC: 0.648735 cumulative IPC: 0.880377 (Simulation time: 8 hr 30 min 12 sec) 
 Total Blocks : 262144 Invalid Blocks : 0
Heartbeat CPU 4 instructions: 200000002 cycles: 227191714 heartbeat IPC: 0.648605 cumulative IPC: 0.880314 (Simulation time: 8 hr 30 min 12 sec) 
 Total Blocks : 262144 Invalid Blocks : 0
Heartbeat CPU 5 instructions: 200000002 cycles: 227197449 heartbeat IPC: 0.648595 cumulative IPC: 0.880292 (Simulation time: 8 hr 30 min 12 sec) 
 Total Blocks : 262144 Invalid Blocks : 0

Warmup complete CPU 0 instructions: 200023923 cycles: 227197449 (Simulation time: 8 hr 30 min 12 sec) 
Warmup complete CPU 1 instructions: 200020354 cycles: 227197449 (Simulation time: 8 hr 30 min 12 sec) 
Warmup complete CPU 2 instructions: 200017745 cycles: 227197449 (Simulation time: 8 hr 30 min 12 sec) 
Warmup complete CPU 3 instructions: 200014341 cycles: 227197449 (Simulation time: 8 hr 30 min 12 sec) 
Warmup complete CPU 4 instructions: 200003641 cycles: 227197449 (Simulation time: 8 hr 30 min 12 sec) 
Warmup complete CPU 5 instructions: 200000002 cycles: 227197449 (Simulation time: 8 hr 30 min 12 sec) 
Warmup complete CPU 6 instructions: 200081748 cycles: 227197448 (Simulation time: 8 hr 30 min 12 sec) 
Warmup complete CPU 7 instructions: 200079902 cycles: 227197448 (Simulation time: 8 hr 30 min 12 sec) 

Heartbeat CPU 6 instructions: 210000001 cycles: 276210004 heartbeat IPC: 0.20351 cumulative IPC: 0.202361 (Simulation time: 8 hr 44 min 3 sec) 
 Total Blocks : 262144 Invalid Blocks : 0
Heartbeat CPU 7 instructions: 210000001 cycles: 276251787 heartbeat IPC: 0.203349 cumulative IPC: 0.202227 (Simulation time: 8 hr 44 min 4 sec) 
 Total Blocks : 262144 Invalid Blocks : 0
Heartbeat CPU 1 instructions: 210000001 cycles: 276828209 heartbeat IPC: 0.201362 cumulative IPC: 0.201078 (Simulation time: 8 hr 44 min 14 sec) 
 Total Blocks : 262144 Invalid Blocks : 0
Heartbeat CPU 0 instructions: 210000001 cycles: 276831613 heartbeat IPC: 0.201327 cumulative IPC: 0.200992 (Simulation time: 8 hr 44 min 14 sec) 
 Total Blocks : 262144 Invalid Blocks : 0
Heartbeat CPU 2 instructions: 210000001 cycles: 276876700 heartbeat IPC: 0.201181 cumulative IPC: 0.200934 (Simulation time: 8 hr 44 min 15 sec) 
 Total Blocks : 262144 Invalid Blocks : 0
Heartbeat CPU 3 instructions: 210000001 cycles: 276913334 heartbeat IPC: 0.201054 cumulative IPC: 0.200855 (Simulation time: 8 hr 44 min 15 sec) 
 Total Blocks : 262144 Invalid Blocks : 0
Heartbeat CPU 5 instructions: 210000001 cycles: 277173959 heartbeat IPC: 0.200094 cumulative IPC: 0.200094 (Simulation time: 8 hr 44 min 20 sec) 
 Total Blocks : 262144 Invalid Blocks : 0
Heartbeat CPU 4 instructions: 210000001 cycles: 277180274 heartbeat IPC: 0.200046 cumulative IPC: 0.199996 (Simulation time: 8 hr 44 min 20 sec) 
 Total Blocks : 262144 Invalid Blocks : 0
Heartbeat CPU 6 instructions: 220000000 cycles: 300867579 heartbeat IPC: 0.405555 cumulative IPC: 0.270371 (Simulation time: 8 hr 53 min 26 sec) 
 Total Blocks : 262144 Invalid Blocks : 0
Heartbeat CPU 7 instructions: 220000000 cycles: 300878888 heartbeat IPC: 0.406057 cumulative IPC: 0.270354 (Simulation time: 8 hr 53 min 27 sec) 
 Total Blocks : 262144 Invalid Blocks : 0
Heartbeat CPU 1 instructions: 220000000 cycles: 301440962 heartbeat IPC: 0.406293 cumulative IPC: 0.26911 (Simulation time: 8 hr 54 min 23 sec) 
 Total Blocks : 262144 Invalid Blocks : 0
Heartbeat CPU 0 instructions: 220000000 cycles: 301444725 heartbeat IPC: 0.406287 cumulative IPC: 0.269048 (Simulation time: 8 hr 54 min 24 sec) 
 Total Blocks : 262144 Invalid Blocks : 0
Heartbeat CPU 2 instructions: 220000000 cycles: 301485898 heartbeat IPC: 0.406352 cumulative IPC: 0.268982 (Simulation time: 8 hr 54 min 28 sec) 
 Total Blocks : 262144 Invalid Blocks : 0
Heartbeat CPU 3 instructions: 220000000 cycles: 301581184 heartbeat IPC: 0.405386 cumulative IPC: 0.268683 (Simulation time: 8 hr 54 min 38 sec) 
 Total Blocks : 262144 Invalid Blocks : 0
Heartbeat CPU 5 instructions: 220000000 cycles: 301795861 heartbeat IPC: 0.406142 cumulative IPC: 0.268102 (Simulation time: 8 hr 54 min 59 sec) 
 Total Blocks : 262144 Invalid Blocks : 0
Heartbeat CPU 4 instructions: 220000000 cycles: 301806654 heartbeat IPC: 0.406069 cumulative IPC: 0.268015 (Simulation time: 8 hr 55 min 0 sec) 
 Total Blocks : 262144 Invalid Blocks : 0
Heartbeat CPU 6 instructions: 230000001 cycles: 310343548 heartbeat IPC: 1.0553 cumulative IPC: 0.359827 (Simulation time: 9 hr 5 min 9 sec) 
 Total Blocks : 262144 Invalid Blocks : 0
Heartbeat CPU 7 instructions: 230000001 cycles: 310359713 heartbeat IPC: 1.05476 cumulative IPC: 0.35978 (Simulation time: 9 hr 5 min 11 sec) 
 Total Blocks : 262144 Invalid Blocks : 0
Heartbeat CPU 1 instructions: 230000001 cycles: 310986857 heartbeat IPC: 1.04757 cumulative IPC: 0.357798 (Simulation time: 9 hr 6 min 1 sec) 
 Total Blocks : 262144 Invalid Blocks : 0
Heartbeat CPU 0 instructions: 230000001 cycles: 310991352 heartbeat IPC: 1.04749 cumulative IPC: 0.357736 (Simulation time: 9 hr 6 min 1 sec) 
 Total Blocks : 262144 Invalid Blocks : 0
Heartbeat CPU 2 instructions: 230000001 cycles: 311070003 heartbeat IPC: 1.04339 cumulative IPC: 0.357474 (Simulation time: 9 hr 6 min 7 sec) 
 Total Blocks : 262144 Invalid Blocks : 0
Heartbeat CPU 3 instructions: 230000001 cycles: 311124249 heartbeat IPC: 1.04788 cumulative IPC: 0.357284 (Simulation time: 9 hr 6 min 12 sec) 
 Total Blocks : 262144 Invalid Blocks : 0
Heartbeat CPU 5 instructions: 230000001 cycles: 311284144 heartbeat IPC: 1.05393 cumulative IPC: 0.356775 (Simulation time: 9 hr 6 min 24 sec) 
 Total Blocks : 262144 Invalid Blocks : 0
Heartbeat CPU 4 instructions: 230000001 cycles: 311297101 heartbeat IPC: 1.05369 cumulative IPC: 0.356676 (Simulation time: 9 hr 6 min 25 sec) 
 Total Blocks : 262144 Invalid Blocks : 0
Heartbeat CPU 7 instructions: 240000001 cycles: 332716989 heartbeat IPC: 0.447282 cumulative IPC: 0.37832 (Simulation time: 9 hr 17 min 3 sec) 
 Total Blocks : 262144 Invalid Blocks : 0
Heartbeat CPU 6 instructions: 240000001 cycles: 332733215 heartbeat IPC: 0.446635 cumulative IPC: 0.378244 (Simulation time: 9 hr 17 min 3 sec) 
 Total Blocks : 262144 Invalid Blocks : 0
Heartbeat CPU 0 instructions: 240000001 cycles: 333367315 heartbeat IPC: 0.446908 cumulative IPC: 0.376529 (Simulation time: 9 hr 17 min 16 sec) 
 Total Blocks : 262144 Invalid Blocks : 0
Heartbeat CPU 1 instructions: 240000001 cycles: 333369906 heartbeat IPC: 0.446767 cumulative IPC: 0.376554 (Simulation time: 9 hr 17 min 16 sec) 
 Total Blocks : 262144 Invalid Blocks : 0
Heartbeat CPU 2 instructions: 240000001 cycles: 333531594 heartbeat IPC: 0.445204 cumulative IPC: 0.376006 (Simulation time: 9 hr 17 min 20 sec) 
 Total Blocks : 262144 Invalid Blocks : 0
Heartbeat CPU 3 instructions: 240000001 cycles: 333603642 heartbeat IPC: 0.444852 cumulative IPC: 0.375783 (Simulation time: 9 hr 17 min 21 sec) 
 Total Blocks : 262144 Invalid Blocks : 0
Heartbeat CPU 5 instructions: 240000001 cycles: 333664276 heartbeat IPC: 0.446825 cumulative IPC: 0.375704 (Simulation time: 9 hr 17 min 23 sec) 
 Total Blocks : 262144 Invalid Blocks : 0
Heartbeat CPU 4 instructions: 240000001 cycles: 333677600 heartbeat IPC: 0.446818 cumulative IPC: 0.375623 (Simulation time: 9 hr 17 min 23 sec) 
 Total Blocks : 262144 Invalid Blocks : 0
Heartbeat CPU 7 instructions: 250000000 cycles: 395218483 heartbeat IPC: 0.159996 cumulative IPC: 0.297106 (Simulation time: 9 hr 37 min 39 sec) 
 Total Blocks : 262144 Invalid Blocks : 0
Heartbeat CPU 6 instructions: 250000000 cycles: 395232843 heartbeat IPC: 0.160001 cumulative IPC: 0.29707 (Simulation time: 9 hr 37 min 39 sec) 
 Total Blocks : 262144 Invalid Blocks : 0
Heartbeat CPU 1 instructions: 250000000 cycles: 395598136 heartbeat IPC: 0.160699 cumulative IPC: 0.29679 (Simulation time: 9 hr 37 min 46 sec) 
 Total Blocks : 262144 Invalid Blocks : 0
Heartbeat CPU 2 instructions: 250000000 cycles: 395621425 heartbeat IPC: 0.161057 cumulative IPC: 0.296764 (Simulation time: 9 hr 37 min 46 sec) 
 Total Blocks : 262144 Invalid Blocks : 0
Heartbeat CPU 0 instructions: 250000000 cycles: 395634503 heartbeat IPC: 0.160598 cumulative IPC: 0.296705 (Simulation time: 9 hr 37 min 46 sec) 
 Total Blocks : 262144 Invalid Blocks : 0
Heartbeat CPU 3 instructions: 250000000 cycles: 395789077 heartbeat IPC: 0.160809 cumulative IPC: 0.29649 (Simulation time: 9 hr 37 min 49 sec) 
 Total Blocks : 262144 Invalid Blocks : 0
Heartbeat CPU 5 instructions: 250000000 cycles: 395811242 heartbeat IPC: 0.160909 cumulative IPC: 0.296536 (Simulation time: 9 hr 37 min 50 sec) 
 Total Blocks : 262144 Invalid Blocks : 0
Heartbeat CPU 4 instructions: 250000000 cycles: 395945221 heartbeat IPC: 0.160597 cumulative IPC: 0.296279 (Simulation time: 9 hr 37 min 52 sec) 
 Total Blocks : 262144 Invalid Blocks : 0
Heartbeat CPU 6 instructions: 260000000 cycles: 444078352 heartbeat IPC: 0.204727 cumulative IPC: 0.276273 (Simulation time: 9 hr 52 min 21 sec) 
 Total Blocks : 262144 Invalid Blocks : 0
Heartbeat CPU 7 instructions: 260000000 cycles: 444093591 heartbeat IPC: 0.204603 cumulative IPC: 0.276262 (Simulation time: 9 hr 52 min 21 sec) 
 Total Blocks : 262144 Invalid Blocks : 0
Heartbeat CPU 2 instructions: 260000000 cycles: 445050157 heartbeat IPC: 0.202311 cumulative IPC: 0.275334 (Simulation time: 9 hr 52 min 39 sec) 
 Total Blocks : 262144 Invalid Blocks : 0
Heartbeat CPU 1 instructions: 260000000 cycles: 445110307 heartbeat IPC: 0.201971 cumulative IPC: 0.275246 (Simulation time: 9 hr 52 min 40 sec) 
 Total Blocks : 262144 Invalid Blocks : 0
Heartbeat CPU 3 instructions: 260000000 cycles: 445139880 heartbeat IPC: 0.202631 cumulative IPC: 0.275236 (Simulation time: 9 hr 52 min 40 sec) 
 Total Blocks : 262144 Invalid Blocks : 0
Heartbeat CPU 0 instructions: 260000000 cycles: 445169064 heartbeat IPC: 0.201879 cumulative IPC: 0.275155 (Simulation time: 9 hr 52 min 41 sec) 
 Total Blocks : 262144 Invalid Blocks : 0
Heartbeat CPU 5 instructions: 260000000 cycles: 445405044 heartbeat IPC: 0.201638 cumulative IPC: 0.274967 (Simulation time: 9 hr 52 min 45 sec) 
 Total Blocks : 262144 Invalid Blocks : 0
Heartbeat CPU 4 instructions: 260000000 cycles: 445514862 heartbeat IPC: 0.201736 cumulative IPC: 0.274813 (Simulation time: 9 hr 52 min 47 sec) 
 Total Blocks : 262144 Invalid Blocks : 0
Heartbeat CPU 6 instructions: 270000001 cycles: 493239175 heartbeat IPC: 0.203414 cumulative IPC: 0.262809 (Simulation time: 10 hr 7 min 4 sec) 
 Total Blocks : 262144 Invalid Blocks : 0
Heartbeat CPU 7 instructions: 270000001 cycles: 493274984 heartbeat IPC: 0.203329 cumulative IPC: 0.262781 (Simulation time: 10 hr 7 min 5 sec) 
 Total Blocks : 262144 Invalid Blocks : 0
Heartbeat CPU 2 instructions: 270000001 cycles: 494703103 heartbeat IPC: 0.201398 cumulative IPC: 0.26161 (Simulation time: 10 hr 7 min 27 sec) 
 Total Blocks : 262144 Invalid Blocks : 0
Heartbeat CPU 1 instructions: 270000001 cycles: 494802803 heartbeat IPC: 0.201238 cumulative IPC: 0.261503 (Simulation time: 10 hr 7 min 29 sec) 
 Total Blocks : 262144 Invalid Blocks : 0
Heartbeat CPU 3 instructions: 270000001 cycles: 494881928 heartbeat IPC: 0.201037 cumulative IPC: 0.261448 (Simulation time: 10 hr 7 min 30 sec) 
 Total Blocks : 262144 Invalid Blocks : 0
Heartbeat CPU 0 instructions: 270000001 cycles: 494975818 heartbeat IPC: 0.200776 cumulative IPC: 0.261321 (Simulation time: 10 hr 7 min 31 sec) 
 Total Blocks : 262144 Invalid Blocks : 0
Heartbeat CPU 5 instructions: 270000001 cycles: 495208961 heartbeat IPC: 0.200787 cumulative IPC: 0.261183 (Simulation time: 10 hr 7 min 35 sec) 
 Total Blocks : 262144 Invalid Blocks : 0
Heartbeat CPU 4 instructions: 270000001 cycles: 495378772 heartbeat IPC: 0.200546 cumulative IPC: 0.261004 (Simulation time: 10 hr 7 min 38 sec) 
 Total Blocks : 262144 Invalid Blocks : 0
Heartbeat CPU 6 instructions: 280000003 cycles: 541184963 heartbeat IPC: 0.208569 cumulative IPC: 0.254527 (Simulation time: 10 hr 19 min 34 sec) 
 Total Blocks : 262144 Invalid Blocks : 0
Heartbeat CPU 7 instructions: 280000003 cycles: 541242701 heartbeat IPC: 0.208474 cumulative IPC: 0.254486 (Simulation time: 10 hr 19 min 36 sec) 
 Total Blocks : 262144 Invalid Blocks : 0
Heartbeat CPU 2 instructions: 280000003 cycles: 542644999 heartbeat IPC: 0.208586 cumulative IPC: 0.253552 (Simulation time: 10 hr 20 min 20 sec) 
 Total Blocks : 262144 Invalid Blocks : 0
Heartbeat CPU 1 instructions: 280000003 cycles: 542702122 heartbeat IPC: 0.208771 cumulative IPC: 0.253498 (Simulation time: 10 hr 20 min 23 sec) 
 Total Blocks : 262144 Invalid Blocks : 0
Heartbeat CPU 3 instructions: 280000003 cycles: 542754103 heartbeat IPC: 0.20889 cumulative IPC: 0.253475 (Simulation time: 10 hr 20 min 26 sec) 
 Total Blocks : 262144 Invalid Blocks : 0
Heartbeat CPU 0 instructions: 280000003 cycles: 542872524 heartbeat IPC: 0.208783 cumulative IPC: 0.253349 (Simulation time: 10 hr 20 min 32 sec) 
 Total Blocks : 262144 Invalid Blocks : 0
Heartbeat CPU 5 instructions: 280000003 cycles: 543150541 heartbeat IPC: 0.208587 cumulative IPC: 0.253202 (Simulation time: 10 hr 20 min 49 sec) 
 Total Blocks : 262144 Invalid Blocks : 0
Heartbeat CPU 4 instructions: 280000003 cycles: 543279940 heartbeat IPC: 0.208763 cumulative IPC: 0.253087 (Simulation time: 10 hr 20 min 58 sec) 
 Total Blocks : 262144 Invalid Blocks : 0
Heartbeat CPU 6 instructions: 290000002 cycles: 548359370 heartbeat IPC: 1.39384 cumulative IPC: 0.279978 (Simulation time: 10 hr 26 min 44 sec) 
 Total Blocks : 262144 Invalid Blocks : 0
Heartbeat CPU 7 instructions: 290000002 cycles: 548416530 heartbeat IPC: 1.39396 cumulative IPC: 0.279934 (Simulation time: 10 hr 26 min 48 sec) 
 Total Blocks : 262144 Invalid Blocks : 0
Heartbeat CPU 2 instructions: 290000002 cycles: 549819007 heartbeat IPC: 1.39392 cumulative IPC: 0.27891 (Simulation time: 10 hr 28 min 19 sec) 
 Total Blocks : 262144 Invalid Blocks : 0
Heartbeat CPU 1 instructions: 290000002 cycles: 549875519 heartbeat IPC: 1.39404 cumulative IPC: 0.278853 (Simulation time: 10 hr 28 min 22 sec) 
 Total Blocks : 262144 Invalid Blocks : 0
Heartbeat CPU 3 instructions: 290000002 cycles: 549927195 heartbeat IPC: 1.3941 cumulative IPC: 0.278827 (Simulation time: 10 hr 28 min 25 sec) 
 Total Blocks : 262144 Invalid Blocks : 0
Heartbeat CPU 0 instructions: 290000002 cycles: 550049394 heartbeat IPC: 1.39336 cumulative IPC: 0.278691 (Simulation time: 10 hr 28 min 32 sec) 
 Total Blocks : 262144 Invalid Blocks : 0
Heartbeat CPU 5 instructions: 290000002 cycles: 550333769 heartbeat IPC: 1.39213 cumulative IPC: 0.27852 (Simulation time: 10 hr 28 min 49 sec) 
 Total Blocks : 262144 Invalid Blocks : 0
Heartbeat CPU 4 instructions: 290000002 cycles: 550460999 heartbeat IPC: 1.39255 cumulative IPC: 0.278399 (Simulation time: 10 hr 28 min 56 sec) 
 Total Blocks : 262144 Invalid Blocks : 0
Heartbeat CPU 6 instructions: 300000000 cycles: 589019203 heartbeat IPC: 0.245943 cumulative IPC: 0.276153 (Simulation time: 10 hr 47 min 1 sec) 
 Total Blocks : 262144 Invalid Blocks : 0
Heartbeat CPU 7 instructions: 300000000 cycles: 589146709 heartbeat IPC: 0.245518 cumulative IPC: 0.276061 (Simulation time: 10 hr 47 min 4 sec) 
 Total Blocks : 262144 Invalid Blocks : 0
Heartbeat CPU 1 instructions: 300000000 cycles: 590724712 heartbeat IPC: 0.244803 cumulative IPC: 0.275027 (Simulation time: 10 hr 47 min 37 sec) 
 Total Blocks : 262144 Invalid Blocks : 0
Heartbeat CPU 2 instructions: 300000000 cycles: 590726878 heartbeat IPC: 0.244452 cumulative IPC: 0.275032 (Simulation time: 10 hr 47 min 38 sec) 
 Total Blocks : 262144 Invalid Blocks : 0
Heartbeat CPU 3 instructions: 300000000 cycles: 590748078 heartbeat IPC: 0.244973 cumulative IPC: 0.275025 (Simulation time: 10 hr 47 min 38 sec) 
 Total Blocks : 262144 Invalid Blocks : 0
Heartbeat CPU 0 instructions: 300000000 cycles: 590992830 heartbeat IPC: 0.244239 cumulative IPC: 0.274814 (Simulation time: 10 hr 47 min 43 sec) 
 Total Blocks : 262144 Invalid Blocks : 0
Heartbeat CPU 5 instructions: 300000000 cycles: 591189706 heartbeat IPC: 0.244762 cumulative IPC: 0.274731 (Simulation time: 10 hr 47 min 47 sec) 
 Total Blocks : 262144 Invalid Blocks : 0
Heartbeat CPU 4 instructions: 300000000 cycles: 591258777 heartbeat IPC: 0.245111 cumulative IPC: 0.274669 (Simulation time: 10 hr 47 min 49 sec) 
 Total Blocks : 262144 Invalid Blocks : 0
Heartbeat CPU 6 instructions: 310000000 cycles: 641721258 heartbeat IPC: 0.189746 cumulative IPC: 0.265168 (Simulation time: 11 hr 5 min 15 sec) 
 Total Blocks : 262144 Invalid Blocks : 0
Heartbeat CPU 7 instructions: 310000000 cycles: 641841821 heartbeat IPC: 0.189771 cumulative IPC: 0.265095 (Simulation time: 11 hr 5 min 17 sec) 
 Total Blocks : 262144 Invalid Blocks : 0
Heartbeat CPU 1 instructions: 310000000 cycles: 643419890 heartbeat IPC: 0.189771 cumulative IPC: 0.264233 (Simulation time: 11 hr 5 min 42 sec) 
 Total Blocks : 262144 Invalid Blocks : 0
Heartbeat CPU 2 instructions: 310000000 cycles: 643453536 heartbeat IPC: 0.189657 cumulative IPC: 0.264218 (Simulation time: 11 hr 5 min 42 sec) 
 Total Blocks : 262144 Invalid Blocks : 0
Heartbeat CPU 3 instructions: 310000000 cycles: 643765304 heartbeat IPC: 0.188618 cumulative IPC: 0.264028 (Simulation time: 11 hr 5 min 47 sec) 
 Total Blocks : 262144 Invalid Blocks : 0
Heartbeat CPU 0 instructions: 310000000 cycles: 644084841 heartbeat IPC: 0.188352 cumulative IPC: 0.263803 (Simulation time: 11 hr 5 min 51 sec) 
 Total Blocks : 262144 Invalid Blocks : 0
Heartbeat CPU 5 instructions: 310000000 cycles: 644254592 heartbeat IPC: 0.188449 cumulative IPC: 0.263753 (Simulation time: 11 hr 5 min 54 sec) 
 Total Blocks : 262144 Invalid Blocks : 0
Heartbeat CPU 4 instructions: 310000000 cycles: 644299615 heartbeat IPC: 0.188534 cumulative IPC: 0.263716 (Simulation time: 11 hr 5 min 55 sec) 
 Total Blocks : 262144 Invalid Blocks : 0
Heartbeat CPU 7 instructions: 320000000 cycles: 785975573 heartbeat IPC: 0.06938 cumulative IPC: 0.214611 (Simulation time: 12 hr 11 min 30 sec) 
 Total Blocks : 262144 Invalid Blocks : 0
Heartbeat CPU 6 instructions: 320000000 cycles: 786171053 heartbeat IPC: 0.0692282 cumulative IPC: 0.214533 (Simulation time: 12 hr 11 min 35 sec) 
 Total Blocks : 262144 Invalid Blocks : 0
Heartbeat CPU 2 instructions: 320000000 cycles: 787590280 heartbeat IPC: 0.0693786 cumulative IPC: 0.214104 (Simulation time: 12 hr 12 min 13 sec) 
 Total Blocks : 262144 Invalid Blocks : 0
Heartbeat CPU 1 instructions: 320000000 cycles: 787721698 heartbeat IPC: 0.0692992 cumulative IPC: 0.214049 (Simulation time: 12 hr 12 min 17 sec) 
 Total Blocks : 262144 Invalid Blocks : 0
Heartbeat CPU 3 instructions: 320000000 cycles: 788847367 heartbeat IPC: 0.0689265 cumulative IPC: 0.213631 (Simulation time: 12 hr 12 min 46 sec) 
 Total Blocks : 262144 Invalid Blocks : 0
Heartbeat CPU 0 instructions: 320000000 cycles: 789121269 heartbeat IPC: 0.0689482 cumulative IPC: 0.21351 (Simulation time: 12 hr 12 min 54 sec) 
 Total Blocks : 262144 Invalid Blocks : 0
Heartbeat CPU 5 instructions: 320000000 cycles: 789217710 heartbeat IPC: 0.0689831 cumulative IPC: 0.213515 (Simulation time: 12 hr 12 min 56 sec) 
 Total Blocks : 262144 Invalid Blocks : 0
Heartbeat CPU 4 instructions: 320000000 cycles: 789711701 heartbeat IPC: 0.0687701 cumulative IPC: 0.213321 (Simulation time: 12 hr 13 min 10 sec) 
 Total Blocks : 262144 Invalid Blocks : 0
Heartbeat CPU 7 instructions: 330000000 cycles: 872883087 heartbeat IPC: 0.115065 cumulative IPC: 0.201213 (Simulation time: 12 hr 49 min 43 sec) 
 Total Blocks : 262144 Invalid Blocks : 0
Heartbeat CPU 6 instructions: 330000000 cycles: 872987211 heartbeat IPC: 0.115186 cumulative IPC: 0.201177 (Simulation time: 12 hr 49 min 45 sec) 
 Total Blocks : 262144 Invalid Blocks : 0
Heartbeat CPU 1 instructions: 330000000 cycles: 873679828 heartbeat IPC: 0.116336 cumulative IPC: 0.201057 (Simulation time: 12 hr 49 min 57 sec) 
 Total Blocks : 262144 Invalid Blocks : 0
Heartbeat CPU 2 instructions: 330000000 cycles: 873713024 heartbeat IPC: 0.116113 cumulative IPC: 0.20105 (Simulation time: 12 hr 49 min 57 sec) 
 Total Blocks : 262144 Invalid Blocks : 0
Heartbeat CPU 3 instructions: 330000000 cycles: 874343094 heartbeat IPC: 0.116965 cumulative IPC: 0.20086 (Simulation time: 12 hr 50 min 8 sec) 
 Total Blocks : 262144 Invalid Blocks : 0
Heartbeat CPU 0 instructions: 330000000 cycles: 874376136 heartbeat IPC: 0.117295 cumulative IPC: 0.200835 (Simulation time: 12 hr 50 min 9 sec) 
 Total Blocks : 262144 Invalid Blocks : 0
Heartbeat CPU 5 instructions: 330000000 cycles: 874471036 heartbeat IPC: 0.117297 cumulative IPC: 0.200842 (Simulation time: 12 hr 50 min 10 sec) 
 Total Blocks : 262144 Invalid Blocks : 0
Heartbeat CPU 4 instructions: 330000000 cycles: 874797945 heartbeat IPC: 0.117528 cumulative IPC: 0.200735 (Simulation time: 12 hr 50 min 16 sec) 
 Total Blocks : 262144 Invalid Blocks : 0
Heartbeat CPU 7 instructions: 340000000 cycles: 927161832 heartbeat IPC: 0.184234 cumulative IPC: 0.199896 (Simulation time: 13 hr 5 min 10 sec) 
 Total Blocks : 262144 Invalid Blocks : 0
Heartbeat CPU 6 instructions: 340000000 cycles: 927232186 heartbeat IPC: 0.184349 cumulative IPC: 0.199873 (Simulation time: 13 hr 5 min 11 sec) 
 Total Blocks : 262144 Invalid Blocks : 0
Heartbeat CPU 1 instructions: 340000000 cycles: 928301548 heartbeat IPC: 0.183077 cumulative IPC: 0.199656 (Simulation time: 13 hr 5 min 30 sec) 
 Total Blocks : 262144 Invalid Blocks : 0
Heartbeat CPU 2 instructions: 340000000 cycles: 928311145 heartbeat IPC: 0.183156 cumulative IPC: 0.199657 (Simulation time: 13 hr 5 min 30 sec) 
 Total Blocks : 262144 Invalid Blocks : 0
Heartbeat CPU 3 instructions: 340000000 cycles: 929153345 heartbeat IPC: 0.182448 cumulative IPC: 0.199422 (Simulation time: 13 hr 5 min 44 sec) 
 Total Blocks : 262144 Invalid Blocks : 0
Heartbeat CPU 0 instructions: 340000000 cycles: 929265304 heartbeat IPC: 0.182185 cumulative IPC: 0.199377 (Simulation time: 13 hr 5 min 46 sec) 
 Total Blocks : 262144 Invalid Blocks : 0
Heartbeat CPU 5 instructions: 340000000 cycles: 929445603 heartbeat IPC: 0.181902 cumulative IPC: 0.19936 (Simulation time: 13 hr 5 min 49 sec) 
 Total Blocks : 262144 Invalid Blocks : 0
Heartbeat CPU 4 instructions: 340000000 cycles: 929707103 heartbeat IPC: 0.182119 cumulative IPC: 0.19928 (Simulation time: 13 hr 5 min 54 sec) 
 Total Blocks : 262144 Invalid Blocks : 0
Heartbeat CPU 7 instructions: 350000000 cycles: 975505922 heartbeat IPC: 0.206851 cumulative IPC: 0.200345 (Simulation time: 13 hr 18 min 59 sec) 
 Total Blocks : 262144 Invalid Blocks : 0
Heartbeat CPU 6 instructions: 350000000 cycles: 975553553 heartbeat IPC: 0.206948 cumulative IPC: 0.20033 (Simulation time: 13 hr 19 min 0 sec) 
 Total Blocks : 262144 Invalid Blocks : 0
Heartbeat CPU 2 instructions: 350000000 cycles: 977092440 heartbeat IPC: 0.204997 cumulative IPC: 0.200004 (Simulation time: 13 hr 19 min 26 sec) 
 Total Blocks : 262144 Invalid Blocks : 0
Heartbeat CPU 1 instructions: 350000000 cycles: 977158256 heartbeat IPC: 0.20468 cumulative IPC: 0.199983 (Simulation time: 13 hr 19 min 27 sec) 
 Total Blocks : 262144 Invalid Blocks : 0
Heartbeat CPU 3 instructions: 350000000 cycles: 978034179 heartbeat IPC: 0.204579 cumulative IPC: 0.199758 (Simulation time: 13 hr 19 min 42 sec) 
 Total Blocks : 262144 Invalid Blocks : 0
Heartbeat CPU 0 instructions: 350000000 cycles: 978134583 heartbeat IPC: 0.204628 cumulative IPC: 0.199719 (Simulation time: 13 hr 19 min 43 sec) 
 Total Blocks : 262144 Invalid Blocks : 0
Heartbeat CPU 5 instructions: 350000000 cycles: 978399221 heartbeat IPC: 0.204275 cumulative IPC: 0.19968 (Simulation time: 13 hr 19 min 48 sec) 
 Total Blocks : 262144 Invalid Blocks : 0
Heartbeat CPU 4 instructions: 350000000 cycles: 978619184 heartbeat IPC: 0.204448 cumulative IPC: 0.199617 (Simulation time: 13 hr 19 min 52 sec) 
 Total Blocks : 262144 Invalid Blocks : 0
Heartbeat CPU 7 instructions: 360000002 cycles: 1000401187 heartbeat IPC: 0.401683 cumulative IPC: 0.206828 (Simulation time: 13 hr 27 min 1 sec) 
 Total Blocks : 262144 Invalid Blocks : 0
Heartbeat CPU 6 instructions: 360000002 cycles: 1000420421 heartbeat IPC: 0.402142 cumulative IPC: 0.20682 (Simulation time: 13 hr 27 min 2 sec) 
 Total Blocks : 262144 Invalid Blocks : 0
Heartbeat CPU 2 instructions: 360000002 cycles: 1001952077 heartbeat IPC: 0.402259 cumulative IPC: 0.206494 (Simulation time: 13 hr 29 min 13 sec) 
 Total Blocks : 262144 Invalid Blocks : 0
Heartbeat CPU 1 instructions: 360000002 cycles: 1002031575 heartbeat IPC: 0.402037 cumulative IPC: 0.20647 (Simulation time: 13 hr 29 min 21 sec) 
 Total Blocks : 262144 Invalid Blocks : 0
Heartbeat CPU 3 instructions: 360000002 cycles: 1002900419 heartbeat IPC: 0.402152 cumulative IPC: 0.206246 (Simulation time: 13 hr 30 min 45 sec) 
 Total Blocks : 262144 Invalid Blocks : 0
Heartbeat CPU 0 instructions: 360000002 cycles: 1003020306 heartbeat IPC: 0.401837 cumulative IPC: 0.206202 (Simulation time: 13 hr 30 min 57 sec) 
 Total Blocks : 262144 Invalid Blocks : 0
Heartbeat CPU 5 instructions: 360000002 cycles: 1003252965 heartbeat IPC: 0.402354 cumulative IPC: 0.206171 (Simulation time: 13 hr 31 min 20 sec) 
 Total Blocks : 262144 Invalid Blocks : 0
Heartbeat CPU 4 instructions: 360000002 cycles: 1003450886 heartbeat IPC: 0.402711 cumulative IPC: 0.206114 (Simulation time: 13 hr 31 min 39 sec) 
 Total Blocks : 262144 Invalid Blocks : 0
Heartbeat CPU 7 instructions: 370000002 cycles: 1009854828 heartbeat IPC: 1.05779 cumulative IPC: 0.217107 (Simulation time: 13 hr 38 min 40 sec) 
 Total Blocks : 262144 Invalid Blocks : 0
Heartbeat CPU 6 instructions: 370000002 cycles: 1009854884 heartbeat IPC: 1.05994 cumulative IPC: 0.217104 (Simulation time: 13 hr 38 min 40 sec) 
 Total Blocks : 262144 Invalid Blocks : 0
Heartbeat CPU 2 instructions: 370000002 cycles: 1011695905 heartbeat IPC: 1.02629 cumulative IPC: 0.216676 (Simulation time: 13 hr 40 min 40 sec) 
 Total Blocks : 262144 Invalid Blocks : 0
Heartbeat CPU 1 instructions: 370000002 cycles: 1011772747 heartbeat IPC: 1.02657 cumulative IPC: 0.216652 (Simulation time: 13 hr 40 min 47 sec) 
 Total Blocks : 262144 Invalid Blocks : 0
Heartbeat CPU 3 instructions: 370000002 cycles: 1012660205 heartbeat IPC: 1.02461 cumulative IPC: 0.216415 (Simulation time: 13 hr 41 min 57 sec) 
 Total Blocks : 262144 Invalid Blocks : 0
Heartbeat CPU 0 instructions: 370000002 cycles: 1012756678 heartbeat IPC: 1.02708 cumulative IPC: 0.216376 (Simulation time: 13 hr 42 min 4 sec) 
 Total Blocks : 262144 Invalid Blocks : 0
Heartbeat CPU 5 instructions: 370000002 cycles: 1012945972 heartbeat IPC: 1.03167 cumulative IPC: 0.216354 (Simulation time: 13 hr 42 min 19 sec) 
 Total Blocks : 262144 Invalid Blocks : 0
Heartbeat CPU 4 instructions: 370000002 cycles: 1013082643 heartbeat IPC: 1.03823 cumulative IPC: 0.216312 (Simulation time: 13 hr 42 min 30 sec) 
 Total Blocks : 262144 Invalid Blocks : 0
Heartbeat CPU 7 instructions: 380000002 cycles: 1032425939 heartbeat IPC: 0.443044 cumulative IPC: 0.22344 (Simulation time: 13 hr 51 min 20 sec) 
 Total Blocks : 262144 Invalid Blocks : 0
Heartbeat CPU 6 instructions: 380000002 cycles: 1032426014 heartbeat IPC: 0.443044 cumulative IPC: 0.223437 (Simulation time: 13 hr 51 min 20 sec) 
 Total Blocks : 262144 Invalid Blocks : 0
Heartbeat CPU 2 instructions: 380000002 cycles: 1034364709 heartbeat IPC: 0.441135 cumulative IPC: 0.22298 (Simulation time: 13 hr 52 min 2 sec) 
 Total Blocks : 262144 Invalid Blocks : 0
Heartbeat CPU 1 instructions: 380000002 cycles: 1034508161 heartbeat IPC: 0.439842 cumulative IPC: 0.222937 (Simulation time: 13 hr 52 min 4 sec) 
 Total Blocks : 262144 Invalid Blocks : 0
Heartbeat CPU 3 instructions: 380000002 cycles: 1035406152 heartbeat IPC: 0.439639 cumulative IPC: 0.222697 (Simulation time: 13 hr 52 min 23 sec) 
 Total Blocks : 262144 Invalid Blocks : 0
Heartbeat CPU 0 instructions: 380000002 cycles: 1035566996 heartbeat IPC: 0.438398 cumulative IPC: 0.222641 (Simulation time: 13 hr 52 min 27 sec) 
 Total Blocks : 262144 Invalid Blocks : 0
Heartbeat CPU 5 instructions: 380000002 cycles: 1035727375 heartbeat IPC: 0.438955 cumulative IPC: 0.222626 (Simulation time: 13 hr 52 min 30 sec) 
 Total Blocks : 262144 Invalid Blocks : 0
Heartbeat CPU 4 instructions: 380000002 cycles: 1035903187 heartbeat IPC: 0.438202 cumulative IPC: 0.222573 (Simulation time: 13 hr 52 min 34 sec) 
 Total Blocks : 262144 Invalid Blocks : 0
Heartbeat CPU 6 instructions: 390000002 cycles: 1067339542 heartbeat IPC: 0.286422 cumulative IPC: 0.226055 (Simulation time: 14 hr 4 min 7 sec) 
 Total Blocks : 262144 Invalid Blocks : 0
Heartbeat CPU 7 instructions: 390000002 cycles: 1067352140 heartbeat IPC: 0.286318 cumulative IPC: 0.226054 (Simulation time: 14 hr 4 min 7 sec) 
 Total Blocks : 262144 Invalid Blocks : 0
Heartbeat CPU 2 instructions: 390000002 cycles: 1069398308 heartbeat IPC: 0.28544 cumulative IPC: 0.225578 (Simulation time: 14 hr 4 min 54 sec) 
 Total Blocks : 262144 Invalid Blocks : 0
Heartbeat CPU 1 instructions: 390000002 cycles: 1069507786 heartbeat IPC: 0.285717 cumulative IPC: 0.225546 (Simulation time: 14 hr 4 min 56 sec) 
 Total Blocks : 262144 Invalid Blocks : 0
Heartbeat CPU 3 instructions: 390000002 cycles: 1070262657 heartbeat IPC: 0.286891 cumulative IPC: 0.225351 (Simulation time: 14 hr 5 min 13 sec) 
 Total Blocks : 262144 Invalid Blocks : 0
Heartbeat CPU 0 instructions: 390000002 cycles: 1070425416 heartbeat IPC: 0.286875 cumulative IPC: 0.225296 (Simulation time: 14 hr 5 min 17 sec) 
 Total Blocks : 262144 Invalid Blocks : 0
Heartbeat CPU 5 instructions: 390000002 cycles: 1070543296 heartbeat IPC: 0.287225 cumulative IPC: 0.225293 (Simulation time: 14 hr 5 min 19 sec) 
 Total Blocks : 262144 Invalid Blocks : 0
Heartbeat CPU 4 instructions: 390000002 cycles: 1070654123 heartbeat IPC: 0.287762 cumulative IPC: 0.225259 (Simulation time: 14 hr 5 min 22 sec) 
 Total Blocks : 262144 Invalid Blocks : 0
Heartbeat CPU 6 instructions: 400000000 cycles: 1103390400 heartbeat IPC: 0.277386 cumulative IPC: 0.228167 (Simulation time: 14 hr 17 min 45 sec) 
 Total Blocks : 262144 Invalid Blocks : 0
Heartbeat CPU 7 instructions: 400000000 cycles: 1103407004 heartbeat IPC: 0.277355 cumulative IPC: 0.228165 (Simulation time: 14 hr 17 min 45 sec) 
 Total Blocks : 262144 Invalid Blocks : 0
Finished CPU 6 instructions: 200000001 cycles: 876477565 cumulative IPC: 0.228186 (Simulation time: 14 hr 17 min 51 sec) 
Finished CPU 7 instructions: 200000000 cycles: 876486816 cumulative IPC: 0.228184 (Simulation time: 14 hr 17 min 51 sec) 
Heartbeat CPU 2 instructions: 400000000 cycles: 1105873940 heartbeat IPC: 0.274156 cumulative IPC: 0.227595 (Simulation time: 14 hr 18 min 43 sec) 
 Total Blocks : 262144 Invalid Blocks : 0
Finished CPU 2 instructions: 200000001 cycles: 878737871 cumulative IPC: 0.227599 (Simulation time: 14 hr 18 min 44 sec) 
Heartbeat CPU 1 instructions: 400000000 cycles: 1106009488 heartbeat IPC: 0.27396 cumulative IPC: 0.227557 (Simulation time: 14 hr 18 min 46 sec) 
 Total Blocks : 262144 Invalid Blocks : 0
Finished CPU 1 instructions: 200000003 cycles: 878881149 cumulative IPC: 0.227562 (Simulation time: 14 hr 18 min 48 sec) 
Heartbeat CPU 3 instructions: 400000000 cycles: 1106757367 heartbeat IPC: 0.274012 cumulative IPC: 0.22737 (Simulation time: 14 hr 19 min 4 sec) 
 Total Blocks : 262144 Invalid Blocks : 0
Finished CPU 3 instructions: 200000000 cycles: 879609782 cumulative IPC: 0.227374 (Simulation time: 14 hr 19 min 6 sec) 
Heartbeat CPU 0 instructions: 400000000 cycles: 1106893058 heartbeat IPC: 0.274216 cumulative IPC: 0.227324 (Simulation time: 14 hr 19 min 8 sec) 
 Total Blocks : 262144 Invalid Blocks : 0
Finished CPU 0 instructions: 200000002 cycles: 879781530 cumulative IPC: 0.227329 (Simulation time: 14 hr 19 min 10 sec) 
Heartbeat CPU 5 instructions: 400000000 cycles: 1107071167 heartbeat IPC: 0.273764 cumulative IPC: 0.227305 (Simulation time: 14 hr 19 min 12 sec) 
 Total Blocks : 262144 Invalid Blocks : 0
Finished CPU 5 instructions: 200000001 cycles: 879873722 cumulative IPC: 0.227305 (Simulation time: 14 hr 19 min 12 sec) 
Heartbeat CPU 4 instructions: 400000000 cycles: 1107142193 heartbeat IPC: 0.274062 cumulative IPC: 0.227283 (Simulation time: 14 hr 19 min 14 sec) 
 Total Blocks : 262144 Invalid Blocks : 0
Finished CPU 4 instructions: 200000003 cycles: 879956038 cumulative IPC: 0.227284 (Simulation time: 14 hr 19 min 14 sec) 

CPU 0 Branch Prediction Accuracy: 86.8215% MPKI: 27.9631 Average ROB Occupancy at Mispredict: 27.5719

CPU 1 Branch Prediction Accuracy: 86.8211% MPKI: 27.9633 Average ROB Occupancy at Mispredict: 27.5807

CPU 2 Branch Prediction Accuracy: 86.8209% MPKI: 27.9638 Average ROB Occupancy at Mispredict: 27.5821

CPU 3 Branch Prediction Accuracy: 86.821% MPKI: 27.9652 Average ROB Occupancy at Mispredict: 27.5727

CPU 4 Branch Prediction Accuracy: 86.821% MPKI: 27.9671 Average ROB Occupancy at Mispredict: 27.5682

CPU 5 Branch Prediction Accuracy: 86.8206% MPKI: 27.9681 Average ROB Occupancy at Mispredict: 27.5689

CPU 6 Branch Prediction Accuracy: 86.8217% MPKI: 27.9509 Average ROB Occupancy at Mispredict: 27.6062

CPU 7 Branch Prediction Accuracy: 86.8218% MPKI: 27.9511 Average ROB Occupancy at Mispredict: 27.6066

ChampSim completed all CPUs

Total Simulation Statistics (not including warmup)

CPU 0 cumulative IPC: 0.22734 instructions: 200048843 cycles: 879956038
ITLB TOTAL     ACCESS: 29613207  HIT: 29613207  MISS:     0  HIT %:   100  MISS %:     0  AVERAGE MISS PENALTY: 0
ITLB LOAD      ACCESS: 29613207  HIT: 29613207  MISS:     0  HIT %:   100  MISS %:     0  AVERAGE MISS PENALTY: 0
ITLB RFO       ACCESS:     0  HIT:     0  MISS:     0  HIT %:     0  MISS %:     0  AVERAGE MISS PENALTY: 0
ITLB PREFETCH  ACCESS:     0  HIT:     0  MISS:     0  HIT %:     0  MISS %:     0  AVERAGE MISS PENALTY: 0
ITLB WRITEBACK ACCESS:     0  HIT:     0  MISS:     0  HIT %:     0  MISS %:     0  AVERAGE MISS PENALTY: 0

DTLB TOTAL     ACCESS: 38687725  HIT: 38161624  MISS: 526101  HIT %: 98.6401  MISS %: 1.35987  AVERAGE MISS PENALTY: 43.5272
DTLB LOAD      ACCESS: 32021690  HIT: 31506946  MISS: 514744  HIT %: 98.3925  MISS %: 1.60749  AVERAGE MISS PENALTY: 43.5789
DTLB RFO       ACCESS: 6666035  HIT: 6654678  MISS: 11357  HIT %: 99.8296  MISS %: 0.170371  AVERAGE MISS PENALTY: 41.1833
DTLB PREFETCH  ACCESS:     0  HIT:     0  MISS:     0  HIT %:     0  MISS %:     0  AVERAGE MISS PENALTY: 0
DTLB WRITEBACK ACCESS:     0  HIT:     0  MISS:     0  HIT %:     0  MISS %:     0  AVERAGE MISS PENALTY: 0

STLB TOTAL     ACCESS: 526101  HIT: 354154  MISS: 171947  HIT %: 67.3167  MISS %: 32.6833  AVERAGE MISS PENALTY: 100
STLB LOAD      ACCESS: 514744  HIT: 346385  MISS: 168359  HIT %: 67.2927  MISS %: 32.7073  AVERAGE MISS PENALTY: 100
STLB RFO       ACCESS: 11357  HIT:  7769  MISS:  3588  HIT %: 68.4071  MISS %: 31.5929  AVERAGE MISS PENALTY: 100
STLB PREFETCH  ACCESS:     0  HIT:     0  MISS:     0  HIT %:     0  MISS %:     0  AVERAGE MISS PENALTY: 0
STLB WRITEBACK ACCESS:     0  HIT:     0  MISS:     0  HIT %:     0  MISS %:     0  AVERAGE MISS PENALTY: 0

L1D TOTAL     ACCESS: 49458897  HIT: 38114670  MISS: 11344227  HIT %: 77.0633  MISS %: 22.9367  AVERAGE MISS PENALTY: 1.41946e+07
L1D LOAD      ACCESS: 30516391  HIT: 27089197  MISS: 3427194  HIT %: 88.7693  MISS %: 11.2307  AVERAGE MISS PENALTY: 4.69827e+07
L1D RFO       ACCESS: 4862603  HIT: 4594741  MISS: 267862  HIT %: 94.4914  MISS %: 5.50861  AVERAGE MISS PENALTY: 19913
L1D PREFETCH  ACCESS: 14079903  HIT: 6430732  MISS: 7649171  HIT %: 45.6731  MISS %: 54.3269  AVERAGE MISS PENALTY: 266.094
L1D WRITEBACK ACCESS:     0  HIT:     0  MISS:     0  HIT %:     0  MISS %:     0  AVERAGE MISS PENALTY: 0

L1I TOTAL     ACCESS: 45913765  HIT: 45913764  MISS:     1  HIT %:   100  MISS %: 2.178e-06  AVERAGE MISS PENALTY: 219
L1I LOAD      ACCESS: 45913765  HIT: 45913764  MISS:     1  HIT %:   100  MISS %: 2.178e-06  AVERAGE MISS PENALTY: 219
L1I RFO       ACCESS:     0  HIT:     0  MISS:     0  HIT %:     0  MISS %:     0  AVERAGE MISS PENALTY: 0
L1I PREFETCH  ACCESS:     0  HIT:     0  MISS:     0  HIT %:     0  MISS %:     0  AVERAGE MISS PENALTY: 0
L1I WRITEBACK ACCESS:     0  HIT:     0  MISS:     0  HIT %:     0  MISS %:     0  AVERAGE MISS PENALTY: 0

L2C TOTAL     ACCESS: 19788407  HIT: 5995774  MISS: 13792633  HIT %: 30.2994  MISS %: 69.7006  AVERAGE MISS PENALTY: 1.1262e+07
L2C LOAD      ACCESS: 3409383  HIT: 607090  MISS: 2802293  HIT %: 17.8064  MISS %: 82.1936  AVERAGE MISS PENALTY: 5.5429e+07
L2C RFO       ACCESS: 267854  HIT: 16533  MISS: 251321  HIT %: 6.17239  MISS %: 93.8276  AVERAGE MISS PENALTY: 3083.14
L2C PREFETCH  ACCESS: 15141138  HIT: 4665678  MISS: 10475460  HIT %: 30.8146  MISS %: 69.1854  AVERAGE MISS PENALTY: 329.533
L2C WRITEBACK ACCESS: 970032  HIT: 706473  MISS: 263559  HIT %: 72.8299  MISS %: 27.1701  AVERAGE MISS PENALTY: 0


LLC0 TOTAL     ACCESS: 1808053  HIT: 878456  MISS: 929597  HIT %: 48.5857  MISS %: 51.4143  AVERAGE MISS PENALTY: 535.867
LLC0 LOAD      ACCESS: 361199  HIT: 181373  MISS: 179826  HIT %: 50.2141  MISS %: 49.7859  AVERAGE MISS PENALTY: 526.121
LLC0 RFO       ACCESS: 31416  HIT:  2476  MISS: 28940  HIT %: 7.88133  MISS %: 92.1187  AVERAGE MISS PENALTY: 461.971
LLC0 PREFETCH  ACCESS: 1296656  HIT: 579374  MISS: 717282  HIT %: 44.6822  MISS %: 55.3178  AVERAGE MISS PENALTY: 543.943
LLC0 WRITEBACK ACCESS: 118782  HIT: 115233  MISS:  3549  HIT %: 97.0122  MISS %: 2.98783  AVERAGE MISS PENALTY: 0

LLC1 TOTAL     ACCESS: 1826286  HIT: 884276  MISS: 942010  HIT %: 48.4194  MISS %: 51.5806  AVERAGE MISS PENALTY: 537.702
LLC1 LOAD      ACCESS: 324629  HIT: 176736  MISS: 147893  HIT %: 54.4425  MISS %: 45.5575  AVERAGE MISS PENALTY: 581.276
LLC1 RFO       ACCESS: 31420  HIT:  2218  MISS: 29202  HIT %: 7.0592  MISS %: 92.9408  AVERAGE MISS PENALTY: 456.123
LLC1 PREFETCH  ACCESS: 1351722  HIT: 590187  MISS: 761535  HIT %: 43.6619  MISS %: 56.3381  AVERAGE MISS PENALTY: 534.755
LLC1 WRITEBACK ACCESS: 118515  HIT: 115135  MISS:  3380  HIT %: 97.148  MISS %: 2.85196  AVERAGE MISS PENALTY: 0

LLC2 TOTAL     ACCESS: 1835484  HIT: 886163  MISS: 949321  HIT %: 48.2795  MISS %: 51.7205  AVERAGE MISS PENALTY: 538.789
LLC2 LOAD      ACCESS: 319830  HIT: 174109  MISS: 145721  HIT %: 54.438  MISS %: 45.562  AVERAGE MISS PENALTY: 584.083
LLC2 RFO       ACCESS: 31406  HIT:  2085  MISS: 29321  HIT %: 6.63886  MISS %: 93.3611  AVERAGE MISS PENALTY: 465.595
LLC2 PREFETCH  ACCESS: 1365245  HIT: 594286  MISS: 770959  HIT %: 43.5296  MISS %: 56.4704  AVERAGE MISS PENALTY: 535.332
LLC2 WRITEBACK ACCESS: 119003  HIT: 115683  MISS:  3320  HIT %: 97.2102  MISS %: 2.78985  AVERAGE MISS PENALTY: 0

LLC3 TOTAL     ACCESS: 1826354  HIT: 883018  MISS: 943336  HIT %: 48.3487  MISS %: 51.6513  AVERAGE MISS PENALTY: 537.253
LLC3 LOAD      ACCESS: 326423  HIT: 180047  MISS: 146376  HIT %: 55.1576  MISS %: 44.8424  AVERAGE MISS PENALTY: 592.043
LLC3 RFO       ACCESS: 31417  HIT:  2052  MISS: 29365  HIT %: 6.5315  MISS %: 93.4685  AVERAGE MISS PENALTY: 460.954
LLC3 PREFETCH  ACCESS: 1349459  HIT: 585162  MISS: 764297  HIT %: 43.3627  MISS %: 56.6373  AVERAGE MISS PENALTY: 532.009
LLC3 WRITEBACK ACCESS: 119055  HIT: 115757  MISS:  3298  HIT %: 97.2299  MISS %: 2.77015  AVERAGE MISS PENALTY: 0

LLC4 TOTAL     ACCESS: 1814626  HIT: 873426  MISS: 941200  HIT %: 48.1326  MISS %: 51.8674  AVERAGE MISS PENALTY: 519.467
LLC4 LOAD      ACCESS: 324036  HIT: 179005  MISS: 145031  HIT %: 55.2423  MISS %: 44.7577  AVERAGE MISS PENALTY: 570.407
LLC4 RFO       ACCESS: 31403  HIT:  1959  MISS: 29444  HIT %: 6.23826  MISS %: 93.7617  AVERAGE MISS PENALTY: 466.238
LLC4 PREFETCH  ACCESS: 1340374  HIT: 576965  MISS: 763409  HIT %: 43.0451  MISS %: 56.9549  AVERAGE MISS PENALTY: 514.099
LLC4 WRITEBACK ACCESS: 118813  HIT: 115497  MISS:  3316  HIT %: 97.2091  MISS %: 2.79094  AVERAGE MISS PENALTY: 0

LLC5 TOTAL     ACCESS: 1802078  HIT: 863672  MISS: 938406  HIT %: 47.9264  MISS %: 52.0736  AVERAGE MISS PENALTY: 511.888
LLC5 LOAD      ACCESS: 319550  HIT: 174822  MISS: 144728  HIT %: 54.7088  MISS %: 45.2912  AVERAGE MISS PENALTY: 559.464
LLC5 RFO       ACCESS: 31399  HIT:  2062  MISS: 29337  HIT %: 6.56709  MISS %: 93.4329  AVERAGE MISS PENALTY: 447.524
LLC5 PREFETCH  ACCESS: 1332286  HIT: 571220  MISS: 761066  HIT %: 42.8752  MISS %: 57.1248  AVERAGE MISS PENALTY: 507.525
LLC5 WRITEBACK ACCESS: 118843  HIT: 115568  MISS:  3275  HIT %: 97.2443  MISS %: 2.75574  AVERAGE MISS PENALTY: 0

LLC6 TOTAL     ACCESS: 1792014  HIT: 856988  MISS: 935026  HIT %: 47.8226  MISS %: 52.1774  AVERAGE MISS PENALTY: 518.846
LLC6 LOAD      ACCESS: 324906  HIT: 180127  MISS: 144779  HIT %: 55.4397  MISS %: 44.5603  AVERAGE MISS PENALTY: 564.831
LLC6 RFO       ACCESS: 31425  HIT:  2060  MISS: 29365  HIT %: 6.55529  MISS %: 93.4447  AVERAGE MISS PENALTY: 472.313
LLC6 PREFETCH  ACCESS: 1316960  HIT: 559425  MISS: 757535  HIT %: 42.4785  MISS %: 57.5215  AVERAGE MISS PENALTY: 514.154
LLC6 WRITEBACK ACCESS: 118723  HIT: 115376  MISS:  3347  HIT %: 97.1808  MISS %: 2.81917  AVERAGE MISS PENALTY: 0

LLC7 TOTAL     ACCESS: 1774434  HIT: 843111  MISS: 931323  HIT %: 47.5144  MISS %: 52.4856  AVERAGE MISS PENALTY: 513.338
LLC7 LOAD      ACCESS: 318009  HIT: 172658  MISS: 145351  HIT %: 54.2934  MISS %: 45.7066  AVERAGE MISS PENALTY: 561.073
LLC7 RFO       ACCESS: 31433  HIT:  2236  MISS: 29197  HIT %: 7.11354  MISS %: 92.8865  AVERAGE MISS PENALTY: 449.893
LLC7 PREFETCH  ACCESS: 1306353  HIT: 553008  MISS: 753345  HIT %: 42.3322  MISS %: 57.6678  AVERAGE MISS PENALTY: 508.924
LLC7 WRITEBACK ACCESS: 118639  HIT: 115209  MISS:  3430  HIT %: 97.1089  MISS %: 2.89112  AVERAGE MISS PENALTY: 0

Total Rob stall cycles : 	738615345
Total Load Rob Stall cycles : 	358181984
Average Rob Stall cycles : 	 10
Average Load Rob Stall cycles : 	 45

CPU 1 cumulative IPC: 0.22762 instructions: 200295923 cycles: 879956038
ITLB TOTAL     ACCESS: 29638998  HIT: 29638998  MISS:     0  HIT %:   100  MISS %:     0  AVERAGE MISS PENALTY: 0
ITLB LOAD      ACCESS: 29638998  HIT: 29638998  MISS:     0  HIT %:   100  MISS %:     0  AVERAGE MISS PENALTY: 0
ITLB RFO       ACCESS:     0  HIT:     0  MISS:     0  HIT %:     0  MISS %:     0  AVERAGE MISS PENALTY: 0
ITLB PREFETCH  ACCESS:     0  HIT:     0  MISS:     0  HIT %:     0  MISS %:     0  AVERAGE MISS PENALTY: 0
ITLB WRITEBACK ACCESS:     0  HIT:     0  MISS:     0  HIT %:     0  MISS %:     0  AVERAGE MISS PENALTY: 0

DTLB TOTAL     ACCESS: 38738891  HIT: 38212607  MISS: 526284  HIT %: 98.6415  MISS %: 1.35854  AVERAGE MISS PENALTY: 43.6528
DTLB LOAD      ACCESS: 32071174  HIT: 31556242  MISS: 514932  HIT %: 98.3944  MISS %: 1.60559  AVERAGE MISS PENALTY: 43.7063
DTLB RFO       ACCESS: 6667717  HIT: 6656365  MISS: 11352  HIT %: 99.8297  MISS %: 0.170253  AVERAGE MISS PENALTY: 41.2245
DTLB PREFETCH  ACCESS:     0  HIT:     0  MISS:     0  HIT %:     0  MISS %:     0  AVERAGE MISS PENALTY: 0
DTLB WRITEBACK ACCESS:     0  HIT:     0  MISS:     0  HIT %:     0  MISS %:     0  AVERAGE MISS PENALTY: 0

STLB TOTAL     ACCESS: 526284  HIT: 354170  MISS: 172114  HIT %: 67.2964  MISS %: 32.7036  AVERAGE MISS PENALTY: 100
STLB LOAD      ACCESS: 514932  HIT: 346406  MISS: 168526  HIT %: 67.2722  MISS %: 32.7278  AVERAGE MISS PENALTY: 100
STLB RFO       ACCESS: 11352  HIT:  7764  MISS:  3588  HIT %: 68.3932  MISS %: 31.6068  AVERAGE MISS PENALTY: 100
STLB PREFETCH  ACCESS:     0  HIT:     0  MISS:     0  HIT %:     0  MISS %:     0  AVERAGE MISS PENALTY: 0
STLB WRITEBACK ACCESS:     0  HIT:     0  MISS:     0  HIT %:     0  MISS %:     0  AVERAGE MISS PENALTY: 0

L1D TOTAL     ACCESS: 49593927  HIT: 38225976  MISS: 11367951  HIT %: 77.0779  MISS %: 22.9221  AVERAGE MISS PENALTY: 1.39752e+07
L1D LOAD      ACCESS: 30559688  HIT: 27123337  MISS: 3436351  HIT %: 88.7553  MISS %: 11.2447  AVERAGE MISS PENALTY: 4.62299e+07
L1D RFO       ACCESS: 4898945  HIT: 4631056  MISS: 267889  HIT %: 94.5317  MISS %: 5.4683  AVERAGE MISS PENALTY: 19170.8
L1D PREFETCH  ACCESS: 14135294  HIT: 6471583  MISS: 7663711  HIT %: 45.7832  MISS %: 54.2168  AVERAGE MISS PENALTY: 235.069
L1D WRITEBACK ACCESS:     0  HIT:     0  MISS:     0  HIT %:     0  MISS %:     0  AVERAGE MISS PENALTY: 0

L1I TOTAL     ACCESS: 45960578  HIT: 45960577  MISS:     1  HIT %:   100  MISS %: 2.17578e-06  AVERAGE MISS PENALTY: 219
L1I LOAD      ACCESS: 45960578  HIT: 45960577  MISS:     1  HIT %:   100  MISS %: 2.17578e-06  AVERAGE MISS PENALTY: 219
L1I RFO       ACCESS:     0  HIT:     0  MISS:     0  HIT %:     0  MISS %:     0  AVERAGE MISS PENALTY: 0
L1I PREFETCH  ACCESS:     0  HIT:     0  MISS:     0  HIT %:     0  MISS %:     0  AVERAGE MISS PENALTY: 0
L1I WRITEBACK ACCESS:     0  HIT:     0  MISS:     0  HIT %:     0  MISS %:     0  AVERAGE MISS PENALTY: 0

L2C TOTAL     ACCESS: 19848044  HIT: 6040342  MISS: 13807702  HIT %: 30.4329  MISS %: 69.5671  AVERAGE MISS PENALTY: 1.11529e+07
L2C LOAD      ACCESS: 3418879  HIT: 614215  MISS: 2804664  HIT %: 17.9654  MISS %: 82.0346  AVERAGE MISS PENALTY: 5.49054e+07
L2C RFO       ACCESS: 267882  HIT: 16756  MISS: 251126  HIT %: 6.25499  MISS %: 93.745  AVERAGE MISS PENALTY: 7103
L2C PREFETCH  ACCESS: 15190812  HIT: 4702283  MISS: 10488529  HIT %: 30.9548  MISS %: 69.0452  AVERAGE MISS PENALTY: 328.463
L2C WRITEBACK ACCESS: 970471  HIT: 707088  MISS: 263383  HIT %: 72.8603  MISS %: 27.1397  AVERAGE MISS PENALTY: 0


LLC0 TOTAL     ACCESS: 1810494  HIT: 882016  MISS: 928478  HIT %: 48.7169  MISS %: 51.2831  AVERAGE MISS PENALTY: 534.019
LLC0 LOAD      ACCESS: 362002  HIT: 181978  MISS: 180024  HIT %: 50.2699  MISS %: 49.7301  AVERAGE MISS PENALTY: 524.665
LLC0 RFO       ACCESS: 31395  HIT:  2571  MISS: 28824  HIT %: 8.1892  MISS %: 91.8108  AVERAGE MISS PENALTY: 438.051
LLC0 PREFETCH  ACCESS: 1298181  HIT: 582143  MISS: 716038  HIT %: 44.843  MISS %: 55.157  AVERAGE MISS PENALTY: 542.913
LLC0 WRITEBACK ACCESS: 118916  HIT: 115324  MISS:  3592  HIT %: 96.9794  MISS %: 3.02062  AVERAGE MISS PENALTY: 0

LLC1 TOTAL     ACCESS: 1828606  HIT: 885824  MISS: 942782  HIT %: 48.4426  MISS %: 51.5574  AVERAGE MISS PENALTY: 535.31
LLC1 LOAD      ACCESS: 325209  HIT: 177029  MISS: 148180  HIT %: 54.4355  MISS %: 45.5645  AVERAGE MISS PENALTY: 579.057
LLC1 RFO       ACCESS: 31387  HIT:  2323  MISS: 29064  HIT %: 7.40115  MISS %: 92.5988  AVERAGE MISS PENALTY: 430.8
LLC1 PREFETCH  ACCESS: 1353412  HIT: 591290  MISS: 762122  HIT %: 43.6888  MISS %: 56.3112  AVERAGE MISS PENALTY: 533.19
LLC1 WRITEBACK ACCESS: 118598  HIT: 115182  MISS:  3416  HIT %: 97.1197  MISS %: 2.88032  AVERAGE MISS PENALTY: 0

LLC2 TOTAL     ACCESS: 1837257  HIT: 888033  MISS: 949224  HIT %: 48.3347  MISS %: 51.6653  AVERAGE MISS PENALTY: 536.128
LLC2 LOAD      ACCESS: 320224  HIT: 173957  MISS: 146267  HIT %: 54.3235  MISS %: 45.6765  AVERAGE MISS PENALTY: 580.962
LLC2 RFO       ACCESS: 31374  HIT:  2193  MISS: 29181  HIT %: 6.98986  MISS %: 93.0101  AVERAGE MISS PENALTY: 443.032
LLC2 PREFETCH  ACCESS: 1366551  HIT: 596085  MISS: 770466  HIT %: 43.6197  MISS %: 56.3803  AVERAGE MISS PENALTY: 533.445
LLC2 WRITEBACK ACCESS: 119108  HIT: 115798  MISS:  3310  HIT %: 97.221  MISS %: 2.77899  AVERAGE MISS PENALTY: 0

LLC3 TOTAL     ACCESS: 1828965  HIT: 885350  MISS: 943615  HIT %: 48.4072  MISS %: 51.5928  AVERAGE MISS PENALTY: 534.614
LLC3 LOAD      ACCESS: 327175  HIT: 180658  MISS: 146517  HIT %: 55.2175  MISS %: 44.7825  AVERAGE MISS PENALTY: 590.371
LLC3 RFO       ACCESS: 31393  HIT:  2150  MISS: 29243  HIT %: 6.84866  MISS %: 93.1513  AVERAGE MISS PENALTY: 435.942
[...]
LLC2 TOTAL     ACCESS: 1746854  HIT: 795557  MISS: 951297  HIT %: 45.5423  MISS %: 54.4577  AVERAGE MISS PENALTY: 533.235
LLC2 LOAD      ACCESS: 296313  HIT: 150106  MISS: 146207  HIT %: 50.6579  MISS %: 49.3421  AVERAGE MISS PENALTY: 574.544
LLC2 RFO       ACCESS: 31473  HIT:  1933  MISS: 29540  HIT %: 6.14177  MISS %: 93.8582  AVERAGE MISS PENALTY: 416.527
LLC2 PREFETCH  ACCESS: 1300585  HIT: 530143  MISS: 770442  HIT %: 40.7619  MISS %: 59.2381  AVERAGE MISS PENALTY: 533.406
LLC2 WRITEBACK ACCESS: 118483  HIT: 113375  MISS:  5108  HIT %: 95.6888  MISS %: 4.31117  AVERAGE MISS PENALTY: 0
LLC2 PREFETCH  REQUESTED:     0  ISSUED:     0  USEFUL: 267573  USELESS: 5900882
 USEFUL LOAD PREFETCHES:     267573 PREFETCH ISSUED TO LOWER LEVEL:   63467098  ACCURACY: 0.421593
 TIMELY PREFETCHES:     267573 LATE PREFETCHES: 0 DROPPED PREFETCHES: 0
LLC2 AVERAGE MISS LATENCY: 533.235 cycles
LLC3 TOTAL     ACCESS: 1737255  HIT: 791829  MISS: 945426  HIT %: 45.5793  MISS %: 54.4207  AVERAGE MISS PENALTY: 532.526
LLC3 LOAD      ACCESS: 302771  HIT: 155970  MISS: 146801  HIT %: 51.5142  MISS %: 48.4858  AVERAGE MISS PENALTY: 584.492
LLC3 RFO       ACCESS: 31490  HIT:  1912  MISS: 29578  HIT %: 6.07177  MISS %: 93.9282  AVERAGE MISS PENALTY: 419.804
LLC3 PREFETCH  ACCESS: 1284430  HIT: 520347  MISS: 764083  HIT %: 40.5119  MISS %: 59.4881  AVERAGE MISS PENALTY: 530.365
LLC3 WRITEBACK ACCESS: 118564  HIT: 113600  MISS:  4964  HIT %: 95.8132  MISS %: 4.18677  AVERAGE MISS PENALTY: 0
LLC3 PREFETCH  REQUESTED:     0  ISSUED:     0  USEFUL: 267398  USELESS: 5852283
 USEFUL LOAD PREFETCHES:     267398 PREFETCH ISSUED TO LOWER LEVEL:   58685500  ACCURACY: 0.455646
 TIMELY PREFETCHES:     267398 LATE PREFETCHES: 0 DROPPED PREFETCHES: 0
LLC3 AVERAGE MISS LATENCY: 532.526 cycles
LLC4 TOTAL     ACCESS: 1726147  HIT: 783007  MISS: 943140  HIT %: 45.3615  MISS %: 54.6385  AVERAGE MISS PENALTY: 514.436
LLC4 LOAD      ACCESS: 299533  HIT: 153829  MISS: 145704  HIT %: 51.3563  MISS %: 48.6437  AVERAGE MISS PENALTY: 564.361
LLC4 RFO       ACCESS: 31482  HIT:  1891  MISS: 29591  HIT %: 6.00661  MISS %: 93.9934  AVERAGE MISS PENALTY: 419.092
LLC4 PREFETCH  ACCESS: 1276879  HIT: 513984  MISS: 762895  HIT %: 40.2531  MISS %: 59.7469  AVERAGE MISS PENALTY: 511.937
LLC4 WRITEBACK ACCESS: 118253  HIT: 113303  MISS:  4950  HIT %: 95.8141  MISS %: 4.18594  AVERAGE MISS PENALTY: 0
LLC4 PREFETCH  REQUESTED:     0  ISSUED:     0  USEFUL: 269787  USELESS: 5838550
 USEFUL LOAD PREFETCHES:     269787 PREFETCH ISSUED TO LOWER LEVEL:   82025966  ACCURACY: 0.328904
 TIMELY PREFETCHES:     269787 LATE PREFETCHES: 0 DROPPED PREFETCHES: 0
LLC4 AVERAGE MISS LATENCY: 514.436 cycles
LLC5 TOTAL     ACCESS: 1713740  HIT: 773545  MISS: 940195  HIT %: 45.1378  MISS %: 54.8622  AVERAGE MISS PENALTY: 507.348
LLC5 LOAD      ACCESS: 295216  HIT: 150244  MISS: 144972  HIT %: 50.8929  MISS %: 49.1071  AVERAGE MISS PENALTY: 551.348
LLC5 RFO       ACCESS: 31476  HIT:  1904  MISS: 29572  HIT %: 6.04905  MISS %: 93.9509  AVERAGE MISS PENALTY: 408.343
LLC5 PREFETCH  ACCESS: 1268745  HIT: 507919  MISS: 760826  HIT %: 40.0332  MISS %: 59.9668  AVERAGE MISS PENALTY: 506.03
LLC5 WRITEBACK ACCESS: 118303  HIT: 113478  MISS:  4825  HIT %: 95.9215  MISS %: 4.07851  AVERAGE MISS PENALTY: 0
LLC5 PREFETCH  REQUESTED:     0  ISSUED:     0  USEFUL: 270379  USELESS: 5820255
 USEFUL LOAD PREFETCHES:     270379 PREFETCH ISSUED TO LOWER LEVEL:   76234390  ACCURACY: 0.354668
 TIMELY PREFETCHES:     270379 LATE PREFETCHES: 0 DROPPED PREFETCHES: 0
LLC5 AVERAGE MISS LATENCY: 507.348 cycles
LLC6 TOTAL     ACCESS: 1704524  HIT: 767684  MISS: 936840  HIT %: 45.038  MISS %: 54.962  AVERAGE MISS PENALTY: 514.113
LLC6 LOAD      ACCESS: 299377  HIT: 154044  MISS: 145333  HIT %: 51.4549  MISS %: 48.5451  AVERAGE MISS PENALTY: 557.019
LLC6 RFO       ACCESS: 31496  HIT:  1913  MISS: 29583  HIT %: 6.07379  MISS %: 93.9262  AVERAGE MISS PENALTY: 423.381
LLC6 PREFETCH  ACCESS: 1255463  HIT: 498303  MISS: 757160  HIT %: 39.6908  MISS %: 60.3092  AVERAGE MISS PENALTY: 512.657
LLC6 WRITEBACK ACCESS: 118188  HIT: 113424  MISS:  4764  HIT %: 95.9691  MISS %: 4.03087  AVERAGE MISS PENALTY: 0
LLC6 PREFETCH  REQUESTED:     0  ISSUED:     0  USEFUL: 269248  USELESS: 5792422
 USEFUL LOAD PREFETCHES:     269248 PREFETCH ISSUED TO LOWER LEVEL:  107454176  ACCURACY: 0.25057
 TIMELY PREFETCHES:     269248 LATE PREFETCHES: 0 DROPPED PREFETCHES: 0
LLC6 AVERAGE MISS LATENCY: 514.113 cycles
LLC7 TOTAL     ACCESS: 1687737  HIT: 754305  MISS: 933432  HIT %: 44.6933  MISS %: 55.3067  AVERAGE MISS PENALTY: 508.691
LLC7 LOAD      ACCESS: 294159  HIT: 148130  MISS: 146029  HIT %: 50.3571  MISS %: 49.6429  AVERAGE MISS PENALTY: 554.955
LLC7 RFO       ACCESS: 31510  HIT:  2056  MISS: 29454  HIT %: 6.52491  MISS %: 93.4751  AVERAGE MISS PENALTY: 415.804
LLC7 PREFETCH  ACCESS: 1243922  HIT: 490759  MISS: 753163  HIT %: 39.4526  MISS %: 60.5474  AVERAGE MISS PENALTY: 506.586
LLC7 WRITEBACK ACCESS: 118146  HIT: 113360  MISS:  4786  HIT %: 95.9491  MISS %: 4.05092  AVERAGE MISS PENALTY: 0
LLC7 PREFETCH  REQUESTED:     0  ISSUED:     0  USEFUL: 271524  USELESS: 5760452
 USEFUL LOAD PREFETCHES:     271524 PREFETCH ISSUED TO LOWER LEVEL:   98759190  ACCURACY: 0.274935
 TIMELY PREFETCHES:     271524 LATE PREFETCHES: 0 DROPPED PREFETCHES: 0
LLC7 AVERAGE MISS LATENCY: 508.691 cycles
ROI Average ROB Stall Cycles:	10.8426
ROI Total ROB Stalls Cycles:	735487948
ROI TOTAL ROB counter      :	67832931
ROI Average Load ROB Stall Cycles:	45.5214
ROI Total Load ROB Stalls Cycle  :	358707354
ROI Total Load ROB stalls Counter:	7879977
Major fault: 0 Minor fault: 29547

CPU 7 cumulative IPC: 0.228184 instructions: 200000000 cycles: 876486816
ITLB TOTAL     ACCESS: 29609452  HIT: 29609452  MISS:     0  HIT %:   100  MISS %:     0  AVERAGE MISS PENALTY: 0
ITLB LOAD      ACCESS: 29609452  HIT: 29609452  MISS:     0  HIT %:   100  MISS %:     0  AVERAGE MISS PENALTY: 0
ITLB RFO       ACCESS:     0  HIT:     0  MISS:     0  HIT %:     0  MISS %:     0  AVERAGE MISS PENALTY: 0
ITLB PREFETCH  ACCESS:     0  HIT:     0  MISS:     0  HIT %:     0  MISS %:     0  AVERAGE MISS PENALTY: 0
ITLB WRITEBACK ACCESS:     0  HIT:     0  MISS:     0  HIT %:     0  MISS %:     0  AVERAGE MISS PENALTY: 0
ITLB PREFETCH  REQUESTED:     0  ISSUED:     0  USEFUL:     0  USELESS:     0
 USEFUL LOAD PREFETCHES:          0 PREFETCH ISSUED TO LOWER LEVEL:          0  ACCURACY: -nan
 TIMELY PREFETCHES:          0 LATE PREFETCHES: 0 DROPPED PREFETCHES: 0
ITLB AVERAGE MISS LATENCY: -nan cycles
DTLB TOTAL     ACCESS: 38670305  HIT: 38144288  MISS: 526017  HIT %: 98.6397  MISS %: 1.36026  AVERAGE MISS PENALTY: 44.0844
DTLB LOAD      ACCESS: 32011633  HIT: 31496959  MISS: 514674  HIT %: 98.3922  MISS %: 1.60777  AVERAGE MISS PENALTY: 44.1502
DTLB RFO       ACCESS: 6658672  HIT: 6647329  MISS: 11343  HIT %: 99.8297  MISS %: 0.170349  AVERAGE MISS PENALTY: 41.1004
DTLB PREFETCH  ACCESS:     0  HIT:     0  MISS:     0  HIT %:     0  MISS %:     0  AVERAGE MISS PENALTY: 0
DTLB WRITEBACK ACCESS:     0  HIT:     0  MISS:     0  HIT %:     0  MISS %:     0  AVERAGE MISS PENALTY: 0
DTLB PREFETCH  REQUESTED:     0  ISSUED:     0  USEFUL:     0  USELESS:     0
 USEFUL LOAD PREFETCHES:          0 PREFETCH ISSUED TO LOWER LEVEL:          0  ACCURACY: -nan
 TIMELY PREFETCHES:          0 LATE PREFETCHES: 0 DROPPED PREFETCHES: 0
DTLB AVERAGE MISS LATENCY: 44.0844 cycles
STLB TOTAL     ACCESS: 526017  HIT: 354143  MISS: 171874  HIT %: 67.3254  MISS %: 32.6746  AVERAGE MISS PENALTY: 100
STLB LOAD      ACCESS: 514674  HIT: 346373  MISS: 168301  HIT %: 67.2995  MISS %: 32.7005  AVERAGE MISS PENALTY: 100
STLB RFO       ACCESS: 11343  HIT:  7770  MISS:  3573  HIT %: 68.5004  MISS %: 31.4996  AVERAGE MISS PENALTY: 100
STLB PREFETCH  ACCESS:     0  HIT:     0  MISS:     0  HIT %:     0  MISS %:     0  AVERAGE MISS PENALTY: 0
STLB WRITEBACK ACCESS:     0  HIT:     0  MISS:     0  HIT %:     0  MISS %:     0  AVERAGE MISS PENALTY: 0
STLB PREFETCH  REQUESTED:     0  ISSUED:     0  USEFUL:     0  USELESS:     0
 USEFUL LOAD PREFETCHES:          0 PREFETCH ISSUED TO LOWER LEVEL:          0  ACCURACY: -nan
 TIMELY PREFETCHES:          0 LATE PREFETCHES: 0 DROPPED PREFETCHES: 0
STLB AVERAGE MISS LATENCY: 100 cycles
L1D TOTAL     ACCESS: 49392202  HIT: 38071701  MISS: 11320501  HIT %: 77.0804  MISS %: 22.9196  AVERAGE MISS PENALTY: 1.42087e+07
L1D LOAD      ACCESS: 30473251  HIT: 27039350  MISS: 3433901  HIT %: 88.7314  MISS %: 11.2686  AVERAGE MISS PENALTY: 4.68403e+07
L1D RFO       ACCESS: 4879849  HIT: 4611962  MISS: 267887  HIT %: 94.5103  MISS %: 5.48966  AVERAGE MISS PENALTY: 9481.38
L1D PREFETCH  ACCESS: 14039102  HIT: 6420389  MISS: 7618713  HIT %: 45.7322  MISS %: 54.2678  AVERAGE MISS PENALTY: 234.759
L1D WRITEBACK ACCESS:     0  HIT:     0  MISS:     0  HIT %:     0  MISS %:     0  AVERAGE MISS PENALTY: 0
L1D PREFETCH  REQUESTED: 19678175  ISSUED: 16655075  USEFUL: 2530923  USELESS: 5087514
 USEFUL LOAD PREFETCHES:    2530923 PREFETCH ISSUED TO LOWER LEVEL:   60054134  ACCURACY: 4.2144
 TIMELY PREFETCHES:    2530923 LATE PREFETCHES: 492379 DROPPED PREFETCHES: 3023100
L1D AVERAGE MISS LATENCY: 459.73 cycles
L1I TOTAL     ACCESS: 45906697  HIT: 45906696  MISS:     1  HIT %:   100  MISS %: 2.17833e-06  AVERAGE MISS PENALTY: 219
L1I LOAD      ACCESS: 45906697  HIT: 45906696  MISS:     1  HIT %:   100  MISS %: 2.17833e-06  AVERAGE MISS PENALTY: 219
L1I RFO       ACCESS:     0  HIT:     0  MISS:     0  HIT %:     0  MISS %:     0  AVERAGE MISS PENALTY: 0
L1I PREFETCH  ACCESS:     0  HIT:     0  MISS:     0  HIT %:     0  MISS %:     0  AVERAGE MISS PENALTY: 0
L1I WRITEBACK ACCESS:     0  HIT:     0  MISS:     0  HIT %:     0  MISS %:     0  AVERAGE MISS PENALTY: 0
L1I PREFETCH  REQUESTED:     0  ISSUED:     0  USEFUL:     0  USELESS:     0
 USEFUL LOAD PREFETCHES:          0 PREFETCH ISSUED TO LOWER LEVEL:          0  ACCURACY: -nan
 TIMELY PREFETCHES:          0 LATE PREFETCHES: 0 DROPPED PREFETCHES: 0
L1I AVERAGE MISS LATENCY: 219 cycles
L2C TOTAL     ACCESS: 19747718  HIT: 6708719  MISS: 13038999  HIT %: 33.9721  MISS %: 66.0279  AVERAGE MISS PENALTY: 1.20446e+07
L2C LOAD      ACCESS: 3416265  HIT: 803189  MISS: 2613076  HIT %: 23.5107  MISS %: 76.4893  AVERAGE MISS PENALTY: 6.00997e+07
L2C RFO       ACCESS: 267884  HIT: 13067  MISS: 254817  HIT %: 4.87786  MISS %: 95.1221  AVERAGE MISS PENALTY: 1770.95
L2C PREFETCH  ACCESS: 15093780  HIT: 5126829  MISS: 9966951  HIT %: 33.9665  MISS %: 66.0335  AVERAGE MISS PENALTY: 343.328
L2C WRITEBACK ACCESS: 969789  HIT: 765634  MISS: 204155  HIT %: 78.9485  MISS %: 21.0515  AVERAGE MISS PENALTY: 0
L2C PREFETCH  REQUESTED: 17492187  ISSUED: 17290283  USEFUL: 481307  USELESS: 9483809
 USEFUL LOAD PREFETCHES:     481307 PREFETCH ISSUED TO LOWER LEVEL:   14118016  ACCURACY: 3.40917
 TIMELY PREFETCHES:     481307 LATE PREFETCHES: 585765 DROPPED PREFETCHES: 201904
L2C AVERAGE MISS LATENCY: 333.911 cycles
LLC0 TOTAL     ACCESS: 1724043  HIT: 791902  MISS: 932141  HIT %: 45.9328  MISS %: 54.0672  AVERAGE MISS PENALTY: 530.844
LLC0 LOAD      ACCESS: 336757  HIT: 156288  MISS: 180469  HIT %: 46.4097  MISS %: 53.5903  AVERAGE MISS PENALTY: 519.553
LLC0 RFO       ACCESS: 31854  HIT:  2548  MISS: 29306  HIT %: 7.999  MISS %: 92.001  AVERAGE MISS PENALTY: 422.702
LLC0 PREFETCH  ACCESS: 1236867  HIT: 520042  MISS: 716825  HIT %: 42.0451  MISS %: 57.9549  AVERAGE MISS PENALTY: 542.211
LLC0 WRITEBACK ACCESS: 118565  HIT: 113024  MISS:  5541  HIT %: 95.3266  MISS %: 4.67339  AVERAGE MISS PENALTY: 0
LLC0 PREFETCH  REQUESTED:     0  ISSUED:     0  USEFUL: 267037  USELESS: 5469787
 USEFUL LOAD PREFETCHES:     267037 PREFETCH ISSUED TO LOWER LEVEL:   48768133  ACCURACY: 0.547565
 TIMELY PREFETCHES:     267037 LATE PREFETCHES: 0 DROPPED PREFETCHES: 0
LLC0 AVERAGE MISS LATENCY: 530.844 cycles
Deadblocks : 1355680 Deadblock percentage : 751.198

LLC1 TOTAL     ACCESS: 1740001  HIT: 794742  MISS: 945259  HIT %: 45.6748  MISS %: 54.3252  AVERAGE MISS PENALTY: 532.762
LLC1 LOAD      ACCESS: 300628  HIT: 152029  MISS: 148599  HIT %: 50.5705  MISS %: 49.4295  AVERAGE MISS PENALTY: 573.34
LLC1 RFO       ACCESS: 31832  HIT:  2331  MISS: 29501  HIT %: 7.32282  MISS %: 92.6772  AVERAGE MISS PENALTY: 419.812
LLC1 PREFETCH  ACCESS: 1289299  HIT: 527318  MISS: 761981  HIT %: 40.8996  MISS %: 59.1004  AVERAGE MISS PENALTY: 532.842
LLC1 WRITEBACK ACCESS: 118242  HIT: 113064  MISS:  5178  HIT %: 95.6208  MISS %: 4.37915  AVERAGE MISS PENALTY: 0
LLC1 PREFETCH  REQUESTED:     0  ISSUED:     0  USEFUL: 266843  USELESS: 5831026
 USEFUL LOAD PREFETCHES:     266843 PREFETCH ISSUED TO LOWER LEVEL:   46308541  ACCURACY: 0.576228
 TIMELY PREFETCHES:     266843 LATE PREFETCHES: 0 DROPPED PREFETCHES: 0
LLC1 AVERAGE MISS LATENCY: 532.762 cycles
LLC2 TOTAL     ACCESS: 1747445  HIT: 795476  MISS: 951969  HIT %: 45.5222  MISS %: 54.4778  AVERAGE MISS PENALTY: 533.967
LLC2 LOAD      ACCESS: 296081  HIT: 149367  MISS: 146714  HIT %: 50.448  MISS %: 49.552  AVERAGE MISS PENALTY: 576.547
LLC2 RFO       ACCESS: 31840  HIT:  2219  MISS: 29621  HIT %: 6.96922  MISS %: 93.0308  AVERAGE MISS PENALTY: 425.11
LLC2 PREFETCH  ACCESS: 1300776  HIT: 530127  MISS: 770649  HIT %: 40.7547  MISS %: 59.2453  AVERAGE MISS PENALTY: 533.499
LLC2 WRITEBACK ACCESS: 118748  HIT: 113763  MISS:  4985  HIT %: 95.802  MISS %: 4.19797  AVERAGE MISS PENALTY: 0
LLC2 PREFETCH  REQUESTED:     0  ISSUED:     0  USEFUL: 267573  USELESS: 5900882
 USEFUL LOAD PREFETCHES:     267573 PREFETCH ISSUED TO LOWER LEVEL:   63467098  ACCURACY: 0.421593
 TIMELY PREFETCHES:     267573 LATE PREFETCHES: 0 DROPPED PREFETCHES: 0
LLC2 AVERAGE MISS LATENCY: 533.967 cycles
LLC3 TOTAL     ACCESS: 1737701  HIT: 790743  MISS: 946958  HIT %: 45.5051  MISS %: 54.4949  AVERAGE MISS PENALTY: 532.529
LLC3 LOAD      ACCESS: 302648  HIT: 155548  MISS: 147100  HIT %: 51.3957  MISS %: 48.6043  AVERAGE MISS PENALTY: 584.334
LLC3 RFO       ACCESS: 31862  HIT:  2162  MISS: 29700  HIT %: 6.78551  MISS %: 93.2145  AVERAGE MISS PENALTY: 422.806
LLC3 PREFETCH  ACCESS: 1284377  HIT: 519096  MISS: 765281  HIT %: 40.4162  MISS %: 59.5838  AVERAGE MISS PENALTY: 530.223
LLC3 WRITEBACK ACCESS: 118814  HIT: 113937  MISS:  4877  HIT %: 95.8953  MISS %: 4.10474  AVERAGE MISS PENALTY: 0
LLC3 PREFETCH  REQUESTED:     0  ISSUED:     0  USEFUL: 267398  USELESS: 5852283
 USEFUL LOAD PREFETCHES:     267398 PREFETCH ISSUED TO LOWER LEVEL:   58685500  ACCURACY: 0.455646
 TIMELY PREFETCHES:     267398 LATE PREFETCHES: 0 DROPPED PREFETCHES: 0
LLC3 AVERAGE MISS LATENCY: 532.529 cycles
LLC4 TOTAL     ACCESS: 1726195  HIT: 782449  MISS: 943746  HIT %: 45.328  MISS %: 54.672  AVERAGE MISS PENALTY: 514.859
LLC4 LOAD      ACCESS: 299272  HIT: 153743  MISS: 145529  HIT %: 51.3723  MISS %: 48.6277  AVERAGE MISS PENALTY: 564.123
LLC4 RFO       ACCESS: 31856  HIT:  2203  MISS: 29653  HIT %: 6.91549  MISS %: 93.0845  AVERAGE MISS PENALTY: 424.479
LLC4 PREFETCH  ACCESS: 1276584  HIT: 512899  MISS: 763685  HIT %: 40.1775  MISS %: 59.8225  AVERAGE MISS PENALTY: 512.27
LLC4 WRITEBACK ACCESS: 118483  HIT: 113604  MISS:  4879  HIT %: 95.8821  MISS %: 4.11789  AVERAGE MISS PENALTY: 0
LLC4 PREFETCH  REQUESTED:     0  ISSUED:     0  USEFUL: 269787  USELESS: 5838550
 USEFUL LOAD PREFETCHES:     269787 PREFETCH ISSUED TO LOWER LEVEL:   82025966  ACCURACY: 0.328904
 TIMELY PREFETCHES:     269787 LATE PREFETCHES: 0 DROPPED PREFETCHES: 0
LLC4 AVERAGE MISS LATENCY: 514.859 cycles
LLC5 TOTAL     ACCESS: 1714384  HIT: 772882  MISS: 941502  HIT %: 45.0822  MISS %: 54.9178  AVERAGE MISS PENALTY: 507.734
LLC5 LOAD      ACCESS: 295386  HIT: 149907  MISS: 145479  HIT %: 50.7495  MISS %: 49.2505  AVERAGE MISS PENALTY: 552.629
LLC5 RFO       ACCESS: 31847  HIT:  2220  MISS: 29627  HIT %: 6.97083  MISS %: 93.0292  AVERAGE MISS PENALTY: 411.14
LLC5 PREFETCH  ACCESS: 1268601  HIT: 506926  MISS: 761675  HIT %: 39.9595  MISS %: 60.0405  AVERAGE MISS PENALTY: 506.063
LLC5 WRITEBACK ACCESS: 118550  HIT: 113829  MISS:  4721  HIT %: 96.0177  MISS %: 3.98229  AVERAGE MISS PENALTY: 0
LLC5 PREFETCH  REQUESTED:     0  ISSUED:     0  USEFUL: 270379  USELESS: 5820255
 USEFUL LOAD PREFETCHES:     270379 PREFETCH ISSUED TO LOWER LEVEL:   76234390  ACCURACY: 0.354668
 TIMELY PREFETCHES:     270379 LATE PREFETCHES: 0 DROPPED PREFETCHES: 0
LLC5 AVERAGE MISS LATENCY: 507.734 cycles
LLC6 TOTAL     ACCESS: 1705263  HIT: 768565  MISS: 936698  HIT %: 45.0702  MISS %: 54.9298  AVERAGE MISS PENALTY: 514.92
LLC6 LOAD      ACCESS: 299411  HIT: 154312  MISS: 145099  HIT %: 51.5385  MISS %: 48.4615  AVERAGE MISS PENALTY: 559.13
LLC6 RFO       ACCESS: 31853  HIT:  2216  MISS: 29637  HIT %: 6.95696  MISS %: 93.043  AVERAGE MISS PENALTY: 425.823
LLC6 PREFETCH  ACCESS: 1255491  HIT: 498228  MISS: 757263  HIT %: 39.6839  MISS %: 60.3161  AVERAGE MISS PENALTY: 513.131
LLC6 WRITEBACK ACCESS: 118508  HIT: 113809  MISS:  4699  HIT %: 96.0349  MISS %: 3.96513  AVERAGE MISS PENALTY: 0
LLC6 PREFETCH  REQUESTED:     0  ISSUED:     0  USEFUL: 269248  USELESS: 5792422
 USEFUL LOAD PREFETCHES:     269248 PREFETCH ISSUED TO LOWER LEVEL:  107454176  ACCURACY: 0.25057
 TIMELY PREFETCHES:     269248 LATE PREFETCHES: 0 DROPPED PREFETCHES: 0
LLC6 AVERAGE MISS LATENCY: 514.92 cycles
LLC7 TOTAL     ACCESS: 1688055  HIT: 753977  MISS: 934078  HIT %: 44.6654  MISS %: 55.3346  AVERAGE MISS PENALTY: 508.086
LLC7 LOAD      ACCESS: 293843  HIT: 147924  MISS: 145919  HIT %: 50.3412  MISS %: 49.6588  AVERAGE MISS PENALTY: 551.728
LLC7 RFO       ACCESS: 31872  HIT:  2318  MISS: 29554  HIT %: 7.27284  MISS %: 92.7272  AVERAGE MISS PENALTY: 415.145
LLC7 PREFETCH  ACCESS: 1243881  HIT: 490000  MISS: 753881  HIT %: 39.3928  MISS %: 60.6072  AVERAGE MISS PENALTY: 506.466
LLC7 WRITEBACK ACCESS: 118459  HIT: 113735  MISS:  4724  HIT %: 96.0121  MISS %: 3.98788  AVERAGE MISS PENALTY: 0
LLC7 PREFETCH  REQUESTED:     0  ISSUED:     0  USEFUL: 271524  USELESS: 5760452
 USEFUL LOAD PREFETCHES:     271524 PREFETCH ISSUED TO LOWER LEVEL:   98759190  ACCURACY: 0.274935
 TIMELY PREFETCHES:     271524 LATE PREFETCHES: 0 DROPPED PREFETCHES: 0
LLC7 AVERAGE MISS LATENCY: 508.085 cycles
ROI Average ROB Stall Cycles:	10.8431
ROI Total ROB Stalls Cycles:	735479469
ROI TOTAL ROB counter      :	67829574
ROI Average Load ROB Stall Cycles:	45.5088
ROI Total Load ROB Stalls Cycle  :	358567713
ROI Total Load ROB stalls Counter:	7879078
Major fault: 0 Minor fault: 29547








Interconnect Stats 
LINK 0 BW : 0LINK 1 BW : 0LINK 2 BW : 0LINK 3 BW : 0LINK 4 BW : 0LINK 5 BW : 0LINK 6 BW : 0LINK 7 BW : 0
DRAM Statistics
 CHANNEL 0
 RQ ROW_BUFFER_HIT: 8569827  ROW_BUFFER_MISS: 21389111
 DBUS_CONGESTED: 20249430
 WQ ROW_BUFFER_HIT: 211842  ROW_BUFFER_MISS: 2955609  FULL:     0

 CHANNEL 1
 RQ ROW_BUFFER_HIT: 8510396  ROW_BUFFER_MISS: 21464525
 DBUS_CONGESTED: 20249430
 WQ ROW_BUFFER_HIT: 209719  ROW_BUFFER_MISS: 2957736  FULL:     0

 AVG_CONGESTED_CYCLE: 5
DRAM PAGES: 2097152
Allocated PAGES: 236358
L2C destructor called
L1D destructor called
L1I destructor called
STLB destructor called
DTLB destructor called
ITLB destructor called
L2C destructor called
L1D destructor called
L1I destructor called
STLB destructor called
DTLB destructor called
ITLB destructor called
L2C destructor called
L1D destructor called
L1I destructor called
STLB destructor called
DTLB destructor called
ITLB destructor called
L2C destructor called
L1D destructor called
L1I destructor called
STLB destructor called
DTLB destructor called
ITLB destructor called
L2C destructor called
L1D destructor called
L1I destructor called
STLB destructor called
DTLB destructor called
ITLB destructor called
L2C destructor called
L1D destructor called
L1I destructor called
STLB destructor called
DTLB destructor called
ITLB destructor called
L2C destructor called
L1D destructor called
L1I destructor called
STLB destructor called
DTLB destructor called
ITLB destructor called
L2C destructor called
L1D destructor called
L1I destructor called
STLB destructor called
DTLB destructor called
ITLB destructor called
