
*** ChampSim Multicore Out-of-Order Simulator ***

Warmup Instructions: 200000000
Simulation Instructions: 200000000
Number of CPUs: 8
threads:1

L1I Configuration:
L1I_SET:64
L1I_WAY:8
L1I_RQ_SIZE:64
L1I_WQ_SIZE:64
L1I_PQ_SIZE:8
L1I_MSHR_SIZE:8

L1D Configuration:
L1D_SET:64
L1D_WAY:12
L1D_RQ_SIZE:64
L1D_WQ_SIZE:64
L1D_PQ_SIZE:8
L1D_MSHR_SIZE:16

L2C Configuration:
L2C_SET:1024
L2C_WAY:8
L2C_RQ_SIZE:32
L2C_WQ_SIZE:32
L2C_PQ_SIZE:16
L2C_MSHR_SIZE:32

LLC Configuration:
LLC_SET:2048
LLC_WAY:16
LLC SLICES:8
LLC_RQ_SIZE:64
LLC_WQ_SIZE:64
LLC_PQ_SIZE:32
LLC_MSHR_SIZE:64

Interconnect OFF
Attacker deprioritize is: OFF
Off-chip DRAM Size: 8192 MB Channels: 2 Width: 64-bit Data Rate: 3200 MT/s
PAGE SIZE in KB: 4.000000 
PAGE SIZE in MB: 0.003906 
PAGE offset in bits: 12 
CEASER-S_LLC:0
MIRAGE : 0
CEASER_LATENCY:3
REMAP : OFF
Partitions : 1
Multi-Step : OFF
BFS : OFF

CPU 0 runs /home/anubhav/gap/pr-10.trace.gz
CPU 1 runs /home/anubhav/gap/pr-10.trace.gz
CPU 2 runs /home/anubhav/gap/pr-10.trace.gz
CPU 3 runs /home/anubhav/gap/pr-10.trace.gz
CPU 4 runs /home/anubhav/gap/pr-10.trace.gz
CPU 5 runs /home/anubhav/gap/pr-10.trace.gz
CPU 6 runs /home/anubhav/gap/pr-10.trace.gz
CPU 7 runs /home/anubhav/gap/pr-10.trace.gz
CPU 0 Bimodal branch predictor
Initialize Hawkeye state
Initialize Hawkeye state
Initialize Hawkeye state
Initialize Hawkeye state
Initialize Hawkeye state
Initialize Hawkeye state
Initialize Hawkeye state
Initialize Hawkeye state
CPU 1 Bimodal branch predictor
Initialize Hawkeye state
Initialize Hawkeye state
Initialize Hawkeye state
Initialize Hawkeye state
Initialize Hawkeye state
Initialize Hawkeye state
Initialize Hawkeye state
Initialize Hawkeye state
CPU 2 Bimodal branch predictor
Initialize Hawkeye state
Initialize Hawkeye state
Initialize Hawkeye state
Initialize Hawkeye state
Initialize Hawkeye state
Initialize Hawkeye state
Initialize Hawkeye state
Initialize Hawkeye state
CPU 3 Bimodal branch predictor
Initialize Hawkeye state
Initialize Hawkeye state
Initialize Hawkeye state
Initialize Hawkeye state
Initialize Hawkeye state
Initialize Hawkeye state
Initialize Hawkeye state
Initialize Hawkeye state
CPU 4 Bimodal branch predictor
Initialize Hawkeye state
Initialize Hawkeye state
Initialize Hawkeye state
Initialize Hawkeye state
Initialize Hawkeye state
Initialize Hawkeye state
Initialize Hawkeye state
Initialize Hawkeye state
CPU 5 Bimodal branch predictor
Initialize Hawkeye state
Initialize Hawkeye state
Initialize Hawkeye state
Initialize Hawkeye state
Initialize Hawkeye state
Initialize Hawkeye state
Initialize Hawkeye state
Initialize Hawkeye state
CPU 6 Bimodal branch predictor
Initialize Hawkeye state
Initialize Hawkeye state
Initialize Hawkeye state
Initialize Hawkeye state
Initialize Hawkeye state
Initialize Hawkeye state
Initialize Hawkeye state
Initialize Hawkeye state
CPU 7 Bimodal branch predictor
Initialize Hawkeye state
Initialize Hawkeye state
Initialize Hawkeye state
Initialize Hawkeye state
Initialize Hawkeye state
Initialize Hawkeye state
Initialize Hawkeye state
Initialize Hawkeye state
Heartbeat CPU 0 instructions: 10000001 cycles: 3641890 heartbeat IPC: 2.74583 cumulative IPC: 2.74583 (Simulation time: 0 hr 23 min 8 sec) 
 Total Blocks : 262144 Invalid Blocks : 1443
Heartbeat CPU 1 instructions: 10000001 cycles: 3641894 heartbeat IPC: 2.74582 cumulative IPC: 2.74582 (Simulation time: 0 hr 23 min 8 sec) 
 Total Blocks : 262144 Invalid Blocks : 1443
Heartbeat CPU 2 instructions: 10000001 cycles: 3641900 heartbeat IPC: 2.74582 cumulative IPC: 2.74582 (Simulation time: 0 hr 23 min 8 sec) 
 Total Blocks : 262144 Invalid Blocks : 1443
Heartbeat CPU 3 instructions: 10000001 cycles: 3641902 heartbeat IPC: 2.74582 cumulative IPC: 2.74582 (Simulation time: 0 hr 23 min 8 sec) 
 Total Blocks : 262144 Invalid Blocks : 1443
Heartbeat CPU 4 instructions: 10000001 cycles: 3641904 heartbeat IPC: 2.74582 cumulative IPC: 2.74582 (Simulation time: 0 hr 23 min 8 sec) 
 Total Blocks : 262144 Invalid Blocks : 1443
Heartbeat CPU 5 instructions: 10000001 cycles: 3641910 heartbeat IPC: 2.74581 cumulative IPC: 2.74581 (Simulation time: 0 hr 23 min 8 sec) 
 Total Blocks : 262144 Invalid Blocks : 1443
Heartbeat CPU 6 instructions: 10000001 cycles: 3641913 heartbeat IPC: 2.74581 cumulative IPC: 2.74581 (Simulation time: 0 hr 23 min 8 sec) 
 Total Blocks : 262144 Invalid Blocks : 1443
Heartbeat CPU 7 instructions: 10000001 cycles: 3641916 heartbeat IPC: 2.74581 cumulative IPC: 2.74581 (Simulation time: 0 hr 23 min 8 sec) 
 Total Blocks : 262144 Invalid Blocks : 1443
Heartbeat CPU 0 instructions: 20000003 cycles: 14327192 heartbeat IPC: 0.935865 cumulative IPC: 1.39595 (Simulation time: 0 hr 58 min 27 sec) 
 Total Blocks : 262144 Invalid Blocks : 268
Heartbeat CPU 1 instructions: 20000003 cycles: 14352560 heartbeat IPC: 0.933649 cumulative IPC: 1.39348 (Simulation time: 0 hr 58 min 32 sec) 
 Total Blocks : 262144 Invalid Blocks : 268
Heartbeat CPU 2 instructions: 20000003 cycles: 14373755 heartbeat IPC: 0.931806 cumulative IPC: 1.39143 (Simulation time: 0 hr 58 min 36 sec) 
 Total Blocks : 262144 Invalid Blocks : 268
Heartbeat CPU 3 instructions: 20000003 cycles: 14399189 heartbeat IPC: 0.929603 cumulative IPC: 1.38897 (Simulation time: 0 hr 58 min 41 sec) 
 Total Blocks : 262144 Invalid Blocks : 267
Heartbeat CPU 4 instructions: 20000003 cycles: 14418708 heartbeat IPC: 0.927919 cumulative IPC: 1.38709 (Simulation time: 0 hr 58 min 45 sec) 
 Total Blocks : 262144 Invalid Blocks : 264
Heartbeat CPU 5 instructions: 20000003 cycles: 14440041 heartbeat IPC: 0.926086 cumulative IPC: 1.38504 (Simulation time: 0 hr 58 min 50 sec) 
 Total Blocks : 262144 Invalid Blocks : 263
Heartbeat CPU 6 instructions: 20000003 cycles: 14461780 heartbeat IPC: 0.924226 cumulative IPC: 1.38296 (Simulation time: 0 hr 58 min 54 sec) 
 Total Blocks : 262144 Invalid Blocks : 263
Heartbeat CPU 7 instructions: 20000003 cycles: 14482976 heartbeat IPC: 0.922419 cumulative IPC: 1.38093 (Simulation time: 0 hr 58 min 58 sec) 
 Total Blocks : 262144 Invalid Blocks : 262
Heartbeat CPU 0 instructions: 30000002 cycles: 27957397 heartbeat IPC: 0.733665 cumulative IPC: 1.07306 (Simulation time: 1 hr 46 min 9 sec) 
 Total Blocks : 262144 Invalid Blocks : 39
Heartbeat CPU 1 instructions: 30000002 cycles: 28022479 heartbeat IPC: 0.731533 cumulative IPC: 1.07057 (Simulation time: 1 hr 46 min 24 sec) 
 Total Blocks : 262144 Invalid Blocks : 38
Heartbeat CPU 2 instructions: 30000002 cycles: 28083315 heartbeat IPC: 0.729418 cumulative IPC: 1.06825 (Simulation time: 1 hr 46 min 37 sec) 
 Total Blocks : 262144 Invalid Blocks : 38
Heartbeat CPU 3 instructions: 30000002 cycles: 28148269 heartbeat IPC: 0.727321 cumulative IPC: 1.06578 (Simulation time: 1 hr 46 min 52 sec) 
 Total Blocks : 262144 Invalid Blocks : 38
Heartbeat CPU 4 instructions: 30000002 cycles: 28204840 heartbeat IPC: 0.725367 cumulative IPC: 1.06365 (Simulation time: 1 hr 47 min 4 sec) 
 Total Blocks : 262144 Invalid Blocks : 37
Heartbeat CPU 5 instructions: 30000002 cycles: 28262017 heartbeat IPC: 0.723485 cumulative IPC: 1.0615 (Simulation time: 1 hr 47 min 17 sec) 
 Total Blocks : 262144 Invalid Blocks : 37
Heartbeat CPU 6 instructions: 30000002 cycles: 28317074 heartbeat IPC: 0.721746 cumulative IPC: 1.05943 (Simulation time: 1 hr 47 min 29 sec) 
 Total Blocks : 262144 Invalid Blocks : 37
Heartbeat CPU 7 instructions: 30000002 cycles: 28370146 heartbeat IPC: 0.720089 cumulative IPC: 1.05745 (Simulation time: 1 hr 47 min 42 sec) 
 Total Blocks : 262144 Invalid Blocks : 37
Heartbeat CPU 0 instructions: 40000000 cycles: 41588901 heartbeat IPC: 0.733595 cumulative IPC: 0.961795 (Simulation time: 2 hr 33 min 31 sec) 
 Total Blocks : 262144 Invalid Blocks : 7
Heartbeat CPU 1 instructions: 40000000 cycles: 41695733 heartbeat IPC: 0.731355 cumulative IPC: 0.959331 (Simulation time: 2 hr 33 min 49 sec) 
 Total Blocks : 262144 Invalid Blocks : 6
Heartbeat CPU 2 instructions: 40000000 cycles: 41795287 heartbeat IPC: 0.72929 cumulative IPC: 0.957046 (Simulation time: 2 hr 34 min 5 sec) 
 Total Blocks : 262144 Invalid Blocks : 6
Heartbeat CPU 3 instructions: 40000000 cycles: 41896418 heartbeat IPC: 0.727371 cumulative IPC: 0.954736 (Simulation time: 2 hr 34 min 27 sec) 
 Total Blocks : 262144 Invalid Blocks : 5
Heartbeat CPU 4 instructions: 40000000 cycles: 41989859 heartbeat IPC: 0.725425 cumulative IPC: 0.952611 (Simulation time: 2 hr 34 min 50 sec) 
 Total Blocks : 262144 Invalid Blocks : 5
Heartbeat CPU 5 instructions: 40000000 cycles: 42079724 heartbeat IPC: 0.723709 cumulative IPC: 0.950577 (Simulation time: 2 hr 35 min 12 sec) 
 Total Blocks : 262144 Invalid Blocks : 5
Heartbeat CPU 6 instructions: 40000000 cycles: 42167951 heartbeat IPC: 0.721976 cumulative IPC: 0.948588 (Simulation time: 2 hr 35 min 34 sec) 
 Total Blocks : 262144 Invalid Blocks : 5
Heartbeat CPU 7 instructions: 40000000 cycles: 42255471 heartbeat IPC: 0.720185 cumulative IPC: 0.946623 (Simulation time: 2 hr 35 min 56 sec) 
 Total Blocks : 262144 Invalid Blocks : 5
Heartbeat CPU 0 instructions: 50000000 cycles: 54842192 heartbeat IPC: 0.75453 cumulative IPC: 0.911707 (Simulation time: 3 hr 20 min 12 sec) 
 Total Blocks : 262144 Invalid Blocks : 2
Heartbeat CPU 1 instructions: 50000000 cycles: 54990169 heartbeat IPC: 0.752194 cumulative IPC: 0.909253 (Simulation time: 3 hr 20 min 47 sec) 
 Total Blocks : 262144 Invalid Blocks : 2
Heartbeat CPU 2 instructions: 50000000 cycles: 55129838 heartbeat IPC: 0.749932 cumulative IPC: 0.90695 (Simulation time: 3 hr 21 min 21 sec) 
 Total Blocks : 262144 Invalid Blocks : 2
Heartbeat CPU 3 instructions: 50000000 cycles: 55270039 heartbeat IPC: 0.747741 cumulative IPC: 0.904649 (Simulation time: 3 hr 21 min 56 sec) 
 Total Blocks : 262144 Invalid Blocks : 2
Heartbeat CPU 4 instructions: 50000000 cycles: 55403284 heartbeat IPC: 0.745522 cumulative IPC: 0.902474 (Simulation time: 3 hr 22 min 29 sec) 
 Total Blocks : 262144 Invalid Blocks : 2
Heartbeat CPU 5 instructions: 50000000 cycles: 55526682 heartbeat IPC: 0.743663 cumulative IPC: 0.900468 (Simulation time: 3 hr 23 min 0 sec) 
 Total Blocks : 262144 Invalid Blocks : 2
Heartbeat CPU 6 instructions: 50000000 cycles: 55651680 heartbeat IPC: 0.741635 cumulative IPC: 0.898445 (Simulation time: 3 hr 23 min 32 sec) 
 Total Blocks : 262144 Invalid Blocks : 2
Heartbeat CPU 7 instructions: 50000000 cycles: 55773844 heartbeat IPC: 0.739734 cumulative IPC: 0.896478 (Simulation time: 3 hr 24 min 2 sec) 
 Total Blocks : 262144 Invalid Blocks : 2
Heartbeat CPU 0 instructions: 60000000 cycles: 68594568 heartbeat IPC: 0.727147 cumulative IPC: 0.874705 (Simulation time: 4 hr 17 min 6 sec) 
 Total Blocks : 262144 Invalid Blocks : 0
Heartbeat CPU 1 instructions: 60000000 cycles: 68780611 heartbeat IPC: 0.72514 cumulative IPC: 0.872339 (Simulation time: 4 hr 17 min 52 sec) 
 Total Blocks : 262144 Invalid Blocks : 0
Heartbeat CPU 2 instructions: 60000000 cycles: 68958523 heartbeat IPC: 0.723135 cumulative IPC: 0.870088 (Simulation time: 4 hr 18 min 36 sec) 
 Total Blocks : 262144 Invalid Blocks : 0
Heartbeat CPU 3 instructions: 60000000 cycles: 69137113 heartbeat IPC: 0.721133 cumulative IPC: 0.867841 (Simulation time: 4 hr 19 min 20 sec) 
 Total Blocks : 262144 Invalid Blocks : 0
Heartbeat CPU 4 instructions: 60000000 cycles: 69304995 heartbeat IPC: 0.719336 cumulative IPC: 0.865738 (Simulation time: 4 hr 20 min 1 sec) 
 Total Blocks : 262144 Invalid Blocks : 0
Heartbeat CPU 5 instructions: 60000000 cycles: 69464244 heartbeat IPC: 0.717486 cumulative IPC: 0.863754 (Simulation time: 4 hr 20 min 41 sec) 
 Total Blocks : 262144 Invalid Blocks : 0
Heartbeat CPU 6 instructions: 60000000 cycles: 69622906 heartbeat IPC: 0.715757 cumulative IPC: 0.861785 (Simulation time: 4 hr 21 min 20 sec) 
 Total Blocks : 262144 Invalid Blocks : 0
Heartbeat CPU 7 instructions: 60000000 cycles: 69778299 heartbeat IPC: 0.714059 cumulative IPC: 0.859866 (Simulation time: 4 hr 21 min 59 sec) 
 Total Blocks : 262144 Invalid Blocks : 0
Heartbeat CPU 0 instructions: 70000000 cycles: 82226650 heartbeat IPC: 0.733564 cumulative IPC: 0.851305 (Simulation time: 5 hr 17 min 5 sec) 
 Total Blocks : 262144 Invalid Blocks : 0
Heartbeat CPU 1 instructions: 70000000 cycles: 82453889 heartbeat IPC: 0.731354 cumulative IPC: 0.848959 (Simulation time: 5 hr 18 min 8 sec) 
 Total Blocks : 262144 Invalid Blocks : 0
Heartbeat CPU 2 instructions: 70000000 cycles: 82669782 heartbeat IPC: 0.729328 cumulative IPC: 0.846742 (Simulation time: 5 hr 19 min 10 sec) 
 Total Blocks : 262144 Invalid Blocks : 0
Heartbeat CPU 3 instructions: 70000000 cycles: 82886541 heartbeat IPC: 0.727303 cumulative IPC: 0.844528 (Simulation time: 5 hr 20 min 13 sec) 
 Total Blocks : 262144 Invalid Blocks : 0
Heartbeat CPU 4 instructions: 70000000 cycles: 83092560 heartbeat IPC: 0.725291 cumulative IPC: 0.842434 (Simulation time: 5 hr 21 min 12 sec) 
 Total Blocks : 262144 Invalid Blocks : 0
Heartbeat CPU 5 instructions: 70000000 cycles: 83284391 heartbeat IPC: 0.723581 cumulative IPC: 0.840494 (Simulation time: 5 hr 22 min 8 sec) 
 Total Blocks : 262144 Invalid Blocks : 0
Heartbeat CPU 6 instructions: 70000000 cycles: 83479061 heartbeat IPC: 0.721701 cumulative IPC: 0.838534 (Simulation time: 5 hr 23 min 4 sec) 
 Total Blocks : 262144 Invalid Blocks : 0
Heartbeat CPU 7 instructions: 70000000 cycles: 83667987 heartbeat IPC: 0.719959 cumulative IPC: 0.83664 (Simulation time: 5 hr 23 min 58 sec) 
 Total Blocks : 262144 Invalid Blocks : 0
Heartbeat CPU 0 instructions: 80000000 cycles: 95784631 heartbeat IPC: 0.737573 cumulative IPC: 0.835207 (Simulation time: 6 hr 21 min 34 sec) 
 Total Blocks : 262144 Invalid Blocks : 0
Heartbeat CPU 1 instructions: 80000000 cycles: 96052589 heartbeat IPC: 0.735364 cumulative IPC: 0.832877 (Simulation time: 6 hr 22 min 54 sec) 
 Total Blocks : 262144 Invalid Blocks : 0
Heartbeat CPU 2 instructions: 80000000 cycles: 96307863 heartbeat IPC: 0.733241 cumulative IPC: 0.830669 (Simulation time: 6 hr 24 min 10 sec) 
 Total Blocks : 262144 Invalid Blocks : 0
Heartbeat CPU 3 instructions: 80000000 cycles: 96560645 heartbeat IPC: 0.731309 cumulative IPC: 0.828495 (Simulation time: 6 hr 25 min 26 sec) 
 Total Blocks : 262144 Invalid Blocks : 0
Heartbeat CPU 4 instructions: 80000000 cycles: 96802944 heartbeat IPC: 0.729374 cumulative IPC: 0.826421 (Simulation time: 6 hr 26 min 39 sec) 
 Total Blocks : 262144 Invalid Blocks : 0
Heartbeat CPU 5 instructions: 80000000 cycles: 97029466 heartbeat IPC: 0.727533 cumulative IPC: 0.824492 (Simulation time: 6 hr 27 min 47 sec) 
 Total Blocks : 262144 Invalid Blocks : 0
Heartbeat CPU 6 instructions: 80000000 cycles: 97260622 heartbeat IPC: 0.725607 cumulative IPC: 0.822532 (Simulation time: 6 hr 28 min 58 sec) 
 Total Blocks : 262144 Invalid Blocks : 0
Heartbeat CPU 7 instructions: 80000000 cycles: 97484958 heartbeat IPC: 0.723748 cumulative IPC: 0.820639 (Simulation time: 6 hr 30 min 4 sec) 
 Total Blocks : 262144 Invalid Blocks : 0
Heartbeat CPU 0 instructions: 90000000 cycles: 109572392 heartbeat IPC: 0.725281 cumulative IPC: 0.821375 (Simulation time: 7 hr 30 min 2 sec) 
 Total Blocks : 262144 Invalid Blocks : 0
Heartbeat CPU 1 instructions: 90000000 cycles: 109877770 heartbeat IPC: 0.723318 cumulative IPC: 0.819092 (Simulation time: 7 hr 31 min 33 sec) 
 Total Blocks : 262144 Invalid Blocks : 0
Heartbeat CPU 2 instructions: 90000000 cycles: 110174141 heartbeat IPC: 0.721174 cumulative IPC: 0.816889 (Simulation time: 7 hr 33 min 3 sec) 
 Total Blocks : 262144 Invalid Blocks : 0
Heartbeat CPU 3 instructions: 90000000 cycles: 110464003 heartbeat IPC: 0.719251 cumulative IPC: 0.814745 (Simulation time: 7 hr 34 min 18 sec) 
 Total Blocks : 262144 Invalid Blocks : 0
Heartbeat CPU 4 instructions: 90000000 cycles: 110743619 heartbeat IPC: 0.717325 cumulative IPC: 0.812688 (Simulation time: 7 hr 35 min 18 sec) 
 Total Blocks : 262144 Invalid Blocks : 0
Heartbeat CPU 5 instructions: 90000000 cycles: 111005607 heartbeat IPC: 0.715505 cumulative IPC: 0.81077 (Simulation time: 7 hr 36 min 14 sec) 
 Total Blocks : 262144 Invalid Blocks : 0
Heartbeat CPU 6 instructions: 90000000 cycles: 111273172 heartbeat IPC: 0.713646 cumulative IPC: 0.80882 (Simulation time: 7 hr 37 min 12 sec) 
 Total Blocks : 262144 Invalid Blocks : 0
Heartbeat CPU 7 instructions: 90000000 cycles: 111530105 heartbeat IPC: 0.71199 cumulative IPC: 0.806957 (Simulation time: 7 hr 38 min 7 sec) 
 Total Blocks : 262144 Invalid Blocks : 0
Heartbeat CPU 0 instructions: 100000001 cycles: 123374216 heartbeat IPC: 0.724542 cumulative IPC: 0.810542 (Simulation time: 8 hr 21 min 48 sec) 
 Total Blocks : 262144 Invalid Blocks : 0
Heartbeat CPU 1 instructions: 100000001 cycles: 123722975 heartbeat IPC: 0.722272 cumulative IPC: 0.808257 (Simulation time: 8 hr 23 min 7 sec) 
 Total Blocks : 262144 Invalid Blocks : 0
Heartbeat CPU 2 instructions: 100000001 cycles: 124062417 heartbeat IPC: 0.720032 cumulative IPC: 0.806046 (Simulation time: 8 hr 24 min 24 sec) 
 Total Blocks : 262144 Invalid Blocks : 0
Heartbeat CPU 3 instructions: 100000001 cycles: 124390592 heartbeat IPC: 0.718051 cumulative IPC: 0.803919 (Simulation time: 8 hr 25 min 38 sec) 
 Total Blocks : 262144 Invalid Blocks : 0
Heartbeat CPU 4 instructions: 100000001 cycles: 124707024 heartbeat IPC: 0.716158 cumulative IPC: 0.801879 (Simulation time: 8 hr 26 min 49 sec) 
 Total Blocks : 262144 Invalid Blocks : 0
Heartbeat CPU 5 instructions: 100000001 cycles: 125004459 heartbeat IPC: 0.714344 cumulative IPC: 0.799971 (Simulation time: 8 hr 27 min 56 sec) 
 Total Blocks : 262144 Invalid Blocks : 0
Heartbeat CPU 6 instructions: 100000001 cycles: 125308333 heartbeat IPC: 0.712496 cumulative IPC: 0.798032 (Simulation time: 8 hr 29 min 5 sec) 
 Total Blocks : 262144 Invalid Blocks : 0
Heartbeat CPU 7 instructions: 100000001 cycles: 125598637 heartbeat IPC: 0.710806 cumulative IPC: 0.796187 (Simulation time: 8 hr 30 min 11 sec) 
 Total Blocks : 262144 Invalid Blocks : 0
Heartbeat CPU 0 instructions: 110000000 cycles: 137133759 heartbeat IPC: 0.726768 cumulative IPC: 0.802137 (Simulation time: 9 hr 14 min 12 sec) 
 Total Blocks : 262144 Invalid Blocks : 0
Heartbeat CPU 1 instructions: 110000000 cycles: 137525284 heartbeat IPC: 0.724516 cumulative IPC: 0.799853 (Simulation time: 9 hr 16 min 18 sec) 
 Total Blocks : 262144 Invalid Blocks : 0
Heartbeat CPU 2 instructions: 110000000 cycles: 137901669 heartbeat IPC: 0.722582 cumulative IPC: 0.79767 (Simulation time: 9 hr 18 min 20 sec) 
 Total Blocks : 262144 Invalid Blocks : 0
Heartbeat CPU 3 instructions: 110000000 cycles: 138269639 heartbeat IPC: 0.72051 cumulative IPC: 0.795547 (Simulation time: 9 hr 20 min 18 sec) 
 Total Blocks : 262144 Invalid Blocks : 0
Heartbeat CPU 4 instructions: 110000000 cycles: 138623321 heartbeat IPC: 0.718582 cumulative IPC: 0.793517 (Simulation time: 9 hr 22 min 11 sec) 
 Total Blocks : 262144 Invalid Blocks : 0
Heartbeat CPU 5 instructions: 110000000 cycles: 138955417 heartbeat IPC: 0.716797 cumulative IPC: 0.791621 (Simulation time: 9 hr 23 min 32 sec) 
 Total Blocks : 262144 Invalid Blocks : 0
Heartbeat CPU 6 instructions: 110000000 cycles: 139294257 heartbeat IPC: 0.715005 cumulative IPC: 0.789695 (Simulation time: 9 hr 24 min 54 sec) 
 Total Blocks : 262144 Invalid Blocks : 0
Heartbeat CPU 7 instructions: 110000000 cycles: 139616478 heartbeat IPC: 0.713377 cumulative IPC: 0.787873 (Simulation time: 9 hr 26 min 11 sec) 
 Total Blocks : 262144 Invalid Blocks : 0
Heartbeat CPU 0 instructions: 120000001 cycles: 150800846 heartbeat IPC: 0.731685 cumulative IPC: 0.795752 (Simulation time: 10 hr 11 min 5 sec) 
 Total Blocks : 262144 Invalid Blocks : 0
Heartbeat CPU 1 instructions: 120000001 cycles: 151227951 heartbeat IPC: 0.729785 cumulative IPC: 0.793504 (Simulation time: 10 hr 12 min 49 sec) 
 Total Blocks : 262144 Invalid Blocks : 0
Heartbeat CPU 2 instructions: 120000001 cycles: 151642389 heartbeat IPC: 0.727764 cumulative IPC: 0.791335 (Simulation time: 10 hr 14 min 32 sec) 
 Total Blocks : 262144 Invalid Blocks : 0
Heartbeat CPU 3 instructions: 120000001 cycles: 152045206 heartbeat IPC: 0.725923 cumulative IPC: 0.789239 (Simulation time: 10 hr 16 min 13 sec) 
 Total Blocks : 262144 Invalid Blocks : 0
Heartbeat CPU 4 instructions: 120000001 cycles: 152435224 heartbeat IPC: 0.724013 cumulative IPC: 0.78722 (Simulation time: 10 hr 17 min 50 sec) 
 Total Blocks : 262144 Invalid Blocks : 0
Heartbeat CPU 5 instructions: 120000001 cycles: 152800228 heartbeat IPC: 0.722292 cumulative IPC: 0.785339 (Simulation time: 10 hr 19 min 23 sec) 
 Total Blocks : 262144 Invalid Blocks : 0
Heartbeat CPU 6 instructions: 120000001 cycles: 153171315 heartbeat IPC: 0.720614 cumulative IPC: 0.783437 (Simulation time: 10 hr 20 min 56 sec) 
 Total Blocks : 262144 Invalid Blocks : 0
Heartbeat CPU 7 instructions: 120000001 cycles: 153529299 heartbeat IPC: 0.718762 cumulative IPC: 0.78161 (Simulation time: 10 hr 22 min 27 sec) 
 Total Blocks : 262144 Invalid Blocks : 0
Heartbeat CPU 0 instructions: 130000000 cycles: 164128770 heartbeat IPC: 0.750304 cumulative IPC: 0.792061 (Simulation time: 11 hr 8 min 9 sec) 
 Total Blocks : 262144 Invalid Blocks : 0
Heartbeat CPU 1 instructions: 130000000 cycles: 164600614 heartbeat IPC: 0.747794 cumulative IPC: 0.789791 (Simulation time: 11 hr 10 min 11 sec) 
 Total Blocks : 262144 Invalid Blocks : 0
Heartbeat CPU 2 instructions: 130000000 cycles: 165056430 heartbeat IPC: 0.745487 cumulative IPC: 0.787609 (Simulation time: 11 hr 12 min 9 sec) 
 Total Blocks : 262144 Invalid Blocks : 0
Heartbeat CPU 3 instructions: 130000000 cycles: 165499175 heartbeat IPC: 0.743275 cumulative IPC: 0.785502 (Simulation time: 11 hr 14 min 2 sec) 
 Total Blocks : 262144 Invalid Blocks : 0
Heartbeat CPU 4 instructions: 130000000 cycles: 165927834 heartbeat IPC: 0.741146 cumulative IPC: 0.783473 (Simulation time: 11 hr 15 min 53 sec) 
 Total Blocks : 262144 Invalid Blocks : 0
Heartbeat CPU 5 instructions: 130000000 cycles: 166332207 heartbeat IPC: 0.73899 cumulative IPC: 0.781568 (Simulation time: 11 hr 17 min 37 sec) 
 Total Blocks : 262144 Invalid Blocks : 0
Heartbeat CPU 6 instructions: 130000000 cycles: 166738016 heartbeat IPC: 0.737099 cumulative IPC: 0.779666 (Simulation time: 11 hr 19 min 25 sec) 
 Total Blocks : 262144 Invalid Blocks : 0
Heartbeat CPU 7 instructions: 130000000 cycles: 167130766 heartbeat IPC: 0.735215 cumulative IPC: 0.777834 (Simulation time: 11 hr 21 min 11 sec) 
 Total Blocks : 262144 Invalid Blocks : 0
Heartbeat CPU 0 instructions: 140000003 cycles: 177575884 heartbeat IPC: 0.743654 cumulative IPC: 0.788395 (Simulation time: 12 hr 10 min 44 sec) 
 Total Blocks : 262144 Invalid Blocks : 0
Heartbeat CPU 1 instructions: 140000003 cycles: 178087753 heartbeat IPC: 0.741447 cumulative IPC: 0.786129 (Simulation time: 12 hr 13 min 1 sec) 
 Total Blocks : 262144 Invalid Blocks : 0
Heartbeat CPU 2 instructions: 140000003 cycles: 178579893 heartbeat IPC: 0.739456 cumulative IPC: 0.783963 (Simulation time: 12 hr 15 min 15 sec) 
 Total Blocks : 262144 Invalid Blocks : 0
Heartbeat CPU 3 instructions: 140000003 cycles: 179061488 heartbeat IPC: 0.737338 cumulative IPC: 0.781854 (Simulation time: 12 hr 17 min 26 sec) 
 Total Blocks : 262144 Invalid Blocks : 0
Heartbeat CPU 4 instructions: 140000003 cycles: 179524286 heartbeat IPC: 0.735486 cumulative IPC: 0.779839 (Simulation time: 12 hr 19 min 31 sec) 
 Total Blocks : 262144 Invalid Blocks : 0
Heartbeat CPU 5 instructions: 140000003 cycles: 179966599 heartbeat IPC: 0.73344 cumulative IPC: 0.777922 (Simulation time: 12 hr 21 min 30 sec) 
 Total Blocks : 262144 Invalid Blocks : 0
Heartbeat CPU 6 instructions: 140000003 cycles: 180406345 heartbeat IPC: 0.731619 cumulative IPC: 0.776026 (Simulation time: 12 hr 23 min 29 sec) 
 Total Blocks : 262144 Invalid Blocks : 0
Heartbeat CPU 7 instructions: 140000003 cycles: 180835380 heartbeat IPC: 0.729681 cumulative IPC: 0.774185 (Simulation time: 12 hr 25 min 23 sec) 
 Total Blocks : 262144 Invalid Blocks : 0
Heartbeat CPU 0 instructions: 150000000 cycles: 191436396 heartbeat IPC: 0.721474 cumulative IPC: 0.78355 (Simulation time: 13 hr 13 min 19 sec) 
 Total Blocks : 262144 Invalid Blocks : 0
Heartbeat CPU 1 instructions: 150000000 cycles: 191986425 heartbeat IPC: 0.719493 cumulative IPC: 0.781305 (Simulation time: 13 hr 15 min 50 sec) 
 Total Blocks : 262144 Invalid Blocks : 0
Heartbeat CPU 2 instructions: 150000000 cycles: 192518588 heartbeat IPC: 0.717427 cumulative IPC: 0.779146 (Simulation time: 13 hr 18 min 17 sec) 
 Total Blocks : 262144 Invalid Blocks : 0
Heartbeat CPU 3 instructions: 150000000 cycles: 193037721 heartbeat IPC: 0.7155 cumulative IPC: 0.77705 (Simulation time: 13 hr 20 min 42 sec) 
 Total Blocks : 262144 Invalid Blocks : 0
Heartbeat CPU 4 instructions: 150000000 cycles: 193538659 heartbeat IPC: 0.713553 cumulative IPC: 0.775039 (Simulation time: 13 hr 23 min 1 sec) 
 Total Blocks : 262144 Invalid Blocks : 0
Heartbeat CPU 5 instructions: 150000000 cycles: 194014348 heartbeat IPC: 0.711858 cumulative IPC: 0.773139 (Simulation time: 13 hr 25 min 13 sec) 
 Total Blocks : 262144 Invalid Blocks : 0
Heartbeat CPU 6 instructions: 150000000 cycles: 194486312 heartbeat IPC: 0.710229 cumulative IPC: 0.771263 (Simulation time: 13 hr 27 min 25 sec) 
 Total Blocks : 262144 Invalid Blocks : 0
Heartbeat CPU 7 instructions: 150000000 cycles: 194950337 heartbeat IPC: 0.708468 cumulative IPC: 0.769427 (Simulation time: 13 hr 29 min 37 sec) 
 Total Blocks : 262144 Invalid Blocks : 0
Heartbeat CPU 0 instructions: 160000000 cycles: 205118587 heartbeat IPC: 0.730877 cumulative IPC: 0.780037 (Simulation time: 14 hr 18 min 2 sec) 
 Total Blocks : 262144 Invalid Blocks : 0
Heartbeat CPU 1 instructions: 160000000 cycles: 205707158 heartbeat IPC: 0.728824 cumulative IPC: 0.777805 (Simulation time: 14 hr 20 min 50 sec) 
 Total Blocks : 262144 Invalid Blocks : 0
Heartbeat CPU 2 instructions: 160000000 cycles: 206275366 heartbeat IPC: 0.726914 cumulative IPC: 0.775662 (Simulation time: 14 hr 23 min 32 sec) 
 Total Blocks : 262144 Invalid Blocks : 0
Heartbeat CPU 3 instructions: 160000000 cycles: 206831688 heartbeat IPC: 0.724955 cumulative IPC: 0.773576 (Simulation time: 14 hr 26 min 10 sec) 
 Total Blocks : 262144 Invalid Blocks : 0
Heartbeat CPU 4 instructions: 160000000 cycles: 207369486 heartbeat IPC: 0.723023 cumulative IPC: 0.77157 (Simulation time: 14 hr 28 min 43 sec) 
 Total Blocks : 262144 Invalid Blocks : 0
Heartbeat CPU 5 instructions: 160000000 cycles: 207877094 heartbeat IPC: 0.721358 cumulative IPC: 0.769686 (Simulation time: 14 hr 31 min 7 sec) 
 Total Blocks : 262144 Invalid Blocks : 0
Heartbeat CPU 6 instructions: 160000000 cycles: 208383303 heartbeat IPC: 0.71958 cumulative IPC: 0.767816 (Simulation time: 14 hr 33 min 33 sec) 
 Total Blocks : 262144 Invalid Blocks : 0
Heartbeat CPU 7 instructions: 160000000 cycles: 208879114 heartbeat IPC: 0.717938 cumulative IPC: 0.765993 (Simulation time: 14 hr 35 min 56 sec) 
 Total Blocks : 262144 Invalid Blocks : 0
Heartbeat CPU 0 instructions: 170000000 cycles: 218878457 heartbeat IPC: 0.726751 cumulative IPC: 0.776687 (Simulation time: 15 hr 24 min 37 sec) 
 Total Blocks : 262144 Invalid Blocks : 0
Heartbeat CPU 1 instructions: 170000000 cycles: 219508978 heartbeat IPC: 0.724542 cumulative IPC: 0.774456 (Simulation time: 15 hr 27 min 42 sec) 
 Total Blocks : 262144 Invalid Blocks : 0
Heartbeat CPU 2 instructions: 170000000 cycles: 220117224 heartbeat IPC: 0.722446 cumulative IPC: 0.772316 (Simulation time: 15 hr 30 min 41 sec) 
 Total Blocks : 262144 Invalid Blocks : 0
Heartbeat CPU 3 instructions: 170000000 cycles: 220712496 heartbeat IPC: 0.720419 cumulative IPC: 0.770233 (Simulation time: 15 hr 33 min 36 sec) 
 Total Blocks : 262144 Invalid Blocks : 0
Heartbeat CPU 4 instructions: 170000000 cycles: 221289617 heartbeat IPC: 0.718384 cumulative IPC: 0.768224 (Simulation time: 15 hr 36 min 26 sec) 
 Total Blocks : 262144 Invalid Blocks : 0
Heartbeat CPU 5 instructions: 170000000 cycles: 221835150 heartbeat IPC: 0.716432 cumulative IPC: 0.766335 (Simulation time: 15 hr 39 min 7 sec) 
 Total Blocks : 262144 Invalid Blocks : 0
Heartbeat CPU 6 instructions: 170000000 cycles: 222378644 heartbeat IPC: 0.714523 cumulative IPC: 0.764462 (Simulation time: 15 hr 41 min 47 sec) 
 Total Blocks : 262144 Invalid Blocks : 0
Heartbeat CPU 7 instructions: 170000000 cycles: 222909919 heartbeat IPC: 0.712717 cumulative IPC: 0.76264 (Simulation time: 15 hr 44 min 24 sec) 
 Total Blocks : 262144 Invalid Blocks : 0
Heartbeat CPU 0 instructions: 180000000 cycles: 232640997 heartbeat IPC: 0.72661 cumulative IPC: 0.773724 (Simulation time: 16 hr 34 min 4 sec) 
 Total Blocks : 262144 Invalid Blocks : 0
Heartbeat CPU 1 instructions: 180000000 cycles: 233313310 heartbeat IPC: 0.72441 cumulative IPC: 0.771495 (Simulation time: 16 hr 37 min 32 sec) 
 Total Blocks : 262144 Invalid Blocks : 0
Heartbeat CPU 2 instructions: 180000000 cycles: 233959480 heartbeat IPC: 0.722426 cumulative IPC: 0.769364 (Simulation time: 16 hr 40 min 55 sec) 
 Total Blocks : 262144 Invalid Blocks : 0
Heartbeat CPU 3 instructions: 180000000 cycles: 234593273 heartbeat IPC: 0.720421 cumulative IPC: 0.767285 (Simulation time: 16 hr 44 min 15 sec) 
 Total Blocks : 262144 Invalid Blocks : 0
Heartbeat CPU 4 instructions: 180000000 cycles: 235202240 heartbeat IPC: 0.718772 cumulative IPC: 0.765299 (Simulation time: 16 hr 47 min 27 sec) 
 Total Blocks : 262144 Invalid Blocks : 0
Heartbeat CPU 5 instructions: 180000000 cycles: 235784950 heartbeat IPC: 0.716856 cumulative IPC: 0.763408 (Simulation time: 16 hr 50 min 33 sec) 
 Total Blocks : 262144 Invalid Blocks : 0
Heartbeat CPU 6 instructions: 180000000 cycles: 236362538 heartbeat IPC: 0.715108 cumulative IPC: 0.761542 (Simulation time: 16 hr 53 min 35 sec) 
 Total Blocks : 262144 Invalid Blocks : 0
Heartbeat CPU 7 instructions: 180000000 cycles: 236924865 heartbeat IPC: 0.713524 cumulative IPC: 0.759735 (Simulation time: 16 hr 56 min 33 sec) 
 Total Blocks : 262144 Invalid Blocks : 0
Heartbeat CPU 0 instructions: 190000000 cycles: 243391591 heartbeat IPC: 0.930181 cumulative IPC: 0.780635 (Simulation time: 17 hr 30 min 16 sec) 
 Total Blocks : 262144 Invalid Blocks : 0
Heartbeat CPU 1 instructions: 190000001 cycles: 244075300 heartbeat IPC: 0.929196 cumulative IPC: 0.778448 (Simulation time: 17 hr 33 min 28 sec) 
 Total Blocks : 262144 Invalid Blocks : 0
Heartbeat CPU 2 instructions: 190000000 cycles: 244721759 heartbeat IPC: 0.929171 cumulative IPC: 0.776392 (Simulation time: 17 hr 36 min 18 sec) 
 Total Blocks : 262144 Invalid Blocks : 0
Heartbeat CPU 3 instructions: 190000000 cycles: 245343535 heartbeat IPC: 0.93021 cumulative IPC: 0.774424 (Simulation time: 17 hr 38 min 45 sec) 
 Total Blocks : 262144 Invalid Blocks : 0
Heartbeat CPU 4 instructions: 190000000 cycles: 245932708 heartbeat IPC: 0.931926 cumulative IPC: 0.772569 (Simulation time: 17 hr 40 min 49 sec) 
 Total Blocks : 262144 Invalid Blocks : 0
Heartbeat CPU 5 instructions: 190000000 cycles: 246490592 heartbeat IPC: 0.934087 cumulative IPC: 0.77082 (Simulation time: 17 hr 42 min 32 sec) 
 Total Blocks : 262144 Invalid Blocks : 0
Heartbeat CPU 6 instructions: 190000000 cycles: 247041987 heartbeat IPC: 0.936378 cumulative IPC: 0.7691 (Simulation time: 17 hr 43 min 59 sec) 
 Total Blocks : 262144 Invalid Blocks : 0
Heartbeat CPU 7 instructions: 190000000 cycles: 247579896 heartbeat IPC: 0.938524 cumulative IPC: 0.767429 (Simulation time: 17 hr 45 min 22 sec) 
 Total Blocks : 262144 Invalid Blocks : 0
Heartbeat CPU 0 instructions: 200000002 cycles: 248442916 heartbeat IPC: 1.97968 cumulative IPC: 0.805014 (Simulation time: 17 hr 47 min 31 sec) 
 Total Blocks : 262144 Invalid Blocks : 0
Heartbeat CPU 1 instructions: 200000002 cycles: 249187234 heartbeat IPC: 1.95621 cumulative IPC: 0.802609 (Simulation time: 17 hr 49 min 15 sec) 
 Total Blocks : 262144 Invalid Blocks : 0
Heartbeat CPU 2 instructions: 200000002 cycles: 249873022 heartbeat IPC: 1.94127 cumulative IPC: 0.800407 (Simulation time: 17 hr 50 min 45 sec) 
 Total Blocks : 262144 Invalid Blocks : 0
Heartbeat CPU 3 instructions: 200000002 cycles: 250533031 heartbeat IPC: 1.92697 cumulative IPC: 0.798298 (Simulation time: 17 hr 52 min 5 sec) 
 Total Blocks : 262144 Invalid Blocks : 0
Heartbeat CPU 4 instructions: 200000002 cycles: 251162206 heartbeat IPC: 1.91223 cumulative IPC: 0.796298 (Simulation time: 17 hr 53 min 15 sec) 
 Total Blocks : 262144 Invalid Blocks : 0
Heartbeat CPU 5 instructions: 200000002 cycles: 251750992 heartbeat IPC: 1.901 cumulative IPC: 0.794436 (Simulation time: 17 hr 54 min 16 sec) 
 Total Blocks : 262144 Invalid Blocks : 0
Heartbeat CPU 6 instructions: 200000002 cycles: 252326283 heartbeat IPC: 1.8924 cumulative IPC: 0.792625 (Simulation time: 17 hr 55 min 17 sec) 
 Total Blocks : 262144 Invalid Blocks : 0
Heartbeat CPU 7 instructions: 200000002 cycles: 252878791 heartbeat IPC: 1.88719 cumulative IPC: 0.790893 (Simulation time: 17 hr 56 min 15 sec) 
 Total Blocks : 262144 Invalid Blocks : 0

Warmup complete CPU 0 instructions: 203272298 cycles: 252878791 (Simulation time: 17 hr 56 min 15 sec) 
Warmup complete CPU 1 instructions: 202680269 cycles: 252878791 (Simulation time: 17 hr 56 min 15 sec) 
Warmup complete CPU 2 instructions: 202158501 cycles: 252878791 (Simulation time: 17 hr 56 min 15 sec) 
Warmup complete CPU 3 instructions: 201670855 cycles: 252878791 (Simulation time: 17 hr 56 min 15 sec) 
Warmup complete CPU 4 instructions: 201217405 cycles: 252878791 (Simulation time: 17 hr 56 min 15 sec) 
Warmup complete CPU 5 instructions: 200798549 cycles: 252878791 (Simulation time: 17 hr 56 min 15 sec) 
Warmup complete CPU 6 instructions: 200390610 cycles: 252878791 (Simulation time: 17 hr 56 min 15 sec) 
Warmup complete CPU 7 instructions: 200000002 cycles: 252878791 (Simulation time: 17 hr 56 min 15 sec) 

Heartbeat CPU 0 instructions: 210000003 cycles: 747894020 heartbeat IPC: 0.020022 cumulative IPC: 0.0135909 (Simulation time: 20 hr 39 min 27 sec) 
 Total Blocks : 262144 Invalid Blocks : 0
Heartbeat CPU 1 instructions: 210000003 cycles: 793334022 heartbeat IPC: 0.0183774 cumulative IPC: 0.0135436 (Simulation time: 20 hr 54 min 22 sec) 
 Total Blocks : 262144 Invalid Blocks : 0
Heartbeat CPU 2 instructions: 210000003 cycles: 833704771 heartbeat IPC: 0.0171282 cumulative IPC: 0.0135006 (Simulation time: 21 hr 7 min 39 sec) 
 Total Blocks : 262144 Invalid Blocks : 0
Heartbeat CPU 3 instructions: 210000003 cycles: 871192809 heartbeat IPC: 0.0161119 cumulative IPC: 0.0134707 (Simulation time: 21 hr 20 min 0 sec) 
 Total Blocks : 262144 Invalid Blocks : 0
Heartbeat CPU 4 instructions: 210000003 cycles: 904906809 heartbeat IPC: 0.0152965 cumulative IPC: 0.0134697 (Simulation time: 21 hr 31 min 7 sec) 
 Total Blocks : 262144 Invalid Blocks : 0
Heartbeat CPU 5 instructions: 210000003 cycles: 937444303 heartbeat IPC: 0.0145838 cumulative IPC: 0.0134413 (Simulation time: 21 hr 41 min 50 sec) 
 Total Blocks : 262144 Invalid Blocks : 0
Heartbeat CPU 6 instructions: 210000003 cycles: 967626843 heartbeat IPC: 0.0139801 cumulative IPC: 0.0134444 (Simulation time: 21 hr 51 min 47 sec) 
 Total Blocks : 262144 Invalid Blocks : 0
Heartbeat CPU 7 instructions: 210000003 cycles: 998226038 heartbeat IPC: 0.0134166 cumulative IPC: 0.0134166 (Simulation time: 22 hr 1 min 52 sec) 
 Total Blocks : 262144 Invalid Blocks : 0
Heartbeat CPU 0 instructions: 220000000 cycles: 1478680957 heartbeat IPC: 0.0136839 cumulative IPC: 0.0136463 (Simulation time: 24 hr 39 min 56 sec) 
 Total Blocks : 262144 Invalid Blocks : 0
Heartbeat CPU 1 instructions: 220000000 cycles: 1523996051 heartbeat IPC: 0.0136862 cumulative IPC: 0.0136256 (Simulation time: 24 hr 54 min 49 sec) 
 Total Blocks : 262144 Invalid Blocks : 0
Heartbeat CPU 2 instructions: 220000000 cycles: 1564136149 heartbeat IPC: 0.0136905 cumulative IPC: 0.0136064 (Simulation time: 25 hr 8 min 0 sec) 
 Total Blocks : 262144 Invalid Blocks : 0
Heartbeat CPU 3 instructions: 220000000 cycles: 1601916254 heartbeat IPC: 0.0136851 cumulative IPC: 0.0135868 (Simulation time: 25 hr 20 min 24 sec) 
 Total Blocks : 262144 Invalid Blocks : 0
Heartbeat CPU 4 instructions: 220000000 cycles: 1635041020 heartbeat IPC: 0.0136961 cumulative IPC: 0.0135893 (Simulation time: 25 hr 31 min 15 sec) 
 Total Blocks : 262144 Invalid Blocks : 0
Heartbeat CPU 5 instructions: 220000000 cycles: 1667937960 heartbeat IPC: 0.0136894 cumulative IPC: 0.0135694 (Simulation time: 25 hr 42 min 2 sec) 
 Total Blocks : 262144 Invalid Blocks : 0
Heartbeat CPU 6 instructions: 220000000 cycles: 1698159580 heartbeat IPC: 0.0136886 cumulative IPC: 0.0135679 (Simulation time: 25 hr 51 min 55 sec) 
 Total Blocks : 262144 Invalid Blocks : 0
Heartbeat CPU 7 instructions: 220000000 cycles: 1728603156 heartbeat IPC: 0.0136916 cumulative IPC: 0.0135527 (Simulation time: 26 hr 1 min 52 sec) 
 Total Blocks : 262144 Invalid Blocks : 0
Heartbeat CPU 0 instructions: 230000000 cycles: 2217203542 heartbeat IPC: 0.0135405 cumulative IPC: 0.0136066 (Simulation time: 29 hr 3 min 34 sec) 
 Total Blocks : 262144 Invalid Blocks : 0
Heartbeat CPU 1 instructions: 230000000 cycles: 2262959169 heartbeat IPC: 0.0135325 cumulative IPC: 0.0135914 (Simulation time: 29 hr 18 min 33 sec) 
 Total Blocks : 262144 Invalid Blocks : 0
Heartbeat CPU 2 instructions: 230000000 cycles: 2302126142 heartbeat IPC: 0.0135503 cumulative IPC: 0.0135862 (Simulation time: 29 hr 31 min 21 sec) 
 Total Blocks : 262144 Invalid Blocks : 0
Heartbeat CPU 3 instructions: 230000000 cycles: 2339938018 heartbeat IPC: 0.0135497 cumulative IPC: 0.0135737 (Simulation time: 29 hr 43 min 42 sec) 
 Total Blocks : 262144 Invalid Blocks : 0
Heartbeat CPU 4 instructions: 230000000 cycles: 2373388205 heartbeat IPC: 0.0135438 cumulative IPC: 0.0135734 (Simulation time: 30 hr 1 min 12 sec) 
 Total Blocks : 262144 Invalid Blocks : 0
Heartbeat CPU 5 instructions: 230000000 cycles: 2405064047 heartbeat IPC: 0.0135662 cumulative IPC: 0.0135683 (Simulation time: 30 hr 23 min 55 sec) 
 Total Blocks : 262144 Invalid Blocks : 0
Heartbeat CPU 6 instructions: 230000000 cycles: 2435994791 heartbeat IPC: 0.0135532 cumulative IPC: 0.0135629 (Simulation time: 30 hr 43 min 19 sec) 
 Total Blocks : 262144 Invalid Blocks : 0
Heartbeat CPU 7 instructions: 230000000 cycles: 2466755145 heartbeat IPC: 0.0135473 cumulative IPC: 0.0135509 (Simulation time: 31 hr 2 min 59 sec) 
 Total Blocks : 262144 Invalid Blocks : 0
Heartbeat CPU 0 instructions: 240000000 cycles: 2936030046 heartbeat IPC: 0.0139116 cumulative IPC: 0.0136883 (Simulation time: 36 hr 3 min 21 sec) 
 Total Blocks : 262144 Invalid Blocks : 0
Heartbeat CPU 1 instructions: 240000000 cycles: 2982414596 heartbeat IPC: 0.0138994 cumulative IPC: 0.0136726 (Simulation time: 36 hr 34 min 39 sec) 
 Total Blocks : 262144 Invalid Blocks : 0
Heartbeat CPU 2 instructions: 240000000 cycles: 3021630031 heartbeat IPC: 0.0138985 cumulative IPC: 0.0136674 (Simulation time: 36 hr 58 min 25 sec) 
 Total Blocks : 262144 Invalid Blocks : 0
Heartbeat CPU 3 instructions: 240000000 cycles: 3059406822 heartbeat IPC: 0.0138991 cumulative IPC: 0.0136571 (Simulation time: 37 hr 21 min 25 sec) 
 Total Blocks : 262144 Invalid Blocks : 0
Heartbeat CPU 4 instructions: 240000000 cycles: 3092050636 heartbeat IPC: 0.0139147 cumulative IPC: 0.0136598 (Simulation time: 37 hr 42 min 33 sec) 
 Total Blocks : 262144 Invalid Blocks : 0
Heartbeat CPU 5 instructions: 240000000 cycles: 3125023738 heartbeat IPC: 0.0138897 cumulative IPC: 0.0136488 (Simulation time: 38 hr 5 min 9 sec) 
 Total Blocks : 262144 Invalid Blocks : 0
Heartbeat CPU 6 instructions: 240000000 cycles: 3155770921 heartbeat IPC: 0.0138932 cumulative IPC: 0.0136448 (Simulation time: 38 hr 26 min 33 sec) 
 Total Blocks : 262144 Invalid Blocks : 0
Heartbeat CPU 7 instructions: 240000000 cycles: 3186708805 heartbeat IPC: 0.0138898 cumulative IPC: 0.0136341 (Simulation time: 38 hr 44 min 50 sec) 
 Total Blocks : 262144 Invalid Blocks : 0
Heartbeat CPU 0 instructions: 250000000 cycles: 3679138596 heartbeat IPC: 0.013457 cumulative IPC: 0.0136381 (Simulation time: 43 hr 38 min 24 sec) 
 Total Blocks : 262144 Invalid Blocks : 0
Heartbeat CPU 1 instructions: 250000000 cycles: 3725469096 heartbeat IPC: 0.013458 cumulative IPC: 0.0136266 (Simulation time: 44 hr 4 min 54 sec) 
 Total Blocks : 262144 Invalid Blocks : 0
Heartbeat CPU 2 instructions: 250000000 cycles: 3764826424 heartbeat IPC: 0.0134554 cumulative IPC: 0.0136225 (Simulation time: 44 hr 26 min 27 sec) 
 Total Blocks : 262144 Invalid Blocks : 0
Heartbeat CPU 3 instructions: 250000000 cycles: 3802722294 heartbeat IPC: 0.0134532 cumulative IPC: 0.0136144 (Simulation time: 44 hr 45 min 37 sec) 
 Total Blocks : 262144 Invalid Blocks : 0
Heartbeat CPU 4 instructions: 250000000 cycles: 3835540334 heartbeat IPC: 0.0134501 cumulative IPC: 0.0136163 (Simulation time: 45 hr 3 min 54 sec) 
 Total Blocks : 262144 Invalid Blocks : 0
Heartbeat CPU 5 instructions: 250000000 cycles: 3868566908 heartbeat IPC: 0.0134491 cumulative IPC: 0.0136078 (Simulation time: 45 hr 22 min 45 sec) 
 Total Blocks : 262144 Invalid Blocks : 0
Heartbeat CPU 6 instructions: 250000000 cycles: 3899192395 heartbeat IPC: 0.0134513 cumulative IPC: 0.0136054 (Simulation time: 45 hr 39 min 41 sec) 
 Total Blocks : 262144 Invalid Blocks : 0
Heartbeat CPU 7 instructions: 250000000 cycles: 3930179635 heartbeat IPC: 0.0134504 cumulative IPC: 0.0135969 (Simulation time: 45 hr 56 min 3 sec) 
 Total Blocks : 262144 Invalid Blocks : 0
Heartbeat CPU 0 instructions: 260000003 cycles: 4414983820 heartbeat IPC: 0.0135898 cumulative IPC: 0.0136296 (Simulation time: 50 hr 18 min 28 sec) 
 Total Blocks : 262144 Invalid Blocks : 0
Heartbeat CPU 1 instructions: 260000003 cycles: 4460734700 heartbeat IPC: 0.0136005 cumulative IPC: 0.0136221 (Simulation time: 50 hr 46 min 18 sec) 
 Total Blocks : 262144 Invalid Blocks : 0
Heartbeat CPU 2 instructions: 260000003 cycles: 4499965307 heartbeat IPC: 0.0136029 cumulative IPC: 0.0136191 (Simulation time: 51 hr 0 min 54 sec) 
 Total Blocks : 262144 Invalid Blocks : 0
Heartbeat CPU 3 instructions: 260000003 cycles: 4537364513 heartbeat IPC: 0.0136121 cumulative IPC: 0.013614 (Simulation time: 51 hr 23 min 27 sec) 
 Total Blocks : 262144 Invalid Blocks : 0
Heartbeat CPU 4 instructions: 260000003 cycles: 4571268238 heartbeat IPC: 0.013592 cumulative IPC: 0.0136122 (Simulation time: 51 hr 44 min 4 sec) 
 Total Blocks : 262144 Invalid Blocks : 0
Heartbeat CPU 5 instructions: 260000003 cycles: 4604048419 heartbeat IPC: 0.0135965 cumulative IPC: 0.0136059 (Simulation time: 52 hr 4 min 0 sec) 
 Total Blocks : 262144 Invalid Blocks : 0
Heartbeat CPU 6 instructions: 260000003 cycles: 4634935588 heartbeat IPC: 0.0135917 cumulative IPC: 0.0136031 (Simulation time: 52 hr 22 min 47 sec) 
 Total Blocks : 262144 Invalid Blocks : 0
Heartbeat CPU 7 instructions: 260000003 cycles: 4665093651 heartbeat IPC: 0.013607 cumulative IPC: 0.0135986 (Simulation time: 52 hr 41 min 8 sec) 
 Total Blocks : 262144 Invalid Blocks : 0
Heartbeat CPU 0 instructions: 270000002 cycles: 5150849446 heartbeat IPC: 0.0135894 cumulative IPC: 0.0136235 (Simulation time: 57 hr 31 min 44 sec) 
 Total Blocks : 262144 Invalid Blocks : 0
Heartbeat CPU 1 instructions: 270000002 cycles: 5196433160 heartbeat IPC: 0.0135925 cumulative IPC: 0.0136177 (Simulation time: 57 hr 58 min 32 sec) 
 Total Blocks : 262144 Invalid Blocks : 0
Heartbeat CPU 2 instructions: 270000002 cycles: 5235676862 heartbeat IPC: 0.0135923 cumulative IPC: 0.0136151 (Simulation time: 58 hr 21 min 40 sec) 
 Total Blocks : 262144 Invalid Blocks : 0
Heartbeat CPU 3 instructions: 270000002 cycles: 5272622837 heartbeat IPC: 0.0136007 cumulative IPC: 0.0136121 (Simulation time: 58 hr 42 min 57 sec) 
 Total Blocks : 262144 Invalid Blocks : 0
Heartbeat CPU 4 instructions: 270000002 cycles: 5307112398 heartbeat IPC: 0.0135898 cumulative IPC: 0.0136089 (Simulation time: 59 hr 2 min 47 sec) 
 Total Blocks : 262144 Invalid Blocks : 0
Heartbeat CPU 5 instructions: 270000002 cycles: 5339979846 heartbeat IPC: 0.0135882 cumulative IPC: 0.0136033 (Simulation time: 59 hr 21 min 41 sec) 
 Total Blocks : 262144 Invalid Blocks : 0
Heartbeat CPU 6 instructions: 270000002 cycles: 5370856956 heartbeat IPC: 0.0135884 cumulative IPC: 0.013601 (Simulation time: 59 hr 39 min 25 sec) 
 Total Blocks : 262144 Invalid Blocks : 0
Heartbeat CPU 7 instructions: 270000002 cycles: 5401497168 heartbeat IPC: 0.0135795 cumulative IPC: 0.0135959 (Simulation time: 59 hr 57 min 2 sec) 
 Total Blocks : 262144 Invalid Blocks : 0
Heartbeat CPU 0 instructions: 280000000 cycles: 5897468869 heartbeat IPC: 0.0133937 cumulative IPC: 0.0135931 (Simulation time: 64 hr 45 min 8 sec) 
 Total Blocks : 262144 Invalid Blocks : 0
Heartbeat CPU 1 instructions: 280000000 cycles: 5943583501 heartbeat IPC: 0.0133842 cumulative IPC: 0.013587 (Simulation time: 65 hr 14 min 21 sec) 
 Total Blocks : 262144 Invalid Blocks : 0
Heartbeat CPU 2 instructions: 280000000 cycles: 5982983494 heartbeat IPC: 0.0133814 cumulative IPC: 0.0135847 (Simulation time: 65 hr 39 min 55 sec) 
 Total Blocks : 262144 Invalid Blocks : 0
Heartbeat CPU 3 instructions: 280000000 cycles: 6020436948 heartbeat IPC: 0.0133723 cumulative IPC: 0.013581 (Simulation time: 66 hr 3 min 6 sec) 
 Total Blocks : 262144 Invalid Blocks : 0
Heartbeat CPU 4 instructions: 280000000 cycles: 6054926913 heartbeat IPC: 0.0133723 cumulative IPC: 0.0135784 (Simulation time: 66 hr 24 min 57 sec) 
 Total Blocks : 262144 Invalid Blocks : 0
Heartbeat CPU 5 instructions: 280000000 cycles: 6087541005 heartbeat IPC: 0.0133768 cumulative IPC: 0.0135743 (Simulation time: 66 hr 45 min 15 sec) 
 Total Blocks : 262144 Invalid Blocks : 0
Heartbeat CPU 6 instructions: 280000000 cycles: 6118381804 heartbeat IPC: 0.0133775 cumulative IPC: 0.0135725 (Simulation time: 67 hr 3 min 35 sec) 
 Total Blocks : 262144 Invalid Blocks : 0
Heartbeat CPU 7 instructions: 280000000 cycles: 6149083206 heartbeat IPC: 0.0133764 cumulative IPC: 0.0135681 (Simulation time: 67 hr 22 min 10 sec) 
 Total Blocks : 262144 Invalid Blocks : 0
Heartbeat CPU 0 instructions: 290000000 cycles: 6648240788 heartbeat IPC: 0.0133196 cumulative IPC: 0.013561 (Simulation time: 72 hr 20 min 0 sec) 
 Total Blocks : 262144 Invalid Blocks : 0
Heartbeat CPU 1 instructions: 290000000 cycles: 6694057864 heartbeat IPC: 0.0133249 cumulative IPC: 0.0135565 (Simulation time: 72 hr 45 min 41 sec) 
 Total Blocks : 262144 Invalid Blocks : 0
Heartbeat CPU 2 instructions: 290000000 cycles: 6733580225 heartbeat IPC: 0.0133227 cumulative IPC: 0.0135543 (Simulation time: 73 hr 7 min 55 sec) 
 Total Blocks : 262144 Invalid Blocks : 0
Heartbeat CPU 3 instructions: 290000000 cycles: 6771088706 heartbeat IPC: 0.0133218 cumulative IPC: 0.0135511 (Simulation time: 73 hr 29 min 4 sec) 
 Total Blocks : 262144 Invalid Blocks : 0
Heartbeat CPU 4 instructions: 290000000 cycles: 6804965438 heartbeat IPC: 0.0133326 cumulative IPC: 0.0135503 (Simulation time: 73 hr 48 min 41 sec) 
 Total Blocks : 262144 Invalid Blocks : 0
Heartbeat CPU 5 instructions: 290000000 cycles: 6838258371 heartbeat IPC: 0.0133206 cumulative IPC: 0.0135454 (Simulation time: 74 hr 6 min 33 sec) 
 Total Blocks : 262144 Invalid Blocks : 0
Heartbeat CPU 6 instructions: 290000000 cycles: 6868226187 heartbeat IPC: 0.0133361 cumulative IPC: 0.0135457 (Simulation time: 74 hr 22 min 55 sec) 
 Total Blocks : 262144 Invalid Blocks : 0
Heartbeat CPU 7 instructions: 290000000 cycles: 6899535583 heartbeat IPC: 0.0133253 cumulative IPC: 0.0135406 (Simulation time: 74 hr 40 min 51 sec) 
 Total Blocks : 262144 Invalid Blocks : 0
Heartbeat CPU 0 instructions: 300000000 cycles: 7388954299 heartbeat IPC: 0.0135005 cumulative IPC: 0.0135547 (Simulation time: 79 hr 20 min 34 sec) 
 Total Blocks : 262144 Invalid Blocks : 0
Heartbeat CPU 1 instructions: 300000000 cycles: 7434019853 heartbeat IPC: 0.0135142 cumulative IPC: 0.0135521 (Simulation time: 79 hr 46 min 24 sec) 
 Total Blocks : 262144 Invalid Blocks : 0
Heartbeat CPU 2 instructions: 300000000 cycles: 7473575048 heartbeat IPC: 0.0135136 cumulative IPC: 0.0135501 (Simulation time: 80 hr 8 min 31 sec) 
 Total Blocks : 262144 Invalid Blocks : 0
Heartbeat CPU 3 instructions: 300000000 cycles: 7511230023 heartbeat IPC: 0.0135109 cumulative IPC: 0.013547 (Simulation time: 80 hr 31 min 38 sec) 
 Total Blocks : 262144 Invalid Blocks : 0
Heartbeat CPU 4 instructions: 300000000 cycles: 7545137230 heartbeat IPC: 0.0135104 cumulative IPC: 0.0135462 (Simulation time: 80 hr 51 min 4 sec) 
 Total Blocks : 262144 Invalid Blocks : 0
Heartbeat CPU 5 instructions: 300000000 cycles: 7578257585 heartbeat IPC: 0.0135135 cumulative IPC: 0.0135422 (Simulation time: 81 hr 10 min 22 sec) 
 Total Blocks : 262144 Invalid Blocks : 0
Heartbeat CPU 6 instructions: 300000000 cycles: 7608109522 heartbeat IPC: 0.0135156 cumulative IPC: 0.0135427 (Simulation time: 81 hr 28 min 6 sec) 
 Total Blocks : 262144 Invalid Blocks : 0
Heartbeat CPU 7 instructions: 300000000 cycles: 7639675349 heartbeat IPC: 0.013511 cumulative IPC: 0.0135377 (Simulation time: 81 hr 45 min 42 sec) 
 Total Blocks : 262144 Invalid Blocks : 0
Heartbeat CPU 0 instructions: 310000003 cycles: 8124990411 heartbeat IPC: 0.0135863 cumulative IPC: 0.0135577 (Simulation time: 85 hr 56 min 20 sec) 
 Total Blocks : 262144 Invalid Blocks : 0
Heartbeat CPU 1 instructions: 310000003 cycles: 8170283982 heartbeat IPC: 0.0135821 cumulative IPC: 0.0135549 (Simulation time: 86 hr 22 min 16 sec) 
 Total Blocks : 262144 Invalid Blocks : 0
Heartbeat CPU 2 instructions: 310000003 cycles: 8210586106 heartbeat IPC: 0.0135683 cumulative IPC: 0.0135518 (Simulation time: 86 hr 42 min 39 sec) 
 Total Blocks : 262144 Invalid Blocks : 0
Heartbeat CPU 3 instructions: 310000003 cycles: 8248263587 heartbeat IPC: 0.0135679 cumulative IPC: 0.013549 (Simulation time: 87 hr 2 min 4 sec) 
 Total Blocks : 262144 Invalid Blocks : 0
Heartbeat CPU 4 instructions: 310000003 cycles: 8281664990 heartbeat IPC: 0.0135772 cumulative IPC: 0.0135491 (Simulation time: 87 hr 21 min 2 sec) 
 Total Blocks : 262144 Invalid Blocks : 0
Heartbeat CPU 5 instructions: 310000003 cycles: 8314914924 heartbeat IPC: 0.0135748 cumulative IPC: 0.0135451 (Simulation time: 87 hr 38 min 34 sec) 
 Total Blocks : 262144 Invalid Blocks : 0
Heartbeat CPU 6 instructions: 310000003 cycles: 8345270448 heartbeat IPC: 0.0135656 cumulative IPC: 0.0135447 (Simulation time: 87 hr 54 min 53 sec) 
 Total Blocks : 262144 Invalid Blocks : 0
Heartbeat CPU 7 instructions: 310000003 cycles: 8376724426 heartbeat IPC: 0.0135676 cumulative IPC: 0.0135404 (Simulation time: 88 hr 8 min 30 sec) 
 Total Blocks : 262144 Invalid Blocks : 0
Heartbeat CPU 0 instructions: 320000002 cycles: 8832329106 heartbeat IPC: 0.0141375 cumulative IPC: 0.0136055 (Simulation time: 91 hr 30 min 47 sec) 
 Total Blocks : 262144 Invalid Blocks : 0
Heartbeat CPU 1 instructions: 320000002 cycles: 8878473554 heartbeat IPC: 0.0141205 cumulative IPC: 0.0136013 (Simulation time: 91 hr 46 min 57 sec) 
 Total Blocks : 262144 Invalid Blocks : 0
Heartbeat CPU 2 instructions: 320000002 cycles: 8917954572 heartbeat IPC: 0.0141369 cumulative IPC: 0.0135996 (Simulation time: 92 hr 0 min 7 sec) 
 Total Blocks : 262144 Invalid Blocks : 0
Heartbeat CPU 3 instructions: 320000002 cycles: 8955219529 heartbeat IPC: 0.0141452 cumulative IPC: 0.0135974 (Simulation time: 92 hr 12 min 33 sec) 
 Total Blocks : 262144 Invalid Blocks : 0
Heartbeat CPU 4 instructions: 320000002 cycles: 8988606412 heartbeat IPC: 0.0141454 cumulative IPC: 0.0135973 (Simulation time: 92 hr 30 min 58 sec) 
 Total Blocks : 262144 Invalid Blocks : 0
Heartbeat CPU 5 instructions: 320000002 cycles: 9021846841 heartbeat IPC: 0.0141456 cumulative IPC: 0.0135936 (Simulation time: 92 hr 51 min 2 sec) 
 Total Blocks : 262144 Invalid Blocks : 0
Heartbeat CPU 6 instructions: 320000002 cycles: 9051775058 heartbeat IPC: 0.0141542 cumulative IPC: 0.0135937 (Simulation time: 93 hr 9 min 0 sec) 
 Total Blocks : 262144 Invalid Blocks : 0
Heartbeat CPU 7 instructions: 320000002 cycles: 9083302469 heartbeat IPC: 0.0141527 cumulative IPC: 0.0135894 (Simulation time: 93 hr 27 min 56 sec) 
 Total Blocks : 262144 Invalid Blocks : 0
Heartbeat CPU 0 instructions: 330000000 cycles: 9576554776 heartbeat IPC: 0.0134368 cumulative IPC: 0.013592 (Simulation time: 96 hr 48 min 27 sec) 
 Total Blocks : 262144 Invalid Blocks : 0
Heartbeat CPU 1 instructions: 330000000 cycles: 9622792685 heartbeat IPC: 0.0134351 cumulative IPC: 0.0135881 (Simulation time: 97 hr 3 min 43 sec) 
 Total Blocks : 262144 Invalid Blocks : 0
Heartbeat CPU 2 instructions: 330000000 cycles: 9662455876 heartbeat IPC: 0.0134318 cumulative IPC: 0.0135863 (Simulation time: 97 hr 16 min 49 sec) 
 Total Blocks : 262144 Invalid Blocks : 0
Heartbeat CPU 3 instructions: 330000000 cycles: 9700054426 heartbeat IPC: 0.0134258 cumulative IPC: 0.0135839 (Simulation time: 97 hr 29 min 12 sec) 
 Total Blocks : 262144 Invalid Blocks : 0
Heartbeat CPU 4 instructions: 330000000 cycles: 9733481548 heartbeat IPC: 0.0134251 cumulative IPC: 0.0135838 (Simulation time: 97 hr 40 min 14 sec) 
 Total Blocks : 262144 Invalid Blocks : 0
Heartbeat CPU 5 instructions: 330000000 cycles: 9766447774 heartbeat IPC: 0.01343 cumulative IPC: 0.0135808 (Simulation time: 97 hr 51 min 7 sec) 
 Total Blocks : 262144 Invalid Blocks : 0
Heartbeat CPU 6 instructions: 330000000 cycles: 9796644754 heartbeat IPC: 0.0134252 cumulative IPC: 0.0135805 (Simulation time: 98 hr 1 min 6 sec) 
 Total Blocks : 262144 Invalid Blocks : 0
Heartbeat CPU 7 instructions: 330000000 cycles: 9828186266 heartbeat IPC: 0.0134249 cumulative IPC: 0.0135766 (Simulation time: 98 hr 11 min 32 sec) 
 Total Blocks : 262144 Invalid Blocks : 0
Heartbeat CPU 0 instructions: 340000003 cycles: 10326993151 heartbeat IPC: 0.0133255 cumulative IPC: 0.0135722 (Simulation time: 100 hr 56 min 25 sec) 
 Total Blocks : 262144 Invalid Blocks : 0
Heartbeat CPU 1 instructions: 340000003 cycles: 10372862275 heartbeat IPC: 0.0133321 cumulative IPC: 0.0135692 (Simulation time: 101 hr 11 min 37 sec) 
 Total Blocks : 262144 Invalid Blocks : 0
Heartbeat CPU 2 instructions: 340000003 cycles: 10412012408 heartbeat IPC: 0.0133412 cumulative IPC: 0.0135682 (Simulation time: 101 hr 24 min 35 sec) 
 Total Blocks : 262144 Invalid Blocks : 0
Heartbeat CPU 3 instructions: 340000003 cycles: 10450027722 heartbeat IPC: 0.0133338 cumulative IPC: 0.0135655 (Simulation time: 101 hr 37 min 10 sec) 
 Total Blocks : 262144 Invalid Blocks : 0
Heartbeat CPU 4 instructions: 340000003 cycles: 10483594607 heartbeat IPC: 0.0133313 cumulative IPC: 0.0135653 (Simulation time: 101 hr 48 min 17 sec) 
 Total Blocks : 262144 Invalid Blocks : 0
Heartbeat CPU 5 instructions: 340000003 cycles: 10516332721 heartbeat IPC: 0.0133354 cumulative IPC: 0.0135628 (Simulation time: 101 hr 59 min 7 sec) 
 Total Blocks : 262144 Invalid Blocks : 0
Heartbeat CPU 6 instructions: 340000003 cycles: 10546215547 heartbeat IPC: 0.013341 cumulative IPC: 0.0135631 (Simulation time: 102 hr 8 min 59 sec) 
 Total Blocks : 262144 Invalid Blocks : 0
Heartbeat CPU 7 instructions: 340000003 cycles: 10577724443 heartbeat IPC: 0.0133416 cumulative IPC: 0.0135595 (Simulation time: 102 hr 19 min 22 sec) 
 Total Blocks : 262144 Invalid Blocks : 0
Heartbeat CPU 0 instructions: 350000003 cycles: 11067158323 heartbeat IPC: 0.0135105 cumulative IPC: 0.013568 (Simulation time: 105 hr 0 min 43 sec) 
 Total Blocks : 262144 Invalid Blocks : 0
Heartbeat CPU 1 instructions: 350000003 cycles: 11112548624 heartbeat IPC: 0.0135192 cumulative IPC: 0.0135658 (Simulation time: 105 hr 15 min 39 sec) 
 Total Blocks : 262144 Invalid Blocks : 0
Heartbeat CPU 2 instructions: 350000003 cycles: 11150900343 heartbeat IPC: 0.0135339 cumulative IPC: 0.0135659 (Simulation time: 105 hr 28 min 16 sec) 
 Total Blocks : 262144 Invalid Blocks : 0
Heartbeat CPU 3 instructions: 350000003 cycles: 11189003213 heartbeat IPC: 0.0135322 cumulative IPC: 0.0135632 (Simulation time: 105 hr 40 min 50 sec) 
 Total Blocks : 262144 Invalid Blocks : 0
Heartbeat CPU 4 instructions: 350000003 cycles: 11222254500 heartbeat IPC: 0.013538 cumulative IPC: 0.0135635 (Simulation time: 105 hr 51 min 48 sec) 
 Total Blocks : 262144 Invalid Blocks : 0
Heartbeat CPU 5 instructions: 350000003 cycles: 11255127180 heartbeat IPC: 0.0135356 cumulative IPC: 0.013561 (Simulation time: 106 hr 2 min 38 sec) 
 Total Blocks : 262144 Invalid Blocks : 0
Heartbeat CPU 6 instructions: 350000003 cycles: 11285136655 heartbeat IPC: 0.0135332 cumulative IPC: 0.0135611 (Simulation time: 106 hr 12 min 31 sec) 
 Total Blocks : 262144 Invalid Blocks : 0
Heartbeat CPU 7 instructions: 350000003 cycles: 11317505642 heartbeat IPC: 0.0135175 cumulative IPC: 0.0135567 (Simulation time: 106 hr 23 min 10 sec) 
 Total Blocks : 262144 Invalid Blocks : 0
Heartbeat CPU 0 instructions: 360000000 cycles: 11819425223 heartbeat IPC: 0.0132931 cumulative IPC: 0.0135501 (Simulation time: 109 hr 8 min 33 sec) 
 Total Blocks : 262144 Invalid Blocks : 0
Heartbeat CPU 1 instructions: 360000000 cycles: 11864561956 heartbeat IPC: 0.0132976 cumulative IPC: 0.0135484 (Simulation time: 109 hr 23 min 25 sec) 
 Total Blocks : 262144 Invalid Blocks : 0
Heartbeat CPU 2 instructions: 360000000 cycles: 11903381413 heartbeat IPC: 0.0132894 cumulative IPC: 0.013548 (Simulation time: 109 hr 36 min 12 sec) 
 Total Blocks : 262144 Invalid Blocks : 0
Heartbeat CPU 3 instructions: 360000000 cycles: 11941476582 heartbeat IPC: 0.0132895 cumulative IPC: 0.0135456 (Simulation time: 109 hr 48 min 44 sec) 
 Total Blocks : 262144 Invalid Blocks : 0
Heartbeat CPU 4 instructions: 360000000 cycles: 11975251114 heartbeat IPC: 0.0132803 cumulative IPC: 0.0135453 (Simulation time: 109 hr 59 min 51 sec) 
 Total Blocks : 262144 Invalid Blocks : 0
Heartbeat CPU 5 instructions: 360000000 cycles: 12007867824 heartbeat IPC: 0.0132848 cumulative IPC: 0.0135433 (Simulation time: 110 hr 10 min 36 sec) 
 Total Blocks : 262144 Invalid Blocks : 0
Heartbeat CPU 6 instructions: 360000000 cycles: 12038485898 heartbeat IPC: 0.0132741 cumulative IPC: 0.0135427 (Simulation time: 110 hr 20 min 42 sec) 
 Total Blocks : 262144 Invalid Blocks : 0
Heartbeat CPU 7 instructions: 360000000 cycles: 12070571246 heartbeat IPC: 0.0132791 cumulative IPC: 0.013539 (Simulation time: 110 hr 31 min 17 sec) 
 Total Blocks : 262144 Invalid Blocks : 0
Heartbeat CPU 0 instructions: 370000002 cycles: 12554630963 heartbeat IPC: 0.0136016 cumulative IPC: 0.0135532 (Simulation time: 113 hr 10 min 46 sec) 
 Total Blocks : 262144 Invalid Blocks : 0
Heartbeat CPU 1 instructions: 370000002 cycles: 12599270397 heartbeat IPC: 0.0136108 cumulative IPC: 0.0135521 (Simulation time: 113 hr 25 min 29 sec) 
 Total Blocks : 262144 Invalid Blocks : 0
Heartbeat CPU 2 instructions: 370000002 cycles: 12639531448 heartbeat IPC: 0.0135842 cumulative IPC: 0.0135502 (Simulation time: 113 hr 38 min 45 sec) 
 Total Blocks : 262144 Invalid Blocks : 0
Heartbeat CPU 3 instructions: 370000002 cycles: 12676408463 heartbeat IPC: 0.0136067 cumulative IPC: 0.0135492 (Simulation time: 113 hr 50 min 54 sec) 
 Total Blocks : 262144 Invalid Blocks : 0
Heartbeat CPU 4 instructions: 370000002 cycles: 12710462795 heartbeat IPC: 0.0136015 cumulative IPC: 0.0135486 (Simulation time: 114 hr 2 min 7 sec) 
 Total Blocks : 262144 Invalid Blocks : 0
Heartbeat CPU 5 instructions: 370000002 cycles: 12742895387 heartbeat IPC: 0.0136049 cumulative IPC: 0.0135469 (Simulation time: 114 hr 12 min 47 sec) 
 Total Blocks : 262144 Invalid Blocks : 0
Heartbeat CPU 6 instructions: 370000002 cycles: 12773554784 heartbeat IPC: 0.0136042 cumulative IPC: 0.0135463 (Simulation time: 114 hr 22 min 52 sec) 
 Total Blocks : 262144 Invalid Blocks : 0
Heartbeat CPU 7 instructions: 370000002 cycles: 12805857380 heartbeat IPC: 0.0136002 cumulative IPC: 0.0135426 (Simulation time: 114 hr 33 min 30 sec) 
 Total Blocks : 262144 Invalid Blocks : 0
Heartbeat CPU 0 instructions: 380000003 cycles: 12868672465 heartbeat IPC: 0.0318429 cumulative IPC: 0.0140084 (Simulation time: 114 hr 54 min 49 sec) 
 Total Blocks : 262144 Invalid Blocks : 0
Heartbeat CPU 1 instructions: 380000000 cycles: 12914920515 heartbeat IPC: 0.0316806 cumulative IPC: 0.014004 (Simulation time: 115 hr 11 min 19 sec) 
 Total Blocks : 262144 Invalid Blocks : 0
Heartbeat CPU 2 instructions: 380000003 cycles: 12956434643 heartbeat IPC: 0.0315554 cumulative IPC: 0.0139993 (Simulation time: 115 hr 26 min 16 sec) 
 Total Blocks : 262144 Invalid Blocks : 0
Heartbeat CPU 3 instructions: 380000003 cycles: 12995180825 heartbeat IPC: 0.0313704 cumulative IPC: 0.013995 (Simulation time: 115 hr 40 min 20 sec) 
 Total Blocks : 262144 Invalid Blocks : 0
Heartbeat CPU 4 instructions: 380000000 cycles: 13030972342 heartbeat IPC: 0.0312003 cumulative IPC: 0.0139913 (Simulation time: 115 hr 53 min 24 sec) 
 Total Blocks : 262144 Invalid Blocks : 0
Heartbeat CPU 5 instructions: 380000000 cycles: 13064852089 heartbeat IPC: 0.0310601 cumulative IPC: 0.013987 (Simulation time: 116 hr 5 min 49 sec) 
 Total Blocks : 262144 Invalid Blocks : 0
Heartbeat CPU 6 instructions: 380000003 cycles: 13096279938 heartbeat IPC: 0.0309861 cumulative IPC: 0.0139846 (Simulation time: 116 hr 17 min 26 sec) 
 Total Blocks : 262144 Invalid Blocks : 0
Heartbeat CPU 7 instructions: 380000003 cycles: 13130534615 heartbeat IPC: 0.0307998 cumulative IPC: 0.0139777 (Simulation time: 116 hr 29 min 57 sec) 
 Total Blocks : 262144 Invalid Blocks : 0
Heartbeat CPU 0 instructions: 390000000 cycles: 13219614406 heartbeat IPC: 0.0284947 cumulative IPC: 0.0144005 (Simulation time: 116 hr 59 min 53 sec) 
 Total Blocks : 262144 Invalid Blocks : 0
Heartbeat CPU 1 instructions: 390000000 cycles: 13264706653 heartbeat IPC: 0.0285889 cumulative IPC: 0.0143961 (Simulation time: 117 hr 14 min 42 sec) 
 Total Blocks : 262144 Invalid Blocks : 0
Heartbeat CPU 2 instructions: 390000000 cycles: 13305089420 heartbeat IPC: 0.0286817 cumulative IPC: 0.0143915 (Simulation time: 117 hr 27 min 59 sec) 
 Total Blocks : 262144 Invalid Blocks : 0
Heartbeat CPU 3 instructions: 390000000 cycles: 13342056542 heartbeat IPC: 0.0288288 cumulative IPC: 0.0143882 (Simulation time: 117 hr 40 min 9 sec) 
 Total Blocks : 262144 Invalid Blocks : 0
Heartbeat CPU 4 instructions: 390000000 cycles: 13376319411 heartbeat IPC: 0.0289564 cumulative IPC: 0.0143851 (Simulation time: 117 hr 51 min 25 sec) 
 Total Blocks : 262144 Invalid Blocks : 0
Heartbeat CPU 5 instructions: 390000000 cycles: 13409359846 heartbeat IPC: 0.0290269 cumulative IPC: 0.0143809 (Simulation time: 118 hr 2 min 17 sec) 
 Total Blocks : 262144 Invalid Blocks : 0
Heartbeat CPU 6 instructions: 390000000 cycles: 13439110417 heartbeat IPC: 0.0291689 cumulative IPC: 0.0143793 (Simulation time: 118 hr 12 min 5 sec) 
 Total Blocks : 262144 Invalid Blocks : 0
Heartbeat CPU 7 instructions: 390000000 cycles: 13472087422 heartbeat IPC: 0.029278 cumulative IPC: 0.014373 (Simulation time: 118 hr 22 min 57 sec) 
 Total Blocks : 262144 Invalid Blocks : 0
Heartbeat CPU 0 instructions: 400000000 cycles: 13961612556 heartbeat IPC: 0.0134771 cumulative IPC: 0.0143505 (Simulation time: 121 hr 4 min 4 sec) 
 Total Blocks : 262144 Invalid Blocks : 0
Heartbeat CPU 1 instructions: 400000000 cycles: 14006649998 heartbeat IPC: 0.0134781 cumulative IPC: 0.0143466 (Simulation time: 121 hr 18 min 53 sec) 
 Total Blocks : 262144 Invalid Blocks : 0
Heartbeat CPU 2 instructions: 400000000 cycles: 14047342485 heartbeat IPC: 0.0134725 cumulative IPC: 0.0143421 (Simulation time: 121 hr 32 min 17 sec) 
 Total Blocks : 262144 Invalid Blocks : 0
Heartbeat CPU 3 instructions: 400000000 cycles: 14084020927 heartbeat IPC: 0.0134777 cumulative IPC: 0.0143393 (Simulation time: 121 hr 44 min 22 sec) 
 Total Blocks : 262144 Invalid Blocks : 0
Heartbeat CPU 4 instructions: 400000000 cycles: 14117858904 heartbeat IPC: 0.0134855 cumulative IPC: 0.014337 (Simulation time: 121 hr 55 min 31 sec) 
 Total Blocks : 262144 Invalid Blocks : 0
Heartbeat CPU 5 instructions: 400000000 cycles: 14151500108 heartbeat IPC: 0.0134745 cumulative IPC: 0.0143325 (Simulation time: 122 hr 6 min 36 sec) 
 Total Blocks : 262144 Invalid Blocks : 0
Heartbeat CPU 6 instructions: 400000000 cycles: 14181087786 heartbeat IPC: 0.0134775 cumulative IPC: 0.0143313 (Simulation time: 122 hr 16 min 21 sec) 
 Total Blocks : 262144 Invalid Blocks : 0
Finished CPU 0 instructions: 200000001 cycles: 13944623618 cumulative IPC: 0.0143424 (Simulation time: 122 hr 21 min 45 sec) 
Finished CPU 1 instructions: 200000001 cycles: 13946522341 cumulative IPC: 0.0143405 (Simulation time: 122 hr 22 min 23 sec) 
Finished CPU 2 instructions: 200000003 cycles: 13947119015 cumulative IPC: 0.0143399 (Simulation time: 122 hr 22 min 35 sec) 
Finished CPU 3 instructions: 200000000 cycles: 13947200945 cumulative IPC: 0.0143398 (Simulation time: 122 hr 22 min 36 sec) 
Finished CPU 4 instructions: 200000002 cycles: 13951080482 cumulative IPC: 0.0143358 (Simulation time: 122 hr 23 min 54 sec) 
Finished CPU 5 instructions: 200000002 cycles: 13956606183 cumulative IPC: 0.0143301 (Simulation time: 122 hr 25 min 43 sec) 
Finished CPU 6 instructions: 200000003 cycles: 13956989628 cumulative IPC: 0.0143297 (Simulation time: 122 hr 25 min 51 sec) 
Heartbeat CPU 7 instructions: 400000000 cycles: 14214066654 heartbeat IPC: 0.0134775 cumulative IPC: 0.0143254 (Simulation time: 122 hr 27 min 14 sec) 
 Total Blocks : 262144 Invalid Blocks : 0
Finished CPU 7 instructions: 200000003 cycles: 13961188426 cumulative IPC: 0.0143254 (Simulation time: 122 hr 27 min 14 sec) 

CPU 0 Branch Prediction Accuracy: 96.4353% MPKI: 6.49392 Average ROB Occupancy at Mispredict: 149.23

CPU 1 Branch Prediction Accuracy: 96.4359% MPKI: 6.51177 Average ROB Occupancy at Mispredict: 149.226

CPU 2 Branch Prediction Accuracy: 96.4339% MPKI: 6.53207 Average ROB Occupancy at Mispredict: 149.232

CPU 3 Branch Prediction Accuracy: 96.4369% MPKI: 6.5425 Average ROB Occupancy at Mispredict: 149.224

CPU 4 Branch Prediction Accuracy: 96.4372% MPKI: 6.55676 Average ROB Occupancy at Mispredict: 149.229

CPU 5 Branch Prediction Accuracy: 96.437% MPKI: 6.57065 Average ROB Occupancy at Mispredict: 149.227

CPU 6 Branch Prediction Accuracy: 96.4325% MPKI: 6.59189 Average ROB Occupancy at Mispredict: 149.236

CPU 7 Branch Prediction Accuracy: 96.4303% MPKI: 6.60863 Average ROB Occupancy at Mispredict: 149.227

ChampSim completed all CPUs

Total Simulation Statistics (not including warmup)

CPU 0 cumulative IPC: 0.0143413 instructions: 200220955 cycles: 13961188426
ITLB TOTAL     ACCESS: 34374309  HIT: 34374309  MISS:     0  HIT %:   100  MISS %:     0  AVERAGE MISS PENALTY: 0
ITLB LOAD      ACCESS: 34374309  HIT: 34374309  MISS:     0  HIT %:   100  MISS %:     0  AVERAGE MISS PENALTY: 0
ITLB RFO       ACCESS:     0  HIT:     0  MISS:     0  HIT %:     0  MISS %:     0  AVERAGE MISS PENALTY: 0
ITLB PREFETCH  ACCESS:     0  HIT:     0  MISS:     0  HIT %:     0  MISS %:     0  AVERAGE MISS PENALTY: 0
ITLB WRITEBACK ACCESS:     0  HIT:     0  MISS:     0  HIT %:     0  MISS %:     0  AVERAGE MISS PENALTY: 0

DTLB TOTAL     ACCESS: 78308515  HIT: 55365446  MISS: 22943069  HIT %: 70.7017  MISS %: 29.2983  AVERAGE MISS PENALTY: 9.18888
DTLB LOAD      ACCESS: 75613436  HIT: 52675395  MISS: 22938041  HIT %: 69.6641  MISS %: 30.3359  AVERAGE MISS PENALTY: 9.18381
DTLB RFO       ACCESS: 2695079  HIT: 2690051  MISS:  5028  HIT %: 99.8134  MISS %: 0.186562  AVERAGE MISS PENALTY: 32.3385
DTLB PREFETCH  ACCESS:     0  HIT:     0  MISS:     0  HIT %:     0  MISS %:     0  AVERAGE MISS PENALTY: 0
DTLB WRITEBACK ACCESS:     0  HIT:     0  MISS:     0  HIT %:     0  MISS %:     0  AVERAGE MISS PENALTY: 0

STLB TOTAL     ACCESS: 22943069  HIT: 22902229  MISS: 40840  HIT %: 99.822  MISS %: 0.178006  AVERAGE MISS PENALTY: 100
STLB LOAD      ACCESS: 22938041  HIT: 22897928  MISS: 40113  HIT %: 99.8251  MISS %: 0.174875  AVERAGE MISS PENALTY: 100
STLB RFO       ACCESS:  5028  HIT:  4301  MISS:   727  HIT %: 85.541  MISS %: 14.459  AVERAGE MISS PENALTY: 100
STLB PREFETCH  ACCESS:     0  HIT:     0  MISS:     0  HIT %:     0  MISS %:     0  AVERAGE MISS PENALTY: 0
STLB WRITEBACK ACCESS:     0  HIT:     0  MISS:     0  HIT %:     0  MISS %:     0  AVERAGE MISS PENALTY: 0

L1D TOTAL     ACCESS: 197595462  HIT: 41684014  MISS: 155911448  HIT %: 21.0956  MISS %: 78.9044  AVERAGE MISS PENALTY: 5.30058e+07
L1D LOAD      ACCESS: 66934054  HIT: 34430287  MISS: 32503767  HIT %: 51.4391  MISS %: 48.5609  AVERAGE MISS PENALTY: 2.54252e+08
L1D RFO       ACCESS: 2418746  HIT: 2353186  MISS: 65560  HIT %: 97.2895  MISS %: 2.7105  AVERAGE MISS PENALTY: 467.838
L1D PREFETCH  ACCESS: 128242662  HIT: 4900541  MISS: 123342121  HIT %: 3.8213  MISS %: 96.1787  AVERAGE MISS PENALTY: 441.374
L1D WRITEBACK ACCESS:     0  HIT:     0  MISS:     0  HIT %:     0  MISS %:     0  AVERAGE MISS PENALTY: 0

L1I TOTAL     ACCESS: 36118027  HIT: 36118012  MISS:    15  HIT %:   100  MISS %: 4.15305e-05  AVERAGE MISS PENALTY: 386.2
L1I LOAD      ACCESS: 36118027  HIT: 36118012  MISS:    15  HIT %:   100  MISS %: 4.15305e-05  AVERAGE MISS PENALTY: 386.2
L1I RFO       ACCESS:     0  HIT:     0  MISS:     0  HIT %:     0  MISS %:     0  AVERAGE MISS PENALTY: 0
L1I PREFETCH  ACCESS:     0  HIT:     0  MISS:     0  HIT %:     0  MISS %:     0  AVERAGE MISS PENALTY: 0
L1I WRITEBACK ACCESS:     0  HIT:     0  MISS:     0  HIT %:     0  MISS %:     0  AVERAGE MISS PENALTY: 0

L2C TOTAL     ACCESS: 230252972  HIT: 7719919  MISS: 222533053  HIT %: 3.3528  MISS %: 96.6472  AVERAGE MISS PENALTY: 4.66802e+07
L2C LOAD      ACCESS: 32450695  HIT: 552062  MISS: 31898633  HIT %: 1.70123  MISS %: 98.2988  AVERAGE MISS PENALTY: 3.2565e+08
L2C RFO       ACCESS: 65560  HIT:    55  MISS: 65505  HIT %: 0.0838926  MISS %: 99.9161  AVERAGE MISS PENALTY: 196770
L2C PREFETCH  ACCESS: 197535824  HIT: 6967079  MISS: 190568745  HIT %: 3.527  MISS %: 96.473  AVERAGE MISS PENALTY: 435.858
L2C WRITEBACK ACCESS: 200893  HIT: 200723  MISS:   170  HIT %: 99.9154  MISS %: 0.0846222  AVERAGE MISS PENALTY: 0


LLC0 TOTAL     ACCESS: 28587891  HIT: 3583261  MISS: 25004630  HIT %: 12.5342  MISS %: 87.4658  AVERAGE MISS PENALTY: 474.618
LLC0 LOAD      ACCESS: 3973744  HIT: 551971  MISS: 3421773  HIT %: 13.8905  MISS %: 86.1095  AVERAGE MISS PENALTY: 451.714
LLC0 RFO       ACCESS:  8189  HIT:   166  MISS:  8023  HIT %: 2.02711  MISS %: 97.9729  AVERAGE MISS PENALTY: 393.309
LLC0 PREFETCH  ACCESS: 24588961  HIT: 3016086  MISS: 21572875  HIT %: 12.266  MISS %: 87.734  AVERAGE MISS PENALTY: 478.325
LLC0 WRITEBACK ACCESS: 16997  HIT: 15038  MISS:  1959  HIT %: 88.4744  MISS %: 11.5256  AVERAGE MISS PENALTY: 0

LLC1 TOTAL     ACCESS: 28943227  HIT: 3565011  MISS: 25378216  HIT %: 12.3173  MISS %: 87.6827  AVERAGE MISS PENALTY: 469.235
LLC1 LOAD      ACCESS: 3768578  HIT: 483028  MISS: 3285550  HIT %: 12.8172  MISS %: 87.1828  AVERAGE MISS PENALTY: 448.156
LLC1 RFO       ACCESS:  8190  HIT:   138  MISS:  8052  HIT %: 1.68498  MISS %: 98.315  AVERAGE MISS PENALTY: 394.069
LLC1 PREFETCH  ACCESS: 25149462  HIT: 3066617  MISS: 22082845  HIT %: 12.1936  MISS %: 87.8064  AVERAGE MISS PENALTY: 472.436
LLC1 WRITEBACK ACCESS: 16997  HIT: 15228  MISS:  1769  HIT %: 89.5923  MISS %: 10.4077  AVERAGE MISS PENALTY: 0

LLC2 TOTAL     ACCESS: 28785850  HIT: 3593014  MISS: 25192836  HIT %: 12.4819  MISS %: 87.5181  AVERAGE MISS PENALTY: 455.512
LLC2 LOAD      ACCESS: 3832167  HIT: 497555  MISS: 3334612  HIT %: 12.9836  MISS %: 87.0164  AVERAGE MISS PENALTY: 450.107
LLC2 RFO       ACCESS:  8188  HIT:   143  MISS:  8045  HIT %: 1.74646  MISS %: 98.2535  AVERAGE MISS PENALTY: 491.929
LLC2 PREFETCH  ACCESS: 24928499  HIT: 3079771  MISS: 21848728  HIT %: 12.3544  MISS %: 87.6456  AVERAGE MISS PENALTY: 456.353
LLC2 WRITEBACK ACCESS: 16996  HIT: 15545  MISS:  1451  HIT %: 91.4627  MISS %: 8.5373  AVERAGE MISS PENALTY: 0

LLC3 TOTAL     ACCESS: 27991632  HIT: 3537130  MISS: 24454502  HIT %: 12.6364  MISS %: 87.3636  AVERAGE MISS PENALTY: 451.502
LLC3 LOAD      ACCESS: 3915777  HIT: 580400  MISS: 3335377  HIT %: 14.8221  MISS %: 85.1779  AVERAGE MISS PENALTY: 445.827
LLC3 RFO       ACCESS:  8186  HIT:   133  MISS:  8053  HIT %: 1.62473  MISS %: 98.3753  AVERAGE MISS PENALTY: 482.696
LLC3 PREFETCH  ACCESS: 24050677  HIT: 2941015  MISS: 21109662  HIT %: 12.2284  MISS %: 87.7716  AVERAGE MISS PENALTY: 452.417
LLC3 WRITEBACK ACCESS: 16992  HIT: 15582  MISS:  1410  HIT %: 91.702  MISS %: 8.29802  AVERAGE MISS PENALTY: 0

LLC4 TOTAL     ACCESS: 27579615  HIT: 3436642  MISS: 24142973  HIT %: 12.4608  MISS %: 87.5392  AVERAGE MISS PENALTY: 446.529
LLC4 LOAD      ACCESS: 3758829  HIT: 510134  MISS: 3248695  HIT %: 13.5716  MISS %: 86.4284  AVERAGE MISS PENALTY: 419.708
LLC4 RFO       ACCESS:  8187  HIT:   147  MISS:  8040  HIT %: 1.79553  MISS %: 98.2045  AVERAGE MISS PENALTY: 389.464
LLC4 PREFETCH  ACCESS: 23795607  HIT: 2910803  MISS: 20884804  HIT %: 12.2325  MISS %: 87.7675  AVERAGE MISS PENALTY: 450.753
LLC4 WRITEBACK ACCESS: 16992  HIT: 15558  MISS:  1434  HIT %: 91.5607  MISS %: 8.43927  AVERAGE MISS PENALTY: 0

LLC5 TOTAL     ACCESS: 27307534  HIT: 3427501  MISS: 23880033  HIT %: 12.5515  MISS %: 87.4485  AVERAGE MISS PENALTY: 445.253
LLC5 LOAD      ACCESS: 3719912  HIT: 494260  MISS: 3225652  HIT %: 13.2869  MISS %: 86.7131  AVERAGE MISS PENALTY: 416.729
LLC5 RFO       ACCESS:  8187  HIT:   136  MISS:  8051  HIT %: 1.66117  MISS %: 98.3388  AVERAGE MISS PENALTY: 382.128
LLC5 PREFETCH  ACCESS: 23562442  HIT: 2917507  MISS: 20644935  HIT %: 12.382  MISS %: 87.618  AVERAGE MISS PENALTY: 449.765
LLC5 WRITEBACK ACCESS: 16993  HIT: 15598  MISS:  1395  HIT %: 91.7907  MISS %: 8.20926  AVERAGE MISS PENALTY: 0

LLC6 TOTAL     ACCESS: 26976576  HIT: 3397613  MISS: 23578963  HIT %: 12.5947  MISS %: 87.4053  AVERAGE MISS PENALTY: 444.119
LLC6 LOAD      ACCESS: 3825774  HIT: 531886  MISS: 3293888  HIT %: 13.9027  MISS %: 86.0973  AVERAGE MISS PENALTY: 418.747
LLC6 RFO       ACCESS:  8189  HIT:   140  MISS:  8049  HIT %: 1.70961  MISS %: 98.2904  AVERAGE MISS PENALTY: 437.588
LLC6 PREFETCH  ACCESS: 23125618  HIT: 2849990  MISS: 20275628  HIT %: 12.324  MISS %: 87.676  AVERAGE MISS PENALTY: 448.275
LLC6 WRITEBACK ACCESS: 16995  HIT: 15597  MISS:  1398  HIT %: 91.7741  MISS %: 8.22595  AVERAGE MISS PENALTY: 0

LLC7 TOTAL     ACCESS: 26496513  HIT: 3326943  MISS: 23169570  HIT %: 12.5562  MISS %: 87.4438  AVERAGE MISS PENALTY: 433.03
LLC7 LOAD      ACCESS: 3770503  HIT: 535734  MISS: 3234769  HIT %: 14.2086  MISS %: 85.7914  AVERAGE MISS PENALTY: 415.921
LLC7 RFO       ACCESS:  8188  HIT:   134  MISS:  8054  HIT %: 1.63654  MISS %: 98.3635  AVERAGE MISS PENALTY: 428.42
LLC7 PREFETCH  ACCESS: 22700827  HIT: 2775696  MISS: 19925131  HIT %: 12.2273  MISS %: 87.7727  AVERAGE MISS PENALTY: 435.845
LLC7 WRITEBACK ACCESS: 16995  HIT: 15379  MISS:  1616  HIT %: 90.4913  MISS %: 9.50868  AVERAGE MISS PENALTY: 0

Total Rob stall cycles : 	13922379486
Total Load Rob Stall cycles : 	13731311992
Average Rob Stall cycles : 	 326
Average Load Rob Stall cycles : 	 389

CPU 1 cumulative IPC: 0.0143401 instructions: 200204318 cycles: 13961188426
ITLB TOTAL     ACCESS: 34373090  HIT: 34373090  MISS:     0  HIT %:   100  MISS %:     0  AVERAGE MISS PENALTY: 0
ITLB LOAD      ACCESS: 34373090  HIT: 34373090  MISS:     0  HIT %:   100  MISS %:     0  AVERAGE MISS PENALTY: 0
ITLB RFO       ACCESS:     0  HIT:     0  MISS:     0  HIT %:     0  MISS %:     0  AVERAGE MISS PENALTY: 0
ITLB PREFETCH  ACCESS:     0  HIT:     0  MISS:     0  HIT %:     0  MISS %:     0  AVERAGE MISS PENALTY: 0
ITLB WRITEBACK ACCESS:     0  HIT:     0  MISS:     0  HIT %:     0  MISS %:     0  AVERAGE MISS PENALTY: 0

DTLB TOTAL     ACCESS: 78301757  HIT: 55358501  MISS: 22943256  HIT %: 70.6989  MISS %: 29.3011  AVERAGE MISS PENALTY: 9.18898
DTLB LOAD      ACCESS: 75607270  HIT: 52669040  MISS: 22938230  HIT %: 69.6613  MISS %: 30.3387  AVERAGE MISS PENALTY: 9.18389
DTLB RFO       ACCESS: 2694487  HIT: 2689461  MISS:  5026  HIT %: 99.8135  MISS %: 0.186529  AVERAGE MISS PENALTY: 32.4067
DTLB PREFETCH  ACCESS:     0  HIT:     0  MISS:     0  HIT %:     0  MISS %:     0  AVERAGE MISS PENALTY: 0
DTLB WRITEBACK ACCESS:     0  HIT:     0  MISS:     0  HIT %:     0  MISS %:     0  AVERAGE MISS PENALTY: 0

STLB TOTAL     ACCESS: 22943256  HIT: 22902422  MISS: 40834  HIT %: 99.822  MISS %: 0.177978  AVERAGE MISS PENALTY: 100
STLB LOAD      ACCESS: 22938230  HIT: 22898121  MISS: 40109  HIT %: 99.8251  MISS %: 0.174857  AVERAGE MISS PENALTY: 100
STLB RFO       ACCESS:  5026  HIT:  4301  MISS:   725  HIT %: 85.575  MISS %: 14.425  AVERAGE MISS PENALTY: 100
STLB PREFETCH  ACCESS:     0  HIT:     0  MISS:     0  HIT %:     0  MISS %:     0  AVERAGE MISS PENALTY: 0
STLB WRITEBACK ACCESS:     0  HIT:     0  MISS:     0  HIT %:     0  MISS %:     0  AVERAGE MISS PENALTY: 0

L1D TOTAL     ACCESS: 197588829  HIT: 41676623  MISS: 155912206  HIT %: 21.0926  MISS %: 78.9074  AVERAGE MISS PENALTY: 5.30531e+07
L1D LOAD      ACCESS: 66928280  HIT: 34423973  MISS: 32504307  HIT %: 51.4341  MISS %: 48.5659  AVERAGE MISS PENALTY: 2.54476e+08
L1D RFO       ACCESS: 2417533  HIT: 2351974  MISS: 65559  HIT %: 97.2882  MISS %: 2.71181  AVERAGE MISS PENALTY: 472.987
L1D PREFETCH  ACCESS: 128243016  HIT: 4900676  MISS: 123342340  HIT %: 3.8214  MISS %: 96.1786  AVERAGE MISS PENALTY: 445.55
L1D WRITEBACK ACCESS:     0  HIT:     0  MISS:     0  HIT %:     0  MISS %:     0  AVERAGE MISS PENALTY: 0

L1I TOTAL     ACCESS: 36116442  HIT: 36116427  MISS:    15  HIT %:   100  MISS %: 4.15323e-05  AVERAGE MISS PENALTY: 339
L1I LOAD      ACCESS: 36116442  HIT: 36116427  MISS:    15  HIT %:   100  MISS %: 4.15323e-05  AVERAGE MISS PENALTY: 339
L1I RFO       ACCESS:     0  HIT:     0  MISS:     0  HIT %:     0  MISS %:     0  AVERAGE MISS PENALTY: 0
L1I PREFETCH  ACCESS:     0  HIT:     0  MISS:     0  HIT %:     0  MISS %:     0  AVERAGE MISS PENALTY: 0
L1I WRITEBACK ACCESS:     0  HIT:     0  MISS:     0  HIT %:     0  MISS %:     0  AVERAGE MISS PENALTY: 0

L2C TOTAL     ACCESS: 230265764  HIT: 7720122  MISS: 222545642  HIT %: 3.3527  MISS %: 96.6473  AVERAGE MISS PENALTY: 4.6724e+07
L2C LOAD      ACCESS: 32451450  HIT: 551427  MISS: 31900023  HIT %: 1.69924  MISS %: 98.3008  AVERAGE MISS PENALTY: 3.2596e+08
L2C RFO       ACCESS: 65559  HIT:    56  MISS: 65503  HIT %: 0.0854192  MISS %: 99.9146  AVERAGE MISS PENALTY: 458.018
L2C PREFETCH  ACCESS: 197547898  HIT: 6967953  MISS: 190579945  HIT %: 3.52722  MISS %: 96.4728  AVERAGE MISS PENALTY: 435.934
L2C WRITEBACK ACCESS: 200857  HIT: 200686  MISS:   171  HIT %: 99.9149  MISS %: 0.0851352  AVERAGE MISS PENALTY: 0


LLC0 TOTAL     ACCESS: 28589873  HIT: 3582270  MISS: 25007603  HIT %: 12.5299  MISS %: 87.4701  AVERAGE MISS PENALTY: 474.578
LLC0 LOAD      ACCESS: 3974155  HIT: 550783  MISS: 3423372  HIT %: 13.8591  MISS %: 86.1409  AVERAGE MISS PENALTY: 451.671
LLC0 RFO       ACCESS:  8188  HIT:   156  MISS:  8032  HIT %: 1.90523  MISS %: 98.0948  AVERAGE MISS PENALTY: 392.931
LLC0 PREFETCH  ACCESS: 24590534  HIT: 3016315  MISS: 21574219  HIT %: 12.2662  MISS %: 87.7338  AVERAGE MISS PENALTY: 478.287
LLC0 WRITEBACK ACCESS: 16996  HIT: 15016  MISS:  1980  HIT %: 88.3502  MISS %: 11.6498  AVERAGE MISS PENALTY: 0

LLC1 TOTAL     ACCESS: 28944965  HIT: 3566007  MISS: 25378958  HIT %: 12.32  MISS %: 87.68  AVERAGE MISS PENALTY: 479.205
LLC1 LOAD      ACCESS: 3768617  HIT: 482998  MISS: 3285619  HIT %: 12.8163  MISS %: 87.1837  AVERAGE MISS PENALTY: 524.658
LLC1 RFO       ACCESS:  8190  HIT:   134  MISS:  8056  HIT %: 1.63614  MISS %: 98.3639  AVERAGE MISS PENALTY: 401.323
LLC1 PREFETCH  ACCESS: 25151160  HIT: 3067652  MISS: 22083508  HIT %: 12.1969  MISS %: 87.8031  AVERAGE MISS PENALTY: 472.51
LLC1 WRITEBACK ACCESS: 16998  HIT: 15223  MISS:  1775  HIT %: 89.5576  MISS %: 10.4424  AVERAGE MISS PENALTY: 0

[...]
LLC2 RFO       ACCESS:  8189  HIT:   134  MISS:  8055  HIT %: 1.63634  MISS %: 98.3637  AVERAGE MISS PENALTY: 489.896
LLC2 PREFETCH  ACCESS: 24924803  HIT: 3081900  MISS: 21842903  HIT %: 12.3648  MISS %: 87.6352  AVERAGE MISS PENALTY: 456.724
LLC2 WRITEBACK ACCESS: 16992  HIT: 15701  MISS:  1291  HIT %: 92.4023  MISS %: 7.59769  AVERAGE MISS PENALTY: 0
LLC2 PREFETCH  REQUESTED:     0  ISSUED:     0  USEFUL: 2051892  USELESS: 172741032
 USEFUL LOAD PREFETCHES:    2051892 PREFETCH ISSUED TO LOWER LEVEL:  174793385  ACCURACY: 1.1739
 TIMELY PREFETCHES:    2051892 LATE PREFETCHES: 0 DROPPED PREFETCHES: 0
LLC2 AVERAGE MISS LATENCY: 455.832 cycles
LLC3 TOTAL     ACCESS: 27987361  HIT: 3536353  MISS: 24451008  HIT %: 12.6355  MISS %: 87.3645  AVERAGE MISS PENALTY: 451.762
LLC3 LOAD      ACCESS: 3916202  HIT: 580537  MISS: 3335665  HIT %: 14.824  MISS %: 85.176  AVERAGE MISS PENALTY: 445.581
LLC3 RFO       ACCESS:  8186  HIT:   144  MISS:  8042  HIT %: 1.7591  MISS %: 98.2409  AVERAGE MISS PENALTY: 478.768
LLC3 PREFETCH  ACCESS: 24045981  HIT: 2939988  MISS: 21105993  HIT %: 12.2265  MISS %: 87.7735  AVERAGE MISS PENALTY: 452.757
LLC3 WRITEBACK ACCESS: 16992  HIT: 15684  MISS:  1308  HIT %: 92.3023  MISS %: 7.69774  AVERAGE MISS PENALTY: 0
LLC3 PREFETCH  REQUESTED:     0  ISSUED:     0  USEFUL: 2060070  USELESS: 166840230
 USEFUL LOAD PREFETCHES:    2060070 PREFETCH ISSUED TO LOWER LEVEL:  168901661  ACCURACY: 1.21969
 TIMELY PREFETCHES:    2060070 LATE PREFETCHES: 0 DROPPED PREFETCHES: 0
LLC3 AVERAGE MISS LATENCY: 451.762 cycles
LLC4 TOTAL     ACCESS: 27575600  HIT: 3438071  MISS: 24137529  HIT %: 12.4678  MISS %: 87.5322  AVERAGE MISS PENALTY: 446.709
LLC4 LOAD      ACCESS: 3759142  HIT: 510387  MISS: 3248755  HIT %: 13.5772  MISS %: 86.4228  AVERAGE MISS PENALTY: 419.874
LLC4 RFO       ACCESS:  8188  HIT:   145  MISS:  8043  HIT %: 1.77088  MISS %: 98.2291  AVERAGE MISS PENALTY: 394.559
LLC4 PREFETCH  ACCESS: 23791280  HIT: 2911931  MISS: 20879349  HIT %: 12.2395  MISS %: 87.7605  AVERAGE MISS PENALTY: 450.934
LLC4 WRITEBACK ACCESS: 16990  HIT: 15608  MISS:  1382  HIT %: 91.8658  MISS %: 8.1342  AVERAGE MISS PENALTY: 0
LLC4 PREFETCH  REQUESTED:     0  ISSUED:     0  USEFUL: 2030182  USELESS: 165052086
 USEFUL LOAD PREFETCHES:    2030182 PREFETCH ISSUED TO LOWER LEVEL:  167082621  ACCURACY: 1.21508
 TIMELY PREFETCHES:    2030182 LATE PREFETCHES: 0 DROPPED PREFETCHES: 0
LLC4 AVERAGE MISS LATENCY: 446.709 cycles
LLC5 TOTAL     ACCESS: 27303301  HIT: 3429210  MISS: 23874091  HIT %: 12.5597  MISS %: 87.4403  AVERAGE MISS PENALTY: 445.443
LLC5 LOAD      ACCESS: 3720214  HIT: 493835  MISS: 3226379  HIT %: 13.2744  MISS %: 86.7256  AVERAGE MISS PENALTY: 417.109
LLC5 RFO       ACCESS:  8187  HIT:   137  MISS:  8050  HIT %: 1.67338  MISS %: 98.3266  AVERAGE MISS PENALTY: 384.909
LLC5 PREFETCH  ACCESS: 23557910  HIT: 2919496  MISS: 20638414  HIT %: 12.3928  MISS %: 87.6072  AVERAGE MISS PENALTY: 449.923
LLC5 WRITEBACK ACCESS: 16990  HIT: 15742  MISS:  1248  HIT %: 92.6545  MISS %: 7.3455  AVERAGE MISS PENALTY: 0
LLC5 PREFETCH  REQUESTED:     0  ISSUED:     0  USEFUL: 2006440  USELESS: 163154803
 USEFUL LOAD PREFETCHES:    2006440 PREFETCH ISSUED TO LOWER LEVEL:  165161302  ACCURACY: 1.21484
 TIMELY PREFETCHES:    2006440 LATE PREFETCHES: 0 DROPPED PREFETCHES: 0
LLC5 AVERAGE MISS LATENCY: 445.443 cycles
LLC6 TOTAL     ACCESS: 26972789  HIT: 3398726  MISS: 23574063  HIT %: 12.6006  MISS %: 87.3994  AVERAGE MISS PENALTY: 444.28
LLC6 LOAD      ACCESS: 3826849  HIT: 531746  MISS: 3295103  HIT %: 13.8951  MISS %: 86.1049  AVERAGE MISS PENALTY: 418.883
LLC6 RFO       ACCESS:  8189  HIT:   121  MISS:  8068  HIT %: 1.47759  MISS %: 98.5224  AVERAGE MISS PENALTY: 453.822
LLC6 PREFETCH  ACCESS: 23120757  HIT: 2851137  MISS: 20269620  HIT %: 12.3315  MISS %: 87.6685  AVERAGE MISS PENALTY: 448.433
LLC6 WRITEBACK ACCESS: 16994  HIT: 15722  MISS:  1272  HIT %: 92.515  MISS %: 7.48499  AVERAGE MISS PENALTY: 0
LLC6 PREFETCH  REQUESTED:     0  ISSUED:     0  USEFUL: 1996912  USELESS: 160210421
 USEFUL LOAD PREFETCHES:    1996912 PREFETCH ISSUED TO LOWER LEVEL:  162207734  ACCURACY: 1.23108
 TIMELY PREFETCHES:    1996912 LATE PREFETCHES: 0 DROPPED PREFETCHES: 0
LLC6 AVERAGE MISS LATENCY: 433.553 cycles
LLC7 TOTAL     ACCESS: 26492057  HIT: 3327868  MISS: 23164189  HIT %: 12.5618  MISS %: 87.4382  AVERAGE MISS PENALTY: 433.201
LLC7 LOAD      ACCESS: 3771300  HIT: 536054  MISS: 3235246  HIT %: 14.214  MISS %: 85.786  AVERAGE MISS PENALTY: 415.623
LLC7 RFO       ACCESS:  8188  HIT:   111  MISS:  8077  HIT %: 1.35564  MISS %: 98.6444  AVERAGE MISS PENALTY: 433.056
LLC7 PREFETCH  ACCESS: 22695576  HIT: 2776130  MISS: 19919446  HIT %: 12.232  MISS %: 87.768  AVERAGE MISS PENALTY: 436.087
LLC7 WRITEBACK ACCESS: 16993  HIT: 15573  MISS:  1420  HIT %: 91.6436  MISS %: 8.35638  AVERAGE MISS PENALTY: 0
LLC7 PREFETCH  REQUESTED:     0  ISSUED:     0  USEFUL: 1966312  USELESS: 157434715
 USEFUL LOAD PREFETCHES:    1966312 PREFETCH ISSUED TO LOWER LEVEL:  159401238  ACCURACY: 1.23356
 TIMELY PREFETCHES:    1966312 LATE PREFETCHES: 0 DROPPED PREFETCHES: 0
LLC7 AVERAGE MISS LATENCY: 433.201 cycles
ROI Average ROB Stall Cycles:	326.38
ROI Total ROB Stalls Cycles:	13918219315
ROI TOTAL ROB counter      :	42644201
ROI Average Load ROB Stall Cycles:	390.119
ROI Total Load ROB Stalls Cycle  :	13726901259
ROI Total Load ROB stalls Counter:	35186474
Major fault: 0 Minor fault: 34814

CPU 7 cumulative IPC: 0.0143254 instructions: 200000003 cycles: 13961188426
ITLB TOTAL     ACCESS: 34326979  HIT: 34326979  MISS:     0  HIT %:   100  MISS %:     0  AVERAGE MISS PENALTY: 0
ITLB LOAD      ACCESS: 34326979  HIT: 34326979  MISS:     0  HIT %:   100  MISS %:     0  AVERAGE MISS PENALTY: 0
ITLB RFO       ACCESS:     0  HIT:     0  MISS:     0  HIT %:     0  MISS %:     0  AVERAGE MISS PENALTY: 0
ITLB PREFETCH  ACCESS:     0  HIT:     0  MISS:     0  HIT %:     0  MISS %:     0  AVERAGE MISS PENALTY: 0
ITLB WRITEBACK ACCESS:     0  HIT:     0  MISS:     0  HIT %:     0  MISS %:     0  AVERAGE MISS PENALTY: 0
ITLB PREFETCH  REQUESTED:     0  ISSUED:     0  USEFUL:     0  USELESS:     0
 USEFUL LOAD PREFETCHES:          0 PREFETCH ISSUED TO LOWER LEVEL:          0  ACCURACY: -nan
 TIMELY PREFETCHES:          0 LATE PREFETCHES: 0 DROPPED PREFETCHES: 0
ITLB AVERAGE MISS LATENCY: -nan cycles
DTLB TOTAL     ACCESS: 78221080  HIT: 55263682  MISS: 22957398  HIT %: 70.6506  MISS %: 29.3494  AVERAGE MISS PENALTY: 9.18841
DTLB LOAD      ACCESS: 75525183  HIT: 52572808  MISS: 22952375  HIT %: 69.6096  MISS %: 30.3904  AVERAGE MISS PENALTY: 9.1834
DTLB RFO       ACCESS: 2695897  HIT: 2690874  MISS:  5023  HIT %: 99.8137  MISS %: 0.18632  AVERAGE MISS PENALTY: 32.0864
DTLB PREFETCH  ACCESS:     0  HIT:     0  MISS:     0  HIT %:     0  MISS %:     0  AVERAGE MISS PENALTY: 0
DTLB WRITEBACK ACCESS:     0  HIT:     0  MISS:     0  HIT %:     0  MISS %:     0  AVERAGE MISS PENALTY: 0
DTLB PREFETCH  REQUESTED:     0  ISSUED:     0  USEFUL:     0  USELESS:     0
 USEFUL LOAD PREFETCHES:          0 PREFETCH ISSUED TO LOWER LEVEL:          0  ACCURACY: -nan
 TIMELY PREFETCHES:          0 LATE PREFETCHES: 0 DROPPED PREFETCHES: 0
DTLB AVERAGE MISS LATENCY: 9.18841 cycles
STLB TOTAL     ACCESS: 22957398  HIT: 22916601  MISS: 40797  HIT %: 99.8223  MISS %: 0.177707  AVERAGE MISS PENALTY: 100
STLB LOAD      ACCESS: 22952375  HIT: 22912302  MISS: 40073  HIT %: 99.8254  MISS %: 0.174592  AVERAGE MISS PENALTY: 100
STLB RFO       ACCESS:  5023  HIT:  4299  MISS:   724  HIT %: 85.5863  MISS %: 14.4137  AVERAGE MISS PENALTY: 100
STLB PREFETCH  ACCESS:     0  HIT:     0  MISS:     0  HIT %:     0  MISS %:     0  AVERAGE MISS PENALTY: 0
STLB WRITEBACK ACCESS:     0  HIT:     0  MISS:     0  HIT %:     0  MISS %:     0  AVERAGE MISS PENALTY: 0
STLB PREFETCH  REQUESTED:     0  ISSUED:     0  USEFUL:     0  USELESS:     0
 USEFUL LOAD PREFETCHES:          0 PREFETCH ISSUED TO LOWER LEVEL:          0  ACCURACY: -nan
 TIMELY PREFETCHES:          0 LATE PREFETCHES: 0 DROPPED PREFETCHES: 0
STLB AVERAGE MISS LATENCY: 100 cycles
L1D TOTAL     ACCESS: 197455137  HIT: 41609147  MISS: 155845990  HIT %: 21.0727  MISS %: 78.9273  AVERAGE MISS PENALTY: 5.20138e+07
L1D LOAD      ACCESS: 66856762  HIT: 34374072  MISS: 32482690  HIT %: 51.4145  MISS %: 48.5855  AVERAGE MISS PENALTY: 2.49551e+08
L1D RFO       ACCESS: 2421331  HIT: 2355771  MISS: 65560  HIT %: 97.2924  MISS %: 2.7076  AVERAGE MISS PENALTY: 473.556
L1D PREFETCH  ACCESS: 128177044  HIT: 4879304  MISS: 123297740  HIT %: 3.80669  MISS %: 96.1933  AVERAGE MISS PENALTY: 437.57
L1D WRITEBACK ACCESS:     0  HIT:     0  MISS:     0  HIT %:     0  MISS %:     0  AVERAGE MISS PENALTY: 0
L1D PREFETCH  REQUESTED: 132140791  ISSUED: 131974705  USEFUL: 3179579  USELESS: 120118153
 USEFUL LOAD PREFETCHES:    3179579 PREFETCH ISSUED TO LOWER LEVEL:  130083211  ACCURACY: 2.44427
 TIMELY PREFETCHES:    3179579 LATE PREFETCHES: 1147686 DROPPED PREFETCHES: 166086
L1D AVERAGE MISS LATENCY: 426.545 cycles
L1I TOTAL     ACCESS: 36071302  HIT: 36071287  MISS:    15  HIT %:   100  MISS %: 4.15843e-05  AVERAGE MISS PENALTY: 416.6
L1I LOAD      ACCESS: 36071302  HIT: 36071287  MISS:    15  HIT %:   100  MISS %: 4.15843e-05  AVERAGE MISS PENALTY: 416.6
L1I RFO       ACCESS:     0  HIT:     0  MISS:     0  HIT %:     0  MISS %:     0  AVERAGE MISS PENALTY: 0
L1I PREFETCH  ACCESS:     0  HIT:     0  MISS:     0  HIT %:     0  MISS %:     0  AVERAGE MISS PENALTY: 0
L1I WRITEBACK ACCESS:     0  HIT:     0  MISS:     0  HIT %:     0  MISS %:     0  AVERAGE MISS PENALTY: 0
L1I PREFETCH  REQUESTED:     0  ISSUED:     0  USEFUL:     0  USELESS:     0
 USEFUL LOAD PREFETCHES:          0 PREFETCH ISSUED TO LOWER LEVEL:          0  ACCURACY: -nan
 TIMELY PREFETCHES:          0 LATE PREFETCHES: 0 DROPPED PREFETCHES: 0
L1I AVERAGE MISS LATENCY: 416.6 cycles
L2C TOTAL     ACCESS: 230194418  HIT: 7683457  MISS: 222510961  HIT %: 3.33781  MISS %: 96.6622  AVERAGE MISS PENALTY: 4.59685e+07
L2C LOAD      ACCESS: 32431332  HIT: 547163  MISS: 31884169  HIT %: 1.68714  MISS %: 98.3129  AVERAGE MISS PENALTY: 3.20799e+08
L2C RFO       ACCESS: 65560  HIT:    54  MISS: 65506  HIT %: 0.0823673  MISS %: 99.9176  AVERAGE MISS PENALTY: 458.562
L2C PREFETCH  ACCESS: 197496579  HIT: 6935463  MISS: 190561116  HIT %: 3.51169  MISS %: 96.4883  AVERAGE MISS PENALTY: 438.72
L2C WRITEBACK ACCESS: 200947  HIT: 200777  MISS:   170  HIT %: 99.9154  MISS %: 0.0845994  AVERAGE MISS PENALTY: 0
L2C PREFETCH  REQUESTED: 300061717  ISSUED: 300056963  USEFUL: 426381  USELESS: 190134806
 USEFUL LOAD PREFETCHES:     426381 PREFETCH ISSUED TO LOWER LEVEL:  195604992  ACCURACY: 0.217981
 TIMELY PREFETCHES:     426381 LATE PREFETCHES: 1498718 DROPPED PREFETCHES: 4754
L2C AVERAGE MISS LATENCY: 427.578 cycles
LLC0 TOTAL     ACCESS: 28586343  HIT: 3587180  MISS: 24999163  HIT %: 12.5486  MISS %: 87.4514  AVERAGE MISS PENALTY: 474.817
LLC0 LOAD      ACCESS: 3974747  HIT: 551563  MISS: 3423184  HIT %: 13.8767  MISS %: 86.1233  AVERAGE MISS PENALTY: 451.911
LLC0 RFO       ACCESS:  8189  HIT:   152  MISS:  8037  HIT %: 1.85615  MISS %: 98.1439  AVERAGE MISS PENALTY: 405.81
LLC0 PREFETCH  ACCESS: 24586418  HIT: 3020215  MISS: 21566203  HIT %: 12.2841  MISS %: 87.7159  AVERAGE MISS PENALTY: 478.517
LLC0 WRITEBACK ACCESS: 16989  HIT: 15250  MISS:  1739  HIT %: 89.764  MISS %: 10.236  AVERAGE MISS PENALTY: 0
LLC0 PREFETCH  REQUESTED:     0  ISSUED:     0  USEFUL: 2079304  USELESS: 170499624
 USEFUL LOAD PREFETCHES:    2079304 PREFETCH ISSUED TO LOWER LEVEL:  172579077  ACCURACY: 1.20484
 TIMELY PREFETCHES:    2079304 LATE PREFETCHES: 0 DROPPED PREFETCHES: 0
LLC0 AVERAGE MISS LATENCY: 474.817 cycles
Deadblocks : 26854759 Deadblock percentage : 784.497

LLC1 TOTAL     ACCESS: 28941191  HIT: 3568428  MISS: 25372763  HIT %: 12.3299  MISS %: 87.6701  AVERAGE MISS PENALTY: 479.428
LLC1 LOAD      ACCESS: 3769100  HIT: 483297  MISS: 3285803  HIT %: 12.8226  MISS %: 87.1774  AVERAGE MISS PENALTY: 447.82
LLC1 RFO       ACCESS:  8190  HIT:   139  MISS:  8051  HIT %: 1.69719  MISS %: 98.3028  AVERAGE MISS PENALTY: 397.91
LLC1 PREFETCH  ACCESS: 25146911  HIT: 3069600  MISS: 22077311  HIT %: 12.2067  MISS %: 87.7933  AVERAGE MISS PENALTY: 484.196
LLC1 WRITEBACK ACCESS: 16990  HIT: 15392  MISS:  1598  HIT %: 90.5945  MISS %: 9.40553  AVERAGE MISS PENALTY: 0
LLC1 PREFETCH  REQUESTED:     0  ISSUED:     0  USEFUL: 2012055  USELESS: 174657581
 USEFUL LOAD PREFETCHES:    2012055 PREFETCH ISSUED TO LOWER LEVEL:  176669847  ACCURACY: 1.13888
 TIMELY PREFETCHES:    2012055 LATE PREFETCHES: 0 DROPPED PREFETCHES: 0
LLC1 AVERAGE MISS LATENCY: 469.461 cycles
LLC2 TOTAL     ACCESS: 28783863  HIT: 3597000  MISS: 25186863  HIT %: 12.4966  MISS %: 87.5034  AVERAGE MISS PENALTY: 455.826
LLC2 LOAD      ACCESS: 3832662  HIT: 497581  MISS: 3335081  HIT %: 12.9826  MISS %: 87.0174  AVERAGE MISS PENALTY: 450.052
LLC2 RFO       ACCESS:  8189  HIT:   142  MISS:  8047  HIT %: 1.73403  MISS %: 98.266  AVERAGE MISS PENALTY: 496.237
LLC2 PREFETCH  ACCESS: 24926021  HIT: 3083636  MISS: 21842385  HIT %: 12.3712  MISS %: 87.6288  AVERAGE MISS PENALTY: 456.722
LLC2 WRITEBACK ACCESS: 16991  HIT: 15641  MISS:  1350  HIT %: 92.0546  MISS %: 7.94538  AVERAGE MISS PENALTY: 0
LLC2 PREFETCH  REQUESTED:     0  ISSUED:     0  USEFUL: 2051892  USELESS: 172741032
 USEFUL LOAD PREFETCHES:    2051892 PREFETCH ISSUED TO LOWER LEVEL:  174793385  ACCURACY: 1.1739
 TIMELY PREFETCHES:    2051892 LATE PREFETCHES: 0 DROPPED PREFETCHES: 0
LLC2 AVERAGE MISS LATENCY: 455.826 cycles
LLC3 TOTAL     ACCESS: 27988841  HIT: 3536723  MISS: 24452118  HIT %: 12.6362  MISS %: 87.3638  AVERAGE MISS PENALTY: 451.865
LLC3 LOAD      ACCESS: 3916694  HIT: 581162  MISS: 3335532  HIT %: 14.8381  MISS %: 85.1619  AVERAGE MISS PENALTY: 445.885
LLC3 RFO       ACCESS:  8186  HIT:   135  MISS:  8051  HIT %: 1.64916  MISS %: 98.3508  AVERAGE MISS PENALTY: 483.918
LLC3 PREFETCH  ACCESS: 24046971  HIT: 2939715  MISS: 21107256  HIT %: 12.2249  MISS %: 87.7751  AVERAGE MISS PENALTY: 452.826
LLC3 WRITEBACK ACCESS: 16990  HIT: 15711  MISS:  1279  HIT %: 92.472  MISS %: 7.52796  AVERAGE MISS PENALTY: 0
LLC3 PREFETCH  REQUESTED:     0  ISSUED:     0  USEFUL: 2060070  USELESS: 166840230
 USEFUL LOAD PREFETCHES:    2060070 PREFETCH ISSUED TO LOWER LEVEL:  168901661  ACCURACY: 1.21969
 TIMELY PREFETCHES:    2060070 LATE PREFETCHES: 0 DROPPED PREFETCHES: 0
LLC3 AVERAGE MISS LATENCY: 451.865 cycles
LLC4 TOTAL     ACCESS: 27576933  HIT: 3440802  MISS: 24136131  HIT %: 12.4771  MISS %: 87.5229  AVERAGE MISS PENALTY: 446.782
LLC4 LOAD      ACCESS: 3759576  HIT: 510413  MISS: 3249163  HIT %: 13.5763  MISS %: 86.4237  AVERAGE MISS PENALTY: 419.641
LLC4 RFO       ACCESS:  8188  HIT:   143  MISS:  8045  HIT %: 1.74646  MISS %: 98.2535  AVERAGE MISS PENALTY: 396.44
LLC4 PREFETCH  ACCESS: 23792179  HIT: 2914539  MISS: 20877640  HIT %: 12.25  MISS %: 87.75  AVERAGE MISS PENALTY: 451.052
LLC4 WRITEBACK ACCESS: 16990  HIT: 15707  MISS:  1283  HIT %: 92.4485  MISS %: 7.5515  AVERAGE MISS PENALTY: 0
LLC4 PREFETCH  REQUESTED:     0  ISSUED:     0  USEFUL: 2030182  USELESS: 165052086
 USEFUL LOAD PREFETCHES:    2030182 PREFETCH ISSUED TO LOWER LEVEL:  167082621  ACCURACY: 1.21508
 TIMELY PREFETCHES:    2030182 LATE PREFETCHES: 0 DROPPED PREFETCHES: 0
LLC4 AVERAGE MISS LATENCY: 446.782 cycles
LLC5 TOTAL     ACCESS: 27304170  HIT: 3429072  MISS: 23875098  HIT %: 12.5588  MISS %: 87.4412  AVERAGE MISS PENALTY: 456.081
LLC5 LOAD      ACCESS: 3720746  HIT: 494412  MISS: 3226334  HIT %: 13.288  MISS %: 86.712  AVERAGE MISS PENALTY: 416.996
LLC5 RFO       ACCESS:  8187  HIT:   141  MISS:  8046  HIT %: 1.72224  MISS %: 98.2778  AVERAGE MISS PENALTY: 381.405
LLC5 PREFETCH  ACCESS: 23558249  HIT: 2918797  MISS: 20639452  HIT %: 12.3897  MISS %: 87.6103  AVERAGE MISS PENALTY: 462.248
LLC5 WRITEBACK ACCESS: 16988  HIT: 15722  MISS:  1266  HIT %: 92.5477  MISS %: 7.45232  AVERAGE MISS PENALTY: 0
LLC5 PREFETCH  REQUESTED:     0  ISSUED:     0  USEFUL: 2006440  USELESS: 163154803
 USEFUL LOAD PREFETCHES:    2006440 PREFETCH ISSUED TO LOWER LEVEL:  165161302  ACCURACY: 1.21484
 TIMELY PREFETCHES:    2006440 LATE PREFETCHES: 0 DROPPED PREFETCHES: 0
LLC5 AVERAGE MISS LATENCY: 445.489 cycles
LLC6 TOTAL     ACCESS: 26973027  HIT: 3398904  MISS: 23574123  HIT %: 12.6011  MISS %: 87.3989  AVERAGE MISS PENALTY: 444.395
LLC6 LOAD      ACCESS: 3827106  HIT: 530987  MISS: 3296119  HIT %: 13.8744  MISS %: 86.1256  AVERAGE MISS PENALTY: 419.028
LLC6 RFO       ACCESS:  8189  HIT:   134  MISS:  8055  HIT %: 1.63634  MISS %: 98.3637  AVERAGE MISS PENALTY: 449.859
LLC6 PREFETCH  ACCESS: 23120742  HIT: 2852109  MISS: 20268633  HIT %: 12.3357  MISS %: 87.6643  AVERAGE MISS PENALTY: 448.547
LLC6 WRITEBACK ACCESS: 16990  HIT: 15674  MISS:  1316  HIT %: 92.2543  MISS %: 7.74573  AVERAGE MISS PENALTY: 0
LLC6 PREFETCH  REQUESTED:     0  ISSUED:     0  USEFUL: 1996912  USELESS: 160210421
 USEFUL LOAD PREFETCHES:    1996912 PREFETCH ISSUED TO LOWER LEVEL:  162207734  ACCURACY: 1.23108
 TIMELY PREFETCHES:    1996912 LATE PREFETCHES: 0 DROPPED PREFETCHES: 0
LLC6 AVERAGE MISS LATENCY: 433.668 cycles
LLC7 TOTAL     ACCESS: 26492340  HIT: 3329900  MISS: 23162440  HIT %: 12.5693  MISS %: 87.4307  AVERAGE MISS PENALTY: 444.233
LLC7 LOAD      ACCESS: 3771505  HIT: 535399  MISS: 3236106  HIT %: 14.1959  MISS %: 85.8041  AVERAGE MISS PENALTY: 416.024
LLC7 RFO       ACCESS:  8188  HIT:   141  MISS:  8047  HIT %: 1.72203  MISS %: 98.278  AVERAGE MISS PENALTY: 433.372
LLC7 PREFETCH  ACCESS: 22695658  HIT: 2778794  MISS: 19916864  HIT %: 12.2437  MISS %: 87.7563  AVERAGE MISS PENALTY: 448.853
LLC7 WRITEBACK ACCESS: 16989  HIT: 15566  MISS:  1423  HIT %: 91.624  MISS %: 8.37601  AVERAGE MISS PENALTY: 0
LLC7 PREFETCH  REQUESTED:     0  ISSUED:     0  USEFUL: 1966312  USELESS: 157434715
 USEFUL LOAD PREFETCHES:    1966312 PREFETCH ISSUED TO LOWER LEVEL:  159401238  ACCURACY: 1.23356
 TIMELY PREFETCHES:    1966312 LATE PREFETCHES: 0 DROPPED PREFETCHES: 0
LLC7 AVERAGE MISS LATENCY: 433.315 cycles
ROI Average ROB Stall Cycles:	326.458
ROI Total ROB Stalls Cycles:	13922420174
ROI TOTAL ROB counter      :	42646936
ROI Average Load ROB Stall Cycles:	390.254
ROI Total Load ROB Stalls Cycle  :	13731100925
ROI Total Load ROB stalls Counter:	35185063
Major fault: 0 Minor fault: 34814








Interconnect Stats 
LINK 0 BW : 0LINK 1 BW : 0LINK 2 BW : 0LINK 3 BW : 0LINK 4 BW : 0LINK 5 BW : 0LINK 6 BW : 0LINK 7 BW : 0
DRAM Statistics
 CHANNEL 0
 RQ ROW_BUFFER_HIT: 282893325  ROW_BUFFER_MISS: 500444996
 DBUS_CONGESTED: 365087484
 WQ ROW_BUFFER_HIT: 57518  ROW_BUFFER_MISS: 485006  FULL:     0

 CHANNEL 1
 RQ ROW_BUFFER_HIT: 277587180  ROW_BUFFER_MISS: 497473244
 DBUS_CONGESTED: 365087484
 WQ ROW_BUFFER_HIT: 58032  ROW_BUFFER_MISS: 484440  FULL:     0

 AVG_CONGESTED_CYCLE: 4
DRAM PAGES: 2097152
Allocated PAGES: 278512
L2C destructor called
L1D destructor called
L1I destructor called
STLB destructor called
DTLB destructor called
ITLB destructor called
L2C destructor called
L1D destructor called
L1I destructor called
STLB destructor called
DTLB destructor called
ITLB destructor called
L2C destructor called
L1D destructor called
L1I destructor called
STLB destructor called
DTLB destructor called
ITLB destructor called
L2C destructor called
L1D destructor called
L1I destructor called
STLB destructor called
DTLB destructor called
ITLB destructor called
L2C destructor called
L1D destructor called
L1I destructor called
STLB destructor called
DTLB destructor called
ITLB destructor called
L2C destructor called
L1D destructor called
L1I destructor called
STLB destructor called
DTLB destructor called
ITLB destructor called
L2C destructor called
L1D destructor called
L1I destructor called
STLB destructor called
DTLB destructor called
ITLB destructor called
L2C destructor called
L1D destructor called
L1I destructor called
STLB destructor called
DTLB destructor called
ITLB destructor called
