
*** ChampSim Multicore Out-of-Order Simulator ***

Warmup Instructions: 200000000
Simulation Instructions: 200000000
Number of CPUs: 8
threads:1

L1I Configuration:
L1I_SET:64
L1I_WAY:8
L1I_RQ_SIZE:64
L1I_WQ_SIZE:64
L1I_PQ_SIZE:8
L1I_MSHR_SIZE:8

L1D Configuration:
L1D_SET:64
L1D_WAY:12
L1D_RQ_SIZE:64
L1D_WQ_SIZE:64
L1D_PQ_SIZE:8
L1D_MSHR_SIZE:16

L2C Configuration:
L2C_SET:1024
L2C_WAY:8
L2C_RQ_SIZE:32
L2C_WQ_SIZE:32
L2C_PQ_SIZE:16
L2C_MSHR_SIZE:32

LLC Configuration:
LLC_SET:2048
LLC_WAY:16
LLC SLICES:8
LLC_RQ_SIZE:64
LLC_WQ_SIZE:64
LLC_PQ_SIZE:32
LLC_MSHR_SIZE:64

Interconnect OFF
Attacker deprioritize is: OFF
Off-chip DRAM Size: 8192 MB Channels: 2 Width: 64-bit Data Rate: 3200 MT/s
PAGE SIZE in KB: 4.000000 
PAGE SIZE in MB: 0.003906 
PAGE offset in bits: 12 
CEASER-S_LLC:0
MIRAGE : 0
CEASER_LATENCY:3
REMAP : OFF
Partitions : 1
Multi-Step : OFF
BFS : OFF

CPU 0 runs /home/anubhav/gap/sssp-5.trace.gz
CPU 1 runs /home/anubhav/gap/sssp-5.trace.gz
CPU 2 runs /home/anubhav/gap/sssp-5.trace.gz
CPU 3 runs /home/anubhav/gap/sssp-5.trace.gz
CPU 4 runs /home/anubhav/gap/sssp-5.trace.gz
CPU 5 runs /home/anubhav/gap/sssp-5.trace.gz
CPU 6 runs /home/anubhav/gap/sssp-5.trace.gz
CPU 7 runs /home/anubhav/gap/sssp-5.trace.gz
CPU 0 Bimodal branch predictor
Initialize Hawkeye state
Initialize Hawkeye state
Initialize Hawkeye state
Initialize Hawkeye state
Initialize Hawkeye state
Initialize Hawkeye state
Initialize Hawkeye state
Initialize Hawkeye state
CPU 1 Bimodal branch predictor
Initialize Hawkeye state
Initialize Hawkeye state
Initialize Hawkeye state
Initialize Hawkeye state
Initialize Hawkeye state
Initialize Hawkeye state
Initialize Hawkeye state
Initialize Hawkeye state
CPU 2 Bimodal branch predictor
Initialize Hawkeye state
Initialize Hawkeye state
Initialize Hawkeye state
Initialize Hawkeye state
Initialize Hawkeye state
Initialize Hawkeye state
Initialize Hawkeye state
Initialize Hawkeye state
CPU 3 Bimodal branch predictor
Initialize Hawkeye state
Initialize Hawkeye state
Initialize Hawkeye state
Initialize Hawkeye state
Initialize Hawkeye state
Initialize Hawkeye state
Initialize Hawkeye state
Initialize Hawkeye state
CPU 4 Bimodal branch predictor
Initialize Hawkeye state
Initialize Hawkeye state
Initialize Hawkeye state
Initialize Hawkeye state
Initialize Hawkeye state
Initialize Hawkeye state
Initialize Hawkeye state
Initialize Hawkeye state
CPU 5 Bimodal branch predictor
Initialize Hawkeye state
Initialize Hawkeye state
Initialize Hawkeye state
Initialize Hawkeye state
Initialize Hawkeye state
Initialize Hawkeye state
Initialize Hawkeye state
Initialize Hawkeye state
CPU 6 Bimodal branch predictor
Initialize Hawkeye state
Initialize Hawkeye state
Initialize Hawkeye state
Initialize Hawkeye state
Initialize Hawkeye state
Initialize Hawkeye state
Initialize Hawkeye state
Initialize Hawkeye state
CPU 7 Bimodal branch predictor
Initialize Hawkeye state
Initialize Hawkeye state
Initialize Hawkeye state
Initialize Hawkeye state
Initialize Hawkeye state
Initialize Hawkeye state
Initialize Hawkeye state
Initialize Hawkeye state
Heartbeat CPU 0 instructions: 10000000 cycles: 7196080 heartbeat IPC: 1.38965 cumulative IPC: 1.38965 (Simulation time: 0 hr 14 min 15 sec) 
 Total Blocks : 262144 Invalid Blocks : 201
Heartbeat CPU 4 instructions: 10000000 cycles: 7196846 heartbeat IPC: 1.3895 cumulative IPC: 1.3895 (Simulation time: 0 hr 14 min 15 sec) 
 Total Blocks : 262144 Invalid Blocks : 200
Heartbeat CPU 2 instructions: 10000000 cycles: 7197374 heartbeat IPC: 1.3894 cumulative IPC: 1.3894 (Simulation time: 0 hr 14 min 15 sec) 
 Total Blocks : 262144 Invalid Blocks : 200
Heartbeat CPU 5 instructions: 10000000 cycles: 7197509 heartbeat IPC: 1.38937 cumulative IPC: 1.38937 (Simulation time: 0 hr 14 min 15 sec) 
 Total Blocks : 262144 Invalid Blocks : 199
Heartbeat CPU 6 instructions: 10000000 cycles: 7197510 heartbeat IPC: 1.38937 cumulative IPC: 1.38937 (Simulation time: 0 hr 14 min 15 sec) 
 Total Blocks : 262144 Invalid Blocks : 199
Heartbeat CPU 3 instructions: 10000000 cycles: 7197741 heartbeat IPC: 1.38932 cumulative IPC: 1.38932 (Simulation time: 0 hr 14 min 15 sec) 
 Total Blocks : 262144 Invalid Blocks : 199
Heartbeat CPU 1 instructions: 10000000 cycles: 7197982 heartbeat IPC: 1.38928 cumulative IPC: 1.38928 (Simulation time: 0 hr 14 min 15 sec) 
 Total Blocks : 262144 Invalid Blocks : 199
Heartbeat CPU 7 instructions: 10000000 cycles: 7197989 heartbeat IPC: 1.38928 cumulative IPC: 1.38928 (Simulation time: 0 hr 14 min 15 sec) 
 Total Blocks : 262144 Invalid Blocks : 199
Heartbeat CPU 0 instructions: 20000003 cycles: 15486386 heartbeat IPC: 1.20623 cumulative IPC: 1.29146 (Simulation time: 0 hr 30 min 53 sec) 
 Total Blocks : 262144 Invalid Blocks : 0
Heartbeat CPU 3 instructions: 20000003 cycles: 15490769 heartbeat IPC: 1.20583 cumulative IPC: 1.29109 (Simulation time: 0 hr 30 min 53 sec) 
 Total Blocks : 262144 Invalid Blocks : 0
Heartbeat CPU 4 instructions: 20000003 cycles: 15493581 heartbeat IPC: 1.20529 cumulative IPC: 1.29086 (Simulation time: 0 hr 30 min 54 sec) 
 Total Blocks : 262144 Invalid Blocks : 0
Heartbeat CPU 2 instructions: 20000003 cycles: 15493613 heartbeat IPC: 1.20537 cumulative IPC: 1.29085 (Simulation time: 0 hr 30 min 54 sec) 
 Total Blocks : 262144 Invalid Blocks : 0
Heartbeat CPU 5 instructions: 20000003 cycles: 15494118 heartbeat IPC: 1.20531 cumulative IPC: 1.29081 (Simulation time: 0 hr 30 min 54 sec) 
 Total Blocks : 262144 Invalid Blocks : 0
Heartbeat CPU 1 instructions: 20000003 cycles: 15494975 heartbeat IPC: 1.20526 cumulative IPC: 1.29074 (Simulation time: 0 hr 30 min 54 sec) 
 Total Blocks : 262144 Invalid Blocks : 0
Heartbeat CPU 7 instructions: 20000003 cycles: 15496340 heartbeat IPC: 1.20506 cumulative IPC: 1.29063 (Simulation time: 0 hr 30 min 54 sec) 
 Total Blocks : 262144 Invalid Blocks : 0
Heartbeat CPU 6 instructions: 20000003 cycles: 15497364 heartbeat IPC: 1.20484 cumulative IPC: 1.29054 (Simulation time: 0 hr 30 min 54 sec) 
 Total Blocks : 262144 Invalid Blocks : 0
Heartbeat CPU 0 instructions: 30000002 cycles: 23117643 heartbeat IPC: 1.3104 cumulative IPC: 1.29771 (Simulation time: 0 hr 50 min 41 sec) 
 Total Blocks : 262144 Invalid Blocks : 0
Heartbeat CPU 3 instructions: 30000002 cycles: 23119863 heartbeat IPC: 1.31077 cumulative IPC: 1.29759 (Simulation time: 0 hr 50 min 42 sec) 
 Total Blocks : 262144 Invalid Blocks : 0
Heartbeat CPU 2 instructions: 30000002 cycles: 23128524 heartbeat IPC: 1.30977 cumulative IPC: 1.2971 (Simulation time: 0 hr 50 min 43 sec) 
 Total Blocks : 262144 Invalid Blocks : 0
Heartbeat CPU 5 instructions: 30000002 cycles: 23129887 heartbeat IPC: 1.30963 cumulative IPC: 1.29702 (Simulation time: 0 hr 50 min 44 sec) 
 Total Blocks : 262144 Invalid Blocks : 0
Heartbeat CPU 1 instructions: 30000002 cycles: 23130471 heartbeat IPC: 1.30967 cumulative IPC: 1.29699 (Simulation time: 0 hr 50 min 44 sec) 
 Total Blocks : 262144 Invalid Blocks : 0
Heartbeat CPU 4 instructions: 30000002 cycles: 23131017 heartbeat IPC: 1.30934 cumulative IPC: 1.29696 (Simulation time: 0 hr 50 min 44 sec) 
 Total Blocks : 262144 Invalid Blocks : 0
Heartbeat CPU 7 instructions: 30000002 cycles: 23133512 heartbeat IPC: 1.30939 cumulative IPC: 1.29682 (Simulation time: 0 hr 50 min 44 sec) 
 Total Blocks : 262144 Invalid Blocks : 0
Heartbeat CPU 6 instructions: 30000002 cycles: 23137368 heartbeat IPC: 1.3089 cumulative IPC: 1.2966 (Simulation time: 0 hr 50 min 45 sec) 
 Total Blocks : 262144 Invalid Blocks : 0
Heartbeat CPU 3 instructions: 40000003 cycles: 30210512 heartbeat IPC: 1.41031 cumulative IPC: 1.32404 (Simulation time: 1 hr 13 min 51 sec) 
 Total Blocks : 262144 Invalid Blocks : 0
Heartbeat CPU 0 instructions: 40000003 cycles: 30211361 heartbeat IPC: 1.4097 cumulative IPC: 1.32401 (Simulation time: 1 hr 13 min 51 sec) 
 Total Blocks : 262144 Invalid Blocks : 0
Heartbeat CPU 2 instructions: 40000003 cycles: 30225732 heartbeat IPC: 1.409 cumulative IPC: 1.32338 (Simulation time: 1 hr 13 min 53 sec) 
 Total Blocks : 262144 Invalid Blocks : 0
Heartbeat CPU 1 instructions: 40000003 cycles: 30228087 heartbeat IPC: 1.40892 cumulative IPC: 1.32327 (Simulation time: 1 hr 13 min 53 sec) 
 Total Blocks : 262144 Invalid Blocks : 0
Heartbeat CPU 5 instructions: 40000003 cycles: 30229309 heartbeat IPC: 1.40857 cumulative IPC: 1.32322 (Simulation time: 1 hr 13 min 54 sec) 
 Total Blocks : 262144 Invalid Blocks : 0
Heartbeat CPU 4 instructions: 40000003 cycles: 30230102 heartbeat IPC: 1.40863 cumulative IPC: 1.32318 (Simulation time: 1 hr 13 min 54 sec) 
 Total Blocks : 262144 Invalid Blocks : 0
Heartbeat CPU 7 instructions: 40000003 cycles: 30234525 heartbeat IPC: 1.40825 cumulative IPC: 1.32299 (Simulation time: 1 hr 13 min 54 sec) 
 Total Blocks : 262144 Invalid Blocks : 0
Heartbeat CPU 6 instructions: 40000003 cycles: 30239909 heartbeat IPC: 1.40795 cumulative IPC: 1.32276 (Simulation time: 1 hr 13 min 55 sec) 
 Total Blocks : 262144 Invalid Blocks : 0
Heartbeat CPU 3 instructions: 50000002 cycles: 37037102 heartbeat IPC: 1.46486 cumulative IPC: 1.35 (Simulation time: 1 hr 37 min 29 sec) 
 Total Blocks : 262144 Invalid Blocks : 0
Heartbeat CPU 0 instructions: 50000002 cycles: 37040508 heartbeat IPC: 1.46431 cumulative IPC: 1.34987 (Simulation time: 1 hr 37 min 29 sec) 
 Total Blocks : 262144 Invalid Blocks : 0
Heartbeat CPU 2 instructions: 50000002 cycles: 37057823 heartbeat IPC: 1.46368 cumulative IPC: 1.34924 (Simulation time: 1 hr 37 min 31 sec) 
 Total Blocks : 262144 Invalid Blocks : 0
Heartbeat CPU 1 instructions: 50000002 cycles: 37059801 heartbeat IPC: 1.46376 cumulative IPC: 1.34917 (Simulation time: 1 hr 37 min 31 sec) 
 Total Blocks : 262144 Invalid Blocks : 0
Heartbeat CPU 5 instructions: 50000002 cycles: 37063446 heartbeat IPC: 1.46324 cumulative IPC: 1.34904 (Simulation time: 1 hr 37 min 32 sec) 
 Total Blocks : 262144 Invalid Blocks : 0
Heartbeat CPU 4 instructions: 50000002 cycles: 37063796 heartbeat IPC: 1.46334 cumulative IPC: 1.34903 (Simulation time: 1 hr 37 min 32 sec) 
 Total Blocks : 262144 Invalid Blocks : 0
Heartbeat CPU 7 instructions: 50000002 cycles: 37069600 heartbeat IPC: 1.46304 cumulative IPC: 1.34881 (Simulation time: 1 hr 37 min 33 sec) 
 Total Blocks : 262144 Invalid Blocks : 0
Heartbeat CPU 6 instructions: 50000002 cycles: 37076113 heartbeat IPC: 1.4628 cumulative IPC: 1.34858 (Simulation time: 1 hr 37 min 33 sec) 
 Total Blocks : 262144 Invalid Blocks : 0
Heartbeat CPU 3 instructions: 60000001 cycles: 43550424 heartbeat IPC: 1.53531 cumulative IPC: 1.37771 (Simulation time: 2 hr 3 min 12 sec) 
 Total Blocks : 262144 Invalid Blocks : 0
Heartbeat CPU 0 instructions: 60000001 cycles: 43556023 heartbeat IPC: 1.5348 cumulative IPC: 1.37754 (Simulation time: 2 hr 3 min 13 sec) 
 Total Blocks : 262144 Invalid Blocks : 0
Heartbeat CPU 2 instructions: 60000001 cycles: 43576227 heartbeat IPC: 1.53412 cumulative IPC: 1.3769 (Simulation time: 2 hr 3 min 17 sec) 
 Total Blocks : 262144 Invalid Blocks : 0
Heartbeat CPU 1 instructions: 60000001 cycles: 43577488 heartbeat IPC: 1.53429 cumulative IPC: 1.37686 (Simulation time: 2 hr 3 min 17 sec) 
 Total Blocks : 262144 Invalid Blocks : 0
Heartbeat CPU 4 instructions: 60000001 cycles: 43583675 heartbeat IPC: 1.53377 cumulative IPC: 1.37666 (Simulation time: 2 hr 3 min 18 sec) 
 Total Blocks : 262144 Invalid Blocks : 0
Heartbeat CPU 5 instructions: 60000001 cycles: 43583885 heartbeat IPC: 1.53364 cumulative IPC: 1.37666 (Simulation time: 2 hr 3 min 18 sec) 
 Total Blocks : 262144 Invalid Blocks : 0
Heartbeat CPU 7 instructions: 60000001 cycles: 43591607 heartbeat IPC: 1.53327 cumulative IPC: 1.37641 (Simulation time: 2 hr 3 min 20 sec) 
 Total Blocks : 262144 Invalid Blocks : 0
Heartbeat CPU 6 instructions: 60000001 cycles: 43598268 heartbeat IPC: 1.53324 cumulative IPC: 1.3762 (Simulation time: 2 hr 3 min 21 sec) 
 Total Blocks : 262144 Invalid Blocks : 0
Heartbeat CPU 3 instructions: 70000000 cycles: 49899653 heartbeat IPC: 1.57499 cumulative IPC: 1.40282 (Simulation time: 2 hr 29 min 7 sec) 
 Total Blocks : 262144 Invalid Blocks : 0
Heartbeat CPU 0 instructions: 70000000 cycles: 49907293 heartbeat IPC: 1.57449 cumulative IPC: 1.4026 (Simulation time: 2 hr 29 min 10 sec) 
 Total Blocks : 262144 Invalid Blocks : 0
Heartbeat CPU 2 instructions: 70000000 cycles: 49930399 heartbeat IPC: 1.57377 cumulative IPC: 1.40195 (Simulation time: 2 hr 29 min 16 sec) 
 Total Blocks : 262144 Invalid Blocks : 0
Heartbeat CPU 1 instructions: 70000000 cycles: 49931018 heartbeat IPC: 1.57393 cumulative IPC: 1.40193 (Simulation time: 2 hr 29 min 16 sec) 
 Total Blocks : 262144 Invalid Blocks : 0
Heartbeat CPU 4 instructions: 70000000 cycles: 49939155 heartbeat IPC: 1.57345 cumulative IPC: 1.40171 (Simulation time: 2 hr 29 min 18 sec) 
 Total Blocks : 262144 Invalid Blocks : 0
Heartbeat CPU 5 instructions: 70000000 cycles: 49939663 heartbeat IPC: 1.57337 cumulative IPC: 1.40169 (Simulation time: 2 hr 29 min 18 sec) 
 Total Blocks : 262144 Invalid Blocks : 0
Heartbeat CPU 7 instructions: 70000000 cycles: 49948802 heartbeat IPC: 1.57302 cumulative IPC: 1.40144 (Simulation time: 2 hr 29 min 20 sec) 
 Total Blocks : 262144 Invalid Blocks : 0
Heartbeat CPU 6 instructions: 70000000 cycles: 49955767 heartbeat IPC: 1.57295 cumulative IPC: 1.40124 (Simulation time: 2 hr 29 min 22 sec) 
 Total Blocks : 262144 Invalid Blocks : 0
Heartbeat CPU 3 instructions: 80000003 cycles: 56240165 heartbeat IPC: 1.57716 cumulative IPC: 1.42247 (Simulation time: 2 hr 55 min 5 sec) 
 Total Blocks : 262144 Invalid Blocks : 0
Heartbeat CPU 0 instructions: 80000003 cycles: 56250046 heartbeat IPC: 1.5766 cumulative IPC: 1.42222 (Simulation time: 2 hr 55 min 8 sec) 
 Total Blocks : 262144 Invalid Blocks : 0
Heartbeat CPU 2 instructions: 80000003 cycles: 56274201 heartbeat IPC: 1.57634 cumulative IPC: 1.42161 (Simulation time: 2 hr 55 min 16 sec) 
 Total Blocks : 262144 Invalid Blocks : 0
Heartbeat CPU 1 instructions: 80000003 cycles: 56274923 heartbeat IPC: 1.57632 cumulative IPC: 1.42159 (Simulation time: 2 hr 55 min 16 sec) 
 Total Blocks : 262144 Invalid Blocks : 0
Heartbeat CPU 4 instructions: 80000003 cycles: 56284565 heartbeat IPC: 1.57594 cumulative IPC: 1.42135 (Simulation time: 2 hr 55 min 20 sec) 
 Total Blocks : 262144 Invalid Blocks : 0
Heartbeat CPU 5 instructions: 80000003 cycles: 56285412 heartbeat IPC: 1.57586 cumulative IPC: 1.42133 (Simulation time: 2 hr 55 min 20 sec) 
 Total Blocks : 262144 Invalid Blocks : 0
Heartbeat CPU 7 instructions: 80000003 cycles: 56296216 heartbeat IPC: 1.57545 cumulative IPC: 1.42105 (Simulation time: 2 hr 55 min 24 sec) 
 Total Blocks : 262144 Invalid Blocks : 0
Heartbeat CPU 6 instructions: 80000003 cycles: 56303317 heartbeat IPC: 1.57541 cumulative IPC: 1.42088 (Simulation time: 2 hr 55 min 27 sec) 
 Total Blocks : 262144 Invalid Blocks : 0
Heartbeat CPU 3 instructions: 90000000 cycles: 62265784 heartbeat IPC: 1.65958 cumulative IPC: 1.44542 (Simulation time: 3 hr 28 min 15 sec) 
 Total Blocks : 262144 Invalid Blocks : 0
Heartbeat CPU 0 instructions: 90000000 cycles: 62278740 heartbeat IPC: 1.65873 cumulative IPC: 1.44512 (Simulation time: 3 hr 28 min 19 sec) 
 Total Blocks : 262144 Invalid Blocks : 0
Heartbeat CPU 2 instructions: 90000000 cycles: 62304361 heartbeat IPC: 1.65833 cumulative IPC: 1.44452 (Simulation time: 3 hr 28 min 26 sec) 
 Total Blocks : 262144 Invalid Blocks : 0
Heartbeat CPU 1 instructions: 90000000 cycles: 62304957 heartbeat IPC: 1.65836 cumulative IPC: 1.44451 (Simulation time: 3 hr 28 min 26 sec) 
 Total Blocks : 262144 Invalid Blocks : 0
Heartbeat CPU 4 instructions: 90000000 cycles: 62315956 heartbeat IPC: 1.65799 cumulative IPC: 1.44425 (Simulation time: 3 hr 28 min 29 sec) 
 Total Blocks : 262144 Invalid Blocks : 0
Heartbeat CPU 5 instructions: 90000000 cycles: 62316961 heartbeat IPC: 1.65795 cumulative IPC: 1.44423 (Simulation time: 3 hr 28 min 30 sec) 
 Total Blocks : 262144 Invalid Blocks : 0
Heartbeat CPU 7 instructions: 90000000 cycles: 62330099 heartbeat IPC: 1.65731 cumulative IPC: 1.44393 (Simulation time: 3 hr 28 min 33 sec) 
 Total Blocks : 262144 Invalid Blocks : 0
Heartbeat CPU 6 instructions: 90000000 cycles: 62337330 heartbeat IPC: 1.65727 cumulative IPC: 1.44376 (Simulation time: 3 hr 28 min 35 sec) 
 Total Blocks : 262144 Invalid Blocks : 0
Heartbeat CPU 3 instructions: 100000000 cycles: 68222350 heartbeat IPC: 1.67882 cumulative IPC: 1.4658 (Simulation time: 4 hr 3 min 0 sec) 
 Total Blocks : 262144 Invalid Blocks : 0
Heartbeat CPU 0 instructions: 100000000 cycles: 68237029 heartbeat IPC: 1.67833 cumulative IPC: 1.46548 (Simulation time: 4 hr 3 min 5 sec) 
 Total Blocks : 262144 Invalid Blocks : 0
Heartbeat CPU 2 instructions: 100000000 cycles: 68264589 heartbeat IPC: 1.67779 cumulative IPC: 1.46489 (Simulation time: 4 hr 3 min 13 sec) 
 Total Blocks : 262144 Invalid Blocks : 0
Heartbeat CPU 1 instructions: 100000000 cycles: 68265279 heartbeat IPC: 1.67776 cumulative IPC: 1.46487 (Simulation time: 4 hr 3 min 14 sec) 
 Total Blocks : 262144 Invalid Blocks : 0
Heartbeat CPU 4 instructions: 100000000 cycles: 68277857 heartbeat IPC: 1.67732 cumulative IPC: 1.4646 (Simulation time: 4 hr 3 min 17 sec) 
 Total Blocks : 262144 Invalid Blocks : 0
Heartbeat CPU 5 instructions: 100000000 cycles: 68279085 heartbeat IPC: 1.67725 cumulative IPC: 1.46458 (Simulation time: 4 hr 3 min 18 sec) 
 Total Blocks : 262144 Invalid Blocks : 0
Heartbeat CPU 7 instructions: 100000000 cycles: 68293747 heartbeat IPC: 1.67683 cumulative IPC: 1.46426 (Simulation time: 4 hr 3 min 23 sec) 
 Total Blocks : 262144 Invalid Blocks : 0
Heartbeat CPU 6 instructions: 100000000 cycles: 68301021 heartbeat IPC: 1.67681 cumulative IPC: 1.46411 (Simulation time: 4 hr 3 min 25 sec) 
 Total Blocks : 262144 Invalid Blocks : 0
Heartbeat CPU 3 instructions: 110000000 cycles: 74047575 heartbeat IPC: 1.71667 cumulative IPC: 1.48553 (Simulation time: 4 hr 42 min 24 sec) 
 Total Blocks : 262144 Invalid Blocks : 0
Heartbeat CPU 0 instructions: 110000000 cycles: 74064880 heartbeat IPC: 1.7159 cumulative IPC: 1.48518 (Simulation time: 4 hr 42 min 30 sec) 
 Total Blocks : 262144 Invalid Blocks : 0
Heartbeat CPU 2 instructions: 110000000 cycles: 74093631 heartbeat IPC: 1.71555 cumulative IPC: 1.48461 (Simulation time: 4 hr 42 min 39 sec) 
 Total Blocks : 262144 Invalid Blocks : 0
Heartbeat CPU 1 instructions: 110000000 cycles: 74094880 heartbeat IPC: 1.71538 cumulative IPC: 1.48458 (Simulation time: 4 hr 42 min 39 sec) 
 Total Blocks : 262144 Invalid Blocks : 0
Heartbeat CPU 4 instructions: 110000000 cycles: 74108904 heartbeat IPC: 1.71496 cumulative IPC: 1.4843 (Simulation time: 4 hr 42 min 43 sec) 
 Total Blocks : 262144 Invalid Blocks : 0
Heartbeat CPU 5 instructions: 110000000 cycles: 74110496 heartbeat IPC: 1.71485 cumulative IPC: 1.48427 (Simulation time: 4 hr 42 min 44 sec) 
 Total Blocks : 262144 Invalid Blocks : 0
Heartbeat CPU 7 instructions: 110000000 cycles: 74126681 heartbeat IPC: 1.7144 cumulative IPC: 1.48395 (Simulation time: 4 hr 42 min 49 sec) 
 Total Blocks : 262144 Invalid Blocks : 0
Heartbeat CPU 6 instructions: 110000000 cycles: 74133924 heartbeat IPC: 1.71441 cumulative IPC: 1.4838 (Simulation time: 4 hr 42 min 51 sec) 
 Total Blocks : 262144 Invalid Blocks : 0
Heartbeat CPU 3 instructions: 120000002 cycles: 79805328 heartbeat IPC: 1.73679 cumulative IPC: 1.50366 (Simulation time: 5 hr 22 min 22 sec) 
 Total Blocks : 262144 Invalid Blocks : 0
Heartbeat CPU 0 instructions: 120000002 cycles: 79824202 heartbeat IPC: 1.73632 cumulative IPC: 1.5033 (Simulation time: 5 hr 22 min 30 sec) 
 Total Blocks : 262144 Invalid Blocks : 0
Heartbeat CPU 2 instructions: 120000002 cycles: 79854799 heartbeat IPC: 1.73576 cumulative IPC: 1.50273 (Simulation time: 5 hr 22 min 42 sec) 
 Total Blocks : 262144 Invalid Blocks : 0
Heartbeat CPU 1 instructions: 120000002 cycles: 79855769 heartbeat IPC: 1.73584 cumulative IPC: 1.50271 (Simulation time: 5 hr 22 min 43 sec) 
 Total Blocks : 262144 Invalid Blocks : 0
Heartbeat CPU 4 instructions: 120000002 cycles: 79871543 heartbeat IPC: 1.73532 cumulative IPC: 1.50241 (Simulation time: 5 hr 22 min 50 sec) 
 Total Blocks : 262144 Invalid Blocks : 0
Heartbeat CPU 5 instructions: 120000002 cycles: 79873567 heartbeat IPC: 1.73519 cumulative IPC: 1.50237 (Simulation time: 5 hr 22 min 51 sec) 
 Total Blocks : 262144 Invalid Blocks : 0
Heartbeat CPU 7 instructions: 120000002 cycles: 79891091 heartbeat IPC: 1.73478 cumulative IPC: 1.50204 (Simulation time: 5 hr 22 min 59 sec) 
 Total Blocks : 262144 Invalid Blocks : 0
Heartbeat CPU 6 instructions: 120000002 cycles: 79898260 heartbeat IPC: 1.73481 cumulative IPC: 1.50191 (Simulation time: 5 hr 23 min 2 sec) 
 Total Blocks : 262144 Invalid Blocks : 0
Heartbeat CPU 3 instructions: 130000000 cycles: 85559634 heartbeat IPC: 1.73783 cumulative IPC: 1.51941 (Simulation time: 6 hr 3 min 10 sec) 
 Total Blocks : 262144 Invalid Blocks : 0
Heartbeat CPU 0 instructions: 130000000 cycles: 85579492 heartbeat IPC: 1.73753 cumulative IPC: 1.51906 (Simulation time: 6 hr 3 min 19 sec) 
 Total Blocks : 262144 Invalid Blocks : 0
Heartbeat CPU 2 instructions: 130000000 cycles: 85612232 heartbeat IPC: 1.73688 cumulative IPC: 1.51847 (Simulation time: 6 hr 3 min 33 sec) 
 Total Blocks : 262144 Invalid Blocks : 0
Heartbeat CPU 1 instructions: 130000000 cycles: 85612549 heartbeat IPC: 1.73708 cumulative IPC: 1.51847 (Simulation time: 6 hr 3 min 33 sec) 
 Total Blocks : 262144 Invalid Blocks : 0
Heartbeat CPU 4 instructions: 130000000 cycles: 85630248 heartbeat IPC: 1.7365 cumulative IPC: 1.51816 (Simulation time: 6 hr 3 min 39 sec) 
 Total Blocks : 262144 Invalid Blocks : 0
Heartbeat CPU 5 instructions: 130000000 cycles: 85632752 heartbeat IPC: 1.73636 cumulative IPC: 1.51811 (Simulation time: 6 hr 3 min 40 sec) 
 Total Blocks : 262144 Invalid Blocks : 0
Heartbeat CPU 7 instructions: 130000000 cycles: 85652040 heartbeat IPC: 1.73582 cumulative IPC: 1.51777 (Simulation time: 6 hr 3 min 48 sec) 
 Total Blocks : 262144 Invalid Blocks : 0
Heartbeat CPU 6 instructions: 130000000 cycles: 85658433 heartbeat IPC: 1.73606 cumulative IPC: 1.51766 (Simulation time: 6 hr 3 min 50 sec) 
 Total Blocks : 262144 Invalid Blocks : 0
Heartbeat CPU 3 instructions: 140000003 cycles: 91222071 heartbeat IPC: 1.76602 cumulative IPC: 1.53472 (Simulation time: 6 hr 47 min 25 sec) 
 Total Blocks : 262144 Invalid Blocks : 0
Heartbeat CPU 0 instructions: 140000003 cycles: 91242700 heartbeat IPC: 1.76578 cumulative IPC: 1.53437 (Simulation time: 6 hr 47 min 32 sec) 
 Total Blocks : 262144 Invalid Blocks : 0
Heartbeat CPU 1 instructions: 140000003 cycles: 91277188 heartbeat IPC: 1.76534 cumulative IPC: 1.53379 (Simulation time: 6 hr 47 min 46 sec) 
 Total Blocks : 262144 Invalid Blocks : 0
Heartbeat CPU 2 instructions: 140000003 cycles: 91277632 heartbeat IPC: 1.7651 cumulative IPC: 1.53378 (Simulation time: 6 hr 47 min 46 sec) 
 Total Blocks : 262144 Invalid Blocks : 0
Heartbeat CPU 4 instructions: 140000003 cycles: 91296749 heartbeat IPC: 1.76476 cumulative IPC: 1.53346 (Simulation time: 6 hr 47 min 53 sec) 
 Total Blocks : 262144 Invalid Blocks : 0
Heartbeat CPU 5 instructions: 140000003 cycles: 91299916 heartbeat IPC: 1.76455 cumulative IPC: 1.53341 (Simulation time: 6 hr 47 min 55 sec) 
 Total Blocks : 262144 Invalid Blocks : 0
Heartbeat CPU 7 instructions: 140000003 cycles: 91320284 heartbeat IPC: 1.76422 cumulative IPC: 1.53307 (Simulation time: 6 hr 48 min 3 sec) 
 Total Blocks : 262144 Invalid Blocks : 0
Heartbeat CPU 6 instructions: 140000003 cycles: 91326765 heartbeat IPC: 1.76419 cumulative IPC: 1.53296 (Simulation time: 6 hr 48 min 6 sec) 
 Total Blocks : 262144 Invalid Blocks : 0
Heartbeat CPU 3 instructions: 150000003 cycles: 96818509 heartbeat IPC: 1.78685 cumulative IPC: 1.54929 (Simulation time: 7 hr 35 min 20 sec) 
 Total Blocks : 262144 Invalid Blocks : 0
Heartbeat CPU 0 instructions: 150000003 cycles: 96840891 heartbeat IPC: 1.78629 cumulative IPC: 1.54893 (Simulation time: 7 hr 35 min 30 sec) 
 Total Blocks : 262144 Invalid Blocks : 0
Heartbeat CPU 1 instructions: 150000003 cycles: 96876405 heartbeat IPC: 1.78596 cumulative IPC: 1.54836 (Simulation time: 7 hr 35 min 50 sec) 
 Total Blocks : 262144 Invalid Blocks : 0
Heartbeat CPU 2 instructions: 150000003 cycles: 96877264 heartbeat IPC: 1.78583 cumulative IPC: 1.54835 (Simulation time: 7 hr 35 min 50 sec) 
 Total Blocks : 262144 Invalid Blocks : 0
Heartbeat CPU 4 instructions: 150000003 cycles: 96898176 heartbeat IPC: 1.78526 cumulative IPC: 1.54802 (Simulation time: 7 hr 36 min 0 sec) 
 Total Blocks : 262144 Invalid Blocks : 0
Heartbeat CPU 5 instructions: 150000003 cycles: 96902221 heartbeat IPC: 1.78498 cumulative IPC: 1.54795 (Simulation time: 7 hr 36 min 2 sec) 
 Total Blocks : 262144 Invalid Blocks : 0
Heartbeat CPU 7 instructions: 150000003 cycles: 96923205 heartbeat IPC: 1.78478 cumulative IPC: 1.54762 (Simulation time: 7 hr 36 min 14 sec) 
 Total Blocks : 262144 Invalid Blocks : 0
Heartbeat CPU 6 instructions: 150000003 cycles: 96929473 heartbeat IPC: 1.78485 cumulative IPC: 1.54752 (Simulation time: 7 hr 36 min 18 sec) 
 Total Blocks : 262144 Invalid Blocks : 0
Heartbeat CPU 3 instructions: 160000003 cycles: 102371003 heartbeat IPC: 1.80099 cumulative IPC: 1.56294 (Simulation time: 8 hr 24 min 18 sec) 
 Total Blocks : 262144 Invalid Blocks : 0
Heartbeat CPU 0 instructions: 160000003 cycles: 102394616 heartbeat IPC: 1.80059 cumulative IPC: 1.56258 (Simulation time: 8 hr 24 min 30 sec) 
 Total Blocks : 262144 Invalid Blocks : 0
Heartbeat CPU 1 instructions: 160000003 cycles: 102430986 heartbeat IPC: 1.80032 cumulative IPC: 1.56203 (Simulation time: 8 hr 24 min 47 sec) 
 Total Blocks : 262144 Invalid Blocks : 0
Heartbeat CPU 2 instructions: 160000003 cycles: 102433110 heartbeat IPC: 1.79991 cumulative IPC: 1.562 (Simulation time: 8 hr 24 min 48 sec) 
 Total Blocks : 262144 Invalid Blocks : 0
Heartbeat CPU 4 instructions: 160000003 cycles: 102455002 heartbeat IPC: 1.79959 cumulative IPC: 1.56166 (Simulation time: 8 hr 24 min 58 sec) 
 Total Blocks : 262144 Invalid Blocks : 0
Heartbeat CPU 5 instructions: 160000003 cycles: 102459695 heartbeat IPC: 1.79938 cumulative IPC: 1.56159 (Simulation time: 8 hr 25 min 1 sec) 
 Total Blocks : 262144 Invalid Blocks : 0
Heartbeat CPU 7 instructions: 160000003 cycles: 102481693 heartbeat IPC: 1.79905 cumulative IPC: 1.56125 (Simulation time: 8 hr 25 min 10 sec) 
 Total Blocks : 262144 Invalid Blocks : 0
Heartbeat CPU 6 instructions: 160000003 cycles: 102487668 heartbeat IPC: 1.79915 cumulative IPC: 1.56116 (Simulation time: 8 hr 25 min 13 sec) 
 Total Blocks : 262144 Invalid Blocks : 0
Heartbeat CPU 3 instructions: 170000000 cycles: 107879583 heartbeat IPC: 1.81535 cumulative IPC: 1.57583 (Simulation time: 9 hr 16 min 35 sec) 
 Total Blocks : 262144 Invalid Blocks : 0
Heartbeat CPU 0 instructions: 170000000 cycles: 107904401 heartbeat IPC: 1.81495 cumulative IPC: 1.57547 (Simulation time: 9 hr 16 min 49 sec) 
 Total Blocks : 262144 Invalid Blocks : 0
Heartbeat CPU 1 instructions: 170000000 cycles: 107941761 heartbeat IPC: 1.81463 cumulative IPC: 1.57492 (Simulation time: 9 hr 17 min 9 sec) 
 Total Blocks : 262144 Invalid Blocks : 0
Heartbeat CPU 2 instructions: 170000000 cycles: 107944847 heartbeat IPC: 1.81431 cumulative IPC: 1.57488 (Simulation time: 9 hr 17 min 11 sec) 
 Total Blocks : 262144 Invalid Blocks : 0
Heartbeat CPU 4 instructions: 170000000 cycles: 107967978 heartbeat IPC: 1.8139 cumulative IPC: 1.57454 (Simulation time: 9 hr 17 min 24 sec) 
 Total Blocks : 262144 Invalid Blocks : 0
Heartbeat CPU 5 instructions: 170000000 cycles: 107973204 heartbeat IPC: 1.81373 cumulative IPC: 1.57446 (Simulation time: 9 hr 17 min 28 sec) 
 Total Blocks : 262144 Invalid Blocks : 0
Heartbeat CPU 7 instructions: 170000001 cycles: 107996224 heartbeat IPC: 1.81339 cumulative IPC: 1.57413 (Simulation time: 9 hr 17 min 41 sec) 
 Total Blocks : 262144 Invalid Blocks : 0
Heartbeat CPU 6 instructions: 170000000 cycles: 108002403 heartbeat IPC: 1.81332 cumulative IPC: 1.57404 (Simulation time: 9 hr 17 min 44 sec) 
 Total Blocks : 262144 Invalid Blocks : 0
Heartbeat CPU 3 instructions: 180000003 cycles: 113359270 heartbeat IPC: 1.82492 cumulative IPC: 1.58787 (Simulation time: 10 hr 13 min 28 sec) 
 Total Blocks : 262144 Invalid Blocks : 0
Heartbeat CPU 0 instructions: 180000003 cycles: 113385480 heartbeat IPC: 1.82446 cumulative IPC: 1.5875 (Simulation time: 10 hr 13 min 43 sec) 
 Total Blocks : 262144 Invalid Blocks : 0
Heartbeat CPU 1 instructions: 180000003 cycles: 113423526 heartbeat IPC: 1.82423 cumulative IPC: 1.58697 (Simulation time: 10 hr 14 min 3 sec) 
 Total Blocks : 262144 Invalid Blocks : 0
Heartbeat CPU 2 instructions: 180000003 cycles: 113427526 heartbeat IPC: 1.82393 cumulative IPC: 1.58692 (Simulation time: 10 hr 14 min 5 sec) 
 Total Blocks : 262144 Invalid Blocks : 0
Heartbeat CPU 4 instructions: 180000003 cycles: 113451527 heartbeat IPC: 1.82364 cumulative IPC: 1.58658 (Simulation time: 10 hr 14 min 18 sec) 
 Total Blocks : 262144 Invalid Blocks : 0
Heartbeat CPU 5 instructions: 180000003 cycles: 113457090 heartbeat IPC: 1.82352 cumulative IPC: 1.5865 (Simulation time: 10 hr 14 min 24 sec) 
 Total Blocks : 262144 Invalid Blocks : 0
Heartbeat CPU 7 instructions: 180000003 cycles: 113482203 heartbeat IPC: 1.82283 cumulative IPC: 1.58615 (Simulation time: 10 hr 14 min 40 sec) 
 Total Blocks : 262144 Invalid Blocks : 0
Heartbeat CPU 6 instructions: 180000003 cycles: 113487740 heartbeat IPC: 1.82304 cumulative IPC: 1.58607 (Simulation time: 10 hr 14 min 44 sec) 
 Total Blocks : 262144 Invalid Blocks : 0
Heartbeat CPU 3 instructions: 190000000 cycles: 118819677 heartbeat IPC: 1.83136 cumulative IPC: 1.59906 (Simulation time: 11 hr 8 min 59 sec) 
 Total Blocks : 262144 Invalid Blocks : 0
Heartbeat CPU 0 instructions: 190000000 cycles: 118846242 heartbeat IPC: 1.83125 cumulative IPC: 1.5987 (Simulation time: 11 hr 9 min 20 sec) 
 Total Blocks : 262144 Invalid Blocks : 0
Heartbeat CPU 1 instructions: 190000000 cycles: 118885719 heartbeat IPC: 1.83077 cumulative IPC: 1.59817 (Simulation time: 11 hr 9 min 53 sec) 
 Total Blocks : 262144 Invalid Blocks : 0
Heartbeat CPU 2 instructions: 190000001 cycles: 118890136 heartbeat IPC: 1.83063 cumulative IPC: 1.59811 (Simulation time: 11 hr 9 min 57 sec) 
 Total Blocks : 262144 Invalid Blocks : 0
Heartbeat CPU 4 instructions: 190000000 cycles: 118915424 heartbeat IPC: 1.83019 cumulative IPC: 1.59777 (Simulation time: 11 hr 10 min 20 sec) 
 Total Blocks : 262144 Invalid Blocks : 0
Heartbeat CPU 5 instructions: 190000000 cycles: 118921420 heartbeat IPC: 1.83005 cumulative IPC: 1.59769 (Simulation time: 11 hr 10 min 25 sec) 
 Total Blocks : 262144 Invalid Blocks : 0
Heartbeat CPU 7 instructions: 190000000 cycles: 118947776 heartbeat IPC: 1.82963 cumulative IPC: 1.59734 (Simulation time: 11 hr 10 min 49 sec) 
 Total Blocks : 262144 Invalid Blocks : 0
Heartbeat CPU 6 instructions: 190000000 cycles: 118953135 heartbeat IPC: 1.82969 cumulative IPC: 1.59727 (Simulation time: 11 hr 10 min 53 sec) 
 Total Blocks : 262144 Invalid Blocks : 0
Heartbeat CPU 3 instructions: 200000000 cycles: 124213285 heartbeat IPC: 1.85405 cumulative IPC: 1.61013 (Simulation time: 12 hr 10 min 50 sec) 
 Total Blocks : 262144 Invalid Blocks : 0
Heartbeat CPU 0 instructions: 200000000 cycles: 124241232 heartbeat IPC: 1.85357 cumulative IPC: 1.60977 (Simulation time: 12 hr 11 min 5 sec) 
 Total Blocks : 262144 Invalid Blocks : 0
Heartbeat CPU 1 instructions: 200000000 cycles: 124281717 heartbeat IPC: 1.85323 cumulative IPC: 1.60925 (Simulation time: 12 hr 11 min 30 sec) 
 Total Blocks : 262144 Invalid Blocks : 0
Heartbeat CPU 2 instructions: 200000000 cycles: 124286737 heartbeat IPC: 1.85302 cumulative IPC: 1.60918 (Simulation time: 12 hr 11 min 34 sec) 
 Total Blocks : 262144 Invalid Blocks : 0
Heartbeat CPU 4 instructions: 200000000 cycles: 124313314 heartbeat IPC: 1.85258 cumulative IPC: 1.60884 (Simulation time: 12 hr 11 min 52 sec) 
 Total Blocks : 262144 Invalid Blocks : 0
Heartbeat CPU 5 instructions: 200000000 cycles: 124319640 heartbeat IPC: 1.85246 cumulative IPC: 1.60876 (Simulation time: 12 hr 11 min 57 sec) 
 Total Blocks : 262144 Invalid Blocks : 0
Heartbeat CPU 7 instructions: 200000000 cycles: 124347509 heartbeat IPC: 1.85194 cumulative IPC: 1.6084 (Simulation time: 12 hr 12 min 19 sec) 
 Total Blocks : 262144 Invalid Blocks : 0
Heartbeat CPU 6 instructions: 200000000 cycles: 124352313 heartbeat IPC: 1.85213 cumulative IPC: 1.60833 (Simulation time: 12 hr 12 min 23 sec) 
 Total Blocks : 262144 Invalid Blocks : 0

Warmup complete CPU 0 instructions: 200208480 cycles: 124352314 (Simulation time: 12 hr 12 min 23 sec) 
Warmup complete CPU 1 instructions: 200133126 cycles: 124352314 (Simulation time: 12 hr 12 min 23 sec) 
Warmup complete CPU 2 instructions: 200123646 cycles: 124352314 (Simulation time: 12 hr 12 min 23 sec) 
Warmup complete CPU 3 instructions: 200261379 cycles: 124352314 (Simulation time: 12 hr 12 min 23 sec) 
Warmup complete CPU 4 instructions: 200073984 cycles: 124352314 (Simulation time: 12 hr 12 min 23 sec) 
Warmup complete CPU 5 instructions: 200061678 cycles: 124352314 (Simulation time: 12 hr 12 min 23 sec) 
Warmup complete CPU 6 instructions: 200000004 cycles: 124352314 (Simulation time: 12 hr 12 min 23 sec) 
Warmup complete CPU 7 instructions: 200008896 cycles: 124352313 (Simulation time: 12 hr 12 min 23 sec) 

Heartbeat CPU 0 instructions: 210000000 cycles: 210260709 heartbeat IPC: 0.116253 cumulative IPC: 0.113976 (Simulation time: 14 hr 6 min 7 sec) 
 Total Blocks : 262144 Invalid Blocks : 0
Heartbeat CPU 3 instructions: 210000000 cycles: 210328974 heartbeat IPC: 0.116123 cumulative IPC: 0.113271 (Simulation time: 14 hr 6 min 12 sec) 
 Total Blocks : 262144 Invalid Blocks : 0
Heartbeat CPU 1 instructions: 210000000 cycles: 210746827 heartbeat IPC: 0.115654 cumulative IPC: 0.114207 (Simulation time: 14 hr 6 min 45 sec) 
 Total Blocks : 262144 Invalid Blocks : 0
Heartbeat CPU 2 instructions: 210000000 cycles: 210810442 heartbeat IPC: 0.115575 cumulative IPC: 0.114233 (Simulation time: 14 hr 6 min 50 sec) 
 Total Blocks : 262144 Invalid Blocks : 0
Heartbeat CPU 4 instructions: 210000000 cycles: 211218186 heartbeat IPC: 0.115068 cumulative IPC: 0.114268 (Simulation time: 14 hr 7 min 23 sec) 
 Total Blocks : 262144 Invalid Blocks : 0
Heartbeat CPU 5 instructions: 210000000 cycles: 211573264 heartbeat IPC: 0.114608 cumulative IPC: 0.113944 (Simulation time: 14 hr 7 min 54 sec) 
 Total Blocks : 262144 Invalid Blocks : 0
Heartbeat CPU 7 instructions: 210000000 cycles: 211732803 heartbeat IPC: 0.114436 cumulative IPC: 0.11434 (Simulation time: 14 hr 8 min 6 sec) 
 Total Blocks : 262144 Invalid Blocks : 0
Heartbeat CPU 6 instructions: 210000000 cycles: 212041144 heartbeat IPC: 0.11404 cumulative IPC: 0.11404 (Simulation time: 14 hr 8 min 32 sec) 
 Total Blocks : 262144 Invalid Blocks : 0
Heartbeat CPU 0 instructions: 220000000 cycles: 298552716 heartbeat IPC: 0.113261 cumulative IPC: 0.113614 (Simulation time: 15 hr 34 min 49 sec) 
 Total Blocks : 262144 Invalid Blocks : 0
Heartbeat CPU 1 instructions: 220000000 cycles: 298924933 heartbeat IPC: 0.113407 cumulative IPC: 0.113803 (Simulation time: 15 hr 35 min 8 sec) 
 Total Blocks : 262144 Invalid Blocks : 0
Heartbeat CPU 3 instructions: 220000000 cycles: 299199448 heartbeat IPC: 0.112523 cumulative IPC: 0.112891 (Simulation time: 15 hr 35 min 24 sec) 
 Total Blocks : 262144 Invalid Blocks : 0
Heartbeat CPU 2 instructions: 220000000 cycles: 299199650 heartbeat IPC: 0.113136 cumulative IPC: 0.113678 (Simulation time: 15 hr 35 min 24 sec) 
 Total Blocks : 262144 Invalid Blocks : 0
Heartbeat CPU 4 instructions: 220000000 cycles: 299710826 heartbeat IPC: 0.113004 cumulative IPC: 0.11363 (Simulation time: 15 hr 35 min 54 sec) 
 Total Blocks : 262144 Invalid Blocks : 0
Heartbeat CPU 7 instructions: 220000000 cycles: 299883758 heartbeat IPC: 0.113442 cumulative IPC: 0.113889 (Simulation time: 15 hr 36 min 5 sec) 
 Total Blocks : 262144 Invalid Blocks : 0
Heartbeat CPU 5 instructions: 220000000 cycles: 299885772 heartbeat IPC: 0.113234 cumulative IPC: 0.113587 (Simulation time: 15 hr 36 min 5 sec) 
 Total Blocks : 262144 Invalid Blocks : 0
Heartbeat CPU 6 instructions: 220000000 cycles: 299979936 heartbeat IPC: 0.113715 cumulative IPC: 0.113877 (Simulation time: 15 hr 36 min 13 sec) 
 Total Blocks : 262144 Invalid Blocks : 0
Heartbeat CPU 0 instructions: 230000002 cycles: 386308062 heartbeat IPC: 0.113953 cumulative IPC: 0.113727 (Simulation time: 16 hr 58 min 7 sec) 
 Total Blocks : 262144 Invalid Blocks : 0
Heartbeat CPU 1 instructions: 230000002 cycles: 387014274 heartbeat IPC: 0.113521 cumulative IPC: 0.113708 (Simulation time: 16 hr 58 min 48 sec) 
 Total Blocks : 262144 Invalid Blocks : 0
Heartbeat CPU 2 instructions: 230000002 cycles: 387300003 heartbeat IPC: 0.113507 cumulative IPC: 0.113621 (Simulation time: 16 hr 59 min 5 sec) 
 Total Blocks : 262144 Invalid Blocks : 0
Heartbeat CPU 4 instructions: 230000000 cycles: 387445231 heartbeat IPC: 0.11398 cumulative IPC: 0.113747 (Simulation time: 16 hr 59 min 13 sec) 
 Total Blocks : 262144 Invalid Blocks : 0
Heartbeat CPU 7 instructions: 230000000 cycles: 387520067 heartbeat IPC: 0.114108 cumulative IPC: 0.113962 (Simulation time: 16 hr 59 min 18 sec) 
 Total Blocks : 262144 Invalid Blocks : 0
Heartbeat CPU 5 instructions: 230000002 cycles: 387878197 heartbeat IPC: 0.113646 cumulative IPC: 0.113607 (Simulation time: 16 hr 59 min 42 sec) 
 Total Blocks : 262144 Invalid Blocks : 0
Heartbeat CPU 3 instructions: 230000000 cycles: 387878811 heartbeat IPC: 0.112766 cumulative IPC: 0.112849 (Simulation time: 16 hr 59 min 42 sec) 
 Total Blocks : 262144 Invalid Blocks : 0
Heartbeat CPU 6 instructions: 230000000 cycles: 387999738 heartbeat IPC: 0.113611 cumulative IPC: 0.113788 (Simulation time: 16 hr 59 min 50 sec) 
 Total Blocks : 262144 Invalid Blocks : 0
Heartbeat CPU 0 instructions: 240000002 cycles: 472976153 heartbeat IPC: 0.115383 cumulative IPC: 0.114139 (Simulation time: 18 hr 22 min 17 sec) 
 Total Blocks : 262144 Invalid Blocks : 0
Heartbeat CPU 4 instructions: 240000002 cycles: 473807790 heartbeat IPC: 0.115791 cumulative IPC: 0.114252 (Simulation time: 18 hr 23 min 5 sec) 
 Total Blocks : 262144 Invalid Blocks : 0
Heartbeat CPU 1 instructions: 240000002 cycles: 473827993 heartbeat IPC: 0.115189 cumulative IPC: 0.114076 (Simulation time: 18 hr 23 min 6 sec) 
 Total Blocks : 262144 Invalid Blocks : 0
Heartbeat CPU 2 instructions: 240000002 cycles: 474211122 heartbeat IPC: 0.11506 cumulative IPC: 0.113978 (Simulation time: 18 hr 23 min 29 sec) 
 Total Blocks : 262144 Invalid Blocks : 0
Heartbeat CPU 7 instructions: 240000002 cycles: 474548737 heartbeat IPC: 0.114905 cumulative IPC: 0.114196 (Simulation time: 18 hr 23 min 49 sec) 
 Total Blocks : 262144 Invalid Blocks : 0
Heartbeat CPU 6 instructions: 240000002 cycles: 474627463 heartbeat IPC: 0.115437 cumulative IPC: 0.114196 (Simulation time: 18 hr 23 min 53 sec) 
 Total Blocks : 262144 Invalid Blocks : 0
Heartbeat CPU 5 instructions: 240000002 cycles: 474936763 heartbeat IPC: 0.114865 cumulative IPC: 0.113919 (Simulation time: 18 hr 24 min 11 sec) 
 Total Blocks : 262144 Invalid Blocks : 0
Heartbeat CPU 3 instructions: 240000002 cycles: 475434887 heartbeat IPC: 0.114213 cumulative IPC: 0.113189 (Simulation time: 18 hr 24 min 39 sec) 
 Total Blocks : 262144 Invalid Blocks : 0
Heartbeat CPU 0 instructions: 250000003 cycles: 559677741 heartbeat IPC: 0.115338 cumulative IPC: 0.114378 (Simulation time: 19 hr 48 min 29 sec) 
 Total Blocks : 262144 Invalid Blocks : 0
Heartbeat CPU 4 instructions: 250000003 cycles: 560486858 heartbeat IPC: 0.115368 cumulative IPC: 0.114474 (Simulation time: 19 hr 49 min 27 sec) 
 Total Blocks : 262144 Invalid Blocks : 0
Heartbeat CPU 1 instructions: 250000003 cycles: 560646730 heartbeat IPC: 0.115183 cumulative IPC: 0.114296 (Simulation time: 19 hr 49 min 37 sec) 
 Total Blocks : 262144 Invalid Blocks : 0
Heartbeat CPU 7 instructions: 250000003 cycles: 560952347 heartbeat IPC: 0.115736 cumulative IPC: 0.114501 (Simulation time: 19 hr 49 min 57 sec) 
 Total Blocks : 262144 Invalid Blocks : 0
Heartbeat CPU 2 instructions: 250000003 cycles: 560984291 heartbeat IPC: 0.115243 cumulative IPC: 0.11423 (Simulation time: 19 hr 49 min 59 sec) 
 Total Blocks : 262144 Invalid Blocks : 0
Heartbeat CPU 6 instructions: 250000003 cycles: 561145181 heartbeat IPC: 0.115583 cumulative IPC: 0.114471 (Simulation time: 19 hr 50 min 8 sec) 
 Total Blocks : 262144 Invalid Blocks : 0
Heartbeat CPU 5 instructions: 250000003 cycles: 561764734 heartbeat IPC: 0.11517 cumulative IPC: 0.114168 (Simulation time: 19 hr 50 min 49 sec) 
 Total Blocks : 262144 Invalid Blocks : 0
Heartbeat CPU 3 instructions: 250000003 cycles: 562960713 heartbeat IPC: 0.114252 cumulative IPC: 0.113401 (Simulation time: 19 hr 52 min 3 sec) 
 Total Blocks : 262144 Invalid Blocks : 0
Heartbeat CPU 0 instructions: 260000002 cycles: 646230923 heartbeat IPC: 0.115536 cumulative IPC: 0.11457 (Simulation time: 21 hr 17 min 2 sec) 
 Total Blocks : 262144 Invalid Blocks : 0
Heartbeat CPU 4 instructions: 260000002 cycles: 647357158 heartbeat IPC: 0.115114 cumulative IPC: 0.11458 (Simulation time: 21 hr 18 min 11 sec) 
 Total Blocks : 262144 Invalid Blocks : 0
Heartbeat CPU 7 instructions: 260000002 cycles: 647514049 heartbeat IPC: 0.115525 cumulative IPC: 0.11467 (Simulation time: 21 hr 18 min 22 sec) 
 Total Blocks : 262144 Invalid Blocks : 0
Heartbeat CPU 1 instructions: 260000002 cycles: 647636825 heartbeat IPC: 0.114956 cumulative IPC: 0.114406 (Simulation time: 21 hr 18 min 29 sec) 
 Total Blocks : 262144 Invalid Blocks : 0
Heartbeat CPU 2 instructions: 260000002 cycles: 647886862 heartbeat IPC: 0.115071 cumulative IPC: 0.114369 (Simulation time: 21 hr 18 min 44 sec) 
 Total Blocks : 262144 Invalid Blocks : 0
Heartbeat CPU 6 instructions: 260000002 cycles: 647986467 heartbeat IPC: 0.115153 cumulative IPC: 0.114584 (Simulation time: 21 hr 18 min 49 sec) 
 Total Blocks : 262144 Invalid Blocks : 0
Heartbeat CPU 5 instructions: 260000002 cycles: 648629730 heartbeat IPC: 0.115121 cumulative IPC: 0.114326 (Simulation time: 21 hr 19 min 28 sec) 
 Total Blocks : 262144 Invalid Blocks : 0
Heartbeat CPU 3 instructions: 260000002 cycles: 650383931 heartbeat IPC: 0.114386 cumulative IPC: 0.113565 (Simulation time: 21 hr 21 min 13 sec) 
 Total Blocks : 262144 Invalid Blocks : 0
Heartbeat CPU 0 instructions: 270000000 cycles: 734256996 heartbeat IPC: 0.113603 cumulative IPC: 0.11443 (Simulation time: 22 hr 50 min 40 sec) 
 Total Blocks : 262144 Invalid Blocks : 0
Heartbeat CPU 7 instructions: 270000000 cycles: 735328359 heartbeat IPC: 0.113877 cumulative IPC: 0.114556 (Simulation time: 22 hr 51 min 42 sec) 
 Total Blocks : 262144 Invalid Blocks : 0
Heartbeat CPU 4 instructions: 270000000 cycles: 735442546 heartbeat IPC: 0.113526 cumulative IPC: 0.114428 (Simulation time: 22 hr 51 min 50 sec) 
 Total Blocks : 262144 Invalid Blocks : 0
Heartbeat CPU 2 instructions: 270000000 cycles: 735662913 heartbeat IPC: 0.113926 cumulative IPC: 0.114306 (Simulation time: 22 hr 52 min 1 sec) 
 Total Blocks : 262144 Invalid Blocks : 0
Heartbeat CPU 6 instructions: 270000000 cycles: 735711392 heartbeat IPC: 0.113993 cumulative IPC: 0.114499 (Simulation time: 22 hr 52 min 4 sec) 
 Total Blocks : 262144 Invalid Blocks : 0
Heartbeat CPU 1 instructions: 270000000 cycles: 735735699 heartbeat IPC: 0.113509 cumulative IPC: 0.114277 (Simulation time: 22 hr 52 min 5 sec) 
 Total Blocks : 262144 Invalid Blocks : 0
Heartbeat CPU 5 instructions: 270000000 cycles: 736672313 heartbeat IPC: 0.113581 cumulative IPC: 0.114219 (Simulation time: 22 hr 53 min 4 sec) 
 Total Blocks : 262144 Invalid Blocks : 0
Heartbeat CPU 3 instructions: 270000000 cycles: 738978206 heartbeat IPC: 0.112874 cumulative IPC: 0.113465 (Simulation time: 22 hr 55 min 23 sec) 
 Total Blocks : 262144 Invalid Blocks : 0
Heartbeat CPU 0 instructions: 280000001 cycles: 821389184 heartbeat IPC: 0.114768 cumulative IPC: 0.114472 (Simulation time: 24 hr 24 min 20 sec) 
 Total Blocks : 262144 Invalid Blocks : 0
Heartbeat CPU 7 instructions: 280000001 cycles: 822020523 heartbeat IPC: 0.115351 cumulative IPC: 0.114655 (Simulation time: 24 hr 25 min 3 sec) 
 Total Blocks : 262144 Invalid Blocks : 0
Heartbeat CPU 4 instructions: 280000001 cycles: 822318506 heartbeat IPC: 0.115107 cumulative IPC: 0.114513 (Simulation time: 24 hr 25 min 25 sec) 
 Total Blocks : 262144 Invalid Blocks : 0
Heartbeat CPU 1 instructions: 280000001 cycles: 822468569 heartbeat IPC: 0.115297 cumulative IPC: 0.114403 (Simulation time: 24 hr 25 min 35 sec) 
 Total Blocks : 262144 Invalid Blocks : 0
Heartbeat CPU 6 instructions: 280000001 cycles: 822515318 heartbeat IPC: 0.115202 cumulative IPC: 0.114586 (Simulation time: 24 hr 25 min 38 sec) 
 Total Blocks : 262144 Invalid Blocks : 0
Heartbeat CPU 2 instructions: 280000001 cycles: 822587938 heartbeat IPC: 0.115042 cumulative IPC: 0.114397 (Simulation time: 24 hr 25 min 43 sec) 
 Total Blocks : 262144 Invalid Blocks : 0
Heartbeat CPU 5 instructions: 280000001 cycles: 823457122 heartbeat IPC: 0.115228 cumulative IPC: 0.114344 (Simulation time: 24 hr 26 min 38 sec) 
 Total Blocks : 262144 Invalid Blocks : 0
Heartbeat CPU 3 instructions: 280000001 cycles: 826591458 heartbeat IPC: 0.114138 cumulative IPC: 0.113549 (Simulation time: 24 hr 29 min 56 sec) 
 Total Blocks : 262144 Invalid Blocks : 0
Heartbeat CPU 0 instructions: 290000002 cycles: 907816337 heartbeat IPC: 0.115704 cumulative IPC: 0.114608 (Simulation time: 25 hr 56 min 54 sec) 
 Total Blocks : 262144 Invalid Blocks : 0
Heartbeat CPU 7 instructions: 290000000 cycles: 908494923 heartbeat IPC: 0.115641 cumulative IPC: 0.114764 (Simulation time: 25 hr 57 min 37 sec) 
 Total Blocks : 262144 Invalid Blocks : 0
Heartbeat CPU 4 instructions: 290000002 cycles: 909074591 heartbeat IPC: 0.115266 cumulative IPC: 0.114596 (Simulation time: 25 hr 58 min 13 sec) 
 Total Blocks : 262144 Invalid Blocks : 0
Heartbeat CPU 6 instructions: 290000002 cycles: 909122975 heartbeat IPC: 0.115463 cumulative IPC: 0.114683 (Simulation time: 25 hr 58 min 16 sec) 
 Total Blocks : 262144 Invalid Blocks : 0
Heartbeat CPU 1 instructions: 290000002 cycles: 909350878 heartbeat IPC: 0.115098 cumulative IPC: 0.11448 (Simulation time: 25 hr 58 min 31 sec) 
 Total Blocks : 262144 Invalid Blocks : 0
Heartbeat CPU 2 instructions: 290000000 cycles: 909660893 heartbeat IPC: 0.114846 cumulative IPC: 0.114447 (Simulation time: 25 hr 58 min 52 sec) 
 Total Blocks : 262144 Invalid Blocks : 0
Heartbeat CPU 5 instructions: 290000000 cycles: 910415417 heartbeat IPC: 0.114998 cumulative IPC: 0.114416 (Simulation time: 25 hr 59 min 45 sec) 
 Total Blocks : 262144 Invalid Blocks : 0
Heartbeat CPU 3 instructions: 290000000 cycles: 914276328 heartbeat IPC: 0.114045 cumulative IPC: 0.113604 (Simulation time: 26 hr 4 min 39 sec) 
 Total Blocks : 262144 Invalid Blocks : 0
Heartbeat CPU 0 instructions: 300000001 cycles: 994862520 heartbeat IPC: 0.114882 cumulative IPC: 0.114636 (Simulation time: 27 hr 35 min 48 sec) 
 Total Blocks : 262144 Invalid Blocks : 0
Heartbeat CPU 7 instructions: 300000001 cycles: 995576574 heartbeat IPC: 0.114835 cumulative IPC: 0.114771 (Simulation time: 27 hr 36 min 35 sec) 
 Total Blocks : 262144 Invalid Blocks : 0
Heartbeat CPU 4 instructions: 300000001 cycles: 996229281 heartbeat IPC: 0.114739 cumulative IPC: 0.11461 (Simulation time: 27 hr 37 min 21 sec) 
 Total Blocks : 262144 Invalid Blocks : 0
Heartbeat CPU 6 instructions: 300000001 cycles: 996279101 heartbeat IPC: 0.114737 cumulative IPC: 0.114689 (Simulation time: 27 hr 37 min 24 sec) 
 Total Blocks : 262144 Invalid Blocks : 0
Heartbeat CPU 1 instructions: 300000001 cycles: 996475110 heartbeat IPC: 0.114779 cumulative IPC: 0.11451 (Simulation time: 27 hr 37 min 37 sec) 
 Total Blocks : 262144 Invalid Blocks : 0
Heartbeat CPU 2 instructions: 300000001 cycles: 997048762 heartbeat IPC: 0.114432 cumulative IPC: 0.114446 (Simulation time: 27 hr 38 min 14 sec) 
 Total Blocks : 262144 Invalid Blocks : 0
Heartbeat CPU 5 instructions: 300000001 cycles: 997695929 heartbeat IPC: 0.114573 cumulative IPC: 0.114432 (Simulation time: 27 hr 38 min 58 sec) 
 Total Blocks : 262144 Invalid Blocks : 0
Heartbeat CPU 3 instructions: 300000001 cycles: 1002037510 heartbeat IPC: 0.113946 cumulative IPC: 0.113638 (Simulation time: 27 hr 44 min 59 sec) 
 Total Blocks : 262144 Invalid Blocks : 0
Heartbeat CPU 0 instructions: 310000002 cycles: 1081554622 heartbeat IPC: 0.115351 cumulative IPC: 0.1147 (Simulation time: 29 hr 31 min 39 sec) 
 Total Blocks : 262144 Invalid Blocks : 0
Heartbeat CPU 7 instructions: 310000002 cycles: 1082336885 heartbeat IPC: 0.11526 cumulative IPC: 0.114815 (Simulation time: 29 hr 32 min 27 sec) 
 Total Blocks : 262144 Invalid Blocks : 0
Heartbeat CPU 6 instructions: 310000002 cycles: 1082813422 heartbeat IPC: 0.115561 cumulative IPC: 0.114767 (Simulation time: 29 hr 32 min 56 sec) 
 Total Blocks : 262144 Invalid Blocks : 0
Heartbeat CPU 4 instructions: 310000002 cycles: 1083252505 heartbeat IPC: 0.114912 cumulative IPC: 0.114638 (Simulation time: 29 hr 33 min 25 sec) 
 Total Blocks : 262144 Invalid Blocks : 0
Heartbeat CPU 1 instructions: 310000002 cycles: 1083301686 heartbeat IPC: 0.115172 cumulative IPC: 0.11457 (Simulation time: 29 hr 33 min 28 sec) 
 Total Blocks : 262144 Invalid Blocks : 0
Heartbeat CPU 2 instructions: 310000002 cycles: 1083772249 heartbeat IPC: 0.115309 cumulative IPC: 0.114524 (Simulation time: 29 hr 33 min 59 sec) 
 Total Blocks : 262144 Invalid Blocks : 0
Heartbeat CPU 5 instructions: 310000002 cycles: 1084476023 heartbeat IPC: 0.115234 cumulative IPC: 0.114504 (Simulation time: 29 hr 34 min 48 sec) 
 Total Blocks : 262144 Invalid Blocks : 0
Heartbeat CPU 3 instructions: 310000002 cycles: 1089275626 heartbeat IPC: 0.114629 cumulative IPC: 0.113728 (Simulation time: 29 hr 40 min 25 sec) 
 Total Blocks : 262144 Invalid Blocks : 0
Heartbeat CPU 0 instructions: 320000003 cycles: 1168362285 heartbeat IPC: 0.115197 cumulative IPC: 0.114742 (Simulation time: 32 hr 10 min 3 sec) 
 Total Blocks : 262144 Invalid Blocks : 0
Heartbeat CPU 7 instructions: 320000003 cycles: 1168946506 heartbeat IPC: 0.115461 cumulative IPC: 0.114869 (Simulation time: 32 hr 11 min 13 sec) 
 Total Blocks : 262144 Invalid Blocks : 0
Heartbeat CPU 6 instructions: 320000003 cycles: 1169616405 heartbeat IPC: 0.115203 cumulative IPC: 0.114804 (Simulation time: 32 hr 12 min 34 sec) 
 Total Blocks : 262144 Invalid Blocks : 0
Heartbeat CPU 1 instructions: 320000003 cycles: 1170051409 heartbeat IPC: 0.115274 cumulative IPC: 0.114628 (Simulation time: 32 hr 13 min 23 sec) 
 Total Blocks : 262144 Invalid Blocks : 0
Heartbeat CPU 4 instructions: 320000003 cycles: 1170083302 heartbeat IPC: 0.115167 cumulative IPC: 0.114682 (Simulation time: 32 hr 13 min 28 sec) 
 Total Blocks : 262144 Invalid Blocks : 0
Heartbeat CPU 2 instructions: 320000003 cycles: 1170631486 heartbeat IPC: 0.115129 cumulative IPC: 0.114574 (Simulation time: 32 hr 14 min 33 sec) 
 Total Blocks : 262144 Invalid Blocks : 0
Heartbeat CPU 5 instructions: 320000001 cycles: 1171394020 heartbeat IPC: 0.115051 cumulative IPC: 0.11455 (Simulation time: 32 hr 16 min 8 sec) 
 Total Blocks : 262144 Invalid Blocks : 0
Heartbeat CPU 3 instructions: 320000003 cycles: 1176632237 heartbeat IPC: 0.114473 cumulative IPC: 0.11379 (Simulation time: 32 hr 26 min 2 sec) 
 Total Blocks : 262144 Invalid Blocks : 0
Heartbeat CPU 0 instructions: 330000000 cycles: 1255323694 heartbeat IPC: 0.114994 cumulative IPC: 0.114761 (Simulation time: 34 hr 56 min 6 sec) 
 Total Blocks : 262144 Invalid Blocks : 0
Heartbeat CPU 7 instructions: 330000000 cycles: 1255919939 heartbeat IPC: 0.114978 cumulative IPC: 0.114877 (Simulation time: 34 hr 57 min 13 sec) 
 Total Blocks : 262144 Invalid Blocks : 0
Heartbeat CPU 6 instructions: 330000000 cycles: 1256378088 heartbeat IPC: 0.115258 cumulative IPC: 0.114838 (Simulation time: 34 hr 58 min 0 sec) 
 Total Blocks : 262144 Invalid Blocks : 0
Heartbeat CPU 1 instructions: 330000000 cycles: 1257229766 heartbeat IPC: 0.114707 cumulative IPC: 0.114635 (Simulation time: 34 hr 59 min 45 sec) 
 Total Blocks : 262144 Invalid Blocks : 0
Heartbeat CPU 4 instructions: 330000000 cycles: 1257306893 heartbeat IPC: 0.114648 cumulative IPC: 0.114679 (Simulation time: 34 hr 59 min 55 sec) 
 Total Blocks : 262144 Invalid Blocks : 0
Heartbeat CPU 2 instructions: 330000000 cycles: 1258073287 heartbeat IPC: 0.114362 cumulative IPC: 0.114558 (Simulation time: 35 hr 1 min 25 sec) 
 Total Blocks : 262144 Invalid Blocks : 0
Heartbeat CPU 5 instructions: 330000000 cycles: 1258657031 heartbeat IPC: 0.114596 cumulative IPC: 0.114553 (Simulation time: 35 hr 2 min 37 sec) 
 Total Blocks : 262144 Invalid Blocks : 0
Heartbeat CPU 3 instructions: 330000000 cycles: 1264786088 heartbeat IPC: 0.113438 cumulative IPC: 0.113763 (Simulation time: 35 hr 14 min 33 sec) 
 Total Blocks : 262144 Invalid Blocks : 0
Heartbeat CPU 0 instructions: 340000002 cycles: 1342666291 heartbeat IPC: 0.114492 cumulative IPC: 0.114742 (Simulation time: 37 hr 43 min 17 sec) 
 Total Blocks : 262144 Invalid Blocks : 0
Heartbeat CPU 7 instructions: 340000002 cycles: 1343051920 heartbeat IPC: 0.114768 cumulative IPC: 0.114869 (Simulation time: 37 hr 43 min 57 sec) 
 Total Blocks : 262144 Invalid Blocks : 0
Heartbeat CPU 6 instructions: 340000002 cycles: 1343503616 heartbeat IPC: 0.114777 cumulative IPC: 0.114834 (Simulation time: 37 hr 44 min 45 sec) 
 Total Blocks : 262144 Invalid Blocks : 0
Heartbeat CPU 4 instructions: 340000002 cycles: 1344790339 heartbeat IPC: 0.114307 cumulative IPC: 0.114652 (Simulation time: 37 hr 47 min 0 sec) 
 Total Blocks : 262144 Invalid Blocks : 0
Heartbeat CPU 1 instructions: 340000002 cycles: 1344896665 heartbeat IPC: 0.114068 cumulative IPC: 0.114594 (Simulation time: 37 hr 47 min 14 sec) 
 Total Blocks : 262144 Invalid Blocks : 0
Heartbeat CPU 2 instructions: 340000002 cycles: 1345502647 heartbeat IPC: 0.114378 cumulative IPC: 0.114545 (Simulation time: 37 hr 48 min 24 sec) 
 Total Blocks : 262144 Invalid Blocks : 0
Heartbeat CPU 5 instructions: 340000002 cycles: 1345965054 heartbeat IPC: 0.114537 cumulative IPC: 0.114552 (Simulation time: 37 hr 49 min 16 sec) 
 Total Blocks : 262144 Invalid Blocks : 0
Heartbeat CPU 3 instructions: 340000002 cycles: 1352657285 heartbeat IPC: 0.113803 cumulative IPC: 0.113765 (Simulation time: 38 hr 2 min 10 sec) 
 Total Blocks : 262144 Invalid Blocks : 0
Heartbeat CPU 0 instructions: 350000001 cycles: 1429249169 heartbeat IPC: 0.115496 cumulative IPC: 0.114792 (Simulation time: 40 hr 29 min 8 sec) 
 Total Blocks : 262144 Invalid Blocks : 0
Heartbeat CPU 7 instructions: 350000001 cycles: 1429586259 heartbeat IPC: 0.115561 cumulative IPC: 0.114915 (Simulation time: 40 hr 29 min 42 sec) 
 Total Blocks : 262144 Invalid Blocks : 0
Heartbeat CPU 6 instructions: 350000001 cycles: 1429980192 heartbeat IPC: 0.115638 cumulative IPC: 0.114887 (Simulation time: 40 hr 30 min 23 sec) 
 Total Blocks : 262144 Invalid Blocks : 0
Heartbeat CPU 4 instructions: 350000001 cycles: 1431355444 heartbeat IPC: 0.11552 cumulative IPC: 0.11471 (Simulation time: 40 hr 32 min 56 sec) 
 Total Blocks : 262144 Invalid Blocks : 0
Heartbeat CPU 1 instructions: 350000001 cycles: 1431650415 heartbeat IPC: 0.115269 cumulative IPC: 0.114639 (Simulation time: 40 hr 33 min 31 sec) 
 Total Blocks : 262144 Invalid Blocks : 0
Heartbeat CPU 2 instructions: 350000001 cycles: 1432253115 heartbeat IPC: 0.115273 cumulative IPC: 0.114593 (Simulation time: 40 hr 34 min 38 sec) 
 Total Blocks : 262144 Invalid Blocks : 0
Heartbeat CPU 5 instructions: 350000001 cycles: 1432499026 heartbeat IPC: 0.115562 cumulative IPC: 0.114619 (Simulation time: 40 hr 35 min 8 sec) 
 Total Blocks : 262144 Invalid Blocks : 0
Heartbeat CPU 3 instructions: 350000001 cycles: 1439823257 heartbeat IPC: 0.114724 cumulative IPC: 0.113829 (Simulation time: 40 hr 48 min 35 sec) 
 Total Blocks : 262144 Invalid Blocks : 0
Heartbeat CPU 7 instructions: 360000001 cycles: 1516487208 heartbeat IPC: 0.115074 cumulative IPC: 0.114925 (Simulation time: 43 hr 0 min 22 sec) 
 Total Blocks : 262144 Invalid Blocks : 0
Heartbeat CPU 0 instructions: 360000001 cycles: 1516552546 heartbeat IPC: 0.114543 cumulative IPC: 0.114776 (Simulation time: 43 hr 0 min 28 sec) 
 Total Blocks : 262144 Invalid Blocks : 0
Heartbeat CPU 6 instructions: 360000001 cycles: 1517031961 heartbeat IPC: 0.114874 cumulative IPC: 0.114886 (Simulation time: 43 hr 1 min 14 sec) 
 Total Blocks : 262144 Invalid Blocks : 0
Heartbeat CPU 4 instructions: 360000001 cycles: 1518776098 heartbeat IPC: 0.114389 cumulative IPC: 0.11469 (Simulation time: 43 hr 4 min 9 sec) 
 Total Blocks : 262144 Invalid Blocks : 0
Heartbeat CPU 1 instructions: 360000001 cycles: 1518914317 heartbeat IPC: 0.114595 cumulative IPC: 0.114636 (Simulation time: 43 hr 4 min 24 sec) 
 Total Blocks : 262144 Invalid Blocks : 0
Heartbeat CPU 5 instructions: 360000001 cycles: 1519541964 heartbeat IPC: 0.114886 cumulative IPC: 0.114636 (Simulation time: 43 hr 5 min 26 sec) 
 Total Blocks : 262144 Invalid Blocks : 0
Heartbeat CPU 2 instructions: 360000001 cycles: 1519800930 heartbeat IPC: 0.114223 cumulative IPC: 0.11457 (Simulation time: 43 hr 5 min 51 sec) 
 Total Blocks : 262144 Invalid Blocks : 0
Heartbeat CPU 3 instructions: 360000001 cycles: 1527856590 heartbeat IPC: 0.113593 cumulative IPC: 0.113814 (Simulation time: 43 hr 19 min 18 sec) 
 Total Blocks : 262144 Invalid Blocks : 0
Heartbeat CPU 7 instructions: 370000000 cycles: 1603507635 heartbeat IPC: 0.114916 cumulative IPC: 0.114924 (Simulation time: 45 hr 22 min 59 sec) 
 Total Blocks : 262144 Invalid Blocks : 0
Heartbeat CPU 0 instructions: 370000000 cycles: 1603605792 heartbeat IPC: 0.114872 cumulative IPC: 0.114782 (Simulation time: 45 hr 23 min 11 sec) 
 Total Blocks : 262144 Invalid Blocks : 0
Heartbeat CPU 6 instructions: 370000000 cycles: 1603913019 heartbeat IPC: 0.1151 cumulative IPC: 0.114899 (Simulation time: 45 hr 23 min 39 sec) 
 Total Blocks : 262144 Invalid Blocks : 0
Heartbeat CPU 4 instructions: 370000000 cycles: 1605667098 heartbeat IPC: 0.115087 cumulative IPC: 0.114713 (Simulation time: 45 hr 26 min 25 sec) 
 Total Blocks : 262144 Invalid Blocks : 0
Heartbeat CPU 1 instructions: 370000000 cycles: 1605731687 heartbeat IPC: 0.115184 cumulative IPC: 0.114668 (Simulation time: 45 hr 26 min 32 sec) 
 Total Blocks : 262144 Invalid Blocks : 0
Heartbeat CPU 5 instructions: 370000000 cycles: 1606300650 heartbeat IPC: 0.115262 cumulative IPC: 0.114672 (Simulation time: 45 hr 27 min 30 sec) 
 Total Blocks : 262144 Invalid Blocks : 0
Heartbeat CPU 2 instructions: 370000000 cycles: 1606741531 heartbeat IPC: 0.115021 cumulative IPC: 0.114596 (Simulation time: 45 hr 28 min 10 sec) 
 Total Blocks : 262144 Invalid Blocks : 0
Heartbeat CPU 3 instructions: 370000000 cycles: 1615416899 heartbeat IPC: 0.114207 cumulative IPC: 0.113837 (Simulation time: 45 hr 42 min 4 sec) 
 Total Blocks : 262144 Invalid Blocks : 0
Heartbeat CPU 7 instructions: 380000000 cycles: 1690832565 heartbeat IPC: 0.114515 cumulative IPC: 0.114902 (Simulation time: 47 hr 45 min 55 sec) 
 Total Blocks : 262144 Invalid Blocks : 0
Heartbeat CPU 0 instructions: 380000000 cycles: 1691267965 heartbeat IPC: 0.114074 cumulative IPC: 0.114742 (Simulation time: 47 hr 46 min 27 sec) 
 Total Blocks : 262144 Invalid Blocks : 0
Heartbeat CPU 6 instructions: 380000000 cycles: 1691638328 heartbeat IPC: 0.113992 cumulative IPC: 0.114848 (Simulation time: 47 hr 46 min 58 sec) 
 Total Blocks : 262144 Invalid Blocks : 0
Heartbeat CPU 4 instructions: 380000000 cycles: 1693294650 heartbeat IPC: 0.114119 cumulative IPC: 0.11468 (Simulation time: 47 hr 49 min 44 sec) 
 Total Blocks : 262144 Invalid Blocks : 0
Heartbeat CPU 1 instructions: 380000000 cycles: 1693474286 heartbeat IPC: 0.11397 cumulative IPC: 0.114629 (Simulation time: 47 hr 50 min 1 sec) 
 Total Blocks : 262144 Invalid Blocks : 0
Heartbeat CPU 5 instructions: 380000000 cycles: 1693919597 heartbeat IPC: 0.114131 cumulative IPC: 0.114642 (Simulation time: 47 hr 50 min 43 sec) 
 Total Blocks : 262144 Invalid Blocks : 0
Heartbeat CPU 2 instructions: 380000000 cycles: 1694657807 heartbeat IPC: 0.113745 cumulative IPC: 0.114549 (Simulation time: 47 hr 51 min 51 sec) 
 Total Blocks : 262144 Invalid Blocks : 0
Heartbeat CPU 3 instructions: 380000000 cycles: 1703487691 heartbeat IPC: 0.113545 cumulative IPC: 0.113821 (Simulation time: 48 hr 6 min 48 sec) 
 Total Blocks : 262144 Invalid Blocks : 0
Heartbeat CPU 7 instructions: 390000000 cycles: 1777833929 heartbeat IPC: 0.114941 cumulative IPC: 0.114904 (Simulation time: 50 hr 4 min 19 sec) 
 Total Blocks : 262144 Invalid Blocks : 0
Heartbeat CPU 0 instructions: 390000000 cycles: 1778212673 heartbeat IPC: 0.115016 cumulative IPC: 0.114757 (Simulation time: 50 hr 4 min 42 sec) 
 Total Blocks : 262144 Invalid Blocks : 0
Heartbeat CPU 6 instructions: 390000000 cycles: 1778726726 heartbeat IPC: 0.114826 cumulative IPC: 0.114847 (Simulation time: 50 hr 5 min 26 sec) 
 Total Blocks : 262144 Invalid Blocks : 0
Heartbeat CPU 4 instructions: 390000000 cycles: 1780505915 heartbeat IPC: 0.114664 cumulative IPC: 0.114679 (Simulation time: 50 hr 7 min 39 sec) 
 Total Blocks : 262144 Invalid Blocks : 0
Heartbeat CPU 1 instructions: 390000000 cycles: 1780768375 heartbeat IPC: 0.114555 cumulative IPC: 0.114625 (Simulation time: 50 hr 8 min 1 sec) 
 Total Blocks : 262144 Invalid Blocks : 0
Heartbeat CPU 5 instructions: 390000000 cycles: 1781073286 heartbeat IPC: 0.11474 cumulative IPC: 0.114647 (Simulation time: 50 hr 8 min 32 sec) 
 Total Blocks : 262144 Invalid Blocks : 0
Heartbeat CPU 2 instructions: 390000000 cycles: 1781763839 heartbeat IPC: 0.114803 cumulative IPC: 0.114562 (Simulation time: 50 hr 9 min 20 sec) 
 Total Blocks : 262144 Invalid Blocks : 0
Heartbeat CPU 3 instructions: 390000000 cycles: 1791372935 heartbeat IPC: 0.113785 cumulative IPC: 0.113819 (Simulation time: 50 hr 20 min 22 sec) 
 Total Blocks : 262144 Invalid Blocks : 0
Heartbeat CPU 7 instructions: 400000002 cycles: 1866013180 heartbeat IPC: 0.113405 cumulative IPC: 0.114828 (Simulation time: 51 hr 54 min 28 sec) 
 Total Blocks : 262144 Invalid Blocks : 0
Finished CPU 7 instructions: 200000003 cycles: 1741746158 cumulative IPC: 0.114827 (Simulation time: 51 hr 54 min 37 sec) 
Heartbeat CPU 0 instructions: 400000002 cycles: 1866360663 heartbeat IPC: 0.113446 cumulative IPC: 0.11469 (Simulation time: 51 hr 55 min 1 sec) 
 Total Blocks : 262144 Invalid Blocks : 0
Heartbeat CPU 6 instructions: 400000002 cycles: 1866646404 heartbeat IPC: 0.11374 cumulative IPC: 0.114791 (Simulation time: 51 hr 55 min 29 sec) 
 Total Blocks : 262144 Invalid Blocks : 0
Finished CPU 6 instructions: 200000002 cycles: 1742294093 cumulative IPC: 0.114791 (Simulation time: 51 hr 55 min 29 sec) 
Finished CPU 0 instructions: 200000002 cycles: 1743835369 cumulative IPC: 0.11469 (Simulation time: 51 hr 57 min 52 sec) 
Heartbeat CPU 4 instructions: 400000002 cycles: 1868728208 heartbeat IPC: 0.11335 cumulative IPC: 0.114612 (Simulation time: 51 hr 58 min 39 sec) 
 Total Blocks : 262144 Invalid Blocks : 0
Heartbeat CPU 1 instructions: 400000002 cycles: 1869196166 heartbeat IPC: 0.113087 cumulative IPC: 0.114547 (Simulation time: 51 hr 59 min 20 sec) 
 Total Blocks : 262144 Invalid Blocks : 0
Heartbeat CPU 5 instructions: 400000002 cycles: 1869210195 heartbeat IPC: 0.11346 cumulative IPC: 0.114587 (Simulation time: 51 hr 59 min 22 sec) 
 Total Blocks : 262144 Invalid Blocks : 0
Finished CPU 4 instructions: 200000000 cycles: 1745014340 cumulative IPC: 0.114612 (Simulation time: 51 hr 59 min 36 sec) 
Finished CPU 5 instructions: 200000001 cycles: 1745398511 cumulative IPC: 0.114587 (Simulation time: 52 hr 0 min 10 sec) 
Heartbeat CPU 2 instructions: 400000002 cycles: 1869944190 heartbeat IPC: 0.113404 cumulative IPC: 0.114503 (Simulation time: 52 hr 0 min 30 sec) 
 Total Blocks : 262144 Invalid Blocks : 0
Finished CPU 1 instructions: 200000003 cycles: 1745973618 cumulative IPC: 0.114549 (Simulation time: 52 hr 1 min 8 sec) 
Finished CPU 2 instructions: 200000000 cycles: 1746676492 cumulative IPC: 0.114503 (Simulation time: 52 hr 2 min 16 sec) 
Heartbeat CPU 3 instructions: 400000002 cycles: 1879864286 heartbeat IPC: 0.113005 cumulative IPC: 0.113778 (Simulation time: 52 hr 14 min 58 sec) 
 Total Blocks : 262144 Invalid Blocks : 0
Finished CPU 3 instructions: 200000000 cycles: 1757810481 cumulative IPC: 0.113778 (Simulation time: 52 hr 17 min 28 sec) 

CPU 0 Branch Prediction Accuracy: 98.7989% MPKI: 1.79075 Average ROB Occupancy at Mispredict: 259.874

CPU 1 Branch Prediction Accuracy: 98.7985% MPKI: 1.79202 Average ROB Occupancy at Mispredict: 259.853

CPU 2 Branch Prediction Accuracy: 98.7984% MPKI: 1.79233 Average ROB Occupancy at Mispredict: 259.844

CPU 3 Branch Prediction Accuracy: 98.7974% MPKI: 1.79248 Average ROB Occupancy at Mispredict: 259.804

CPU 4 Branch Prediction Accuracy: 98.7985% MPKI: 1.79263 Average ROB Occupancy at Mispredict: 259.849

CPU 5 Branch Prediction Accuracy: 98.7984% MPKI: 1.79279 Average ROB Occupancy at Mispredict: 259.846

CPU 6 Branch Prediction Accuracy: 98.7986% MPKI: 1.79303 Average ROB Occupancy at Mispredict: 259.85

CPU 7 Branch Prediction Accuracy: 98.7987% MPKI: 1.79288 Average ROB Occupancy at Mispredict: 259.848

ChampSim completed all CPUs

Total Simulation Statistics (not including warmup)

CPU 0 cumulative IPC: 0.114695 instructions: 201611352 cycles: 1757810481
ITLB TOTAL     ACCESS: 30533378  HIT: 30533378  MISS:     0  HIT %:   100  MISS %:     0  AVERAGE MISS PENALTY: 0
ITLB LOAD      ACCESS: 30533378  HIT: 30533378  MISS:     0  HIT %:   100  MISS %:     0  AVERAGE MISS PENALTY: 0
ITLB RFO       ACCESS:     0  HIT:     0  MISS:     0  HIT %:     0  MISS %:     0  AVERAGE MISS PENALTY: 0
ITLB PREFETCH  ACCESS:     0  HIT:     0  MISS:     0  HIT %:     0  MISS %:     0  AVERAGE MISS PENALTY: 0
ITLB WRITEBACK ACCESS:     0  HIT:     0  MISS:     0  HIT %:     0  MISS %:     0  AVERAGE MISS PENALTY: 0

DTLB TOTAL     ACCESS: 56030899  HIT: 49413278  MISS: 6617621  HIT %: 88.1893  MISS %: 11.8107  AVERAGE MISS PENALTY: 10.9374
DTLB LOAD      ACCESS: 54981413  HIT: 48665397  MISS: 6316016  HIT %: 88.5125  MISS %: 11.4875  AVERAGE MISS PENALTY: 10.7387
DTLB RFO       ACCESS: 1049486  HIT: 747881  MISS: 301605  HIT %: 71.2616  MISS %: 28.7384  AVERAGE MISS PENALTY: 15.1
DTLB PREFETCH  ACCESS:     0  HIT:     0  MISS:     0  HIT %:     0  MISS %:     0  AVERAGE MISS PENALTY: 0
DTLB WRITEBACK ACCESS:     0  HIT:     0  MISS:     0  HIT %:     0  MISS %:     0  AVERAGE MISS PENALTY: 0

STLB TOTAL     ACCESS: 6617621  HIT: 6521256  MISS: 96365  HIT %: 98.5438  MISS %: 1.45619  AVERAGE MISS PENALTY: 100
STLB LOAD      ACCESS: 6316016  HIT: 6237944  MISS: 78072  HIT %: 98.7639  MISS %: 1.2361  AVERAGE MISS PENALTY: 100
STLB RFO       ACCESS: 301605  HIT: 283312  MISS: 18293  HIT %: 93.9348  MISS %: 6.06522  AVERAGE MISS PENALTY: 100
STLB PREFETCH  ACCESS:     0  HIT:     0  MISS:     0  HIT %:     0  MISS %:     0  AVERAGE MISS PENALTY: 0
STLB WRITEBACK ACCESS:     0  HIT:     0  MISS:     0  HIT %:     0  MISS %:     0  AVERAGE MISS PENALTY: 0

L1D TOTAL     ACCESS: 77531542  HIT: 41019012  MISS: 36512530  HIT %: 52.9062  MISS %: 47.0938  AVERAGE MISS PENALTY: 2.18898e+06
L1D LOAD      ACCESS: 46735651  HIT: 36816087  MISS: 9919564  HIT %: 78.7752  MISS %: 21.2248  AVERAGE MISS PENALTY: 8.05625e+06
L1D RFO       ACCESS: 1056277  HIT: 736066  MISS: 320211  HIT %: 69.6849  MISS %: 30.3151  AVERAGE MISS PENALTY: 184.47
L1D PREFETCH  ACCESS: 29739614  HIT: 3466859  MISS: 26272755  HIT %: 11.6574  MISS %: 88.3426  AVERAGE MISS PENALTY: 400.498
L1D WRITEBACK ACCESS:     0  HIT:     0  MISS:     0  HIT %:     0  MISS %:     0  AVERAGE MISS PENALTY: 0

L1I TOTAL     ACCESS: 44638360  HIT: 44638360  MISS:     0  HIT %:   100  MISS %:     0  AVERAGE MISS PENALTY: 0
L1I LOAD      ACCESS: 44638360  HIT: 44638360  MISS:     0  HIT %:   100  MISS %:     0  AVERAGE MISS PENALTY: 0
L1I RFO       ACCESS:     0  HIT:     0  MISS:     0  HIT %:     0  MISS %:     0  AVERAGE MISS PENALTY: 0
L1I PREFETCH  ACCESS:     0  HIT:     0  MISS:     0  HIT %:     0  MISS %:     0  AVERAGE MISS PENALTY: 0
L1I WRITEBACK ACCESS:     0  HIT:     0  MISS:     0  HIT %:     0  MISS %:     0  AVERAGE MISS PENALTY: 0

L2C TOTAL     ACCESS: 59114935  HIT: 4856172  MISS: 54258763  HIT %: 8.2148  MISS %: 91.7852  AVERAGE MISS PENALTY: 1.79379e+06
L2C LOAD      ACCESS: 9915204  HIT: 323416  MISS: 9591788  HIT %: 3.26182  MISS %: 96.7382  AVERAGE MISS PENALTY: 1.01451e+07
L2C RFO       ACCESS: 320199  HIT: 227456  MISS: 92743  HIT %: 71.0358  MISS %: 28.9642  AVERAGE MISS PENALTY: 584.633
L2C PREFETCH  ACCESS: 47989515  HIT: 3659081  MISS: 44330434  HIT %: 7.62475  MISS %: 92.3752  AVERAGE MISS PENALTY: 425.88
L2C WRITEBACK ACCESS: 890017  HIT: 646219  MISS: 243798  HIT %: 72.6075  MISS %: 27.3925  AVERAGE MISS PENALTY: 0


LLC0 TOTAL     ACCESS: 6949196  HIT: 3488124  MISS: 3461072  HIT %: 50.1946  MISS %: 49.8054  AVERAGE MISS PENALTY: 808.013
LLC0 LOAD      ACCESS: 1226132  HIT: 646221  MISS: 579911  HIT %: 52.704  MISS %: 47.296  AVERAGE MISS PENALTY: 766.383
LLC0 RFO       ACCESS: 11607  HIT:  2733  MISS:  8874  HIT %: 23.5461  MISS %: 76.4539  AVERAGE MISS PENALTY: 738.546
LLC0 PREFETCH  ACCESS: 5656678  HIT: 2791746  MISS: 2864932  HIT %: 49.3531  MISS %: 50.6469  AVERAGE MISS PENALTY: 818.729
LLC0 WRITEBACK ACCESS: 54779  HIT: 47424  MISS:  7355  HIT %: 86.5733  MISS %: 13.4267  AVERAGE MISS PENALTY: 0

LLC1 TOTAL     ACCESS: 6976860  HIT: 3492661  MISS: 3484199  HIT %: 50.0606  MISS %: 49.9394  AVERAGE MISS PENALTY: 766.634
LLC1 LOAD      ACCESS: 1159733  HIT: 611990  MISS: 547743  HIT %: 52.7699  MISS %: 47.2301  AVERAGE MISS PENALTY: 761.75
LLC1 RFO       ACCESS: 11582  HIT:  2776  MISS:  8806  HIT %: 23.9682  MISS %: 76.0318  AVERAGE MISS PENALTY: 736.899
LLC1 PREFETCH  ACCESS: 5751211  HIT: 2830671  MISS: 2920540  HIT %: 49.2187  MISS %: 50.7813  AVERAGE MISS PENALTY: 769.506
LLC1 WRITEBACK ACCESS: 54334  HIT: 47224  MISS:  7110  HIT %: 86.9143  MISS %: 13.0857  AVERAGE MISS PENALTY: 0

LLC2 TOTAL     ACCESS: 6966081  HIT: 3486791  MISS: 3479290  HIT %: 50.0538  MISS %: 49.9462  AVERAGE MISS PENALTY: 765.533
LLC2 LOAD      ACCESS: 1187684  HIT: 631247  MISS: 556437  HIT %: 53.1494  MISS %: 46.8506  AVERAGE MISS PENALTY: 764.877
LLC2 RFO       ACCESS: 11545  HIT:  2747  MISS:  8798  HIT %: 23.7939  MISS %: 76.2061  AVERAGE MISS PENALTY: 748.171
LLC2 PREFETCH  ACCESS: 5712523  HIT: 2805641  MISS: 2906882  HIT %: 49.1139  MISS %: 50.8861  AVERAGE MISS PENALTY: 767.601
LLC2 WRITEBACK ACCESS: 54329  HIT: 47156  MISS:  7173  HIT %: 86.7971  MISS %: 13.2029  AVERAGE MISS PENALTY: 0

LLC3 TOTAL     ACCESS: 6893294  HIT: 3448785  MISS: 3444509  HIT %: 50.031  MISS %: 49.969  AVERAGE MISS PENALTY: 761.268
LLC3 LOAD      ACCESS: 1187385  HIT: 624163  MISS: 563222  HIT %: 52.5662  MISS %: 47.4338  AVERAGE MISS PENALTY: 760.548
LLC3 RFO       ACCESS: 11601  HIT:  2840  MISS:  8761  HIT %: 24.4806  MISS %: 75.5194  AVERAGE MISS PENALTY: 744.464
LLC3 PREFETCH  ACCESS: 5640251  HIT: 2774802  MISS: 2865449  HIT %: 49.1964  MISS %: 50.8036  AVERAGE MISS PENALTY: 763.341
LLC3 WRITEBACK ACCESS: 54057  HIT: 46980  MISS:  7077  HIT %: 86.9083  MISS %: 13.0917  AVERAGE MISS PENALTY: 0

LLC4 TOTAL     ACCESS: 6814177  HIT: 3413794  MISS: 3400383  HIT %: 50.0984  MISS %: 49.9016  AVERAGE MISS PENALTY: 732.744
LLC4 LOAD      ACCESS: 1157398  HIT: 608502  MISS: 548896  HIT %: 52.575  MISS %: 47.425  AVERAGE MISS PENALTY: 723.135
LLC4 RFO       ACCESS: 11633  HIT:  2880  MISS:  8753  HIT %: 24.7572  MISS %: 75.2428  AVERAGE MISS PENALTY: 693.907
LLC4 PREFETCH  ACCESS: 5591015  HIT: 2755358  MISS: 2835657  HIT %: 49.2819  MISS %: 50.7181  AVERAGE MISS PENALTY: 736.552
LLC4 WRITEBACK ACCESS: 54131  HIT: 47054  MISS:  7077  HIT %: 86.9262  MISS %: 13.0738  AVERAGE MISS PENALTY: 0

LLC5 TOTAL     ACCESS: 6756407  HIT: 3393907  MISS: 3362500  HIT %: 50.2324  MISS %: 49.7676  AVERAGE MISS PENALTY: 727.335
LLC5 LOAD      ACCESS: 1229928  HIT: 662753  MISS: 567175  HIT %: 53.8855  MISS %: 46.1145  AVERAGE MISS PENALTY: 717.338
LLC5 RFO       ACCESS: 11526  HIT:  2836  MISS:  8690  HIT %: 24.6052  MISS %: 75.3948  AVERAGE MISS PENALTY: 695.884
LLC5 PREFETCH  ACCESS: 5461123  HIT: 2681558  MISS: 2779565  HIT %: 49.1027  MISS %: 50.8973  AVERAGE MISS PENALTY: 731.324
LLC5 WRITEBACK ACCESS: 53830  HIT: 46760  MISS:  7070  HIT %: 86.8661  MISS %: 13.1339  AVERAGE MISS PENALTY: 0

LLC6 TOTAL     ACCESS: 6592773  HIT: 3294111  MISS: 3298662  HIT %: 49.9655  MISS %: 50.0345  AVERAGE MISS PENALTY: 727.608
LLC6 LOAD      ACCESS: 1178139  HIT: 623065  MISS: 555074  HIT %: 52.8855  MISS %: 47.1145  AVERAGE MISS PENALTY: 721.902
LLC6 RFO       ACCESS: 11544  HIT:  2868  MISS:  8676  HIT %: 24.8441  MISS %: 75.1559  AVERAGE MISS PENALTY: 710.295
LLC6 PREFETCH  ACCESS: 5349592  HIT: 2621779  MISS: 2727813  HIT %: 49.009  MISS %: 50.991  AVERAGE MISS PENALTY: 730.718
LLC6 WRITEBACK ACCESS: 53498  HIT: 46399  MISS:  7099  HIT %: 86.7303  MISS %: 13.2697  AVERAGE MISS PENALTY: 0

LLC7 TOTAL     ACCESS: 6498727  HIT: 3247838  MISS: 3250889  HIT %: 49.9765  MISS %: 50.0235  AVERAGE MISS PENALTY: 725.427
LLC7 LOAD      ACCESS: 1194569  HIT: 645055  MISS: 549514  HIT %: 53.999  MISS %: 46.001  AVERAGE MISS PENALTY: 709.393
LLC7 RFO       ACCESS: 11705  HIT:  2813  MISS:  8892  HIT %: 24.0325  MISS %: 75.9675  AVERAGE MISS PENALTY: 707.161
LLC7 PREFETCH  ACCESS: 5238859  HIT: 2553678  MISS: 2685181  HIT %: 48.7449  MISS %: 51.2551  AVERAGE MISS PENALTY: 730.742
LLC7 WRITEBACK ACCESS: 53594  HIT: 46292  MISS:  7302  HIT %: 86.3753  MISS %: 13.6247  AVERAGE MISS PENALTY: 0

Total Rob stall cycles : 	1714440434
Total Load Rob Stall cycles : 	1619262021
Average Rob Stall cycles : 	 53
Average Load Rob Stall cycles : 	 366

CPU 1 cumulative IPC: 0.114546 instructions: 201349285 cycles: 1757810481
ITLB TOTAL     ACCESS: 30491526  HIT: 30491526  MISS:     0  HIT %:   100  MISS %:     0  AVERAGE MISS PENALTY: 0
ITLB LOAD      ACCESS: 30491526  HIT: 30491526  MISS:     0  HIT %:   100  MISS %:     0  AVERAGE MISS PENALTY: 0
ITLB RFO       ACCESS:     0  HIT:     0  MISS:     0  HIT %:     0  MISS %:     0  AVERAGE MISS PENALTY: 0
ITLB PREFETCH  ACCESS:     0  HIT:     0  MISS:     0  HIT %:     0  MISS %:     0  AVERAGE MISS PENALTY: 0
ITLB WRITEBACK ACCESS:     0  HIT:     0  MISS:     0  HIT %:     0  MISS %:     0  AVERAGE MISS PENALTY: 0

DTLB TOTAL     ACCESS: 55954632  HIT: 49348897  MISS: 6605735  HIT %: 88.1945  MISS %: 11.8055  AVERAGE MISS PENALTY: 10.9353
DTLB LOAD      ACCESS: 54906111  HIT: 48601712  MISS: 6304399  HIT %: 88.5179  MISS %: 11.4821  AVERAGE MISS PENALTY: 10.7368
DTLB RFO       ACCESS: 1048521  HIT: 747185  MISS: 301336  HIT %: 71.2609  MISS %: 28.7391  AVERAGE MISS PENALTY: 15.0882
DTLB PREFETCH  ACCESS:     0  HIT:     0  MISS:     0  HIT %:     0  MISS %:     0  AVERAGE MISS PENALTY: 0
DTLB WRITEBACK ACCESS:     0  HIT:     0  MISS:     0  HIT %:     0  MISS %:     0  AVERAGE MISS PENALTY: 0

STLB TOTAL     ACCESS: 6605735  HIT: 6509595  MISS: 96140  HIT %: 98.5446  MISS %: 1.4554  AVERAGE MISS PENALTY: 100
STLB LOAD      ACCESS: 6304399  HIT: 6226507  MISS: 77892  HIT %: 98.7645  MISS %: 1.23552  AVERAGE MISS PENALTY: 100
STLB RFO       ACCESS: 301336  HIT: 283088  MISS: 18248  HIT %: 93.9443  MISS %: 6.0557  AVERAGE MISS PENALTY: 100
STLB PREFETCH  ACCESS:     0  HIT:     0  MISS:     0  HIT %:     0  MISS %:     0  AVERAGE MISS PENALTY: 0
STLB WRITEBACK ACCESS:     0  HIT:     0  MISS:     0  HIT %:     0  MISS %:     0  AVERAGE MISS PENALTY: 0

L1D TOTAL     ACCESS: 77426491  HIT: 40965136  MISS: 36461355  HIT %: 52.9084  MISS %: 47.0916  AVERAGE MISS PENALTY: 2.20051e+06
L1D LOAD      ACCESS: 46672984  HIT: 36766325  MISS: 9906659  HIT %: 78.7743  MISS %: 21.2257  AVERAGE MISS PENALTY: 8.0979e+06
L1D RFO       ACCESS: 1055002  HIT: 735066  MISS: 319936  HIT %: 69.6744  MISS %: 30.3256  AVERAGE MISS PENALTY: 174.209
L1D PREFETCH  ACCESS: 29698505  HIT: 3463745  MISS: 26234760  HIT %: 11.663  MISS %: 88.337  AVERAGE MISS PENALTY: 396.219
L1D WRITEBACK ACCESS:     0  HIT:     0  MISS:     0  HIT %:     0  MISS %:     0  AVERAGE MISS PENALTY: 0

L1I TOTAL     ACCESS: 44576503  HIT: 44576503  MISS:     0  HIT %:   100  MISS %:     0  AVERAGE MISS PENALTY: 0
L1I LOAD      ACCESS: 44576503  HIT: 44576503  MISS:     0  HIT %:   100  MISS %:     0  AVERAGE MISS PENALTY: 0
L1I RFO       ACCESS:     0  HIT:     0  MISS:     0  HIT %:     0  MISS %:     0  AVERAGE MISS PENALTY: 0
L1I PREFETCH  ACCESS:     0  HIT:     0  MISS:     0  HIT %:     0  MISS %:     0  AVERAGE MISS PENALTY: 0
L1I WRITEBACK ACCESS:     0  HIT:     0  MISS:     0  HIT %:     0  MISS %:     0  AVERAGE MISS PENALTY: 0

L2C TOTAL     ACCESS: 59034196  HIT: 4845136  MISS: 54189060  HIT %: 8.20734  MISS %: 91.7927  AVERAGE MISS PENALTY: 1.80502e+06
L2C LOAD      ACCESS: 9902248  HIT: 311683  MISS: 9590565  HIT %: 3.1476  MISS %: 96.8524  AVERAGE MISS PENALTY: 1.01969e+07
L2C RFO       ACCESS: 319921  HIT: 230111  MISS: 89810  HIT %: 71.9274  MISS %: 28.0726  AVERAGE MISS PENALTY: 566.685
L2C PREFETCH  ACCESS: 47922715  HIT: 3655579  MISS: 44267136  HIT %: 7.62807  MISS %: 92.3719  AVERAGE MISS PENALTY: 423.531
L2C WRITEBACK ACCESS: 889312  HIT: 647763  MISS: 241549  HIT %: 72.8387  MISS %: 27.1613  AVERAGE MISS PENALTY: 0


LLC0 TOTAL     ACCESS: 6937609  HIT: 3482082  MISS: 3455527  HIT %: 50.1914  MISS %: 49.8086  AVERAGE MISS PENALTY: 773.339
LLC0 LOAD      ACCESS: 1224307  HIT: 644410  MISS: 579897  HIT %: 52.6347  MISS %: 47.3653  AVERAGE MISS PENALTY: 766.611
LLC0 RFO       ACCESS: 11351  HIT:  2874  MISS:  8477  HIT %: 25.3194  MISS %: 74.6806  AVERAGE MISS PENALTY: 728.783
LLC0 PREFETCH  ACCESS: 5647399  HIT: 2787611  MISS: 2859788  HIT %: 49.361  MISS %: 50.639  AVERAGE MISS PENALTY: 776.827
LLC0 WRITEBACK ACCESS: 54552  HIT: 47187  MISS:  7365  HIT %: 86.4991  MISS %: 13.5009  AVERAGE MISS PENALTY: 0

LLC1 TOTAL     ACCESS: 6965508  HIT: 3486202  MISS: 3479306  HIT %: 50.0495  MISS %: 49.9505  AVERAGE MISS PENALTY: 767.353
LLC1 LOAD      ACCESS: 1157925  HIT: 611117  MISS: 546808  HIT %: 52.7769  MISS %: 47.2231  AVERAGE MISS PENALTY: 762.699
LLC1 RFO       ACCESS: 11230  HIT:  2843  MISS:  8387  HIT %: 25.3161  MISS %: 74.6839  AVERAGE MISS PENALTY: 729.607
LLC1 PREFETCH  ACCESS: 5742314  HIT: 2825371  MISS: 2916943  HIT %: 49.2027  MISS %: 50.7973  AVERAGE MISS PENALTY: 770.22
LLC1 WRITEBACK ACCESS: 54039  HIT: 46871  MISS:  7168  HIT %: 86.7355  MISS %: 13.2645  AVERAGE MISS PENALTY: 0

LLC2 TOTAL     ACCESS: 6967665  HIT: 3491036  MISS: 3476629  HIT %: 50.1034  MISS %: 49.8966  AVERAGE MISS PENALTY: 766.223
LLC2 LOAD      ACCESS: 1196778  HIT: 640926  MISS: 555852  HIT %: 53.5543  MISS %: 46.4457  AVERAGE MISS PENALTY: 766.031
LLC2 RFO       ACCESS: 11259  HIT:  2886  MISS:  8373  HIT %: 25.6328  MISS %: 74.3672  AVERAGE MISS PENALTY: 750.702
LLC2 PREFETCH  ACCESS: 5705525  HIT: 2800317  MISS: 2905208  HIT %: 49.0808  MISS %: 50.9192  AVERAGE MISS PENALTY: 768.203
LLC2 WRITEBACK ACCESS: 54103  HIT: 46907  MISS:  7196  HIT %: 86.6994  MISS %: 13.3006  AVERAGE MISS PENALTY: 0

LLC3 TOTAL     ACCESS: 6883364  HIT: 3444622  MISS: 3438742  HIT %: 50.0427  MISS %: 49.9573  AVERAGE MISS PENALTY: 762.013
LLC3 LOAD      ACCESS: 1186087  HIT: 623186  MISS: 562901  HIT %: 52.5413  MISS %: 47.4587  AVERAGE MISS PENALTY: 760.766
LLC3 RFO       ACCESS: 11143  HIT:  2945  MISS:  8198  HIT %: 26.4291  MISS %: 73.5709  AVERAGE MISS PENALTY: 738.52
LLC3 PREFETCH  ACCESS: 5632510  HIT: 2772019  MISS: 2860491  HIT %: 49.2146  MISS %: 50.7854  AVERAGE MISS PENALTY: 764.231
[...]
LLC2 LOAD      ACCESS: 1186131  HIT: 635018  MISS: 551113  HIT %: 53.5369  MISS %: 46.4631  AVERAGE MISS PENALTY: 766.055
LLC2 RFO       ACCESS: 10412  HIT:  2358  MISS:  8054  HIT %: 22.6469  MISS %: 77.3531  AVERAGE MISS PENALTY: 751.695
LLC2 PREFETCH  ACCESS: 5665753  HIT: 2779813  MISS: 2885940  HIT %: 49.0634  MISS %: 50.9366  AVERAGE MISS PENALTY: 768.706
LLC2 WRITEBACK ACCESS: 50733  HIT: 43434  MISS:  7299  HIT %: 85.6129  MISS %: 14.3871  AVERAGE MISS PENALTY: 0
LLC2 PREFETCH  REQUESTED:     0  ISSUED:     0  USEFUL: 2115435  USELESS: 21137996
 USEFUL LOAD PREFETCHES:    2115435 PREFETCH ISSUED TO LOWER LEVEL:  487188347  ACCURACY: 0.434213
 TIMELY PREFETCHES:    2115435 LATE PREFETCHES: 0 DROPPED PREFETCHES: 0
LLC2 AVERAGE MISS LATENCY: 766.617 cycles
LLC3 TOTAL     ACCESS: 6829181  HIT: 3415241  MISS: 3413940  HIT %: 50.0095  MISS %: 49.9905  AVERAGE MISS PENALTY: 761.79
LLC3 LOAD      ACCESS: 1175552  HIT: 618673  MISS: 556879  HIT %: 52.6283  MISS %: 47.3717  AVERAGE MISS PENALTY: 761.19
LLC3 RFO       ACCESS: 10290  HIT:  2324  MISS:  7966  HIT %: 22.585  MISS %: 77.415  AVERAGE MISS PENALTY: 752.066
LLC3 PREFETCH  ACCESS: 5592682  HIT: 2750902  MISS: 2841780  HIT %: 49.1875  MISS %: 50.8125  AVERAGE MISS PENALTY: 763.896
LLC3 WRITEBACK ACCESS: 50657  HIT: 43342  MISS:  7315  HIT %: 85.5597  MISS %: 14.4403  AVERAGE MISS PENALTY: 0
LLC3 PREFETCH  REQUESTED:     0  ISSUED:     0  USEFUL: 2114001  USELESS: 20791372
 USEFUL LOAD PREFETCHES:    2114001 PREFETCH ISSUED TO LOWER LEVEL:  449427869  ACCURACY: 0.470376
 TIMELY PREFETCHES:    2114001 LATE PREFETCHES: 0 DROPPED PREFETCHES: 0
LLC3 AVERAGE MISS LATENCY: 761.79 cycles
LLC4 TOTAL     ACCESS: 6751282  HIT: 3381448  MISS: 3369834  HIT %: 50.086  MISS %: 49.914  AVERAGE MISS PENALTY: 770.309
LLC4 LOAD      ACCESS: 1146297  HIT: 603052  MISS: 543245  HIT %: 52.6087  MISS %: 47.3913  AVERAGE MISS PENALTY: 725.012
LLC4 RFO       ACCESS: 10350  HIT:  2336  MISS:  8014  HIT %: 22.57  MISS %: 77.43  AVERAGE MISS PENALTY: 698.653
LLC4 PREFETCH  ACCESS: 5543795  HIT: 2732654  MISS: 2811141  HIT %: 49.2921  MISS %: 50.7079  AVERAGE MISS PENALTY: 781.304
LLC4 WRITEBACK ACCESS: 50840  HIT: 43406  MISS:  7434  HIT %: 85.3777  MISS %: 14.6223  AVERAGE MISS PENALTY: 0
LLC4 PREFETCH  REQUESTED:     0  ISSUED:     0  USEFUL: 2078075  USELESS: 20587235
 USEFUL LOAD PREFETCHES:    2078075 PREFETCH ISSUED TO LOWER LEVEL:  726729436  ACCURACY: 0.285949
 TIMELY PREFETCHES:    2078075 LATE PREFETCHES: 0 DROPPED PREFETCHES: 0
LLC4 AVERAGE MISS LATENCY: 733.408 cycles
LLC5 TOTAL     ACCESS: 6694251  HIT: 3358915  MISS: 3335336  HIT %: 50.1761  MISS %: 49.8239  AVERAGE MISS PENALTY: 728.076
LLC5 LOAD      ACCESS: 1217965  HIT: 655852  MISS: 562113  HIT %: 53.8482  MISS %: 46.1518  AVERAGE MISS PENALTY: 717.221
LLC5 RFO       ACCESS: 10274  HIT:  2324  MISS:  7950  HIT %: 22.6202  MISS %: 77.3798  AVERAGE MISS PENALTY: 681.747
LLC5 PREFETCH  ACCESS: 5415528  HIT: 2657662  MISS: 2757866  HIT %: 49.0748  MISS %: 50.9252  AVERAGE MISS PENALTY: 732.377
LLC5 WRITEBACK ACCESS: 50484  HIT: 43077  MISS:  7407  HIT %: 85.328  MISS %: 14.672  AVERAGE MISS PENALTY: 0
LLC5 PREFETCH  REQUESTED:     0  ISSUED:     0  USEFUL: 2085839  USELESS: 20139349
 USEFUL LOAD PREFETCHES:    2085839 PREFETCH ISSUED TO LOWER LEVEL:  665581059  ACCURACY: 0.313386
 TIMELY PREFETCHES:    2085839 LATE PREFETCHES: 0 DROPPED PREFETCHES: 0
LLC5 AVERAGE MISS LATENCY: 728.076 cycles
LLC6 TOTAL     ACCESS: 6533082  HIT: 3263553  MISS: 3269529  HIT %: 49.9543  MISS %: 50.0457  AVERAGE MISS PENALTY: 728.188
LLC6 LOAD      ACCESS: 1166681  HIT: 617352  MISS: 549329  HIT %: 52.9152  MISS %: 47.0848  AVERAGE MISS PENALTY: 722.578
LLC6 RFO       ACCESS: 10191  HIT:  2309  MISS:  7882  HIT %: 22.6572  MISS %: 77.3428  AVERAGE MISS PENALTY: 710.839
LLC6 PREFETCH  ACCESS: 5305817  HIT: 2600837  MISS: 2704980  HIT %: 49.0186  MISS %: 50.9814  AVERAGE MISS PENALTY: 731.353
LLC6 WRITEBACK ACCESS: 50393  HIT: 43055  MISS:  7338  HIT %: 85.4385  MISS %: 14.5615  AVERAGE MISS PENALTY: 0
LLC6 PREFETCH  REQUESTED:     0  ISSUED:     0  USEFUL: 2054943  USELESS: 19741308
 USEFUL LOAD PREFETCHES:    2054943 PREFETCH ISSUED TO LOWER LEVEL: 1042277727  ACCURACY: 0.197159
 TIMELY PREFETCHES:    2054943 LATE PREFETCHES: 0 DROPPED PREFETCHES: 0
LLC6 AVERAGE MISS LATENCY: 728.188 cycles
LLC7 TOTAL     ACCESS: 6439526  HIT: 3217442  MISS: 3222084  HIT %: 49.964  MISS %: 50.036  AVERAGE MISS PENALTY: 726.732
LLC7 LOAD      ACCESS: 1182926  HIT: 639367  MISS: 543559  HIT %: 54.0496  MISS %: 45.9504  AVERAGE MISS PENALTY: 710.805
LLC7 RFO       ACCESS: 10389  HIT:  2279  MISS:  8110  HIT %: 21.9367  MISS %: 78.0633  AVERAGE MISS PENALTY: 694.871
LLC7 PREFETCH  ACCESS: 5195649  HIT: 2532750  MISS: 2662899  HIT %: 48.7475  MISS %: 51.2525  AVERAGE MISS PENALTY: 732.132
LLC7 WRITEBACK ACCESS: 50562  HIT: 43046  MISS:  7516  HIT %: 85.1351  MISS %: 14.8649  AVERAGE MISS PENALTY: 0
LLC7 PREFETCH  REQUESTED:     0  ISSUED:     0  USEFUL: 1994014  USELESS: 19476490
 USEFUL LOAD PREFETCHES:    1994014 PREFETCH ISSUED TO LOWER LEVEL:  953857019  ACCURACY: 0.209047
 TIMELY PREFETCHES:    1994014 LATE PREFETCHES: 0 DROPPED PREFETCHES: 0
LLC7 AVERAGE MISS LATENCY: 726.733 cycles
ROI Average ROB Stall Cycles:	53.7111
ROI Total ROB Stalls Cycles:	1699276207
ROI TOTAL ROB counter      :	31637323
ROI Average Load ROB Stall Cycles:	367.116
ROI Total Load ROB Stalls Cycle  :	1611913779
ROI Total Load ROB stalls Counter:	4390748
Major fault: 0 Minor fault: 58528

CPU 7 cumulative IPC: 0.114827 instructions: 200000003 cycles: 1741746158
ITLB TOTAL     ACCESS: 30286322  HIT: 30286322  MISS:     0  HIT %:   100  MISS %:     0  AVERAGE MISS PENALTY: 0
ITLB LOAD      ACCESS: 30286322  HIT: 30286322  MISS:     0  HIT %:   100  MISS %:     0  AVERAGE MISS PENALTY: 0
ITLB RFO       ACCESS:     0  HIT:     0  MISS:     0  HIT %:     0  MISS %:     0  AVERAGE MISS PENALTY: 0
ITLB PREFETCH  ACCESS:     0  HIT:     0  MISS:     0  HIT %:     0  MISS %:     0  AVERAGE MISS PENALTY: 0
ITLB WRITEBACK ACCESS:     0  HIT:     0  MISS:     0  HIT %:     0  MISS %:     0  AVERAGE MISS PENALTY: 0
ITLB PREFETCH  REQUESTED:     0  ISSUED:     0  USEFUL:     0  USELESS:     0
 USEFUL LOAD PREFETCHES:          0 PREFETCH ISSUED TO LOWER LEVEL:          0  ACCURACY: -nan
 TIMELY PREFETCHES:          0 LATE PREFETCHES: 0 DROPPED PREFETCHES: 0
ITLB AVERAGE MISS LATENCY: -nan cycles
DTLB TOTAL     ACCESS: 55584104  HIT: 49034978  MISS: 6549126  HIT %: 88.2176  MISS %: 11.7824  AVERAGE MISS PENALTY: 11.036
DTLB LOAD      ACCESS: 54541069  HIT: 48291787  MISS: 6249282  HIT %: 88.5421  MISS %: 11.4579  AVERAGE MISS PENALTY: 10.843
DTLB RFO       ACCESS: 1043035  HIT: 743191  MISS: 299844  HIT %: 71.2527  MISS %: 28.7473  AVERAGE MISS PENALTY: 15.0583
DTLB PREFETCH  ACCESS:     0  HIT:     0  MISS:     0  HIT %:     0  MISS %:     0  AVERAGE MISS PENALTY: 0
DTLB WRITEBACK ACCESS:     0  HIT:     0  MISS:     0  HIT %:     0  MISS %:     0  AVERAGE MISS PENALTY: 0
DTLB PREFETCH  REQUESTED:     0  ISSUED:     0  USEFUL:     0  USELESS:     0
 USEFUL LOAD PREFETCHES:          0 PREFETCH ISSUED TO LOWER LEVEL:          0  ACCURACY: -nan
 TIMELY PREFETCHES:          0 LATE PREFETCHES: 0 DROPPED PREFETCHES: 0
DTLB AVERAGE MISS LATENCY: 11.036 cycles
STLB TOTAL     ACCESS: 6549126  HIT: 6454042  MISS: 95084  HIT %: 98.5481  MISS %: 1.45186  AVERAGE MISS PENALTY: 100
STLB LOAD      ACCESS: 6249282  HIT: 6172261  MISS: 77021  HIT %: 98.7675  MISS %: 1.23248  AVERAGE MISS PENALTY: 100
STLB RFO       ACCESS: 299844  HIT: 281781  MISS: 18063  HIT %: 93.9759  MISS %: 6.02413  AVERAGE MISS PENALTY: 100
STLB PREFETCH  ACCESS:     0  HIT:     0  MISS:     0  HIT %:     0  MISS %:     0  AVERAGE MISS PENALTY: 0
STLB WRITEBACK ACCESS:     0  HIT:     0  MISS:     0  HIT %:     0  MISS %:     0  AVERAGE MISS PENALTY: 0
STLB PREFETCH  REQUESTED:     0  ISSUED:     0  USEFUL:     0  USELESS:     0
 USEFUL LOAD PREFETCHES:          0 PREFETCH ISSUED TO LOWER LEVEL:          0  ACCURACY: -nan
 TIMELY PREFETCHES:          0 LATE PREFETCHES: 0 DROPPED PREFETCHES: 0
STLB AVERAGE MISS LATENCY: 100 cycles
L1D TOTAL     ACCESS: 76908762  HIT: 40698167  MISS: 36210595  HIT %: 52.9175  MISS %: 47.0825  AVERAGE MISS PENALTY: 2.19444e+06
L1D LOAD      ACCESS: 46366507  HIT: 36527518  MISS: 9838989  HIT %: 78.78  MISS %: 21.22  AVERAGE MISS PENALTY: 8.07518e+06
L1D RFO       ACCESS: 1049392  HIT: 731085  MISS: 318307  HIT %: 69.6675  MISS %: 30.3325  AVERAGE MISS PENALTY: 179.847
L1D PREFETCH  ACCESS: 29492863  HIT: 3439564  MISS: 26053299  HIT %: 11.6624  MISS %: 88.3376  AVERAGE MISS PENALTY: 396.32
L1D WRITEBACK ACCESS:     0  HIT:     0  MISS:     0  HIT %:     0  MISS %:     0  AVERAGE MISS PENALTY: 0
L1D PREFETCH  REQUESTED: 40804593  ISSUED: 30260381  USEFUL: 1224583  USELESS: 24828718
 USEFUL LOAD PREFETCHES:    1224583 PREFETCH ISSUED TO LOWER LEVEL:  440757458  ACCURACY: 0.277836
 TIMELY PREFETCHES:    1224583 LATE PREFETCHES: 242184 DROPPED PREFETCHES: 10544212
L1D AVERAGE MISS LATENCY: 392.408 cycles
L1I TOTAL     ACCESS: 44271337  HIT: 44271337  MISS:     0  HIT %:   100  MISS %:     0  AVERAGE MISS PENALTY: 0
L1I LOAD      ACCESS: 44271337  HIT: 44271337  MISS:     0  HIT %:   100  MISS %:     0  AVERAGE MISS PENALTY: 0
L1I RFO       ACCESS:     0  HIT:     0  MISS:     0  HIT %:     0  MISS %:     0  AVERAGE MISS PENALTY: 0
L1I PREFETCH  ACCESS:     0  HIT:     0  MISS:     0  HIT %:     0  MISS %:     0  AVERAGE MISS PENALTY: 0
L1I WRITEBACK ACCESS:     0  HIT:     0  MISS:     0  HIT %:     0  MISS %:     0  AVERAGE MISS PENALTY: 0
L1I PREFETCH  REQUESTED:     0  ISSUED:     0  USEFUL:     0  USELESS:     0
 USEFUL LOAD PREFETCHES:          0 PREFETCH ISSUED TO LOWER LEVEL:          0  ACCURACY: -nan
 TIMELY PREFETCHES:          0 LATE PREFETCHES: 0 DROPPED PREFETCHES: 0
L1I AVERAGE MISS LATENCY: -nan cycles
L2C TOTAL     ACCESS: 58633452  HIT: 4839986  MISS: 53793466  HIT %: 8.25465  MISS %: 91.7454  AVERAGE MISS PENALTY: 1.80888e+06
L2C LOAD      ACCESS: 9834614  HIT: 328233  MISS: 9506381  HIT %: 3.33753  MISS %: 96.6625  AVERAGE MISS PENALTY: 1.02339e+07
L2C RFO       ACCESS: 318294  HIT: 224498  MISS: 93796  HIT %: 70.5316  MISS %: 29.4684  AVERAGE MISS PENALTY: 558.959
L2C PREFETCH  ACCESS: 47595685  HIT: 3635478  MISS: 43960207  HIT %: 7.63825  MISS %: 92.3617  AVERAGE MISS PENALTY: 423.815
L2C WRITEBACK ACCESS: 884859  HIT: 651777  MISS: 233082  HIT %: 73.6589  MISS %: 26.3411  AVERAGE MISS PENALTY: 0
L2C PREFETCH  REQUESTED: 59838830  ISSUED: 59187924  USEFUL: 46328  USELESS: 43913821
 USEFUL LOAD PREFETCHES:      46328 PREFETCH ISSUED TO LOWER LEVEL:   56543874  ACCURACY: 0.0819328
 TIMELY PREFETCHES:      46328 LATE PREFETCHES: 484793 DROPPED PREFETCHES: 650906
L2C AVERAGE MISS LATENCY: 415.654 cycles
LLC0 TOTAL     ACCESS: 6886924  HIT: 3455019  MISS: 3431905  HIT %: 50.1678  MISS %: 49.8322  AVERAGE MISS PENALTY: 773.245
LLC0 LOAD      ACCESS: 1213057  HIT: 638876  MISS: 574181  HIT %: 52.6666  MISS %: 47.3334  AVERAGE MISS PENALTY: 766.595
LLC0 RFO       ACCESS: 11880  HIT:  3161  MISS:  8719  HIT %: 26.6077  MISS %: 73.3923  AVERAGE MISS PENALTY: 747.648
LLC0 PREFETCH  ACCESS: 5609434  HIT: 2767956  MISS: 2841478  HIT %: 49.3447  MISS %: 50.6553  AVERAGE MISS PENALTY: 776.715
LLC0 WRITEBACK ACCESS: 52553  HIT: 45026  MISS:  7527  HIT %: 85.6773  MISS %: 14.3227  AVERAGE MISS PENALTY: 0
LLC0 PREFETCH  REQUESTED:     0  ISSUED:     0  USEFUL: 2103488  USELESS: 20791019
 USEFUL LOAD PREFETCHES:    2103488 PREFETCH ISSUED TO LOWER LEVEL:  313304513  ACCURACY: 0.671388
 TIMELY PREFETCHES:    2103488 LATE PREFETCHES: 0 DROPPED PREFETCHES: 0
LLC0 AVERAGE MISS LATENCY: 773.245 cycles
Deadblocks : 4090769 Deadblock percentage : 712.453

LLC1 TOTAL     ACCESS: 6913643  HIT: 3458807  MISS: 3454836  HIT %: 50.0287  MISS %: 49.9713  AVERAGE MISS PENALTY: 767.295
LLC1 LOAD      ACCESS: 1147312  HIT: 606013  MISS: 541299  HIT %: 52.8202  MISS %: 47.1798  AVERAGE MISS PENALTY: 762.857
LLC1 RFO       ACCESS: 11813  HIT:  3268  MISS:  8545  HIT %: 27.6644  MISS %: 72.3356  AVERAGE MISS PENALTY: 728.878
LLC1 PREFETCH  ACCESS: 5702386  HIT: 2804619  MISS: 2897767  HIT %: 49.1833  MISS %: 50.8167  AVERAGE MISS PENALTY: 770.15
LLC1 WRITEBACK ACCESS: 52132  HIT: 44907  MISS:  7225  HIT %: 86.1409  MISS %: 13.8591  AVERAGE MISS PENALTY: 0
LLC1 PREFETCH  REQUESTED:     0  ISSUED:     0  USEFUL: 2103394  USELESS: 21248788
 USEFUL LOAD PREFETCHES:    2103394 PREFETCH ISSUED TO LOWER LEVEL:  296396812  ACCURACY: 0.709655
 TIMELY PREFETCHES:    2103394 LATE PREFETCHES: 0 DROPPED PREFETCHES: 0
LLC1 AVERAGE MISS LATENCY: 767.295 cycles
LLC2 TOTAL     ACCESS: 6914970  HIT: 3462527  MISS: 3452443  HIT %: 50.0729  MISS %: 49.9271  AVERAGE MISS PENALTY: 766.411
LLC2 LOAD      ACCESS: 1186172  HIT: 635567  MISS: 550605  HIT %: 53.5814  MISS %: 46.4186  AVERAGE MISS PENALTY: 766.643
LLC2 RFO       ACCESS: 11796  HIT:  3176  MISS:  8620  HIT %: 26.9244  MISS %: 73.0756  AVERAGE MISS PENALTY: 754.017
LLC2 PREFETCH  ACCESS: 5664836  HIT: 2778841  MISS: 2885995  HIT %: 49.0542  MISS %: 50.9458  AVERAGE MISS PENALTY: 768.322
LLC2 WRITEBACK ACCESS: 52166  HIT: 44943  MISS:  7223  HIT %: 86.1538  MISS %: 13.8462  AVERAGE MISS PENALTY: 0
LLC2 PREFETCH  REQUESTED:     0  ISSUED:     0  USEFUL: 2115435  USELESS: 21137996
 USEFUL LOAD PREFETCHES:    2115435 PREFETCH ISSUED TO LOWER LEVEL:  487188347  ACCURACY: 0.434213
 TIMELY PREFETCHES:    2115435 LATE PREFETCHES: 0 DROPPED PREFETCHES: 0
LLC2 AVERAGE MISS LATENCY: 766.411 cycles
LLC3 TOTAL     ACCESS: 6832406  HIT: 3414955  MISS: 3417451  HIT %: 49.9817  MISS %: 50.0183  AVERAGE MISS PENALTY: 762.057
LLC3 LOAD      ACCESS: 1175600  HIT: 616844  MISS: 558756  HIT %: 52.4706  MISS %: 47.5294  AVERAGE MISS PENALTY: 760.476
LLC3 RFO       ACCESS: 11642  HIT:  3145  MISS:  8497  HIT %: 27.0143  MISS %: 72.9857  AVERAGE MISS PENALTY: 749.935
LLC3 PREFETCH  ACCESS: 5593089  HIT: 2750100  MISS: 2842989  HIT %: 49.1696  MISS %: 50.8304  AVERAGE MISS PENALTY: 764.337
LLC3 WRITEBACK ACCESS: 52075  HIT: 44866  MISS:  7209  HIT %: 86.1565  MISS %: 13.8435  AVERAGE MISS PENALTY: 0
LLC3 PREFETCH  REQUESTED:     0  ISSUED:     0  USEFUL: 2114001  USELESS: 20791372
 USEFUL LOAD PREFETCHES:    2114001 PREFETCH ISSUED TO LOWER LEVEL:  449427869  ACCURACY: 0.470376
 TIMELY PREFETCHES:    2114001 LATE PREFETCHES: 0 DROPPED PREFETCHES: 0
LLC3 AVERAGE MISS LATENCY: 762.057 cycles
LLC4 TOTAL     ACCESS: 6753819  HIT: 3381933  MISS: 3371886  HIT %: 50.0744  MISS %: 49.9256  AVERAGE MISS PENALTY: 732.861
LLC4 LOAD      ACCESS: 1146088  HIT: 602645  MISS: 543443  HIT %: 52.5828  MISS %: 47.4172  AVERAGE MISS PENALTY: 723.871
LLC4 RFO       ACCESS: 11695  HIT:  3203  MISS:  8492  HIT %: 27.3878  MISS %: 72.6122  AVERAGE MISS PENALTY: 684.005
LLC4 PREFETCH  ACCESS: 5543796  HIT: 2731116  MISS: 2812680  HIT %: 49.2644  MISS %: 50.7356  AVERAGE MISS PENALTY: 736.64
LLC4 WRITEBACK ACCESS: 52240  HIT: 44969  MISS:  7271  HIT %: 86.0815  MISS %: 13.9185  AVERAGE MISS PENALTY: 0
LLC4 PREFETCH  REQUESTED:     0  ISSUED:     0  USEFUL: 2078075  USELESS: 20587235
 USEFUL LOAD PREFETCHES:    2078075 PREFETCH ISSUED TO LOWER LEVEL:  726729436  ACCURACY: 0.285949
 TIMELY PREFETCHES:    2078075 LATE PREFETCHES: 0 DROPPED PREFETCHES: 0
LLC4 AVERAGE MISS LATENCY: 732.861 cycles
LLC5 TOTAL     ACCESS: 6697469  HIT: 3360166  MISS: 3337303  HIT %: 50.1707  MISS %: 49.8293  AVERAGE MISS PENALTY: 728.375
LLC5 LOAD      ACCESS: 1218065  HIT: 656100  MISS: 561965  HIT %: 53.8641  MISS %: 46.1359  AVERAGE MISS PENALTY: 717.798
LLC5 RFO       ACCESS: 11560  HIT:  3213  MISS:  8347  HIT %: 27.7941  MISS %: 72.2059  AVERAGE MISS PENALTY: 677.626
LLC5 PREFETCH  ACCESS: 5415964  HIT: 2656175  MISS: 2759789  HIT %: 49.0434  MISS %: 50.9566  AVERAGE MISS PENALTY: 732.583
LLC5 WRITEBACK ACCESS: 51880  HIT: 44678  MISS:  7202  HIT %: 86.118  MISS %: 13.882  AVERAGE MISS PENALTY: 0
LLC5 PREFETCH  REQUESTED:     0  ISSUED:     0  USEFUL: 2085839  USELESS: 20139349
 USEFUL LOAD PREFETCHES:    2085839 PREFETCH ISSUED TO LOWER LEVEL:  665581059  ACCURACY: 0.313386
 TIMELY PREFETCHES:    2085839 LATE PREFETCHES: 0 DROPPED PREFETCHES: 0
LLC5 AVERAGE MISS LATENCY: 728.375 cycles
LLC6 TOTAL     ACCESS: 6536492  HIT: 3267106  MISS: 3269386  HIT %: 49.9826  MISS %: 50.0174  AVERAGE MISS PENALTY: 728.555
LLC6 LOAD      ACCESS: 1166580  HIT: 617859  MISS: 548721  HIT %: 52.9633  MISS %: 47.0367  AVERAGE MISS PENALTY: 724.506
LLC6 RFO       ACCESS: 11604  HIT:  3174  MISS:  8430  HIT %: 27.3526  MISS %: 72.6474  AVERAGE MISS PENALTY: 695.514
LLC6 PREFETCH  ACCESS: 5306412  HIT: 2601438  MISS: 2704974  HIT %: 49.0244  MISS %: 50.9756  AVERAGE MISS PENALTY: 731.435
LLC6 WRITEBACK ACCESS: 51896  HIT: 44635  MISS:  7261  HIT %: 86.0086  MISS %: 13.9914  AVERAGE MISS PENALTY: 0
LLC6 PREFETCH  REQUESTED:     0  ISSUED:     0  USEFUL: 2054943  USELESS: 19741308
 USEFUL LOAD PREFETCHES:    2054943 PREFETCH ISSUED TO LOWER LEVEL: 1042277727  ACCURACY: 0.197159
 TIMELY PREFETCHES:    2054943 LATE PREFETCHES: 0 DROPPED PREFETCHES: 0
LLC6 AVERAGE MISS LATENCY: 728.555 cycles
LLC7 TOTAL     ACCESS: 6441651  HIT: 3215758  MISS: 3225893  HIT %: 49.9213  MISS %: 50.0787  AVERAGE MISS PENALTY: 726.352
LLC7 LOAD      ACCESS: 1182827  HIT: 638879  MISS: 543948  HIT %: 54.0129  MISS %: 45.9871  AVERAGE MISS PENALTY: 710.082
LLC7 RFO       ACCESS: 11806  HIT:  3253  MISS:  8553  HIT %: 27.5538  MISS %: 72.4462  AVERAGE MISS PENALTY: 694.759
LLC7 PREFETCH  ACCESS: 5194968  HIT: 2529044  MISS: 2665924  HIT %: 48.6826  MISS %: 51.3174  AVERAGE MISS PENALTY: 731.808
LLC7 WRITEBACK ACCESS: 52050  HIT: 44582  MISS:  7468  HIT %: 85.6523  MISS %: 14.3477  AVERAGE MISS PENALTY: 0
LLC7 PREFETCH  REQUESTED:     0  ISSUED:     0  USEFUL: 1994014  USELESS: 19476490
 USEFUL LOAD PREFETCHES:    1994014 PREFETCH ISSUED TO LOWER LEVEL:  953857019  ACCURACY: 0.209047
 TIMELY PREFETCHES:    1994014 LATE PREFETCHES: 0 DROPPED PREFETCHES: 0
LLC7 AVERAGE MISS LATENCY: 726.352 cycles
ROI Average ROB Stall Cycles:	53.6936
ROI Total ROB Stalls Cycles:	1698723906
ROI TOTAL ROB counter      :	31637385
ROI Average Load ROB Stall Cycles:	367.001
ROI Total Load ROB Stalls Cycle  :	1611450547
ROI Total Load ROB stalls Counter:	4390867
Major fault: 0 Minor fault: 58535








Interconnect Stats 
LINK 0 BW : 0LINK 1 BW : 0LINK 2 BW : 0LINK 3 BW : 0LINK 4 BW : 0LINK 5 BW : 0LINK 6 BW : 0LINK 7 BW : 0
DRAM Statistics
 CHANNEL 0
 RQ ROW_BUFFER_HIT: 41135438  ROW_BUFFER_MISS: 67610410
 DBUS_CONGESTED: 57549637
 WQ ROW_BUFFER_HIT: 109774  ROW_BUFFER_MISS: 1500294  FULL:     0

 CHANNEL 1
 RQ ROW_BUFFER_HIT: 40749295  ROW_BUFFER_MISS: 67236977
 DBUS_CONGESTED: 57549637
 WQ ROW_BUFFER_HIT: 109004  ROW_BUFFER_MISS: 1495265  FULL:     0

 AVG_CONGESTED_CYCLE: 5
DRAM PAGES: 2097152
Allocated PAGES: 467935
L2C destructor called
L1D destructor called
L1I destructor called
STLB destructor called
DTLB destructor called
ITLB destructor called
L2C destructor called
L1D destructor called
L1I destructor called
STLB destructor called
DTLB destructor called
ITLB destructor called
L2C destructor called
L1D destructor called
L1I destructor called
STLB destructor called
DTLB destructor called
ITLB destructor called
L2C destructor called
L1D destructor called
L1I destructor called
STLB destructor called
DTLB destructor called
ITLB destructor called
L2C destructor called
L1D destructor called
L1I destructor called
STLB destructor called
DTLB destructor called
ITLB destructor called
L2C destructor called
L1D destructor called
L1I destructor called
STLB destructor called
DTLB destructor called
ITLB destructor called
L2C destructor called
L1D destructor called
L1I destructor called
STLB destructor called
DTLB destructor called
ITLB destructor called
L2C destructor called
L1D destructor called
L1I destructor called
STLB destructor called
DTLB destructor called
ITLB destructor called
