
*** ChampSim Multicore Out-of-Order Simulator ***

Warmup Instructions: 200000000
Simulation Instructions: 200000000
Number of CPUs: 1
threads:1

L1I Configuration:
L1I_SET:64
L1I_WAY:8
L1I_RQ_SIZE:64
L1I_WQ_SIZE:64
L1I_PQ_SIZE:8
L1I_MSHR_SIZE:8

L1D Configuration:
L1D_SET:64
L1D_WAY:12
L1D_RQ_SIZE:64
L1D_WQ_SIZE:64
L1D_PQ_SIZE:8
L1D_MSHR_SIZE:16

L2C Configuration:
L2C_SET:1024
L2C_WAY:8
L2C_RQ_SIZE:32
L2C_WQ_SIZE:32
L2C_PQ_SIZE:16
L2C_MSHR_SIZE:32

LLC Configuration:
LLC_SET:2048
LLC_WAY:16
LLC SLICES:1
LLC_RQ_SIZE:64
LLC_WQ_SIZE:64
LLC_PQ_SIZE:32
LLC_MSHR_SIZE:64

Interconnect OFF
Attacker deprioritize is: OFF
Off-chip DRAM Size: 4096 MB Channels: 1 Width: 64-bit Data Rate: 3200 MT/s
PAGE SIZE in KB: 4.000000 
PAGE SIZE in MB: 0.003906 
PAGE offset in bits: 12 
CEASER-S_LLC:0
MIRAGE : 0
CEASER_LATENCY:3
REMAP : OFF
Partitions : 1
Multi-Step : OFF
BFS : OFF

CPU 0 runs /home/anubhav/spec_2017/602.gcc_s-1850B.champsimtrace.xz
CPU 0 Bimodal branch predictor
Initialize SRRIP state
Heartbeat CPU 0 instructions: 10000001 cycles: 9908509 heartbeat IPC: 1.00923 cumulative IPC: 1.00923 (Simulation time: 0 hr 1 min 6 sec) 
 Total Blocks : 32768 Invalid Blocks : 0
Heartbeat CPU 0 instructions: 20000003 cycles: 19811804 heartbeat IPC: 1.00977 cumulative IPC: 1.0095 (Simulation time: 0 hr 2 min 20 sec) 
 Total Blocks : 32768 Invalid Blocks : 0
Heartbeat CPU 0 instructions: 30000003 cycles: 29718094 heartbeat IPC: 1.00946 cumulative IPC: 1.00949 (Simulation time: 0 hr 3 min 40 sec) 
 Total Blocks : 32768 Invalid Blocks : 0
Heartbeat CPU 0 instructions: 40000003 cycles: 39622427 heartbeat IPC: 1.00966 cumulative IPC: 1.00953 (Simulation time: 0 hr 5 min 45 sec) 
 Total Blocks : 32768 Invalid Blocks : 0
Heartbeat CPU 0 instructions: 50000003 cycles: 49526483 heartbeat IPC: 1.00969 cumulative IPC: 1.00956 (Simulation time: 0 hr 9 min 35 sec) 
 Total Blocks : 32768 Invalid Blocks : 0
Heartbeat CPU 0 instructions: 60000002 cycles: 59432400 heartbeat IPC: 1.0095 cumulative IPC: 1.00955 (Simulation time: 0 hr 14 min 20 sec) 
 Total Blocks : 32768 Invalid Blocks : 0
Heartbeat CPU 0 instructions: 70000001 cycles: 69335544 heartbeat IPC: 1.00978 cumulative IPC: 1.00958 (Simulation time: 0 hr 19 min 25 sec) 
 Total Blocks : 32768 Invalid Blocks : 0
Heartbeat CPU 0 instructions: 80000002 cycles: 79241489 heartbeat IPC: 1.00949 cumulative IPC: 1.00957 (Simulation time: 0 hr 24 min 44 sec) 
 Total Blocks : 32768 Invalid Blocks : 0
Heartbeat CPU 0 instructions: 90000000 cycles: 89146480 heartbeat IPC: 1.00959 cumulative IPC: 1.00957 (Simulation time: 0 hr 30 min 37 sec) 
 Total Blocks : 32768 Invalid Blocks : 0
Heartbeat CPU 0 instructions: 100000000 cycles: 99052483 heartbeat IPC: 1.00949 cumulative IPC: 1.00957 (Simulation time: 0 hr 36 min 30 sec) 
 Total Blocks : 32768 Invalid Blocks : 0
Heartbeat CPU 0 instructions: 110000000 cycles: 108956972 heartbeat IPC: 1.00964 cumulative IPC: 1.00957 (Simulation time: 0 hr 42 min 57 sec) 
 Total Blocks : 32768 Invalid Blocks : 0
Heartbeat CPU 0 instructions: 120000002 cycles: 118861908 heartbeat IPC: 1.0096 cumulative IPC: 1.00957 (Simulation time: 0 hr 50 min 2 sec) 
 Total Blocks : 32768 Invalid Blocks : 0
Heartbeat CPU 0 instructions: 130000002 cycles: 128768146 heartbeat IPC: 1.00946 cumulative IPC: 1.00957 (Simulation time: 0 hr 57 min 24 sec) 
 Total Blocks : 32768 Invalid Blocks : 0
Heartbeat CPU 0 instructions: 140000001 cycles: 138670950 heartbeat IPC: 1.00981 cumulative IPC: 1.00958 (Simulation time: 1 hr 4 min 41 sec) 
 Total Blocks : 32768 Invalid Blocks : 0
Heartbeat CPU 0 instructions: 150000000 cycles: 148574680 heartbeat IPC: 1.00972 cumulative IPC: 1.00959 (Simulation time: 1 hr 12 min 25 sec) 
 Total Blocks : 32768 Invalid Blocks : 0
Heartbeat CPU 0 instructions: 160000003 cycles: 158478361 heartbeat IPC: 1.00973 cumulative IPC: 1.0096 (Simulation time: 1 hr 20 min 43 sec) 
 Total Blocks : 32768 Invalid Blocks : 0
Heartbeat CPU 0 instructions: 170000000 cycles: 168383846 heartbeat IPC: 1.00954 cumulative IPC: 1.0096 (Simulation time: 1 hr 29 min 14 sec) 
 Total Blocks : 32768 Invalid Blocks : 0
Heartbeat CPU 0 instructions: 180000000 cycles: 178288948 heartbeat IPC: 1.00958 cumulative IPC: 1.0096 (Simulation time: 1 hr 38 min 9 sec) 
 Total Blocks : 32768 Invalid Blocks : 0
Heartbeat CPU 0 instructions: 190000002 cycles: 188194196 heartbeat IPC: 1.00957 cumulative IPC: 1.0096 (Simulation time: 1 hr 47 min 15 sec) 
 Total Blocks : 32768 Invalid Blocks : 0
Heartbeat CPU 0 instructions: 200000003 cycles: 198099602 heartbeat IPC: 1.00955 cumulative IPC: 1.00959 (Simulation time: 1 hr 56 min 38 sec) 
 Total Blocks : 32768 Invalid Blocks : 0

Warmup complete CPU 0 instructions: 200000003 cycles: 198099602 (Simulation time: 1 hr 56 min 38 sec) 

Heartbeat CPU 0 instructions: 210000001 cycles: 247308148 heartbeat IPC: 0.203217 cumulative IPC: 0.203217 (Simulation time: 2 hr 11 min 8 sec) 
 Total Blocks : 32768 Invalid Blocks : 0
Heartbeat CPU 0 instructions: 220000000 cycles: 296530116 heartbeat IPC: 0.203161 cumulative IPC: 0.203189 (Simulation time: 2 hr 26 min 30 sec) 
 Total Blocks : 32768 Invalid Blocks : 0
Heartbeat CPU 0 instructions: 230000002 cycles: 345747472 heartbeat IPC: 0.20318 cumulative IPC: 0.203186 (Simulation time: 2 hr 42 min 6 sec) 
 Total Blocks : 32768 Invalid Blocks : 0
Heartbeat CPU 0 instructions: 240000001 cycles: 394991428 heartbeat IPC: 0.203071 cumulative IPC: 0.203157 (Simulation time: 2 hr 57 min 13 sec) 
 Total Blocks : 32768 Invalid Blocks : 0
Heartbeat CPU 0 instructions: 250000003 cycles: 444270334 heartbeat IPC: 0.202927 cumulative IPC: 0.203111 (Simulation time: 3 hr 12 min 10 sec) 
 Total Blocks : 32768 Invalid Blocks : 0
Heartbeat CPU 0 instructions: 260000000 cycles: 493524133 heartbeat IPC: 0.20303 cumulative IPC: 0.203098 (Simulation time: 3 hr 27 min 2 sec) 
 Total Blocks : 32768 Invalid Blocks : 0
Heartbeat CPU 0 instructions: 270000001 cycles: 542760139 heartbeat IPC: 0.203103 cumulative IPC: 0.203098 (Simulation time: 3 hr 41 min 33 sec) 
 Total Blocks : 32768 Invalid Blocks : 0
Heartbeat CPU 0 instructions: 280000000 cycles: 591987990 heartbeat IPC: 0.203137 cumulative IPC: 0.203103 (Simulation time: 3 hr 55 min 22 sec) 
 Total Blocks : 32768 Invalid Blocks : 0
Heartbeat CPU 0 instructions: 290000001 cycles: 641175025 heartbeat IPC: 0.203306 cumulative IPC: 0.203126 (Simulation time: 4 hr 8 min 37 sec) 
 Total Blocks : 32768 Invalid Blocks : 0
Heartbeat CPU 0 instructions: 300000000 cycles: 690417760 heartbeat IPC: 0.203076 cumulative IPC: 0.203121 (Simulation time: 4 hr 21 min 19 sec) 
 Total Blocks : 32768 Invalid Blocks : 0
Heartbeat CPU 0 instructions: 310000001 cycles: 739625744 heartbeat IPC: 0.203219 cumulative IPC: 0.20313 (Simulation time: 4 hr 33 min 33 sec) 
 Total Blocks : 32768 Invalid Blocks : 0
Heartbeat CPU 0 instructions: 320000000 cycles: 788797517 heartbeat IPC: 0.203369 cumulative IPC: 0.20315 (Simulation time: 4 hr 45 min 2 sec) 
 Total Blocks : 32768 Invalid Blocks : 0
Heartbeat CPU 0 instructions: 330000000 cycles: 838015982 heartbeat IPC: 0.203176 cumulative IPC: 0.203152 (Simulation time: 4 hr 56 min 31 sec) 
 Total Blocks : 32768 Invalid Blocks : 0
Heartbeat CPU 0 instructions: 340000003 cycles: 887247263 heartbeat IPC: 0.203123 cumulative IPC: 0.203149 (Simulation time: 5 hr 6 min 9 sec) 
 Total Blocks : 32768 Invalid Blocks : 0
Heartbeat CPU 0 instructions: 350000000 cycles: 936464011 heartbeat IPC: 0.203183 cumulative IPC: 0.203152 (Simulation time: 5 hr 15 min 23 sec) 
 Total Blocks : 32768 Invalid Blocks : 0
Heartbeat CPU 0 instructions: 360000003 cycles: 985675006 heartbeat IPC: 0.203207 cumulative IPC: 0.203155 (Simulation time: 5 hr 24 min 5 sec) 
 Total Blocks : 32768 Invalid Blocks : 0
Heartbeat CPU 0 instructions: 370000001 cycles: 1034902712 heartbeat IPC: 0.203138 cumulative IPC: 0.203154 (Simulation time: 5 hr 31 min 54 sec) 
 Total Blocks : 32768 Invalid Blocks : 0
Heartbeat CPU 0 instructions: 380000000 cycles: 1084047957 heartbeat IPC: 0.203478 cumulative IPC: 0.203172 (Simulation time: 5 hr 40 min 0 sec) 
 Total Blocks : 32768 Invalid Blocks : 0
Heartbeat CPU 0 instructions: 390000001 cycles: 1133256874 heartbeat IPC: 0.203215 cumulative IPC: 0.203174 (Simulation time: 5 hr 47 min 47 sec) 
 Total Blocks : 32768 Invalid Blocks : 0
Heartbeat CPU 0 instructions: 400000000 cycles: 1182486759 heartbeat IPC: 0.203129 cumulative IPC: 0.203172 (Simulation time: 5 hr 55 min 19 sec) 
 Total Blocks : 32768 Invalid Blocks : 0
Finished CPU 0 instructions: 200000003 cycles: 984387184 cumulative IPC: 0.203172 (Simulation time: 5 hr 55 min 19 sec) 

CPU 0 Branch Prediction Accuracy: 91.5536% MPKI: 19.8325 Average ROB Occupancy at Mispredict: 59.0103

ChampSim completed all CPUs

Region of Interest Statistics

CPU 0 cumulative IPC: 0.203172 instructions: 200000003 cycles: 984387184
ITLB TOTAL     ACCESS: 22954927  HIT: 22954927  MISS:     0  HIT %:   100  MISS %:     0  AVERAGE MISS PENALTY: 0
ITLB LOAD      ACCESS: 22954927  HIT: 22954927  MISS:     0  HIT %:   100  MISS %:     0  AVERAGE MISS PENALTY: 0
ITLB RFO       ACCESS:     0  HIT:     0  MISS:     0  HIT %:     0  MISS %:     0  AVERAGE MISS PENALTY: 0
ITLB PREFETCH  ACCESS:     0  HIT:     0  MISS:     0  HIT %:     0  MISS %:     0  AVERAGE MISS PENALTY: 0
ITLB WRITEBACK ACCESS:     0  HIT:     0  MISS:     0  HIT %:     0  MISS %:     0  AVERAGE MISS PENALTY: 0
ITLB PREFETCH  REQUESTED:     0  ISSUED:     0  USEFUL:     0  USELESS:     0
 USEFUL LOAD PREFETCHES:          0 PREFETCH ISSUED TO LOWER LEVEL:          0  ACCURACY: -nan
 TIMELY PREFETCHES:          0 LATE PREFETCHES: 0 DROPPED PREFETCHES: 0
ITLB AVERAGE MISS LATENCY: -nan cycles
DTLB TOTAL     ACCESS: 63543172  HIT: 63476382  MISS: 66790  HIT %: 99.8949  MISS %: 0.10511  AVERAGE MISS PENALTY: 100.796
DTLB LOAD      ACCESS: 44131692  HIT: 44064928  MISS: 66764  HIT %: 99.8487  MISS %: 0.151284  AVERAGE MISS PENALTY: 100.793
DTLB RFO       ACCESS: 19411480  HIT: 19411454  MISS:    26  HIT %: 99.9999  MISS %: 0.000133941  AVERAGE MISS PENALTY: 109
DTLB PREFETCH  ACCESS:     0  HIT:     0  MISS:     0  HIT %:     0  MISS %:     0  AVERAGE MISS PENALTY: 0
DTLB WRITEBACK ACCESS:     0  HIT:     0  MISS:     0  HIT %:     0  MISS %:     0  AVERAGE MISS PENALTY: 0
DTLB PREFETCH  REQUESTED:     0  ISSUED:     0  USEFUL:     0  USELESS:     0
 USEFUL LOAD PREFETCHES:          0 PREFETCH ISSUED TO LOWER LEVEL:          0  ACCURACY: -nan
 TIMELY PREFETCHES:          0 LATE PREFETCHES: 0 DROPPED PREFETCHES: 0
DTLB AVERAGE MISS LATENCY: 100.796 cycles
STLB TOTAL     ACCESS: 66790  HIT:  5484  MISS: 61306  HIT %: 8.21081  MISS %: 91.7892  AVERAGE MISS PENALTY: 100
STLB LOAD      ACCESS: 66764  HIT:  5484  MISS: 61280  HIT %: 8.21401  MISS %: 91.786  AVERAGE MISS PENALTY: 100
STLB RFO       ACCESS:    26  HIT:     0  MISS:    26  HIT %:     0  MISS %:   100  AVERAGE MISS PENALTY: 100
STLB PREFETCH  ACCESS:     0  HIT:     0  MISS:     0  HIT %:     0  MISS %:     0  AVERAGE MISS PENALTY: 0
STLB WRITEBACK ACCESS:     0  HIT:     0  MISS:     0  HIT %:     0  MISS %:     0  AVERAGE MISS PENALTY: 0
STLB PREFETCH  REQUESTED:     0  ISSUED:     0  USEFUL:     0  USELESS:     0
 USEFUL LOAD PREFETCHES:          0 PREFETCH ISSUED TO LOWER LEVEL:          0  ACCURACY: -nan
 TIMELY PREFETCHES:          0 LATE PREFETCHES: 0 DROPPED PREFETCHES: 0
STLB AVERAGE MISS LATENCY: 100 cycles
L1D TOTAL     ACCESS: 60637665  HIT: 55828209  MISS: 4809456  HIT %: 92.0685  MISS %: 7.93147  AVERAGE MISS PENALTY: 99.0604
L1D LOAD      ACCESS: 41226186  HIT: 36418374  MISS: 4807812  HIT %: 88.338  MISS %: 11.662  AVERAGE MISS PENALTY: 99.0183
L1D RFO       ACCESS: 19411479  HIT: 19409835  MISS:  1644  HIT %: 99.9915  MISS %: 0.00846922  AVERAGE MISS PENALTY: 222.097
L1D PREFETCH  ACCESS:     0  HIT:     0  MISS:     0  HIT %:     0  MISS %:     0  AVERAGE MISS PENALTY: 0
L1D WRITEBACK ACCESS:     0  HIT:     0  MISS:     0  HIT %:     0  MISS %:     0  AVERAGE MISS PENALTY: 0
L1D PREFETCH  REQUESTED:     0  ISSUED:     0  USEFUL:     0  USELESS:     0
 USEFUL LOAD PREFETCHES:          0 PREFETCH ISSUED TO LOWER LEVEL:          0  ACCURACY: -nan
 TIMELY PREFETCHES:          0 LATE PREFETCHES: 0 DROPPED PREFETCHES: 0
L1D AVERAGE MISS LATENCY: 99.0604 cycles
L1I TOTAL     ACCESS: 32564100  HIT: 32564100  MISS:     0  HIT %:   100  MISS %:     0  AVERAGE MISS PENALTY: 0
L1I LOAD      ACCESS: 32564100  HIT: 32564100  MISS:     0  HIT %:   100  MISS %:     0  AVERAGE MISS PENALTY: 0
L1I RFO       ACCESS:     0  HIT:     0  MISS:     0  HIT %:     0  MISS %:     0  AVERAGE MISS PENALTY: 0
L1I PREFETCH  ACCESS:     0  HIT:     0  MISS:     0  HIT %:     0  MISS %:     0  AVERAGE MISS PENALTY: 0
L1I WRITEBACK ACCESS:     0  HIT:     0  MISS:     0  HIT %:     0  MISS %:     0  AVERAGE MISS PENALTY: 0
L1I PREFETCH  REQUESTED:     0  ISSUED:     0  USEFUL:     0  USELESS:     0
 USEFUL LOAD PREFETCHES:          0 PREFETCH ISSUED TO LOWER LEVEL:          0  ACCURACY: -nan
 TIMELY PREFETCHES:          0 LATE PREFETCHES: 0 DROPPED PREFETCHES: 0
L1I AVERAGE MISS LATENCY: -nan cycles
L2C TOTAL     ACCESS: 4822181  HIT: 1262157  MISS: 3560024  HIT %: 26.174  MISS %: 73.826  AVERAGE MISS PENALTY: 113.543
L2C LOAD      ACCESS: 4807812  HIT: 1249432  MISS: 3558380  HIT %: 25.9875  MISS %: 74.0125  AVERAGE MISS PENALTY: 113.5
L2C RFO       ACCESS:  1644  HIT:     0  MISS:  1644  HIT %:     0  MISS %:   100  AVERAGE MISS PENALTY: 207.038
L2C PREFETCH  ACCESS:     0  HIT:     0  MISS:     0  HIT %:     0  MISS %:     0  AVERAGE MISS PENALTY: 0
L2C WRITEBACK ACCESS: 12725  HIT: 12725  MISS:     0  HIT %:   100  MISS %:     0  AVERAGE MISS PENALTY: 0
L2C PREFETCH  REQUESTED:     0  ISSUED:     0  USEFUL:     0  USELESS:     0
 USEFUL LOAD PREFETCHES:          0 PREFETCH ISSUED TO LOWER LEVEL:          0  ACCURACY: -nan
 TIMELY PREFETCHES:          0 LATE PREFETCHES: 0 DROPPED PREFETCHES: 0
L2C AVERAGE MISS LATENCY: 113.543 cycles
LLC0 TOTAL     ACCESS: 3565121  HIT: 10014  MISS: 3555107  HIT %: 0.280888  MISS %: 99.7191  AVERAGE MISS PENALTY: 79.6517
LLC0 LOAD      ACCESS: 3558380  HIT:  4917  MISS: 3553463  HIT %: 0.138181  MISS %: 99.8618  AVERAGE MISS PENALTY: 79.6096
LLC0 RFO       ACCESS:  1644  HIT:     0  MISS:  1644  HIT %:     0  MISS %:   100  AVERAGE MISS PENALTY: 170.533
LLC0 PREFETCH  ACCESS:     0  HIT:     0  MISS:     0  HIT %:     0  MISS %:     0  AVERAGE MISS PENALTY: 0
LLC0 WRITEBACK ACCESS:  5097  HIT:  5097  MISS:     0  HIT %:   100  MISS %:     0  AVERAGE MISS PENALTY: 0
LLC0 PREFETCH  REQUESTED:     0  ISSUED:     0  USEFUL:     0  USELESS:     0
 USEFUL LOAD PREFETCHES:          0 PREFETCH ISSUED TO LOWER LEVEL:          0  ACCURACY: -nan
 TIMELY PREFETCHES:          0 LATE PREFETCHES: 0 DROPPED PREFETCHES: 0
LLC0 AVERAGE MISS LATENCY: 79.6517 cycles
Deadblocks : 3552979 Deadblock percentage : 99.9864

ROI Average ROB Stall Cycles:	13.4657
ROI Total ROB Stalls Cycles:	899454940
ROI TOTAL ROB counter      :	66796032
ROI Average Load ROB Stall Cycles:	70.0949
ROI Total Load ROB Stalls Cycle  :	435633953
ROI Total Load ROB stalls Counter:	6214916
Major fault: 0 Minor fault: 121192
Interconnect Stats 
LINK 0 BW : 0
DRAM Statistics
 CHANNEL 0
 RQ ROW_BUFFER_HIT: 3355039  ROW_BUFFER_MISS: 200068
 DBUS_CONGESTED:  8634
 WQ ROW_BUFFER_HIT:  1382  ROW_BUFFER_MISS:  3690  FULL:     0

 AVG_CONGESTED_CYCLE: 6
DRAM PAGES: 1048576
Allocated PAGES: 121192
L2C destructor called
L1D destructor called
L1I destructor called
STLB destructor called
DTLB destructor called
ITLB destructor called
