
*** ChampSim Multicore Out-of-Order Simulator ***

Warmup Instructions: 200000000
Simulation Instructions: 200000000
Number of CPUs: 1
threads:1

L1I Configuration:
L1I_SET:64
L1I_WAY:8
L1I_RQ_SIZE:64
L1I_WQ_SIZE:64
L1I_PQ_SIZE:8
L1I_MSHR_SIZE:8

L1D Configuration:
L1D_SET:64
L1D_WAY:12
L1D_RQ_SIZE:64
L1D_WQ_SIZE:64
L1D_PQ_SIZE:8
L1D_MSHR_SIZE:16

L2C Configuration:
L2C_SET:1024
L2C_WAY:8
L2C_RQ_SIZE:32
L2C_WQ_SIZE:32
L2C_PQ_SIZE:16
L2C_MSHR_SIZE:32

LLC Configuration:
LLC_SET:2048
LLC_WAY:16
LLC SLICES:1
LLC_RQ_SIZE:64
LLC_WQ_SIZE:64
LLC_PQ_SIZE:32
LLC_MSHR_SIZE:64

Interconnect OFF
Attacker deprioritize is: OFF
Off-chip DRAM Size: 4096 MB Channels: 1 Width: 64-bit Data Rate: 3200 MT/s
PAGE SIZE in KB: 4.000000 
PAGE SIZE in MB: 0.003906 
PAGE offset in bits: 12 
CEASER-S_LLC:0
MIRAGE : 0
CEASER_LATENCY:3
REMAP : OFF
Partitions : 1
Multi-Step : OFF
BFS : OFF

CPU 0 runs /home/anubhav/spec_2017/605.mcf_s-1554B.champsimtrace.xz
CPU 0 Bimodal branch predictor
Initialize SRRIP state
Heartbeat CPU 0 instructions: 10000000 cycles: 6356914 heartbeat IPC: 1.57309 cumulative IPC: 1.57309 (Simulation time: 0 hr 2 min 0 sec) 
 Total Blocks : 32768 Invalid Blocks : 0
Heartbeat CPU 0 instructions: 20000003 cycles: 12626699 heartbeat IPC: 1.59495 cumulative IPC: 1.58395 (Simulation time: 0 hr 4 min 10 sec) 
 Total Blocks : 32768 Invalid Blocks : 0
Heartbeat CPU 0 instructions: 30000001 cycles: 18759576 heartbeat IPC: 1.63056 cumulative IPC: 1.59918 (Simulation time: 0 hr 8 min 0 sec) 
 Total Blocks : 32768 Invalid Blocks : 0
Heartbeat CPU 0 instructions: 40000003 cycles: 24985153 heartbeat IPC: 1.60628 cumulative IPC: 1.60095 (Simulation time: 0 hr 14 min 1 sec) 
 Total Blocks : 32768 Invalid Blocks : 0
Heartbeat CPU 0 instructions: 50000000 cycles: 31231460 heartbeat IPC: 1.60095 cumulative IPC: 1.60095 (Simulation time: 0 hr 20 min 0 sec) 
 Total Blocks : 32768 Invalid Blocks : 0
Heartbeat CPU 0 instructions: 60000000 cycles: 37392605 heartbeat IPC: 1.62307 cumulative IPC: 1.6046 (Simulation time: 0 hr 26 min 4 sec) 
 Total Blocks : 32768 Invalid Blocks : 0
Heartbeat CPU 0 instructions: 70000001 cycles: 43678855 heartbeat IPC: 1.59077 cumulative IPC: 1.60261 (Simulation time: 0 hr 31 min 59 sec) 
 Total Blocks : 32768 Invalid Blocks : 0
Heartbeat CPU 0 instructions: 80000000 cycles: 49993329 heartbeat IPC: 1.58366 cumulative IPC: 1.60021 (Simulation time: 0 hr 37 min 48 sec) 
 Total Blocks : 32768 Invalid Blocks : 0
Heartbeat CPU 0 instructions: 90000002 cycles: 56153878 heartbeat IPC: 1.62323 cumulative IPC: 1.60274 (Simulation time: 0 hr 43 min 52 sec) 
 Total Blocks : 32768 Invalid Blocks : 0
Heartbeat CPU 0 instructions: 100000000 cycles: 62289485 heartbeat IPC: 1.62983 cumulative IPC: 1.60541 (Simulation time: 0 hr 50 min 13 sec) 
 Total Blocks : 32768 Invalid Blocks : 0
Heartbeat CPU 0 instructions: 110000000 cycles: 68414645 heartbeat IPC: 1.63261 cumulative IPC: 1.60784 (Simulation time: 0 hr 56 min 37 sec) 
 Total Blocks : 32768 Invalid Blocks : 0
Heartbeat CPU 0 instructions: 120000000 cycles: 74295912 heartbeat IPC: 1.70031 cumulative IPC: 1.61516 (Simulation time: 1 hr 2 min 52 sec) 
 Total Blocks : 32768 Invalid Blocks : 0
Heartbeat CPU 0 instructions: 130000001 cycles: 80356236 heartbeat IPC: 1.65008 cumulative IPC: 1.6178 (Simulation time: 1 hr 9 min 10 sec) 
 Total Blocks : 32768 Invalid Blocks : 0
Heartbeat CPU 0 instructions: 140000003 cycles: 86340909 heartbeat IPC: 1.67094 cumulative IPC: 1.62148 (Simulation time: 1 hr 15 min 24 sec) 
 Total Blocks : 32768 Invalid Blocks : 0
Heartbeat CPU 0 instructions: 150000001 cycles: 92302728 heartbeat IPC: 1.67734 cumulative IPC: 1.62509 (Simulation time: 1 hr 21 min 22 sec) 
 Total Blocks : 32768 Invalid Blocks : 0
Heartbeat CPU 0 instructions: 160000001 cycles: 98038306 heartbeat IPC: 1.7435 cumulative IPC: 1.63202 (Simulation time: 1 hr 27 min 34 sec) 
 Total Blocks : 32768 Invalid Blocks : 0
Heartbeat CPU 0 instructions: 170000002 cycles: 103728709 heartbeat IPC: 1.75734 cumulative IPC: 1.63889 (Simulation time: 1 hr 33 min 54 sec) 
 Total Blocks : 32768 Invalid Blocks : 0
Heartbeat CPU 0 instructions: 180000002 cycles: 109448446 heartbeat IPC: 1.74833 cumulative IPC: 1.64461 (Simulation time: 1 hr 40 min 3 sec) 
 Total Blocks : 32768 Invalid Blocks : 0
Heartbeat CPU 0 instructions: 190000003 cycles: 115199904 heartbeat IPC: 1.73869 cumulative IPC: 1.64931 (Simulation time: 1 hr 46 min 33 sec) 
 Total Blocks : 32768 Invalid Blocks : 0
Heartbeat CPU 0 instructions: 200000000 cycles: 120823392 heartbeat IPC: 1.77826 cumulative IPC: 1.65531 (Simulation time: 1 hr 52 min 49 sec) 
 Total Blocks : 32768 Invalid Blocks : 0

Warmup complete CPU 0 instructions: 200000004 cycles: 120823393 (Simulation time: 1 hr 52 min 49 sec) 

Heartbeat CPU 0 instructions: 210000000 cycles: 185420338 heartbeat IPC: 0.154806 cumulative IPC: 0.154806 (Simulation time: 2 hr 10 min 59 sec) 
 Total Blocks : 32768 Invalid Blocks : 0
Heartbeat CPU 0 instructions: 220000000 cycles: 250632503 heartbeat IPC: 0.153346 cumulative IPC: 0.154072 (Simulation time: 2 hr 28 min 31 sec) 
 Total Blocks : 32768 Invalid Blocks : 0
Heartbeat CPU 0 instructions: 230000000 cycles: 313219993 heartbeat IPC: 0.159776 cumulative IPC: 0.155928 (Simulation time: 2 hr 47 min 2 sec) 
 Total Blocks : 32768 Invalid Blocks : 0
Heartbeat CPU 0 instructions: 240000001 cycles: 377940783 heartbeat IPC: 0.15451 cumulative IPC: 0.155571 (Simulation time: 3 hr 3 min 46 sec) 
 Total Blocks : 32768 Invalid Blocks : 0
Heartbeat CPU 0 instructions: 250000000 cycles: 444108873 heartbeat IPC: 0.15113 cumulative IPC: 0.154662 (Simulation time: 3 hr 20 min 29 sec) 
 Total Blocks : 32768 Invalid Blocks : 0
Heartbeat CPU 0 instructions: 260000002 cycles: 505967122 heartbeat IPC: 0.16166 cumulative IPC: 0.155786 (Simulation time: 3 hr 36 min 27 sec) 
 Total Blocks : 32768 Invalid Blocks : 0
Heartbeat CPU 0 instructions: 270000002 cycles: 573616510 heartbeat IPC: 0.147821 cumulative IPC: 0.154596 (Simulation time: 3 hr 51 min 10 sec) 
 Total Blocks : 32768 Invalid Blocks : 0
Heartbeat CPU 0 instructions: 280000000 cycles: 640459820 heartbeat IPC: 0.149604 cumulative IPC: 0.153954 (Simulation time: 4 hr 5 min 30 sec) 
 Total Blocks : 32768 Invalid Blocks : 0
Heartbeat CPU 0 instructions: 290000000 cycles: 706910897 heartbeat IPC: 0.150487 cumulative IPC: 0.153561 (Simulation time: 4 hr 19 min 4 sec) 
 Total Blocks : 32768 Invalid Blocks : 0
Heartbeat CPU 0 instructions: 300000002 cycles: 770438933 heartbeat IPC: 0.157411 cumulative IPC: 0.153937 (Simulation time: 4 hr 32 min 2 sec) 
 Total Blocks : 32768 Invalid Blocks : 0
Heartbeat CPU 0 instructions: 310000003 cycles: 836404426 heartbeat IPC: 0.151594 cumulative IPC: 0.153721 (Simulation time: 4 hr 43 min 48 sec) 
 Total Blocks : 32768 Invalid Blocks : 0
Heartbeat CPU 0 instructions: 320000001 cycles: 904458368 heartbeat IPC: 0.146942 cumulative IPC: 0.153133 (Simulation time: 4 hr 55 min 17 sec) 
 Total Blocks : 32768 Invalid Blocks : 0
Heartbeat CPU 0 instructions: 330000000 cycles: 974874404 heartbeat IPC: 0.142013 cumulative IPC: 0.152216 (Simulation time: 5 hr 5 min 11 sec) 
 Total Blocks : 32768 Invalid Blocks : 0
Heartbeat CPU 0 instructions: 340000000 cycles: 1045737210 heartbeat IPC: 0.141118 cumulative IPC: 0.151365 (Simulation time: 5 hr 13 min 42 sec) 
 Total Blocks : 32768 Invalid Blocks : 0
Heartbeat CPU 0 instructions: 350000000 cycles: 1117184953 heartbeat IPC: 0.139962 cumulative IPC: 0.150548 (Simulation time: 5 hr 22 min 41 sec) 
 Total Blocks : 32768 Invalid Blocks : 0
Heartbeat CPU 0 instructions: 360000001 cycles: 1187126202 heartbeat IPC: 0.142977 cumulative IPC: 0.150051 (Simulation time: 5 hr 30 min 45 sec) 
 Total Blocks : 32768 Invalid Blocks : 0
Heartbeat CPU 0 instructions: 370000001 cycles: 1255670193 heartbeat IPC: 0.145892 cumulative IPC: 0.1498 (Simulation time: 5 hr 37 min 42 sec) 
 Total Blocks : 32768 Invalid Blocks : 0
Heartbeat CPU 0 instructions: 380000002 cycles: 1322150028 heartbeat IPC: 0.150422 cumulative IPC: 0.149834 (Simulation time: 5 hr 44 min 55 sec) 
 Total Blocks : 32768 Invalid Blocks : 0
Heartbeat CPU 0 instructions: 390000002 cycles: 1387136268 heartbeat IPC: 0.153879 cumulative IPC: 0.150042 (Simulation time: 5 hr 51 min 30 sec) 
 Total Blocks : 32768 Invalid Blocks : 0
Heartbeat CPU 0 instructions: 400000000 cycles: 1453637273 heartbeat IPC: 0.150374 cumulative IPC: 0.150058 (Simulation time: 5 hr 57 min 41 sec) 
 Total Blocks : 32768 Invalid Blocks : 0
Finished CPU 0 instructions: 200000000 cycles: 1332813881 cumulative IPC: 0.150058 (Simulation time: 5 hr 57 min 41 sec) 

CPU 0 Branch Prediction Accuracy: 98.0544% MPKI: 3.50182 Average ROB Occupancy at Mispredict: 69.4165

ChampSim completed all CPUs

Region of Interest Statistics

CPU 0 cumulative IPC: 0.150058 instructions: 200000000 cycles: 1332813881
ITLB TOTAL     ACCESS: 57096023  HIT: 57096023  MISS:     0  HIT %:   100  MISS %:     0  AVERAGE MISS PENALTY: 0
ITLB LOAD      ACCESS: 57096023  HIT: 57096023  MISS:     0  HIT %:   100  MISS %:     0  AVERAGE MISS PENALTY: 0
ITLB RFO       ACCESS:     0  HIT:     0  MISS:     0  HIT %:     0  MISS %:     0  AVERAGE MISS PENALTY: 0
ITLB PREFETCH  ACCESS:     0  HIT:     0  MISS:     0  HIT %:     0  MISS %:     0  AVERAGE MISS PENALTY: 0
ITLB WRITEBACK ACCESS:     0  HIT:     0  MISS:     0  HIT %:     0  MISS %:     0  AVERAGE MISS PENALTY: 0
ITLB PREFETCH  REQUESTED:     0  ISSUED:     0  USEFUL:     0  USELESS:     0
 USEFUL LOAD PREFETCHES:          0 PREFETCH ISSUED TO LOWER LEVEL:          0  ACCURACY: -nan
 TIMELY PREFETCHES:          0 LATE PREFETCHES: 0 DROPPED PREFETCHES: 0
ITLB AVERAGE MISS LATENCY: -nan cycles
DTLB TOTAL     ACCESS: 69142062  HIT: 68359994  MISS: 782068  HIT %: 98.8689  MISS %: 1.1311  AVERAGE MISS PENALTY: 10.4758
DTLB LOAD      ACCESS: 58446306  HIT: 57671095  MISS: 775211  HIT %: 98.6736  MISS %: 1.32636  AVERAGE MISS PENALTY: 9.7312
DTLB RFO       ACCESS: 10695756  HIT: 10688899  MISS:  6857  HIT %: 99.9359  MISS %: 0.0641095  AVERAGE MISS PENALTY: 94.6535
DTLB PREFETCH  ACCESS:     0  HIT:     0  MISS:     0  HIT %:     0  MISS %:     0  AVERAGE MISS PENALTY: 0
DTLB WRITEBACK ACCESS:     0  HIT:     0  MISS:     0  HIT %:     0  MISS %:     0  AVERAGE MISS PENALTY: 0
DTLB PREFETCH  REQUESTED:     0  ISSUED:     0  USEFUL:     0  USELESS:     0
 USEFUL LOAD PREFETCHES:          0 PREFETCH ISSUED TO LOWER LEVEL:          0  ACCURACY: -nan
 TIMELY PREFETCHES:          0 LATE PREFETCHES: 0 DROPPED PREFETCHES: 0
DTLB AVERAGE MISS LATENCY: 10.4758 cycles
STLB TOTAL     ACCESS: 782068  HIT: 770777  MISS: 11291  HIT %: 98.5563  MISS %: 1.44374  AVERAGE MISS PENALTY: 100
STLB LOAD      ACCESS: 775211  HIT: 769790  MISS:  5421  HIT %: 99.3007  MISS %: 0.699293  AVERAGE MISS PENALTY: 100
STLB RFO       ACCESS:  6857  HIT:   987  MISS:  5870  HIT %: 14.394  MISS %: 85.606  AVERAGE MISS PENALTY: 100
STLB PREFETCH  ACCESS:     0  HIT:     0  MISS:     0  HIT %:     0  MISS %:     0  AVERAGE MISS PENALTY: 0
STLB WRITEBACK ACCESS:     0  HIT:     0  MISS:     0  HIT %:     0  MISS %:     0  AVERAGE MISS PENALTY: 0
STLB PREFETCH  REQUESTED:     0  ISSUED:     0  USEFUL:     0  USELESS:     0
 USEFUL LOAD PREFETCHES:          0 PREFETCH ISSUED TO LOWER LEVEL:          0  ACCURACY: -nan
 TIMELY PREFETCHES:          0 LATE PREFETCHES: 0 DROPPED PREFETCHES: 0
STLB AVERAGE MISS LATENCY: 100 cycles
L1D TOTAL     ACCESS: 77272781  HIT: 46860121  MISS: 30412660  HIT %: 60.6425  MISS %: 39.3575  AVERAGE MISS PENALTY: 145.749
L1D LOAD      ACCESS: 63685357  HIT: 33649315  MISS: 30036042  HIT %: 52.8368  MISS %: 47.1632  AVERAGE MISS PENALTY: 144.865
L1D RFO       ACCESS: 13587424  HIT: 13210806  MISS: 376618  HIT %: 97.2282  MISS %: 2.77181  AVERAGE MISS PENALTY: 216.231
L1D PREFETCH  ACCESS:     0  HIT:     0  MISS:     0  HIT %:     0  MISS %:     0  AVERAGE MISS PENALTY: 0
L1D WRITEBACK ACCESS:     0  HIT:     0  MISS:     0  HIT %:     0  MISS %:     0  AVERAGE MISS PENALTY: 0
L1D PREFETCH  REQUESTED:     0  ISSUED:     0  USEFUL:     0  USELESS:     0
 USEFUL LOAD PREFETCHES:          0 PREFETCH ISSUED TO LOWER LEVEL:          0  ACCURACY: -nan
 TIMELY PREFETCHES:          0 LATE PREFETCHES: 0 DROPPED PREFETCHES: 0
L1D AVERAGE MISS LATENCY: 141.776 cycles
L1I TOTAL     ACCESS: 70218316  HIT: 70218315  MISS:     1  HIT %:   100  MISS %: 1.42413e-06  AVERAGE MISS PENALTY: 219
L1I LOAD      ACCESS: 70218316  HIT: 70218315  MISS:     1  HIT %:   100  MISS %: 1.42413e-06  AVERAGE MISS PENALTY: 219
L1I RFO       ACCESS:     0  HIT:     0  MISS:     0  HIT %:     0  MISS %:     0  AVERAGE MISS PENALTY: 0
L1I PREFETCH  ACCESS:     0  HIT:     0  MISS:     0  HIT %:     0  MISS %:     0  AVERAGE MISS PENALTY: 0
L1I WRITEBACK ACCESS:     0  HIT:     0  MISS:     0  HIT %:     0  MISS %:     0  AVERAGE MISS PENALTY: 0
L1I PREFETCH  REQUESTED:     0  ISSUED:     0  USEFUL:     0  USELESS:     0
 USEFUL LOAD PREFETCHES:          0 PREFETCH ISSUED TO LOWER LEVEL:          0  ACCURACY: -nan
 TIMELY PREFETCHES:          0 LATE PREFETCHES: 0 DROPPED PREFETCHES: 0
L1I AVERAGE MISS LATENCY: 219 cycles
L2C TOTAL     ACCESS: 31013115  HIT: 604625  MISS: 30408490  HIT %: 1.94958  MISS %: 98.0504  AVERAGE MISS PENALTY: 126.725
L2C LOAD      ACCESS: 30036040  HIT:  4458  MISS: 30031582  HIT %: 0.0148422  MISS %: 99.9852  AVERAGE MISS PENALTY: 125.796
L2C RFO       ACCESS: 376618  HIT:   545  MISS: 376073  HIT %: 0.144709  MISS %: 99.8553  AVERAGE MISS PENALTY: 201.157
L2C PREFETCH  ACCESS:     0  HIT:     0  MISS:     0  HIT %:     0  MISS %:     0  AVERAGE MISS PENALTY: 0
L2C WRITEBACK ACCESS: 600457  HIT: 599622  MISS:   835  HIT %: 99.8609  MISS %: 0.139061  AVERAGE MISS PENALTY: 0
L2C PREFETCH  REQUESTED:     0  ISSUED:     0  USEFUL:     0  USELESS:     0
 USEFUL LOAD PREFETCHES:          0 PREFETCH ISSUED TO LOWER LEVEL:          0  ACCURACY: -nan
 TIMELY PREFETCHES:          0 LATE PREFETCHES: 0 DROPPED PREFETCHES: 0
L2C AVERAGE MISS LATENCY: 126.725 cycles
LLC0 TOTAL     ACCESS: 31005608  HIT: 6147753  MISS: 24857855  HIT %: 19.8279  MISS %: 80.1721  AVERAGE MISS PENALTY: 113.419
LLC0 LOAD      ACCESS: 30031582  HIT: 5564632  MISS: 24466950  HIT %: 18.5293  MISS %: 81.4707  AVERAGE MISS PENALTY: 112.664
LLC0 RFO       ACCESS: 376073  HIT:  3019  MISS: 373054  HIT %: 0.80277  MISS %: 99.1972  AVERAGE MISS PENALTY: 168.376
LLC0 PREFETCH  ACCESS:     0  HIT:     0  MISS:     0  HIT %:     0  MISS %:     0  AVERAGE MISS PENALTY: 0
LLC0 WRITEBACK ACCESS: 597953  HIT: 580102  MISS: 17851  HIT %: 97.0146  MISS %: 2.98535  AVERAGE MISS PENALTY: 0
LLC0 PREFETCH  REQUESTED:     0  ISSUED:     0  USEFUL:     0  USELESS:     0
 USEFUL LOAD PREFETCHES:          0 PREFETCH ISSUED TO LOWER LEVEL:          0  ACCURACY: -nan
 TIMELY PREFETCHES:          0 LATE PREFETCHES: 0 DROPPED PREFETCHES: 0
LLC0 AVERAGE MISS LATENCY: 113.419 cycles
Deadblocks : 24410994 Deadblock percentage : 99.7713

ROI Average ROB Stall Cycles:	23.0092
ROI Total ROB Stalls Cycles:	1289917055
ROI TOTAL ROB counter      :	56060873
ROI Average Load ROB Stall Cycles:	76.0542
ROI Total Load ROB Stalls Cycle  :	667838534
ROI Total Load ROB stalls Counter:	8781083
Major fault: 0 Minor fault: 25655
Interconnect Stats 
LINK 0 BW : 0
DRAM Statistics
 CHANNEL 0
 RQ ROW_BUFFER_HIT: 17739134  ROW_BUFFER_MISS: 7100866
 DBUS_CONGESTED: 4873582
 WQ ROW_BUFFER_HIT: 456104  ROW_BUFFER_MISS: 138037  FULL:     0

 AVG_CONGESTED_CYCLE: 5
DRAM PAGES: 1048576
Allocated PAGES: 25655
L2C destructor called
L1D destructor called
L1I destructor called
STLB destructor called
DTLB destructor called
ITLB destructor called
