
*** ChampSim Multicore Out-of-Order Simulator ***

Warmup Instructions: 200000000
Simulation Instructions: 200000000
Number of CPUs: 1
threads:1

L1I Configuration:
L1I_SET:64
L1I_WAY:8
L1I_RQ_SIZE:64
L1I_WQ_SIZE:64
L1I_PQ_SIZE:8
L1I_MSHR_SIZE:8

L1D Configuration:
L1D_SET:64
L1D_WAY:12
L1D_RQ_SIZE:64
L1D_WQ_SIZE:64
L1D_PQ_SIZE:8
L1D_MSHR_SIZE:16

L2C Configuration:
L2C_SET:1024
L2C_WAY:8
L2C_RQ_SIZE:32
L2C_WQ_SIZE:32
L2C_PQ_SIZE:16
L2C_MSHR_SIZE:32

LLC Configuration:
LLC_SET:2048
LLC_WAY:16
LLC SLICES:1
LLC_RQ_SIZE:64
LLC_WQ_SIZE:64
LLC_PQ_SIZE:32
LLC_MSHR_SIZE:64

Interconnect OFF
Attacker deprioritize is: OFF
Off-chip DRAM Size: 4096 MB Channels: 1 Width: 64-bit Data Rate: 3200 MT/s
PAGE SIZE in KB: 4.000000 
PAGE SIZE in MB: 0.003906 
PAGE offset in bits: 12 
CEASER-S_LLC:0
MIRAGE : 0
CEASER_LATENCY:3
REMAP : OFF
Partitions : 1
Multi-Step : OFF
BFS : OFF

CPU 0 runs /home/anubhav/spec_2017/623.xalancbmk_s-202B.champsimtrace.xz
CPU 0 Bimodal branch predictor
Initialize SRRIP state
Heartbeat CPU 0 instructions: 10000000 cycles: 7222618 heartbeat IPC: 1.38454 cumulative IPC: 1.38454 (Simulation time: 0 hr 0 min 58 sec) 
 Total Blocks : 32768 Invalid Blocks : 0
Heartbeat CPU 0 instructions: 20000001 cycles: 14426757 heartbeat IPC: 1.38809 cumulative IPC: 1.38631 (Simulation time: 0 hr 1 min 56 sec) 
 Total Blocks : 32768 Invalid Blocks : 0
Heartbeat CPU 0 instructions: 30000001 cycles: 21619103 heartbeat IPC: 1.39037 cumulative IPC: 1.38766 (Simulation time: 0 hr 2 min 54 sec) 
 Total Blocks : 32768 Invalid Blocks : 0
Heartbeat CPU 0 instructions: 40000001 cycles: 28842356 heartbeat IPC: 1.38442 cumulative IPC: 1.38685 (Simulation time: 0 hr 3 min 57 sec) 
 Total Blocks : 32768 Invalid Blocks : 0
Heartbeat CPU 0 instructions: 50000000 cycles: 36018137 heartbeat IPC: 1.39358 cumulative IPC: 1.38819 (Simulation time: 0 hr 5 min 18 sec) 
 Total Blocks : 32768 Invalid Blocks : 0
Heartbeat CPU 0 instructions: 60000003 cycles: 43207445 heartbeat IPC: 1.39095 cumulative IPC: 1.38865 (Simulation time: 0 hr 6 min 53 sec) 
 Total Blocks : 32768 Invalid Blocks : 0
Heartbeat CPU 0 instructions: 70000003 cycles: 50388376 heartbeat IPC: 1.39258 cumulative IPC: 1.38921 (Simulation time: 0 hr 9 min 34 sec) 
 Total Blocks : 32768 Invalid Blocks : 0
Heartbeat CPU 0 instructions: 80000002 cycles: 57582531 heartbeat IPC: 1.39002 cumulative IPC: 1.38931 (Simulation time: 0 hr 12 min 17 sec) 
 Total Blocks : 32768 Invalid Blocks : 0
Heartbeat CPU 0 instructions: 90000000 cycles: 64790457 heartbeat IPC: 1.38736 cumulative IPC: 1.38909 (Simulation time: 0 hr 14 min 57 sec) 
 Total Blocks : 32768 Invalid Blocks : 0
Heartbeat CPU 0 instructions: 100000003 cycles: 72003952 heartbeat IPC: 1.38629 cumulative IPC: 1.38881 (Simulation time: 0 hr 17 min 32 sec) 
 Total Blocks : 32768 Invalid Blocks : 0
Heartbeat CPU 0 instructions: 110000000 cycles: 79230471 heartbeat IPC: 1.38379 cumulative IPC: 1.38835 (Simulation time: 0 hr 20 min 13 sec) 
 Total Blocks : 32768 Invalid Blocks : 0
Heartbeat CPU 0 instructions: 120000002 cycles: 86425128 heartbeat IPC: 1.38992 cumulative IPC: 1.38849 (Simulation time: 0 hr 22 min 49 sec) 
 Total Blocks : 32768 Invalid Blocks : 0
Heartbeat CPU 0 instructions: 130000002 cycles: 93607252 heartbeat IPC: 1.39235 cumulative IPC: 1.38878 (Simulation time: 0 hr 25 min 36 sec) 
 Total Blocks : 32768 Invalid Blocks : 0
Heartbeat CPU 0 instructions: 140000000 cycles: 100773406 heartbeat IPC: 1.39545 cumulative IPC: 1.38926 (Simulation time: 0 hr 28 min 16 sec) 
 Total Blocks : 32768 Invalid Blocks : 0
Heartbeat CPU 0 instructions: 150000000 cycles: 107958413 heartbeat IPC: 1.39179 cumulative IPC: 1.38942 (Simulation time: 0 hr 30 min 57 sec) 
 Total Blocks : 32768 Invalid Blocks : 0
Heartbeat CPU 0 instructions: 160000002 cycles: 115160956 heartbeat IPC: 1.3884 cumulative IPC: 1.38936 (Simulation time: 0 hr 33 min 42 sec) 
 Total Blocks : 32768 Invalid Blocks : 0
Heartbeat CPU 0 instructions: 170000001 cycles: 122334805 heartbeat IPC: 1.39395 cumulative IPC: 1.38963 (Simulation time: 0 hr 36 min 23 sec) 
 Total Blocks : 32768 Invalid Blocks : 0
Heartbeat CPU 0 instructions: 180000000 cycles: 129505545 heartbeat IPC: 1.39456 cumulative IPC: 1.3899 (Simulation time: 0 hr 39 min 4 sec) 
 Total Blocks : 32768 Invalid Blocks : 0
Heartbeat CPU 0 instructions: 190000001 cycles: 136676800 heartbeat IPC: 1.39446 cumulative IPC: 1.39014 (Simulation time: 0 hr 41 min 43 sec) 
 Total Blocks : 32768 Invalid Blocks : 0
Heartbeat CPU 0 instructions: 200000001 cycles: 143872093 heartbeat IPC: 1.3898 cumulative IPC: 1.39012 (Simulation time: 0 hr 44 min 26 sec) 
 Total Blocks : 32768 Invalid Blocks : 0

Warmup complete CPU 0 instructions: 200000001 cycles: 143872093 (Simulation time: 0 hr 44 min 26 sec) 

Heartbeat CPU 0 instructions: 210000002 cycles: 171336401 heartbeat IPC: 0.364109 cumulative IPC: 0.364109 (Simulation time: 0 hr 50 min 15 sec) 
 Total Blocks : 32768 Invalid Blocks : 0
Heartbeat CPU 0 instructions: 220000000 cycles: 200764554 heartbeat IPC: 0.339811 cumulative IPC: 0.35154 (Simulation time: 0 hr 56 min 34 sec) 
 Total Blocks : 32768 Invalid Blocks : 0
Heartbeat CPU 0 instructions: 230000001 cycles: 228654058 heartbeat IPC: 0.358558 cumulative IPC: 0.353849 (Simulation time: 1 hr 2 min 59 sec) 
 Total Blocks : 32768 Invalid Blocks : 0
Heartbeat CPU 0 instructions: 240000002 cycles: 255886505 heartbeat IPC: 0.367209 cumulative IPC: 0.357097 (Simulation time: 1 hr 9 min 15 sec) 
 Total Blocks : 32768 Invalid Blocks : 0
Heartbeat CPU 0 instructions: 250000000 cycles: 285842136 heartbeat IPC: 0.333827 cumulative IPC: 0.352187 (Simulation time: 1 hr 15 min 55 sec) 
 Total Blocks : 32768 Invalid Blocks : 0
Heartbeat CPU 0 instructions: 260000001 cycles: 313590979 heartbeat IPC: 0.360375 cumulative IPC: 0.353526 (Simulation time: 1 hr 22 min 13 sec) 
 Total Blocks : 32768 Invalid Blocks : 0
Heartbeat CPU 0 instructions: 270000002 cycles: 344360093 heartbeat IPC: 0.325001 cumulative IPC: 0.349148 (Simulation time: 1 hr 28 min 43 sec) 
 Total Blocks : 32768 Invalid Blocks : 0
Heartbeat CPU 0 instructions: 280000001 cycles: 377240318 heartbeat IPC: 0.304134 cumulative IPC: 0.342806 (Simulation time: 1 hr 35 min 10 sec) 
 Total Blocks : 32768 Invalid Blocks : 0
Heartbeat CPU 0 instructions: 290000000 cycles: 405098086 heartbeat IPC: 0.358966 cumulative IPC: 0.344529 (Simulation time: 1 hr 41 min 15 sec) 
 Total Blocks : 32768 Invalid Blocks : 0
Heartbeat CPU 0 instructions: 300000001 cycles: 433941124 heartbeat IPC: 0.346704 cumulative IPC: 0.344746 (Simulation time: 1 hr 47 min 32 sec) 
 Total Blocks : 32768 Invalid Blocks : 0
Heartbeat CPU 0 instructions: 310000003 cycles: 464916526 heartbeat IPC: 0.322837 cumulative IPC: 0.342632 (Simulation time: 1 hr 54 min 2 sec) 
 Total Blocks : 32768 Invalid Blocks : 0
Heartbeat CPU 0 instructions: 320000000 cycles: 495209314 heartbeat IPC: 0.330111 cumulative IPC: 0.341552 (Simulation time: 2 hr 0 min 26 sec) 
 Total Blocks : 32768 Invalid Blocks : 0
Heartbeat CPU 0 instructions: 330000000 cycles: 523691745 heartbeat IPC: 0.351094 cumulative IPC: 0.342268 (Simulation time: 2 hr 6 min 41 sec) 
 Total Blocks : 32768 Invalid Blocks : 0
Heartbeat CPU 0 instructions: 340000002 cycles: 552963104 heartbeat IPC: 0.341631 cumulative IPC: 0.342222 (Simulation time: 2 hr 12 min 31 sec) 
 Total Blocks : 32768 Invalid Blocks : 0
Heartbeat CPU 0 instructions: 350000001 cycles: 580156173 heartbeat IPC: 0.367741 cumulative IPC: 0.343813 (Simulation time: 2 hr 18 min 8 sec) 
 Total Blocks : 32768 Invalid Blocks : 0
Heartbeat CPU 0 instructions: 360000000 cycles: 611047153 heartbeat IPC: 0.323719 cumulative IPC: 0.342484 (Simulation time: 2 hr 24 min 26 sec) 
 Total Blocks : 32768 Invalid Blocks : 0
Heartbeat CPU 0 instructions: 370000001 cycles: 639626645 heartbeat IPC: 0.349901 cumulative IPC: 0.342912 (Simulation time: 2 hr 30 min 26 sec) 
 Total Blocks : 32768 Invalid Blocks : 0
Heartbeat CPU 0 instructions: 380000001 cycles: 672169257 heartbeat IPC: 0.307289 cumulative IPC: 0.340717 (Simulation time: 2 hr 36 min 55 sec) 
 Total Blocks : 32768 Invalid Blocks : 0
Heartbeat CPU 0 instructions: 390000003 cycles: 703414377 heartbeat IPC: 0.32005 cumulative IPC: 0.339563 (Simulation time: 2 hr 43 min 11 sec) 
 Total Blocks : 32768 Invalid Blocks : 0
Heartbeat CPU 0 instructions: 400000002 cycles: 731101753 heartbeat IPC: 0.361175 cumulative IPC: 0.340582 (Simulation time: 2 hr 49 min 0 sec) 
 Total Blocks : 32768 Invalid Blocks : 0
Finished CPU 0 instructions: 200000001 cycles: 587229660 cumulative IPC: 0.340582 (Simulation time: 2 hr 49 min 0 sec) 

CPU 0 Branch Prediction Accuracy: 94.8773% MPKI: 13.2717 Average ROB Occupancy at Mispredict: 72.538

ChampSim completed all CPUs

Region of Interest Statistics

CPU 0 cumulative IPC: 0.340582 instructions: 200000001 cycles: 587229660
ITLB TOTAL     ACCESS: 25672197  HIT: 25672197  MISS:     0  HIT %:   100  MISS %:     0  AVERAGE MISS PENALTY: 0
ITLB LOAD      ACCESS: 25672197  HIT: 25672197  MISS:     0  HIT %:   100  MISS %:     0  AVERAGE MISS PENALTY: 0
ITLB RFO       ACCESS:     0  HIT:     0  MISS:     0  HIT %:     0  MISS %:     0  AVERAGE MISS PENALTY: 0
ITLB PREFETCH  ACCESS:     0  HIT:     0  MISS:     0  HIT %:     0  MISS %:     0  AVERAGE MISS PENALTY: 0
ITLB WRITEBACK ACCESS:     0  HIT:     0  MISS:     0  HIT %:     0  MISS %:     0  AVERAGE MISS PENALTY: 0
ITLB PREFETCH  REQUESTED:     0  ISSUED:     0  USEFUL:     0  USELESS:     0
 USEFUL LOAD PREFETCHES:          0 PREFETCH ISSUED TO LOWER LEVEL:          0  ACCURACY: -nan
 TIMELY PREFETCHES:          0 LATE PREFETCHES: 0 DROPPED PREFETCHES: 0
ITLB AVERAGE MISS LATENCY: -nan cycles
DTLB TOTAL     ACCESS: 51208602  HIT: 51120590  MISS: 88012  HIT %: 99.8281  MISS %: 0.17187  AVERAGE MISS PENALTY: 9.25757
DTLB LOAD      ACCESS: 47668517  HIT: 47580505  MISS: 88012  HIT %: 99.8154  MISS %: 0.184633  AVERAGE MISS PENALTY: 9.25757
DTLB RFO       ACCESS: 3540085  HIT: 3540085  MISS:     0  HIT %:   100  MISS %:     0  AVERAGE MISS PENALTY: 0
DTLB PREFETCH  ACCESS:     0  HIT:     0  MISS:     0  HIT %:     0  MISS %:     0  AVERAGE MISS PENALTY: 0
DTLB WRITEBACK ACCESS:     0  HIT:     0  MISS:     0  HIT %:     0  MISS %:     0  AVERAGE MISS PENALTY: 0
DTLB PREFETCH  REQUESTED:     0  ISSUED:     0  USEFUL:     0  USELESS:     0
 USEFUL LOAD PREFETCHES:          0 PREFETCH ISSUED TO LOWER LEVEL:          0  ACCURACY: -nan
 TIMELY PREFETCHES:          0 LATE PREFETCHES: 0 DROPPED PREFETCHES: 0
DTLB AVERAGE MISS LATENCY: 9.25757 cycles
STLB TOTAL     ACCESS: 88012  HIT: 87827  MISS:   185  HIT %: 99.7898  MISS %: 0.210199  AVERAGE MISS PENALTY: 100
STLB LOAD      ACCESS: 88012  HIT: 87827  MISS:   185  HIT %: 99.7898  MISS %: 0.210199  AVERAGE MISS PENALTY: 100
STLB RFO       ACCESS:     0  HIT:     0  MISS:     0  HIT %:     0  MISS %:     0  AVERAGE MISS PENALTY: 0
STLB PREFETCH  ACCESS:     0  HIT:     0  MISS:     0  HIT %:     0  MISS %:     0  AVERAGE MISS PENALTY: 0
STLB WRITEBACK ACCESS:     0  HIT:     0  MISS:     0  HIT %:     0  MISS %:     0  AVERAGE MISS PENALTY: 0
STLB PREFETCH  REQUESTED:     0  ISSUED:     0  USEFUL:     0  USELESS:     0
 USEFUL LOAD PREFETCHES:          0 PREFETCH ISSUED TO LOWER LEVEL:          0  ACCURACY: -nan
 TIMELY PREFETCHES:          0 LATE PREFETCHES: 0 DROPPED PREFETCHES: 0
STLB AVERAGE MISS LATENCY: 100 cycles
L1D TOTAL     ACCESS: 36121605  HIT: 31096677  MISS: 5024928  HIT %: 86.0889  MISS %: 13.9111  AVERAGE MISS PENALTY: 96.2558
L1D LOAD      ACCESS: 32581376  HIT: 27556448  MISS: 5024928  HIT %: 84.5773  MISS %: 15.4227  AVERAGE MISS PENALTY: 96.2558
L1D RFO       ACCESS: 3540229  HIT: 3540229  MISS:     0  HIT %:   100  MISS %:     0  AVERAGE MISS PENALTY: 0
L1D PREFETCH  ACCESS:     0  HIT:     0  MISS:     0  HIT %:     0  MISS %:     0  AVERAGE MISS PENALTY: 0
L1D WRITEBACK ACCESS:     0  HIT:     0  MISS:     0  HIT %:     0  MISS %:     0  AVERAGE MISS PENALTY: 0
L1D PREFETCH  REQUESTED:     0  ISSUED:     0  USEFUL:     0  USELESS:     0
 USEFUL LOAD PREFETCHES:          0 PREFETCH ISSUED TO LOWER LEVEL:          0  ACCURACY: -nan
 TIMELY PREFETCHES:          0 LATE PREFETCHES: 0 DROPPED PREFETCHES: 0
L1D AVERAGE MISS LATENCY: 96.2557 cycles
L1I TOTAL     ACCESS: 32886780  HIT: 32886780  MISS:     0  HIT %:   100  MISS %:     0  AVERAGE MISS PENALTY: 0
L1I LOAD      ACCESS: 32886780  HIT: 32886780  MISS:     0  HIT %:   100  MISS %:     0  AVERAGE MISS PENALTY: 0
L1I RFO       ACCESS:     0  HIT:     0  MISS:     0  HIT %:     0  MISS %:     0  AVERAGE MISS PENALTY: 0
L1I PREFETCH  ACCESS:     0  HIT:     0  MISS:     0  HIT %:     0  MISS %:     0  AVERAGE MISS PENALTY: 0
L1I WRITEBACK ACCESS:     0  HIT:     0  MISS:     0  HIT %:     0  MISS %:     0  AVERAGE MISS PENALTY: 0
L1I PREFETCH  REQUESTED:     0  ISSUED:     0  USEFUL:     0  USELESS:     0
 USEFUL LOAD PREFETCHES:          0 PREFETCH ISSUED TO LOWER LEVEL:          0  ACCURACY: -nan
 TIMELY PREFETCHES:          0 LATE PREFETCHES: 0 DROPPED PREFETCHES: 0
L1I AVERAGE MISS LATENCY: -nan cycles
L2C TOTAL     ACCESS: 5025071  HIT: 40951  MISS: 4984120  HIT %: 0.814934  MISS %: 99.1851  AVERAGE MISS PENALTY: 81.7962
L2C LOAD      ACCESS: 5024928  HIT: 40808  MISS: 4984120  HIT %: 0.812111  MISS %: 99.1879  AVERAGE MISS PENALTY: 81.7962
L2C RFO       ACCESS:     0  HIT:     0  MISS:     0  HIT %:     0  MISS %:     0  AVERAGE MISS PENALTY: 0
L2C PREFETCH  ACCESS:     0  HIT:     0  MISS:     0  HIT %:     0  MISS %:     0  AVERAGE MISS PENALTY: 0
L2C WRITEBACK ACCESS:   143  HIT:   143  MISS:     0  HIT %:   100  MISS %:     0  AVERAGE MISS PENALTY: 0
L2C PREFETCH  REQUESTED:     0  ISSUED:     0  USEFUL:     0  USELESS:     0
 USEFUL LOAD PREFETCHES:          0 PREFETCH ISSUED TO LOWER LEVEL:          0  ACCURACY: -nan
 TIMELY PREFETCHES:          0 LATE PREFETCHES: 0 DROPPED PREFETCHES: 0
L2C AVERAGE MISS LATENCY: 81.7962 cycles
LLC0 TOTAL     ACCESS: 4984251  HIT: 2100188  MISS: 2884063  HIT %: 42.1365  MISS %: 57.8635  AVERAGE MISS PENALTY: 82.5978
LLC0 LOAD      ACCESS: 4984120  HIT: 2100057  MISS: 2884063  HIT %: 42.135  MISS %: 57.865  AVERAGE MISS PENALTY: 82.5978
LLC0 RFO       ACCESS:     0  HIT:     0  MISS:     0  HIT %:     0  MISS %:     0  AVERAGE MISS PENALTY: 0
LLC0 PREFETCH  ACCESS:     0  HIT:     0  MISS:     0  HIT %:     0  MISS %:     0  AVERAGE MISS PENALTY: 0
LLC0 WRITEBACK ACCESS:   131  HIT:   131  MISS:     0  HIT %:   100  MISS %:     0  AVERAGE MISS PENALTY: 0
LLC0 PREFETCH  REQUESTED:     0  ISSUED:     0  USEFUL:     0  USELESS:     0
 USEFUL LOAD PREFETCHES:          0 PREFETCH ISSUED TO LOWER LEVEL:          0  ACCURACY: -nan
 TIMELY PREFETCHES:          0 LATE PREFETCHES: 0 DROPPED PREFETCHES: 0
LLC0 AVERAGE MISS LATENCY: 82.5978 cycles
Deadblocks : 2538959 Deadblock percentage : 88.0341

ROI Average ROB Stall Cycles:	7.7431
ROI Total ROB Stalls Cycles:	512571785
ROI TOTAL ROB counter      :	66197221
ROI Average Load ROB Stall Cycles:	26.3507
ROI Total Load ROB Stalls Cycle  :	352723204
ROI Total Load ROB stalls Counter:	13385705
Major fault: 0 Minor fault: 1596
Interconnect Stats 
LINK 0 BW : 0
DRAM Statistics
 CHANNEL 0
 RQ ROW_BUFFER_HIT: 2734824  ROW_BUFFER_MISS: 149239
 DBUS_CONGESTED: 880250
 WQ ROW_BUFFER_HIT:     3  ROW_BUFFER_MISS:     3  FULL:     0

 AVG_CONGESTED_CYCLE: 6
DRAM PAGES: 1048576
Allocated PAGES: 1596
L2C destructor called
L1D destructor called
L1I destructor called
STLB destructor called
DTLB destructor called
ITLB destructor called
