
*** ChampSim Multicore Out-of-Order Simulator ***

Warmup Instructions: 200000000
Simulation Instructions: 200000000
Number of CPUs: 1
threads:1

L1I Configuration:
L1I_SET:64
L1I_WAY:8
L1I_RQ_SIZE:64
L1I_WQ_SIZE:64
L1I_PQ_SIZE:8
L1I_MSHR_SIZE:8

L1D Configuration:
L1D_SET:64
L1D_WAY:12
L1D_RQ_SIZE:64
L1D_WQ_SIZE:64
L1D_PQ_SIZE:8
L1D_MSHR_SIZE:16

L2C Configuration:
L2C_SET:1024
L2C_WAY:8
L2C_RQ_SIZE:32
L2C_WQ_SIZE:32
L2C_PQ_SIZE:16
L2C_MSHR_SIZE:32

LLC Configuration:
LLC_SET:2048
LLC_WAY:16
LLC SLICES:1
LLC_RQ_SIZE:64
LLC_WQ_SIZE:64
LLC_PQ_SIZE:32
LLC_MSHR_SIZE:64

Interconnect OFF
Attacker deprioritize is: OFF
Off-chip DRAM Size: 4096 MB Channels: 1 Width: 64-bit Data Rate: 3200 MT/s
PAGE SIZE in KB: 4.000000 
PAGE SIZE in MB: 0.003906 
PAGE offset in bits: 12 
CEASER-S_LLC:0
MIRAGE : 0
CEASER_LATENCY:3
REMAP : OFF
Partitions : 1
Multi-Step : OFF
BFS : OFF

CPU 0 runs /home/anubhav/spec_2017/628.pop2_s-17B.champsimtrace.xz
CPU 0 Bimodal branch predictor
Initialize SRRIP state
Heartbeat CPU 0 instructions: 10000002 cycles: 4461767 heartbeat IPC: 2.24127 cumulative IPC: 2.24127 (Simulation time: 0 hr 1 min 16 sec) 
 Total Blocks : 32768 Invalid Blocks : 91
Heartbeat CPU 0 instructions: 20000003 cycles: 8899401 heartbeat IPC: 2.25345 cumulative IPC: 2.24734 (Simulation time: 0 hr 2 min 32 sec) 
 Total Blocks : 32768 Invalid Blocks : 0
Heartbeat CPU 0 instructions: 30000002 cycles: 13337821 heartbeat IPC: 2.25305 cumulative IPC: 2.24924 (Simulation time: 0 hr 3 min 52 sec) 
 Total Blocks : 32768 Invalid Blocks : 0
Heartbeat CPU 0 instructions: 40000002 cycles: 17776133 heartbeat IPC: 2.25311 cumulative IPC: 2.25021 (Simulation time: 0 hr 5 min 40 sec) 
 Total Blocks : 32768 Invalid Blocks : 0
Heartbeat CPU 0 instructions: 50000001 cycles: 22069242 heartbeat IPC: 2.32931 cumulative IPC: 2.2656 (Simulation time: 0 hr 8 min 28 sec) 
 Total Blocks : 32768 Invalid Blocks : 0
Heartbeat CPU 0 instructions: 60000003 cycles: 26282836 heartbeat IPC: 2.37327 cumulative IPC: 2.28286 (Simulation time: 0 hr 12 min 0 sec) 
 Total Blocks : 32768 Invalid Blocks : 0
Heartbeat CPU 0 instructions: 70000001 cycles: 30388151 heartbeat IPC: 2.43587 cumulative IPC: 2.30353 (Simulation time: 0 hr 15 min 33 sec) 
 Total Blocks : 32768 Invalid Blocks : 0
Heartbeat CPU 0 instructions: 80000003 cycles: 34438520 heartbeat IPC: 2.46891 cumulative IPC: 2.32298 (Simulation time: 0 hr 18 min 53 sec) 
 Total Blocks : 32768 Invalid Blocks : 0
Heartbeat CPU 0 instructions: 90000002 cycles: 39004621 heartbeat IPC: 2.19005 cumulative IPC: 2.30742 (Simulation time: 0 hr 21 min 51 sec) 
 Total Blocks : 32768 Invalid Blocks : 0
Heartbeat CPU 0 instructions: 100000001 cycles: 43339059 heartbeat IPC: 2.3071 cumulative IPC: 2.30739 (Simulation time: 0 hr 25 min 29 sec) 
 Total Blocks : 32768 Invalid Blocks : 0
Heartbeat CPU 0 instructions: 110000000 cycles: 47695578 heartbeat IPC: 2.29541 cumulative IPC: 2.30629 (Simulation time: 0 hr 28 min 46 sec) 
 Total Blocks : 32768 Invalid Blocks : 0
Heartbeat CPU 0 instructions: 120000003 cycles: 52040165 heartbeat IPC: 2.30172 cumulative IPC: 2.30591 (Simulation time: 0 hr 31 min 37 sec) 
 Total Blocks : 32768 Invalid Blocks : 0
Heartbeat CPU 0 instructions: 130000002 cycles: 56857142 heartbeat IPC: 2.07599 cumulative IPC: 2.28643 (Simulation time: 0 hr 34 min 45 sec) 
 Total Blocks : 32768 Invalid Blocks : 0
Heartbeat CPU 0 instructions: 140000002 cycles: 61017929 heartbeat IPC: 2.40339 cumulative IPC: 2.29441 (Simulation time: 0 hr 36 min 42 sec) 
 Total Blocks : 32768 Invalid Blocks : 0
Heartbeat CPU 0 instructions: 150000001 cycles: 65174511 heartbeat IPC: 2.40582 cumulative IPC: 2.30151 (Simulation time: 0 hr 38 min 25 sec) 
 Total Blocks : 32768 Invalid Blocks : 0
Heartbeat CPU 0 instructions: 160000001 cycles: 69501468 heartbeat IPC: 2.31109 cumulative IPC: 2.30211 (Simulation time: 0 hr 40 min 41 sec) 
 Total Blocks : 32768 Invalid Blocks : 0
Heartbeat CPU 0 instructions: 170000003 cycles: 73840923 heartbeat IPC: 2.30444 cumulative IPC: 2.30225 (Simulation time: 0 hr 43 min 19 sec) 
 Total Blocks : 32768 Invalid Blocks : 0
Heartbeat CPU 0 instructions: 180000000 cycles: 78201294 heartbeat IPC: 2.29338 cumulative IPC: 2.30175 (Simulation time: 0 hr 46 min 21 sec) 
 Total Blocks : 32768 Invalid Blocks : 0
Heartbeat CPU 0 instructions: 190000002 cycles: 82598648 heartbeat IPC: 2.2741 cumulative IPC: 2.30028 (Simulation time: 0 hr 49 min 55 sec) 
 Total Blocks : 32768 Invalid Blocks : 0
Heartbeat CPU 0 instructions: 200000002 cycles: 86992581 heartbeat IPC: 2.27587 cumulative IPC: 2.29905 (Simulation time: 0 hr 53 min 31 sec) 
 Total Blocks : 32768 Invalid Blocks : 0

Warmup complete CPU 0 instructions: 200000002 cycles: 86992581 (Simulation time: 0 hr 53 min 31 sec) 

Heartbeat CPU 0 instructions: 210000001 cycles: 97405872 heartbeat IPC: 0.960311 cumulative IPC: 0.960311 (Simulation time: 0 hr 59 min 21 sec) 
 Total Blocks : 32768 Invalid Blocks : 0
Heartbeat CPU 0 instructions: 220000000 cycles: 107799661 heartbeat IPC: 0.962113 cumulative IPC: 0.961211 (Simulation time: 1 hr 5 min 27 sec) 
 Total Blocks : 32768 Invalid Blocks : 0
Heartbeat CPU 0 instructions: 230000000 cycles: 118139041 heartbeat IPC: 0.967176 cumulative IPC: 0.963191 (Simulation time: 1 hr 11 min 19 sec) 
 Total Blocks : 32768 Invalid Blocks : 0
Heartbeat CPU 0 instructions: 240000001 cycles: 128358477 heartbeat IPC: 0.978528 cumulative IPC: 0.96698 (Simulation time: 1 hr 17 min 23 sec) 
 Total Blocks : 32768 Invalid Blocks : 0
Heartbeat CPU 0 instructions: 250000001 cycles: 138225737 heartbeat IPC: 1.01345 cumulative IPC: 0.975931 (Simulation time: 1 hr 23 min 3 sec) 
 Total Blocks : 32768 Invalid Blocks : 0
Heartbeat CPU 0 instructions: 260000003 cycles: 147142771 heartbeat IPC: 1.12145 cumulative IPC: 0.997503 (Simulation time: 1 hr 28 min 17 sec) 
 Total Blocks : 32768 Invalid Blocks : 0
Heartbeat CPU 0 instructions: 270000001 cycles: 158158420 heartbeat IPC: 0.907799 cumulative IPC: 0.983618 (Simulation time: 1 hr 34 min 0 sec) 
 Total Blocks : 32768 Invalid Blocks : 0
Heartbeat CPU 0 instructions: 280000000 cycles: 167757948 heartbeat IPC: 1.04172 cumulative IPC: 0.990524 (Simulation time: 1 hr 39 min 51 sec) 
 Total Blocks : 32768 Invalid Blocks : 0
Heartbeat CPU 0 instructions: 290000002 cycles: 177912651 heartbeat IPC: 0.984766 cumulative IPC: 0.98988 (Simulation time: 1 hr 45 min 37 sec) 
 Total Blocks : 32768 Invalid Blocks : 0
Heartbeat CPU 0 instructions: 300000000 cycles: 188798468 heartbeat IPC: 0.918626 cumulative IPC: 0.982261 (Simulation time: 1 hr 51 min 2 sec) 
 Total Blocks : 32768 Invalid Blocks : 0
Heartbeat CPU 0 instructions: 310000000 cycles: 199766918 heartbeat IPC: 0.911706 cumulative IPC: 0.975399 (Simulation time: 1 hr 56 min 27 sec) 
 Total Blocks : 32768 Invalid Blocks : 0
Heartbeat CPU 0 instructions: 320000002 cycles: 209480597 heartbeat IPC: 1.02948 cumulative IPC: 0.979688 (Simulation time: 2 hr 1 min 17 sec) 
 Total Blocks : 32768 Invalid Blocks : 0
Heartbeat CPU 0 instructions: 330000000 cycles: 219280225 heartbeat IPC: 1.02045 cumulative IPC: 0.982707 (Simulation time: 2 hr 6 min 2 sec) 
 Total Blocks : 32768 Invalid Blocks : 0
Heartbeat CPU 0 instructions: 340000000 cycles: 229765229 heartbeat IPC: 0.953743 cumulative IPC: 0.98058 (Simulation time: 2 hr 11 min 7 sec) 
 Total Blocks : 32768 Invalid Blocks : 0
Heartbeat CPU 0 instructions: 350000000 cycles: 241404022 heartbeat IPC: 0.859196 cumulative IPC: 0.971431 (Simulation time: 2 hr 16 min 33 sec) 
 Total Blocks : 32768 Invalid Blocks : 0
Heartbeat CPU 0 instructions: 360000002 cycles: 253663507 heartbeat IPC: 0.815695 cumulative IPC: 0.959975 (Simulation time: 2 hr 22 min 45 sec) 
 Total Blocks : 32768 Invalid Blocks : 0
Heartbeat CPU 0 instructions: 370000000 cycles: 264481013 heartbeat IPC: 0.924427 cumulative IPC: 0.957809 (Simulation time: 2 hr 28 min 32 sec) 
 Total Blocks : 32768 Invalid Blocks : 0
Heartbeat CPU 0 instructions: 380000002 cycles: 275128038 heartbeat IPC: 0.93923 cumulative IPC: 0.956757 (Simulation time: 2 hr 34 min 11 sec) 
 Total Blocks : 32768 Invalid Blocks : 0
Heartbeat CPU 0 instructions: 390000003 cycles: 285795027 heartbeat IPC: 0.937472 cumulative IPC: 0.955723 (Simulation time: 2 hr 39 min 55 sec) 
 Total Blocks : 32768 Invalid Blocks : 0
Heartbeat CPU 0 instructions: 400000003 cycles: 296505761 heartbeat IPC: 0.933643 cumulative IPC: 0.954594 (Simulation time: 2 hr 45 min 37 sec) 
 Total Blocks : 32768 Invalid Blocks : 0
Finished CPU 0 instructions: 200000001 cycles: 209513180 cumulative IPC: 0.954594 (Simulation time: 2 hr 45 min 37 sec) 

CPU 0 Branch Prediction Accuracy: 96.9943% MPKI: 4.36544 Average ROB Occupancy at Mispredict: 151.272

ChampSim completed all CPUs

Region of Interest Statistics

CPU 0 cumulative IPC: 0.954594 instructions: 200000001 cycles: 209513180
ITLB TOTAL     ACCESS: 28813463  HIT: 28808756  MISS:  4707  HIT %: 99.9837  MISS %: 0.0163361  AVERAGE MISS PENALTY: 12.3875
ITLB LOAD      ACCESS: 28813463  HIT: 28808756  MISS:  4707  HIT %: 99.9837  MISS %: 0.0163361  AVERAGE MISS PENALTY: 12.3875
ITLB RFO       ACCESS:     0  HIT:     0  MISS:     0  HIT %:     0  MISS %:     0  AVERAGE MISS PENALTY: 0
ITLB PREFETCH  ACCESS:     0  HIT:     0  MISS:     0  HIT %:     0  MISS %:     0  AVERAGE MISS PENALTY: 0
ITLB WRITEBACK ACCESS:     0  HIT:     0  MISS:     0  HIT %:     0  MISS %:     0  AVERAGE MISS PENALTY: 0
ITLB PREFETCH  REQUESTED:     0  ISSUED:     0  USEFUL:     0  USELESS:     0
 USEFUL LOAD PREFETCHES:          0 PREFETCH ISSUED TO LOWER LEVEL:          0  ACCURACY: -nan
 TIMELY PREFETCHES:          0 LATE PREFETCHES: 0 DROPPED PREFETCHES: 0
ITLB AVERAGE MISS LATENCY: 12.3875 cycles
DTLB TOTAL     ACCESS: 42141229  HIT: 42043106  MISS: 98123  HIT %: 99.7672  MISS %: 0.232843  AVERAGE MISS PENALTY: 21.8207
DTLB LOAD      ACCESS: 34107849  HIT: 34027125  MISS: 80724  HIT %: 99.7633  MISS %: 0.236673  AVERAGE MISS PENALTY: 20.1049
DTLB RFO       ACCESS: 8033380  HIT: 8015981  MISS: 17399  HIT %: 99.7834  MISS %: 0.216584  AVERAGE MISS PENALTY: 29.7814
DTLB PREFETCH  ACCESS:     0  HIT:     0  MISS:     0  HIT %:     0  MISS %:     0  AVERAGE MISS PENALTY: 0
DTLB WRITEBACK ACCESS:     0  HIT:     0  MISS:     0  HIT %:     0  MISS %:     0  AVERAGE MISS PENALTY: 0
DTLB PREFETCH  REQUESTED:     0  ISSUED:     0  USEFUL:     0  USELESS:     0
 USEFUL LOAD PREFETCHES:          0 PREFETCH ISSUED TO LOWER LEVEL:          0  ACCURACY: -nan
 TIMELY PREFETCHES:          0 LATE PREFETCHES: 0 DROPPED PREFETCHES: 0
DTLB AVERAGE MISS LATENCY: 21.8207 cycles
STLB TOTAL     ACCESS: 102830  HIT: 93247  MISS:  9583  HIT %: 90.6807  MISS %: 9.31926  AVERAGE MISS PENALTY: 100
STLB LOAD      ACCESS: 85431  HIT: 79428  MISS:  6003  HIT %: 92.9733  MISS %: 7.02672  AVERAGE MISS PENALTY: 100
STLB RFO       ACCESS: 17399  HIT: 13819  MISS:  3580  HIT %: 79.4241  MISS %: 20.5759  AVERAGE MISS PENALTY: 100
STLB PREFETCH  ACCESS:     0  HIT:     0  MISS:     0  HIT %:     0  MISS %:     0  AVERAGE MISS PENALTY: 0
STLB WRITEBACK ACCESS:     0  HIT:     0  MISS:     0  HIT %:     0  MISS %:     0  AVERAGE MISS PENALTY: 0
STLB PREFETCH  REQUESTED:     0  ISSUED:     0  USEFUL:     0  USELESS:     0
 USEFUL LOAD PREFETCHES:          0 PREFETCH ISSUED TO LOWER LEVEL:          0  ACCURACY: -nan
 TIMELY PREFETCHES:          0 LATE PREFETCHES: 0 DROPPED PREFETCHES: 0
STLB AVERAGE MISS LATENCY: 100 cycles
L1D TOTAL     ACCESS: 35211719  HIT: 32247860  MISS: 2963859  HIT %: 91.5827  MISS %: 8.41725  AVERAGE MISS PENALTY: 75.0558
L1D LOAD      ACCESS: 24302735  HIT: 22338907  MISS: 1963828  HIT %: 91.9193  MISS %: 8.08069  AVERAGE MISS PENALTY: 64.1768
L1D RFO       ACCESS: 10908984  HIT: 9908953  MISS: 1000031  HIT %: 90.833  MISS %: 9.16704  AVERAGE MISS PENALTY: 96.4197
L1D PREFETCH  ACCESS:     0  HIT:     0  MISS:     0  HIT %:     0  MISS %:     0  AVERAGE MISS PENALTY: 0
L1D WRITEBACK ACCESS:     0  HIT:     0  MISS:     0  HIT %:     0  MISS %:     0  AVERAGE MISS PENALTY: 0
L1D PREFETCH  REQUESTED:     0  ISSUED:     0  USEFUL:     0  USELESS:     0
 USEFUL LOAD PREFETCHES:          0 PREFETCH ISSUED TO LOWER LEVEL:          0  ACCURACY: -nan
 TIMELY PREFETCHES:          0 LATE PREFETCHES: 0 DROPPED PREFETCHES: 0
L1D AVERAGE MISS LATENCY: 75.0558 cycles
L1I TOTAL     ACCESS: 41379805  HIT: 41267159  MISS: 112646  HIT %: 99.7278  MISS %: 0.272225  AVERAGE MISS PENALTY: 51.9651
L1I LOAD      ACCESS: 41379805  HIT: 41267159  MISS: 112646  HIT %: 99.7278  MISS %: 0.272225  AVERAGE MISS PENALTY: 51.9651
L1I RFO       ACCESS:     0  HIT:     0  MISS:     0  HIT %:     0  MISS %:     0  AVERAGE MISS PENALTY: 0
L1I PREFETCH  ACCESS:     0  HIT:     0  MISS:     0  HIT %:     0  MISS %:     0  AVERAGE MISS PENALTY: 0
L1I WRITEBACK ACCESS:     0  HIT:     0  MISS:     0  HIT %:     0  MISS %:     0  AVERAGE MISS PENALTY: 0
L1I PREFETCH  REQUESTED:     0  ISSUED:     0  USEFUL:     0  USELESS:     0
 USEFUL LOAD PREFETCHES:          0 PREFETCH ISSUED TO LOWER LEVEL:          0  ACCURACY: -nan
 TIMELY PREFETCHES:          0 LATE PREFETCHES: 0 DROPPED PREFETCHES: 0
L1I AVERAGE MISS LATENCY: 51.9651 cycles
L2C TOTAL     ACCESS: 4390000  HIT: 3070284  MISS: 1319716  HIT %: 69.9381  MISS %: 30.0619  AVERAGE MISS PENALTY: 137.665
L2C LOAD      ACCESS: 2076399  HIT: 1166185  MISS: 910214  HIT %: 56.1638  MISS %: 43.8362  AVERAGE MISS PENALTY: 110.343
L2C RFO       ACCESS: 999976  HIT: 591475  MISS: 408501  HIT %: 59.1489  MISS %: 40.8511  AVERAGE MISS PENALTY: 198.88
L2C PREFETCH  ACCESS:     0  HIT:     0  MISS:     0  HIT %:     0  MISS %:     0  AVERAGE MISS PENALTY: 0
L2C WRITEBACK ACCESS: 1313625  HIT: 1312624  MISS:  1001  HIT %: 99.9238  MISS %: 0.0762014  AVERAGE MISS PENALTY: 0
L2C PREFETCH  REQUESTED:     0  ISSUED:     0  USEFUL:     0  USELESS:     0
 USEFUL LOAD PREFETCHES:          0 PREFETCH ISSUED TO LOWER LEVEL:          0  ACCURACY: -nan
 TIMELY PREFETCHES:          0 LATE PREFETCHES: 0 DROPPED PREFETCHES: 0
L2C AVERAGE MISS LATENCY: 137.665 cycles
LLC0 TOTAL     ACCESS: 1912023  HIT: 1199142  MISS: 712881  HIT %: 62.7159  MISS %: 37.2841  AVERAGE MISS PENALTY: 191.194
LLC0 LOAD      ACCESS: 910214  HIT: 476373  MISS: 433841  HIT %: 52.3364  MISS %: 47.6636  AVERAGE MISS PENALTY: 159.852
LLC0 RFO       ACCESS: 408496  HIT: 171461  MISS: 237035  HIT %: 41.9737  MISS %: 58.0263  AVERAGE MISS PENALTY: 282.44
LLC0 PREFETCH  ACCESS:     0  HIT:     0  MISS:     0  HIT %:     0  MISS %:     0  AVERAGE MISS PENALTY: 0
LLC0 WRITEBACK ACCESS: 593313  HIT: 551308  MISS: 42005  HIT %: 92.9203  MISS %: 7.07974  AVERAGE MISS PENALTY: 0
LLC0 PREFETCH  REQUESTED:     0  ISSUED:     0  USEFUL:     0  USELESS:     0
 USEFUL LOAD PREFETCHES:          0 PREFETCH ISSUED TO LOWER LEVEL:          0  ACCURACY: -nan
 TIMELY PREFETCHES:          0 LATE PREFETCHES: 0 DROPPED PREFETCHES: 0
LLC0 AVERAGE MISS LATENCY: 191.194 cycles
Deadblocks : 320316 Deadblock percentage : 73.8326

ROI Average ROB Stall Cycles:	4.97267
ROI Total ROB Stalls Cycles:	159970936
ROI TOTAL ROB counter      :	32170044
ROI Average Load ROB Stall Cycles:	17.5352
ROI Total Load ROB Stalls Cycle  :	55219723
ROI Total Load ROB stalls Counter:	3149079
Major fault: 0 Minor fault: 13489
Interconnect Stats 
LINK 0 BW : 0
DRAM Statistics
 CHANNEL 0
 RQ ROW_BUFFER_HIT: 243495  ROW_BUFFER_MISS: 427334
 DBUS_CONGESTED: 328645
 WQ ROW_BUFFER_HIT: 136643  ROW_BUFFER_MISS: 192490  FULL:   893

 AVG_CONGESTED_CYCLE: 6
DRAM PAGES: 1048576
Allocated PAGES: 13489
L2C destructor called
L1D destructor called
L1I destructor called
STLB destructor called
DTLB destructor called
ITLB destructor called
