
*** ChampSim Multicore Out-of-Order Simulator ***

Warmup Instructions: 200000000
Simulation Instructions: 200000000
Number of CPUs: 1
threads:1

L1I Configuration:
L1I_SET:64
L1I_WAY:8
L1I_RQ_SIZE:64
L1I_WQ_SIZE:64
L1I_PQ_SIZE:8
L1I_MSHR_SIZE:8

L1D Configuration:
L1D_SET:64
L1D_WAY:12
L1D_RQ_SIZE:64
L1D_WQ_SIZE:64
L1D_PQ_SIZE:8
L1D_MSHR_SIZE:16

L2C Configuration:
L2C_SET:1024
L2C_WAY:8
L2C_RQ_SIZE:32
L2C_WQ_SIZE:32
L2C_PQ_SIZE:16
L2C_MSHR_SIZE:32

LLC Configuration:
LLC_SET:2048
LLC_WAY:16
LLC SLICES:1
LLC_RQ_SIZE:64
LLC_WQ_SIZE:64
LLC_PQ_SIZE:32
LLC_MSHR_SIZE:64

Interconnect OFF
Attacker deprioritize is: OFF
Off-chip DRAM Size: 4096 MB Channels: 1 Width: 64-bit Data Rate: 3200 MT/s
PAGE SIZE in KB: 4.000000 
PAGE SIZE in MB: 0.003906 
PAGE offset in bits: 12 
CEASER-S_LLC:0
MIRAGE : 0
CEASER_LATENCY:3
REMAP : OFF
Partitions : 1
Multi-Step : OFF
BFS : OFF

CPU 0 runs /home/anubhav/spec_2017/654.roms_s-1070B.champsimtrace.xz
CPU 0 Bimodal branch predictor
Initialize SRRIP state
Heartbeat CPU 0 instructions: 10000001 cycles: 4863718 heartbeat IPC: 2.05604 cumulative IPC: 2.05604 (Simulation time: 0 hr 2 min 7 sec) 
 Total Blocks : 32768 Invalid Blocks : 0
Heartbeat CPU 0 instructions: 20000001 cycles: 9896143 heartbeat IPC: 1.98711 cumulative IPC: 2.02099 (Simulation time: 0 hr 4 min 41 sec) 
 Total Blocks : 32768 Invalid Blocks : 0
Heartbeat CPU 0 instructions: 30000001 cycles: 14771334 heartbeat IPC: 2.0512 cumulative IPC: 2.03096 (Simulation time: 0 hr 9 min 45 sec) 
 Total Blocks : 32768 Invalid Blocks : 0
Heartbeat CPU 0 instructions: 40000000 cycles: 19787082 heartbeat IPC: 1.99372 cumulative IPC: 2.02152 (Simulation time: 0 hr 16 min 13 sec) 
 Total Blocks : 32768 Invalid Blocks : 0
Heartbeat CPU 0 instructions: 50000000 cycles: 24802770 heartbeat IPC: 1.99374 cumulative IPC: 2.0159 (Simulation time: 0 hr 23 min 2 sec) 
 Total Blocks : 32768 Invalid Blocks : 0
Heartbeat CPU 0 instructions: 60000003 cycles: 29673442 heartbeat IPC: 2.05311 cumulative IPC: 2.02201 (Simulation time: 0 hr 29 min 47 sec) 
 Total Blocks : 32768 Invalid Blocks : 0
Heartbeat CPU 0 instructions: 70000001 cycles: 34699037 heartbeat IPC: 1.98981 cumulative IPC: 2.01735 (Simulation time: 0 hr 36 min 38 sec) 
 Total Blocks : 32768 Invalid Blocks : 0
Heartbeat CPU 0 instructions: 80000002 cycles: 39549217 heartbeat IPC: 2.06178 cumulative IPC: 2.0228 (Simulation time: 0 hr 44 min 38 sec) 
 Total Blocks : 32768 Invalid Blocks : 0
Heartbeat CPU 0 instructions: 90000000 cycles: 44587052 heartbeat IPC: 1.98498 cumulative IPC: 2.01852 (Simulation time: 0 hr 51 min 9 sec) 
 Total Blocks : 32768 Invalid Blocks : 0
Heartbeat CPU 0 instructions: 100000000 cycles: 49616289 heartbeat IPC: 1.98837 cumulative IPC: 2.01547 (Simulation time: 0 hr 58 min 22 sec) 
 Total Blocks : 32768 Invalid Blocks : 0
Heartbeat CPU 0 instructions: 110000000 cycles: 54484719 heartbeat IPC: 2.05405 cumulative IPC: 2.01891 (Simulation time: 1 hr 5 min 53 sec) 
 Total Blocks : 32768 Invalid Blocks : 0
Heartbeat CPU 0 instructions: 120000001 cycles: 59519987 heartbeat IPC: 1.98599 cumulative IPC: 2.01613 (Simulation time: 1 hr 13 min 30 sec) 
 Total Blocks : 32768 Invalid Blocks : 0
Heartbeat CPU 0 instructions: 130000001 cycles: 64382842 heartbeat IPC: 2.05641 cumulative IPC: 2.01917 (Simulation time: 1 hr 22 min 16 sec) 
 Total Blocks : 32768 Invalid Blocks : 0
Heartbeat CPU 0 instructions: 140000002 cycles: 69410683 heartbeat IPC: 1.98893 cumulative IPC: 2.01698 (Simulation time: 1 hr 29 min 1 sec) 
 Total Blocks : 32768 Invalid Blocks : 0
Heartbeat CPU 0 instructions: 150000003 cycles: 74387810 heartbeat IPC: 2.00919 cumulative IPC: 2.01646 (Simulation time: 1 hr 37 min 12 sec) 
 Total Blocks : 32768 Invalid Blocks : 0
Heartbeat CPU 0 instructions: 160000001 cycles: 79300672 heartbeat IPC: 2.03547 cumulative IPC: 2.01764 (Simulation time: 1 hr 44 min 54 sec) 
 Total Blocks : 32768 Invalid Blocks : 0
Heartbeat CPU 0 instructions: 170000003 cycles: 84329189 heartbeat IPC: 1.98866 cumulative IPC: 2.01591 (Simulation time: 1 hr 52 min 34 sec) 
 Total Blocks : 32768 Invalid Blocks : 0
Heartbeat CPU 0 instructions: 180000001 cycles: 89186071 heartbeat IPC: 2.05893 cumulative IPC: 2.01825 (Simulation time: 2 hr 2 min 1 sec) 
 Total Blocks : 32768 Invalid Blocks : 0
Heartbeat CPU 0 instructions: 190000000 cycles: 94214249 heartbeat IPC: 1.98879 cumulative IPC: 2.01668 (Simulation time: 2 hr 9 min 21 sec) 
 Total Blocks : 32768 Invalid Blocks : 0
Heartbeat CPU 0 instructions: 200000000 cycles: 99246564 heartbeat IPC: 1.98716 cumulative IPC: 2.01518 (Simulation time: 2 hr 19 min 3 sec) 
 Total Blocks : 32768 Invalid Blocks : 0

Warmup complete CPU 0 instructions: 200000004 cycles: 99246565 (Simulation time: 2 hr 19 min 3 sec) 

Heartbeat CPU 0 instructions: 210000000 cycles: 122154598 heartbeat IPC: 0.436528 cumulative IPC: 0.436528 (Simulation time: 2 hr 32 min 8 sec) 
 Total Blocks : 32768 Invalid Blocks : 0
Heartbeat CPU 0 instructions: 220000000 cycles: 141284958 heartbeat IPC: 0.522729 cumulative IPC: 0.475755 (Simulation time: 2 hr 44 min 47 sec) 
 Total Blocks : 32768 Invalid Blocks : 0
Heartbeat CPU 0 instructions: 230000000 cycles: 162808048 heartbeat IPC: 0.464617 cumulative IPC: 0.471984 (Simulation time: 2 hr 59 min 35 sec) 
 Total Blocks : 32768 Invalid Blocks : 0
Heartbeat CPU 0 instructions: 240000000 cycles: 185375255 heartbeat IPC: 0.443121 cumulative IPC: 0.464421 (Simulation time: 3 hr 11 min 6 sec) 
 Total Blocks : 32768 Invalid Blocks : 0
Heartbeat CPU 0 instructions: 250000000 cycles: 208184965 heartbeat IPC: 0.43841 cumulative IPC: 0.458975 (Simulation time: 3 hr 23 min 40 sec) 
 Total Blocks : 32768 Invalid Blocks : 0
Heartbeat CPU 0 instructions: 260000000 cycles: 233167677 heartbeat IPC: 0.400277 cumulative IPC: 0.448025 (Simulation time: 3 hr 36 min 26 sec) 
 Total Blocks : 32768 Invalid Blocks : 0
Heartbeat CPU 0 instructions: 270000002 cycles: 257843892 heartbeat IPC: 0.405249 cumulative IPC: 0.441369 (Simulation time: 3 hr 47 min 29 sec) 
 Total Blocks : 32768 Invalid Blocks : 0
Heartbeat CPU 0 instructions: 280000000 cycles: 282503042 heartbeat IPC: 0.405529 cumulative IPC: 0.436547 (Simulation time: 4 hr 0 min 39 sec) 
 Total Blocks : 32768 Invalid Blocks : 0
Heartbeat CPU 0 instructions: 290000000 cycles: 303298464 heartbeat IPC: 0.480875 cumulative IPC: 0.441064 (Simulation time: 4 hr 9 min 57 sec) 
 Total Blocks : 32768 Invalid Blocks : 0
Heartbeat CPU 0 instructions: 300000000 cycles: 322483962 heartbeat IPC: 0.521227 cumulative IPC: 0.447954 (Simulation time: 4 hr 19 min 10 sec) 
 Total Blocks : 32768 Invalid Blocks : 0
Heartbeat CPU 0 instructions: 310000001 cycles: 346019132 heartbeat IPC: 0.424896 cumulative IPC: 0.445755 (Simulation time: 4 hr 30 min 7 sec) 
 Total Blocks : 32768 Invalid Blocks : 0
Heartbeat CPU 0 instructions: 320000000 cycles: 364283774 heartbeat IPC: 0.547506 cumulative IPC: 0.452767 (Simulation time: 4 hr 38 min 3 sec) 
 Total Blocks : 32768 Invalid Blocks : 0
Heartbeat CPU 0 instructions: 330000000 cycles: 385492417 heartbeat IPC: 0.471506 cumulative IPC: 0.454155 (Simulation time: 4 hr 48 min 37 sec) 
 Total Blocks : 32768 Invalid Blocks : 0
Heartbeat CPU 0 instructions: 340000001 cycles: 408742968 heartbeat IPC: 0.430097 cumulative IPC: 0.452348 (Simulation time: 4 hr 56 min 11 sec) 
 Total Blocks : 32768 Invalid Blocks : 0
Heartbeat CPU 0 instructions: 350000000 cycles: 432127884 heartbeat IPC: 0.427626 cumulative IPC: 0.450611 (Simulation time: 5 hr 3 min 54 sec) 
 Total Blocks : 32768 Invalid Blocks : 0
Heartbeat CPU 0 instructions: 360000000 cycles: 455951806 heartbeat IPC: 0.419746 cumulative IPC: 0.44855 (Simulation time: 5 hr 12 min 8 sec) 
 Total Blocks : 32768 Invalid Blocks : 0
Heartbeat CPU 0 instructions: 370000000 cycles: 479340706 heartbeat IPC: 0.427553 cumulative IPC: 0.447258 (Simulation time: 5 hr 18 min 27 sec) 
 Total Blocks : 32768 Invalid Blocks : 0
Heartbeat CPU 0 instructions: 380000000 cycles: 504669506 heartbeat IPC: 0.394807 cumulative IPC: 0.443981 (Simulation time: 5 hr 26 min 38 sec) 
 Total Blocks : 32768 Invalid Blocks : 0
Heartbeat CPU 0 instructions: 390000000 cycles: 528645476 heartbeat IPC: 0.417084 cumulative IPC: 0.442479 (Simulation time: 5 hr 31 min 58 sec) 
 Total Blocks : 32768 Invalid Blocks : 0
Heartbeat CPU 0 instructions: 400000001 cycles: 554300005 heartbeat IPC: 0.389795 cumulative IPC: 0.439509 (Simulation time: 5 hr 38 min 8 sec) 
 Total Blocks : 32768 Invalid Blocks : 0
Finished CPU 0 instructions: 200000001 cycles: 455053441 cumulative IPC: 0.439509 (Simulation time: 5 hr 38 min 8 sec) 

CPU 0 Branch Prediction Accuracy: 99.8844% MPKI: 0.060205 Average ROB Occupancy at Mispredict: 346.45

ChampSim completed all CPUs

Region of Interest Statistics

CPU 0 cumulative IPC: 0.439509 instructions: 200000001 cycles: 455053441
ITLB TOTAL     ACCESS: 39674139  HIT: 39674139  MISS:     0  HIT %:   100  MISS %:     0  AVERAGE MISS PENALTY: 0
ITLB LOAD      ACCESS: 39674139  HIT: 39674139  MISS:     0  HIT %:   100  MISS %:     0  AVERAGE MISS PENALTY: 0
ITLB RFO       ACCESS:     0  HIT:     0  MISS:     0  HIT %:     0  MISS %:     0  AVERAGE MISS PENALTY: 0
ITLB PREFETCH  ACCESS:     0  HIT:     0  MISS:     0  HIT %:     0  MISS %:     0  AVERAGE MISS PENALTY: 0
ITLB WRITEBACK ACCESS:     0  HIT:     0  MISS:     0  HIT %:     0  MISS %:     0  AVERAGE MISS PENALTY: 0
ITLB PREFETCH  REQUESTED:     0  ISSUED:     0  USEFUL:     0  USELESS:     0
 USEFUL LOAD PREFETCHES:          0 PREFETCH ISSUED TO LOWER LEVEL:          0  ACCURACY: -nan
 TIMELY PREFETCHES:          0 LATE PREFETCHES: 0 DROPPED PREFETCHES: 0
ITLB AVERAGE MISS LATENCY: -nan cycles
DTLB TOTAL     ACCESS: 59274316  HIT: 59163788  MISS: 110528  HIT %: 99.8135  MISS %: 0.186469  AVERAGE MISS PENALTY: 126.818
DTLB LOAD      ACCESS: 51412948  HIT: 51329128  MISS: 83820  HIT %: 99.837  MISS %: 0.163033  AVERAGE MISS PENALTY: 135.624
DTLB RFO       ACCESS: 7861368  HIT: 7834660  MISS: 26708  HIT %: 99.6603  MISS %: 0.339737  AVERAGE MISS PENALTY: 99.1795
DTLB PREFETCH  ACCESS:     0  HIT:     0  MISS:     0  HIT %:     0  MISS %:     0  AVERAGE MISS PENALTY: 0
DTLB WRITEBACK ACCESS:     0  HIT:     0  MISS:     0  HIT %:     0  MISS %:     0  AVERAGE MISS PENALTY: 0
DTLB PREFETCH  REQUESTED:     0  ISSUED:     0  USEFUL:     0  USELESS:     0
 USEFUL LOAD PREFETCHES:          0 PREFETCH ISSUED TO LOWER LEVEL:          0  ACCURACY: -nan
 TIMELY PREFETCHES:          0 LATE PREFETCHES: 0 DROPPED PREFETCHES: 0
DTLB AVERAGE MISS LATENCY: 126.818 cycles
STLB TOTAL     ACCESS: 110528  HIT: 18577  MISS: 91951  HIT %: 16.8075  MISS %: 83.1925  AVERAGE MISS PENALTY: 100
STLB LOAD      ACCESS: 83820  HIT: 15891  MISS: 67929  HIT %: 18.9585  MISS %: 81.0415  AVERAGE MISS PENALTY: 100
STLB RFO       ACCESS: 26708  HIT:  2686  MISS: 24022  HIT %: 10.0569  MISS %: 89.9431  AVERAGE MISS PENALTY: 100
STLB PREFETCH  ACCESS:     0  HIT:     0  MISS:     0  HIT %:     0  MISS %:     0  AVERAGE MISS PENALTY: 0
STLB WRITEBACK ACCESS:     0  HIT:     0  MISS:     0  HIT %:     0  MISS %:     0  AVERAGE MISS PENALTY: 0
STLB PREFETCH  REQUESTED:     0  ISSUED:     0  USEFUL:     0  USELESS:     0
 USEFUL LOAD PREFETCHES:          0 PREFETCH ISSUED TO LOWER LEVEL:          0  ACCURACY: -nan
 TIMELY PREFETCHES:          0 LATE PREFETCHES: 0 DROPPED PREFETCHES: 0
STLB AVERAGE MISS LATENCY: 100 cycles
L1D TOTAL     ACCESS: 49392444  HIT: 43666745  MISS: 5725699  HIT %: 88.4077  MISS %: 11.5923  AVERAGE MISS PENALTY: 201.099
L1D LOAD      ACCESS: 44702746  HIT: 40259512  MISS: 4443234  HIT %: 90.0605  MISS %: 9.93951  AVERAGE MISS PENALTY: 189.793
L1D RFO       ACCESS: 4689698  HIT: 3407233  MISS: 1282465  HIT %: 72.6536  MISS %: 27.3464  AVERAGE MISS PENALTY: 240.273
L1D PREFETCH  ACCESS:     0  HIT:     0  MISS:     0  HIT %:     0  MISS %:     0  AVERAGE MISS PENALTY: 0
L1D WRITEBACK ACCESS:     0  HIT:     0  MISS:     0  HIT %:     0  MISS %:     0  AVERAGE MISS PENALTY: 0
L1D PREFETCH  REQUESTED:     0  ISSUED:     0  USEFUL:     0  USELESS:     0
 USEFUL LOAD PREFETCHES:          0 PREFETCH ISSUED TO LOWER LEVEL:          0  ACCURACY: -nan
 TIMELY PREFETCHES:          0 LATE PREFETCHES: 0 DROPPED PREFETCHES: 0
L1D AVERAGE MISS LATENCY: 201.099 cycles
L1I TOTAL     ACCESS: 53795900  HIT: 53795878  MISS:    22  HIT %:   100  MISS %: 4.08953e-05  AVERAGE MISS PENALTY: 236.455
L1I LOAD      ACCESS: 53795900  HIT: 53795878  MISS:    22  HIT %:   100  MISS %: 4.08953e-05  AVERAGE MISS PENALTY: 236.455
L1I RFO       ACCESS:     0  HIT:     0  MISS:     0  HIT %:     0  MISS %:     0  AVERAGE MISS PENALTY: 0
L1I PREFETCH  ACCESS:     0  HIT:     0  MISS:     0  HIT %:     0  MISS %:     0  AVERAGE MISS PENALTY: 0
L1I WRITEBACK ACCESS:     0  HIT:     0  MISS:     0  HIT %:     0  MISS %:     0  AVERAGE MISS PENALTY: 0
L1I PREFETCH  REQUESTED:     0  ISSUED:     0  USEFUL:     0  USELESS:     0
 USEFUL LOAD PREFETCHES:          0 PREFETCH ISSUED TO LOWER LEVEL:          0  ACCURACY: -nan
 TIMELY PREFETCHES:          0 LATE PREFETCHES: 0 DROPPED PREFETCHES: 0
L1I AVERAGE MISS LATENCY: 236.455 cycles
L2C TOTAL     ACCESS: 7016550  HIT: 2881776  MISS: 4134774  HIT %: 41.0711  MISS %: 58.9289  AVERAGE MISS PENALTY: 255.737
L2C LOAD      ACCESS: 4443256  HIT: 1590974  MISS: 2852282  HIT %: 35.8065  MISS %: 64.1935  AVERAGE MISS PENALTY: 269.71
L2C RFO       ACCESS: 1282465  HIT:     0  MISS: 1282465  HIT %:     0  MISS %:   100  AVERAGE MISS PENALTY: 224.664
L2C PREFETCH  ACCESS:     0  HIT:     0  MISS:     0  HIT %:     0  MISS %:     0  AVERAGE MISS PENALTY: 0
L2C WRITEBACK ACCESS: 1290829  HIT: 1290802  MISS:    27  HIT %: 99.9979  MISS %: 0.00209168  AVERAGE MISS PENALTY: 0
L2C PREFETCH  REQUESTED:     0  ISSUED:     0  USEFUL:     0  USELESS:     0
 USEFUL LOAD PREFETCHES:          0 PREFETCH ISSUED TO LOWER LEVEL:          0  ACCURACY: -nan
 TIMELY PREFETCHES:          0 LATE PREFETCHES: 0 DROPPED PREFETCHES: 0
L2C AVERAGE MISS LATENCY: 255.737 cycles
LLC0 TOTAL     ACCESS: 5420972  HIT: 1256220  MISS: 4164752  HIT %: 23.1733  MISS %: 76.8267  AVERAGE MISS PENALTY: 219.491
LLC0 LOAD      ACCESS: 2852282  HIT:     0  MISS: 2852282  HIT %:     0  MISS %:   100  AVERAGE MISS PENALTY: 235.293
LLC0 RFO       ACCESS: 1282465  HIT:     0  MISS: 1282465  HIT %:     0  MISS %:   100  AVERAGE MISS PENALTY: 189.48
LLC0 PREFETCH  ACCESS:     0  HIT:     0  MISS:     0  HIT %:     0  MISS %:     0  AVERAGE MISS PENALTY: 0
LLC0 WRITEBACK ACCESS: 1286225  HIT: 1256220  MISS: 30005  HIT %: 97.6672  MISS %: 2.3328  AVERAGE MISS PENALTY: 0
LLC0 PREFETCH  REQUESTED:     0  ISSUED:     0  USEFUL:     0  USELESS:     0
 USEFUL LOAD PREFETCHES:          0 PREFETCH ISSUED TO LOWER LEVEL:          0  ACCURACY: -nan
 TIMELY PREFETCHES:          0 LATE PREFETCHES: 0 DROPPED PREFETCHES: 0
LLC0 AVERAGE MISS LATENCY: 219.491 cycles
Deadblocks : 2852282 Deadblock percentage : 100

ROI Average ROB Stall Cycles:	17.6901
ROI Total ROB Stalls Cycles:	412281422
ROI TOTAL ROB counter      :	23305725
ROI Average Load ROB Stall Cycles:	49.5936
ROI Total Load ROB Stalls Cycle  :	341526352
ROI Total Load ROB stalls Counter:	6886503
Major fault: 0 Minor fault: 78436
Interconnect Stats 
LINK 0 BW : 0
DRAM Statistics
 CHANNEL 0
 RQ ROW_BUFFER_HIT: 646500  ROW_BUFFER_MISS: 3488247
 DBUS_CONGESTED: 1111632
 WQ ROW_BUFFER_HIT: 693895  ROW_BUFFER_MISS: 603581  FULL:     0

 AVG_CONGESTED_CYCLE: 6
DRAM PAGES: 1048576
Allocated PAGES: 78436
L2C destructor called
L1D destructor called
L1I destructor called
STLB destructor called
DTLB destructor called
ITLB destructor called
