
*** ChampSim Multicore Out-of-Order Simulator ***

Warmup Instructions: 200000000
Simulation Instructions: 200000000
Number of CPUs: 1
threads:1

L1I Configuration:
L1I_SET:64
L1I_WAY:8
L1I_RQ_SIZE:64
L1I_WQ_SIZE:64
L1I_PQ_SIZE:8
L1I_MSHR_SIZE:8

L1D Configuration:
L1D_SET:64
L1D_WAY:12
L1D_RQ_SIZE:64
L1D_WQ_SIZE:64
L1D_PQ_SIZE:8
L1D_MSHR_SIZE:16

L2C Configuration:
L2C_SET:1024
L2C_WAY:8
L2C_RQ_SIZE:32
L2C_WQ_SIZE:32
L2C_PQ_SIZE:16
L2C_MSHR_SIZE:32

LLC Configuration:
LLC_SET:4096
LLC_WAY:16
LLC SLICES:8
LLC_RQ_SIZE:64
LLC_WQ_SIZE:64
LLC_PQ_SIZE:32
LLC_MSHR_SIZE:64

Interconnect OFF
Attacker deprioritize is: OFF
Off-chip DRAM Size: 4096 MB Channels: 1 Width: 64-bit Data Rate: 3200 MT/s
PAGE SIZE in KB: 4.000000 
PAGE SIZE in MB: 0.003906 
PAGE offset in bits: 12 
CEASER-S_LLC:0
MIRAGE : 0
CEASER_LATENCY:3
REMAP : OFF
Partitions : 1
Multi-Step : OFF
BFS : OFF

CPU 0 runs /home/anubhav/gap/bc-3.trace.gz
CPU 0 Bimodal branch predictor
Initialize Hawkeye state
Initialize Hawkeye state
Initialize Hawkeye state
Initialize Hawkeye state
Initialize Hawkeye state
Initialize Hawkeye state
Initialize Hawkeye state
Initialize Hawkeye state
Heartbeat CPU 0 instructions: 10000001 cycles: 7839458 heartbeat IPC: 1.2756 cumulative IPC: 1.2756 (Simulation time: 0 hr 3 min 20 sec) 
 Total Blocks : 524288 Invalid Blocks : 299185
Heartbeat CPU 0 instructions: 20000000 cycles: 19628342 heartbeat IPC: 0.848257 cumulative IPC: 1.01893 (Simulation time: 0 hr 6 min 33 sec) 
 Total Blocks : 524288 Invalid Blocks : 276618
Heartbeat CPU 0 instructions: 30000001 cycles: 29917412 heartbeat IPC: 0.971905 cumulative IPC: 1.00276 (Simulation time: 0 hr 9 min 54 sec) 
 Total Blocks : 524288 Invalid Blocks : 264490
Heartbeat CPU 0 instructions: 40000003 cycles: 39768133 heartbeat IPC: 1.01515 cumulative IPC: 1.00583 (Simulation time: 0 hr 13 min 20 sec) 
 Total Blocks : 524288 Invalid Blocks : 255947
Heartbeat CPU 0 instructions: 50000000 cycles: 49577990 heartbeat IPC: 1.01938 cumulative IPC: 1.00851 (Simulation time: 0 hr 16 min 41 sec) 
 Total Blocks : 524288 Invalid Blocks : 248941
Heartbeat CPU 0 instructions: 60000000 cycles: 59369263 heartbeat IPC: 1.02132 cumulative IPC: 1.01062 (Simulation time: 0 hr 20 min 11 sec) 
 Total Blocks : 524288 Invalid Blocks : 243431
Heartbeat CPU 0 instructions: 70000002 cycles: 69071595 heartbeat IPC: 1.03068 cumulative IPC: 1.01344 (Simulation time: 0 hr 23 min 42 sec) 
 Total Blocks : 524288 Invalid Blocks : 238393
Heartbeat CPU 0 instructions: 80000003 cycles: 78712571 heartbeat IPC: 1.03724 cumulative IPC: 1.01636 (Simulation time: 0 hr 27 min 20 sec) 
 Total Blocks : 524288 Invalid Blocks : 233777
Heartbeat CPU 0 instructions: 90000000 cycles: 88296535 heartbeat IPC: 1.04341 cumulative IPC: 1.01929 (Simulation time: 0 hr 30 min 54 sec) 
 Total Blocks : 524288 Invalid Blocks : 229600
Heartbeat CPU 0 instructions: 100000002 cycles: 97779587 heartbeat IPC: 1.05451 cumulative IPC: 1.02271 (Simulation time: 0 hr 34 min 17 sec) 
 Total Blocks : 524288 Invalid Blocks : 225863
Heartbeat CPU 0 instructions: 110000000 cycles: 107287674 heartbeat IPC: 1.05174 cumulative IPC: 1.02528 (Simulation time: 0 hr 37 min 43 sec) 
 Total Blocks : 524288 Invalid Blocks : 222285
Heartbeat CPU 0 instructions: 120000000 cycles: 116626179 heartbeat IPC: 1.07084 cumulative IPC: 1.02893 (Simulation time: 0 hr 41 min 15 sec) 
 Total Blocks : 524288 Invalid Blocks : 219024
Heartbeat CPU 0 instructions: 130000001 cycles: 126090552 heartbeat IPC: 1.05659 cumulative IPC: 1.03101 (Simulation time: 0 hr 44 min 38 sec) 
 Total Blocks : 524288 Invalid Blocks : 216106
Heartbeat CPU 0 instructions: 140000000 cycles: 135484953 heartbeat IPC: 1.06446 cumulative IPC: 1.03333 (Simulation time: 0 hr 48 min 5 sec) 
 Total Blocks : 524288 Invalid Blocks : 213209
Heartbeat CPU 0 instructions: 150000000 cycles: 144874988 heartbeat IPC: 1.06496 cumulative IPC: 1.03538 (Simulation time: 0 hr 51 min 46 sec) 
 Total Blocks : 524288 Invalid Blocks : 210658
Heartbeat CPU 0 instructions: 160000000 cycles: 154045584 heartbeat IPC: 1.09044 cumulative IPC: 1.03865 (Simulation time: 0 hr 55 min 48 sec) 
 Total Blocks : 524288 Invalid Blocks : 206865
Heartbeat CPU 0 instructions: 170000000 cycles: 163075072 heartbeat IPC: 1.10748 cumulative IPC: 1.04246 (Simulation time: 0 hr 59 min 55 sec) 
 Total Blocks : 524288 Invalid Blocks : 202618
Heartbeat CPU 0 instructions: 180000003 cycles: 171926745 heartbeat IPC: 1.12973 cumulative IPC: 1.04696 (Simulation time: 1 hr 3 min 27 sec) 
 Total Blocks : 524288 Invalid Blocks : 197001
Heartbeat CPU 0 instructions: 190000002 cycles: 180724740 heartbeat IPC: 1.13662 cumulative IPC: 1.05132 (Simulation time: 1 hr 6 min 48 sec) 
 Total Blocks : 524288 Invalid Blocks : 191061
Heartbeat CPU 0 instructions: 200000002 cycles: 189486956 heartbeat IPC: 1.14126 cumulative IPC: 1.05548 (Simulation time: 1 hr 10 min 8 sec) 
 Total Blocks : 524288 Invalid Blocks : 186341

Warmup complete CPU 0 instructions: 200000002 cycles: 189486956 (Simulation time: 1 hr 10 min 8 sec) 

Heartbeat CPU 0 instructions: 210000002 cycles: 228215710 heartbeat IPC: 0.258206 cumulative IPC: 0.258206 (Simulation time: 1 hr 18 min 14 sec) 
 Total Blocks : 524288 Invalid Blocks : 179958
Heartbeat CPU 0 instructions: 220000000 cycles: 267010548 heartbeat IPC: 0.257766 cumulative IPC: 0.257986 (Simulation time: 1 hr 26 min 7 sec) 
 Total Blocks : 524288 Invalid Blocks : 174816
Heartbeat CPU 0 instructions: 230000000 cycles: 305723976 heartbeat IPC: 0.258308 cumulative IPC: 0.258093 (Simulation time: 1 hr 33 min 42 sec) 
 Total Blocks : 524288 Invalid Blocks : 169361
Heartbeat CPU 0 instructions: 240000001 cycles: 344336077 heartbeat IPC: 0.258986 cumulative IPC: 0.258316 (Simulation time: 1 hr 41 min 13 sec) 
 Total Blocks : 524288 Invalid Blocks : 164144
Heartbeat CPU 0 instructions: 250000001 cycles: 383119829 heartbeat IPC: 0.25784 cumulative IPC: 0.258221 (Simulation time: 1 hr 48 min 35 sec) 
 Total Blocks : 524288 Invalid Blocks : 160088
Heartbeat CPU 0 instructions: 260000000 cycles: 421821597 heartbeat IPC: 0.258386 cumulative IPC: 0.258248 (Simulation time: 1 hr 56 min 7 sec) 
 Total Blocks : 524288 Invalid Blocks : 155503
Heartbeat CPU 0 instructions: 270000001 cycles: 460583626 heartbeat IPC: 0.257984 cumulative IPC: 0.25821 (Simulation time: 2 hr 3 min 25 sec) 
 Total Blocks : 524288 Invalid Blocks : 151683
Heartbeat CPU 0 instructions: 280000001 cycles: 499300741 heartbeat IPC: 0.258284 cumulative IPC: 0.25822 (Simulation time: 2 hr 10 min 15 sec) 
 Total Blocks : 524288 Invalid Blocks : 147754
Heartbeat CPU 0 instructions: 290000000 cycles: 537887179 heartbeat IPC: 0.259158 cumulative IPC: 0.258324 (Simulation time: 2 hr 17 min 16 sec) 
 Total Blocks : 524288 Invalid Blocks : 144849
Heartbeat CPU 0 instructions: 300000000 cycles: 576614630 heartbeat IPC: 0.258215 cumulative IPC: 0.258313 (Simulation time: 2 hr 24 min 10 sec) 
 Total Blocks : 524288 Invalid Blocks : 141821
Heartbeat CPU 0 instructions: 310000002 cycles: 615271449 heartbeat IPC: 0.258687 cumulative IPC: 0.258347 (Simulation time: 2 hr 30 min 38 sec) 
 Total Blocks : 524288 Invalid Blocks : 139403
Heartbeat CPU 0 instructions: 320000000 cycles: 653991061 heartbeat IPC: 0.258267 cumulative IPC: 0.25834 (Simulation time: 2 hr 35 min 23 sec) 
 Total Blocks : 524288 Invalid Blocks : 136888
Heartbeat CPU 0 instructions: 330000000 cycles: 696218629 heartbeat IPC: 0.236812 cumulative IPC: 0.256546 (Simulation time: 2 hr 39 min 20 sec) 
 Total Blocks : 524288 Invalid Blocks : 131553
Heartbeat CPU 0 instructions: 340000002 cycles: 740971708 heartbeat IPC: 0.223448 cumulative IPC: 0.25386 (Simulation time: 2 hr 43 min 20 sec) 
 Total Blocks : 524288 Invalid Blocks : 125307
Heartbeat CPU 0 instructions: 350000001 cycles: 785994897 heartbeat IPC: 0.222108 cumulative IPC: 0.251464 (Simulation time: 2 hr 47 min 3 sec) 
 Total Blocks : 524288 Invalid Blocks : 118968
Heartbeat CPU 0 instructions: 360000000 cycles: 824519301 heartbeat IPC: 0.259576 cumulative IPC: 0.251956 (Simulation time: 2 hr 49 min 21 sec) 
 Total Blocks : 524288 Invalid Blocks : 112007
Heartbeat CPU 0 instructions: 370000000 cycles: 848083717 heartbeat IPC: 0.424369 cumulative IPC: 0.258125 (Simulation time: 2 hr 51 min 18 sec) 
 Total Blocks : 524288 Invalid Blocks : 104894
Heartbeat CPU 0 instructions: 380000000 cycles: 873495004 heartbeat IPC: 0.393526 cumulative IPC: 0.263155 (Simulation time: 2 hr 53 min 16 sec) 
 Total Blocks : 524288 Invalid Blocks : 97752
Heartbeat CPU 0 instructions: 390000001 cycles: 904684319 heartbeat IPC: 0.320623 cumulative IPC: 0.265661 (Simulation time: 2 hr 55 min 22 sec) 
 Total Blocks : 524288 Invalid Blocks : 90467
Heartbeat CPU 0 instructions: 400000001 cycles: 941820571 heartbeat IPC: 0.269279 cumulative IPC: 0.26584 (Simulation time: 2 hr 57 min 35 sec) 
 Total Blocks : 524288 Invalid Blocks : 82462
Finished CPU 0 instructions: 200000003 cycles: 752333617 cumulative IPC: 0.26584 (Simulation time: 2 hr 57 min 35 sec) 

CPU 0 Branch Prediction Accuracy: 93.7169% MPKI: 14.5239 Average ROB Occupancy at Mispredict: 63.8774

ChampSim completed all CPUs

Region of Interest Statistics

CPU 0 cumulative IPC: 0.26584 instructions: 200000003 cycles: 752333617
ITLB TOTAL     ACCESS: 29368302  HIT: 29368302  MISS:     0  HIT %:   100  MISS %:     0  AVERAGE MISS PENALTY: 0
ITLB LOAD      ACCESS: 29368302  HIT: 29368302  MISS:     0  HIT %:   100  MISS %:     0  AVERAGE MISS PENALTY: 0
ITLB RFO       ACCESS:     0  HIT:     0  MISS:     0  HIT %:     0  MISS %:     0  AVERAGE MISS PENALTY: 0
ITLB PREFETCH  ACCESS:     0  HIT:     0  MISS:     0  HIT %:     0  MISS %:     0  AVERAGE MISS PENALTY: 0
ITLB WRITEBACK ACCESS:     0  HIT:     0  MISS:     0  HIT %:     0  MISS %:     0  AVERAGE MISS PENALTY: 0
ITLB PREFETCH  REQUESTED:     0  ISSUED:     0  USEFUL:     0  USELESS:     0
 USEFUL LOAD PREFETCHES:          0 PREFETCH ISSUED TO LOWER LEVEL:          0  ACCURACY: -nan
 TIMELY PREFETCHES:          0 LATE PREFETCHES: 0 DROPPED PREFETCHES: 0
ITLB AVERAGE MISS LATENCY: -nan cycles
DTLB TOTAL     ACCESS: 42253850  HIT: 27312201  MISS: 14941649  HIT %: 64.6384  MISS %: 35.3616  AVERAGE MISS PENALTY: 32.6268
DTLB LOAD      ACCESS: 37500355  HIT: 24688560  MISS: 12811795  HIT %: 65.8355  MISS %: 34.1645  AVERAGE MISS PENALTY: 26.7562
DTLB RFO       ACCESS: 4753495  HIT: 2623641  MISS: 2129854  HIT %: 55.1939  MISS %: 44.8061  AVERAGE MISS PENALTY: 67.9402
DTLB PREFETCH  ACCESS:     0  HIT:     0  MISS:     0  HIT %:     0  MISS %:     0  AVERAGE MISS PENALTY: 0
DTLB WRITEBACK ACCESS:     0  HIT:     0  MISS:     0  HIT %:     0  MISS %:     0  AVERAGE MISS PENALTY: 0
DTLB PREFETCH  REQUESTED:     0  ISSUED:     0  USEFUL:     0  USELESS:     0
 USEFUL LOAD PREFETCHES:          0 PREFETCH ISSUED TO LOWER LEVEL:          0  ACCURACY: -nan
 TIMELY PREFETCHES:          0 LATE PREFETCHES: 0 DROPPED PREFETCHES: 0
DTLB AVERAGE MISS LATENCY: 32.6268 cycles
STLB TOTAL     ACCESS: 14941649  HIT: 13115080  MISS: 1826569  HIT %: 87.7753  MISS %: 12.2247  AVERAGE MISS PENALTY: 100
STLB LOAD      ACCESS: 12811795  HIT: 12059881  MISS: 751914  HIT %: 94.1311  MISS %: 5.86892  AVERAGE MISS PENALTY: 100
STLB RFO       ACCESS: 2129854  HIT: 1055199  MISS: 1074655  HIT %: 49.5433  MISS %: 50.4567  AVERAGE MISS PENALTY: 100
STLB PREFETCH  ACCESS:     0  HIT:     0  MISS:     0  HIT %:     0  MISS %:     0  AVERAGE MISS PENALTY: 0
STLB WRITEBACK ACCESS:     0  HIT:     0  MISS:     0  HIT %:     0  MISS %:     0  AVERAGE MISS PENALTY: 0
STLB PREFETCH  REQUESTED:     0  ISSUED:     0  USEFUL:     0  USELESS:     0
 USEFUL LOAD PREFETCHES:          0 PREFETCH ISSUED TO LOWER LEVEL:          0  ACCURACY: -nan
 TIMELY PREFETCHES:          0 LATE PREFETCHES: 0 DROPPED PREFETCHES: 0
STLB AVERAGE MISS LATENCY: 100 cycles
L1D TOTAL     ACCESS: 89112978  HIT: 27809711  MISS: 61303267  HIT %: 31.2073  MISS %: 68.7927  AVERAGE MISS PENALTY: 206808
L1D LOAD      ACCESS: 38080814  HIT: 20404197  MISS: 17676617  HIT %: 53.5813  MISS %: 46.4187  AVERAGE MISS PENALTY: 717098
L1D RFO       ACCESS: 4848169  HIT: 4809048  MISS: 39121  HIT %: 99.1931  MISS %: 0.806923  AVERAGE MISS PENALTY: 54.4132
L1D PREFETCH  ACCESS: 46183995  HIT: 2596466  MISS: 43587529  HIT %: 5.622  MISS %: 94.378  AVERAGE MISS PENALTY: 49.0125
L1D WRITEBACK ACCESS:     0  HIT:     0  MISS:     0  HIT %:     0  MISS %:     0  AVERAGE MISS PENALTY: 0
L1D PREFETCH  REQUESTED: 88174255  ISSUED: 46477017  USEFUL: 928748  USELESS: 42658829
 USEFUL LOAD PREFETCHES:     928748 PREFETCH ISSUED TO LOWER LEVEL:  156865643  ACCURACY: 0.592066
 TIMELY PREFETCHES:     928748 LATE PREFETCHES: 97828 DROPPED PREFETCHES: 41697238
L1D AVERAGE MISS LATENCY: 50.8447 cycles
L1I TOTAL     ACCESS: 45067516  HIT: 45067516  MISS:     0  HIT %:   100  MISS %:     0  AVERAGE MISS PENALTY: 0
L1I LOAD      ACCESS: 45067516  HIT: 45067516  MISS:     0  HIT %:   100  MISS %:     0  AVERAGE MISS PENALTY: 0
L1I RFO       ACCESS:     0  HIT:     0  MISS:     0  HIT %:     0  MISS %:     0  AVERAGE MISS PENALTY: 0
L1I PREFETCH  ACCESS:     0  HIT:     0  MISS:     0  HIT %:     0  MISS %:     0  AVERAGE MISS PENALTY: 0
L1I WRITEBACK ACCESS:     0  HIT:     0  MISS:     0  HIT %:     0  MISS %:     0  AVERAGE MISS PENALTY: 0
L1I PREFETCH  REQUESTED:     0  ISSUED:     0  USEFUL:     0  USELESS:     0
 USEFUL LOAD PREFETCHES:          0 PREFETCH ISSUED TO LOWER LEVEL:          0  ACCURACY: -nan
 TIMELY PREFETCHES:          0 LATE PREFETCHES: 0 DROPPED PREFETCHES: 0
L1I AVERAGE MISS LATENCY: -nan cycles
L2C TOTAL     ACCESS: 115198033  HIT: 21885602  MISS: 93312431  HIT %: 18.9982  MISS %: 81.0018  AVERAGE MISS PENALTY: 74520.4
L2C LOAD      ACCESS: 17675670  HIT: 2464182  MISS: 15211488  HIT %: 13.9411  MISS %: 86.0589  AVERAGE MISS PENALTY: 456924
L2C RFO       ACCESS: 39106  HIT: 27485  MISS: 11621  HIT %: 70.2833  MISS %: 29.7167  AVERAGE MISS PENALTY: 127.826
L2C PREFETCH  ACCESS: 95024949  HIT: 16940359  MISS: 78084590  HIT %: 17.8273  MISS %: 82.1727  AVERAGE MISS PENALTY: 40.8818
L2C WRITEBACK ACCESS: 2458308  HIT: 2453576  MISS:  4732  HIT %: 99.8075  MISS %: 0.19249  AVERAGE MISS PENALTY: 0
L2C PREFETCH  REQUESTED: 199097319  ISSUED: 176598178  USEFUL: 1165422  USELESS: 76919458
 USEFUL LOAD PREFETCHES:    1165422 PREFETCH ISSUED TO LOWER LEVEL:   82253796  ACCURACY: 1.41686
 TIMELY PREFETCHES:    1165422 LATE PREFETCHES: 277162 DROPPED PREFETCHES: 22499141
L2C AVERAGE MISS LATENCY: 38.8748 cycles
LLC0 TOTAL     ACCESS: 12319191  HIT: 12036029  MISS: 283162  HIT %: 97.7015  MISS %: 2.29854  AVERAGE MISS PENALTY: 145.973
LLC0 LOAD      ACCESS: 1932393  HIT: 1855386  MISS: 77007  HIT %: 96.0149  MISS %: 3.98506  AVERAGE MISS PENALTY: 161.35
LLC0 RFO       ACCESS:  1450  HIT:   724  MISS:   726  HIT %: 49.931  MISS %: 50.069  AVERAGE MISS PENALTY: 192.618
LLC0 PREFETCH  ACCESS: 10086077  HIT: 9880708  MISS: 205369  HIT %: 97.9638  MISS %: 2.03616  AVERAGE MISS PENALTY: 140.085
LLC0 WRITEBACK ACCESS: 299271  HIT: 299211  MISS:    60  HIT %: 99.98  MISS %: 0.0200487  AVERAGE MISS PENALTY: 0
LLC0 PREFETCH  REQUESTED:     0  ISSUED:     0  USEFUL: 10504  USELESS: 184210
 USEFUL LOAD PREFETCHES:      10504 PREFETCH ISSUED TO LOWER LEVEL:     205369  ACCURACY: 5.1147
 TIMELY PREFETCHES:      10504 LATE PREFETCHES: 0 DROPPED PREFETCHES: 0
LLC0 AVERAGE MISS LATENCY: 145.973 cycles
Deadblocks : 68750 Deadblock percentage : 89.2776

LLC1 TOTAL     ACCESS: 12261673  HIT: 11978473  MISS: 283200  HIT %: 97.6904  MISS %: 2.30964  AVERAGE MISS PENALTY: 145.459
LLC1 LOAD      ACCESS: 1896022  HIT: 1834652  MISS: 61370  HIT %: 96.7632  MISS %: 3.23678  AVERAGE MISS PENALTY: 162.752
LLC1 RFO       ACCESS:  1465  HIT:   747  MISS:   718  HIT %: 50.9898  MISS %: 49.0102  AVERAGE MISS PENALTY: 182.408
LLC1 PREFETCH  ACCESS: 10062302  HIT: 9841240  MISS: 221062  HIT %: 97.8031  MISS %: 2.19693  AVERAGE MISS PENALTY: 140.571
LLC1 WRITEBACK ACCESS: 301884  HIT: 301834  MISS:    50  HIT %: 99.9834  MISS %: 0.0165627  AVERAGE MISS PENALTY: 0
LLC1 PREFETCH  REQUESTED:     0  ISSUED:     0  USEFUL: 11068  USELESS: 199048
 USEFUL LOAD PREFETCHES:      11068 PREFETCH ISSUED TO LOWER LEVEL:     221062  ACCURACY: 5.00674
 TIMELY PREFETCHES:      11068 LATE PREFETCHES: 0 DROPPED PREFETCHES: 0
LLC1 AVERAGE MISS LATENCY: 145.459 cycles
LLC2 TOTAL     ACCESS: 12199023  HIT: 11914999  MISS: 284024  HIT %: 97.6717  MISS %: 2.32825  AVERAGE MISS PENALTY: 145.004
LLC2 LOAD      ACCESS: 1892918  HIT: 1833229  MISS: 59689  HIT %: 96.8467  MISS %: 3.15328  AVERAGE MISS PENALTY: 162.407
LLC2 RFO       ACCESS:  1456  HIT:   763  MISS:   693  HIT %: 52.4038  MISS %: 47.5962  AVERAGE MISS PENALTY: 172.237
LLC2 PREFETCH  ACCESS: 10004980  HIT: 9781386  MISS: 223594  HIT %: 97.7652  MISS %: 2.23483  AVERAGE MISS PENALTY: 140.305
LLC2 WRITEBACK ACCESS: 299669  HIT: 299621  MISS:    48  HIT %: 99.984  MISS %: 0.0160177  AVERAGE MISS PENALTY: 0
LLC2 PREFETCH  REQUESTED:     0  ISSUED:     0  USEFUL: 11849  USELESS: 201030
 USEFUL LOAD PREFETCHES:      11849 PREFETCH ISSUED TO LOWER LEVEL:     223594  ACCURACY: 5.29934
 TIMELY PREFETCHES:      11849 LATE PREFETCHES: 0 DROPPED PREFETCHES: 0
LLC2 AVERAGE MISS LATENCY: 145.004 cycles
LLC3 TOTAL     ACCESS: 12115918  HIT: 11832961  MISS: 282957  HIT %: 97.6646  MISS %: 2.33542  AVERAGE MISS PENALTY: 144.789
LLC3 LOAD      ACCESS: 1907369  HIT: 1849313  MISS: 58056  HIT %: 96.9562  MISS %: 3.04377  AVERAGE MISS PENALTY: 162.145
LLC3 RFO       ACCESS:  1459  HIT:   745  MISS:   714  HIT %: 51.0624  MISS %: 48.9376  AVERAGE MISS PENALTY: 178.403
LLC3 PREFETCH  ACCESS: 9908343  HIT: 9684217  MISS: 224126  HIT %: 97.738  MISS %: 2.26199  AVERAGE MISS PENALTY: 140.226
LLC3 WRITEBACK ACCESS: 298747  HIT: 298686  MISS:    61  HIT %: 99.9796  MISS %: 0.0204186  AVERAGE MISS PENALTY: 0
LLC3 PREFETCH  REQUESTED:     0  ISSUED:     0  USEFUL: 12041  USELESS: 201503
 USEFUL LOAD PREFETCHES:      12041 PREFETCH ISSUED TO LOWER LEVEL:     224126  ACCURACY: 5.37242
 TIMELY PREFETCHES:      12041 LATE PREFETCHES: 0 DROPPED PREFETCHES: 0
LLC3 AVERAGE MISS LATENCY: 144.789 cycles
LLC4 TOTAL     ACCESS: 11980500  HIT: 11697843  MISS: 282657  HIT %: 97.6407  MISS %: 2.35931  AVERAGE MISS PENALTY: 143.809
LLC4 LOAD      ACCESS: 1895586  HIT: 1839629  MISS: 55957  HIT %: 97.048  MISS %: 2.95196  AVERAGE MISS PENALTY: 161.634
LLC4 RFO       ACCESS:  1447  HIT:   739  MISS:   708  HIT %: 51.0712  MISS %: 48.9288  AVERAGE MISS PENALTY: 187.264
LLC4 PREFETCH  ACCESS: 9783302  HIT: 9557379  MISS: 225923  HIT %: 97.6907  MISS %: 2.30927  AVERAGE MISS PENALTY: 139.302
LLC4 WRITEBACK ACCESS: 300165  HIT: 300096  MISS:    69  HIT %: 99.977  MISS %: 0.0229874  AVERAGE MISS PENALTY: 0
LLC4 PREFETCH  REQUESTED:     0  ISSUED:     0  USEFUL: 14304  USELESS: 200509
 USEFUL LOAD PREFETCHES:      14304 PREFETCH ISSUED TO LOWER LEVEL:     225923  ACCURACY: 6.33136
 TIMELY PREFETCHES:      14304 LATE PREFETCHES: 0 DROPPED PREFETCHES: 0
LLC4 AVERAGE MISS LATENCY: 143.809 cycles
LLC5 TOTAL     ACCESS: 11826479  HIT: 11546611  MISS: 279868  HIT %: 97.6335  MISS %: 2.36645  AVERAGE MISS PENALTY: 142.665
LLC5 LOAD      ACCESS: 1888965  HIT: 1837477  MISS: 51488  HIT %: 97.2743  MISS %: 2.72573  AVERAGE MISS PENALTY: 160.437
LLC5 RFO       ACCESS:  1464  HIT:   760  MISS:   704  HIT %: 51.9126  MISS %: 48.0874  AVERAGE MISS PENALTY: 170.219
LLC5 PREFETCH  ACCESS: 9633540  HIT: 9405926  MISS: 227614  HIT %: 97.6373  MISS %: 2.36272  AVERAGE MISS PENALTY: 138.598
LLC5 WRITEBACK ACCESS: 302510  HIT: 302448  MISS:    62  HIT %: 99.9795  MISS %: 0.0204952  AVERAGE MISS PENALTY: 0
LLC5 PREFETCH  REQUESTED:     0  ISSUED:     0  USEFUL: 15416  USELESS: 201822
 USEFUL LOAD PREFETCHES:      15416 PREFETCH ISSUED TO LOWER LEVEL:     227614  ACCURACY: 6.77287
 TIMELY PREFETCHES:      15416 LATE PREFETCHES: 0 DROPPED PREFETCHES: 0
LLC5 AVERAGE MISS LATENCY: 142.665 cycles
LLC6 TOTAL     ACCESS: 11636580  HIT: 11347244  MISS: 289336  HIT %: 97.5136  MISS %: 2.48644  AVERAGE MISS PENALTY: 146.461
LLC6 LOAD      ACCESS: 1913625  HIT: 1856663  MISS: 56962  HIT %: 97.0233  MISS %: 2.97665  AVERAGE MISS PENALTY: 162.734
LLC6 RFO       ACCESS:  1431  HIT:   717  MISS:   714  HIT %: 50.1048  MISS %: 49.8952  AVERAGE MISS PENALTY: 178.357
LLC6 PREFETCH  ACCESS: 9414288  HIT: 9182696  MISS: 231592  HIT %: 97.54  MISS %: 2.46001  AVERAGE MISS PENALTY: 142.403
LLC6 WRITEBACK ACCESS: 307236  HIT: 307168  MISS:    68  HIT %: 99.9779  MISS %: 0.0221328  AVERAGE MISS PENALTY: 0
LLC6 PREFETCH  REQUESTED:     0  ISSUED:     0  USEFUL: 16963  USELESS: 204418
 USEFUL LOAD PREFETCHES:      16963 PREFETCH ISSUED TO LOWER LEVEL:     231592  ACCURACY: 7.32452
 TIMELY PREFETCHES:      16963 LATE PREFETCHES: 0 DROPPED PREFETCHES: 0
LLC6 AVERAGE MISS LATENCY: 146.461 cycles
LLC7 TOTAL     ACCESS: 11378299  HIT: 11086902  MISS: 291397  HIT %: 97.439  MISS %: 2.56099  AVERAGE MISS PENALTY: 147.447
LLC7 LOAD      ACCESS: 1880639  HIT: 1822440  MISS: 58199  HIT %: 96.9054  MISS %: 3.09464  AVERAGE MISS PENALTY: 162.938
LLC7 RFO       ACCESS:  1449  HIT:   720  MISS:   729  HIT %: 49.6894  MISS %: 50.3106  AVERAGE MISS PENALTY: 178.626
LLC7 PREFETCH  ACCESS: 9195730  HIT: 8963351  MISS: 232379  HIT %: 97.473  MISS %: 2.52703  AVERAGE MISS PENALTY: 143.527
LLC7 WRITEBACK ACCESS: 300481  HIT: 300391  MISS:    90  HIT %: 99.97  MISS %: 0.029952  AVERAGE MISS PENALTY: 0
LLC7 PREFETCH  REQUESTED:     0  ISSUED:     0  USEFUL: 18340  USELESS: 204007
 USEFUL LOAD PREFETCHES:      18340 PREFETCH ISSUED TO LOWER LEVEL:     232379  ACCURACY: 7.89228
 TIMELY PREFETCHES:      18340 LATE PREFETCHES: 0 DROPPED PREFETCHES: 0
LLC7 AVERAGE MISS LATENCY: 147.447 cycles
ROI Average ROB Stall Cycles:	11.1122
ROI Total ROB Stalls Cycles:	677740347
ROI TOTAL ROB counter      :	60990787
ROI Average Load ROB Stall Cycles:	67.6988
ROI Total Load ROB Stalls Cycle  :	349069246
ROI Total Load ROB stalls Counter:	5156211
Major fault: 0 Minor fault: 37418

