
*** ChampSim Multicore Out-of-Order Simulator ***

Warmup Instructions: 200000000
Simulation Instructions: 200000000
Number of CPUs: 1
threads:1

L1I Configuration:
L1I_SET:64
L1I_WAY:8
L1I_RQ_SIZE:64
L1I_WQ_SIZE:64
L1I_PQ_SIZE:8
L1I_MSHR_SIZE:8

L1D Configuration:
L1D_SET:64
L1D_WAY:12
L1D_RQ_SIZE:64
L1D_WQ_SIZE:64
L1D_PQ_SIZE:8
L1D_MSHR_SIZE:16

L2C Configuration:
L2C_SET:1024
L2C_WAY:8
L2C_RQ_SIZE:32
L2C_WQ_SIZE:32
L2C_PQ_SIZE:16
L2C_MSHR_SIZE:32

LLC Configuration:
LLC_SET:4096
LLC_WAY:16
LLC SLICES:8
LLC_RQ_SIZE:64
LLC_WQ_SIZE:64
LLC_PQ_SIZE:32
LLC_MSHR_SIZE:64

Interconnect OFF
Attacker deprioritize is: OFF
Off-chip DRAM Size: 4096 MB Channels: 1 Width: 64-bit Data Rate: 3200 MT/s
PAGE SIZE in KB: 4.000000 
PAGE SIZE in MB: 0.003906 
PAGE offset in bits: 12 
CEASER-S_LLC:0
MIRAGE : 0
CEASER_LATENCY:3
REMAP : OFF
Partitions : 1
Multi-Step : OFF
BFS : OFF

CPU 0 runs /home/anubhav/gap/cc-6.trace.gz
CPU 0 Bimodal branch predictor
Initialize Hawkeye state
Initialize Hawkeye state
Initialize Hawkeye state
Initialize Hawkeye state
Initialize Hawkeye state
Initialize Hawkeye state
Initialize Hawkeye state
Initialize Hawkeye state
Heartbeat CPU 0 instructions: 10000002 cycles: 12029405 heartbeat IPC: 0.831297 cumulative IPC: 0.831297 (Simulation time: 0 hr 2 min 53 sec) 
 Total Blocks : 524288 Invalid Blocks : 422873
Heartbeat CPU 0 instructions: 20000002 cycles: 25079874 heartbeat IPC: 0.766256 cumulative IPC: 0.797452 (Simulation time: 0 hr 5 min 50 sec) 
 Total Blocks : 524288 Invalid Blocks : 396604
Heartbeat CPU 0 instructions: 30000001 cycles: 37700373 heartbeat IPC: 0.792362 cumulative IPC: 0.795748 (Simulation time: 0 hr 8 min 51 sec) 
 Total Blocks : 524288 Invalid Blocks : 381710
Heartbeat CPU 0 instructions: 40000000 cycles: 49647196 heartbeat IPC: 0.837043 cumulative IPC: 0.805685 (Simulation time: 0 hr 11 min 48 sec) 
 Total Blocks : 524288 Invalid Blocks : 370558
Heartbeat CPU 0 instructions: 50000000 cycles: 61534722 heartbeat IPC: 0.841218 cumulative IPC: 0.812549 (Simulation time: 0 hr 14 min 58 sec) 
 Total Blocks : 524288 Invalid Blocks : 360518
Heartbeat CPU 0 instructions: 60000000 cycles: 73007937 heartbeat IPC: 0.871595 cumulative IPC: 0.821828 (Simulation time: 0 hr 17 min 46 sec) 
 Total Blocks : 524288 Invalid Blocks : 352988
Heartbeat CPU 0 instructions: 70000002 cycles: 85057622 heartbeat IPC: 0.829897 cumulative IPC: 0.822972 (Simulation time: 0 hr 20 min 33 sec) 
 Total Blocks : 524288 Invalid Blocks : 347932
Heartbeat CPU 0 instructions: 80000002 cycles: 97217746 heartbeat IPC: 0.82236 cumulative IPC: 0.822895 (Simulation time: 0 hr 24 min 5 sec) 
 Total Blocks : 524288 Invalid Blocks : 345572
Heartbeat CPU 0 instructions: 90000002 cycles: 108883506 heartbeat IPC: 0.85721 cumulative IPC: 0.826571 (Simulation time: 0 hr 27 min 46 sec) 
 Total Blocks : 524288 Invalid Blocks : 343647
Heartbeat CPU 0 instructions: 100000001 cycles: 120476901 heartbeat IPC: 0.86256 cumulative IPC: 0.830035 (Simulation time: 0 hr 31 min 32 sec) 
 Total Blocks : 524288 Invalid Blocks : 342767
Heartbeat CPU 0 instructions: 110000000 cycles: 132009130 heartbeat IPC: 0.867135 cumulative IPC: 0.833276 (Simulation time: 0 hr 35 min 11 sec) 
 Total Blocks : 524288 Invalid Blocks : 341948
Heartbeat CPU 0 instructions: 120000000 cycles: 143985975 heartbeat IPC: 0.834944 cumulative IPC: 0.833414 (Simulation time: 0 hr 39 min 0 sec) 
 Total Blocks : 524288 Invalid Blocks : 341023
Heartbeat CPU 0 instructions: 130000000 cycles: 156259723 heartbeat IPC: 0.814747 cumulative IPC: 0.831948 (Simulation time: 0 hr 42 min 48 sec) 
 Total Blocks : 524288 Invalid Blocks : 340195
Heartbeat CPU 0 instructions: 140000001 cycles: 168507756 heartbeat IPC: 0.816458 cumulative IPC: 0.830822 (Simulation time: 0 hr 46 min 40 sec) 
 Total Blocks : 524288 Invalid Blocks : 339379
Heartbeat CPU 0 instructions: 150000002 cycles: 180010135 heartbeat IPC: 0.869385 cumulative IPC: 0.833286 (Simulation time: 0 hr 50 min 30 sec) 
 Total Blocks : 524288 Invalid Blocks : 338533
Heartbeat CPU 0 instructions: 160000000 cycles: 192089791 heartbeat IPC: 0.827838 cumulative IPC: 0.832944 (Simulation time: 0 hr 54 min 21 sec) 
 Total Blocks : 524288 Invalid Blocks : 337682
Heartbeat CPU 0 instructions: 170000001 cycles: 203342647 heartbeat IPC: 0.888663 cumulative IPC: 0.836027 (Simulation time: 0 hr 58 min 33 sec) 
 Total Blocks : 524288 Invalid Blocks : 336918
Heartbeat CPU 0 instructions: 180000002 cycles: 215286381 heartbeat IPC: 0.837259 cumulative IPC: 0.836096 (Simulation time: 1 hr 2 min 43 sec) 
 Total Blocks : 524288 Invalid Blocks : 336012
Heartbeat CPU 0 instructions: 190000002 cycles: 227394846 heartbeat IPC: 0.825868 cumulative IPC: 0.835551 (Simulation time: 1 hr 6 min 31 sec) 
 Total Blocks : 524288 Invalid Blocks : 335305
Heartbeat CPU 0 instructions: 200000000 cycles: 239097168 heartbeat IPC: 0.854531 cumulative IPC: 0.83648 (Simulation time: 1 hr 10 min 16 sec) 
 Total Blocks : 524288 Invalid Blocks : 334381

Warmup complete CPU 0 instructions: 200000004 cycles: 239097169 (Simulation time: 1 hr 10 min 16 sec) 

Heartbeat CPU 0 instructions: 210000001 cycles: 278094765 heartbeat IPC: 0.256426 cumulative IPC: 0.256426 (Simulation time: 1 hr 18 min 37 sec) 
 Total Blocks : 524288 Invalid Blocks : 333239
Heartbeat CPU 0 instructions: 220000000 cycles: 317459881 heartbeat IPC: 0.254032 cumulative IPC: 0.255223 (Simulation time: 1 hr 27 min 10 sec) 
 Total Blocks : 524288 Invalid Blocks : 332024
Heartbeat CPU 0 instructions: 230000000 cycles: 356807850 heartbeat IPC: 0.254143 cumulative IPC: 0.254862 (Simulation time: 1 hr 35 min 18 sec) 
 Total Blocks : 524288 Invalid Blocks : 330842
Heartbeat CPU 0 instructions: 240000000 cycles: 396394243 heartbeat IPC: 0.252612 cumulative IPC: 0.254296 (Simulation time: 1 hr 43 min 10 sec) 
 Total Blocks : 524288 Invalid Blocks : 329689
Heartbeat CPU 0 instructions: 250000003 cycles: 436132171 heartbeat IPC: 0.251649 cumulative IPC: 0.253762 (Simulation time: 1 hr 51 min 2 sec) 
 Total Blocks : 524288 Invalid Blocks : 328491
Heartbeat CPU 0 instructions: 260000000 cycles: 476708036 heartbeat IPC: 0.246452 cumulative IPC: 0.252514 (Simulation time: 1 hr 58 min 50 sec) 
 Total Blocks : 524288 Invalid Blocks : 327447
Heartbeat CPU 0 instructions: 270000001 cycles: 516618871 heartbeat IPC: 0.250559 cumulative IPC: 0.252233 (Simulation time: 2 hr 6 min 35 sec) 
 Total Blocks : 524288 Invalid Blocks : 326304
Heartbeat CPU 0 instructions: 280000000 cycles: 555420632 heartbeat IPC: 0.25772 cumulative IPC: 0.252906 (Simulation time: 2 hr 14 min 20 sec) 
 Total Blocks : 524288 Invalid Blocks : 325264
Heartbeat CPU 0 instructions: 290000002 cycles: 593011305 heartbeat IPC: 0.266023 cumulative IPC: 0.254299 (Simulation time: 2 hr 21 min 54 sec) 
 Total Blocks : 524288 Invalid Blocks : 324076
Heartbeat CPU 0 instructions: 300000002 cycles: 632185909 heartbeat IPC: 0.255267 cumulative IPC: 0.254395 (Simulation time: 2 hr 28 min 57 sec) 
 Total Blocks : 524288 Invalid Blocks : 322969
Heartbeat CPU 0 instructions: 310000000 cycles: 671061186 heartbeat IPC: 0.257233 cumulative IPC: 0.254651 (Simulation time: 2 hr 35 min 32 sec) 
 Total Blocks : 524288 Invalid Blocks : 321876
Heartbeat CPU 0 instructions: 320000000 cycles: 710818759 heartbeat IPC: 0.251524 cumulative IPC: 0.254387 (Simulation time: 2 hr 41 min 15 sec) 
 Total Blocks : 524288 Invalid Blocks : 320770
Heartbeat CPU 0 instructions: 330000000 cycles: 750892450 heartbeat IPC: 0.24954 cumulative IPC: 0.254008 (Simulation time: 2 hr 46 min 55 sec) 
 Total Blocks : 524288 Invalid Blocks : 319811
Heartbeat CPU 0 instructions: 340000000 cycles: 790224496 heartbeat IPC: 0.254246 cumulative IPC: 0.254025 (Simulation time: 2 hr 52 min 21 sec) 
 Total Blocks : 524288 Invalid Blocks : 318793
Heartbeat CPU 0 instructions: 350000000 cycles: 830111364 heartbeat IPC: 0.250709 cumulative IPC: 0.253801 (Simulation time: 2 hr 56 min 56 sec) 
 Total Blocks : 524288 Invalid Blocks : 317674
Heartbeat CPU 0 instructions: 360000000 cycles: 869071710 heartbeat IPC: 0.256671 cumulative IPC: 0.253979 (Simulation time: 3 hr 0 min 37 sec) 
 Total Blocks : 524288 Invalid Blocks : 316593
Heartbeat CPU 0 instructions: 370000000 cycles: 907726803 heartbeat IPC: 0.258698 cumulative IPC: 0.254251 (Simulation time: 3 hr 3 min 50 sec) 
 Total Blocks : 524288 Invalid Blocks : 315579
Heartbeat CPU 0 instructions: 380000002 cycles: 947110473 heartbeat IPC: 0.253912 cumulative IPC: 0.254232 (Simulation time: 3 hr 7 min 8 sec) 
 Total Blocks : 524288 Invalid Blocks : 314535
Heartbeat CPU 0 instructions: 390000001 cycles: 986991653 heartbeat IPC: 0.250745 cumulative IPC: 0.254047 (Simulation time: 3 hr 10 min 12 sec) 
 Total Blocks : 524288 Invalid Blocks : 313525
Heartbeat CPU 0 instructions: 400000002 cycles: 1026049001 heartbeat IPC: 0.256034 cumulative IPC: 0.254145 (Simulation time: 3 hr 13 min 13 sec) 
 Total Blocks : 524288 Invalid Blocks : 312610
Finished CPU 0 instructions: 200000001 cycles: 786951833 cumulative IPC: 0.254145 (Simulation time: 3 hr 13 min 13 sec) 

CPU 0 Branch Prediction Accuracy: 86.6516% MPKI: 28.072 Average ROB Occupancy at Mispredict: 29.4791

ChampSim completed all CPUs

Region of Interest Statistics

CPU 0 cumulative IPC: 0.254145 instructions: 200000001 cycles: 786951833
ITLB TOTAL     ACCESS: 29847003  HIT: 29847003  MISS:     0  HIT %:   100  MISS %:     0  AVERAGE MISS PENALTY: 0
ITLB LOAD      ACCESS: 29847003  HIT: 29847003  MISS:     0  HIT %:   100  MISS %:     0  AVERAGE MISS PENALTY: 0
ITLB RFO       ACCESS:     0  HIT:     0  MISS:     0  HIT %:     0  MISS %:     0  AVERAGE MISS PENALTY: 0
ITLB PREFETCH  ACCESS:     0  HIT:     0  MISS:     0  HIT %:     0  MISS %:     0  AVERAGE MISS PENALTY: 0
ITLB WRITEBACK ACCESS:     0  HIT:     0  MISS:     0  HIT %:     0  MISS %:     0  AVERAGE MISS PENALTY: 0
ITLB PREFETCH  REQUESTED:     0  ISSUED:     0  USEFUL:     0  USELESS:     0
 USEFUL LOAD PREFETCHES:          0 PREFETCH ISSUED TO LOWER LEVEL:          0  ACCURACY: -nan
 TIMELY PREFETCHES:          0 LATE PREFETCHES: 0 DROPPED PREFETCHES: 0
ITLB AVERAGE MISS LATENCY: -nan cycles
DTLB TOTAL     ACCESS: 48513236  HIT: 37695384  MISS: 10817852  HIT %: 77.7012  MISS %: 22.2988  AVERAGE MISS PENALTY: 9.46511
DTLB LOAD      ACCESS: 48458460  HIT: 37640608  MISS: 10817852  HIT %: 77.676  MISS %: 22.324  AVERAGE MISS PENALTY: 9.46511
DTLB RFO       ACCESS: 54776  HIT: 54776  MISS:     0  HIT %:   100  MISS %:     0  AVERAGE MISS PENALTY: 0
DTLB PREFETCH  ACCESS:     0  HIT:     0  MISS:     0  HIT %:     0  MISS %:     0  AVERAGE MISS PENALTY: 0
DTLB WRITEBACK ACCESS:     0  HIT:     0  MISS:     0  HIT %:     0  MISS %:     0  AVERAGE MISS PENALTY: 0
DTLB PREFETCH  REQUESTED:     0  ISSUED:     0  USEFUL:     0  USELESS:     0
 USEFUL LOAD PREFETCHES:          0 PREFETCH ISSUED TO LOWER LEVEL:          0  ACCURACY: -nan
 TIMELY PREFETCHES:          0 LATE PREFETCHES: 0 DROPPED PREFETCHES: 0
DTLB AVERAGE MISS LATENCY: 9.46511 cycles
STLB TOTAL     ACCESS: 10817852  HIT: 10801493  MISS: 16359  HIT %: 99.8488  MISS %: 0.151222  AVERAGE MISS PENALTY: 100
STLB LOAD      ACCESS: 10817852  HIT: 10801493  MISS: 16359  HIT %: 99.8488  MISS %: 0.151222  AVERAGE MISS PENALTY: 100
STLB RFO       ACCESS:     0  HIT:     0  MISS:     0  HIT %:     0  MISS %:     0  AVERAGE MISS PENALTY: 0
STLB PREFETCH  ACCESS:     0  HIT:     0  MISS:     0  HIT %:     0  MISS %:     0  AVERAGE MISS PENALTY: 0
STLB WRITEBACK ACCESS:     0  HIT:     0  MISS:     0  HIT %:     0  MISS %:     0  AVERAGE MISS PENALTY: 0
STLB PREFETCH  REQUESTED:     0  ISSUED:     0  USEFUL:     0  USELESS:     0
 USEFUL LOAD PREFETCHES:          0 PREFETCH ISSUED TO LOWER LEVEL:          0  ACCURACY: -nan
 TIMELY PREFETCHES:          0 LATE PREFETCHES: 0 DROPPED PREFETCHES: 0
STLB AVERAGE MISS LATENCY: 100 cycles
L1D TOTAL     ACCESS: 104485694  HIT: 33080247  MISS: 71405447  HIT %: 31.6601  MISS %: 68.3399  AVERAGE MISS PENALTY: 574074
L1D LOAD      ACCESS: 44839698  HIT: 28690813  MISS: 16148885  HIT %: 63.9853  MISS %: 36.0147  AVERAGE MISS PENALTY: 2.53809e+06
L1D RFO       ACCESS: 54782  HIT: 54782  MISS:     0  HIT %:   100  MISS %:     0  AVERAGE MISS PENALTY: 0
L1D PREFETCH  ACCESS: 59591214  HIT: 4334652  MISS: 55256562  HIT %: 7.27398  MISS %: 92.726  AVERAGE MISS PENALTY: 83.6697
L1D WRITEBACK ACCESS:     0  HIT:     0  MISS:     0  HIT %:     0  MISS %:     0  AVERAGE MISS PENALTY: 0
L1D PREFETCH  REQUESTED: 90602484  ISSUED: 61119937  USEFUL: 1700431  USELESS: 53556147
 USEFUL LOAD PREFETCHES:    1700431 PREFETCH ISSUED TO LOWER LEVEL:  133614016  ACCURACY: 1.27264
 TIMELY PREFETCHES:    1700431 LATE PREFETCHES: 400677 DROPPED PREFETCHES: 29482547
L1D AVERAGE MISS LATENCY: 44.3183 cycles
L1I TOTAL     ACCESS: 43774799  HIT: 43774799  MISS:     0  HIT %:   100  MISS %:     0  AVERAGE MISS PENALTY: 0
L1I LOAD      ACCESS: 43774799  HIT: 43774799  MISS:     0  HIT %:   100  MISS %:     0  AVERAGE MISS PENALTY: 0
L1I RFO       ACCESS:     0  HIT:     0  MISS:     0  HIT %:     0  MISS %:     0  AVERAGE MISS PENALTY: 0
L1I PREFETCH  ACCESS:     0  HIT:     0  MISS:     0  HIT %:     0  MISS %:     0  AVERAGE MISS PENALTY: 0
L1I WRITEBACK ACCESS:     0  HIT:     0  MISS:     0  HIT %:     0  MISS %:     0  AVERAGE MISS PENALTY: 0
L1I PREFETCH  REQUESTED:     0  ISSUED:     0  USEFUL:     0  USELESS:     0
 USEFUL LOAD PREFETCHES:          0 PREFETCH ISSUED TO LOWER LEVEL:          0  ACCURACY: -nan
 TIMELY PREFETCHES:          0 LATE PREFETCHES: 0 DROPPED PREFETCHES: 0
L1I AVERAGE MISS LATENCY: -nan cycles
L2C TOTAL     ACCESS: 128847483  HIT: 21516999  MISS: 107330484  HIT %: 16.6996  MISS %: 83.3004  AVERAGE MISS PENALTY: 213035
L2C LOAD      ACCESS: 16145460  HIT: 3020088  MISS: 13125372  HIT %: 18.7055  MISS %: 81.2945  AVERAGE MISS PENALTY: 1.74179e+06
L2C RFO       ACCESS:     0  HIT:     0  MISS:     0  HIT %:     0  MISS %:     0  AVERAGE MISS PENALTY: 0
L2C PREFETCH  ACCESS: 112655247  HIT: 18452189  MISS: 94203058  HIT %: 16.3793  MISS %: 83.6207  AVERAGE MISS PENALTY: 37.4758
L2C WRITEBACK ACCESS: 46776  HIT: 44722  MISS:  2054  HIT %: 95.6089  MISS %: 4.39114  AVERAGE MISS PENALTY: 0
L2C PREFETCH  REQUESTED: 251567122  ISSUED: 235367277  USEFUL: 1301792  USELESS: 92901288
 USEFUL LOAD PREFETCHES:    1301792 PREFETCH ISSUED TO LOWER LEVEL:   97602182  ACCURACY: 1.33377
 TIMELY PREFETCHES:    1301792 LATE PREFETCHES: 714101 DROPPED PREFETCHES: 16199845
L2C AVERAGE MISS LATENCY: 34.8414 cycles
LLC0 TOTAL     ACCESS: 13722199  HIT: 13591234  MISS: 130965  HIT %: 99.0456  MISS %: 0.954402  AVERAGE MISS PENALTY: 79.916
LLC0 LOAD      ACCESS: 1685296  HIT: 1668923  MISS: 16373  HIT %: 99.0285  MISS %: 0.971521  AVERAGE MISS PENALTY: 84.169
LLC0 RFO       ACCESS:     0  HIT:     0  MISS:     0  HIT %:     0  MISS %:     0  AVERAGE MISS PENALTY: 0
LLC0 PREFETCH  ACCESS: 12031104  HIT: 11916512  MISS: 114592  HIT %: 99.0475  MISS %: 0.952465  AVERAGE MISS PENALTY: 79.3084
LLC0 WRITEBACK ACCESS:  5799  HIT:  5799  MISS:     0  HIT %:   100  MISS %:     0  AVERAGE MISS PENALTY: 0
LLC0 PREFETCH  REQUESTED:     0  ISSUED:     0  USEFUL:   471  USELESS: 112372
 USEFUL LOAD PREFETCHES:        471 PREFETCH ISSUED TO LOWER LEVEL:     114592  ACCURACY: 0.411023
 TIMELY PREFETCHES:        471 LATE PREFETCHES: 0 DROPPED PREFETCHES: 0
LLC0 AVERAGE MISS LATENCY: 79.916 cycles
Deadblocks : 16261 Deadblock percentage : 99.3159

LLC1 TOTAL     ACCESS: 13677512  HIT: 13546482  MISS: 131030  HIT %: 99.042  MISS %: 0.957996  AVERAGE MISS PENALTY: 80.3038
LLC1 LOAD      ACCESS: 1604986  HIT: 1604776  MISS:   210  HIT %: 99.9869  MISS %: 0.0130842  AVERAGE MISS PENALTY: 89.7143
LLC1 RFO       ACCESS:     0  HIT:     0  MISS:     0  HIT %:     0  MISS %:     0  AVERAGE MISS PENALTY: 0
LLC1 PREFETCH  ACCESS: 12066685  HIT: 11935865  MISS: 130820  HIT %: 98.9159  MISS %: 1.08414  AVERAGE MISS PENALTY: 80.2887
LLC1 WRITEBACK ACCESS:  5841  HIT:  5841  MISS:     0  HIT %:   100  MISS %:     0  AVERAGE MISS PENALTY: 0
LLC1 PREFETCH  REQUESTED:     0  ISSUED:     0  USEFUL:   603  USELESS: 128206
 USEFUL LOAD PREFETCHES:        603 PREFETCH ISSUED TO LOWER LEVEL:     130820  ACCURACY: 0.460939
 TIMELY PREFETCHES:        603 LATE PREFETCHES: 0 DROPPED PREFETCHES: 0
LLC1 AVERAGE MISS LATENCY: 80.3038 cycles
LLC2 TOTAL     ACCESS: 13671153  HIT: 13540111  MISS: 131042  HIT %: 99.0415  MISS %: 0.958529  AVERAGE MISS PENALTY: 81.2802
LLC2 LOAD      ACCESS: 1677774  HIT: 1677754  MISS:    20  HIT %: 99.9988  MISS %: 0.00119206  AVERAGE MISS PENALTY: 169
LLC2 RFO       ACCESS:     0  HIT:     0  MISS:     0  HIT %:     0  MISS %:     0  AVERAGE MISS PENALTY: 0
LLC2 PREFETCH  ACCESS: 11987543  HIT: 11856521  MISS: 131022  HIT %: 98.907  MISS %: 1.09298  AVERAGE MISS PENALTY: 81.2668
LLC2 WRITEBACK ACCESS:  5836  HIT:  5836  MISS:     0  HIT %:   100  MISS %:     0  AVERAGE MISS PENALTY: 0
LLC2 PREFETCH  REQUESTED:     0  ISSUED:     0  USEFUL:   571  USELESS: 128592
 USEFUL LOAD PREFETCHES:        571 PREFETCH ISSUED TO LOWER LEVEL:     131022  ACCURACY: 0.435805
 TIMELY PREFETCHES:        571 LATE PREFETCHES: 0 DROPPED PREFETCHES: 0
LLC2 AVERAGE MISS LATENCY: 81.2802 cycles
LLC3 TOTAL     ACCESS: 13556667  HIT: 13425393  MISS: 131274  HIT %: 99.0317  MISS %: 0.968335  AVERAGE MISS PENALTY: 82.674
LLC3 LOAD      ACCESS: 1580984  HIT: 1580940  MISS:    44  HIT %: 99.9972  MISS %: 0.00278308  AVERAGE MISS PENALTY: 174
LLC3 RFO       ACCESS:     0  HIT:     0  MISS:     0  HIT %:     0  MISS %:     0  AVERAGE MISS PENALTY: 0
LLC3 PREFETCH  ACCESS: 11969795  HIT: 11838565  MISS: 131230  HIT %: 98.9037  MISS %: 1.09634  AVERAGE MISS PENALTY: 82.6433
LLC3 WRITEBACK ACCESS:  5888  HIT:  5888  MISS:     0  HIT %:   100  MISS %:     0  AVERAGE MISS PENALTY: 0
LLC3 PREFETCH  REQUESTED:     0  ISSUED:     0  USEFUL:   799  USELESS: 128298
 USEFUL LOAD PREFETCHES:        799 PREFETCH ISSUED TO LOWER LEVEL:     131230  ACCURACY: 0.608855
 TIMELY PREFETCHES:        799 LATE PREFETCHES: 0 DROPPED PREFETCHES: 0
LLC3 AVERAGE MISS LATENCY: 82.674 cycles
LLC4 TOTAL     ACCESS: 13479638  HIT: 13348353  MISS: 131285  HIT %: 99.026  MISS %: 0.97395  AVERAGE MISS PENALTY: 83.2758
LLC4 LOAD      ACCESS: 1657587  HIT: 1657546  MISS:    41  HIT %: 99.9975  MISS %: 0.00247347  AVERAGE MISS PENALTY: 171.561
LLC4 RFO       ACCESS:     0  HIT:     0  MISS:     0  HIT %:     0  MISS %:     0  AVERAGE MISS PENALTY: 0
LLC4 PREFETCH  ACCESS: 11816145  HIT: 11684901  MISS: 131244  HIT %: 98.8893  MISS %: 1.11072  AVERAGE MISS PENALTY: 83.2482
LLC4 WRITEBACK ACCESS:  5906  HIT:  5906  MISS:     0  HIT %:   100  MISS %:     0  AVERAGE MISS PENALTY: 0
LLC4 PREFETCH  REQUESTED:     0  ISSUED:     0  USEFUL:   795  USELESS: 127937
 USEFUL LOAD PREFETCHES:        795 PREFETCH ISSUED TO LOWER LEVEL:     131244  ACCURACY: 0.605742
 TIMELY PREFETCHES:        795 LATE PREFETCHES: 0 DROPPED PREFETCHES: 0
LLC4 AVERAGE MISS LATENCY: 83.2758 cycles
LLC5 TOTAL     ACCESS: 13320591  HIT: 13188904  MISS: 131687  HIT %: 99.0114  MISS %: 0.988597  AVERAGE MISS PENALTY: 84.2575
LLC5 LOAD      ACCESS: 1663010  HIT: 1662898  MISS:   112  HIT %: 99.9933  MISS %: 0.00673478  AVERAGE MISS PENALTY: 174.723
LLC5 RFO       ACCESS:     0  HIT:     0  MISS:     0  HIT %:     0  MISS %:     0  AVERAGE MISS PENALTY: 0
LLC5 PREFETCH  ACCESS: 11651696  HIT: 11520121  MISS: 131575  HIT %: 98.8708  MISS %: 1.12923  AVERAGE MISS PENALTY: 84.1805
LLC5 WRITEBACK ACCESS:  5885  HIT:  5885  MISS:     0  HIT %:   100  MISS %:     0  AVERAGE MISS PENALTY: 0
LLC5 PREFETCH  REQUESTED:     0  ISSUED:     0  USEFUL:  1149  USELESS: 127318
 USEFUL LOAD PREFETCHES:       1149 PREFETCH ISSUED TO LOWER LEVEL:     131575  ACCURACY: 0.873266
 TIMELY PREFETCHES:       1149 LATE PREFETCHES: 0 DROPPED PREFETCHES: 0
LLC5 AVERAGE MISS LATENCY: 84.2575 cycles
LLC6 TOTAL     ACCESS: 13086498  HIT: 12954696  MISS: 131802  HIT %: 98.9928  MISS %: 1.00716  AVERAGE MISS PENALTY: 85.2823
LLC6 LOAD      ACCESS: 1587344  HIT: 1587222  MISS:   122  HIT %: 99.9923  MISS %: 0.00768579  AVERAGE MISS PENALTY: 173.615
LLC6 RFO       ACCESS:     0  HIT:     0  MISS:     0  HIT %:     0  MISS %:     0  AVERAGE MISS PENALTY: 0
LLC6 PREFETCH  ACCESS: 11493298  HIT: 11361619  MISS: 131679  HIT %: 98.8543  MISS %: 1.1457  AVERAGE MISS PENALTY: 85.2011
LLC6 WRITEBACK ACCESS:  5856  HIT:  5855  MISS:     1  HIT %: 99.9829  MISS %: 0.0170765  AVERAGE MISS PENALTY: 0
LLC6 PREFETCH  REQUESTED:     0  ISSUED:     0  USEFUL:  1257  USELESS: 127018
 USEFUL LOAD PREFETCHES:       1257 PREFETCH ISSUED TO LOWER LEVEL:     131679  ACCURACY: 0.954594
 TIMELY PREFETCHES:       1257 LATE PREFETCHES: 0 DROPPED PREFETCHES: 0
LLC6 AVERAGE MISS LATENCY: 85.2823 cycles
LLC7 TOTAL     ACCESS: 12860950  HIT: 12729169  MISS: 131781  HIT %: 98.9753  MISS %: 1.02466  AVERAGE MISS PENALTY: 85.6738
LLC7 LOAD      ACCESS: 1663798  HIT: 1663666  MISS:   132  HIT %: 99.9921  MISS %: 0.00793366  AVERAGE MISS PENALTY: 174.114
LLC7 RFO       ACCESS:     0  HIT:     0  MISS:     0  HIT %:     0  MISS %:     0  AVERAGE MISS PENALTY: 0
LLC7 PREFETCH  ACCESS: 11191384  HIT: 11059735  MISS: 131649  HIT %: 98.8237  MISS %: 1.17634  AVERAGE MISS PENALTY: 85.5851
LLC7 WRITEBACK ACCESS:  5768  HIT:  5768  MISS:     0  HIT %:   100  MISS %:     0  AVERAGE MISS PENALTY: 0
LLC7 PREFETCH  REQUESTED:     0  ISSUED:     0  USEFUL:  1252  USELESS: 126834
 USEFUL LOAD PREFETCHES:       1252 PREFETCH ISSUED TO LOWER LEVEL:     131649  ACCURACY: 0.951014
 TIMELY PREFETCHES:       1252 LATE PREFETCHES: 0 DROPPED PREFETCHES: 0
LLC7 AVERAGE MISS LATENCY: 85.6738 cycles
ROI Average ROB Stall Cycles:	7.29056
ROI Total ROB Stalls Cycles:	654468556
ROI TOTAL ROB counter      :	89769341
ROI Average Load ROB Stall Cycles:	24.9963
ROI Total Load ROB Stalls Cycle  :	211513976
ROI Total Load ROB stalls Counter:	8461814
Major fault: 0 Minor fault: 33133

