
*** ChampSim Multicore Out-of-Order Simulator ***

Warmup Instructions: 200000000
Simulation Instructions: 200000000
Number of CPUs: 1
threads:1

L1I Configuration:
L1I_SET:64
L1I_WAY:8
L1I_RQ_SIZE:64
L1I_WQ_SIZE:64
L1I_PQ_SIZE:8
L1I_MSHR_SIZE:8

L1D Configuration:
L1D_SET:64
L1D_WAY:12
L1D_RQ_SIZE:64
L1D_WQ_SIZE:64
L1D_PQ_SIZE:8
L1D_MSHR_SIZE:16

L2C Configuration:
L2C_SET:1024
L2C_WAY:8
L2C_RQ_SIZE:32
L2C_WQ_SIZE:32
L2C_PQ_SIZE:16
L2C_MSHR_SIZE:32

LLC Configuration:
LLC_SET:4096
LLC_WAY:16
LLC SLICES:8
LLC_RQ_SIZE:64
LLC_WQ_SIZE:64
LLC_PQ_SIZE:32
LLC_MSHR_SIZE:64

Interconnect OFF
Attacker deprioritize is: OFF
Off-chip DRAM Size: 4096 MB Channels: 1 Width: 64-bit Data Rate: 3200 MT/s
PAGE SIZE in KB: 4.000000 
PAGE SIZE in MB: 0.003906 
PAGE offset in bits: 12 
CEASER-S_LLC:0
MIRAGE : 0
CEASER_LATENCY:3
REMAP : OFF
Partitions : 1
Multi-Step : OFF
BFS : OFF

CPU 0 runs /home/anubhav/gap/pr-14.trace.gz
CPU 0 Bimodal branch predictor
Initialize Hawkeye state
Initialize Hawkeye state
Initialize Hawkeye state
Initialize Hawkeye state
Initialize Hawkeye state
Initialize Hawkeye state
Initialize Hawkeye state
Initialize Hawkeye state
Heartbeat CPU 0 instructions: 10000001 cycles: 3863802 heartbeat IPC: 2.58812 cumulative IPC: 2.58812 (Simulation time: 0 hr 2 min 27 sec) 
 Total Blocks : 524288 Invalid Blocks : 367544
Heartbeat CPU 0 instructions: 20000000 cycles: 13173195 heartbeat IPC: 1.07418 cumulative IPC: 1.51823 (Simulation time: 0 hr 6 min 35 sec) 
 Total Blocks : 524288 Invalid Blocks : 271132
Heartbeat CPU 0 instructions: 30000002 cycles: 23631652 heartbeat IPC: 0.956164 cumulative IPC: 1.26948 (Simulation time: 0 hr 11 min 27 sec) 
 Total Blocks : 524288 Invalid Blocks : 235548
Heartbeat CPU 0 instructions: 40000002 cycles: 34007166 heartbeat IPC: 0.963808 cumulative IPC: 1.17622 (Simulation time: 0 hr 16 min 22 sec) 
 Total Blocks : 524288 Invalid Blocks : 202116
Heartbeat CPU 0 instructions: 50000003 cycles: 44393177 heartbeat IPC: 0.962834 cumulative IPC: 1.1263 (Simulation time: 0 hr 21 min 33 sec) 
 Total Blocks : 524288 Invalid Blocks : 170371
Heartbeat CPU 0 instructions: 60000000 cycles: 54802771 heartbeat IPC: 0.960652 cumulative IPC: 1.09484 (Simulation time: 0 hr 26 min 44 sec) 
 Total Blocks : 524288 Invalid Blocks : 149477
Heartbeat CPU 0 instructions: 70000000 cycles: 65176824 heartbeat IPC: 0.963943 cumulative IPC: 1.074 (Simulation time: 0 hr 31 min 45 sec) 
 Total Blocks : 524288 Invalid Blocks : 131206
Heartbeat CPU 0 instructions: 80000000 cycles: 75606749 heartbeat IPC: 0.95878 cumulative IPC: 1.05811 (Simulation time: 0 hr 37 min 2 sec) 
 Total Blocks : 524288 Invalid Blocks : 117652
Heartbeat CPU 0 instructions: 90000003 cycles: 86031937 heartbeat IPC: 0.959216 cumulative IPC: 1.04612 (Simulation time: 0 hr 42 min 34 sec) 
 Total Blocks : 524288 Invalid Blocks : 106919
Heartbeat CPU 0 instructions: 100000000 cycles: 96367141 heartbeat IPC: 0.967566 cumulative IPC: 1.0377 (Simulation time: 0 hr 48 min 0 sec) 
 Total Blocks : 524288 Invalid Blocks : 97132
Heartbeat CPU 0 instructions: 110000000 cycles: 106844804 heartbeat IPC: 0.954411 cumulative IPC: 1.02953 (Simulation time: 0 hr 53 min 33 sec) 
 Total Blocks : 524288 Invalid Blocks : 88103
Heartbeat CPU 0 instructions: 120000000 cycles: 117248310 heartbeat IPC: 0.961214 cumulative IPC: 1.02347 (Simulation time: 0 hr 58 min 35 sec) 
 Total Blocks : 524288 Invalid Blocks : 81712
Heartbeat CPU 0 instructions: 130000003 cycles: 127638559 heartbeat IPC: 0.962441 cumulative IPC: 1.0185 (Simulation time: 1 hr 3 min 58 sec) 
 Total Blocks : 524288 Invalid Blocks : 76752
Heartbeat CPU 0 instructions: 140000001 cycles: 137975323 heartbeat IPC: 0.967421 cumulative IPC: 1.01467 (Simulation time: 1 hr 9 min 16 sec) 
 Total Blocks : 524288 Invalid Blocks : 72481
Heartbeat CPU 0 instructions: 150000000 cycles: 148381002 heartbeat IPC: 0.961014 cumulative IPC: 1.01091 (Simulation time: 1 hr 15 min 15 sec) 
 Total Blocks : 524288 Invalid Blocks : 68770
Heartbeat CPU 0 instructions: 160000000 cycles: 158749197 heartbeat IPC: 0.964488 cumulative IPC: 1.00788 (Simulation time: 1 hr 20 min 49 sec) 
 Total Blocks : 524288 Invalid Blocks : 64809
Heartbeat CPU 0 instructions: 170000002 cycles: 169237697 heartbeat IPC: 0.953425 cumulative IPC: 1.0045 (Simulation time: 1 hr 26 min 17 sec) 
 Total Blocks : 524288 Invalid Blocks : 61752
Heartbeat CPU 0 instructions: 180000000 cycles: 179633926 heartbeat IPC: 0.961887 cumulative IPC: 1.00204 (Simulation time: 1 hr 31 min 42 sec) 
 Total Blocks : 524288 Invalid Blocks : 59238
Heartbeat CPU 0 instructions: 190000003 cycles: 187977297 heartbeat IPC: 1.19856 cumulative IPC: 1.01076 (Simulation time: 1 hr 36 min 5 sec) 
 Total Blocks : 524288 Invalid Blocks : 56436
Heartbeat CPU 0 instructions: 200000001 cycles: 192784842 heartbeat IPC: 2.08006 cumulative IPC: 1.03743 (Simulation time: 1 hr 38 min 31 sec) 
 Total Blocks : 524288 Invalid Blocks : 51939

Warmup complete CPU 0 instructions: 200000001 cycles: 192784842 (Simulation time: 1 hr 38 min 31 sec) 

Heartbeat CPU 0 instructions: 210000000 cycles: 311071324 heartbeat IPC: 0.0845405 cumulative IPC: 0.0845405 (Simulation time: 1 hr 58 min 12 sec) 
 Total Blocks : 524288 Invalid Blocks : 48430
Heartbeat CPU 0 instructions: 220000000 cycles: 428919323 heartbeat IPC: 0.0848551 cumulative IPC: 0.0846975 (Simulation time: 2 hr 15 min 49 sec) 
 Total Blocks : 524288 Invalid Blocks : 46105
Heartbeat CPU 0 instructions: 230000000 cycles: 547042249 heartbeat IPC: 0.0846576 cumulative IPC: 0.0846842 (Simulation time: 2 hr 30 min 53 sec) 
 Total Blocks : 524288 Invalid Blocks : 44162
Heartbeat CPU 0 instructions: 240000001 cycles: 663741895 heartbeat IPC: 0.0856901 cumulative IPC: 0.0849334 (Simulation time: 2 hr 43 min 41 sec) 
 Total Blocks : 524288 Invalid Blocks : 42315
Heartbeat CPU 0 instructions: 250000002 cycles: 782551664 heartbeat IPC: 0.0841682 cumulative IPC: 0.0847793 (Simulation time: 2 hr 56 min 39 sec) 
 Total Blocks : 524288 Invalid Blocks : 40656
Heartbeat CPU 0 instructions: 260000002 cycles: 899955219 heartbeat IPC: 0.0851763 cumulative IPC: 0.0848452 (Simulation time: 3 hr 9 min 15 sec) 
 Total Blocks : 524288 Invalid Blocks : 39237
Heartbeat CPU 0 instructions: 270000003 cycles: 1018463678 heartbeat IPC: 0.0843822 cumulative IPC: 0.0847787 (Simulation time: 3 hr 18 min 35 sec) 
 Total Blocks : 524288 Invalid Blocks : 37885
Heartbeat CPU 0 instructions: 280000000 cycles: 1135539350 heartbeat IPC: 0.0854148 cumulative IPC: 0.0848577 (Simulation time: 3 hr 29 min 46 sec) 
 Total Blocks : 524288 Invalid Blocks : 36675
Heartbeat CPU 0 instructions: 290000000 cycles: 1252737386 heartbeat IPC: 0.0853257 cumulative IPC: 0.0849095 (Simulation time: 3 hr 36 min 26 sec) 
 Total Blocks : 524288 Invalid Blocks : 35558
Heartbeat CPU 0 instructions: 300000000 cycles: 1371395226 heartbeat IPC: 0.0842759 cumulative IPC: 0.0848457 (Simulation time: 3 hr 43 min 8 sec) 
 Total Blocks : 524288 Invalid Blocks : 34530
Heartbeat CPU 0 instructions: 310000003 cycles: 1490117414 heartbeat IPC: 0.0842303 cumulative IPC: 0.0847894 (Simulation time: 3 hr 49 min 48 sec) 
 Total Blocks : 524288 Invalid Blocks : 33551
Heartbeat CPU 0 instructions: 320000000 cycles: 1606556910 heartbeat IPC: 0.0858815 cumulative IPC: 0.0848793 (Simulation time: 3 hr 56 min 19 sec) 
 Total Blocks : 524288 Invalid Blocks : 32723
Heartbeat CPU 0 instructions: 330000000 cycles: 1723422746 heartbeat IPC: 0.0855682 cumulative IPC: 0.0849319 (Simulation time: 4 hr 2 min 51 sec) 
 Total Blocks : 524288 Invalid Blocks : 32023
Heartbeat CPU 0 instructions: 340000002 cycles: 1842033829 heartbeat IPC: 0.0843092 cumulative IPC: 0.0848871 (Simulation time: 4 hr 9 min 27 sec) 
 Total Blocks : 524288 Invalid Blocks : 31418
Heartbeat CPU 0 instructions: 350000002 cycles: 1959787696 heartbeat IPC: 0.0849229 cumulative IPC: 0.0848895 (Simulation time: 4 hr 16 min 1 sec) 
 Total Blocks : 524288 Invalid Blocks : 30827
Heartbeat CPU 0 instructions: 360000001 cycles: 2078139346 heartbeat IPC: 0.084494 cumulative IPC: 0.0848647 (Simulation time: 4 hr 22 min 36 sec) 
 Total Blocks : 524288 Invalid Blocks : 30263
Heartbeat CPU 0 instructions: 370000001 cycles: 2196063283 heartbeat IPC: 0.0848004 cumulative IPC: 0.0848609 (Simulation time: 4 hr 29 min 9 sec) 
 Total Blocks : 524288 Invalid Blocks : 29737
Heartbeat CPU 0 instructions: 380000000 cycles: 2244328042 heartbeat IPC: 0.20719 cumulative IPC: 0.0877388 (Simulation time: 4 hr 32 min 11 sec) 
 Total Blocks : 524288 Invalid Blocks : 29371
Heartbeat CPU 0 instructions: 390000000 cycles: 2299254776 heartbeat IPC: 0.182061 cumulative IPC: 0.0901983 (Simulation time: 4 hr 35 min 32 sec) 
 Total Blocks : 524288 Invalid Blocks : 28785
Heartbeat CPU 0 instructions: 400000000 cycles: 2418196843 heartbeat IPC: 0.0840745 cumulative IPC: 0.089871 (Simulation time: 4 hr 42 min 7 sec) 
 Total Blocks : 524288 Invalid Blocks : 28471
Finished CPU 0 instructions: 200000003 cycles: 2225412072 cumulative IPC: 0.089871 (Simulation time: 4 hr 42 min 7 sec) 

CPU 0 Branch Prediction Accuracy: 96.4326% MPKI: 6.60449 Average ROB Occupancy at Mispredict: 145.508

ChampSim completed all CPUs

Region of Interest Statistics

CPU 0 cumulative IPC: 0.089871 instructions: 200000003 cycles: 2225412072
ITLB TOTAL     ACCESS: 34161302  HIT: 34161302  MISS:     0  HIT %:   100  MISS %:     0  AVERAGE MISS PENALTY: 0
ITLB LOAD      ACCESS: 34161302  HIT: 34161302  MISS:     0  HIT %:   100  MISS %:     0  AVERAGE MISS PENALTY: 0
ITLB RFO       ACCESS:     0  HIT:     0  MISS:     0  HIT %:     0  MISS %:     0  AVERAGE MISS PENALTY: 0
ITLB PREFETCH  ACCESS:     0  HIT:     0  MISS:     0  HIT %:     0  MISS %:     0  AVERAGE MISS PENALTY: 0
ITLB WRITEBACK ACCESS:     0  HIT:     0  MISS:     0  HIT %:     0  MISS %:     0  AVERAGE MISS PENALTY: 0
ITLB PREFETCH  REQUESTED:     0  ISSUED:     0  USEFUL:     0  USELESS:     0
 USEFUL LOAD PREFETCHES:          0 PREFETCH ISSUED TO LOWER LEVEL:          0  ACCURACY: -nan
 TIMELY PREFETCHES:          0 LATE PREFETCHES: 0 DROPPED PREFETCHES: 0
ITLB AVERAGE MISS LATENCY: -nan cycles
DTLB TOTAL     ACCESS: 78351827  HIT: 55364871  MISS: 22986956  HIT %: 70.6619  MISS %: 29.3381  AVERAGE MISS PENALTY: 9.18664
DTLB LOAD      ACCESS: 75588565  HIT: 52607217  MISS: 22981348  HIT %: 69.5968  MISS %: 30.4032  AVERAGE MISS PENALTY: 9.18346
DTLB RFO       ACCESS: 2763262  HIT: 2757654  MISS:  5608  HIT %: 99.7971  MISS %: 0.202949  AVERAGE MISS PENALTY: 22.2133
DTLB PREFETCH  ACCESS:     0  HIT:     0  MISS:     0  HIT %:     0  MISS %:     0  AVERAGE MISS PENALTY: 0
DTLB WRITEBACK ACCESS:     0  HIT:     0  MISS:     0  HIT %:     0  MISS %:     0  AVERAGE MISS PENALTY: 0
DTLB PREFETCH  REQUESTED:     0  ISSUED:     0  USEFUL:     0  USELESS:     0
 USEFUL LOAD PREFETCHES:          0 PREFETCH ISSUED TO LOWER LEVEL:          0  ACCURACY: -nan
 TIMELY PREFETCHES:          0 LATE PREFETCHES: 0 DROPPED PREFETCHES: 0
DTLB AVERAGE MISS LATENCY: 9.18664 cycles
STLB TOTAL     ACCESS: 22986956  HIT: 22946137  MISS: 40819  HIT %: 99.8224  MISS %: 0.177575  AVERAGE MISS PENALTY: 100
STLB LOAD      ACCESS: 22981348  HIT: 22941270  MISS: 40078  HIT %: 99.8256  MISS %: 0.174394  AVERAGE MISS PENALTY: 100
STLB RFO       ACCESS:  5608  HIT:  4867  MISS:   741  HIT %: 86.7867  MISS %: 13.2133  AVERAGE MISS PENALTY: 100
STLB PREFETCH  ACCESS:     0  HIT:     0  MISS:     0  HIT %:     0  MISS %:     0  AVERAGE MISS PENALTY: 0
STLB WRITEBACK ACCESS:     0  HIT:     0  MISS:     0  HIT %:     0  MISS %:     0  AVERAGE MISS PENALTY: 0
STLB PREFETCH  REQUESTED:     0  ISSUED:     0  USEFUL:     0  USELESS:     0
 USEFUL LOAD PREFETCHES:          0 PREFETCH ISSUED TO LOWER LEVEL:          0  ACCURACY: -nan
 TIMELY PREFETCHES:          0 LATE PREFETCHES: 0 DROPPED PREFETCHES: 0
STLB AVERAGE MISS LATENCY: 100 cycles
L1D TOTAL     ACCESS: 258740285  HIT: 48882451  MISS: 209857834  HIT %: 18.8925  MISS %: 81.1075  AVERAGE MISS PENALTY: 3.86774e+06
L1D LOAD      ACCESS: 66804074  HIT: 35199542  MISS: 31604532  HIT %: 52.6907  MISS %: 47.3093  AVERAGE MISS PENALTY: 2.56818e+07
L1D RFO       ACCESS: 2918261  HIT: 2852701  MISS: 65560  HIT %: 97.7535  MISS %: 2.24654  AVERAGE MISS PENALTY: 34230.9
L1D PREFETCH  ACCESS: 189017950  HIT: 10830208  MISS: 178187742  HIT %: 5.72972  MISS %: 94.2703  AVERAGE MISS PENALTY: 64.9205
L1D WRITEBACK ACCESS:     0  HIT:     0  MISS:     0  HIT %:     0  MISS %:     0  AVERAGE MISS PENALTY: 0
L1D PREFETCH  REQUESTED: 193707197  ISSUED: 192699793  USEFUL: 4210437  USELESS: 173977269
 USEFUL LOAD PREFETCHES:    4210437 PREFETCH ISSUED TO LOWER LEVEL:  181772776  ACCURACY: 2.31632
 TIMELY PREFETCHES:    4210437 LATE PREFETCHES: 618386 DROPPED PREFETCHES: 1007404
L1D AVERAGE MISS LATENCY: 59.1515 cycles
L1I TOTAL     ACCESS: 35904746  HIT: 35904732  MISS:    14  HIT %:   100  MISS %: 3.89921e-05  AVERAGE MISS PENALTY: 124.929
L1I LOAD      ACCESS: 35904746  HIT: 35904732  MISS:    14  HIT %:   100  MISS %: 3.89921e-05  AVERAGE MISS PENALTY: 124.929
L1I RFO       ACCESS:     0  HIT:     0  MISS:     0  HIT %:     0  MISS %:     0  AVERAGE MISS PENALTY: 0
L1I PREFETCH  ACCESS:     0  HIT:     0  MISS:     0  HIT %:     0  MISS %:     0  AVERAGE MISS PENALTY: 0
L1I WRITEBACK ACCESS:     0  HIT:     0  MISS:     0  HIT %:     0  MISS %:     0  AVERAGE MISS PENALTY: 0
L1I PREFETCH  REQUESTED:     0  ISSUED:     0  USEFUL:     0  USELESS:     0
 USEFUL LOAD PREFETCHES:          0 PREFETCH ISSUED TO LOWER LEVEL:          0  ACCURACY: -nan
 TIMELY PREFETCHES:          0 LATE PREFETCHES: 0 DROPPED PREFETCHES: 0
L1I AVERAGE MISS LATENCY: 124.929 cycles
L2C TOTAL     ACCESS: 352204847  HIT: 24997196  MISS: 327207651  HIT %: 7.09735  MISS %: 92.9027  AVERAGE MISS PENALTY: 1.89974e+06
L2C LOAD      ACCESS: 31494046  HIT: 1788411  MISS: 29705635  HIT %: 5.67857  MISS %: 94.3214  AVERAGE MISS PENALTY: 2.09252e+07
L2C RFO       ACCESS: 65559  HIT:    75  MISS: 65484  HIT %: 0.114401  MISS %: 99.8856  AVERAGE MISS PENALTY: 34252.5
L2C PREFETCH  ACCESS: 320409110  HIT: 22972619  MISS: 297436491  HIT %: 7.16978  MISS %: 92.8302  AVERAGE MISS PENALTY: 35.4836
L2C WRITEBACK ACCESS: 236132  HIT: 236091  MISS:    41  HIT %: 99.9826  MISS %: 0.0173632  AVERAGE MISS PENALTY: 0
L2C PREFETCH  REQUESTED: 787401248  ISSUED: 787385449  USEFUL: 1402178  USELESS: 296033336
 USEFUL LOAD PREFETCHES:    1402178 PREFETCH ISSUED TO LOWER LEVEL:  300932961  ACCURACY: 0.465944
 TIMELY PREFETCHES:    1402178 LATE PREFETCHES: 598326 DROPPED PREFETCHES: 15799
L2C AVERAGE MISS LATENCY: 34.7894 cycles
LLC0 TOTAL     ACCESS: 42067642  HIT: 41765100  MISS: 302542  HIT %: 99.2808  MISS %: 0.71918  AVERAGE MISS PENALTY: 94.0889
LLC0 LOAD      ACCESS: 3797183  HIT: 3759334  MISS: 37849  HIT %: 99.0032  MISS %: 0.996765  AVERAGE MISS PENALTY: 103.849
LLC0 RFO       ACCESS:  8187  HIT:  8181  MISS:     6  HIT %: 99.9267  MISS %: 0.0732869  AVERAGE MISS PENALTY: 137.667
LLC0 PREFETCH  ACCESS: 38245281  HIT: 37980605  MISS: 264676  HIT %: 99.308  MISS %: 0.692049  AVERAGE MISS PENALTY: 92.696
LLC0 WRITEBACK ACCESS: 16991  HIT: 16980  MISS:    11  HIT %: 99.9353  MISS %: 0.0647402  AVERAGE MISS PENALTY: 0
LLC0 PREFETCH  REQUESTED:     0  ISSUED:     0  USEFUL:  2086  USELESS: 258522
 USEFUL LOAD PREFETCHES:       2086 PREFETCH ISSUED TO LOWER LEVEL:     264676  ACCURACY: 0.788133
 TIMELY PREFETCHES:       2086 LATE PREFETCHES: 0 DROPPED PREFETCHES: 0
LLC0 AVERAGE MISS LATENCY: 94.0889 cycles
Deadblocks : 34953 Deadblock percentage : 92.3485

LLC1 TOTAL     ACCESS: 42141347  HIT: 41837563  MISS: 303784  HIT %: 99.2791  MISS %: 0.720869  AVERAGE MISS PENALTY: 96.4662
LLC1 LOAD      ACCESS: 3759905  HIT: 3755093  MISS:  4812  HIT %: 99.872  MISS %: 0.127982  AVERAGE MISS PENALTY: 122.753
LLC1 RFO       ACCESS:  8188  HIT:  8181  MISS:     7  HIT %: 99.9145  MISS %: 0.085491  AVERAGE MISS PENALTY: 191.857
LLC1 PREFETCH  ACCESS: 38356260  HIT: 38057303  MISS: 298957  HIT %: 99.2206  MISS %: 0.779422  AVERAGE MISS PENALTY: 96.0435
LLC1 WRITEBACK ACCESS: 16994  HIT: 16986  MISS:     8  HIT %: 99.9529  MISS %: 0.0470754  AVERAGE MISS PENALTY: 0
LLC1 PREFETCH  REQUESTED:     0  ISSUED:     0  USEFUL:  3393  USELESS: 290635
 USEFUL LOAD PREFETCHES:       3393 PREFETCH ISSUED TO LOWER LEVEL:     298957  ACCURACY: 1.13495
 TIMELY PREFETCHES:       3393 LATE PREFETCHES: 0 DROPPED PREFETCHES: 0
LLC1 AVERAGE MISS LATENCY: 96.4662 cycles
LLC2 TOTAL     ACCESS: 41817370  HIT: 41512115  MISS: 305255  HIT %: 99.27  MISS %: 0.729972  AVERAGE MISS PENALTY: 98.6665
LLC2 LOAD      ACCESS: 3625646  HIT: 3625159  MISS:   487  HIT %: 99.9866  MISS %: 0.0134321  AVERAGE MISS PENALTY: 173.166
LLC2 RFO       ACCESS:  8184  HIT:  8179  MISS:     5  HIT %: 99.9389  MISS %: 0.0610948  AVERAGE MISS PENALTY: 182.2
LLC2 PREFETCH  ACCESS: 38166548  HIT: 37861793  MISS: 304755  HIT %: 99.2015  MISS %: 0.798487  AVERAGE MISS PENALTY: 98.5486
LLC2 WRITEBACK ACCESS: 16992  HIT: 16984  MISS:     8  HIT %: 99.9529  MISS %: 0.047081  AVERAGE MISS PENALTY: 0
LLC2 PREFETCH  REQUESTED:     0  ISSUED:     0  USEFUL:  4615  USELESS: 294497
 USEFUL LOAD PREFETCHES:       4615 PREFETCH ISSUED TO LOWER LEVEL:     304755  ACCURACY: 1.51433
 TIMELY PREFETCHES:       4615 LATE PREFETCHES: 0 DROPPED PREFETCHES: 0
LLC2 AVERAGE MISS LATENCY: 98.6665 cycles
LLC3 TOTAL     ACCESS: 41240055  HIT: 40932725  MISS: 307330  HIT %: 99.2548  MISS %: 0.745222  AVERAGE MISS PENALTY: 100.193
LLC3 LOAD      ACCESS: 3719113  HIT: 3718499  MISS:   614  HIT %: 99.9835  MISS %: 0.0165093  AVERAGE MISS PENALTY: 172.87
LLC3 RFO       ACCESS:  8183  HIT:  8174  MISS:     9  HIT %: 99.89  MISS %: 0.109984  AVERAGE MISS PENALTY: 110.333
LLC3 PREFETCH  ACCESS: 37495767  HIT: 37189069  MISS: 306698  HIT %: 99.182  MISS %: 0.817954  AVERAGE MISS PENALTY: 100.05
LLC3 WRITEBACK ACCESS: 16992  HIT: 16983  MISS:     9  HIT %: 99.947  MISS %: 0.0529661  AVERAGE MISS PENALTY: 0
LLC3 PREFETCH  REQUESTED:     0  ISSUED:     0  USEFUL:  6082  USELESS: 295224
 USEFUL LOAD PREFETCHES:       6082 PREFETCH ISSUED TO LOWER LEVEL:     306698  ACCURACY: 1.98306
 TIMELY PREFETCHES:       6082 LATE PREFETCHES: 0 DROPPED PREFETCHES: 0
LLC3 AVERAGE MISS LATENCY: 100.193 cycles
LLC4 TOTAL     ACCESS: 40898676  HIT: 40588893  MISS: 309783  HIT %: 99.2426  MISS %: 0.75744  AVERAGE MISS PENALTY: 101.71
LLC4 LOAD      ACCESS: 3739352  HIT: 3738432  MISS:   920  HIT %: 99.9754  MISS %: 0.0246032  AVERAGE MISS PENALTY: 172.565
LLC4 RFO       ACCESS:  8183  HIT:  8173  MISS:    10  HIT %: 99.8778  MISS %: 0.122205  AVERAGE MISS PENALTY: 104.8
LLC4 PREFETCH  ACCESS: 37134146  HIT: 36825303  MISS: 308843  HIT %: 99.1683  MISS %: 0.831695  AVERAGE MISS PENALTY: 101.502
LLC4 WRITEBACK ACCESS: 16995  HIT: 16985  MISS:    10  HIT %: 99.9412  MISS %: 0.0588408  AVERAGE MISS PENALTY: 0
LLC4 PREFETCH  REQUESTED:     0  ISSUED:     0  USEFUL:  7605  USELESS: 296102
 USEFUL LOAD PREFETCHES:       7605 PREFETCH ISSUED TO LOWER LEVEL:     308843  ACCURACY: 2.46242
 TIMELY PREFETCHES:       7605 LATE PREFETCHES: 0 DROPPED PREFETCHES: 0
LLC4 AVERAGE MISS LATENCY: 101.71 cycles
LLC5 TOTAL     ACCESS: 40486690  HIT: 40175480  MISS: 311210  HIT %: 99.2313  MISS %: 0.768672  AVERAGE MISS PENALTY: 103.018
LLC5 LOAD      ACCESS: 3662347  HIT: 3661282  MISS:  1065  HIT %: 99.9709  MISS %: 0.0290797  AVERAGE MISS PENALTY: 172.751
LLC5 RFO       ACCESS:  8185  HIT:  8181  MISS:     4  HIT %: 99.9511  MISS %: 0.0488699  AVERAGE MISS PENALTY: 124.5
LLC5 PREFETCH  ACCESS: 36799165  HIT: 36489036  MISS: 310129  HIT %: 99.1572  MISS %: 0.842761  AVERAGE MISS PENALTY: 102.782
LLC5 WRITEBACK ACCESS: 16993  HIT: 16981  MISS:    12  HIT %: 99.9294  MISS %: 0.0706173  AVERAGE MISS PENALTY: 0
LLC5 PREFETCH  REQUESTED:     0  ISSUED:     0  USEFUL:  8653  USELESS: 296377
 USEFUL LOAD PREFETCHES:       8653 PREFETCH ISSUED TO LOWER LEVEL:     310129  ACCURACY: 2.79013
 TIMELY PREFETCHES:       8653 LATE PREFETCHES: 0 DROPPED PREFETCHES: 0
LLC5 AVERAGE MISS LATENCY: 103.018 cycles
LLC6 TOTAL     ACCESS: 39705198  HIT: 39392193  MISS: 313005  HIT %: 99.2117  MISS %: 0.788322  AVERAGE MISS PENALTY: 104.392
LLC6 LOAD      ACCESS: 3662204  HIT: 3660826  MISS:  1378  HIT %: 99.9624  MISS %: 0.0376276  AVERAGE MISS PENALTY: 173.024
LLC6 RFO       ACCESS:  8186  HIT:  8169  MISS:    17  HIT %: 99.7923  MISS %: 0.207672  AVERAGE MISS PENALTY: 98.7647
LLC6 PREFETCH  ACCESS: 36017814  HIT: 35706214  MISS: 311600  HIT %: 99.1349  MISS %: 0.865127  AVERAGE MISS PENALTY: 104.092
LLC6 WRITEBACK ACCESS: 16994  HIT: 16984  MISS:    10  HIT %: 99.9412  MISS %: 0.0588443  AVERAGE MISS PENALTY: 0
LLC6 PREFETCH  REQUESTED:     0  ISSUED:     0  USEFUL:  9326  USELESS: 297032
 USEFUL LOAD PREFETCHES:       9326 PREFETCH ISSUED TO LOWER LEVEL:     311600  ACCURACY: 2.99294
 TIMELY PREFETCHES:       9326 LATE PREFETCHES: 0 DROPPED PREFETCHES: 0
LLC6 AVERAGE MISS LATENCY: 104.392 cycles
LLC7 TOTAL     ACCESS: 38986585  HIT: 38672494  MISS: 314091  HIT %: 99.1944  MISS %: 0.805639  AVERAGE MISS PENALTY: 104.505
LLC7 LOAD      ACCESS: 3668725  HIT: 3667153  MISS:  1572  HIT %: 99.9572  MISS %: 0.0428487  AVERAGE MISS PENALTY: 172.806
LLC7 RFO       ACCESS:  8187  HIT:  8164  MISS:    23  HIT %: 99.7191  MISS %: 0.280933  AVERAGE MISS PENALTY: 106.391
LLC7 PREFETCH  ACCESS: 35292675  HIT: 34980190  MISS: 312485  HIT %: 99.1146  MISS %: 0.88541  AVERAGE MISS PENALTY: 104.165
LLC7 WRITEBACK ACCESS: 16998  HIT: 16987  MISS:    11  HIT %: 99.9353  MISS %: 0.0647135  AVERAGE MISS PENALTY: 0
LLC7 PREFETCH  REQUESTED:     0  ISSUED:     0  USEFUL:  9971  USELESS: 296838
 USEFUL LOAD PREFETCHES:       9971 PREFETCH ISSUED TO LOWER LEVEL:     312485  ACCURACY: 3.19087
 TIMELY PREFETCHES:       9971 LATE PREFETCHES: 0 DROPPED PREFETCHES: 0
LLC7 AVERAGE MISS LATENCY: 104.505 cycles
ROI Average ROB Stall Cycles:	51.276
ROI Total ROB Stalls Cycles:	2186826628
ROI TOTAL ROB counter      :	42648184
ROI Average Load ROB Stall Cycles:	59.8746
ROI Total Load ROB Stalls Cycle  :	2106717199
ROI Total Load ROB stalls Counter:	35185466
Major fault: 0 Minor fault: 34815

