
*** ChampSim Multicore Out-of-Order Simulator ***

Warmup Instructions: 200000000
Simulation Instructions: 200000000
Number of CPUs: 1
threads:1

L1I Configuration:
L1I_SET:64
L1I_WAY:8
L1I_RQ_SIZE:64
L1I_WQ_SIZE:64
L1I_PQ_SIZE:8
L1I_MSHR_SIZE:8

L1D Configuration:
L1D_SET:64
L1D_WAY:12
L1D_RQ_SIZE:64
L1D_WQ_SIZE:64
L1D_PQ_SIZE:8
L1D_MSHR_SIZE:16

L2C Configuration:
L2C_SET:1024
L2C_WAY:8
L2C_RQ_SIZE:32
L2C_WQ_SIZE:32
L2C_PQ_SIZE:16
L2C_MSHR_SIZE:32

LLC Configuration:
LLC_SET:4096
LLC_WAY:16
LLC SLICES:8
LLC_RQ_SIZE:64
LLC_WQ_SIZE:64
LLC_PQ_SIZE:32
LLC_MSHR_SIZE:64

Interconnect OFF
Attacker deprioritize is: OFF
Off-chip DRAM Size: 4096 MB Channels: 1 Width: 64-bit Data Rate: 3200 MT/s
PAGE SIZE in KB: 4.000000 
PAGE SIZE in MB: 0.003906 
PAGE offset in bits: 12 
CEASER-S_LLC:0
MIRAGE : 0
CEASER_LATENCY:3
REMAP : OFF
Partitions : 1
Multi-Step : OFF
BFS : OFF

CPU 0 runs /home/anubhav/gap/sssp-5.trace.gz
CPU 0 Bimodal branch predictor
Initialize Hawkeye state
Initialize Hawkeye state
Initialize Hawkeye state
Initialize Hawkeye state
Initialize Hawkeye state
Initialize Hawkeye state
Initialize Hawkeye state
Initialize Hawkeye state
Heartbeat CPU 0 instructions: 10000000 cycles: 7150723 heartbeat IPC: 1.39846 cumulative IPC: 1.39846 (Simulation time: 0 hr 2 min 30 sec) 
 Total Blocks : 524288 Invalid Blocks : 418039
Heartbeat CPU 0 instructions: 20000003 cycles: 15367598 heartbeat IPC: 1.21701 cumulative IPC: 1.30144 (Simulation time: 0 hr 5 min 20 sec) 
 Total Blocks : 524288 Invalid Blocks : 379884
Heartbeat CPU 0 instructions: 30000002 cycles: 22931800 heartbeat IPC: 1.32202 cumulative IPC: 1.30823 (Simulation time: 0 hr 8 min 26 sec) 
 Total Blocks : 524288 Invalid Blocks : 361384
Heartbeat CPU 0 instructions: 40000003 cycles: 29965873 heartbeat IPC: 1.42165 cumulative IPC: 1.33485 (Simulation time: 0 hr 11 min 31 sec) 
 Total Blocks : 524288 Invalid Blocks : 347937
Heartbeat CPU 0 instructions: 50000002 cycles: 36743810 heartbeat IPC: 1.47538 cumulative IPC: 1.36077 (Simulation time: 0 hr 14 min 49 sec) 
 Total Blocks : 524288 Invalid Blocks : 337395
Heartbeat CPU 0 instructions: 60000001 cycles: 43207578 heartbeat IPC: 1.54709 cumulative IPC: 1.38865 (Simulation time: 0 hr 18 min 8 sec) 
 Total Blocks : 524288 Invalid Blocks : 327989
Heartbeat CPU 0 instructions: 70000000 cycles: 49512837 heartbeat IPC: 1.58598 cumulative IPC: 1.41377 (Simulation time: 0 hr 21 min 19 sec) 
 Total Blocks : 524288 Invalid Blocks : 319274
Heartbeat CPU 0 instructions: 80000003 cycles: 55816298 heartbeat IPC: 1.58643 cumulative IPC: 1.43327 (Simulation time: 0 hr 24 min 38 sec) 
 Total Blocks : 524288 Invalid Blocks : 311469
Heartbeat CPU 0 instructions: 90000000 cycles: 61802999 heartbeat IPC: 1.67037 cumulative IPC: 1.45624 (Simulation time: 0 hr 28 min 16 sec) 
 Total Blocks : 524288 Invalid Blocks : 304166
Heartbeat CPU 0 instructions: 100000000 cycles: 67721435 heartbeat IPC: 1.68964 cumulative IPC: 1.47664 (Simulation time: 0 hr 31 min 47 sec) 
 Total Blocks : 524288 Invalid Blocks : 298342
Heartbeat CPU 0 instructions: 110000000 cycles: 73508006 heartbeat IPC: 1.72814 cumulative IPC: 1.49644 (Simulation time: 0 hr 35 min 25 sec) 
 Total Blocks : 524288 Invalid Blocks : 292168
Heartbeat CPU 0 instructions: 120000002 cycles: 79227712 heartbeat IPC: 1.74834 cumulative IPC: 1.51462 (Simulation time: 0 hr 38 min 55 sec) 
 Total Blocks : 524288 Invalid Blocks : 287211
Heartbeat CPU 0 instructions: 130000000 cycles: 84948084 heartbeat IPC: 1.74814 cumulative IPC: 1.53035 (Simulation time: 0 hr 42 min 31 sec) 
 Total Blocks : 524288 Invalid Blocks : 282176
Heartbeat CPU 0 instructions: 140000003 cycles: 90575816 heartbeat IPC: 1.77692 cumulative IPC: 1.54567 (Simulation time: 0 hr 46 min 13 sec) 
 Total Blocks : 524288 Invalid Blocks : 277405
Heartbeat CPU 0 instructions: 150000003 cycles: 96138556 heartbeat IPC: 1.79768 cumulative IPC: 1.56025 (Simulation time: 0 hr 49 min 53 sec) 
 Total Blocks : 524288 Invalid Blocks : 273306
Heartbeat CPU 0 instructions: 160000003 cycles: 101657303 heartbeat IPC: 1.81201 cumulative IPC: 1.57392 (Simulation time: 0 hr 53 min 49 sec) 
 Total Blocks : 524288 Invalid Blocks : 269157
Heartbeat CPU 0 instructions: 170000000 cycles: 107132668 heartbeat IPC: 1.82636 cumulative IPC: 1.58682 (Simulation time: 0 hr 58 min 9 sec) 
 Total Blocks : 524288 Invalid Blocks : 265143
Heartbeat CPU 0 instructions: 180000003 cycles: 112580663 heartbeat IPC: 1.83554 cumulative IPC: 1.59885 (Simulation time: 1 hr 2 min 7 sec) 
 Total Blocks : 524288 Invalid Blocks : 260182
Heartbeat CPU 0 instructions: 190000000 cycles: 118010846 heartbeat IPC: 1.84156 cumulative IPC: 1.61002 (Simulation time: 1 hr 5 min 55 sec) 
 Total Blocks : 524288 Invalid Blocks : 256498
Heartbeat CPU 0 instructions: 200000000 cycles: 123374726 heartbeat IPC: 1.86432 cumulative IPC: 1.62108 (Simulation time: 1 hr 9 min 54 sec) 
 Total Blocks : 524288 Invalid Blocks : 252683

Warmup complete CPU 0 instructions: 200000004 cycles: 123374727 (Simulation time: 1 hr 9 min 54 sec) 

Heartbeat CPU 0 instructions: 210000000 cycles: 137541531 heartbeat IPC: 0.705875 cumulative IPC: 0.705875 (Simulation time: 1 hr 15 min 39 sec) 
 Total Blocks : 524288 Invalid Blocks : 247771
Heartbeat CPU 0 instructions: 220000000 cycles: 151851097 heartbeat IPC: 0.698833 cumulative IPC: 0.702337 (Simulation time: 1 hr 21 min 2 sec) 
 Total Blocks : 524288 Invalid Blocks : 241560
Heartbeat CPU 0 instructions: 230000000 cycles: 166060901 heartbeat IPC: 0.703739 cumulative IPC: 0.702804 (Simulation time: 1 hr 26 min 11 sec) 
 Total Blocks : 524288 Invalid Blocks : 237150
Heartbeat CPU 0 instructions: 240000002 cycles: 179987697 heartbeat IPC: 0.71804 cumulative IPC: 0.706552 (Simulation time: 1 hr 31 min 18 sec) 
 Total Blocks : 524288 Invalid Blocks : 233292
Heartbeat CPU 0 instructions: 250000003 cycles: 194087387 heartbeat IPC: 0.709236 cumulative IPC: 0.707087 (Simulation time: 1 hr 36 min 14 sec) 
 Total Blocks : 524288 Invalid Blocks : 229744
Heartbeat CPU 0 instructions: 260000002 cycles: 208228261 heartbeat IPC: 0.70717 cumulative IPC: 0.707101 (Simulation time: 1 hr 41 min 11 sec) 
 Total Blocks : 524288 Invalid Blocks : 225786
Heartbeat CPU 0 instructions: 270000000 cycles: 222449401 heartbeat IPC: 0.703178 cumulative IPC: 0.706538 (Simulation time: 1 hr 46 min 2 sec) 
 Total Blocks : 524288 Invalid Blocks : 220946
Heartbeat CPU 0 instructions: 280000001 cycles: 236625004 heartbeat IPC: 0.705437 cumulative IPC: 0.7064 (Simulation time: 1 hr 50 min 50 sec) 
 Total Blocks : 524288 Invalid Blocks : 217633
Heartbeat CPU 0 instructions: 290000000 cycles: 250719223 heartbeat IPC: 0.709511 cumulative IPC: 0.706744 (Simulation time: 1 hr 55 min 37 sec) 
 Total Blocks : 524288 Invalid Blocks : 214250
Heartbeat CPU 0 instructions: 300000001 cycles: 265039748 heartbeat IPC: 0.698299 cumulative IPC: 0.705891 (Simulation time: 2 hr 0 min 27 sec) 
 Total Blocks : 524288 Invalid Blocks : 210243
Heartbeat CPU 0 instructions: 310000002 cycles: 279208932 heartbeat IPC: 0.705757 cumulative IPC: 0.705878 (Simulation time: 2 hr 5 min 6 sec) 
 Total Blocks : 524288 Invalid Blocks : 207044
Heartbeat CPU 0 instructions: 320000003 cycles: 293579706 heartbeat IPC: 0.695857 cumulative IPC: 0.705032 (Simulation time: 2 hr 9 min 43 sec) 
 Total Blocks : 524288 Invalid Blocks : 203662
Heartbeat CPU 0 instructions: 330000000 cycles: 307894518 heartbeat IPC: 0.698577 cumulative IPC: 0.704531 (Simulation time: 2 hr 13 min 45 sec) 
 Total Blocks : 524288 Invalid Blocks : 198961
Heartbeat CPU 0 instructions: 340000002 cycles: 322425673 heartbeat IPC: 0.688177 cumulative IPC: 0.703337 (Simulation time: 2 hr 17 min 49 sec) 
 Total Blocks : 524288 Invalid Blocks : 195280
Heartbeat CPU 0 instructions: 350000001 cycles: 336795718 heartbeat IPC: 0.695892 cumulative IPC: 0.702836 (Simulation time: 2 hr 21 min 47 sec) 
 Total Blocks : 524288 Invalid Blocks : 192050
Heartbeat CPU 0 instructions: 360000001 cycles: 351234762 heartbeat IPC: 0.692567 cumulative IPC: 0.702185 (Simulation time: 2 hr 25 min 34 sec) 
 Total Blocks : 524288 Invalid Blocks : 188342
Heartbeat CPU 0 instructions: 370000000 cycles: 365752565 heartbeat IPC: 0.688809 cumulative IPC: 0.701384 (Simulation time: 2 hr 29 min 17 sec) 
 Total Blocks : 524288 Invalid Blocks : 185130
Heartbeat CPU 0 instructions: 380000000 cycles: 380454787 heartbeat IPC: 0.680169 cumulative IPC: 0.700171 (Simulation time: 2 hr 32 min 47 sec) 
 Total Blocks : 524288 Invalid Blocks : 181283
Heartbeat CPU 0 instructions: 390000000 cycles: 395149637 heartbeat IPC: 0.680511 cumulative IPC: 0.699108 (Simulation time: 2 hr 36 min 13 sec) 
 Total Blocks : 524288 Invalid Blocks : 177695
Heartbeat CPU 0 instructions: 400000002 cycles: 409997075 heartbeat IPC: 0.673517 cumulative IPC: 0.697782 (Simulation time: 2 hr 39 min 37 sec) 
 Total Blocks : 524288 Invalid Blocks : 173372
Finished CPU 0 instructions: 200000002 cycles: 286622349 cumulative IPC: 0.697782 (Simulation time: 2 hr 39 min 37 sec) 

CPU 0 Branch Prediction Accuracy: 98.7969% MPKI: 1.79561 Average ROB Occupancy at Mispredict: 259.777

ChampSim completed all CPUs

Region of Interest Statistics

CPU 0 cumulative IPC: 0.697782 instructions: 200000002 cycles: 286622349
ITLB TOTAL     ACCESS: 31316165  HIT: 31316165  MISS:     0  HIT %:   100  MISS %:     0  AVERAGE MISS PENALTY: 0
ITLB LOAD      ACCESS: 31316165  HIT: 31316165  MISS:     0  HIT %:   100  MISS %:     0  AVERAGE MISS PENALTY: 0
ITLB RFO       ACCESS:     0  HIT:     0  MISS:     0  HIT %:     0  MISS %:     0  AVERAGE MISS PENALTY: 0
ITLB PREFETCH  ACCESS:     0  HIT:     0  MISS:     0  HIT %:     0  MISS %:     0  AVERAGE MISS PENALTY: 0
ITLB WRITEBACK ACCESS:     0  HIT:     0  MISS:     0  HIT %:     0  MISS %:     0  AVERAGE MISS PENALTY: 0
ITLB PREFETCH  REQUESTED:     0  ISSUED:     0  USEFUL:     0  USELESS:     0
 USEFUL LOAD PREFETCHES:          0 PREFETCH ISSUED TO LOWER LEVEL:          0  ACCURACY: -nan
 TIMELY PREFETCHES:          0 LATE PREFETCHES: 0 DROPPED PREFETCHES: 0
ITLB AVERAGE MISS LATENCY: -nan cycles
DTLB TOTAL     ACCESS: 55256293  HIT: 48708535  MISS: 6547758  HIT %: 88.1502  MISS %: 11.8498  AVERAGE MISS PENALTY: 10.8516
DTLB LOAD      ACCESS: 54213252  HIT: 47965192  MISS: 6248060  HIT %: 88.475  MISS %: 11.525  AVERAGE MISS PENALTY: 10.6502
DTLB RFO       ACCESS: 1043041  HIT: 743343  MISS: 299698  HIT %: 71.2669  MISS %: 28.7331  AVERAGE MISS PENALTY: 15.0496
DTLB PREFETCH  ACCESS:     0  HIT:     0  MISS:     0  HIT %:     0  MISS %:     0  AVERAGE MISS PENALTY: 0
DTLB WRITEBACK ACCESS:     0  HIT:     0  MISS:     0  HIT %:     0  MISS %:     0  AVERAGE MISS PENALTY: 0
DTLB PREFETCH  REQUESTED:     0  ISSUED:     0  USEFUL:     0  USELESS:     0
 USEFUL LOAD PREFETCHES:          0 PREFETCH ISSUED TO LOWER LEVEL:          0  ACCURACY: -nan
 TIMELY PREFETCHES:          0 LATE PREFETCHES: 0 DROPPED PREFETCHES: 0
DTLB AVERAGE MISS LATENCY: 10.8516 cycles
STLB TOTAL     ACCESS: 6547758  HIT: 6452669  MISS: 95089  HIT %: 98.5478  MISS %: 1.45224  AVERAGE MISS PENALTY: 100
STLB LOAD      ACCESS: 6248060  HIT: 6171034  MISS: 77026  HIT %: 98.7672  MISS %: 1.2328  AVERAGE MISS PENALTY: 100
STLB RFO       ACCESS: 299698  HIT: 281635  MISS: 18063  HIT %: 93.9729  MISS %: 6.02707  AVERAGE MISS PENALTY: 100
STLB PREFETCH  ACCESS:     0  HIT:     0  MISS:     0  HIT %:     0  MISS %:     0  AVERAGE MISS PENALTY: 0
STLB WRITEBACK ACCESS:     0  HIT:     0  MISS:     0  HIT %:     0  MISS %:     0  AVERAGE MISS PENALTY: 0
STLB PREFETCH  REQUESTED:     0  ISSUED:     0  USEFUL:     0  USELESS:     0
 USEFUL LOAD PREFETCHES:          0 PREFETCH ISSUED TO LOWER LEVEL:          0  ACCURACY: -nan
 TIMELY PREFETCHES:          0 LATE PREFETCHES: 0 DROPPED PREFETCHES: 0
STLB AVERAGE MISS LATENCY: 100 cycles
L1D TOTAL     ACCESS: 84636127  HIT: 42152375  MISS: 42483752  HIT %: 49.8042  MISS %: 50.1958  AVERAGE MISS PENALTY: 724797
L1D LOAD      ACCESS: 45700642  HIT: 35863799  MISS: 9836843  HIT %: 78.4755  MISS %: 21.5245  AVERAGE MISS PENALTY: 3.13007e+06
L1D RFO       ACCESS: 1049193  HIT: 727291  MISS: 321902  HIT %: 69.3191  MISS %: 30.6809  AVERAGE MISS PENALTY: 65.6373
L1D PREFETCH  ACCESS: 37886292  HIT: 5561285  MISS: 32325007  HIT %: 14.6789  MISS %: 85.3211  AVERAGE MISS PENALTY: 65.0982
L1D WRITEBACK ACCESS:     0  HIT:     0  MISS:     0  HIT %:     0  MISS %:     0  AVERAGE MISS PENALTY: 0
L1D PREFETCH  REQUESTED: 60679736  ISSUED: 38962194  USEFUL: 1252178  USELESS: 31072846
 USEFUL LOAD PREFETCHES:    1252178 PREFETCH ISSUED TO LOWER LEVEL:   96971337  ACCURACY: 1.29129
 TIMELY PREFETCHES:    1252178 LATE PREFETCHES: 296569 DROPPED PREFETCHES: 21717542
L1D AVERAGE MISS LATENCY: 46.4914 cycles
L1I TOTAL     ACCESS: 45269240  HIT: 45269240  MISS:     0  HIT %:   100  MISS %:     0  AVERAGE MISS PENALTY: 0
L1I LOAD      ACCESS: 45269240  HIT: 45269240  MISS:     0  HIT %:   100  MISS %:     0  AVERAGE MISS PENALTY: 0
L1I RFO       ACCESS:     0  HIT:     0  MISS:     0  HIT %:     0  MISS %:     0  AVERAGE MISS PENALTY: 0
L1I PREFETCH  ACCESS:     0  HIT:     0  MISS:     0  HIT %:     0  MISS %:     0  AVERAGE MISS PENALTY: 0
L1I WRITEBACK ACCESS:     0  HIT:     0  MISS:     0  HIT %:     0  MISS %:     0  AVERAGE MISS PENALTY: 0
L1I PREFETCH  REQUESTED:     0  ISSUED:     0  USEFUL:     0  USELESS:     0
 USEFUL LOAD PREFETCHES:          0 PREFETCH ISSUED TO LOWER LEVEL:          0  ACCURACY: -nan
 TIMELY PREFETCHES:          0 LATE PREFETCHES: 0 DROPPED PREFETCHES: 0
L1I AVERAGE MISS LATENCY: -nan cycles
L2C TOTAL     ACCESS: 78694570  HIT: 12495447  MISS: 66199123  HIT %: 15.8784  MISS %: 84.1216  AVERAGE MISS PENALTY: 414742
L2C LOAD      ACCESS: 9813905  HIT: 1169052  MISS: 8644853  HIT %: 11.9122  MISS %: 88.0878  AVERAGE MISS PENALTY: 3.17569e+06
L2C RFO       ACCESS: 321895  HIT: 84630  MISS: 237265  HIT %: 26.2912  MISS %: 73.7088  AVERAGE MISS PENALTY: 68.339
L2C PREFETCH  ACCESS: 67657461  HIT: 10340758  MISS: 57316703  HIT %: 15.284  MISS %: 84.716  AVERAGE MISS PENALTY: 36.7924
L2C WRITEBACK ACCESS: 901309  HIT: 901007  MISS:   302  HIT %: 99.9665  MISS %: 0.0335068  AVERAGE MISS PENALTY: 0
L2C PREFETCH  REQUESTED: 143250377  ISSUED: 131780025  USEFUL: 516889  USELESS: 56799871
 USEFUL LOAD PREFETCHES:     516889 PREFETCH ISSUED TO LOWER LEVEL:   60813945  ACCURACY: 0.849951
 TIMELY PREFETCHES:     516889 LATE PREFETCHES: 614866 DROPPED PREFETCHES: 11470352
L2C AVERAGE MISS LATENCY: 36.8742 cycles
LLC0 TOTAL     ACCESS: 8509917  HIT: 8323334  MISS: 186583  HIT %: 97.8075  MISS %: 2.19254  AVERAGE MISS PENALTY: 105.987
LLC0 LOAD      ACCESS: 1112310  HIT: 1084127  MISS: 28183  HIT %: 97.4663  MISS %: 2.53374  AVERAGE MISS PENALTY: 136.99
LLC0 RFO       ACCESS: 29988  HIT: 25579  MISS:  4409  HIT %: 85.2975  MISS %: 14.7025  AVERAGE MISS PENALTY: 218.62
LLC0 PREFETCH  ACCESS: 7280942  HIT: 7126955  MISS: 153987  HIT %: 97.8851  MISS %: 2.11493  AVERAGE MISS PENALTY: 97.0911
LLC0 WRITEBACK ACCESS: 86677  HIT: 86673  MISS:     4  HIT %: 99.9954  MISS %: 0.00461483  AVERAGE MISS PENALTY: 0
LLC0 PREFETCH  REQUESTED:     0  ISSUED:     0  USEFUL:  2862  USELESS: 142387
 USEFUL LOAD PREFETCHES:       2862 PREFETCH ISSUED TO LOWER LEVEL:     153987  ACCURACY: 1.8586
 TIMELY PREFETCHES:       2862 LATE PREFETCHES: 0 DROPPED PREFETCHES: 0
LLC0 AVERAGE MISS LATENCY: 105.987 cycles
Deadblocks : 27002 Deadblock percentage : 95.8095

LLC1 TOTAL     ACCESS: 8500331  HIT: 8313330  MISS: 187001  HIT %: 97.8001  MISS %: 2.19993  AVERAGE MISS PENALTY: 106.503
LLC1 LOAD      ACCESS: 1058899  HIT: 1049189  MISS:  9710  HIT %: 99.083  MISS %: 0.91699  AVERAGE MISS PENALTY: 165.469
LLC1 RFO       ACCESS: 29924  HIT: 25478  MISS:  4446  HIT %: 85.1424  MISS %: 14.8576  AVERAGE MISS PENALTY: 224.655
LLC1 PREFETCH  ACCESS: 7324987  HIT: 7152146  MISS: 172841  HIT %: 97.6404  MISS %: 2.35961  AVERAGE MISS PENALTY: 100.154
LLC1 WRITEBACK ACCESS: 86521  HIT: 86517  MISS:     4  HIT %: 99.9954  MISS %: 0.00462316  AVERAGE MISS PENALTY: 0
LLC1 PREFETCH  REQUESTED:     0  ISSUED:     0  USEFUL:  2664  USELESS: 161092
 USEFUL LOAD PREFETCHES:       2664 PREFETCH ISSUED TO LOWER LEVEL:     172841  ACCURACY: 1.5413
 TIMELY PREFETCHES:       2664 LATE PREFETCHES: 0 DROPPED PREFETCHES: 0
LLC1 AVERAGE MISS LATENCY: 106.503 cycles
LLC2 TOTAL     ACCESS: 8488123  HIT: 8300536  MISS: 187587  HIT %: 97.79  MISS %: 2.20999  AVERAGE MISS PENALTY: 107.464
LLC2 LOAD      ACCESS: 1079589  HIT: 1069790  MISS:  9799  HIT %: 99.0923  MISS %: 0.90766  AVERAGE MISS PENALTY: 165.81
LLC2 RFO       ACCESS: 29881  HIT: 25308  MISS:  4573  HIT %: 84.696  MISS %: 15.304  AVERAGE MISS PENALTY: 219.346
LLC2 PREFETCH  ACCESS: 7292354  HIT: 7119145  MISS: 173209  HIT %: 97.6248  MISS %: 2.37521  AVERAGE MISS PENALTY: 101.213
LLC2 WRITEBACK ACCESS: 86299  HIT: 86293  MISS:     6  HIT %: 99.993  MISS %: 0.00695257  AVERAGE MISS PENALTY: 0
LLC2 PREFETCH  REQUESTED:     0  ISSUED:     0  USEFUL:  2724  USELESS: 161909
 USEFUL LOAD PREFETCHES:       2724 PREFETCH ISSUED TO LOWER LEVEL:     173210  ACCURACY: 1.57266
 TIMELY PREFETCHES:       2724 LATE PREFETCHES: 0 DROPPED PREFETCHES: 0
LLC2 AVERAGE MISS LATENCY: 107.464 cycles
LLC3 TOTAL     ACCESS: 8460022  HIT: 8271438  MISS: 188584  HIT %: 97.7709  MISS %: 2.22912  AVERAGE MISS PENALTY: 109.105
LLC3 LOAD      ACCESS: 1080220  HIT: 1070416  MISS:  9804  HIT %: 99.0924  MISS %: 0.907593  AVERAGE MISS PENALTY: 167.118
LLC3 RFO       ACCESS: 29719  HIT: 25039  MISS:  4680  HIT %: 84.2525  MISS %: 15.7475  AVERAGE MISS PENALTY: 222.056
LLC3 PREFETCH  ACCESS: 7263937  HIT: 7089844  MISS: 174093  HIT %: 97.6033  MISS %: 2.39668  AVERAGE MISS PENALTY: 102.806
LLC3 WRITEBACK ACCESS: 86146  HIT: 86139  MISS:     7  HIT %: 99.9919  MISS %: 0.00812574  AVERAGE MISS PENALTY: 0
LLC3 PREFETCH  REQUESTED:     0  ISSUED:     0  USEFUL:  2994  USELESS: 162311
 USEFUL LOAD PREFETCHES:       2994 PREFETCH ISSUED TO LOWER LEVEL:     174093  ACCURACY: 1.71977
 TIMELY PREFETCHES:       2994 LATE PREFETCHES: 0 DROPPED PREFETCHES: 0
LLC3 AVERAGE MISS LATENCY: 109.105 cycles
LLC4 TOTAL     ACCESS: 8390845  HIT: 8201839  MISS: 189006  HIT %: 97.7475  MISS %: 2.25253  AVERAGE MISS PENALTY: 109.576
LLC4 LOAD      ACCESS: 1050350  HIT: 1040523  MISS:  9827  HIT %: 99.0644  MISS %: 0.935593  AVERAGE MISS PENALTY: 166.702
LLC4 RFO       ACCESS: 29679  HIT: 25045  MISS:  4634  HIT %: 84.3863  MISS %: 15.6137  AVERAGE MISS PENALTY: 216.605
LLC4 PREFETCH  ACCESS: 7224855  HIT: 7050321  MISS: 174534  HIT %: 97.5843  MISS %: 2.41574  AVERAGE MISS PENALTY: 103.525
LLC4 WRITEBACK ACCESS: 85961  HIT: 85950  MISS:    11  HIT %: 99.9872  MISS %: 0.0127965  AVERAGE MISS PENALTY: 0
LLC4 PREFETCH  REQUESTED:     0  ISSUED:     0  USEFUL:  3112  USELESS: 162270
 USEFUL LOAD PREFETCHES:       3112 PREFETCH ISSUED TO LOWER LEVEL:     174534  ACCURACY: 1.78303
 TIMELY PREFETCHES:       3112 LATE PREFETCHES: 0 DROPPED PREFETCHES: 0
LLC4 AVERAGE MISS LATENCY: 109.576 cycles
LLC5 TOTAL     ACCESS: 8327488  HIT: 8137771  MISS: 189717  HIT %: 97.7218  MISS %: 2.2782  AVERAGE MISS PENALTY: 110.419
LLC5 LOAD      ACCESS: 1102394  HIT: 1092683  MISS:  9711  HIT %: 99.1191  MISS %: 0.880901  AVERAGE MISS PENALTY: 166.734
LLC5 RFO       ACCESS: 29495  HIT: 24880  MISS:  4615  HIT %: 84.3533  MISS %: 15.6467  AVERAGE MISS PENALTY: 214.87
LLC5 PREFETCH  ACCESS: 7110549  HIT: 6935166  MISS: 175383  HIT %: 97.5335  MISS %: 2.46652  AVERAGE MISS PENALTY: 104.557
LLC5 WRITEBACK ACCESS: 85050  HIT: 85042  MISS:     8  HIT %: 99.9906  MISS %: 0.00940623  AVERAGE MISS PENALTY: 0
LLC5 PREFETCH  REQUESTED:     0  ISSUED:     0  USEFUL:  3693  USELESS: 162192
 USEFUL LOAD PREFETCHES:       3693 PREFETCH ISSUED TO LOWER LEVEL:     175383  ACCURACY: 2.10568
 TIMELY PREFETCHES:       3693 LATE PREFETCHES: 0 DROPPED PREFETCHES: 0
LLC5 AVERAGE MISS LATENCY: 110.419 cycles
LLC6 TOTAL     ACCESS: 8174726  HIT: 7983438  MISS: 191288  HIT %: 97.66  MISS %: 2.33999  AVERAGE MISS PENALTY: 112.206
LLC6 LOAD      ACCESS: 1068120  HIT: 1058062  MISS: 10058  HIT %: 99.0583  MISS %: 0.941654  AVERAGE MISS PENALTY: 167.813
LLC6 RFO       ACCESS: 29259  HIT: 24719  MISS:  4540  HIT %: 84.4834  MISS %: 15.5166  AVERAGE MISS PENALTY: 213.102
LLC6 PREFETCH  ACCESS: 6993057  HIT: 6816397  MISS: 176660  HIT %: 97.4738  MISS %: 2.52622  AVERAGE MISS PENALTY: 106.467
LLC6 WRITEBACK ACCESS: 84290  HIT: 84260  MISS:    30  HIT %: 99.9644  MISS %: 0.0355914  AVERAGE MISS PENALTY: 0
LLC6 PREFETCH  REQUESTED:     0  ISSUED:     0  USEFUL:  4742  USELESS: 162091
 USEFUL LOAD PREFETCHES:       4742 PREFETCH ISSUED TO LOWER LEVEL:     176660  ACCURACY: 2.68425
 TIMELY PREFETCHES:       4742 LATE PREFETCHES: 0 DROPPED PREFETCHES: 0
LLC6 AVERAGE MISS LATENCY: 112.206 cycles
LLC7 TOTAL     ACCESS: 8035732  HIT: 7843260  MISS: 192472  HIT %: 97.6048  MISS %: 2.3952  AVERAGE MISS PENALTY: 113.555
LLC7 LOAD      ACCESS: 1061064  HIT: 1050709  MISS: 10355  HIT %: 99.0241  MISS %: 0.975907  AVERAGE MISS PENALTY: 168.483
LLC7 RFO       ACCESS: 29293  HIT: 24814  MISS:  4479  HIT %: 84.7097  MISS %: 15.2903  AVERAGE MISS PENALTY: 213.51
LLC7 PREFETCH  ACCESS: 6857927  HIT: 6680316  MISS: 177611  HIT %: 97.4101  MISS %: 2.58986  AVERAGE MISS PENALTY: 107.849
LLC7 WRITEBACK ACCESS: 87448  HIT: 87421  MISS:    27  HIT %: 99.9691  MISS %: 0.0308755  AVERAGE MISS PENALTY: 0
LLC7 PREFETCH  REQUESTED:     0  ISSUED:     0  USEFUL:  5432  USELESS: 161772
 USEFUL LOAD PREFETCHES:       5432 PREFETCH ISSUED TO LOWER LEVEL:     177611  ACCURACY: 3.05837
 TIMELY PREFETCHES:       5432 LATE PREFETCHES: 0 DROPPED PREFETCHES: 0
LLC7 AVERAGE MISS LATENCY: 113.555 cycles
ROI Average ROB Stall Cycles:	7.28111
ROI Total ROB Stalls Cycles:	244457523
ROI TOTAL ROB counter      :	33574197
ROI Average Load ROB Stall Cycles:	29.4069
ROI Total Load ROB Stalls Cycle  :	157410259
ROI Total Load ROB stalls Counter:	5352826
Major fault: 0 Minor fault: 58341

