
*** ChampSim Multicore Out-of-Order Simulator ***

Warmup Instructions: 200000000
Simulation Instructions: 200000000
Number of CPUs: 1
threads:1

L1I Configuration:
L1I_SET:64
L1I_WAY:8
L1I_RQ_SIZE:64
L1I_WQ_SIZE:64
L1I_PQ_SIZE:8
L1I_MSHR_SIZE:8

L1D Configuration:
L1D_SET:64
L1D_WAY:12
L1D_RQ_SIZE:64
L1D_WQ_SIZE:64
L1D_PQ_SIZE:8
L1D_MSHR_SIZE:16

L2C Configuration:
L2C_SET:1024
L2C_WAY:8
L2C_RQ_SIZE:32
L2C_WQ_SIZE:32
L2C_PQ_SIZE:16
L2C_MSHR_SIZE:32

LLC Configuration:
LLC_SET:4096
LLC_WAY:16
LLC SLICES:8
LLC_RQ_SIZE:64
LLC_WQ_SIZE:64
LLC_PQ_SIZE:32
LLC_MSHR_SIZE:64

Interconnect OFF
Attacker deprioritize is: OFF
Off-chip DRAM Size: 4096 MB Channels: 1 Width: 64-bit Data Rate: 3200 MT/s
PAGE SIZE in KB: 4.000000 
PAGE SIZE in MB: 0.003906 
PAGE offset in bits: 12 
CEASER-S_LLC:0
MIRAGE : 0
CEASER_LATENCY:3
REMAP : OFF
Partitions : 1
Multi-Step : OFF
BFS : OFF

CPU 0 runs /home/anubhav/gap/sssp-10.trace.gz
CPU 0 Bimodal branch predictor
Initialize Hawkeye state
Initialize Hawkeye state
Initialize Hawkeye state
Initialize Hawkeye state
Initialize Hawkeye state
Initialize Hawkeye state
Initialize Hawkeye state
Initialize Hawkeye state
Heartbeat CPU 0 instructions: 10000000 cycles: 7182686 heartbeat IPC: 1.39224 cumulative IPC: 1.39224 (Simulation time: 0 hr 1 min 58 sec) 
 Total Blocks : 524288 Invalid Blocks : 418112
Heartbeat CPU 0 instructions: 20000000 cycles: 15449360 heartbeat IPC: 1.20968 cumulative IPC: 1.29455 (Simulation time: 0 hr 4 min 9 sec) 
 Total Blocks : 524288 Invalid Blocks : 377475
Heartbeat CPU 0 instructions: 30000002 cycles: 23056356 heartbeat IPC: 1.31458 cumulative IPC: 1.30116 (Simulation time: 0 hr 6 min 40 sec) 
 Total Blocks : 524288 Invalid Blocks : 357459
Heartbeat CPU 0 instructions: 40000003 cycles: 30126289 heartbeat IPC: 1.41444 cumulative IPC: 1.32774 (Simulation time: 0 hr 9 min 11 sec) 
 Total Blocks : 524288 Invalid Blocks : 344236
Heartbeat CPU 0 instructions: 50000000 cycles: 36871389 heartbeat IPC: 1.48256 cumulative IPC: 1.35607 (Simulation time: 0 hr 11 min 44 sec) 
 Total Blocks : 524288 Invalid Blocks : 333386
Heartbeat CPU 0 instructions: 60000003 cycles: 43320721 heartbeat IPC: 1.55055 cumulative IPC: 1.38502 (Simulation time: 0 hr 14 min 25 sec) 
 Total Blocks : 524288 Invalid Blocks : 324008
Heartbeat CPU 0 instructions: 70000003 cycles: 49563370 heartbeat IPC: 1.60188 cumulative IPC: 1.41233 (Simulation time: 0 hr 17 min 5 sec) 
 Total Blocks : 524288 Invalid Blocks : 316594
Heartbeat CPU 0 instructions: 80000000 cycles: 55642903 heartbeat IPC: 1.64486 cumulative IPC: 1.43774 (Simulation time: 0 hr 20 min 7 sec) 
 Total Blocks : 524288 Invalid Blocks : 309226
Heartbeat CPU 0 instructions: 90000000 cycles: 61781317 heartbeat IPC: 1.62909 cumulative IPC: 1.45675 (Simulation time: 0 hr 22 min 54 sec) 
 Total Blocks : 524288 Invalid Blocks : 302303
Heartbeat CPU 0 instructions: 100000002 cycles: 67633636 heartbeat IPC: 1.70872 cumulative IPC: 1.47855 (Simulation time: 0 hr 25 min 59 sec) 
 Total Blocks : 524288 Invalid Blocks : 295754
Heartbeat CPU 0 instructions: 110000000 cycles: 73408636 heartbeat IPC: 1.7316 cumulative IPC: 1.49846 (Simulation time: 0 hr 28 min 55 sec) 
 Total Blocks : 524288 Invalid Blocks : 290403
Heartbeat CPU 0 instructions: 120000002 cycles: 79157936 heartbeat IPC: 1.73934 cumulative IPC: 1.51596 (Simulation time: 0 hr 31 min 58 sec) 
 Total Blocks : 524288 Invalid Blocks : 285037
Heartbeat CPU 0 instructions: 130000001 cycles: 84794734 heartbeat IPC: 1.77406 cumulative IPC: 1.53311 (Simulation time: 0 hr 35 min 4 sec) 
 Total Blocks : 524288 Invalid Blocks : 280179
Heartbeat CPU 0 instructions: 140000001 cycles: 90395909 heartbeat IPC: 1.78534 cumulative IPC: 1.54874 (Simulation time: 0 hr 38 min 6 sec) 
 Total Blocks : 524288 Invalid Blocks : 275485
Heartbeat CPU 0 instructions: 150000003 cycles: 95992666 heartbeat IPC: 1.78675 cumulative IPC: 1.56262 (Simulation time: 0 hr 41 min 15 sec) 
 Total Blocks : 524288 Invalid Blocks : 271394
Heartbeat CPU 0 instructions: 160000000 cycles: 101498665 heartbeat IPC: 1.8162 cumulative IPC: 1.57638 (Simulation time: 0 hr 44 min 16 sec) 
 Total Blocks : 524288 Invalid Blocks : 266410
Heartbeat CPU 0 instructions: 170000001 cycles: 106985206 heartbeat IPC: 1.82264 cumulative IPC: 1.589 (Simulation time: 0 hr 47 min 26 sec) 
 Total Blocks : 524288 Invalid Blocks : 261391
Heartbeat CPU 0 instructions: 180000000 cycles: 112459048 heartbeat IPC: 1.82687 cumulative IPC: 1.60058 (Simulation time: 0 hr 50 min 37 sec) 
 Total Blocks : 524288 Invalid Blocks : 256073
Heartbeat CPU 0 instructions: 190000000 cycles: 117882959 heartbeat IPC: 1.84369 cumulative IPC: 1.61177 (Simulation time: 0 hr 53 min 47 sec) 
 Total Blocks : 524288 Invalid Blocks : 252616
Heartbeat CPU 0 instructions: 200000002 cycles: 123231597 heartbeat IPC: 1.86964 cumulative IPC: 1.62296 (Simulation time: 0 hr 57 min 2 sec) 
 Total Blocks : 524288 Invalid Blocks : 249401

Warmup complete CPU 0 instructions: 200000002 cycles: 123231597 (Simulation time: 0 hr 57 min 2 sec) 

Heartbeat CPU 0 instructions: 210000003 cycles: 137559716 heartbeat IPC: 0.697928 cumulative IPC: 0.697928 (Simulation time: 1 hr 2 min 5 sec) 
 Total Blocks : 524288 Invalid Blocks : 244502
Heartbeat CPU 0 instructions: 220000000 cycles: 151762239 heartbeat IPC: 0.7041 cumulative IPC: 0.701001 (Simulation time: 1 hr 7 min 16 sec) 
 Total Blocks : 524288 Invalid Blocks : 238917
Heartbeat CPU 0 instructions: 230000000 cycles: 165832160 heartbeat IPC: 0.710736 cumulative IPC: 0.704216 (Simulation time: 1 hr 12 min 29 sec) 
 Total Blocks : 524288 Invalid Blocks : 234799
Heartbeat CPU 0 instructions: 240000000 cycles: 179918445 heartbeat IPC: 0.70991 cumulative IPC: 0.705631 (Simulation time: 1 hr 17 min 41 sec) 
 Total Blocks : 524288 Invalid Blocks : 231409
Heartbeat CPU 0 instructions: 250000000 cycles: 194034597 heartbeat IPC: 0.708408 cumulative IPC: 0.706185 (Simulation time: 1 hr 23 min 1 sec) 
 Total Blocks : 524288 Invalid Blocks : 227372
Heartbeat CPU 0 instructions: 260000001 cycles: 208067221 heartbeat IPC: 0.712625 cumulative IPC: 0.70725 (Simulation time: 1 hr 28 min 14 sec) 
 Total Blocks : 524288 Invalid Blocks : 224061
Heartbeat CPU 0 instructions: 270000003 cycles: 222326002 heartbeat IPC: 0.701322 cumulative IPC: 0.706397 (Simulation time: 1 hr 33 min 33 sec) 
 Total Blocks : 524288 Invalid Blocks : 219127
Heartbeat CPU 0 instructions: 280000000 cycles: 236364721 heartbeat IPC: 0.712315 cumulative IPC: 0.707132 (Simulation time: 1 hr 38 min 29 sec) 
 Total Blocks : 524288 Invalid Blocks : 215954
Heartbeat CPU 0 instructions: 290000003 cycles: 250516575 heartbeat IPC: 0.706621 cumulative IPC: 0.707075 (Simulation time: 1 hr 43 min 23 sec) 
 Total Blocks : 524288 Invalid Blocks : 212473
Heartbeat CPU 0 instructions: 300000001 cycles: 264711770 heartbeat IPC: 0.704464 cumulative IPC: 0.706813 (Simulation time: 1 hr 48 min 11 sec) 
 Total Blocks : 524288 Invalid Blocks : 208554
Heartbeat CPU 0 instructions: 310000003 cycles: 278801880 heartbeat IPC: 0.709718 cumulative IPC: 0.707076 (Simulation time: 1 hr 53 min 3 sec) 
 Total Blocks : 524288 Invalid Blocks : 205227
Heartbeat CPU 0 instructions: 320000001 cycles: 293040882 heartbeat IPC: 0.702296 cumulative IPC: 0.706675 (Simulation time: 1 hr 57 min 53 sec) 
 Total Blocks : 524288 Invalid Blocks : 201695
Heartbeat CPU 0 instructions: 330000000 cycles: 307280273 heartbeat IPC: 0.702277 cumulative IPC: 0.706335 (Simulation time: 2 hr 2 min 43 sec) 
 Total Blocks : 524288 Invalid Blocks : 197918
Heartbeat CPU 0 instructions: 340000000 cycles: 321696946 heartbeat IPC: 0.693641 cumulative IPC: 0.705413 (Simulation time: 2 hr 7 min 9 sec) 
 Total Blocks : 524288 Invalid Blocks : 194563
Heartbeat CPU 0 instructions: 350000001 cycles: 335994186 heartbeat IPC: 0.699436 cumulative IPC: 0.705011 (Simulation time: 2 hr 11 min 31 sec) 
 Total Blocks : 524288 Invalid Blocks : 191131
Heartbeat CPU 0 instructions: 360000001 cycles: 350471638 heartbeat IPC: 0.690729 cumulative IPC: 0.704101 (Simulation time: 2 hr 15 min 29 sec) 
 Total Blocks : 524288 Invalid Blocks : 187888
Heartbeat CPU 0 instructions: 370000000 cycles: 364998567 heartbeat IPC: 0.688377 cumulative IPC: 0.703156 (Simulation time: 2 hr 19 min 25 sec) 
 Total Blocks : 524288 Invalid Blocks : 184425
Heartbeat CPU 0 instructions: 380000002 cycles: 379673090 heartbeat IPC: 0.681453 cumulative IPC: 0.701914 (Simulation time: 2 hr 23 min 23 sec) 
 Total Blocks : 524288 Invalid Blocks : 180211
Heartbeat CPU 0 instructions: 390000000 cycles: 394295941 heartbeat IPC: 0.683861 cumulative IPC: 0.700941 (Simulation time: 2 hr 27 min 9 sec) 
 Total Blocks : 524288 Invalid Blocks : 176879
Heartbeat CPU 0 instructions: 400000003 cycles: 409037663 heartbeat IPC: 0.678347 cumulative IPC: 0.699775 (Simulation time: 2 hr 30 min 45 sec) 
 Total Blocks : 524288 Invalid Blocks : 173319
Finished CPU 0 instructions: 200000001 cycles: 285806066 cumulative IPC: 0.699775 (Simulation time: 2 hr 30 min 45 sec) 

CPU 0 Branch Prediction Accuracy: 98.7894% MPKI: 1.80684 Average ROB Occupancy at Mispredict: 260.004

ChampSim completed all CPUs

Region of Interest Statistics

CPU 0 cumulative IPC: 0.699775 instructions: 200000001 cycles: 285806066
ITLB TOTAL     ACCESS: 31222952  HIT: 31222952  MISS:     0  HIT %:   100  MISS %:     0  AVERAGE MISS PENALTY: 0
ITLB LOAD      ACCESS: 31222952  HIT: 31222952  MISS:     0  HIT %:   100  MISS %:     0  AVERAGE MISS PENALTY: 0
ITLB RFO       ACCESS:     0  HIT:     0  MISS:     0  HIT %:     0  MISS %:     0  AVERAGE MISS PENALTY: 0
ITLB PREFETCH  ACCESS:     0  HIT:     0  MISS:     0  HIT %:     0  MISS %:     0  AVERAGE MISS PENALTY: 0
ITLB WRITEBACK ACCESS:     0  HIT:     0  MISS:     0  HIT %:     0  MISS %:     0  AVERAGE MISS PENALTY: 0
ITLB PREFETCH  REQUESTED:     0  ISSUED:     0  USEFUL:     0  USELESS:     0
 USEFUL LOAD PREFETCHES:          0 PREFETCH ISSUED TO LOWER LEVEL:          0  ACCURACY: -nan
 TIMELY PREFETCHES:          0 LATE PREFETCHES: 0 DROPPED PREFETCHES: 0
ITLB AVERAGE MISS LATENCY: -nan cycles
DTLB TOTAL     ACCESS: 55243805  HIT: 48747445  MISS: 6496360  HIT %: 88.2406  MISS %: 11.7594  AVERAGE MISS PENALTY: 10.8429
DTLB LOAD      ACCESS: 54192539  HIT: 47998355  MISS: 6194184  HIT %: 88.57  MISS %: 11.43  AVERAGE MISS PENALTY: 10.6384
DTLB RFO       ACCESS: 1051266  HIT: 749090  MISS: 302176  HIT %: 71.256  MISS %: 28.744  AVERAGE MISS PENALTY: 15.0347
DTLB PREFETCH  ACCESS:     0  HIT:     0  MISS:     0  HIT %:     0  MISS %:     0  AVERAGE MISS PENALTY: 0
DTLB WRITEBACK ACCESS:     0  HIT:     0  MISS:     0  HIT %:     0  MISS %:     0  AVERAGE MISS PENALTY: 0
DTLB PREFETCH  REQUESTED:     0  ISSUED:     0  USEFUL:     0  USELESS:     0
 USEFUL LOAD PREFETCHES:          0 PREFETCH ISSUED TO LOWER LEVEL:          0  ACCURACY: -nan
 TIMELY PREFETCHES:          0 LATE PREFETCHES: 0 DROPPED PREFETCHES: 0
DTLB AVERAGE MISS LATENCY: 10.8429 cycles
STLB TOTAL     ACCESS: 6496360  HIT: 6402577  MISS: 93783  HIT %: 98.5564  MISS %: 1.44362  AVERAGE MISS PENALTY: 100
STLB LOAD      ACCESS: 6194184  HIT: 6118564  MISS: 75620  HIT %: 98.7792  MISS %: 1.22082  AVERAGE MISS PENALTY: 100
STLB RFO       ACCESS: 302176  HIT: 284013  MISS: 18163  HIT %: 93.9893  MISS %: 6.01074  AVERAGE MISS PENALTY: 100
STLB PREFETCH  ACCESS:     0  HIT:     0  MISS:     0  HIT %:     0  MISS %:     0  AVERAGE MISS PENALTY: 0
STLB WRITEBACK ACCESS:     0  HIT:     0  MISS:     0  HIT %:     0  MISS %:     0  AVERAGE MISS PENALTY: 0
STLB PREFETCH  REQUESTED:     0  ISSUED:     0  USEFUL:     0  USELESS:     0
 USEFUL LOAD PREFETCHES:          0 PREFETCH ISSUED TO LOWER LEVEL:          0  ACCURACY: -nan
 TIMELY PREFETCHES:          0 LATE PREFETCHES: 0 DROPPED PREFETCHES: 0
STLB AVERAGE MISS LATENCY: 100 cycles
L1D TOTAL     ACCESS: 84590187  HIT: 42204543  MISS: 42385644  HIT %: 49.893  MISS %: 50.107  AVERAGE MISS PENALTY: 800014
L1D LOAD      ACCESS: 45704851  HIT: 35894031  MISS: 9810820  HIT %: 78.5344  MISS %: 21.4656  AVERAGE MISS PENALTY: 3.45602e+06
L1D RFO       ACCESS: 1057556  HIT: 733036  MISS: 324520  HIT %: 69.3142  MISS %: 30.6858  AVERAGE MISS PENALTY: 65.6125
L1D PREFETCH  ACCESS: 37827780  HIT: 5577476  MISS: 32250304  HIT %: 14.7444  MISS %: 85.2556  AVERAGE MISS PENALTY: 84.1953
L1D WRITEBACK ACCESS:     0  HIT:     0  MISS:     0  HIT %:     0  MISS %:     0  AVERAGE MISS PENALTY: 0
L1D PREFETCH  REQUESTED: 60741309  ISSUED: 38998965  USEFUL: 1262360  USELESS: 30987940
 USEFUL LOAD PREFETCHES:    1262360 PREFETCH ISSUED TO LOWER LEVEL:   96793978  ACCURACY: 1.30417
 TIMELY PREFETCHES:    1262360 LATE PREFETCHES: 325710 DROPPED PREFETCHES: 21742344
L1D AVERAGE MISS LATENCY: 46.465 cycles
L1I TOTAL     ACCESS: 45141127  HIT: 45141127  MISS:     0  HIT %:   100  MISS %:     0  AVERAGE MISS PENALTY: 0
L1I LOAD      ACCESS: 45141127  HIT: 45141127  MISS:     0  HIT %:   100  MISS %:     0  AVERAGE MISS PENALTY: 0
L1I RFO       ACCESS:     0  HIT:     0  MISS:     0  HIT %:     0  MISS %:     0  AVERAGE MISS PENALTY: 0
L1I PREFETCH  ACCESS:     0  HIT:     0  MISS:     0  HIT %:     0  MISS %:     0  AVERAGE MISS PENALTY: 0
L1I WRITEBACK ACCESS:     0  HIT:     0  MISS:     0  HIT %:     0  MISS %:     0  AVERAGE MISS PENALTY: 0
L1I PREFETCH  REQUESTED:     0  ISSUED:     0  USEFUL:     0  USELESS:     0
 USEFUL LOAD PREFETCHES:          0 PREFETCH ISSUED TO LOWER LEVEL:          0  ACCURACY: -nan
 TIMELY PREFETCHES:          0 LATE PREFETCHES: 0 DROPPED PREFETCHES: 0
L1I AVERAGE MISS LATENCY: -nan cycles
L2C TOTAL     ACCESS: 78473219  HIT: 12470234  MISS: 66002985  HIT %: 15.8911  MISS %: 84.1089  AVERAGE MISS PENALTY: 451283
L2C LOAD      ACCESS: 9784596  HIT: 1165710  MISS: 8618886  HIT %: 11.9137  MISS %: 88.0863  AVERAGE MISS PENALTY: 3.45564e+06
L2C RFO       ACCESS: 324507  HIT: 86446  MISS: 238061  HIT %: 26.6392  MISS %: 73.3608  AVERAGE MISS PENALTY: 68.6479
L2C PREFETCH  ACCESS: 67469731  HIT: 10324029  MISS: 57145702  HIT %: 15.3017  MISS %: 84.6983  AVERAGE MISS PENALTY: 38.937
L2C WRITEBACK ACCESS: 894385  HIT: 894049  MISS:   336  HIT %: 99.9624  MISS %: 0.0375677  AVERAGE MISS PENALTY: 0
L2C PREFETCH  REQUESTED: 143002756  ISSUED: 131519069  USEFUL: 515769  USELESS: 56629934
 USEFUL LOAD PREFETCHES:     515769 PREFETCH ISSUED TO LOWER LEVEL:   60729403  ACCURACY: 0.84929
 TIMELY PREFETCHES:     515769 LATE PREFETCHES: 656303 DROPPED PREFETCHES: 11483687
L2C AVERAGE MISS LATENCY: 36.865 cycles
LLC0 TOTAL     ACCESS: 8468397  HIT: 8282517  MISS: 185880  HIT %: 97.805  MISS %: 2.19498  AVERAGE MISS PENALTY: 105.897
LLC0 LOAD      ACCESS: 1082850  HIT: 1054819  MISS: 28031  HIT %: 97.4114  MISS %: 2.58863  AVERAGE MISS PENALTY: 136.912
LLC0 RFO       ACCESS: 30108  HIT: 25720  MISS:  4388  HIT %: 85.4258  MISS %: 14.5742  AVERAGE MISS PENALTY: 220.063
LLC0 PREFETCH  ACCESS: 7270797  HIT: 7117339  MISS: 153458  HIT %: 97.8894  MISS %: 2.11061  AVERAGE MISS PENALTY: 96.9693
LLC0 WRITEBACK ACCESS: 84642  HIT: 84639  MISS:     3  HIT %: 99.9965  MISS %: 0.00354434  AVERAGE MISS PENALTY: 0
LLC0 PREFETCH  REQUESTED:     0  ISSUED:     0  USEFUL:  2824  USELESS: 142114
 USEFUL LOAD PREFETCHES:       2824 PREFETCH ISSUED TO LOWER LEVEL:     153458  ACCURACY: 1.84024
 TIMELY PREFETCHES:       2824 LATE PREFETCHES: 0 DROPPED PREFETCHES: 0
LLC0 AVERAGE MISS LATENCY: 105.897 cycles
Deadblocks : 26826 Deadblock percentage : 95.7012

LLC1 TOTAL     ACCESS: 8482497  HIT: 8296570  MISS: 185927  HIT %: 97.8081  MISS %: 2.19189  AVERAGE MISS PENALTY: 106.223
LLC1 LOAD      ACCESS: 1087392  HIT: 1077923  MISS:  9469  HIT %: 99.1292  MISS %: 0.870799  AVERAGE MISS PENALTY: 165.848
LLC1 RFO       ACCESS: 29858  HIT: 25434  MISS:  4424  HIT %: 85.1832  MISS %: 14.8168  AVERAGE MISS PENALTY: 225.931
LLC1 PREFETCH  ACCESS: 7280361  HIT: 7108334  MISS: 172027  HIT %: 97.6371  MISS %: 2.36289  AVERAGE MISS PENALTY: 99.8673
LLC1 WRITEBACK ACCESS: 84886  HIT: 84879  MISS:     7  HIT %: 99.9918  MISS %: 0.00824635  AVERAGE MISS PENALTY: 0
LLC1 PREFETCH  REQUESTED:     0  ISSUED:     0  USEFUL:  2708  USELESS: 160944
 USEFUL LOAD PREFETCHES:       2708 PREFETCH ISSUED TO LOWER LEVEL:     172027  ACCURACY: 1.57417
 TIMELY PREFETCHES:       2708 LATE PREFETCHES: 0 DROPPED PREFETCHES: 0
LLC1 AVERAGE MISS LATENCY: 106.223 cycles
LLC2 TOTAL     ACCESS: 8455099  HIT: 8268511  MISS: 186588  HIT %: 97.7932  MISS %: 2.20681  AVERAGE MISS PENALTY: 107.355
LLC2 LOAD      ACCESS: 1086873  HIT: 1077363  MISS:  9510  HIT %: 99.125  MISS %: 0.874987  AVERAGE MISS PENALTY: 166.481
LLC2 RFO       ACCESS: 30059  HIT: 25460  MISS:  4599  HIT %: 84.7001  MISS %: 15.2999  AVERAGE MISS PENALTY: 223.568
LLC2 PREFETCH  ACCESS: 7253195  HIT: 7080728  MISS: 172467  HIT %: 97.6222  MISS %: 2.37781  AVERAGE MISS PENALTY: 101.003
LLC2 WRITEBACK ACCESS: 84972  HIT: 84960  MISS:    12  HIT %: 99.9859  MISS %: 0.0141223  AVERAGE MISS PENALTY: 0
LLC2 PREFETCH  REQUESTED:     0  ISSUED:     0  USEFUL:  2549  USELESS: 161836
 USEFUL LOAD PREFETCHES:       2549 PREFETCH ISSUED TO LOWER LEVEL:     172467  ACCURACY: 1.47796
 TIMELY PREFETCHES:       2549 LATE PREFETCHES: 0 DROPPED PREFETCHES: 0
LLC2 AVERAGE MISS LATENCY: 107.355 cycles
LLC3 TOTAL     ACCESS: 8412988  HIT: 8225143  MISS: 187845  HIT %: 97.7672  MISS %: 2.2328  AVERAGE MISS PENALTY: 108.907
LLC3 LOAD      ACCESS: 1060088  HIT: 1050433  MISS:  9655  HIT %: 99.0892  MISS %: 0.910773  AVERAGE MISS PENALTY: 166.565
LLC3 RFO       ACCESS: 29809  HIT: 25139  MISS:  4670  HIT %: 84.3336  MISS %: 15.6664  AVERAGE MISS PENALTY: 222.452
LLC3 PREFETCH  ACCESS: 7238639  HIT: 7065128  MISS: 173511  HIT %: 97.603  MISS %: 2.39701  AVERAGE MISS PENALTY: 102.648
LLC3 WRITEBACK ACCESS: 84452  HIT: 84443  MISS:     9  HIT %: 99.9893  MISS %: 0.0106569  AVERAGE MISS PENALTY: 0
LLC3 PREFETCH  REQUESTED:     0  ISSUED:     0  USEFUL:  3011  USELESS: 162266
 USEFUL LOAD PREFETCHES:       3011 PREFETCH ISSUED TO LOWER LEVEL:     173511  ACCURACY: 1.73534
 TIMELY PREFETCHES:       3011 LATE PREFETCHES: 0 DROPPED PREFETCHES: 0
LLC3 AVERAGE MISS LATENCY: 108.907 cycles
LLC4 TOTAL     ACCESS: 8355869  HIT: 8167888  MISS: 187981  HIT %: 97.7503  MISS %: 2.24969  AVERAGE MISS PENALTY: 109.184
LLC4 LOAD      ACCESS: 1055384  HIT: 1045715  MISS:  9669  HIT %: 99.0838  MISS %: 0.916159  AVERAGE MISS PENALTY: 166.971
LLC4 RFO       ACCESS: 29824  HIT: 25175  MISS:  4649  HIT %: 84.4119  MISS %: 15.5881  AVERAGE MISS PENALTY: 221.517
LLC4 PREFETCH  ACCESS: 7186521  HIT: 7012867  MISS: 173654  HIT %: 97.5836  MISS %: 2.41638  AVERAGE MISS PENALTY: 102.965
LLC4 WRITEBACK ACCESS: 84140  HIT: 84131  MISS:     9  HIT %: 99.9893  MISS %: 0.0106965  AVERAGE MISS PENALTY: 0
LLC4 PREFETCH  REQUESTED:     0  ISSUED:     0  USEFUL:  2883  USELESS: 162171
 USEFUL LOAD PREFETCHES:       2883 PREFETCH ISSUED TO LOWER LEVEL:     173655  ACCURACY: 1.66019
 TIMELY PREFETCHES:       2883 LATE PREFETCHES: 0 DROPPED PREFETCHES: 0
LLC4 AVERAGE MISS LATENCY: 109.184 cycles
LLC5 TOTAL     ACCESS: 8291462  HIT: 8102598  MISS: 188864  HIT %: 97.7222  MISS %: 2.27781  AVERAGE MISS PENALTY: 110.256
LLC5 LOAD      ACCESS: 1075750  HIT: 1066143  MISS:  9607  HIT %: 99.1069  MISS %: 0.893051  AVERAGE MISS PENALTY: 167.868
LLC5 RFO       ACCESS: 29598  HIT: 25020  MISS:  4578  HIT %: 84.5327  MISS %: 15.4673  AVERAGE MISS PENALTY: 217.938
LLC5 PREFETCH  ACCESS: 7102946  HIT: 6928284  MISS: 174662  HIT %: 97.541  MISS %: 2.45901  AVERAGE MISS PENALTY: 104.276
LLC5 WRITEBACK ACCESS: 83168  HIT: 83151  MISS:    17  HIT %: 99.9796  MISS %: 0.0204406  AVERAGE MISS PENALTY: 0
LLC5 PREFETCH  REQUESTED:     0  ISSUED:     0  USEFUL:  3684  USELESS: 161969
 USEFUL LOAD PREFETCHES:       3684 PREFETCH ISSUED TO LOWER LEVEL:     174662  ACCURACY: 2.10922
 TIMELY PREFETCHES:       3684 LATE PREFETCHES: 0 DROPPED PREFETCHES: 0
LLC5 AVERAGE MISS LATENCY: 110.256 cycles
LLC6 TOTAL     ACCESS: 8167183  HIT: 7976988  MISS: 190195  HIT %: 97.6712  MISS %: 2.32877  AVERAGE MISS PENALTY: 111.899
LLC6 LOAD      ACCESS: 1061539  HIT: 1051698  MISS:  9841  HIT %: 99.0729  MISS %: 0.92705  AVERAGE MISS PENALTY: 168.864
LLC6 RFO       ACCESS: 29526  HIT: 25001  MISS:  4525  HIT %: 84.6745  MISS %: 15.3255  AVERAGE MISS PENALTY: 215.677
LLC6 PREFETCH  ACCESS: 6993348  HIT: 6817538  MISS: 175810  HIT %: 97.486  MISS %: 2.51396  AVERAGE MISS PENALTY: 106.051
LLC6 WRITEBACK ACCESS: 82770  HIT: 82751  MISS:    19  HIT %: 99.977  MISS %: 0.0229552  AVERAGE MISS PENALTY: 0
LLC6 PREFETCH  REQUESTED:     0  ISSUED:     0  USEFUL:  4577  USELESS: 161717
 USEFUL LOAD PREFETCHES:       4577 PREFETCH ISSUED TO LOWER LEVEL:     175810  ACCURACY: 2.60338
 TIMELY PREFETCHES:       4577 LATE PREFETCHES: 0 DROPPED PREFETCHES: 0
LLC6 AVERAGE MISS LATENCY: 111.899 cycles
LLC7 TOTAL     ACCESS: 8040865  HIT: 7849292  MISS: 191573  HIT %: 97.6175  MISS %: 2.38249  AVERAGE MISS PENALTY: 113.359
LLC7 LOAD      ACCESS: 1074585  HIT: 1064494  MISS: 10091  HIT %: 99.0609  MISS %: 0.93906  AVERAGE MISS PENALTY: 169.276
LLC7 RFO       ACCESS: 29271  HIT: 24715  MISS:  4556  HIT %: 84.4351  MISS %: 15.5649  AVERAGE MISS PENALTY: 219.164
LLC7 PREFETCH  ACCESS: 6854314  HIT: 6677410  MISS: 176904  HIT %: 97.4191  MISS %: 2.58091  AVERAGE MISS PENALTY: 107.459
LLC7 WRITEBACK ACCESS: 82695  HIT: 82673  MISS:    22  HIT %: 99.9734  MISS %: 0.0266038  AVERAGE MISS PENALTY: 0
LLC7 PREFETCH  REQUESTED:     0  ISSUED:     0  USEFUL:  5324  USELESS: 161753
 USEFUL LOAD PREFETCHES:       5324 PREFETCH ISSUED TO LOWER LEVEL:     176904  ACCURACY: 3.00954
 TIMELY PREFETCHES:       5324 LATE PREFETCHES: 0 DROPPED PREFETCHES: 0
LLC7 AVERAGE MISS LATENCY: 113.359 cycles
ROI Average ROB Stall Cycles:	7.25897
ROI Total ROB Stalls Cycles:	243598111
ROI TOTAL ROB counter      :	33558204
ROI Average Load ROB Stall Cycles:	29.4024
ROI Total Load ROB Stalls Cycle  :	156671737
ROI Total Load ROB stalls Counter:	5328544
Major fault: 0 Minor fault: 58068

