
*** ChampSim Multicore Out-of-Order Simulator ***

Warmup Instructions: 200000000
Simulation Instructions: 200000000
Number of CPUs: 8
threads:1

L1I Configuration:
L1I_SET:64
L1I_WAY:8
L1I_RQ_SIZE:64
L1I_WQ_SIZE:64
L1I_PQ_SIZE:8
L1I_MSHR_SIZE:8

L1D Configuration:
L1D_SET:64
L1D_WAY:12
L1D_RQ_SIZE:64
L1D_WQ_SIZE:64
L1D_PQ_SIZE:8
L1D_MSHR_SIZE:16

L2C Configuration:
L2C_SET:1024
L2C_WAY:8
L2C_RQ_SIZE:32
L2C_WQ_SIZE:32
L2C_PQ_SIZE:16
L2C_MSHR_SIZE:32

LLC Configuration:
LLC_SET:2048
LLC_WAY:16
LLC SLICES:8
LLC_RQ_SIZE:64
LLC_WQ_SIZE:64
LLC_PQ_SIZE:32
LLC_MSHR_SIZE:64

Interconnect OFF
Attacker deprioritize is: OFF
Off-chip DRAM Size: 8192 MB Channels: 2 Width: 64-bit Data Rate: 3200 MT/s
PAGE SIZE in KB: 4.000000 
PAGE SIZE in MB: 0.003906 
PAGE offset in bits: 12 
CEASER-S_LLC:0
MIRAGE : 0
CEASER_LATENCY:3
REMAP : OFF
Partitions : 1
Multi-Step : OFF
BFS : OFF

CPU 0 runs /home/anubhav/spec_2017/603.bwaves_s-891B.champsimtrace.xz
CPU 1 runs /home/anubhav/spec_2017/603.bwaves_s-891B.champsimtrace.xz
CPU 2 runs /home/anubhav/spec_2017/603.bwaves_s-891B.champsimtrace.xz
CPU 3 runs /home/anubhav/spec_2017/603.bwaves_s-891B.champsimtrace.xz
CPU 4 runs /home/anubhav/spec_2017/603.bwaves_s-891B.champsimtrace.xz
CPU 5 runs /home/anubhav/spec_2017/603.bwaves_s-891B.champsimtrace.xz
CPU 6 runs /home/anubhav/spec_2017/603.bwaves_s-891B.champsimtrace.xz
CPU 7 runs /home/anubhav/spec_2017/603.bwaves_s-891B.champsimtrace.xz
CPU 0 Bimodal branch predictor
Initialize Hawkeye state
Initialize Hawkeye state
Initialize Hawkeye state
Initialize Hawkeye state
Initialize Hawkeye state
Initialize Hawkeye state
Initialize Hawkeye state
Initialize Hawkeye state
CPU 1 Bimodal branch predictor
Initialize Hawkeye state
Initialize Hawkeye state
Initialize Hawkeye state
Initialize Hawkeye state
Initialize Hawkeye state
Initialize Hawkeye state
Initialize Hawkeye state
Initialize Hawkeye state
CPU 2 Bimodal branch predictor
Initialize Hawkeye state
Initialize Hawkeye state
Initialize Hawkeye state
Initialize Hawkeye state
Initialize Hawkeye state
Initialize Hawkeye state
Initialize Hawkeye state
Initialize Hawkeye state
CPU 3 Bimodal branch predictor
Initialize Hawkeye state
Initialize Hawkeye state
Initialize Hawkeye state
Initialize Hawkeye state
Initialize Hawkeye state
Initialize Hawkeye state
Initialize Hawkeye state
Initialize Hawkeye state
CPU 4 Bimodal branch predictor
Initialize Hawkeye state
Initialize Hawkeye state
Initialize Hawkeye state
Initialize Hawkeye state
Initialize Hawkeye state
Initialize Hawkeye state
Initialize Hawkeye state
Initialize Hawkeye state
CPU 5 Bimodal branch predictor
Initialize Hawkeye state
Initialize Hawkeye state
Initialize Hawkeye state
Initialize Hawkeye state
Initialize Hawkeye state
Initialize Hawkeye state
Initialize Hawkeye state
Initialize Hawkeye state
CPU 6 Bimodal branch predictor
Initialize Hawkeye state
Initialize Hawkeye state
Initialize Hawkeye state
Initialize Hawkeye state
Initialize Hawkeye state
Initialize Hawkeye state
Initialize Hawkeye state
Initialize Hawkeye state
CPU 7 Bimodal branch predictor
Initialize Hawkeye state
Initialize Hawkeye state
Initialize Hawkeye state
Initialize Hawkeye state
Initialize Hawkeye state
Initialize Hawkeye state
Initialize Hawkeye state
Initialize Hawkeye state
Heartbeat CPU 0 instructions: 10000003 cycles: 5049716 heartbeat IPC: 1.98031 cumulative IPC: 1.98031 (Simulation time: 2 hr 51 min 40 sec) 
 Total Blocks : 262144 Invalid Blocks : 3245
Heartbeat CPU 1 instructions: 10000003 cycles: 5049733 heartbeat IPC: 1.9803 cumulative IPC: 1.9803 (Simulation time: 2 hr 52 min 17 sec) 
 Total Blocks : 262144 Invalid Blocks : 3244
Heartbeat CPU 2 instructions: 10000003 cycles: 5049753 heartbeat IPC: 1.9803 cumulative IPC: 1.9803 (Simulation time: 2 hr 52 min 19 sec) 
 Total Blocks : 262144 Invalid Blocks : 3244
Heartbeat CPU 3 instructions: 10000003 cycles: 5049765 heartbeat IPC: 1.98029 cumulative IPC: 1.98029 (Simulation time: 2 hr 52 min 20 sec) 
 Total Blocks : 262144 Invalid Blocks : 3244
Heartbeat CPU 4 instructions: 10000003 cycles: 5049777 heartbeat IPC: 1.98029 cumulative IPC: 1.98029 (Simulation time: 2 hr 52 min 20 sec) 
 Total Blocks : 262144 Invalid Blocks : 3244
Heartbeat CPU 5 instructions: 10000003 cycles: 5049790 heartbeat IPC: 1.98028 cumulative IPC: 1.98028 (Simulation time: 2 hr 52 min 20 sec) 
 Total Blocks : 262144 Invalid Blocks : 3244
Heartbeat CPU 6 instructions: 10000003 cycles: 5049802 heartbeat IPC: 1.98028 cumulative IPC: 1.98028 (Simulation time: 2 hr 52 min 20 sec) 
 Total Blocks : 262144 Invalid Blocks : 3244
Heartbeat CPU 7 instructions: 10000003 cycles: 5049819 heartbeat IPC: 1.98027 cumulative IPC: 1.98027 (Simulation time: 2 hr 52 min 20 sec) 
 Total Blocks : 262144 Invalid Blocks : 3244
Heartbeat CPU 0 instructions: 20000003 cycles: 10099252 heartbeat IPC: 1.98038 cumulative IPC: 1.98035 (Simulation time: 6 hr 5 min 0 sec) 
 Total Blocks : 262144 Invalid Blocks : 214
Heartbeat CPU 1 instructions: 20000003 cycles: 10099269 heartbeat IPC: 1.98038 cumulative IPC: 1.98034 (Simulation time: 6 hr 5 min 6 sec) 
 Total Blocks : 262144 Invalid Blocks : 214
Heartbeat CPU 2 instructions: 20000003 cycles: 10099299 heartbeat IPC: 1.98038 cumulative IPC: 1.98034 (Simulation time: 6 hr 5 min 6 sec) 
 Total Blocks : 262144 Invalid Blocks : 214
Heartbeat CPU 3 instructions: 20000003 cycles: 10099313 heartbeat IPC: 1.98038 cumulative IPC: 1.98033 (Simulation time: 6 hr 5 min 6 sec) 
 Total Blocks : 262144 Invalid Blocks : 214
Heartbeat CPU 4 instructions: 20000003 cycles: 10099325 heartbeat IPC: 1.98038 cumulative IPC: 1.98033 (Simulation time: 6 hr 5 min 6 sec) 
 Total Blocks : 262144 Invalid Blocks : 214
Heartbeat CPU 5 instructions: 20000003 cycles: 10099337 heartbeat IPC: 1.98038 cumulative IPC: 1.98033 (Simulation time: 6 hr 5 min 7 sec) 
 Total Blocks : 262144 Invalid Blocks : 214
Heartbeat CPU 6 instructions: 20000003 cycles: 10099350 heartbeat IPC: 1.98038 cumulative IPC: 1.98033 (Simulation time: 6 hr 5 min 7 sec) 
 Total Blocks : 262144 Invalid Blocks : 214
Heartbeat CPU 7 instructions: 20000003 cycles: 10099365 heartbeat IPC: 1.98038 cumulative IPC: 1.98032 (Simulation time: 6 hr 5 min 7 sec) 
 Total Blocks : 262144 Invalid Blocks : 214
Heartbeat CPU 0 instructions: 30000003 cycles: 15148767 heartbeat IPC: 1.98039 cumulative IPC: 1.98036 (Simulation time: 10 hr 3 min 22 sec) 
 Total Blocks : 262144 Invalid Blocks : 19
Heartbeat CPU 1 instructions: 30000003 cycles: 15148784 heartbeat IPC: 1.98039 cumulative IPC: 1.98036 (Simulation time: 10 hr 3 min 44 sec) 
 Total Blocks : 262144 Invalid Blocks : 19
Heartbeat CPU 2 instructions: 30000003 cycles: 15148825 heartbeat IPC: 1.98038 cumulative IPC: 1.98035 (Simulation time: 10 hr 3 min 44 sec) 
 Total Blocks : 262144 Invalid Blocks : 19
Heartbeat CPU 3 instructions: 30000003 cycles: 15148838 heartbeat IPC: 1.98038 cumulative IPC: 1.98035 (Simulation time: 10 hr 3 min 44 sec) 
 Total Blocks : 262144 Invalid Blocks : 19
Heartbeat CPU 4 instructions: 30000003 cycles: 15148850 heartbeat IPC: 1.98038 cumulative IPC: 1.98035 (Simulation time: 10 hr 3 min 45 sec) 
 Total Blocks : 262144 Invalid Blocks : 19
Heartbeat CPU 5 instructions: 30000003 cycles: 15148863 heartbeat IPC: 1.98038 cumulative IPC: 1.98035 (Simulation time: 10 hr 3 min 45 sec) 
 Total Blocks : 262144 Invalid Blocks : 19
Heartbeat CPU 6 instructions: 30000003 cycles: 15148873 heartbeat IPC: 1.98039 cumulative IPC: 1.98035 (Simulation time: 10 hr 3 min 45 sec) 
 Total Blocks : 262144 Invalid Blocks : 19
Heartbeat CPU 7 instructions: 30000003 cycles: 15148898 heartbeat IPC: 1.98038 cumulative IPC: 1.98034 (Simulation time: 10 hr 3 min 45 sec) 
 Total Blocks : 262144 Invalid Blocks : 19
Heartbeat CPU 0 instructions: 40000000 cycles: 20198662 heartbeat IPC: 1.98024 cumulative IPC: 1.98033 (Simulation time: 14 hr 2 min 54 sec) 
 Total Blocks : 262144 Invalid Blocks : 0
Heartbeat CPU 1 instructions: 40000000 cycles: 20198679 heartbeat IPC: 1.98024 cumulative IPC: 1.98033 (Simulation time: 14 hr 2 min 59 sec) 
 Total Blocks : 262144 Invalid Blocks : 0
Heartbeat CPU 2 instructions: 40000000 cycles: 20198734 heartbeat IPC: 1.98023 cumulative IPC: 1.98032 (Simulation time: 14 hr 2 min 59 sec) 
 Total Blocks : 262144 Invalid Blocks : 0
Heartbeat CPU 3 instructions: 40000000 cycles: 20198746 heartbeat IPC: 1.98023 cumulative IPC: 1.98032 (Simulation time: 14 hr 2 min 59 sec) 
 Total Blocks : 262144 Invalid Blocks : 0
Heartbeat CPU 4 instructions: 40000000 cycles: 20198758 heartbeat IPC: 1.98023 cumulative IPC: 1.98032 (Simulation time: 14 hr 2 min 59 sec) 
 Total Blocks : 262144 Invalid Blocks : 0
Heartbeat CPU 5 instructions: 40000000 cycles: 20198775 heartbeat IPC: 1.98023 cumulative IPC: 1.98032 (Simulation time: 14 hr 2 min 59 sec) 
 Total Blocks : 262144 Invalid Blocks : 0
Heartbeat CPU 6 instructions: 40000000 cycles: 20198787 heartbeat IPC: 1.98023 cumulative IPC: 1.98032 (Simulation time: 14 hr 2 min 59 sec) 
 Total Blocks : 262144 Invalid Blocks : 0
Heartbeat CPU 7 instructions: 40000000 cycles: 20198802 heartbeat IPC: 1.98024 cumulative IPC: 1.98032 (Simulation time: 14 hr 2 min 59 sec) 
 Total Blocks : 262144 Invalid Blocks : 0
Heartbeat CPU 0 instructions: 50000001 cycles: 27403976 heartbeat IPC: 1.38786 cumulative IPC: 1.82455 (Simulation time: 16 hr 36 min 8 sec) 
 Total Blocks : 262144 Invalid Blocks : 0
Heartbeat CPU 1 instructions: 50000001 cycles: 27403994 heartbeat IPC: 1.38786 cumulative IPC: 1.82455 (Simulation time: 16 hr 36 min 31 sec) 
 Total Blocks : 262144 Invalid Blocks : 0
Heartbeat CPU 2 instructions: 50000001 cycles: 27404050 heartbeat IPC: 1.38786 cumulative IPC: 1.82455 (Simulation time: 16 hr 36 min 32 sec) 
 Total Blocks : 262144 Invalid Blocks : 0
Heartbeat CPU 3 instructions: 50000001 cycles: 27404061 heartbeat IPC: 1.38786 cumulative IPC: 1.82455 (Simulation time: 16 hr 36 min 32 sec) 
 Total Blocks : 262144 Invalid Blocks : 0
Heartbeat CPU 4 instructions: 50000001 cycles: 27404079 heartbeat IPC: 1.38786 cumulative IPC: 1.82455 (Simulation time: 16 hr 36 min 32 sec) 
 Total Blocks : 262144 Invalid Blocks : 0
Heartbeat CPU 5 instructions: 50000001 cycles: 27404092 heartbeat IPC: 1.38786 cumulative IPC: 1.82455 (Simulation time: 16 hr 36 min 32 sec) 
 Total Blocks : 262144 Invalid Blocks : 0
Heartbeat CPU 6 instructions: 50000001 cycles: 27404106 heartbeat IPC: 1.38786 cumulative IPC: 1.82454 (Simulation time: 16 hr 36 min 32 sec) 
 Total Blocks : 262144 Invalid Blocks : 0
Heartbeat CPU 7 instructions: 50000001 cycles: 27404120 heartbeat IPC: 1.38786 cumulative IPC: 1.82454 (Simulation time: 16 hr 36 min 32 sec) 
 Total Blocks : 262144 Invalid Blocks : 0
Heartbeat CPU 0 instructions: 60000002 cycles: 35519431 heartbeat IPC: 1.23222 cumulative IPC: 1.68922 (Simulation time: 18 hr 31 min 46 sec) 
 Total Blocks : 262144 Invalid Blocks : 0
Heartbeat CPU 1 instructions: 60000002 cycles: 35519449 heartbeat IPC: 1.23222 cumulative IPC: 1.68922 (Simulation time: 18 hr 31 min 51 sec) 
 Total Blocks : 262144 Invalid Blocks : 0
Heartbeat CPU 2 instructions: 60000002 cycles: 35519510 heartbeat IPC: 1.23222 cumulative IPC: 1.68921 (Simulation time: 18 hr 31 min 51 sec) 
 Total Blocks : 262144 Invalid Blocks : 0
Heartbeat CPU 3 instructions: 60000002 cycles: 35519516 heartbeat IPC: 1.23222 cumulative IPC: 1.68921 (Simulation time: 18 hr 31 min 51 sec) 
 Total Blocks : 262144 Invalid Blocks : 0
Heartbeat CPU 4 instructions: 60000002 cycles: 35519534 heartbeat IPC: 1.23222 cumulative IPC: 1.68921 (Simulation time: 18 hr 31 min 51 sec) 
 Total Blocks : 262144 Invalid Blocks : 0
Heartbeat CPU 5 instructions: 60000002 cycles: 35519547 heartbeat IPC: 1.23222 cumulative IPC: 1.68921 (Simulation time: 18 hr 31 min 51 sec) 
 Total Blocks : 262144 Invalid Blocks : 0
Heartbeat CPU 6 instructions: 60000002 cycles: 35519561 heartbeat IPC: 1.23222 cumulative IPC: 1.68921 (Simulation time: 18 hr 31 min 51 sec) 
 Total Blocks : 262144 Invalid Blocks : 0
Heartbeat CPU 7 instructions: 60000002 cycles: 35519575 heartbeat IPC: 1.23222 cumulative IPC: 1.68921 (Simulation time: 18 hr 31 min 51 sec) 
 Total Blocks : 262144 Invalid Blocks : 0
Heartbeat CPU 0 instructions: 70000000 cycles: 43635024 heartbeat IPC: 1.2322 cumulative IPC: 1.60422 (Simulation time: 20 hr 30 min 10 sec) 
 Total Blocks : 262144 Invalid Blocks : 0
Heartbeat CPU 1 instructions: 70000000 cycles: 43635042 heartbeat IPC: 1.2322 cumulative IPC: 1.60422 (Simulation time: 20 hr 30 min 15 sec) 
 Total Blocks : 262144 Invalid Blocks : 0
Heartbeat CPU 2 instructions: 70000000 cycles: 43635103 heartbeat IPC: 1.2322 cumulative IPC: 1.60421 (Simulation time: 20 hr 30 min 15 sec) 
 Total Blocks : 262144 Invalid Blocks : 0
Heartbeat CPU 3 instructions: 70000000 cycles: 43635109 heartbeat IPC: 1.2322 cumulative IPC: 1.60421 (Simulation time: 20 hr 30 min 15 sec) 
 Total Blocks : 262144 Invalid Blocks : 0
Heartbeat CPU 4 instructions: 70000000 cycles: 43635127 heartbeat IPC: 1.2322 cumulative IPC: 1.60421 (Simulation time: 20 hr 30 min 15 sec) 
 Total Blocks : 262144 Invalid Blocks : 0
Heartbeat CPU 5 instructions: 70000000 cycles: 43635140 heartbeat IPC: 1.2322 cumulative IPC: 1.60421 (Simulation time: 20 hr 30 min 15 sec) 
 Total Blocks : 262144 Invalid Blocks : 0
Heartbeat CPU 6 instructions: 70000000 cycles: 43635154 heartbeat IPC: 1.2322 cumulative IPC: 1.60421 (Simulation time: 20 hr 30 min 15 sec) 
 Total Blocks : 262144 Invalid Blocks : 0
Heartbeat CPU 7 instructions: 70000000 cycles: 43635168 heartbeat IPC: 1.2322 cumulative IPC: 1.60421 (Simulation time: 20 hr 30 min 15 sec) 
 Total Blocks : 262144 Invalid Blocks : 0
Heartbeat CPU 0 instructions: 80000001 cycles: 51750426 heartbeat IPC: 1.23222 cumulative IPC: 1.54588 (Simulation time: 22 hr 33 min 10 sec) 
 Total Blocks : 262144 Invalid Blocks : 0
Heartbeat CPU 1 instructions: 80000001 cycles: 51750444 heartbeat IPC: 1.23222 cumulative IPC: 1.54588 (Simulation time: 22 hr 33 min 12 sec) 
 Total Blocks : 262144 Invalid Blocks : 0
Heartbeat CPU 2 instructions: 80000001 cycles: 51750506 heartbeat IPC: 1.23222 cumulative IPC: 1.54588 (Simulation time: 22 hr 33 min 12 sec) 
 Total Blocks : 262144 Invalid Blocks : 0
Heartbeat CPU 3 instructions: 80000001 cycles: 51750511 heartbeat IPC: 1.23222 cumulative IPC: 1.54588 (Simulation time: 22 hr 33 min 12 sec) 
 Total Blocks : 262144 Invalid Blocks : 0
Heartbeat CPU 4 instructions: 80000001 cycles: 51750529 heartbeat IPC: 1.23222 cumulative IPC: 1.54588 (Simulation time: 22 hr 33 min 12 sec) 
 Total Blocks : 262144 Invalid Blocks : 0
Heartbeat CPU 5 instructions: 80000001 cycles: 51750542 heartbeat IPC: 1.23222 cumulative IPC: 1.54588 (Simulation time: 22 hr 33 min 12 sec) 
 Total Blocks : 262144 Invalid Blocks : 0
Heartbeat CPU 6 instructions: 80000001 cycles: 51750556 heartbeat IPC: 1.23222 cumulative IPC: 1.54588 (Simulation time: 22 hr 33 min 12 sec) 
 Total Blocks : 262144 Invalid Blocks : 0
Heartbeat CPU 7 instructions: 80000001 cycles: 51750570 heartbeat IPC: 1.23222 cumulative IPC: 1.54588 (Simulation time: 22 hr 33 min 12 sec) 
 Total Blocks : 262144 Invalid Blocks : 0
Heartbeat CPU 0 instructions: 90000000 cycles: 59865869 heartbeat IPC: 1.23222 cumulative IPC: 1.50336 (Simulation time: 24 hr 38 min 23 sec) 
 Total Blocks : 262144 Invalid Blocks : 0
Heartbeat CPU 1 instructions: 90000000 cycles: 59865887 heartbeat IPC: 1.23222 cumulative IPC: 1.50336 (Simulation time: 24 hr 38 min 26 sec) 
 Total Blocks : 262144 Invalid Blocks : 0
Heartbeat CPU 2 instructions: 90000000 cycles: 59865948 heartbeat IPC: 1.23222 cumulative IPC: 1.50336 (Simulation time: 24 hr 38 min 28 sec) 
 Total Blocks : 262144 Invalid Blocks : 0
Heartbeat CPU 3 instructions: 90000000 cycles: 59865953 heartbeat IPC: 1.23222 cumulative IPC: 1.50336 (Simulation time: 24 hr 38 min 28 sec) 
 Total Blocks : 262144 Invalid Blocks : 0
Heartbeat CPU 4 instructions: 90000000 cycles: 59865972 heartbeat IPC: 1.23222 cumulative IPC: 1.50336 (Simulation time: 24 hr 38 min 28 sec) 
 Total Blocks : 262144 Invalid Blocks : 0
Heartbeat CPU 5 instructions: 90000000 cycles: 59865984 heartbeat IPC: 1.23222 cumulative IPC: 1.50336 (Simulation time: 24 hr 38 min 29 sec) 
 Total Blocks : 262144 Invalid Blocks : 0
Heartbeat CPU 6 instructions: 90000000 cycles: 59865999 heartbeat IPC: 1.23222 cumulative IPC: 1.50336 (Simulation time: 24 hr 38 min 29 sec) 
 Total Blocks : 262144 Invalid Blocks : 0
Heartbeat CPU 7 instructions: 90000000 cycles: 59866012 heartbeat IPC: 1.23222 cumulative IPC: 1.50336 (Simulation time: 24 hr 38 min 29 sec) 
 Total Blocks : 262144 Invalid Blocks : 0
Heartbeat CPU 0 instructions: 100000000 cycles: 67981369 heartbeat IPC: 1.23221 cumulative IPC: 1.47099 (Simulation time: 26 hr 48 min 38 sec) 
 Total Blocks : 262144 Invalid Blocks : 0
Heartbeat CPU 1 instructions: 100000000 cycles: 67981387 heartbeat IPC: 1.23221 cumulative IPC: 1.47099 (Simulation time: 26 hr 48 min 40 sec) 
 Total Blocks : 262144 Invalid Blocks : 0
Heartbeat CPU 2 instructions: 100000000 cycles: 67981448 heartbeat IPC: 1.23221 cumulative IPC: 1.47099 (Simulation time: 26 hr 48 min 40 sec) 
 Total Blocks : 262144 Invalid Blocks : 0
Heartbeat CPU 3 instructions: 100000000 cycles: 67981453 heartbeat IPC: 1.23221 cumulative IPC: 1.47099 (Simulation time: 26 hr 48 min 40 sec) 
 Total Blocks : 262144 Invalid Blocks : 0
Heartbeat CPU 4 instructions: 100000000 cycles: 67981472 heartbeat IPC: 1.23221 cumulative IPC: 1.47099 (Simulation time: 26 hr 48 min 40 sec) 
 Total Blocks : 262144 Invalid Blocks : 0
Heartbeat CPU 5 instructions: 100000000 cycles: 67981484 heartbeat IPC: 1.23221 cumulative IPC: 1.47099 (Simulation time: 26 hr 48 min 40 sec) 
 Total Blocks : 262144 Invalid Blocks : 0
Heartbeat CPU 6 instructions: 100000000 cycles: 67981499 heartbeat IPC: 1.23221 cumulative IPC: 1.47099 (Simulation time: 26 hr 48 min 40 sec) 
 Total Blocks : 262144 Invalid Blocks : 0
Heartbeat CPU 7 instructions: 100000000 cycles: 67981513 heartbeat IPC: 1.23221 cumulative IPC: 1.47099 (Simulation time: 26 hr 48 min 40 sec) 
 Total Blocks : 262144 Invalid Blocks : 0
Heartbeat CPU 0 instructions: 110000000 cycles: 76096963 heartbeat IPC: 1.2322 cumulative IPC: 1.44552 (Simulation time: 29 hr 3 min 54 sec) 
 Total Blocks : 262144 Invalid Blocks : 0
Heartbeat CPU 1 instructions: 110000000 cycles: 76096981 heartbeat IPC: 1.2322 cumulative IPC: 1.44552 (Simulation time: 29 hr 3 min 56 sec) 
 Total Blocks : 262144 Invalid Blocks : 0
Heartbeat CPU 2 instructions: 110000000 cycles: 76097041 heartbeat IPC: 1.2322 cumulative IPC: 1.44552 (Simulation time: 29 hr 3 min 56 sec) 
 Total Blocks : 262144 Invalid Blocks : 0
Heartbeat CPU 3 instructions: 110000000 cycles: 76097047 heartbeat IPC: 1.2322 cumulative IPC: 1.44552 (Simulation time: 29 hr 3 min 56 sec) 
 Total Blocks : 262144 Invalid Blocks : 0
Heartbeat CPU 4 instructions: 110000000 cycles: 76097066 heartbeat IPC: 1.2322 cumulative IPC: 1.44552 (Simulation time: 29 hr 3 min 56 sec) 
 Total Blocks : 262144 Invalid Blocks : 0
Heartbeat CPU 5 instructions: 110000000 cycles: 76097078 heartbeat IPC: 1.2322 cumulative IPC: 1.44552 (Simulation time: 29 hr 3 min 56 sec) 
 Total Blocks : 262144 Invalid Blocks : 0
Heartbeat CPU 6 instructions: 110000000 cycles: 76097093 heartbeat IPC: 1.2322 cumulative IPC: 1.44552 (Simulation time: 29 hr 3 min 56 sec) 
 Total Blocks : 262144 Invalid Blocks : 0
Heartbeat CPU 7 instructions: 110000000 cycles: 76097106 heartbeat IPC: 1.2322 cumulative IPC: 1.44552 (Simulation time: 29 hr 3 min 56 sec) 
 Total Blocks : 262144 Invalid Blocks : 0
Heartbeat CPU 0 instructions: 120000000 cycles: 84212337 heartbeat IPC: 1.23223 cumulative IPC: 1.42497 (Simulation time: 31 hr 26 min 39 sec) 
 Total Blocks : 262144 Invalid Blocks : 0
Heartbeat CPU 1 instructions: 120000000 cycles: 84212355 heartbeat IPC: 1.23223 cumulative IPC: 1.42497 (Simulation time: 31 hr 26 min 41 sec) 
 Total Blocks : 262144 Invalid Blocks : 0
Heartbeat CPU 2 instructions: 120000000 cycles: 84212415 heartbeat IPC: 1.23223 cumulative IPC: 1.42497 (Simulation time: 31 hr 26 min 41 sec) 
 Total Blocks : 262144 Invalid Blocks : 0
Heartbeat CPU 3 instructions: 120000000 cycles: 84212422 heartbeat IPC: 1.23223 cumulative IPC: 1.42497 (Simulation time: 31 hr 26 min 41 sec) 
 Total Blocks : 262144 Invalid Blocks : 0
Heartbeat CPU 4 instructions: 120000000 cycles: 84212440 heartbeat IPC: 1.23223 cumulative IPC: 1.42497 (Simulation time: 31 hr 26 min 41 sec) 
 Total Blocks : 262144 Invalid Blocks : 0
Heartbeat CPU 5 instructions: 120000000 cycles: 84212453 heartbeat IPC: 1.23223 cumulative IPC: 1.42497 (Simulation time: 31 hr 26 min 41 sec) 
 Total Blocks : 262144 Invalid Blocks : 0
Heartbeat CPU 6 instructions: 120000000 cycles: 84212467 heartbeat IPC: 1.23223 cumulative IPC: 1.42497 (Simulation time: 31 hr 26 min 41 sec) 
 Total Blocks : 262144 Invalid Blocks : 0
Heartbeat CPU 7 instructions: 120000000 cycles: 84212480 heartbeat IPC: 1.23223 cumulative IPC: 1.42497 (Simulation time: 31 hr 26 min 41 sec) 
 Total Blocks : 262144 Invalid Blocks : 0
Heartbeat CPU 0 instructions: 130000001 cycles: 92327826 heartbeat IPC: 1.23221 cumulative IPC: 1.40803 (Simulation time: 33 hr 54 min 40 sec) 
 Total Blocks : 262144 Invalid Blocks : 0
Heartbeat CPU 1 instructions: 130000001 cycles: 92327844 heartbeat IPC: 1.23221 cumulative IPC: 1.40803 (Simulation time: 33 hr 54 min 42 sec) 
 Total Blocks : 262144 Invalid Blocks : 0
Heartbeat CPU 2 instructions: 130000001 cycles: 92327904 heartbeat IPC: 1.23221 cumulative IPC: 1.40803 (Simulation time: 33 hr 54 min 42 sec) 
 Total Blocks : 262144 Invalid Blocks : 0
Heartbeat CPU 3 instructions: 130000001 cycles: 92327911 heartbeat IPC: 1.23221 cumulative IPC: 1.40802 (Simulation time: 33 hr 54 min 42 sec) 
 Total Blocks : 262144 Invalid Blocks : 0
Heartbeat CPU 4 instructions: 130000001 cycles: 92327929 heartbeat IPC: 1.23221 cumulative IPC: 1.40802 (Simulation time: 33 hr 54 min 42 sec) 
 Total Blocks : 262144 Invalid Blocks : 0
Heartbeat CPU 5 instructions: 130000001 cycles: 92327942 heartbeat IPC: 1.23221 cumulative IPC: 1.40802 (Simulation time: 33 hr 54 min 42 sec) 
 Total Blocks : 262144 Invalid Blocks : 0
Heartbeat CPU 6 instructions: 130000001 cycles: 92327956 heartbeat IPC: 1.23221 cumulative IPC: 1.40802 (Simulation time: 33 hr 54 min 42 sec) 
 Total Blocks : 262144 Invalid Blocks : 0
Heartbeat CPU 7 instructions: 130000001 cycles: 92327969 heartbeat IPC: 1.23221 cumulative IPC: 1.40802 (Simulation time: 33 hr 54 min 42 sec) 
 Total Blocks : 262144 Invalid Blocks : 0
Heartbeat CPU 0 instructions: 140000002 cycles: 100443359 heartbeat IPC: 1.23221 cumulative IPC: 1.39382 (Simulation time: 36 hr 26 min 41 sec) 
 Total Blocks : 262144 Invalid Blocks : 0
Heartbeat CPU 1 instructions: 140000002 cycles: 100443377 heartbeat IPC: 1.23221 cumulative IPC: 1.39382 (Simulation time: 36 hr 26 min 44 sec) 
 Total Blocks : 262144 Invalid Blocks : 0
Heartbeat CPU 2 instructions: 140000002 cycles: 100443437 heartbeat IPC: 1.23221 cumulative IPC: 1.39382 (Simulation time: 36 hr 26 min 44 sec) 
 Total Blocks : 262144 Invalid Blocks : 0
Heartbeat CPU 3 instructions: 140000002 cycles: 100443444 heartbeat IPC: 1.23221 cumulative IPC: 1.39382 (Simulation time: 36 hr 26 min 44 sec) 
 Total Blocks : 262144 Invalid Blocks : 0
Heartbeat CPU 4 instructions: 140000002 cycles: 100443462 heartbeat IPC: 1.23221 cumulative IPC: 1.39382 (Simulation time: 36 hr 26 min 44 sec) 
 Total Blocks : 262144 Invalid Blocks : 0
Heartbeat CPU 5 instructions: 140000002 cycles: 100443475 heartbeat IPC: 1.23221 cumulative IPC: 1.39382 (Simulation time: 36 hr 26 min 44 sec) 
 Total Blocks : 262144 Invalid Blocks : 0
Heartbeat CPU 6 instructions: 140000002 cycles: 100443489 heartbeat IPC: 1.23221 cumulative IPC: 1.39382 (Simulation time: 36 hr 26 min 44 sec) 
 Total Blocks : 262144 Invalid Blocks : 0
Heartbeat CPU 7 instructions: 140000002 cycles: 100443502 heartbeat IPC: 1.23221 cumulative IPC: 1.39382 (Simulation time: 36 hr 26 min 44 sec) 
 Total Blocks : 262144 Invalid Blocks : 0
Heartbeat CPU 0 instructions: 150000000 cycles: 108558870 heartbeat IPC: 1.23221 cumulative IPC: 1.38174 (Simulation time: 38 hr 59 min 59 sec) 
 Total Blocks : 262144 Invalid Blocks : 0
Heartbeat CPU 1 instructions: 150000000 cycles: 108558888 heartbeat IPC: 1.23221 cumulative IPC: 1.38174 (Simulation time: 39 hr 0 min 1 sec) 
 Total Blocks : 262144 Invalid Blocks : 0
Heartbeat CPU 2 instructions: 150000000 cycles: 108558950 heartbeat IPC: 1.23221 cumulative IPC: 1.38174 (Simulation time: 39 hr 0 min 1 sec) 
 Total Blocks : 262144 Invalid Blocks : 0
Heartbeat CPU 3 instructions: 150000000 cycles: 108558955 heartbeat IPC: 1.23221 cumulative IPC: 1.38174 (Simulation time: 39 hr 0 min 1 sec) 
 Total Blocks : 262144 Invalid Blocks : 0
Heartbeat CPU 4 instructions: 150000000 cycles: 108558973 heartbeat IPC: 1.23221 cumulative IPC: 1.38174 (Simulation time: 39 hr 0 min 1 sec) 
 Total Blocks : 262144 Invalid Blocks : 0
Heartbeat CPU 5 instructions: 150000000 cycles: 108558986 heartbeat IPC: 1.23221 cumulative IPC: 1.38174 (Simulation time: 39 hr 0 min 1 sec) 
 Total Blocks : 262144 Invalid Blocks : 0
Heartbeat CPU 6 instructions: 150000000 cycles: 108559000 heartbeat IPC: 1.23221 cumulative IPC: 1.38174 (Simulation time: 39 hr 0 min 1 sec) 
 Total Blocks : 262144 Invalid Blocks : 0
Heartbeat CPU 7 instructions: 150000000 cycles: 108559013 heartbeat IPC: 1.23221 cumulative IPC: 1.38174 (Simulation time: 39 hr 0 min 5 sec) 
 Total Blocks : 262144 Invalid Blocks : 0
Heartbeat CPU 0 instructions: 160000000 cycles: 116674300 heartbeat IPC: 1.23222 cumulative IPC: 1.37134 (Simulation time: 41 hr 37 min 10 sec) 
 Total Blocks : 262144 Invalid Blocks : 0
Heartbeat CPU 1 instructions: 160000000 cycles: 116674318 heartbeat IPC: 1.23222 cumulative IPC: 1.37134 (Simulation time: 41 hr 37 min 27 sec) 
 Total Blocks : 262144 Invalid Blocks : 0
Heartbeat CPU 2 instructions: 160000000 cycles: 116674378 heartbeat IPC: 1.23222 cumulative IPC: 1.37134 (Simulation time: 41 hr 37 min 27 sec) 
 Total Blocks : 262144 Invalid Blocks : 0
Heartbeat CPU 3 instructions: 160000000 cycles: 116674383 heartbeat IPC: 1.23222 cumulative IPC: 1.37134 (Simulation time: 41 hr 37 min 27 sec) 
 Total Blocks : 262144 Invalid Blocks : 0
Heartbeat CPU 4 instructions: 160000000 cycles: 116674403 heartbeat IPC: 1.23222 cumulative IPC: 1.37134 (Simulation time: 41 hr 37 min 27 sec) 
 Total Blocks : 262144 Invalid Blocks : 0
Heartbeat CPU 5 instructions: 160000000 cycles: 116674414 heartbeat IPC: 1.23222 cumulative IPC: 1.37134 (Simulation time: 41 hr 37 min 27 sec) 
 Total Blocks : 262144 Invalid Blocks : 0
Heartbeat CPU 6 instructions: 160000000 cycles: 116674430 heartbeat IPC: 1.23222 cumulative IPC: 1.37134 (Simulation time: 41 hr 37 min 27 sec) 
 Total Blocks : 262144 Invalid Blocks : 0
Heartbeat CPU 7 instructions: 160000000 cycles: 116674441 heartbeat IPC: 1.23222 cumulative IPC: 1.37134 (Simulation time: 41 hr 37 min 27 sec) 
 Total Blocks : 262144 Invalid Blocks : 0
Heartbeat CPU 0 instructions: 170000003 cycles: 124789761 heartbeat IPC: 1.23222 cumulative IPC: 1.36229 (Simulation time: 43 hr 35 min 41 sec) 
 Total Blocks : 262144 Invalid Blocks : 0
Heartbeat CPU 1 instructions: 170000003 cycles: 124789779 heartbeat IPC: 1.23222 cumulative IPC: 1.36229 (Simulation time: 43 hr 35 min 42 sec) 
 Total Blocks : 262144 Invalid Blocks : 0
Heartbeat CPU 2 instructions: 170000003 cycles: 124789837 heartbeat IPC: 1.23222 cumulative IPC: 1.36229 (Simulation time: 43 hr 35 min 42 sec) 
 Total Blocks : 262144 Invalid Blocks : 0
Heartbeat CPU 3 instructions: 170000003 cycles: 124789842 heartbeat IPC: 1.23222 cumulative IPC: 1.36229 (Simulation time: 43 hr 35 min 42 sec) 
 Total Blocks : 262144 Invalid Blocks : 0
Heartbeat CPU 4 instructions: 170000003 cycles: 124789860 heartbeat IPC: 1.23222 cumulative IPC: 1.36229 (Simulation time: 43 hr 35 min 42 sec) 
 Total Blocks : 262144 Invalid Blocks : 0
Heartbeat CPU 5 instructions: 170000003 cycles: 124789872 heartbeat IPC: 1.23222 cumulative IPC: 1.36229 (Simulation time: 43 hr 35 min 42 sec) 
 Total Blocks : 262144 Invalid Blocks : 0
Heartbeat CPU 6 instructions: 170000003 cycles: 124789886 heartbeat IPC: 1.23222 cumulative IPC: 1.36229 (Simulation time: 43 hr 35 min 42 sec) 
 Total Blocks : 262144 Invalid Blocks : 0
Heartbeat CPU 7 instructions: 170000003 cycles: 124789898 heartbeat IPC: 1.23222 cumulative IPC: 1.36229 (Simulation time: 43 hr 35 min 42 sec) 
 Total Blocks : 262144 Invalid Blocks : 0
Heartbeat CPU 0 instructions: 180000000 cycles: 132905317 heartbeat IPC: 1.2322 cumulative IPC: 1.35435 (Simulation time: 44 hr 2 min 5 sec) 
 Total Blocks : 262144 Invalid Blocks : 0
Heartbeat CPU 1 instructions: 180000000 cycles: 132905335 heartbeat IPC: 1.2322 cumulative IPC: 1.35435 (Simulation time: 44 hr 2 min 7 sec) 
 Total Blocks : 262144 Invalid Blocks : 0
Heartbeat CPU 2 instructions: 180000000 cycles: 132905399 heartbeat IPC: 1.2322 cumulative IPC: 1.35435 (Simulation time: 44 hr 2 min 7 sec) 
 Total Blocks : 262144 Invalid Blocks : 0
Heartbeat CPU 3 instructions: 180000000 cycles: 132905400 heartbeat IPC: 1.2322 cumulative IPC: 1.35435 (Simulation time: 44 hr 2 min 7 sec) 
 Total Blocks : 262144 Invalid Blocks : 0
Heartbeat CPU 4 instructions: 180000000 cycles: 132905416 heartbeat IPC: 1.2322 cumulative IPC: 1.35435 (Simulation time: 44 hr 2 min 7 sec) 
 Total Blocks : 262144 Invalid Blocks : 0
Heartbeat CPU 5 instructions: 180000000 cycles: 132905428 heartbeat IPC: 1.2322 cumulative IPC: 1.35435 (Simulation time: 44 hr 2 min 7 sec) 
 Total Blocks : 262144 Invalid Blocks : 0
Heartbeat CPU 6 instructions: 180000000 cycles: 132905442 heartbeat IPC: 1.2322 cumulative IPC: 1.35435 (Simulation time: 44 hr 2 min 7 sec) 
 Total Blocks : 262144 Invalid Blocks : 0
Heartbeat CPU 7 instructions: 180000000 cycles: 132905454 heartbeat IPC: 1.2322 cumulative IPC: 1.35435 (Simulation time: 44 hr 2 min 7 sec) 
 Total Blocks : 262144 Invalid Blocks : 0
Heartbeat CPU 0 instructions: 190000000 cycles: 140837149 heartbeat IPC: 1.26074 cumulative IPC: 1.34908 (Simulation time: 45 hr 29 min 17 sec) 
 Total Blocks : 262144 Invalid Blocks : 0
Heartbeat CPU 1 instructions: 190000000 cycles: 140837168 heartbeat IPC: 1.26074 cumulative IPC: 1.34908 (Simulation time: 45 hr 29 min 19 sec) 
 Total Blocks : 262144 Invalid Blocks : 0
Heartbeat CPU 3 instructions: 190000000 cycles: 140837230 heartbeat IPC: 1.26074 cumulative IPC: 1.34908 (Simulation time: 45 hr 29 min 19 sec) 
 Total Blocks : 262144 Invalid Blocks : 0
Heartbeat CPU 2 instructions: 190000000 cycles: 140837234 heartbeat IPC: 1.26074 cumulative IPC: 1.34908 (Simulation time: 45 hr 29 min 19 sec) 
 Total Blocks : 262144 Invalid Blocks : 0
Heartbeat CPU 4 instructions: 190000000 cycles: 140837246 heartbeat IPC: 1.26074 cumulative IPC: 1.34907 (Simulation time: 45 hr 29 min 19 sec) 
 Total Blocks : 262144 Invalid Blocks : 0
Heartbeat CPU 5 instructions: 190000000 cycles: 140837260 heartbeat IPC: 1.26074 cumulative IPC: 1.34907 (Simulation time: 45 hr 29 min 22 sec) 
 Total Blocks : 262144 Invalid Blocks : 0
Heartbeat CPU 6 instructions: 190000000 cycles: 140837273 heartbeat IPC: 1.26074 cumulative IPC: 1.34907 (Simulation time: 45 hr 29 min 22 sec) 
 Total Blocks : 262144 Invalid Blocks : 0
Heartbeat CPU 7 instructions: 190000000 cycles: 140837285 heartbeat IPC: 1.26074 cumulative IPC: 1.34907 (Simulation time: 45 hr 29 min 23 sec) 
 Total Blocks : 262144 Invalid Blocks : 0
Heartbeat CPU 0 instructions: 200000003 cycles: 148554777 heartbeat IPC: 1.29574 cumulative IPC: 1.3463 (Simulation time: 48 hr 12 min 45 sec) 
 Total Blocks : 262144 Invalid Blocks : 0
Heartbeat CPU 1 instructions: 200000003 cycles: 148554795 heartbeat IPC: 1.29574 cumulative IPC: 1.3463 (Simulation time: 48 hr 13 min 2 sec) 
 Total Blocks : 262144 Invalid Blocks : 0
Heartbeat CPU 3 instructions: 200000003 cycles: 148554860 heartbeat IPC: 1.29574 cumulative IPC: 1.3463 (Simulation time: 48 hr 13 min 2 sec) 
 Total Blocks : 262144 Invalid Blocks : 0
Heartbeat CPU 2 instructions: 200000003 cycles: 148554864 heartbeat IPC: 1.29574 cumulative IPC: 1.3463 (Simulation time: 48 hr 13 min 2 sec) 
 Total Blocks : 262144 Invalid Blocks : 0
Heartbeat CPU 4 instructions: 200000003 cycles: 148554878 heartbeat IPC: 1.29573 cumulative IPC: 1.3463 (Simulation time: 48 hr 13 min 3 sec) 
 Total Blocks : 262144 Invalid Blocks : 0
Heartbeat CPU 5 instructions: 200000003 cycles: 148554890 heartbeat IPC: 1.29574 cumulative IPC: 1.3463 (Simulation time: 48 hr 13 min 3 sec) 
 Total Blocks : 262144 Invalid Blocks : 0
Heartbeat CPU 6 instructions: 200000003 cycles: 148554901 heartbeat IPC: 1.29574 cumulative IPC: 1.3463 (Simulation time: 48 hr 13 min 3 sec) 
 Total Blocks : 262144 Invalid Blocks : 0
Heartbeat CPU 7 instructions: 200000003 cycles: 148554915 heartbeat IPC: 1.29574 cumulative IPC: 1.3463 (Simulation time: 48 hr 13 min 3 sec) 
 Total Blocks : 262144 Invalid Blocks : 0

Warmup complete CPU 0 instructions: 200000172 cycles: 148554915 (Simulation time: 48 hr 13 min 3 sec) 
Warmup complete CPU 1 instructions: 200000162 cycles: 148554915 (Simulation time: 48 hr 13 min 3 sec) 
Warmup complete CPU 2 instructions: 200000070 cycles: 148554915 (Simulation time: 48 hr 13 min 3 sec) 
Warmup complete CPU 3 instructions: 200000070 cycles: 148554915 (Simulation time: 48 hr 13 min 3 sec) 
Warmup complete CPU 4 instructions: 200000055 cycles: 148554915 (Simulation time: 48 hr 13 min 3 sec) 
Warmup complete CPU 5 instructions: 200000026 cycles: 148554915 (Simulation time: 48 hr 13 min 3 sec) 
Warmup complete CPU 6 instructions: 200000024 cycles: 148554915 (Simulation time: 48 hr 13 min 3 sec) 
Warmup complete CPU 7 instructions: 200000003 cycles: 148554915 (Simulation time: 48 hr 13 min 3 sec) 

Heartbeat CPU 0 instructions: 210000001 cycles: 167104608 heartbeat IPC: 0.539088 cumulative IPC: 0.539083 (Simulation time: 51 hr 29 min 48 sec) 
 Total Blocks : 262144 Invalid Blocks : 0
Heartbeat CPU 4 instructions: 210000001 cycles: 167111407 heartbeat IPC: 0.538894 cumulative IPC: 0.538892 (Simulation time: 51 hr 29 min 54 sec) 
 Total Blocks : 262144 Invalid Blocks : 0
Heartbeat CPU 5 instructions: 210000001 cycles: 167114768 heartbeat IPC: 0.538797 cumulative IPC: 0.538796 (Simulation time: 51 hr 29 min 57 sec) 
 Total Blocks : 262144 Invalid Blocks : 0
Heartbeat CPU 1 instructions: 210000001 cycles: 167120696 heartbeat IPC: 0.538622 cumulative IPC: 0.538617 (Simulation time: 51 hr 30 min 0 sec) 
 Total Blocks : 262144 Invalid Blocks : 0
Heartbeat CPU 6 instructions: 210000000 cycles: 167144316 heartbeat IPC: 0.53794 cumulative IPC: 0.53794 (Simulation time: 51 hr 30 min 26 sec) 
 Total Blocks : 262144 Invalid Blocks : 0
Heartbeat CPU 3 instructions: 210000001 cycles: 167232243 heartbeat IPC: 0.535407 cumulative IPC: 0.535405 (Simulation time: 51 hr 31 min 19 sec) 
 Total Blocks : 262144 Invalid Blocks : 0
Heartbeat CPU 7 instructions: 210000001 cycles: 167326720 heartbeat IPC: 0.532714 cumulative IPC: 0.532714 (Simulation time: 51 hr 32 min 25 sec) 
 Total Blocks : 262144 Invalid Blocks : 0
Heartbeat CPU 2 instructions: 210000001 cycles: 167367657 heartbeat IPC: 0.531553 cumulative IPC: 0.531551 (Simulation time: 51 hr 32 min 51 sec) 
 Total Blocks : 262144 Invalid Blocks : 0
Heartbeat CPU 0 instructions: 220000000 cycles: 186009776 heartbeat IPC: 0.528956 cumulative IPC: 0.533971 (Simulation time: 54 hr 46 min 43 sec) 
 Total Blocks : 262144 Invalid Blocks : 0
Heartbeat CPU 5 instructions: 220000000 cycles: 186012545 heartbeat IPC: 0.529163 cumulative IPC: 0.533936 (Simulation time: 54 hr 46 min 46 sec) 
 Total Blocks : 262144 Invalid Blocks : 0
Heartbeat CPU 4 instructions: 220000000 cycles: 186018741 heartbeat IPC: 0.528895 cumulative IPC: 0.533847 (Simulation time: 54 hr 46 min 50 sec) 
 Total Blocks : 262144 Invalid Blocks : 0
Heartbeat CPU 1 instructions: 220000000 cycles: 186048917 heartbeat IPC: 0.528312 cumulative IPC: 0.533414 (Simulation time: 54 hr 47 min 16 sec) 
 Total Blocks : 262144 Invalid Blocks : 0
Heartbeat CPU 6 instructions: 220000000 cycles: 186220716 heartbeat IPC: 0.524208 cumulative IPC: 0.530985 (Simulation time: 54 hr 49 min 2 sec) 
 Total Blocks : 262144 Invalid Blocks : 0
Heartbeat CPU 3 instructions: 220000000 cycles: 186313991 heartbeat IPC: 0.524061 cumulative IPC: 0.529672 (Simulation time: 54 hr 49 min 55 sec) 
 Total Blocks : 262144 Invalid Blocks : 0
Heartbeat CPU 7 instructions: 220000000 cycles: 186387919 heartbeat IPC: 0.524626 cumulative IPC: 0.528639 (Simulation time: 54 hr 50 min 48 sec) 
 Total Blocks : 262144 Invalid Blocks : 0
Heartbeat CPU 2 instructions: 220000000 cycles: 186426768 heartbeat IPC: 0.524683 cumulative IPC: 0.528095 (Simulation time: 54 hr 51 min 10 sec) 
 Total Blocks : 262144 Invalid Blocks : 0
Heartbeat CPU 0 instructions: 230000000 cycles: 204975099 heartbeat IPC: 0.527278 cumulative IPC: 0.531722 (Simulation time: 58 hr 0 min 1 sec) 
 Total Blocks : 262144 Invalid Blocks : 0
Heartbeat CPU 5 instructions: 230000000 cycles: 204989990 heartbeat IPC: 0.526941 cumulative IPC: 0.531584 (Simulation time: 58 hr 0 min 10 sec) 
 Total Blocks : 262144 Invalid Blocks : 0
Heartbeat CPU 4 instructions: 230000000 cycles: 205002976 heartbeat IPC: 0.526753 cumulative IPC: 0.531461 (Simulation time: 58 hr 0 min 17 sec) 
 Total Blocks : 262144 Invalid Blocks : 0
Heartbeat CPU 1 instructions: 230000000 cycles: 205156667 heartbeat IPC: 0.523348 cumulative IPC: 0.530016 (Simulation time: 58 hr 1 min 51 sec) 
 Total Blocks : 262144 Invalid Blocks : 0
Heartbeat CPU 6 instructions: 230000000 cycles: 205372317 heartbeat IPC: 0.52215 cumulative IPC: 0.528007 (Simulation time: 58 hr 4 min 9 sec) 
 Total Blocks : 262144 Invalid Blocks : 0
Heartbeat CPU 3 instructions: 230000000 cycles: 205420029 heartbeat IPC: 0.523395 cumulative IPC: 0.527563 (Simulation time: 58 hr 4 min 48 sec) 
 Total Blocks : 262144 Invalid Blocks : 0
Heartbeat CPU 7 instructions: 230000000 cycles: 205485805 heartbeat IPC: 0.523618 cumulative IPC: 0.526955 (Simulation time: 58 hr 5 min 25 sec) 
 Total Blocks : 262144 Invalid Blocks : 0
Heartbeat CPU 2 instructions: 230000000 cycles: 205521456 heartbeat IPC: 0.523706 cumulative IPC: 0.526624 (Simulation time: 58 hr 5 min 44 sec) 
 Total Blocks : 262144 Invalid Blocks : 0
Heartbeat CPU 0 instructions: 240000002 cycles: 223972671 heartbeat IPC: 0.526383 cumulative IPC: 0.530377 (Simulation time: 61 hr 8 min 36 sec) 
 Total Blocks : 262144 Invalid Blocks : 0
Heartbeat CPU 4 instructions: 240000003 cycles: 223990746 heartbeat IPC: 0.526655 cumulative IPC: 0.530251 (Simulation time: 61 hr 9 min 0 sec) 
 Total Blocks : 262144 Invalid Blocks : 0
Heartbeat CPU 5 instructions: 240000002 cycles: 224037674 heartbeat IPC: 0.524998 cumulative IPC: 0.529922 (Simulation time: 61 hr 9 min 25 sec) 
 Total Blocks : 262144 Invalid Blocks : 0
Heartbeat CPU 1 instructions: 240000002 cycles: 224251742 heartbeat IPC: 0.523695 cumulative IPC: 0.528422 (Simulation time: 61 hr 11 min 30 sec) 
 Total Blocks : 262144 Invalid Blocks : 0
Heartbeat CPU 6 instructions: 240000002 cycles: 224459509 heartbeat IPC: 0.523912 cumulative IPC: 0.526977 (Simulation time: 61 hr 13 min 30 sec) 
 Total Blocks : 262144 Invalid Blocks : 0
Heartbeat CPU 3 instructions: 240000001 cycles: 224501640 heartbeat IPC: 0.524065 cumulative IPC: 0.526684 (Simulation time: 61 hr 13 min 53 sec) 
 Total Blocks : 262144 Invalid Blocks : 0
Heartbeat CPU 7 instructions: 240000003 cycles: 224546680 heartbeat IPC: 0.524635 cumulative IPC: 0.526373 (Simulation time: 61 hr 14 min 34 sec) 
 Total Blocks : 262144 Invalid Blocks : 0
Heartbeat CPU 2 instructions: 240000002 cycles: 224617946 heartbeat IPC: 0.523657 cumulative IPC: 0.525879 (Simulation time: 61 hr 15 min 12 sec) 
 Total Blocks : 262144 Invalid Blocks : 0
Heartbeat CPU 4 instructions: 250000003 cycles: 242997893 heartbeat IPC: 0.526118 cumulative IPC: 0.529419 (Simulation time: 64 hr 13 min 57 sec) 
 Total Blocks : 262144 Invalid Blocks : 0
Heartbeat CPU 0 instructions: 250000002 cycles: 243011720 heartbeat IPC: 0.525236 cumulative IPC: 0.529341 (Simulation time: 64 hr 14 min 5 sec) 
 Total Blocks : 262144 Invalid Blocks : 0
Heartbeat CPU 5 instructions: 250000002 cycles: 243122060 heartbeat IPC: 0.523989 cumulative IPC: 0.528725 (Simulation time: 64 hr 15 min 17 sec) 
 Total Blocks : 262144 Invalid Blocks : 0
Heartbeat CPU 1 instructions: 250000002 cycles: 243312033 heartbeat IPC: 0.524651 cumulative IPC: 0.527663 (Simulation time: 64 hr 17 min 8 sec) 
 Total Blocks : 262144 Invalid Blocks : 0
Heartbeat CPU 6 instructions: 250000003 cycles: 243513892 heartbeat IPC: 0.524814 cumulative IPC: 0.526543 (Simulation time: 64 hr 19 min 8 sec) 
 Total Blocks : 262144 Invalid Blocks : 0
Heartbeat CPU 3 instructions: 250000002 cycles: 243536590 heartbeat IPC: 0.525349 cumulative IPC: 0.526417 (Simulation time: 64 hr 19 min 22 sec) 
 Total Blocks : 262144 Invalid Blocks : 0
Heartbeat CPU 7 instructions: 250000003 cycles: 243606499 heartbeat IPC: 0.524664 cumulative IPC: 0.52603 (Simulation time: 64 hr 20 min 1 sec) 
 Total Blocks : 262144 Invalid Blocks : 0
Heartbeat CPU 2 instructions: 250000001 cycles: 243695457 heartbeat IPC: 0.524177 cumulative IPC: 0.525538 (Simulation time: 64 hr 20 min 51 sec) 
 Total Blocks : 262144 Invalid Blocks : 0
Heartbeat CPU 0 instructions: 260000003 cycles: 262087630 heartbeat IPC: 0.524221 cumulative IPC: 0.528481 (Simulation time: 67 hr 17 min 6 sec) 
 Total Blocks : 262144 Invalid Blocks : 0
Heartbeat CPU 4 instructions: 260000003 cycles: 262092295 heartbeat IPC: 0.523714 cumulative IPC: 0.52846 (Simulation time: 67 hr 17 min 10 sec) 
 Total Blocks : 262144 Invalid Blocks : 0
Heartbeat CPU 5 instructions: 260000001 cycles: 262261815 heartbeat IPC: 0.522473 cumulative IPC: 0.527672 (Simulation time: 67 hr 18 min 50 sec) 
 Total Blocks : 262144 Invalid Blocks : 0
Heartbeat CPU 1 instructions: 260000001 cycles: 262479142 heartbeat IPC: 0.521727 cumulative IPC: 0.526664 (Simulation time: 67 hr 20 min 59 sec) 
 Total Blocks : 262144 Invalid Blocks : 0
Heartbeat CPU 6 instructions: 260000002 cycles: 262633291 heartbeat IPC: 0.523029 cumulative IPC: 0.525954 (Simulation time: 67 hr 22 min 21 sec) 
 Total Blocks : 262144 Invalid Blocks : 0
Heartbeat CPU 3 instructions: 260000002 cycles: 262641278 heartbeat IPC: 0.523432 cumulative IPC: 0.525917 (Simulation time: 67 hr 22 min 26 sec) 
 Total Blocks : 262144 Invalid Blocks : 0
Heartbeat CPU 7 instructions: 260000001 cycles: 262772902 heartbeat IPC: 0.521746 cumulative IPC: 0.525311 (Simulation time: 67 hr 23 min 44 sec) 
 Total Blocks : 262144 Invalid Blocks : 0
Heartbeat CPU 2 instructions: 260000001 cycles: 262839087 heartbeat IPC: 0.522367 cumulative IPC: 0.525006 (Simulation time: 67 hr 24 min 20 sec) 
 Total Blocks : 262144 Invalid Blocks : 0
Heartbeat CPU 0 instructions: 270000002 cycles: 281157038 heartbeat IPC: 0.5244 cumulative IPC: 0.527894 (Simulation time: 70 hr 18 min 36 sec) 
 Total Blocks : 262144 Invalid Blocks : 0
Heartbeat CPU 4 instructions: 270000002 cycles: 281162129 heartbeat IPC: 0.524388 cumulative IPC: 0.527874 (Simulation time: 70 hr 18 min 40 sec) 
 Total Blocks : 262144 Invalid Blocks : 0
Heartbeat CPU 5 instructions: 270000003 cycles: 281385526 heartbeat IPC: 0.522911 cumulative IPC: 0.526987 (Simulation time: 70 hr 20 min 42 sec) 
 Total Blocks : 262144 Invalid Blocks : 0
Heartbeat CPU 1 instructions: 270000002 cycles: 281621318 heartbeat IPC: 0.522407 cumulative IPC: 0.526052 (Simulation time: 70 hr 22 min 56 sec) 
 Total Blocks : 262144 Invalid Blocks : 0
Heartbeat CPU 6 instructions: 270000001 cycles: 281721896 heartbeat IPC: 0.523873 cumulative IPC: 0.525656 (Simulation time: 70 hr 23 min 52 sec) 
 Total Blocks : 262144 Invalid Blocks : 0
Heartbeat CPU 3 instructions: 270000002 cycles: 281729134 heartbeat IPC: 0.523893 cumulative IPC: 0.525627 (Simulation time: 70 hr 23 min 57 sec) 
 Total Blocks : 262144 Invalid Blocks : 0
Heartbeat CPU 7 instructions: 270000003 cycles: 281919016 heartbeat IPC: 0.522299 cumulative IPC: 0.524879 (Simulation time: 70 hr 25 min 37 sec) 
 Total Blocks : 262144 Invalid Blocks : 0
Heartbeat CPU 2 instructions: 270000001 cycles: 281997306 heartbeat IPC: 0.521969 cumulative IPC: 0.52457 (Simulation time: 70 hr 26 min 23 sec) 
 Total Blocks : 262144 Invalid Blocks : 0
Heartbeat CPU 0 instructions: 280000000 cycles: 300198725 heartbeat IPC: 0.525163 cumulative IPC: 0.527551 (Simulation time: 73 hr 15 min 2 sec) 
 Total Blocks : 262144 Invalid Blocks : 0
Heartbeat CPU 4 instructions: 280000002 cycles: 300225906 heartbeat IPC: 0.524555 cumulative IPC: 0.527457 (Simulation time: 73 hr 15 min 17 sec) 
 Total Blocks : 262144 Invalid Blocks : 0
Heartbeat CPU 5 instructions: 280000000 cycles: 300485353 heartbeat IPC: 0.523565 cumulative IPC: 0.526557 (Simulation time: 73 hr 17 min 40 sec) 
 Total Blocks : 262144 Invalid Blocks : 0
Heartbeat CPU 1 instructions: 280000000 cycles: 300725800 heartbeat IPC: 0.523437 cumulative IPC: 0.525724 (Simulation time: 73 hr 19 min 53 sec) 
 Total Blocks : 262144 Invalid Blocks : 0
Heartbeat CPU 3 instructions: 280000000 cycles: 300768358 heartbeat IPC: 0.525231 cumulative IPC: 0.525577 (Simulation time: 73 hr 20 min 19 sec) 
 Total Blocks : 262144 Invalid Blocks : 0
Heartbeat CPU 6 instructions: 280000002 cycles: 300798034 heartbeat IPC: 0.524215 cumulative IPC: 0.525475 (Simulation time: 73 hr 20 min 34 sec) 
 Total Blocks : 262144 Invalid Blocks : 0
Heartbeat CPU 7 instructions: 280000000 cycles: 301016032 heartbeat IPC: 0.523642 cumulative IPC: 0.524724 (Simulation time: 73 hr 22 min 39 sec) 
 Total Blocks : 262144 Invalid Blocks : 0
Heartbeat CPU 2 instructions: 280000002 cycles: 301083859 heartbeat IPC: 0.523929 cumulative IPC: 0.52449 (Simulation time: 73 hr 23 min 18 sec) 
 Total Blocks : 262144 Invalid Blocks : 0
Heartbeat CPU 0 instructions: 290000000 cycles: 319260629 heartbeat IPC: 0.524607 cumulative IPC: 0.527222 (Simulation time: 76 hr 13 min 54 sec) 
 Total Blocks : 262144 Invalid Blocks : 0
Heartbeat CPU 4 instructions: 290000000 cycles: 319310553 heartbeat IPC: 0.523981 cumulative IPC: 0.527069 (Simulation time: 76 hr 14 min 22 sec) 
 Total Blocks : 262144 Invalid Blocks : 0
Heartbeat CPU 5 instructions: 290000000 cycles: 319619481 heartbeat IPC: 0.522626 cumulative IPC: 0.526117 (Simulation time: 76 hr 17 min 15 sec) 
 Total Blocks : 262144 Invalid Blocks : 0
Heartbeat CPU 1 instructions: 290000002 cycles: 319811837 heartbeat IPC: 0.523943 cumulative IPC: 0.525525 (Simulation time: 76 hr 19 min 5 sec) 
 Total Blocks : 262144 Invalid Blocks : 0
Heartbeat CPU 3 instructions: 290000001 cycles: 319819548 heartbeat IPC: 0.524902 cumulative IPC: 0.525502 (Simulation time: 76 hr 19 min 10 sec) 
 Total Blocks : 262144 Invalid Blocks : 0
Heartbeat CPU 6 instructions: 290000002 cycles: 319875843 heartbeat IPC: 0.524169 cumulative IPC: 0.52533 (Simulation time: 76 hr 19 min 41 sec) 
 Total Blocks : 262144 Invalid Blocks : 0
Heartbeat CPU 7 instructions: 290000002 cycles: 320133682 heartbeat IPC: 0.523077 cumulative IPC: 0.52454 (Simulation time: 76 hr 22 min 7 sec) 
 Total Blocks : 262144 Invalid Blocks : 0
Heartbeat CPU 2 instructions: 290000000 cycles: 320186523 heartbeat IPC: 0.523487 cumulative IPC: 0.524379 (Simulation time: 76 hr 22 min 36 sec) 
 Total Blocks : 262144 Invalid Blocks : 0
Heartbeat CPU 0 instructions: 300000003 cycles: 338376941 heartbeat IPC: 0.523114 cumulative IPC: 0.526808 (Simulation time: 79 hr 16 min 38 sec) 
 Total Blocks : 262144 Invalid Blocks : 0
Heartbeat CPU 4 instructions: 300000002 cycles: 338444386 heartbeat IPC: 0.522635 cumulative IPC: 0.526622 (Simulation time: 79 hr 17 min 17 sec) 
 Total Blocks : 262144 Invalid Blocks : 0
Heartbeat CPU 5 instructions: 300000003 cycles: 338776027 heartbeat IPC: 0.522015 cumulative IPC: 0.525704 (Simulation time: 79 hr 20 min 36 sec) 
 Total Blocks : 262144 Invalid Blocks : 0
Heartbeat CPU 1 instructions: 300000003 cycles: 338908445 heartbeat IPC: 0.523653 cumulative IPC: 0.525337 (Simulation time: 79 hr 21 min 51 sec) 
 Total Blocks : 262144 Invalid Blocks : 0
Heartbeat CPU 3 instructions: 300000003 cycles: 338944951 heartbeat IPC: 0.522865 cumulative IPC: 0.525237 (Simulation time: 79 hr 22 min 12 sec) 
 Total Blocks : 262144 Invalid Blocks : 0
Heartbeat CPU 6 instructions: 300000003 cycles: 339008122 heartbeat IPC: 0.522677 cumulative IPC: 0.525063 (Simulation time: 79 hr 22 min 52 sec) 
 Total Blocks : 262144 Invalid Blocks : 0
Heartbeat CPU 7 instructions: 300000002 cycles: 339278536 heartbeat IPC: 0.522334 cumulative IPC: 0.524319 (Simulation time: 79 hr 25 min 25 sec) 
 Total Blocks : 262144 Invalid Blocks : 0
Heartbeat CPU 2 instructions: 300000002 cycles: 339332213 heartbeat IPC: 0.522311 cumulative IPC: 0.524171 (Simulation time: 79 hr 25 min 57 sec) 
 Total Blocks : 262144 Invalid Blocks : 0
Heartbeat CPU 0 instructions: 310000001 cycles: 357491251 heartbeat IPC: 0.523168 cumulative IPC: 0.526475 (Simulation time: 82 hr 21 min 5 sec) 
 Total Blocks : 262144 Invalid Blocks : 0
Heartbeat CPU 4 instructions: 310000001 cycles: 357556807 heartbeat IPC: 0.52322 cumulative IPC: 0.526311 (Simulation time: 82 hr 21 min 43 sec) 
 Total Blocks : 262144 Invalid Blocks : 0
Heartbeat CPU 5 instructions: 310000001 cycles: 357890733 heartbeat IPC: 0.523157 cumulative IPC: 0.525471 (Simulation time: 82 hr 24 min 55 sec) 
 Total Blocks : 262144 Invalid Blocks : 0
Heartbeat CPU 1 instructions: 310000001 cycles: 357996974 heartbeat IPC: 0.523875 cumulative IPC: 0.525204 (Simulation time: 82 hr 25 min 59 sec) 
 Total Blocks : 262144 Invalid Blocks : 0
Heartbeat CPU 3 instructions: 310000001 cycles: 358033638 heartbeat IPC: 0.52387 cumulative IPC: 0.525113 (Simulation time: 82 hr 26 min 18 sec) 
 Total Blocks : 262144 Invalid Blocks : 0
Heartbeat CPU 6 instructions: 310000001 cycles: 358098777 heartbeat IPC: 0.523816 cumulative IPC: 0.52495 (Simulation time: 82 hr 26 min 56 sec) 
 Total Blocks : 262144 Invalid Blocks : 0
Heartbeat CPU 7 instructions: 310000001 cycles: 358392819 heartbeat IPC: 0.523169 cumulative IPC: 0.524214 (Simulation time: 82 hr 29 min 47 sec) 
 Total Blocks : 262144 Invalid Blocks : 0
Heartbeat CPU 2 instructions: 310000001 cycles: 358460673 heartbeat IPC: 0.522781 cumulative IPC: 0.524044 (Simulation time: 82 hr 30 min 28 sec) 
 Total Blocks : 262144 Invalid Blocks : 0
Heartbeat CPU 0 instructions: 320000001 cycles: 376584038 heartbeat IPC: 0.523758 cumulative IPC: 0.526248 (Simulation time: 85 hr 25 min 58 sec) 
 Total Blocks : 262144 Invalid Blocks : 0
Heartbeat CPU 4 instructions: 320000001 cycles: 376656746 heartbeat IPC: 0.523562 cumulative IPC: 0.526081 (Simulation time: 85 hr 26 min 43 sec) 
 Total Blocks : 262144 Invalid Blocks : 0
Heartbeat CPU 5 instructions: 320000001 cycles: 376991278 heartbeat IPC: 0.523545 cumulative IPC: 0.52531 (Simulation time: 85 hr 30 min 10 sec) 
 Total Blocks : 262144 Invalid Blocks : 0
Heartbeat CPU 1 instructions: 320000001 cycles: 377067717 heartbeat IPC: 0.524363 cumulative IPC: 0.525134 (Simulation time: 85 hr 30 min 56 sec) 
 Total Blocks : 262144 Invalid Blocks : 0
Heartbeat CPU 3 instructions: 320000001 cycles: 377090791 heartbeat IPC: 0.524737 cumulative IPC: 0.525081 (Simulation time: 85 hr 31 min 11 sec) 
 Total Blocks : 262144 Invalid Blocks : 0
Heartbeat CPU 6 instructions: 320000001 cycles: 377204226 heartbeat IPC: 0.523411 cumulative IPC: 0.524821 (Simulation time: 85 hr 32 min 19 sec) 
 Total Blocks : 262144 Invalid Blocks : 0
Heartbeat CPU 7 instructions: 320000001 cycles: 377475920 heartbeat IPC: 0.524024 cumulative IPC: 0.524198 (Simulation time: 85 hr 35 min 6 sec) 
 Total Blocks : 262144 Invalid Blocks : 0
Heartbeat CPU 2 instructions: 320000001 cycles: 377566280 heartbeat IPC: 0.523407 cumulative IPC: 0.523991 (Simulation time: 85 hr 36 min 0 sec) 
 Total Blocks : 262144 Invalid Blocks : 0
Heartbeat CPU 0 instructions: 330000000 cycles: 395752711 heartbeat IPC: 0.521684 cumulative IPC: 0.525894 (Simulation time: 88 hr 37 min 52 sec) 
 Total Blocks : 262144 Invalid Blocks : 0
Heartbeat CPU 4 instructions: 330000000 cycles: 395804917 heartbeat IPC: 0.522243 cumulative IPC: 0.525783 (Simulation time: 88 hr 38 min 24 sec) 
 Total Blocks : 262144 Invalid Blocks : 0
Heartbeat CPU 5 instructions: 330000000 cycles: 396156688 heartbeat IPC: 0.521773 cumulative IPC: 0.525037 (Simulation time: 88 hr 41 min 57 sec) 
 Total Blocks : 262144 Invalid Blocks : 0
Heartbeat CPU 1 instructions: 330000000 cycles: 396189923 heartbeat IPC: 0.522952 cumulative IPC: 0.524966 (Simulation time: 88 hr 42 min 20 sec) 
 Total Blocks : 262144 Invalid Blocks : 0
Heartbeat CPU 3 instructions: 330000000 cycles: 396222532 heartbeat IPC: 0.522692 cumulative IPC: 0.524897 (Simulation time: 88 hr 42 min 41 sec) 
 Total Blocks : 262144 Invalid Blocks : 0
Heartbeat CPU 6 instructions: 330000000 cycles: 396375887 heartbeat IPC: 0.521603 cumulative IPC: 0.524572 (Simulation time: 88 hr 44 min 16 sec) 
 Total Blocks : 262144 Invalid Blocks : 0
Heartbeat CPU 7 instructions: 330000000 cycles: 396647893 heartbeat IPC: 0.521595 cumulative IPC: 0.523997 (Simulation time: 88 hr 46 min 56 sec) 
 Total Blocks : 262144 Invalid Blocks : 0
Heartbeat CPU 2 instructions: 330000000 cycles: 396735570 heartbeat IPC: 0.521668 cumulative IPC: 0.523812 (Simulation time: 88 hr 47 min 53 sec) 
 Total Blocks : 262144 Invalid Blocks : 0
Heartbeat CPU 0 instructions: 340000000 cycles: 414883857 heartbeat IPC: 0.522708 cumulative IPC: 0.525665 (Simulation time: 91 hr 50 min 45 sec) 
 Total Blocks : 262144 Invalid Blocks : 0
Heartbeat CPU 4 instructions: 340000000 cycles: 414969146 heartbeat IPC: 0.521805 cumulative IPC: 0.525497 (Simulation time: 91 hr 51 min 43 sec) 
 Total Blocks : 262144 Invalid Blocks : 0
Heartbeat CPU 5 instructions: 340000000 cycles: 415300635 heartbeat IPC: 0.522358 cumulative IPC: 0.524844 (Simulation time: 91 hr 55 min 0 sec) 
 Total Blocks : 262144 Invalid Blocks : 0
Heartbeat CPU 1 instructions: 340000000 cycles: 415325500 heartbeat IPC: 0.522587 cumulative IPC: 0.524795 (Simulation time: 91 hr 55 min 15 sec) 
 Total Blocks : 262144 Invalid Blocks : 0
Heartbeat CPU 3 instructions: 340000001 cycles: 415340406 heartbeat IPC: 0.523071 cumulative IPC: 0.524766 (Simulation time: 91 hr 55 min 27 sec) 
 Total Blocks : 262144 Invalid Blocks : 0
Heartbeat CPU 6 instructions: 340000001 cycles: 415512905 heartbeat IPC: 0.522547 cumulative IPC: 0.524427 (Simulation time: 91 hr 57 min 13 sec) 
 Total Blocks : 262144 Invalid Blocks : 0
Heartbeat CPU 7 instructions: 340000001 cycles: 415787613 heartbeat IPC: 0.522474 cumulative IPC: 0.523888 (Simulation time: 92 hr 0 min 5 sec) 
 Total Blocks : 262144 Invalid Blocks : 0
Heartbeat CPU 2 instructions: 340000000 cycles: 415887749 heartbeat IPC: 0.522134 cumulative IPC: 0.523691 (Simulation time: 92 hr 1 min 7 sec) 
 Total Blocks : 262144 Invalid Blocks : 0
Heartbeat CPU 0 instructions: 350000003 cycles: 433912151 heartbeat IPC: 0.525533 cumulative IPC: 0.525656 (Simulation time: 95 hr 7 min 57 sec) 
 Total Blocks : 262144 Invalid Blocks : 0
Heartbeat CPU 4 instructions: 350000003 cycles: 434057945 heartbeat IPC: 0.523868 cumulative IPC: 0.525388 (Simulation time: 95 hr 9 min 53 sec) 
 Total Blocks : 262144 Invalid Blocks : 0
Heartbeat CPU 5 instructions: 350000003 cycles: 434503673 heartbeat IPC: 0.520751 cumulative IPC: 0.524569 (Simulation time: 95 hr 15 min 17 sec) 
 Total Blocks : 262144 Invalid Blocks : 0
Heartbeat CPU 1 instructions: 350000003 cycles: 434529706 heartbeat IPC: 0.520719 cumulative IPC: 0.524521 (Simulation time: 95 hr 15 min 36 sec) 
 Total Blocks : 262144 Invalid Blocks : 0
Heartbeat CPU 3 instructions: 350000003 cycles: 434638212 heartbeat IPC: 0.518194 cumulative IPC: 0.524323 (Simulation time: 95 hr 16 min 52 sec) 
 Total Blocks : 262144 Invalid Blocks : 0
Heartbeat CPU 6 instructions: 350000003 cycles: 434946607 heartbeat IPC: 0.51457 cumulative IPC: 0.523758 (Simulation time: 95 hr 20 min 25 sec) 
 Total Blocks : 262144 Invalid Blocks : 0
Heartbeat CPU 7 instructions: 350000003 cycles: 435450009 heartbeat IPC: 0.508585 cumulative IPC: 0.522839 (Simulation time: 95 hr 25 min 59 sec) 
 Total Blocks : 262144 Invalid Blocks : 0
Heartbeat CPU 2 instructions: 350000003 cycles: 435574875 heartbeat IPC: 0.507946 cumulative IPC: 0.522611 (Simulation time: 95 hr 27 min 18 sec) 
 Total Blocks : 262144 Invalid Blocks : 0
Heartbeat CPU 0 instructions: 360000003 cycles: 467190871 heartbeat IPC: 0.300492 cumulative IPC: 0.50214 (Simulation time: 99 hr 58 min 45 sec) 
 Total Blocks : 262144 Invalid Blocks : 0
Heartbeat CPU 4 instructions: 360000000 cycles: 467282739 heartbeat IPC: 0.30098 cumulative IPC: 0.501996 (Simulation time: 99 hr 59 min 34 sec) 
 Total Blocks : 262144 Invalid Blocks : 0
Heartbeat CPU 1 instructions: 360000000 cycles: 467658111 heartbeat IPC: 0.301856 cumulative IPC: 0.501405 (Simulation time: 100 hr 2 min 51 sec) 
 Total Blocks : 262144 Invalid Blocks : 0
Heartbeat CPU 5 instructions: 360000000 cycles: 467679518 heartbeat IPC: 0.301424 cumulative IPC: 0.501372 (Simulation time: 100 hr 3 min 2 sec) 
 Total Blocks : 262144 Invalid Blocks : 0
Heartbeat CPU 3 instructions: 360000000 cycles: 468063314 heartbeat IPC: 0.299176 cumulative IPC: 0.500769 (Simulation time: 100 hr 6 min 17 sec) 
 Total Blocks : 262144 Invalid Blocks : 0
Heartbeat CPU 6 instructions: 360000003 cycles: 468646732 heartbeat IPC: 0.296735 cumulative IPC: 0.499857 (Simulation time: 100 hr 11 min 14 sec) 
 Total Blocks : 262144 Invalid Blocks : 0
Heartbeat CPU 7 instructions: 360000003 cycles: 469057722 heartbeat IPC: 0.297551 cumulative IPC: 0.499216 (Simulation time: 100 hr 14 min 47 sec) 
 Total Blocks : 262144 Invalid Blocks : 0
Heartbeat CPU 2 instructions: 360000000 cycles: 469242128 heartbeat IPC: 0.297024 cumulative IPC: 0.498928 (Simulation time: 100 hr 16 min 24 sec) 
 Total Blocks : 262144 Invalid Blocks : 0
Heartbeat CPU 0 instructions: 370000001 cycles: 501307169 heartbeat IPC: 0.293115 cumulative IPC: 0.481924 (Simulation time: 104 hr 53 min 12 sec) 
 Total Blocks : 262144 Invalid Blocks : 0
Heartbeat CPU 4 instructions: 370000000 cycles: 501311697 heartbeat IPC: 0.293867 cumulative IPC: 0.481918 (Simulation time: 104 hr 53 min 15 sec) 
 Total Blocks : 262144 Invalid Blocks : 0
Heartbeat CPU 1 instructions: 370000000 cycles: 501892601 heartbeat IPC: 0.292103 cumulative IPC: 0.481126 (Simulation time: 104 hr 58 min 14 sec) 
 Total Blocks : 262144 Invalid Blocks : 0
Heartbeat CPU 5 instructions: 370000000 cycles: 502008250 heartbeat IPC: 0.291301 cumulative IPC: 0.480969 (Simulation time: 104 hr 59 min 21 sec) 
 Total Blocks : 262144 Invalid Blocks : 0
Heartbeat CPU 3 instructions: 370000000 cycles: 502500504 heartbeat IPC: 0.290384 cumulative IPC: 0.4803 (Simulation time: 105 hr 3 min 37 sec) 
 Total Blocks : 262144 Invalid Blocks : 0
Heartbeat CPU 6 instructions: 370000001 cycles: 503154486 heartbeat IPC: 0.28979 cumulative IPC: 0.479414 (Simulation time: 105 hr 9 min 10 sec) 
 Total Blocks : 262144 Invalid Blocks : 0
Heartbeat CPU 7 instructions: 370000000 cycles: 503512582 heartbeat IPC: 0.290235 cumulative IPC: 0.47893 (Simulation time: 105 hr 12 min 22 sec) 
 Total Blocks : 262144 Invalid Blocks : 0
Heartbeat CPU 2 instructions: 370000000 cycles: 503770029 heartbeat IPC: 0.289621 cumulative IPC: 0.478583 (Simulation time: 105 hr 14 min 34 sec) 
 Total Blocks : 262144 Invalid Blocks : 0
Heartbeat CPU 4 instructions: 380000000 cycles: 535483424 heartbeat IPC: 0.29264 cumulative IPC: 0.465202 (Simulation time: 109 hr 44 min 36 sec) 
 Total Blocks : 262144 Invalid Blocks : 0
Heartbeat CPU 0 instructions: 380000000 cycles: 535500834 heartbeat IPC: 0.292452 cumulative IPC: 0.465181 (Simulation time: 109 hr 44 min 45 sec) 
 Total Blocks : 262144 Invalid Blocks : 0
Heartbeat CPU 5 instructions: 380000000 cycles: 536288145 heartbeat IPC: 0.291716 cumulative IPC: 0.464237 (Simulation time: 109 hr 51 min 6 sec) 
 Total Blocks : 262144 Invalid Blocks : 0
Heartbeat CPU 1 instructions: 380000000 cycles: 536313989 heartbeat IPC: 0.290517 cumulative IPC: 0.464205 (Simulation time: 109 hr 51 min 20 sec) 
 Total Blocks : 262144 Invalid Blocks : 0
Heartbeat CPU 3 instructions: 380000003 cycles: 536894667 heartbeat IPC: 0.290747 cumulative IPC: 0.463511 (Simulation time: 109 hr 55 min 57 sec) 
 Total Blocks : 262144 Invalid Blocks : 0
Heartbeat CPU 6 instructions: 380000000 cycles: 537572156 heartbeat IPC: 0.290548 cumulative IPC: 0.462704 (Simulation time: 110 hr 1 min 16 sec) 
 Total Blocks : 262144 Invalid Blocks : 0
Heartbeat CPU 7 instructions: 380000000 cycles: 538039501 heartbeat IPC: 0.289629 cumulative IPC: 0.462149 (Simulation time: 110 hr 5 min 0 sec) 
 Total Blocks : 262144 Invalid Blocks : 0
Heartbeat CPU 2 instructions: 380000000 cycles: 538198267 heartbeat IPC: 0.290459 cumulative IPC: 0.461961 (Simulation time: 110 hr 6 min 17 sec) 
 Total Blocks : 262144 Invalid Blocks : 0
Heartbeat CPU 0 instructions: 390000000 cycles: 569650319 heartbeat IPC: 0.29283 cumulative IPC: 0.451204 (Simulation time: 114 hr 13 min 26 sec) 
 Total Blocks : 262144 Invalid Blocks : 0
Heartbeat CPU 4 instructions: 390000002 cycles: 569801953 heartbeat IPC: 0.291388 cumulative IPC: 0.451042 (Simulation time: 114 hr 14 min 31 sec) 
 Total Blocks : 262144 Invalid Blocks : 0
Heartbeat CPU 1 instructions: 390000002 cycles: 570554906 heartbeat IPC: 0.292048 cumulative IPC: 0.450237 (Simulation time: 114 hr 20 min 27 sec) 
 Total Blocks : 262144 Invalid Blocks : 0
Heartbeat CPU 5 instructions: 390000002 cycles: 570744107 heartbeat IPC: 0.290226 cumulative IPC: 0.450035 (Simulation time: 114 hr 21 min 55 sec) 
 Total Blocks : 262144 Invalid Blocks : 0
Heartbeat CPU 3 instructions: 390000001 cycles: 571399484 heartbeat IPC: 0.289815 cumulative IPC: 0.449338 (Simulation time: 114 hr 27 min 7 sec) 
 Total Blocks : 262144 Invalid Blocks : 0
Heartbeat CPU 6 instructions: 390000002 cycles: 572114116 heartbeat IPC: 0.289503 cumulative IPC: 0.44858 (Simulation time: 114 hr 32 min 36 sec) 
 Total Blocks : 262144 Invalid Blocks : 0
Heartbeat CPU 7 instructions: 390000002 cycles: 572613443 heartbeat IPC: 0.289235 cumulative IPC: 0.448051 (Simulation time: 114 hr 36 min 28 sec) 
 Total Blocks : 262144 Invalid Blocks : 0
Heartbeat CPU 2 instructions: 390000002 cycles: 572827117 heartbeat IPC: 0.288777 cumulative IPC: 0.447826 (Simulation time: 114 hr 38 min 12 sec) 
 Total Blocks : 262144 Invalid Blocks : 0
Heartbeat CPU 0 instructions: 400000001 cycles: 604083286 heartbeat IPC: 0.290419 cumulative IPC: 0.43905 (Simulation time: 118 hr 39 min 35 sec) 
 Total Blocks : 262144 Invalid Blocks : 0
Finished CPU 0 instructions: 200000000 cycles: 455529547 cumulative IPC: 0.439049 (Simulation time: 118 hr 39 min 37 sec) 
Heartbeat CPU 4 instructions: 400000001 cycles: 604177075 heartbeat IPC: 0.290908 cumulative IPC: 0.43896 (Simulation time: 118 hr 40 min 18 sec) 
 Total Blocks : 262144 Invalid Blocks : 0
Finished CPU 4 instructions: 200000003 cycles: 455622972 cumulative IPC: 0.438959 (Simulation time: 118 hr 40 min 18 sec) 
Heartbeat CPU 1 instructions: 400000001 cycles: 604924431 heartbeat IPC: 0.290955 cumulative IPC: 0.438241 (Simulation time: 118 hr 46 min 0 sec) 
 Total Blocks : 262144 Invalid Blocks : 0
Finished CPU 1 instructions: 200000002 cycles: 456370026 cumulative IPC: 0.438241 (Simulation time: 118 hr 46 min 1 sec) 
Heartbeat CPU 5 instructions: 400000002 cycles: 605264516 heartbeat IPC: 0.289684 cumulative IPC: 0.437915 (Simulation time: 118 hr 48 min 41 sec) 
 Total Blocks : 262144 Invalid Blocks : 0
Finished CPU 5 instructions: 200000000 cycles: 456709607 cumulative IPC: 0.437915 (Simulation time: 118 hr 48 min 42 sec) 
Heartbeat CPU 3 instructions: 400000001 cycles: 605991100 heartbeat IPC: 0.289087 cumulative IPC: 0.437219 (Simulation time: 118 hr 54 min 17 sec) 
 Total Blocks : 262144 Invalid Blocks : 0
Finished CPU 3 instructions: 200000000 cycles: 457436239 cumulative IPC: 0.437219 (Simulation time: 118 hr 54 min 18 sec) 
Heartbeat CPU 6 instructions: 400000001 cycles: 606698408 heartbeat IPC: 0.289149 cumulative IPC: 0.436544 (Simulation time: 118 hr 59 min 50 sec) 
 Total Blocks : 262144 Invalid Blocks : 0
Finished CPU 6 instructions: 200000001 cycles: 458143514 cumulative IPC: 0.436544 (Simulation time: 118 hr 59 min 51 sec) 
Heartbeat CPU 7 instructions: 400000001 cycles: 607051907 heartbeat IPC: 0.290373 cumulative IPC: 0.436208 (Simulation time: 119 hr 2 min 30 sec) 
 Total Blocks : 262144 Invalid Blocks : 0
Finished CPU 7 instructions: 200000000 cycles: 458496993 cumulative IPC: 0.436208 (Simulation time: 119 hr 2 min 31 sec) 
Heartbeat CPU 2 instructions: 400000002 cycles: 607422106 heartbeat IPC: 0.289059 cumulative IPC: 0.435856 (Simulation time: 119 hr 5 min 23 sec) 
 Total Blocks : 262144 Invalid Blocks : 0
Finished CPU 2 instructions: 200000000 cycles: 458867385 cumulative IPC: 0.435856 (Simulation time: 119 hr 5 min 24 sec) 

CPU 0 Branch Prediction Accuracy: 85.1861% MPKI: 20.4888 Average ROB Occupancy at Mispredict: 84.3081

CPU 1 Branch Prediction Accuracy: 85.1877% MPKI: 20.4934 Average ROB Occupancy at Mispredict: 84.1757

CPU 2 Branch Prediction Accuracy: 85.1927% MPKI: 20.508 Average ROB Occupancy at Mispredict: 84.1857

CPU 3 Branch Prediction Accuracy: 85.1899% MPKI: 20.4997 Average ROB Occupancy at Mispredict: 84.2188

CPU 4 Branch Prediction Accuracy: 85.1863% MPKI: 20.4894 Average ROB Occupancy at Mispredict: 84.3146

CPU 5 Branch Prediction Accuracy: 85.1884% MPKI: 20.4955 Average ROB Occupancy at Mispredict: 84.2538

CPU 6 Branch Prediction Accuracy: 85.1913% MPKI: 20.5039 Average ROB Occupancy at Mispredict: 84.1988

CPU 7 Branch Prediction Accuracy: 85.192% MPKI: 20.5058 Average ROB Occupancy at Mispredict: 84.1663

ChampSim completed all CPUs

Total Simulation Statistics (not including warmup)

CPU 0 cumulative IPC: 0.437957 instructions: 200964299 cycles: 458867385
ITLB TOTAL     ACCESS: 24552830  HIT: 24552830  MISS:     0  HIT %:   100  MISS %:     0  AVERAGE MISS PENALTY: 0
ITLB LOAD      ACCESS: 24552830  HIT: 24552830  MISS:     0  HIT %:   100  MISS %:     0  AVERAGE MISS PENALTY: 0
ITLB RFO       ACCESS:     0  HIT:     0  MISS:     0  HIT %:     0  MISS %:     0  AVERAGE MISS PENALTY: 0
ITLB PREFETCH  ACCESS:     0  HIT:     0  MISS:     0  HIT %:     0  MISS %:     0  AVERAGE MISS PENALTY: 0
ITLB WRITEBACK ACCESS:     0  HIT:     0  MISS:     0  HIT %:     0  MISS %:     0  AVERAGE MISS PENALTY: 0

DTLB TOTAL     ACCESS: 36186333  HIT: 36098113  MISS: 88220  HIT %: 99.7562  MISS %: 0.243794  AVERAGE MISS PENALTY: 150.038
DTLB LOAD      ACCESS: 34566027  HIT: 34477807  MISS: 88220  HIT %: 99.7448  MISS %: 0.255222  AVERAGE MISS PENALTY: 150.038
DTLB RFO       ACCESS: 1620306  HIT: 1620306  MISS:     0  HIT %:   100  MISS %:     0  AVERAGE MISS PENALTY: 0
DTLB PREFETCH  ACCESS:     0  HIT:     0  MISS:     0  HIT %:     0  MISS %:     0  AVERAGE MISS PENALTY: 0
DTLB WRITEBACK ACCESS:     0  HIT:     0  MISS:     0  HIT %:     0  MISS %:     0  AVERAGE MISS PENALTY: 0

STLB TOTAL     ACCESS: 88220  HIT:   288  MISS: 87932  HIT %: 0.326457  MISS %: 99.6735  AVERAGE MISS PENALTY: 100
STLB LOAD      ACCESS: 88220  HIT:   288  MISS: 87932  HIT %: 0.326457  MISS %: 99.6735  AVERAGE MISS PENALTY: 100
STLB RFO       ACCESS:     0  HIT:     0  MISS:     0  HIT %:     0  MISS %:     0  AVERAGE MISS PENALTY: 0
STLB PREFETCH  ACCESS:     0  HIT:     0  MISS:     0  HIT %:     0  MISS %:     0  AVERAGE MISS PENALTY: 0
STLB WRITEBACK ACCESS:     0  HIT:     0  MISS:     0  HIT %:     0  MISS %:     0  AVERAGE MISS PENALTY: 0

L1D TOTAL     ACCESS: 31723629  HIT: 26095013  MISS: 5628616  HIT %: 82.2573  MISS %: 17.7427  AVERAGE MISS PENALTY: 1.27949e+08
L1D LOAD      ACCESS: 22364762  HIT: 20208123  MISS: 2156639  HIT %: 90.357  MISS %: 9.64302  AVERAGE MISS PENALTY: 3.33934e+08
L1D RFO       ACCESS: 2535721  HIT: 2535720  MISS:     1  HIT %:   100  MISS %: 3.94365e-05  AVERAGE MISS PENALTY: 15
L1D PREFETCH  ACCESS: 6823146  HIT: 3351170  MISS: 3471976  HIT %: 49.1147  MISS %: 50.8853  AVERAGE MISS PENALTY: 196.969
L1D WRITEBACK ACCESS:     0  HIT:     0  MISS:     0  HIT %:     0  MISS %:     0  AVERAGE MISS PENALTY: 0

L1I TOTAL     ACCESS: 30360872  HIT: 30360864  MISS:     8  HIT %:   100  MISS %: 2.63497e-05  AVERAGE MISS PENALTY: 444.125
L1I LOAD      ACCESS: 30360872  HIT: 30360864  MISS:     8  HIT %:   100  MISS %: 2.63497e-05  AVERAGE MISS PENALTY: 444.125
L1I RFO       ACCESS:     0  HIT:     0  MISS:     0  HIT %:     0  MISS %:     0  AVERAGE MISS PENALTY: 0
L1I PREFETCH  ACCESS:     0  HIT:     0  MISS:     0  HIT %:     0  MISS %:     0  AVERAGE MISS PENALTY: 0
L1I WRITEBACK ACCESS:     0  HIT:     0  MISS:     0  HIT %:     0  MISS %:     0  AVERAGE MISS PENALTY: 0

L2C TOTAL     ACCESS: 7735907  HIT: 2107369  MISS: 5628538  HIT %: 27.2414  MISS %: 72.7586  AVERAGE MISS PENALTY: 1.18084e+08
L2C LOAD      ACCESS: 1981713  HIT:   132  MISS: 1981581  HIT %: 0.0066609  MISS %: 99.9933  AVERAGE MISS PENALTY: 3.35407e+08
L2C RFO       ACCESS:     1  HIT:     1  MISS:     0  HIT %:   100  MISS %:     0  AVERAGE MISS PENALTY: 0
L2C PREFETCH  ACCESS: 5226248  HIT: 1579298  MISS: 3646950  HIT %: 30.2186  MISS %: 69.7814  AVERAGE MISS PENALTY: 389.616
L2C WRITEBACK ACCESS: 527945  HIT: 527938  MISS:     7  HIT %: 99.9987  MISS %: 0.0013259  AVERAGE MISS PENALTY: 0


LLC0 TOTAL     ACCESS: 769260  HIT: 49576  MISS: 719684  HIT %: 6.44464  MISS %: 93.5554  AVERAGE MISS PENALTY: 388.88
LLC0 LOAD      ACCESS: 87808  HIT:     1  MISS: 87807  HIT %: 0.00113885  MISS %: 99.9989  AVERAGE MISS PENALTY: 383.098
LLC0 RFO       ACCESS:     0  HIT:     0  MISS:     0  HIT %:     0  MISS %:     0  AVERAGE MISS PENALTY: 0
LLC0 PREFETCH  ACCESS: 615637  HIT:     0  MISS: 615637  HIT %:     0  MISS %:   100  AVERAGE MISS PENALTY: 399.963
LLC0 WRITEBACK ACCESS: 65815  HIT: 49575  MISS: 16240  HIT %: 75.3248  MISS %: 24.6752  AVERAGE MISS PENALTY: 0

LLC1 TOTAL     ACCESS: 769255  HIT: 49324  MISS: 719931  HIT %: 6.41192  MISS %: 93.5881  AVERAGE MISS PENALTY: 386.216
LLC1 LOAD      ACCESS: 23179  HIT:     0  MISS: 23179  HIT %:     0  MISS %:   100  AVERAGE MISS PENALTY: 256.703
LLC1 RFO       ACCESS:     0  HIT:     0  MISS:     0  HIT %:     0  MISS %:     0  AVERAGE MISS PENALTY: 0
LLC1 PREFETCH  ACCESS: 680264  HIT:     0  MISS: 680264  HIT %:     0  MISS %:   100  AVERAGE MISS PENALTY: 399.989
LLC1 WRITEBACK ACCESS: 65812  HIT: 49324  MISS: 16488  HIT %: 74.9468  MISS %: 25.0532  AVERAGE MISS PENALTY: 0

LLC2 TOTAL     ACCESS: 769520  HIT: 49894  MISS: 719626  HIT %: 6.48378  MISS %: 93.5162  AVERAGE MISS PENALTY: 437.652
LLC2 LOAD      ACCESS:   269  HIT:   162  MISS:   107  HIT %: 60.223  MISS %: 39.777  AVERAGE MISS PENALTY: 580.047
LLC2 RFO       ACCESS:     0  HIT:     0  MISS:     0  HIT %:     0  MISS %:     0  AVERAGE MISS PENALTY: 0
LLC2 PREFETCH  ACCESS: 703436  HIT:     0  MISS: 703436  HIT %:     0  MISS %:   100  AVERAGE MISS PENALTY: 447.637
LLC2 WRITEBACK ACCESS: 65815  HIT: 49732  MISS: 16083  HIT %: 75.5633  MISS %: 24.4367  AVERAGE MISS PENALTY: 0

LLC3 TOTAL     ACCESS: 769522  HIT: 50842  MISS: 718680  HIT %: 6.60696  MISS %: 93.393  AVERAGE MISS PENALTY: 432.74
LLC3 LOAD      ACCESS:   271  HIT:   151  MISS:   120  HIT %: 55.7196  MISS %: 44.2804  AVERAGE MISS PENALTY: 529.217
LLC3 RFO       ACCESS:     0  HIT:     0  MISS:     0  HIT %:     0  MISS %:     0  AVERAGE MISS PENALTY: 0
LLC3 PREFETCH  ACCESS: 703436  HIT:     0  MISS: 703436  HIT %:     0  MISS %:   100  AVERAGE MISS PENALTY: 442.027
LLC3 WRITEBACK ACCESS: 65815  HIT: 50691  MISS: 15124  HIT %: 77.0204  MISS %: 22.9796  AVERAGE MISS PENALTY: 0

LLC4 TOTAL     ACCESS: 769252  HIT: 51158  MISS: 718094  HIT %: 6.65036  MISS %: 93.3496  AVERAGE MISS PENALTY: 394.096
LLC4 LOAD      ACCESS:     4  HIT:     0  MISS:     4  HIT %:     0  MISS %:   100  AVERAGE MISS PENALTY: 441.25
LLC4 RFO       ACCESS:     0  HIT:     0  MISS:     0  HIT %:     0  MISS %:     0  AVERAGE MISS PENALTY: 0
LLC4 PREFETCH  ACCESS: 703437  HIT:     0  MISS: 703437  HIT %:     0  MISS %:   100  AVERAGE MISS PENALTY: 402.305
LLC4 WRITEBACK ACCESS: 65811  HIT: 51158  MISS: 14653  HIT %: 77.7347  MISS %: 22.2653  AVERAGE MISS PENALTY: 0

LLC5 TOTAL     ACCESS: 769459  HIT: 51417  MISS: 718042  HIT %: 6.68223  MISS %: 93.3178  AVERAGE MISS PENALTY: 387.557
LLC5 LOAD      ACCESS:   208  HIT:   128  MISS:    80  HIT %: 61.5385  MISS %: 38.4615  AVERAGE MISS PENALTY: 366.775
LLC5 RFO       ACCESS:     0  HIT:     0  MISS:     0  HIT %:     0  MISS %:     0  AVERAGE MISS PENALTY: 0
LLC5 PREFETCH  ACCESS: 703437  HIT:     0  MISS: 703437  HIT %:     0  MISS %:   100  AVERAGE MISS PENALTY: 395.562
LLC5 WRITEBACK ACCESS: 65814  HIT: 51289  MISS: 14525  HIT %: 77.9302  MISS %: 22.0698  AVERAGE MISS PENALTY: 0

LLC6 TOTAL     ACCESS: 769254  HIT: 50123  MISS: 719131  HIT %: 6.51579  MISS %: 93.4842  AVERAGE MISS PENALTY: 436.59
LLC6 LOAD      ACCESS:     1  HIT:     0  MISS:     1  HIT %:     0  MISS %:   100  AVERAGE MISS PENALTY: 467
LLC6 RFO       ACCESS:     0  HIT:     0  MISS:     0  HIT %:     0  MISS %:     0  AVERAGE MISS PENALTY: 0
LLC6 PREFETCH  ACCESS: 703439  HIT:     0  MISS: 703439  HIT %:     0  MISS %:   100  AVERAGE MISS PENALTY: 446.329
LLC6 WRITEBACK ACCESS: 65814  HIT: 50123  MISS: 15691  HIT %: 76.1586  MISS %: 23.8414  AVERAGE MISS PENALTY: 0

LLC7 TOTAL     ACCESS: 769521  HIT: 49697  MISS: 719824  HIT %: 6.45817  MISS %: 93.5418  AVERAGE MISS PENALTY: 428.47
LLC7 LOAD      ACCESS:   266  HIT:   145  MISS:   121  HIT %: 54.5113  MISS %: 45.4887  AVERAGE MISS PENALTY: 518.033
LLC7 RFO       ACCESS:     0  HIT:     0  MISS:     0  HIT %:     0  MISS %:     0  AVERAGE MISS PENALTY: 0
LLC7 PREFETCH  ACCESS: 703439  HIT:     0  MISS: 703439  HIT %:     0  MISS %:   100  AVERAGE MISS PENALTY: 438.362
LLC7 WRITEBACK ACCESS: 65816  HIT: 49552  MISS: 16264  HIT %: 75.2887  MISS %: 24.7113  AVERAGE MISS PENALTY: 0

Total Rob stall cycles : 	417317711
Total Load Rob Stall cycles : 	280055367
Average Rob Stall cycles : 	 14
Average Load Rob Stall cycles : 	 48

CPU 1 cumulative IPC: 0.437448 instructions: 200730567 cycles: 458867385
ITLB TOTAL     ACCESS: 24529829  HIT: 24529829  MISS:     0  HIT %:   100  MISS %:     0  AVERAGE MISS PENALTY: 0
ITLB LOAD      ACCESS: 24529829  HIT: 24529829  MISS:     0  HIT %:   100  MISS %:     0  AVERAGE MISS PENALTY: 0
ITLB RFO       ACCESS:     0  HIT:     0  MISS:     0  HIT %:     0  MISS %:     0  AVERAGE MISS PENALTY: 0
ITLB PREFETCH  ACCESS:     0  HIT:     0  MISS:     0  HIT %:     0  MISS %:     0  AVERAGE MISS PENALTY: 0
ITLB WRITEBACK ACCESS:     0  HIT:     0  MISS:     0  HIT %:     0  MISS %:     0  AVERAGE MISS PENALTY: 0

DTLB TOTAL     ACCESS: 36148820  HIT: 36060714  MISS: 88106  HIT %: 99.7563  MISS %: 0.243731  AVERAGE MISS PENALTY: 149.943
DTLB LOAD      ACCESS: 34534440  HIT: 34446334  MISS: 88106  HIT %: 99.7449  MISS %: 0.255125  AVERAGE MISS PENALTY: 149.943
DTLB RFO       ACCESS: 1614380  HIT: 1614380  MISS:     0  HIT %:   100  MISS %:     0  AVERAGE MISS PENALTY: 0
DTLB PREFETCH  ACCESS:     0  HIT:     0  MISS:     0  HIT %:     0  MISS %:     0  AVERAGE MISS PENALTY: 0
DTLB WRITEBACK ACCESS:     0  HIT:     0  MISS:     0  HIT %:     0  MISS %:     0  AVERAGE MISS PENALTY: 0

STLB TOTAL     ACCESS: 88106  HIT:   288  MISS: 87818  HIT %: 0.326879  MISS %: 99.6731  AVERAGE MISS PENALTY: 100
STLB LOAD      ACCESS: 88106  HIT:   288  MISS: 87818  HIT %: 0.326879  MISS %: 99.6731  AVERAGE MISS PENALTY: 100
STLB RFO       ACCESS:     0  HIT:     0  MISS:     0  HIT %:     0  MISS %:     0  AVERAGE MISS PENALTY: 0
STLB PREFETCH  ACCESS:     0  HIT:     0  MISS:     0  HIT %:     0  MISS %:     0  AVERAGE MISS PENALTY: 0
STLB WRITEBACK ACCESS:     0  HIT:     0  MISS:     0  HIT %:     0  MISS %:     0  AVERAGE MISS PENALTY: 0

L1D TOTAL     ACCESS: 31694478  HIT: 26073026  MISS: 5621452  HIT %: 82.2636  MISS %: 17.7364  AVERAGE MISS PENALTY: 1.278e+08
L1D LOAD      ACCESS: 22357705  HIT: 20204605  MISS: 2153100  HIT %: 90.3698  MISS %: 9.63024  AVERAGE MISS PENALTY: 3.33668e+08
L1D RFO       ACCESS: 2524259  HIT: 2524258  MISS:     1  HIT %:   100  MISS %: 3.96156e-05  AVERAGE MISS PENALTY: 15
L1D PREFETCH  ACCESS: 6812514  HIT: 3344163  MISS: 3468351  HIT %: 49.0885  MISS %: 50.9115  AVERAGE MISS PENALTY: 197.831
L1D WRITEBACK ACCESS:     0  HIT:     0  MISS:     0  HIT %:     0  MISS %:     0  AVERAGE MISS PENALTY: 0

L1I TOTAL     ACCESS: 30326369  HIT: 30326361  MISS:     8  HIT %:   100  MISS %: 2.63797e-05  AVERAGE MISS PENALTY: 466.375
L1I LOAD      ACCESS: 30326369  HIT: 30326361  MISS:     8  HIT %:   100  MISS %: 2.63797e-05  AVERAGE MISS PENALTY: 466.375
L1I RFO       ACCESS:     0  HIT:     0  MISS:     0  HIT %:     0  MISS %:     0  AVERAGE MISS PENALTY: 0
L1I PREFETCH  ACCESS:     0  HIT:     0  MISS:     0  HIT %:     0  MISS %:     0  AVERAGE MISS PENALTY: 0
L1I WRITEBACK ACCESS:     0  HIT:     0  MISS:     0  HIT %:     0  MISS %:     0  AVERAGE MISS PENALTY: 0

L2C TOTAL     ACCESS: 7721559  HIT: 2100183  MISS: 5621376  HIT %: 27.199  MISS %: 72.801  AVERAGE MISS PENALTY: 1.17893e+08
L2C LOAD      ACCESS: 1977397  HIT:   117  MISS: 1977280  HIT %: 0.00591687  MISS %: 99.9941  AVERAGE MISS PENALTY: 3.35168e+08
L2C RFO       ACCESS:     1  HIT:     1  MISS:     0  HIT %:   100  MISS %:     0  AVERAGE MISS PENALTY: 0
L2C PREFETCH  ACCESS: 5218604  HIT: 1574508  MISS: 3644096  HIT %: 30.1711  MISS %: 69.8289  AVERAGE MISS PENALTY: 391.311
L2C WRITEBACK ACCESS: 525557  HIT: 525557  MISS:     0  HIT %:   100  MISS %:     0  AVERAGE MISS PENALTY: 0


LLC0 TOTAL     ACCESS: 767858  HIT: 44278  MISS: 723580  HIT %: 5.76643  MISS %: 94.2336  AVERAGE MISS PENALTY: 388.504
LLC0 LOAD      ACCESS: 87725  HIT:     1  MISS: 87724  HIT %: 0.00113993  MISS %: 99.9989  AVERAGE MISS PENALTY: 386.106
LLC0 RFO       ACCESS:     0  HIT:     0  MISS:     0  HIT %:     0  MISS %:     0  AVERAGE MISS PENALTY: 0
LLC0 PREFETCH  ACCESS: 614823  HIT:     0  MISS: 614823  HIT %:     0  MISS %:   100  AVERAGE MISS PENALTY: 402.137
LLC0 WRITEBACK ACCESS: 65310  HIT: 44277  MISS: 21033  HIT %: 67.7951  MISS %: 32.2049  AVERAGE MISS PENALTY: 0

LLC1 TOTAL     ACCESS: 767856  HIT: 43939  MISS: 723917  HIT %: 5.7223  MISS %: 94.2777  AVERAGE MISS PENALTY: 385.34
LLC1 LOAD      ACCESS: 23223  HIT:     0  MISS: 23223  HIT %:     0  MISS %:   100  AVERAGE MISS PENALTY: 260.165
LLC1 RFO       ACCESS:     0  HIT:     0  MISS:     0  HIT %:     0  MISS %:     0  AVERAGE MISS PENALTY: 0
LLC1 PREFETCH  ACCESS: 679323  HIT:     0  MISS: 679323  HIT %:     0  MISS %:   100  AVERAGE MISS PENALTY: 401.742
LLC1 WRITEBACK ACCESS: 65310  HIT: 43939  MISS: 21371  HIT %: 67.2776  MISS %: 32.7224  AVERAGE MISS PENALTY: 0

LLC2 TOTAL     ACCESS: 768122  HIT: 44281  MISS: 723841  HIT %: 5.76484  MISS %: 94.2352  AVERAGE MISS PENALTY: 435.491
LLC2 LOAD      ACCESS:   272  HIT:   182  MISS:    90  HIT %: 66.9118  MISS %: 33.0882  AVERAGE MISS PENALTY: 498.278
LLC2 RFO       ACCESS:     0  HIT:     0  MISS:     0  HIT %:     0  MISS %:     0  AVERAGE MISS PENALTY: 0
LLC2 PREFETCH  ACCESS: 702539  HIT:     0  MISS: 702539  HIT %:     0  MISS %:   100  AVERAGE MISS PENALTY: 448.632
LLC2 WRITEBACK ACCESS: 65311  HIT: 44099  MISS: 21212  HIT %: 67.5216  MISS %: 32.4784  AVERAGE MISS PENALTY: 0

LLC3 TOTAL     ACCESS: 768124  HIT: 45589  MISS: 722535  HIT %: 5.93511  MISS %: 94.0649  AVERAGE MISS PENALTY: 430.479
LLC3 LOAD      ACCESS:   272  HIT:   173  MISS:    99  HIT %: 63.6029  MISS %: 36.3971  AVERAGE MISS PENALTY: 591.273
LLC3 RFO       ACCESS:     0  HIT:     0  MISS:     0  HIT %:     0  MISS %:     0  AVERAGE MISS PENALTY: 0
LLC3 PREFETCH  ACCESS: 702541  HIT:     0  MISS: 702541  HIT %:     0  MISS %:   100  AVERAGE MISS PENALTY: 442.647
LLC3 WRITEBACK ACCESS: 65311  HIT: 45416  MISS: 19895  HIT %: 69.5381  MISS %: 30.4619  AVERAGE MISS PENALTY: 0

[...]
LLC1 WRITEBACK ACCESS: 64486  HIT: 48284  MISS: 16202  HIT %: 74.8752  MISS %: 25.1248  AVERAGE MISS PENALTY: 0
LLC1 PREFETCH  REQUESTED:     0  ISSUED:     0  USEFUL:     0  USELESS: 5429289
 USEFUL LOAD PREFETCHES:          0 PREFETCH ISSUED TO LOWER LEVEL:    5427485  ACCURACY: 0
 TIMELY PREFETCHES:          0 LATE PREFETCHES: 0 DROPPED PREFETCHES: 0
LLC1 AVERAGE MISS LATENCY: 388.32 cycles
LLC2 TOTAL     ACCESS: 764499  HIT: 48887  MISS: 715612  HIT %: 6.39465  MISS %: 93.6054  AVERAGE MISS PENALTY: 438.482
LLC2 LOAD      ACCESS:   271  HIT:   162  MISS:   109  HIT %: 59.7786  MISS %: 40.2214  AVERAGE MISS PENALTY: 487.257
LLC2 RFO       ACCESS:     0  HIT:     0  MISS:     0  HIT %:     0  MISS %:     0  AVERAGE MISS PENALTY: 0
LLC2 PREFETCH  ACCESS: 699741  HIT:     0  MISS: 699741  HIT %:     0  MISS %:   100  AVERAGE MISS PENALTY: 448.352
LLC2 WRITEBACK ACCESS: 64487  HIT: 48725  MISS: 15762  HIT %: 75.5579  MISS %: 24.4421  AVERAGE MISS PENALTY: 0
LLC2 PREFETCH  REQUESTED:     0  ISSUED:     0  USEFUL:     0  USELESS: 5615681
 USEFUL LOAD PREFETCHES:          0 PREFETCH ISSUED TO LOWER LEVEL:    5613230  ACCURACY: 0
 TIMELY PREFETCHES:          0 LATE PREFETCHES: 0 DROPPED PREFETCHES: 0
LLC2 AVERAGE MISS LATENCY: 438.482 cycles
LLC3 TOTAL     ACCESS: 764499  HIT: 49772  MISS: 714727  HIT %: 6.51041  MISS %: 93.4896  AVERAGE MISS PENALTY: 433.391
LLC3 LOAD      ACCESS:   270  HIT:   169  MISS:   101  HIT %: 62.5926  MISS %: 37.4074  AVERAGE MISS PENALTY: 499.049
LLC3 RFO       ACCESS:     0  HIT:     0  MISS:     0  HIT %:     0  MISS %:     0  AVERAGE MISS PENALTY: 0
LLC3 PREFETCH  ACCESS: 699742  HIT:     0  MISS: 699742  HIT %:     0  MISS %:   100  AVERAGE MISS PENALTY: 442.6
LLC3 WRITEBACK ACCESS: 64487  HIT: 49603  MISS: 14884  HIT %: 76.9194  MISS %: 23.0806  AVERAGE MISS PENALTY: 0
LLC3 PREFETCH  REQUESTED:     0  ISSUED:     0  USEFUL:     2  USELESS: 5615648
 USEFUL LOAD PREFETCHES:          2 PREFETCH ISSUED TO LOWER LEVEL:    5613240  ACCURACY: 3.563e-05
 TIMELY PREFETCHES:          2 LATE PREFETCHES: 0 DROPPED PREFETCHES: 0
LLC3 AVERAGE MISS LATENCY: 433.391 cycles
LLC4 TOTAL     ACCESS: 764235  HIT: 50014  MISS: 714221  HIT %: 6.54432  MISS %: 93.4557  AVERAGE MISS PENALTY: 396.341
LLC4 LOAD      ACCESS:     1  HIT:     0  MISS:     1  HIT %:     0  MISS %:   100  AVERAGE MISS PENALTY: 181
LLC4 RFO       ACCESS:     0  HIT:     0  MISS:     0  HIT %:     0  MISS %:     0  AVERAGE MISS PENALTY: 0
LLC4 PREFETCH  ACCESS: 699747  HIT:     0  MISS: 699747  HIT %:     0  MISS %:   100  AVERAGE MISS PENALTY: 404.539
LLC4 WRITEBACK ACCESS: 64487  HIT: 50014  MISS: 14473  HIT %: 77.5567  MISS %: 22.4433  AVERAGE MISS PENALTY: 0
LLC4 PREFETCH  REQUESTED:     0  ISSUED:     0  USEFUL:     0  USELESS: 5615558
 USEFUL LOAD PREFETCHES:          0 PREFETCH ISSUED TO LOWER LEVEL:    5613253  ACCURACY: 0
 TIMELY PREFETCHES:          0 LATE PREFETCHES: 0 DROPPED PREFETCHES: 0
LLC4 AVERAGE MISS LATENCY: 396.341 cycles
LLC5 TOTAL     ACCESS: 764440  HIT: 50558  MISS: 713882  HIT %: 6.61373  MISS %: 93.3863  AVERAGE MISS PENALTY: 390.306
LLC5 LOAD      ACCESS:   208  HIT:   126  MISS:    82  HIT %: 60.5769  MISS %: 39.4231  AVERAGE MISS PENALTY: 346.39
LLC5 RFO       ACCESS:     0  HIT:     0  MISS:     0  HIT %:     0  MISS %:     0  AVERAGE MISS PENALTY: 0
LLC5 PREFETCH  ACCESS: 699745  HIT:     0  MISS: 699745  HIT %:     0  MISS %:   100  AVERAGE MISS PENALTY: 398.151
LLC5 WRITEBACK ACCESS: 64487  HIT: 50432  MISS: 14055  HIT %: 78.2049  MISS %: 21.7951  AVERAGE MISS PENALTY: 0
LLC5 PREFETCH  REQUESTED:     0  ISSUED:     0  USEFUL:     0  USELESS: 5615641
 USEFUL LOAD PREFETCHES:          0 PREFETCH ISSUED TO LOWER LEVEL:    5613257  ACCURACY: 0
 TIMELY PREFETCHES:          0 LATE PREFETCHES: 0 DROPPED PREFETCHES: 0
LLC5 AVERAGE MISS LATENCY: 390.306 cycles
LLC6 TOTAL     ACCESS: 764234  HIT: 49157  MISS: 715077  HIT %: 6.43219  MISS %: 93.5678  AVERAGE MISS PENALTY: 436.515
LLC6 LOAD      ACCESS:     0  HIT:     0  MISS:     0  HIT %:     0  MISS %:     0  AVERAGE MISS PENALTY: 0
LLC6 RFO       ACCESS:     0  HIT:     0  MISS:     0  HIT %:     0  MISS %:     0  AVERAGE MISS PENALTY: 0
LLC6 PREFETCH  ACCESS: 699747  HIT:     0  MISS: 699747  HIT %:     0  MISS %:   100  AVERAGE MISS PENALTY: 446.078
LLC6 WRITEBACK ACCESS: 64487  HIT: 49157  MISS: 15330  HIT %: 76.2278  MISS %: 23.7722  AVERAGE MISS PENALTY: 0
LLC6 PREFETCH  REQUESTED:     0  ISSUED:     0  USEFUL:     0  USELESS: 5615925
 USEFUL LOAD PREFETCHES:          0 PREFETCH ISSUED TO LOWER LEVEL:    5614207  ACCURACY: 0
 TIMELY PREFETCHES:          0 LATE PREFETCHES: 0 DROPPED PREFETCHES: 0
LLC6 AVERAGE MISS LATENCY: 436.515 cycles
LLC7 TOTAL     ACCESS: 764498  HIT: 48846  MISS: 715652  HIT %: 6.38929  MISS %: 93.6107  AVERAGE MISS PENALTY: 428.846
LLC7 LOAD      ACCESS:   268  HIT:   152  MISS:   116  HIT %: 56.7164  MISS %: 43.2836  AVERAGE MISS PENALTY: 446.112
LLC7 RFO       ACCESS:     0  HIT:     0  MISS:     0  HIT %:     0  MISS %:     0  AVERAGE MISS PENALTY: 0
LLC7 PREFETCH  ACCESS: 699743  HIT:     0  MISS: 699743  HIT %:     0  MISS %:   100  AVERAGE MISS PENALTY: 438.522
LLC7 WRITEBACK ACCESS: 64487  HIT: 48694  MISS: 15793  HIT %: 75.5098  MISS %: 24.4902  AVERAGE MISS PENALTY: 0
LLC7 PREFETCH  REQUESTED:     0  ISSUED:     0  USEFUL:     0  USELESS: 5616011
 USEFUL LOAD PREFETCHES:          0 PREFETCH ISSUED TO LOWER LEVEL:    5613256  ACCURACY: 0
 TIMELY PREFETCHES:          0 LATE PREFETCHES: 0 DROPPED PREFETCHES: 0
LLC7 AVERAGE MISS LATENCY: 428.846 cycles
ROI Average ROB Stall Cycles:	14.7539
ROI Total ROB Stalls Cycles:	416823777
ROI TOTAL ROB counter      :	28251714
ROI Average Load ROB Stall Cycles:	48.0996
ROI Total Load ROB Stalls Cycle  :	278621369
ROI Total Load ROB stalls Counter:	5792593
Major fault: 0 Minor fault: 99287

CPU 7 cumulative IPC: 0.436208 instructions: 200000000 cycles: 458496993
ITLB TOTAL     ACCESS: 24457958  HIT: 24457958  MISS:     0  HIT %:   100  MISS %:     0  AVERAGE MISS PENALTY: 0
ITLB LOAD      ACCESS: 24457958  HIT: 24457958  MISS:     0  HIT %:   100  MISS %:     0  AVERAGE MISS PENALTY: 0
ITLB RFO       ACCESS:     0  HIT:     0  MISS:     0  HIT %:     0  MISS %:     0  AVERAGE MISS PENALTY: 0
ITLB PREFETCH  ACCESS:     0  HIT:     0  MISS:     0  HIT %:     0  MISS %:     0  AVERAGE MISS PENALTY: 0
ITLB WRITEBACK ACCESS:     0  HIT:     0  MISS:     0  HIT %:     0  MISS %:     0  AVERAGE MISS PENALTY: 0
ITLB PREFETCH  REQUESTED:     0  ISSUED:     0  USEFUL:     0  USELESS:     0
 USEFUL LOAD PREFETCHES:          0 PREFETCH ISSUED TO LOWER LEVEL:          0  ACCURACY: -nan
 TIMELY PREFETCHES:          0 LATE PREFETCHES: 0 DROPPED PREFETCHES: 0
ITLB AVERAGE MISS LATENCY: -nan cycles
DTLB TOTAL     ACCESS: 36018571  HIT: 35930814  MISS: 87757  HIT %: 99.7564  MISS %: 0.243644  AVERAGE MISS PENALTY: 149.494
DTLB LOAD      ACCESS: 34427751  HIT: 34339994  MISS: 87757  HIT %: 99.7451  MISS %: 0.254902  AVERAGE MISS PENALTY: 149.494
DTLB RFO       ACCESS: 1590820  HIT: 1590820  MISS:     0  HIT %:   100  MISS %:     0  AVERAGE MISS PENALTY: 0
DTLB PREFETCH  ACCESS:     0  HIT:     0  MISS:     0  HIT %:     0  MISS %:     0  AVERAGE MISS PENALTY: 0
DTLB WRITEBACK ACCESS:     0  HIT:     0  MISS:     0  HIT %:     0  MISS %:     0  AVERAGE MISS PENALTY: 0
DTLB PREFETCH  REQUESTED:     0  ISSUED:     0  USEFUL:     0  USELESS:     0
 USEFUL LOAD PREFETCHES:          0 PREFETCH ISSUED TO LOWER LEVEL:          0  ACCURACY: -nan
 TIMELY PREFETCHES:          0 LATE PREFETCHES: 0 DROPPED PREFETCHES: 0
DTLB AVERAGE MISS LATENCY: 149.494 cycles
STLB TOTAL     ACCESS: 87757  HIT:   287  MISS: 87470  HIT %: 0.327039  MISS %: 99.673  AVERAGE MISS PENALTY: 100
STLB LOAD      ACCESS: 87757  HIT:   287  MISS: 87470  HIT %: 0.327039  MISS %: 99.673  AVERAGE MISS PENALTY: 100
STLB RFO       ACCESS:     0  HIT:     0  MISS:     0  HIT %:     0  MISS %:     0  AVERAGE MISS PENALTY: 0
STLB PREFETCH  ACCESS:     0  HIT:     0  MISS:     0  HIT %:     0  MISS %:     0  AVERAGE MISS PENALTY: 0
STLB WRITEBACK ACCESS:     0  HIT:     0  MISS:     0  HIT %:     0  MISS %:     0  AVERAGE MISS PENALTY: 0
STLB PREFETCH  REQUESTED:     0  ISSUED:     0  USEFUL:     0  USELESS:     0
 USEFUL LOAD PREFETCHES:          0 PREFETCH ISSUED TO LOWER LEVEL:          0  ACCURACY: -nan
 TIMELY PREFETCHES:          0 LATE PREFETCHES: 0 DROPPED PREFETCHES: 0
STLB AVERAGE MISS LATENCY: 100 cycles
L1D TOTAL     ACCESS: 31503641  HIT: 25904579  MISS: 5599062  HIT %: 82.2273  MISS %: 17.7727  AVERAGE MISS PENALTY: 1.28011e+08
L1D LOAD      ACCESS: 22262107  HIT: 20111549  MISS: 2150558  HIT %: 90.3398  MISS %: 9.66017  AVERAGE MISS PENALTY: 3.33281e+08
L1D RFO       ACCESS: 2488419  HIT: 2488419  MISS:     0  HIT %:   100  MISS %:     0  AVERAGE MISS PENALTY: 0
L1D PREFETCH  ACCESS: 6753115  HIT: 3304611  MISS: 3448504  HIT %: 48.9346  MISS %: 51.0654  AVERAGE MISS PENALTY: 198.992
L1D WRITEBACK ACCESS:     0  HIT:     0  MISS:     0  HIT %:     0  MISS %:     0  AVERAGE MISS PENALTY: 0
L1D PREFETCH  REQUESTED: 14261442  ISSUED: 14261438  USEFUL: 3448494  USELESS:     8
 USEFUL LOAD PREFETCHES:    3448494 PREFETCH ISSUED TO LOWER LEVEL:   10896647  ACCURACY: 31.6473
 TIMELY PREFETCHES:    3448494 LATE PREFETCHES: 2201789 DROPPED PREFETCHES: 4
L1D AVERAGE MISS LATENCY: 215.33 cycles
L1I TOTAL     ACCESS: 30218555  HIT: 30218547  MISS:     8  HIT %:   100  MISS %: 2.64738e-05  AVERAGE MISS PENALTY: 324.75
L1I LOAD      ACCESS: 30218555  HIT: 30218547  MISS:     8  HIT %:   100  MISS %: 2.64738e-05  AVERAGE MISS PENALTY: 324.75
L1I RFO       ACCESS:     0  HIT:     0  MISS:     0  HIT %:     0  MISS %:     0  AVERAGE MISS PENALTY: 0
L1I PREFETCH  ACCESS:     0  HIT:     0  MISS:     0  HIT %:     0  MISS %:     0  AVERAGE MISS PENALTY: 0
L1I WRITEBACK ACCESS:     0  HIT:     0  MISS:     0  HIT %:     0  MISS %:     0  AVERAGE MISS PENALTY: 0
L1I PREFETCH  REQUESTED:     0  ISSUED:     0  USEFUL:     0  USELESS:     0
 USEFUL LOAD PREFETCHES:          0 PREFETCH ISSUED TO LOWER LEVEL:          0  ACCURACY: -nan
 TIMELY PREFETCHES:          0 LATE PREFETCHES: 0 DROPPED PREFETCHES: 0
L1I AVERAGE MISS LATENCY: 324.75 cycles
L2C TOTAL     ACCESS: 7673651  HIT: 2074649  MISS: 5599002  HIT %: 27.036  MISS %: 72.964  AVERAGE MISS PENALTY: 1.18056e+08
L2C LOAD      ACCESS: 1974419  HIT:   109  MISS: 1974310  HIT %: 0.00552061  MISS %: 99.9945  AVERAGE MISS PENALTY: 3.34797e+08
L2C RFO       ACCESS:     0  HIT:     0  MISS:     0  HIT %:     0  MISS %:     0  AVERAGE MISS PENALTY: 0
L2C PREFETCH  ACCESS: 5181138  HIT: 1556446  MISS: 3624692  HIT %: 30.0406  MISS %: 69.9594  AVERAGE MISS PENALTY: 392.961
L2C WRITEBACK ACCESS: 518094  HIT: 518094  MISS:     0  HIT %:   100  MISS %:     0  AVERAGE MISS PENALTY: 0
L2C PREFETCH  REQUESTED: 8577893  ISSUED: 8577893  USEFUL:    33  USELESS: 3626191
 USEFUL LOAD PREFETCHES:         33 PREFETCH ISSUED TO LOWER LEVEL:   10153173  ACCURACY: 0.000325022
 TIMELY PREFETCHES:         33 LATE PREFETCHES: 1894506 DROPPED PREFETCHES: 0
L2C AVERAGE MISS LATENCY: 343.108 cycles
LLC0 TOTAL     ACCESS: 764154  HIT: 44076  MISS: 720078  HIT %: 5.76795  MISS %: 94.2321  AVERAGE MISS PENALTY: 390.862
LLC0 LOAD      ACCESS: 87368  HIT:     0  MISS: 87368  HIT %:     0  MISS %:   100  AVERAGE MISS PENALTY: 386.359
LLC0 RFO       ACCESS:     0  HIT:     0  MISS:     0  HIT %:     0  MISS %:     0  AVERAGE MISS PENALTY: 0
LLC0 PREFETCH  ACCESS: 612384  HIT:     0  MISS: 612384  HIT %:     0  MISS %:   100  AVERAGE MISS PENALTY: 404.478
LLC0 WRITEBACK ACCESS: 64402  HIT: 44076  MISS: 20326  HIT %: 68.4389  MISS %: 31.5611  AVERAGE MISS PENALTY: 0
LLC0 PREFETCH  REQUESTED:     0  ISSUED:     0  USEFUL:     3  USELESS: 4913412
 USEFUL LOAD PREFETCHES:          3 PREFETCH ISSUED TO LOWER LEVEL:    4912441  ACCURACY: 6.10694e-05
 TIMELY PREFETCHES:          3 LATE PREFETCHES: 0 DROPPED PREFETCHES: 0
LLC0 AVERAGE MISS LATENCY: 390.863 cycles
Deadblocks : 700856 Deadblock percentage : 802.188

LLC1 TOTAL     ACCESS: 764150  HIT: 43383  MISS: 720767  HIT %: 5.67729  MISS %: 94.3227  AVERAGE MISS PENALTY: 387.51
LLC1 LOAD      ACCESS: 23249  HIT:     0  MISS: 23249  HIT %:     0  MISS %:   100  AVERAGE MISS PENALTY: 263.008
LLC1 RFO       ACCESS:     0  HIT:     0  MISS:     0  HIT %:     0  MISS %:     0  AVERAGE MISS PENALTY: 0
LLC1 PREFETCH  ACCESS: 676500  HIT:     0  MISS: 676500  HIT %:     0  MISS %:   100  AVERAGE MISS PENALTY: 403.828
LLC1 WRITEBACK ACCESS: 64401  HIT: 43383  MISS: 21018  HIT %: 67.3639  MISS %: 32.6361  AVERAGE MISS PENALTY: 0
LLC1 PREFETCH  REQUESTED:     0  ISSUED:     0  USEFUL:     0  USELESS: 5429289
 USEFUL LOAD PREFETCHES:          0 PREFETCH ISSUED TO LOWER LEVEL:    5427485  ACCURACY: 0
 TIMELY PREFETCHES:          0 LATE PREFETCHES: 0 DROPPED PREFETCHES: 0
LLC1 AVERAGE MISS LATENCY: 387.51 cycles
LLC2 TOTAL     ACCESS: 764418  HIT: 44101  MISS: 720317  HIT %: 5.76923  MISS %: 94.2308  AVERAGE MISS PENALTY: 435.617
LLC2 LOAD      ACCESS:   275  HIT:   180  MISS:    95  HIT %: 65.4545  MISS %: 34.5455  AVERAGE MISS PENALTY: 464.453
LLC2 RFO       ACCESS:     0  HIT:     0  MISS:     0  HIT %:     0  MISS %:     0  AVERAGE MISS PENALTY: 0
LLC2 PREFETCH  ACCESS: 699741  HIT:     0  MISS: 699741  HIT %:     0  MISS %:   100  AVERAGE MISS PENALTY: 448.364
LLC2 WRITEBACK ACCESS: 64402  HIT: 43921  MISS: 20481  HIT %: 68.1982  MISS %: 31.8018  AVERAGE MISS PENALTY: 0
LLC2 PREFETCH  REQUESTED:     0  ISSUED:     0  USEFUL:     0  USELESS: 5615681
 USEFUL LOAD PREFETCHES:          0 PREFETCH ISSUED TO LOWER LEVEL:    5613230  ACCURACY: 0
 TIMELY PREFETCHES:          0 LATE PREFETCHES: 0 DROPPED PREFETCHES: 0
LLC2 AVERAGE MISS LATENCY: 435.617 cycles
LLC3 TOTAL     ACCESS: 764418  HIT: 45242  MISS: 719176  HIT %: 5.91849  MISS %: 94.0815  AVERAGE MISS PENALTY: 431.334
LLC3 LOAD      ACCESS:   274  HIT:   170  MISS:   104  HIT %: 62.0438  MISS %: 37.9562  AVERAGE MISS PENALTY: 429.202
LLC3 RFO       ACCESS:     0  HIT:     0  MISS:     0  HIT %:     0  MISS %:     0  AVERAGE MISS PENALTY: 0
LLC3 PREFETCH  ACCESS: 699742  HIT:     0  MISS: 699742  HIT %:     0  MISS %:   100  AVERAGE MISS PENALTY: 443.25
LLC3 WRITEBACK ACCESS: 64402  HIT: 45072  MISS: 19330  HIT %: 69.9854  MISS %: 30.0146  AVERAGE MISS PENALTY: 0
LLC3 PREFETCH  REQUESTED:     0  ISSUED:     0  USEFUL:     2  USELESS: 5615648
 USEFUL LOAD PREFETCHES:          2 PREFETCH ISSUED TO LOWER LEVEL:    5613240  ACCURACY: 3.563e-05
 TIMELY PREFETCHES:          2 LATE PREFETCHES: 0 DROPPED PREFETCHES: 0
LLC3 AVERAGE MISS LATENCY: 431.334 cycles
LLC4 TOTAL     ACCESS: 764150  HIT: 45997  MISS: 718153  HIT %: 6.01937  MISS %: 93.9806  AVERAGE MISS PENALTY: 396.13
LLC4 LOAD      ACCESS:     5  HIT:     0  MISS:     5  HIT %:     0  MISS %:   100  AVERAGE MISS PENALTY: 275
LLC4 RFO       ACCESS:     0  HIT:     0  MISS:     0  HIT %:     0  MISS %:     0  AVERAGE MISS PENALTY: 0
LLC4 PREFETCH  ACCESS: 699743  HIT:     0  MISS: 699743  HIT %:     0  MISS %:   100  AVERAGE MISS PENALTY: 406.55
LLC4 WRITEBACK ACCESS: 64402  HIT: 45997  MISS: 18405  HIT %: 71.4217  MISS %: 28.5783  AVERAGE MISS PENALTY: 0
LLC4 PREFETCH  REQUESTED:     0  ISSUED:     0  USEFUL:     0  USELESS: 5615558
 USEFUL LOAD PREFETCHES:          0 PREFETCH ISSUED TO LOWER LEVEL:    5613253  ACCURACY: 0
 TIMELY PREFETCHES:          0 LATE PREFETCHES: 0 DROPPED PREFETCHES: 0
LLC4 AVERAGE MISS LATENCY: 396.13 cycles
LLC5 TOTAL     ACCESS: 764359  HIT: 46068  MISS: 718291  HIT %: 6.02701  MISS %: 93.973  AVERAGE MISS PENALTY: 389.415
LLC5 LOAD      ACCESS:   211  HIT:   125  MISS:    86  HIT %: 59.2417  MISS %: 40.7583  AVERAGE MISS PENALTY: 344.116
LLC5 RFO       ACCESS:     0  HIT:     0  MISS:     0  HIT %:     0  MISS %:     0  AVERAGE MISS PENALTY: 0
LLC5 PREFETCH  ACCESS: 699746  HIT:     0  MISS: 699746  HIT %:     0  MISS %:   100  AVERAGE MISS PENALTY: 399.693
LLC5 WRITEBACK ACCESS: 64402  HIT: 45943  MISS: 18459  HIT %: 71.3378  MISS %: 28.6622  AVERAGE MISS PENALTY: 0
LLC5 PREFETCH  REQUESTED:     0  ISSUED:     0  USEFUL:     0  USELESS: 5615641
 USEFUL LOAD PREFETCHES:          0 PREFETCH ISSUED TO LOWER LEVEL:    5613257  ACCURACY: 0
 TIMELY PREFETCHES:          0 LATE PREFETCHES: 0 DROPPED PREFETCHES: 0
LLC5 AVERAGE MISS LATENCY: 389.415 cycles
LLC6 TOTAL     ACCESS: 764150  HIT: 44539  MISS: 719611  HIT %: 5.82857  MISS %: 94.1714  AVERAGE MISS PENALTY: 433.773
LLC6 LOAD      ACCESS:     0  HIT:     0  MISS:     0  HIT %:     0  MISS %:     0  AVERAGE MISS PENALTY: 0
LLC6 RFO       ACCESS:     0  HIT:     0  MISS:     0  HIT %:     0  MISS %:     0  AVERAGE MISS PENALTY: 0
LLC6 PREFETCH  ACCESS: 699748  HIT:     0  MISS: 699748  HIT %:     0  MISS %:   100  AVERAGE MISS PENALTY: 446.086
LLC6 WRITEBACK ACCESS: 64402  HIT: 44539  MISS: 19863  HIT %: 69.1578  MISS %: 30.8422  AVERAGE MISS PENALTY: 0
LLC6 PREFETCH  REQUESTED:     0  ISSUED:     0  USEFUL:     0  USELESS: 5615925
 USEFUL LOAD PREFETCHES:          0 PREFETCH ISSUED TO LOWER LEVEL:    5614207  ACCURACY: 0
 TIMELY PREFETCHES:          0 LATE PREFETCHES: 0 DROPPED PREFETCHES: 0
LLC6 AVERAGE MISS LATENCY: 433.773 cycles
LLC7 TOTAL     ACCESS: 764418  HIT: 44188  MISS: 720230  HIT %: 5.78061  MISS %: 94.2194  AVERAGE MISS PENALTY: 426.63
LLC7 LOAD      ACCESS:   271  HIT:   158  MISS:   113  HIT %: 58.3026  MISS %: 41.6974  AVERAGE MISS PENALTY: 476.265
LLC7 RFO       ACCESS:     0  HIT:     0  MISS:     0  HIT %:     0  MISS %:     0  AVERAGE MISS PENALTY: 0
LLC7 PREFETCH  ACCESS: 699745  HIT:     0  MISS: 699745  HIT %:     0  MISS %:   100  AVERAGE MISS PENALTY: 439.043
LLC7 WRITEBACK ACCESS: 64402  HIT: 44030  MISS: 20372  HIT %: 68.3674  MISS %: 31.6326  AVERAGE MISS PENALTY: 0
LLC7 PREFETCH  REQUESTED:     0  ISSUED:     0  USEFUL:     0  USELESS: 5616011
 USEFUL LOAD PREFETCHES:          0 PREFETCH ISSUED TO LOWER LEVEL:    5613256  ACCURACY: 0
 TIMELY PREFETCHES:          0 LATE PREFETCHES: 0 DROPPED PREFETCHES: 0
LLC7 AVERAGE MISS LATENCY: 426.63 cycles
ROI Average ROB Stall Cycles:	14.7589
ROI Total ROB Stalls Cycles:	417186924
ROI TOTAL ROB counter      :	28266765
ROI Average Load ROB Stall Cycles:	48.1182
ROI Total Load ROB Stalls Cycle  :	278903883
ROI Total Load ROB stalls Counter:	5796220
Major fault: 0 Minor fault: 99255








Interconnect Stats 
LINK 0 BW : 0LINK 1 BW : 0LINK 2 BW : 0LINK 3 BW : 0LINK 4 BW : 0LINK 5 BW : 0LINK 6 BW : 0LINK 7 BW : 0
DRAM Statistics
 CHANNEL 0
 RQ ROW_BUFFER_HIT: 10170568  ROW_BUFFER_MISS: 12283306
 DBUS_CONGESTED: 15192626
 WQ ROW_BUFFER_HIT: 238846  ROW_BUFFER_MISS: 1808273  FULL:     0

 CHANNEL 1
 RQ ROW_BUFFER_HIT: 10094318  ROW_BUFFER_MISS: 12361225
 DBUS_CONGESTED: 15192626
 WQ ROW_BUFFER_HIT: 240902  ROW_BUFFER_MISS: 1806134  FULL:     0

 AVG_CONGESTED_CYCLE: 5
DRAM PAGES: 2097152
Allocated PAGES: 795038
L2C destructor called
L1D destructor called
L1I destructor called
STLB destructor called
DTLB destructor called
ITLB destructor called
L2C destructor called
L1D destructor called
L1I destructor called
STLB destructor called
DTLB destructor called
ITLB destructor called
L2C destructor called
L1D destructor called
L1I destructor called
STLB destructor called
DTLB destructor called
ITLB destructor called
L2C destructor called
L1D destructor called
L1I destructor called
STLB destructor called
DTLB destructor called
ITLB destructor called
L2C destructor called
L1D destructor called
L1I destructor called
STLB destructor called
DTLB destructor called
ITLB destructor called
L2C destructor called
L1D destructor called
L1I destructor called
STLB destructor called
DTLB destructor called
ITLB destructor called
L2C destructor called
L1D destructor called
L1I destructor called
STLB destructor called
DTLB destructor called
ITLB destructor called
L2C destructor called
L1D destructor called
L1I destructor called
STLB destructor called
DTLB destructor called
ITLB destructor called
