
*** ChampSim Multicore Out-of-Order Simulator ***

Warmup Instructions: 200000000
Simulation Instructions: 200000000
Number of CPUs: 8
threads:1

L1I Configuration:
L1I_SET:64
L1I_WAY:8
L1I_RQ_SIZE:64
L1I_WQ_SIZE:64
L1I_PQ_SIZE:8
L1I_MSHR_SIZE:8

L1D Configuration:
L1D_SET:64
L1D_WAY:12
L1D_RQ_SIZE:64
L1D_WQ_SIZE:64
L1D_PQ_SIZE:8
L1D_MSHR_SIZE:16

L2C Configuration:
L2C_SET:1024
L2C_WAY:8
L2C_RQ_SIZE:32
L2C_WQ_SIZE:32
L2C_PQ_SIZE:16
L2C_MSHR_SIZE:32

LLC Configuration:
LLC_SET:2048
LLC_WAY:16
LLC SLICES:8
LLC_RQ_SIZE:64
LLC_WQ_SIZE:64
LLC_PQ_SIZE:32
LLC_MSHR_SIZE:64

Interconnect OFF
Attacker deprioritize is: OFF
Off-chip DRAM Size: 8192 MB Channels: 2 Width: 64-bit Data Rate: 3200 MT/s
PAGE SIZE in KB: 4.000000 
PAGE SIZE in MB: 0.003906 
PAGE offset in bits: 12 
CEASER-S_LLC:0
MIRAGE : 0
CEASER_LATENCY:3
REMAP : OFF
Partitions : 1
Multi-Step : OFF
BFS : OFF

CPU 0 runs /home/anubhav/spec_2017/603.bwaves_s-1740B.champsimtrace.xz
CPU 1 runs /home/anubhav/spec_2017/603.bwaves_s-1740B.champsimtrace.xz
CPU 2 runs /home/anubhav/spec_2017/603.bwaves_s-1740B.champsimtrace.xz
CPU 3 runs /home/anubhav/spec_2017/603.bwaves_s-1740B.champsimtrace.xz
CPU 4 runs /home/anubhav/spec_2017/603.bwaves_s-1740B.champsimtrace.xz
CPU 5 runs /home/anubhav/spec_2017/603.bwaves_s-1740B.champsimtrace.xz
CPU 6 runs /home/anubhav/spec_2017/603.bwaves_s-1740B.champsimtrace.xz
CPU 7 runs /home/anubhav/spec_2017/603.bwaves_s-1740B.champsimtrace.xz
CPU 0 Bimodal branch predictor
Initialize Hawkeye state
Initialize Hawkeye state
Initialize Hawkeye state
Initialize Hawkeye state
Initialize Hawkeye state
Initialize Hawkeye state
Initialize Hawkeye state
Initialize Hawkeye state
CPU 1 Bimodal branch predictor
Initialize Hawkeye state
Initialize Hawkeye state
Initialize Hawkeye state
Initialize Hawkeye state
Initialize Hawkeye state
Initialize Hawkeye state
Initialize Hawkeye state
Initialize Hawkeye state
CPU 2 Bimodal branch predictor
Initialize Hawkeye state
Initialize Hawkeye state
Initialize Hawkeye state
Initialize Hawkeye state
Initialize Hawkeye state
Initialize Hawkeye state
Initialize Hawkeye state
Initialize Hawkeye state
CPU 3 Bimodal branch predictor
Initialize Hawkeye state
Initialize Hawkeye state
Initialize Hawkeye state
Initialize Hawkeye state
Initialize Hawkeye state
Initialize Hawkeye state
Initialize Hawkeye state
Initialize Hawkeye state
CPU 4 Bimodal branch predictor
Initialize Hawkeye state
Initialize Hawkeye state
Initialize Hawkeye state
Initialize Hawkeye state
Initialize Hawkeye state
Initialize Hawkeye state
Initialize Hawkeye state
Initialize Hawkeye state
CPU 5 Bimodal branch predictor
Initialize Hawkeye state
Initialize Hawkeye state
Initialize Hawkeye state
Initialize Hawkeye state
Initialize Hawkeye state
Initialize Hawkeye state
Initialize Hawkeye state
Initialize Hawkeye state
CPU 6 Bimodal branch predictor
Initialize Hawkeye state
Initialize Hawkeye state
Initialize Hawkeye state
Initialize Hawkeye state
Initialize Hawkeye state
Initialize Hawkeye state
Initialize Hawkeye state
Initialize Hawkeye state
CPU 7 Bimodal branch predictor
Initialize Hawkeye state
Initialize Hawkeye state
Initialize Hawkeye state
Initialize Hawkeye state
Initialize Hawkeye state
Initialize Hawkeye state
Initialize Hawkeye state
Initialize Hawkeye state
Heartbeat CPU 0 instructions: 10000002 cycles: 5311251 heartbeat IPC: 1.8828 cumulative IPC: 1.8828 (Simulation time: 3 hr 32 min 23 sec) 
 Total Blocks : 262144 Invalid Blocks : 12745
Heartbeat CPU 2 instructions: 10000002 cycles: 5311333 heartbeat IPC: 1.88277 cumulative IPC: 1.88277 (Simulation time: 3 hr 32 min 50 sec) 
 Total Blocks : 262144 Invalid Blocks : 12745
Heartbeat CPU 1 instructions: 10000002 cycles: 5311344 heartbeat IPC: 1.88276 cumulative IPC: 1.88276 (Simulation time: 3 hr 32 min 53 sec) 
 Total Blocks : 262144 Invalid Blocks : 12745
Heartbeat CPU 7 instructions: 10000002 cycles: 5311413 heartbeat IPC: 1.88274 cumulative IPC: 1.88274 (Simulation time: 3 hr 32 min 54 sec) 
 Total Blocks : 262144 Invalid Blocks : 12745
Heartbeat CPU 3 instructions: 10000002 cycles: 5311423 heartbeat IPC: 1.88274 cumulative IPC: 1.88274 (Simulation time: 3 hr 32 min 54 sec) 
 Total Blocks : 262144 Invalid Blocks : 12745
Heartbeat CPU 6 instructions: 10000002 cycles: 5311466 heartbeat IPC: 1.88272 cumulative IPC: 1.88272 (Simulation time: 3 hr 32 min 54 sec) 
 Total Blocks : 262144 Invalid Blocks : 12745
Heartbeat CPU 5 instructions: 10000002 cycles: 5311472 heartbeat IPC: 1.88272 cumulative IPC: 1.88272 (Simulation time: 3 hr 32 min 54 sec) 
 Total Blocks : 262144 Invalid Blocks : 12745
Heartbeat CPU 4 instructions: 10000002 cycles: 5311473 heartbeat IPC: 1.88272 cumulative IPC: 1.88272 (Simulation time: 3 hr 32 min 54 sec) 
 Total Blocks : 262144 Invalid Blocks : 12745
Heartbeat CPU 0 instructions: 20000002 cycles: 10622925 heartbeat IPC: 1.88265 cumulative IPC: 1.88272 (Simulation time: 7 hr 7 min 30 sec) 
 Total Blocks : 262144 Invalid Blocks : 1600
Heartbeat CPU 2 instructions: 20000002 cycles: 10622999 heartbeat IPC: 1.88265 cumulative IPC: 1.88271 (Simulation time: 7 hr 7 min 38 sec) 
 Total Blocks : 262144 Invalid Blocks : 1600
Heartbeat CPU 1 instructions: 20000002 cycles: 10623000 heartbeat IPC: 1.88265 cumulative IPC: 1.88271 (Simulation time: 7 hr 7 min 38 sec) 
 Total Blocks : 262144 Invalid Blocks : 1600
Heartbeat CPU 7 instructions: 20000002 cycles: 10623093 heartbeat IPC: 1.88264 cumulative IPC: 1.88269 (Simulation time: 7 hr 7 min 39 sec) 
 Total Blocks : 262144 Invalid Blocks : 1599
Heartbeat CPU 3 instructions: 20000002 cycles: 10623094 heartbeat IPC: 1.88265 cumulative IPC: 1.88269 (Simulation time: 7 hr 7 min 39 sec) 
 Total Blocks : 262144 Invalid Blocks : 1599
Heartbeat CPU 4 instructions: 20000002 cycles: 10623286 heartbeat IPC: 1.8826 cumulative IPC: 1.88266 (Simulation time: 7 hr 7 min 39 sec) 
 Total Blocks : 262144 Invalid Blocks : 1599
Heartbeat CPU 6 instructions: 20000002 cycles: 10623287 heartbeat IPC: 1.88259 cumulative IPC: 1.88266 (Simulation time: 7 hr 7 min 39 sec) 
 Total Blocks : 262144 Invalid Blocks : 1599
Heartbeat CPU 5 instructions: 20000002 cycles: 10623294 heartbeat IPC: 1.88259 cumulative IPC: 1.88266 (Simulation time: 7 hr 7 min 39 sec) 
 Total Blocks : 262144 Invalid Blocks : 1599
Heartbeat CPU 0 instructions: 30000002 cycles: 15934223 heartbeat IPC: 1.88278 cumulative IPC: 1.88274 (Simulation time: 10 hr 54 min 43 sec) 
 Total Blocks : 262144 Invalid Blocks : 287
Heartbeat CPU 1 instructions: 30000002 cycles: 15934337 heartbeat IPC: 1.88277 cumulative IPC: 1.88273 (Simulation time: 10 hr 54 min 48 sec) 
 Total Blocks : 262144 Invalid Blocks : 287
Heartbeat CPU 2 instructions: 30000002 cycles: 15934353 heartbeat IPC: 1.88276 cumulative IPC: 1.88272 (Simulation time: 10 hr 54 min 48 sec) 
 Total Blocks : 262144 Invalid Blocks : 287
Heartbeat CPU 3 instructions: 30000002 cycles: 15934425 heartbeat IPC: 1.88277 cumulative IPC: 1.88272 (Simulation time: 10 hr 54 min 48 sec) 
 Total Blocks : 262144 Invalid Blocks : 287
Heartbeat CPU 7 instructions: 30000002 cycles: 15934441 heartbeat IPC: 1.88276 cumulative IPC: 1.88271 (Simulation time: 10 hr 54 min 49 sec) 
 Total Blocks : 262144 Invalid Blocks : 287
Heartbeat CPU 4 instructions: 30000002 cycles: 15934606 heartbeat IPC: 1.88277 cumulative IPC: 1.88269 (Simulation time: 10 hr 54 min 49 sec) 
 Total Blocks : 262144 Invalid Blocks : 287
Heartbeat CPU 6 instructions: 30000002 cycles: 15934622 heartbeat IPC: 1.88277 cumulative IPC: 1.88269 (Simulation time: 10 hr 54 min 49 sec) 
 Total Blocks : 262144 Invalid Blocks : 287
Heartbeat CPU 5 instructions: 30000002 cycles: 15934646 heartbeat IPC: 1.88276 cumulative IPC: 1.88269 (Simulation time: 10 hr 54 min 49 sec) 
 Total Blocks : 262144 Invalid Blocks : 287
Heartbeat CPU 0 instructions: 40000003 cycles: 21244947 heartbeat IPC: 1.88298 cumulative IPC: 1.8828 (Simulation time: 14 hr 28 min 24 sec) 
 Total Blocks : 262144 Invalid Blocks : 53
Heartbeat CPU 1 instructions: 40000003 cycles: 21245056 heartbeat IPC: 1.88298 cumulative IPC: 1.88279 (Simulation time: 14 hr 28 min 28 sec) 
 Total Blocks : 262144 Invalid Blocks : 53
Heartbeat CPU 2 instructions: 40000003 cycles: 21245063 heartbeat IPC: 1.88299 cumulative IPC: 1.88279 (Simulation time: 14 hr 28 min 28 sec) 
 Total Blocks : 262144 Invalid Blocks : 53
Heartbeat CPU 7 instructions: 40000003 cycles: 21245179 heartbeat IPC: 1.88298 cumulative IPC: 1.88278 (Simulation time: 14 hr 28 min 28 sec) 
 Total Blocks : 262144 Invalid Blocks : 53
Heartbeat CPU 3 instructions: 40000003 cycles: 21245185 heartbeat IPC: 1.88297 cumulative IPC: 1.88278 (Simulation time: 14 hr 28 min 28 sec) 
 Total Blocks : 262144 Invalid Blocks : 53
Heartbeat CPU 6 instructions: 40000003 cycles: 21245367 heartbeat IPC: 1.88298 cumulative IPC: 1.88276 (Simulation time: 14 hr 28 min 29 sec) 
 Total Blocks : 262144 Invalid Blocks : 53
Heartbeat CPU 4 instructions: 40000003 cycles: 21245379 heartbeat IPC: 1.88297 cumulative IPC: 1.88276 (Simulation time: 14 hr 28 min 29 sec) 
 Total Blocks : 262144 Invalid Blocks : 53
Heartbeat CPU 5 instructions: 40000003 cycles: 21245390 heartbeat IPC: 1.88298 cumulative IPC: 1.88276 (Simulation time: 14 hr 28 min 29 sec) 
 Total Blocks : 262144 Invalid Blocks : 53
Heartbeat CPU 0 instructions: 50000003 cycles: 26556173 heartbeat IPC: 1.8828 cumulative IPC: 1.8828 (Simulation time: 17 hr 59 min 6 sec) 
 Total Blocks : 262144 Invalid Blocks : 12
Heartbeat CPU 1 instructions: 50000003 cycles: 26556267 heartbeat IPC: 1.88281 cumulative IPC: 1.88279 (Simulation time: 17 hr 59 min 10 sec) 
 Total Blocks : 262144 Invalid Blocks : 12
Heartbeat CPU 2 instructions: 50000003 cycles: 26556308 heartbeat IPC: 1.8828 cumulative IPC: 1.88279 (Simulation time: 17 hr 59 min 10 sec) 
 Total Blocks : 262144 Invalid Blocks : 12
Heartbeat CPU 3 instructions: 50000003 cycles: 26556406 heartbeat IPC: 1.88281 cumulative IPC: 1.88278 (Simulation time: 17 hr 59 min 10 sec) 
 Total Blocks : 262144 Invalid Blocks : 12
Heartbeat CPU 7 instructions: 50000003 cycles: 26556419 heartbeat IPC: 1.8828 cumulative IPC: 1.88278 (Simulation time: 17 hr 59 min 10 sec) 
 Total Blocks : 262144 Invalid Blocks : 12
Heartbeat CPU 6 instructions: 50000003 cycles: 26556597 heartbeat IPC: 1.8828 cumulative IPC: 1.88277 (Simulation time: 17 hr 59 min 11 sec) 
 Total Blocks : 262144 Invalid Blocks : 12
Heartbeat CPU 4 instructions: 50000003 cycles: 26556598 heartbeat IPC: 1.88281 cumulative IPC: 1.88277 (Simulation time: 17 hr 59 min 11 sec) 
 Total Blocks : 262144 Invalid Blocks : 12
Heartbeat CPU 5 instructions: 50000003 cycles: 26556632 heartbeat IPC: 1.8828 cumulative IPC: 1.88277 (Simulation time: 17 hr 59 min 11 sec) 
 Total Blocks : 262144 Invalid Blocks : 12
Heartbeat CPU 0 instructions: 60000002 cycles: 31867899 heartbeat IPC: 1.88263 cumulative IPC: 1.88277 (Simulation time: 21 hr 19 min 30 sec) 
 Total Blocks : 262144 Invalid Blocks : 3
Heartbeat CPU 1 instructions: 60000002 cycles: 31868005 heartbeat IPC: 1.88262 cumulative IPC: 1.88277 (Simulation time: 21 hr 19 min 33 sec) 
 Total Blocks : 262144 Invalid Blocks : 3
Heartbeat CPU 2 instructions: 60000002 cycles: 31868048 heartbeat IPC: 1.88262 cumulative IPC: 1.88276 (Simulation time: 21 hr 19 min 33 sec) 
 Total Blocks : 262144 Invalid Blocks : 3
Heartbeat CPU 3 instructions: 60000002 cycles: 31868149 heartbeat IPC: 1.88262 cumulative IPC: 1.88276 (Simulation time: 21 hr 19 min 33 sec) 
 Total Blocks : 262144 Invalid Blocks : 3
Heartbeat CPU 7 instructions: 60000002 cycles: 31868177 heartbeat IPC: 1.88262 cumulative IPC: 1.88276 (Simulation time: 21 hr 19 min 33 sec) 
 Total Blocks : 262144 Invalid Blocks : 3
Heartbeat CPU 6 instructions: 60000002 cycles: 31868474 heartbeat IPC: 1.88257 cumulative IPC: 1.88274 (Simulation time: 21 hr 19 min 33 sec) 
 Total Blocks : 262144 Invalid Blocks : 3
Heartbeat CPU 4 instructions: 60000002 cycles: 31868475 heartbeat IPC: 1.88257 cumulative IPC: 1.88274 (Simulation time: 21 hr 19 min 33 sec) 
 Total Blocks : 262144 Invalid Blocks : 3
Heartbeat CPU 5 instructions: 60000002 cycles: 31868477 heartbeat IPC: 1.88258 cumulative IPC: 1.88274 (Simulation time: 21 hr 19 min 33 sec) 
 Total Blocks : 262144 Invalid Blocks : 3
Heartbeat CPU 0 instructions: 70000001 cycles: 37179046 heartbeat IPC: 1.88283 cumulative IPC: 1.88278 (Simulation time: 24 hr 36 min 33 sec) 
 Total Blocks : 262144 Invalid Blocks : 0
Heartbeat CPU 1 instructions: 70000001 cycles: 37179082 heartbeat IPC: 1.88286 cumulative IPC: 1.88278 (Simulation time: 24 hr 36 min 35 sec) 
 Total Blocks : 262144 Invalid Blocks : 0
Heartbeat CPU 2 instructions: 70000001 cycles: 37179184 heartbeat IPC: 1.88284 cumulative IPC: 1.88277 (Simulation time: 24 hr 36 min 35 sec) 
 Total Blocks : 262144 Invalid Blocks : 0
Heartbeat CPU 3 instructions: 70000001 cycles: 37179255 heartbeat IPC: 1.88285 cumulative IPC: 1.88277 (Simulation time: 24 hr 36 min 35 sec) 
 Total Blocks : 262144 Invalid Blocks : 0
Heartbeat CPU 7 instructions: 70000001 cycles: 37179335 heartbeat IPC: 1.88283 cumulative IPC: 1.88277 (Simulation time: 24 hr 36 min 35 sec) 
 Total Blocks : 262144 Invalid Blocks : 0
Heartbeat CPU 4 instructions: 70000001 cycles: 37179656 heartbeat IPC: 1.88282 cumulative IPC: 1.88275 (Simulation time: 24 hr 36 min 36 sec) 
 Total Blocks : 262144 Invalid Blocks : 0
Heartbeat CPU 6 instructions: 70000001 cycles: 37179671 heartbeat IPC: 1.88281 cumulative IPC: 1.88275 (Simulation time: 24 hr 36 min 36 sec) 
 Total Blocks : 262144 Invalid Blocks : 0
Heartbeat CPU 5 instructions: 70000001 cycles: 37179681 heartbeat IPC: 1.88281 cumulative IPC: 1.88275 (Simulation time: 24 hr 36 min 36 sec) 
 Total Blocks : 262144 Invalid Blocks : 0
Heartbeat CPU 0 instructions: 80000000 cycles: 42489809 heartbeat IPC: 1.88297 cumulative IPC: 1.8828 (Simulation time: 27 hr 59 min 42 sec) 
 Total Blocks : 262144 Invalid Blocks : 0
Heartbeat CPU 1 instructions: 80000000 cycles: 42489838 heartbeat IPC: 1.88297 cumulative IPC: 1.8828 (Simulation time: 27 hr 59 min 45 sec) 
 Total Blocks : 262144 Invalid Blocks : 0
Heartbeat CPU 2 instructions: 80000000 cycles: 42489961 heartbeat IPC: 1.88296 cumulative IPC: 1.8828 (Simulation time: 27 hr 59 min 47 sec) 
 Total Blocks : 262144 Invalid Blocks : 0
Heartbeat CPU 3 instructions: 80000000 cycles: 42490017 heartbeat IPC: 1.88297 cumulative IPC: 1.8828 (Simulation time: 27 hr 59 min 47 sec) 
 Total Blocks : 262144 Invalid Blocks : 0
Heartbeat CPU 7 instructions: 80000000 cycles: 42490149 heartbeat IPC: 1.88295 cumulative IPC: 1.88279 (Simulation time: 27 hr 59 min 47 sec) 
 Total Blocks : 262144 Invalid Blocks : 0
Heartbeat CPU 6 instructions: 80000000 cycles: 42490464 heartbeat IPC: 1.88296 cumulative IPC: 1.88278 (Simulation time: 27 hr 59 min 48 sec) 
 Total Blocks : 262144 Invalid Blocks : 0
Heartbeat CPU 4 instructions: 80000000 cycles: 42490472 heartbeat IPC: 1.88295 cumulative IPC: 1.88278 (Simulation time: 27 hr 59 min 48 sec) 
 Total Blocks : 262144 Invalid Blocks : 0
Heartbeat CPU 5 instructions: 80000000 cycles: 42490521 heartbeat IPC: 1.88294 cumulative IPC: 1.88277 (Simulation time: 27 hr 59 min 49 sec) 
 Total Blocks : 262144 Invalid Blocks : 0
Heartbeat CPU 0 instructions: 90000003 cycles: 47801246 heartbeat IPC: 1.88273 cumulative IPC: 1.8828 (Simulation time: 31 hr 23 min 31 sec) 
 Total Blocks : 262144 Invalid Blocks : 0
Heartbeat CPU 1 instructions: 90000003 cycles: 47801274 heartbeat IPC: 1.88273 cumulative IPC: 1.8828 (Simulation time: 31 hr 23 min 33 sec) 
 Total Blocks : 262144 Invalid Blocks : 0
Heartbeat CPU 2 instructions: 90000003 cycles: 47801395 heartbeat IPC: 1.88273 cumulative IPC: 1.88279 (Simulation time: 31 hr 23 min 33 sec) 
 Total Blocks : 262144 Invalid Blocks : 0
Heartbeat CPU 3 instructions: 90000003 cycles: 47801423 heartbeat IPC: 1.88274 cumulative IPC: 1.88279 (Simulation time: 31 hr 23 min 33 sec) 
 Total Blocks : 262144 Invalid Blocks : 0
Heartbeat CPU 7 instructions: 90000003 cycles: 47801600 heartbeat IPC: 1.88273 cumulative IPC: 1.88278 (Simulation time: 31 hr 23 min 33 sec) 
 Total Blocks : 262144 Invalid Blocks : 0
Heartbeat CPU 6 instructions: 90000003 cycles: 47801954 heartbeat IPC: 1.88271 cumulative IPC: 1.88277 (Simulation time: 31 hr 23 min 33 sec) 
 Total Blocks : 262144 Invalid Blocks : 0
Heartbeat CPU 4 instructions: 90000003 cycles: 47801955 heartbeat IPC: 1.88271 cumulative IPC: 1.88277 (Simulation time: 31 hr 23 min 33 sec) 
 Total Blocks : 262144 Invalid Blocks : 0
Heartbeat CPU 5 instructions: 90000003 cycles: 47801990 heartbeat IPC: 1.88272 cumulative IPC: 1.88277 (Simulation time: 31 hr 23 min 33 sec) 
 Total Blocks : 262144 Invalid Blocks : 0
Heartbeat CPU 0 instructions: 100000001 cycles: 53112841 heartbeat IPC: 1.88267 cumulative IPC: 1.88278 (Simulation time: 34 hr 55 min 28 sec) 
 Total Blocks : 262144 Invalid Blocks : 0
Heartbeat CPU 1 instructions: 100000001 cycles: 53112846 heartbeat IPC: 1.88268 cumulative IPC: 1.88278 (Simulation time: 34 hr 55 min 30 sec) 
 Total Blocks : 262144 Invalid Blocks : 0
Heartbeat CPU 3 instructions: 100000001 cycles: 53113045 heartbeat IPC: 1.88266 cumulative IPC: 1.88278 (Simulation time: 34 hr 55 min 30 sec) 
 Total Blocks : 262144 Invalid Blocks : 0
Heartbeat CPU 2 instructions: 100000001 cycles: 53113046 heartbeat IPC: 1.88265 cumulative IPC: 1.88278 (Simulation time: 34 hr 55 min 31 sec) 
 Total Blocks : 262144 Invalid Blocks : 0
Heartbeat CPU 7 instructions: 100000001 cycles: 53113222 heartbeat IPC: 1.88266 cumulative IPC: 1.88277 (Simulation time: 34 hr 55 min 31 sec) 
 Total Blocks : 262144 Invalid Blocks : 0
Heartbeat CPU 6 instructions: 100000001 cycles: 53113556 heartbeat IPC: 1.88267 cumulative IPC: 1.88276 (Simulation time: 34 hr 55 min 31 sec) 
 Total Blocks : 262144 Invalid Blocks : 0
Heartbeat CPU 4 instructions: 100000001 cycles: 53113602 heartbeat IPC: 1.88265 cumulative IPC: 1.88276 (Simulation time: 34 hr 55 min 31 sec) 
 Total Blocks : 262144 Invalid Blocks : 0
Heartbeat CPU 5 instructions: 100000001 cycles: 53113629 heartbeat IPC: 1.88266 cumulative IPC: 1.88276 (Simulation time: 34 hr 55 min 31 sec) 
 Total Blocks : 262144 Invalid Blocks : 0
Heartbeat CPU 0 instructions: 110000000 cycles: 58423456 heartbeat IPC: 1.88302 cumulative IPC: 1.88281 (Simulation time: 38 hr 38 min 26 sec) 
 Total Blocks : 262144 Invalid Blocks : 0
Heartbeat CPU 1 instructions: 110000000 cycles: 58423458 heartbeat IPC: 1.88302 cumulative IPC: 1.88281 (Simulation time: 38 hr 38 min 28 sec) 
 Total Blocks : 262144 Invalid Blocks : 0
Heartbeat CPU 2 instructions: 110000000 cycles: 58423672 heartbeat IPC: 1.88302 cumulative IPC: 1.8828 (Simulation time: 38 hr 38 min 28 sec) 
 Total Blocks : 262144 Invalid Blocks : 0
Heartbeat CPU 3 instructions: 110000000 cycles: 58423672 heartbeat IPC: 1.88302 cumulative IPC: 1.8828 (Simulation time: 38 hr 38 min 28 sec) 
 Total Blocks : 262144 Invalid Blocks : 0
Heartbeat CPU 7 instructions: 110000000 cycles: 58423837 heartbeat IPC: 1.88302 cumulative IPC: 1.88279 (Simulation time: 38 hr 38 min 28 sec) 
 Total Blocks : 262144 Invalid Blocks : 0
Heartbeat CPU 6 instructions: 110000000 cycles: 58424197 heartbeat IPC: 1.88301 cumulative IPC: 1.88278 (Simulation time: 38 hr 38 min 28 sec) 
 Total Blocks : 262144 Invalid Blocks : 0
Heartbeat CPU 4 instructions: 110000000 cycles: 58424234 heartbeat IPC: 1.88301 cumulative IPC: 1.88278 (Simulation time: 38 hr 38 min 28 sec) 
 Total Blocks : 262144 Invalid Blocks : 0
Heartbeat CPU 5 instructions: 110000000 cycles: 58424269 heartbeat IPC: 1.88301 cumulative IPC: 1.88278 (Simulation time: 38 hr 38 min 28 sec) 
 Total Blocks : 262144 Invalid Blocks : 0
Heartbeat CPU 1 instructions: 120000001 cycles: 63734472 heartbeat IPC: 1.88288 cumulative IPC: 1.88281 (Simulation time: 42 hr 34 min 49 sec) 
 Total Blocks : 262144 Invalid Blocks : 0
Heartbeat CPU 0 instructions: 120000001 cycles: 63734483 heartbeat IPC: 1.88288 cumulative IPC: 1.88281 (Simulation time: 42 hr 35 min 8 sec) 
 Total Blocks : 262144 Invalid Blocks : 0
Heartbeat CPU 3 instructions: 120000001 cycles: 63734736 heartbeat IPC: 1.88286 cumulative IPC: 1.8828 (Simulation time: 42 hr 35 min 9 sec) 
 Total Blocks : 262144 Invalid Blocks : 0
Heartbeat CPU 2 instructions: 120000001 cycles: 63734739 heartbeat IPC: 1.88286 cumulative IPC: 1.8828 (Simulation time: 42 hr 35 min 9 sec) 
 Total Blocks : 262144 Invalid Blocks : 0
Heartbeat CPU 7 instructions: 120000001 cycles: 63734822 heartbeat IPC: 1.88289 cumulative IPC: 1.8828 (Simulation time: 42 hr 35 min 9 sec) 
 Total Blocks : 262144 Invalid Blocks : 0
Heartbeat CPU 6 instructions: 120000001 cycles: 63735246 heartbeat IPC: 1.88287 cumulative IPC: 1.88279 (Simulation time: 42 hr 35 min 9 sec) 
 Total Blocks : 262144 Invalid Blocks : 0
Heartbeat CPU 4 instructions: 120000001 cycles: 63735247 heartbeat IPC: 1.88288 cumulative IPC: 1.88279 (Simulation time: 42 hr 35 min 9 sec) 
 Total Blocks : 262144 Invalid Blocks : 0
Heartbeat CPU 5 instructions: 120000001 cycles: 63735270 heartbeat IPC: 1.88288 cumulative IPC: 1.88279 (Simulation time: 42 hr 35 min 9 sec) 
 Total Blocks : 262144 Invalid Blocks : 0
Heartbeat CPU 1 instructions: 130000003 cycles: 69046245 heartbeat IPC: 1.88261 cumulative IPC: 1.8828 (Simulation time: 46 hr 29 min 41 sec) 
 Total Blocks : 262144 Invalid Blocks : 0
Heartbeat CPU 0 instructions: 130000003 cycles: 69046250 heartbeat IPC: 1.88261 cumulative IPC: 1.8828 (Simulation time: 46 hr 29 min 42 sec) 
 Total Blocks : 262144 Invalid Blocks : 0
Heartbeat CPU 3 instructions: 130000003 cycles: 69046503 heartbeat IPC: 1.88261 cumulative IPC: 1.88279 (Simulation time: 46 hr 29 min 43 sec) 
 Total Blocks : 262144 Invalid Blocks : 0
Heartbeat CPU 2 instructions: 130000003 cycles: 69046507 heartbeat IPC: 1.88261 cumulative IPC: 1.88279 (Simulation time: 46 hr 29 min 43 sec) 
 Total Blocks : 262144 Invalid Blocks : 0
Heartbeat CPU 7 instructions: 130000003 cycles: 69046548 heartbeat IPC: 1.88263 cumulative IPC: 1.88279 (Simulation time: 46 hr 29 min 43 sec) 
 Total Blocks : 262144 Invalid Blocks : 0
Heartbeat CPU 5 instructions: 130000003 cycles: 69047148 heartbeat IPC: 1.88257 cumulative IPC: 1.88277 (Simulation time: 46 hr 29 min 43 sec) 
 Total Blocks : 262144 Invalid Blocks : 0
Heartbeat CPU 6 instructions: 130000003 cycles: 69047150 heartbeat IPC: 1.88256 cumulative IPC: 1.88277 (Simulation time: 46 hr 29 min 43 sec) 
 Total Blocks : 262144 Invalid Blocks : 0
Heartbeat CPU 4 instructions: 130000003 cycles: 69047153 heartbeat IPC: 1.88256 cumulative IPC: 1.88277 (Simulation time: 46 hr 29 min 43 sec) 
 Total Blocks : 262144 Invalid Blocks : 0
Heartbeat CPU 1 instructions: 140000000 cycles: 74357780 heartbeat IPC: 1.88269 cumulative IPC: 1.88279 (Simulation time: 50 hr 5 min 53 sec) 
 Total Blocks : 262144 Invalid Blocks : 0
Heartbeat CPU 0 instructions: 140000000 cycles: 74357781 heartbeat IPC: 1.8827 cumulative IPC: 1.88279 (Simulation time: 50 hr 6 min 0 sec) 
 Total Blocks : 262144 Invalid Blocks : 0
Heartbeat CPU 2 instructions: 140000000 cycles: 74357992 heartbeat IPC: 1.88271 cumulative IPC: 1.88278 (Simulation time: 50 hr 6 min 0 sec) 
 Total Blocks : 262144 Invalid Blocks : 0
Heartbeat CPU 3 instructions: 140000000 cycles: 74358010 heartbeat IPC: 1.8827 cumulative IPC: 1.88278 (Simulation time: 50 hr 6 min 0 sec) 
 Total Blocks : 262144 Invalid Blocks : 0
Heartbeat CPU 7 instructions: 140000000 cycles: 74358039 heartbeat IPC: 1.88271 cumulative IPC: 1.88278 (Simulation time: 50 hr 6 min 0 sec) 
 Total Blocks : 262144 Invalid Blocks : 0
Heartbeat CPU 4 instructions: 140000000 cycles: 74358681 heartbeat IPC: 1.8827 cumulative IPC: 1.88277 (Simulation time: 50 hr 6 min 1 sec) 
 Total Blocks : 262144 Invalid Blocks : 0
Heartbeat CPU 5 instructions: 140000000 cycles: 74358706 heartbeat IPC: 1.88269 cumulative IPC: 1.88277 (Simulation time: 50 hr 6 min 1 sec) 
 Total Blocks : 262144 Invalid Blocks : 0
Heartbeat CPU 6 instructions: 140000000 cycles: 74358725 heartbeat IPC: 1.88268 cumulative IPC: 1.88276 (Simulation time: 50 hr 6 min 1 sec) 
 Total Blocks : 262144 Invalid Blocks : 0
Heartbeat CPU 1 instructions: 150000002 cycles: 79668620 heartbeat IPC: 1.88294 cumulative IPC: 1.8828 (Simulation time: 53 hr 41 min 43 sec) 
 Total Blocks : 262144 Invalid Blocks : 0
Heartbeat CPU 0 instructions: 150000002 cycles: 79668621 heartbeat IPC: 1.88294 cumulative IPC: 1.8828 (Simulation time: 53 hr 41 min 43 sec) 
 Total Blocks : 262144 Invalid Blocks : 0
Heartbeat CPU 3 instructions: 150000002 cycles: 79668781 heartbeat IPC: 1.88297 cumulative IPC: 1.8828 (Simulation time: 53 hr 41 min 44 sec) 
 Total Blocks : 262144 Invalid Blocks : 0
Heartbeat CPU 2 instructions: 150000002 cycles: 79668785 heartbeat IPC: 1.88296 cumulative IPC: 1.8828 (Simulation time: 53 hr 41 min 44 sec) 
 Total Blocks : 262144 Invalid Blocks : 0
Heartbeat CPU 7 instructions: 150000002 cycles: 79668799 heartbeat IPC: 1.88297 cumulative IPC: 1.88279 (Simulation time: 53 hr 41 min 44 sec) 
 Total Blocks : 262144 Invalid Blocks : 0
Heartbeat CPU 5 instructions: 150000002 cycles: 79669461 heartbeat IPC: 1.88297 cumulative IPC: 1.88278 (Simulation time: 53 hr 41 min 44 sec) 
 Total Blocks : 262144 Invalid Blocks : 0
Heartbeat CPU 4 instructions: 150000002 cycles: 79669468 heartbeat IPC: 1.88296 cumulative IPC: 1.88278 (Simulation time: 53 hr 41 min 44 sec) 
 Total Blocks : 262144 Invalid Blocks : 0
Heartbeat CPU 6 instructions: 150000002 cycles: 79669494 heartbeat IPC: 1.88297 cumulative IPC: 1.88278 (Simulation time: 53 hr 41 min 44 sec) 
 Total Blocks : 262144 Invalid Blocks : 0
Heartbeat CPU 1 instructions: 160000003 cycles: 84979971 heartbeat IPC: 1.88276 cumulative IPC: 1.8828 (Simulation time: 57 hr 16 min 39 sec) 
 Total Blocks : 262144 Invalid Blocks : 0
Heartbeat CPU 0 instructions: 160000003 cycles: 84979972 heartbeat IPC: 1.88276 cumulative IPC: 1.8828 (Simulation time: 57 hr 16 min 40 sec) 
 Total Blocks : 262144 Invalid Blocks : 0
Heartbeat CPU 3 instructions: 160000003 cycles: 84980211 heartbeat IPC: 1.88273 cumulative IPC: 1.88279 (Simulation time: 57 hr 16 min 40 sec) 
 Total Blocks : 262144 Invalid Blocks : 0
Heartbeat CPU 7 instructions: 160000003 cycles: 84980212 heartbeat IPC: 1.88274 cumulative IPC: 1.88279 (Simulation time: 57 hr 16 min 40 sec) 
 Total Blocks : 262144 Invalid Blocks : 0
Heartbeat CPU 2 instructions: 160000003 cycles: 84980213 heartbeat IPC: 1.88273 cumulative IPC: 1.88279 (Simulation time: 57 hr 16 min 40 sec) 
 Total Blocks : 262144 Invalid Blocks : 0
Heartbeat CPU 5 instructions: 160000003 cycles: 84980789 heartbeat IPC: 1.88277 cumulative IPC: 1.88278 (Simulation time: 57 hr 16 min 41 sec) 
 Total Blocks : 262144 Invalid Blocks : 0
Heartbeat CPU 4 instructions: 160000003 cycles: 84980799 heartbeat IPC: 1.88277 cumulative IPC: 1.88278 (Simulation time: 57 hr 16 min 41 sec) 
 Total Blocks : 262144 Invalid Blocks : 0
Heartbeat CPU 6 instructions: 160000003 cycles: 84980829 heartbeat IPC: 1.88277 cumulative IPC: 1.88278 (Simulation time: 57 hr 16 min 41 sec) 
 Total Blocks : 262144 Invalid Blocks : 0
Heartbeat CPU 1 instructions: 170000000 cycles: 90291638 heartbeat IPC: 1.88265 cumulative IPC: 1.88279 (Simulation time: 60 hr 50 min 57 sec) 
 Total Blocks : 262144 Invalid Blocks : 0
Heartbeat CPU 0 instructions: 170000000 cycles: 90291646 heartbeat IPC: 1.88265 cumulative IPC: 1.88279 (Simulation time: 60 hr 50 min 58 sec) 
 Total Blocks : 262144 Invalid Blocks : 0
Heartbeat CPU 3 instructions: 170000000 cycles: 90292005 heartbeat IPC: 1.8826 cumulative IPC: 1.88278 (Simulation time: 60 hr 50 min 58 sec) 
 Total Blocks : 262144 Invalid Blocks : 0
Heartbeat CPU 2 instructions: 170000000 cycles: 90292006 heartbeat IPC: 1.8826 cumulative IPC: 1.88278 (Simulation time: 60 hr 50 min 58 sec) 
 Total Blocks : 262144 Invalid Blocks : 0
Heartbeat CPU 7 instructions: 170000000 cycles: 90292011 heartbeat IPC: 1.8826 cumulative IPC: 1.88278 (Simulation time: 60 hr 50 min 58 sec) 
 Total Blocks : 262144 Invalid Blocks : 0
Heartbeat CPU 5 instructions: 170000000 cycles: 90292440 heartbeat IPC: 1.88265 cumulative IPC: 1.88277 (Simulation time: 60 hr 50 min 58 sec) 
 Total Blocks : 262144 Invalid Blocks : 0
Heartbeat CPU 4 instructions: 170000000 cycles: 90292447 heartbeat IPC: 1.88265 cumulative IPC: 1.88277 (Simulation time: 60 hr 50 min 58 sec) 
 Total Blocks : 262144 Invalid Blocks : 0
Heartbeat CPU 6 instructions: 170000000 cycles: 90292486 heartbeat IPC: 1.88265 cumulative IPC: 1.88277 (Simulation time: 60 hr 50 min 58 sec) 
 Total Blocks : 262144 Invalid Blocks : 0
Heartbeat CPU 1 instructions: 180000002 cycles: 95602502 heartbeat IPC: 1.88293 cumulative IPC: 1.8828 (Simulation time: 64 hr 18 min 34 sec) 
 Total Blocks : 262144 Invalid Blocks : 0
Heartbeat CPU 0 instructions: 180000002 cycles: 95602514 heartbeat IPC: 1.88293 cumulative IPC: 1.8828 (Simulation time: 64 hr 18 min 35 sec) 
 Total Blocks : 262144 Invalid Blocks : 0
Heartbeat CPU 2 instructions: 180000002 cycles: 95602867 heartbeat IPC: 1.88293 cumulative IPC: 1.88279 (Simulation time: 64 hr 18 min 35 sec) 
 Total Blocks : 262144 Invalid Blocks : 0
Heartbeat CPU 7 instructions: 180000002 cycles: 95602880 heartbeat IPC: 1.88293 cumulative IPC: 1.88279 (Simulation time: 64 hr 18 min 35 sec) 
 Total Blocks : 262144 Invalid Blocks : 0
Heartbeat CPU 3 instructions: 180000002 cycles: 95602907 heartbeat IPC: 1.88292 cumulative IPC: 1.88279 (Simulation time: 64 hr 18 min 35 sec) 
 Total Blocks : 262144 Invalid Blocks : 0
Heartbeat CPU 5 instructions: 180000002 cycles: 95603269 heartbeat IPC: 1.88295 cumulative IPC: 1.88278 (Simulation time: 64 hr 18 min 35 sec) 
 Total Blocks : 262144 Invalid Blocks : 0
Heartbeat CPU 4 instructions: 180000002 cycles: 95603277 heartbeat IPC: 1.88295 cumulative IPC: 1.88278 (Simulation time: 64 hr 18 min 35 sec) 
 Total Blocks : 262144 Invalid Blocks : 0
Heartbeat CPU 6 instructions: 180000002 cycles: 95603295 heartbeat IPC: 1.88295 cumulative IPC: 1.88278 (Simulation time: 64 hr 18 min 35 sec) 
 Total Blocks : 262144 Invalid Blocks : 0
Heartbeat CPU 1 instructions: 190000002 cycles: 100913206 heartbeat IPC: 1.88299 cumulative IPC: 1.88281 (Simulation time: 67 hr 42 min 53 sec) 
 Total Blocks : 262144 Invalid Blocks : 0
Heartbeat CPU 0 instructions: 190000002 cycles: 100913208 heartbeat IPC: 1.88299 cumulative IPC: 1.88281 (Simulation time: 67 hr 42 min 54 sec) 
 Total Blocks : 262144 Invalid Blocks : 0
Heartbeat CPU 2 instructions: 190000002 cycles: 100913541 heartbeat IPC: 1.883 cumulative IPC: 1.8828 (Simulation time: 67 hr 42 min 54 sec) 
 Total Blocks : 262144 Invalid Blocks : 0
Heartbeat CPU 7 instructions: 190000002 cycles: 100913574 heartbeat IPC: 1.88299 cumulative IPC: 1.8828 (Simulation time: 67 hr 42 min 54 sec) 
 Total Blocks : 262144 Invalid Blocks : 0
Heartbeat CPU 3 instructions: 190000002 cycles: 100913582 heartbeat IPC: 1.883 cumulative IPC: 1.8828 (Simulation time: 67 hr 42 min 54 sec) 
 Total Blocks : 262144 Invalid Blocks : 0
Heartbeat CPU 5 instructions: 190000002 cycles: 100913921 heartbeat IPC: 1.88301 cumulative IPC: 1.88279 (Simulation time: 67 hr 42 min 54 sec) 
 Total Blocks : 262144 Invalid Blocks : 0
Heartbeat CPU 4 instructions: 190000002 cycles: 100913966 heartbeat IPC: 1.88299 cumulative IPC: 1.88279 (Simulation time: 67 hr 42 min 54 sec) 
 Total Blocks : 262144 Invalid Blocks : 0
Heartbeat CPU 6 instructions: 190000002 cycles: 100913991 heartbeat IPC: 1.88299 cumulative IPC: 1.88279 (Simulation time: 67 hr 42 min 54 sec) 
 Total Blocks : 262144 Invalid Blocks : 0
Heartbeat CPU 1 instructions: 200000003 cycles: 106224918 heartbeat IPC: 1.88263 cumulative IPC: 1.8828 (Simulation time: 71 hr 4 min 49 sec) 
 Total Blocks : 262144 Invalid Blocks : 0
Heartbeat CPU 0 instructions: 200000003 cycles: 106224931 heartbeat IPC: 1.88263 cumulative IPC: 1.8828 (Simulation time: 71 hr 4 min 50 sec) 
 Total Blocks : 262144 Invalid Blocks : 0
Heartbeat CPU 2 instructions: 200000003 cycles: 106225254 heartbeat IPC: 1.88263 cumulative IPC: 1.88279 (Simulation time: 71 hr 4 min 50 sec) 
 Total Blocks : 262144 Invalid Blocks : 0
Heartbeat CPU 7 instructions: 200000003 cycles: 106225304 heartbeat IPC: 1.88263 cumulative IPC: 1.88279 (Simulation time: 71 hr 4 min 50 sec) 
 Total Blocks : 262144 Invalid Blocks : 0
Heartbeat CPU 3 instructions: 200000003 cycles: 106225305 heartbeat IPC: 1.88263 cumulative IPC: 1.88279 (Simulation time: 71 hr 4 min 50 sec) 
 Total Blocks : 262144 Invalid Blocks : 0
Heartbeat CPU 5 instructions: 200000003 cycles: 106225616 heartbeat IPC: 1.88264 cumulative IPC: 1.88279 (Simulation time: 71 hr 4 min 50 sec) 
 Total Blocks : 262144 Invalid Blocks : 0
Heartbeat CPU 4 instructions: 200000003 cycles: 106225713 heartbeat IPC: 1.88262 cumulative IPC: 1.88278 (Simulation time: 71 hr 4 min 50 sec) 
 Total Blocks : 262144 Invalid Blocks : 0
Heartbeat CPU 6 instructions: 200000003 cycles: 106225722 heartbeat IPC: 1.88263 cumulative IPC: 1.88278 (Simulation time: 71 hr 4 min 50 sec) 
 Total Blocks : 262144 Invalid Blocks : 0

Warmup complete CPU 0 instructions: 200001478 cycles: 106225722 (Simulation time: 71 hr 4 min 50 sec) 
Warmup complete CPU 1 instructions: 200001478 cycles: 106225722 (Simulation time: 71 hr 4 min 50 sec) 
Warmup complete CPU 2 instructions: 200000887 cycles: 106225722 (Simulation time: 71 hr 4 min 50 sec) 
Warmup complete CPU 3 instructions: 200000813 cycles: 106225722 (Simulation time: 71 hr 4 min 50 sec) 
Warmup complete CPU 4 instructions: 200000036 cycles: 106225722 (Simulation time: 71 hr 4 min 50 sec) 
Warmup complete CPU 5 instructions: 200000175 cycles: 106225722 (Simulation time: 71 hr 4 min 50 sec) 
Warmup complete CPU 6 instructions: 200000003 cycles: 106225722 (Simulation time: 71 hr 4 min 50 sec) 
Warmup complete CPU 7 instructions: 200000813 cycles: 106225721 (Simulation time: 71 hr 4 min 50 sec) 

Heartbeat CPU 0 instructions: 210000002 cycles: 116670191 heartbeat IPC: 0.957372 cumulative IPC: 0.957303 (Simulation time: 74 hr 24 min 29 sec) 
 Total Blocks : 262144 Invalid Blocks : 0
Heartbeat CPU 5 instructions: 210000002 cycles: 116701890 heartbeat IPC: 0.954538 cumulative IPC: 0.954531 (Simulation time: 74 hr 25 min 6 sec) 
 Total Blocks : 262144 Invalid Blocks : 0
Heartbeat CPU 2 instructions: 210000002 cycles: 116764609 heartbeat IPC: 0.948825 cumulative IPC: 0.948783 (Simulation time: 74 hr 26 min 15 sec) 
 Total Blocks : 262144 Invalid Blocks : 0
Heartbeat CPU 1 instructions: 210000002 cycles: 116769042 heartbeat IPC: 0.948395 cumulative IPC: 0.948328 (Simulation time: 74 hr 26 min 16 sec) 
 Total Blocks : 262144 Invalid Blocks : 0
Heartbeat CPU 3 instructions: 210000002 cycles: 116798657 heartbeat IPC: 0.945774 cumulative IPC: 0.945734 (Simulation time: 74 hr 26 min 56 sec) 
 Total Blocks : 262144 Invalid Blocks : 0
Heartbeat CPU 4 instructions: 210000002 cycles: 116847978 heartbeat IPC: 0.941419 cumulative IPC: 0.941416 (Simulation time: 74 hr 27 min 52 sec) 
 Total Blocks : 262144 Invalid Blocks : 0
Heartbeat CPU 6 instructions: 210000002 cycles: 116879613 heartbeat IPC: 0.938624 cumulative IPC: 0.938624 (Simulation time: 74 hr 28 min 27 sec) 
 Total Blocks : 262144 Invalid Blocks : 0
Heartbeat CPU 7 instructions: 210000002 cycles: 116881912 heartbeat IPC: 0.938385 cumulative IPC: 0.938345 (Simulation time: 74 hr 28 min 29 sec) 
 Total Blocks : 262144 Invalid Blocks : 0
Heartbeat CPU 0 instructions: 220000000 cycles: 127228283 heartbeat IPC: 0.947141 cumulative IPC: 0.952194 (Simulation time: 77 hr 51 min 5 sec) 
 Total Blocks : 262144 Invalid Blocks : 0
Heartbeat CPU 5 instructions: 220000000 cycles: 127261665 heartbeat IPC: 0.94699 cumulative IPC: 0.950745 (Simulation time: 77 hr 51 min 52 sec) 
 Total Blocks : 262144 Invalid Blocks : 0
Heartbeat CPU 2 instructions: 220000000 cycles: 127356259 heartbeat IPC: 0.94414 cumulative IPC: 0.946455 (Simulation time: 77 hr 53 min 45 sec) 
 Total Blocks : 262144 Invalid Blocks : 0
Heartbeat CPU 3 instructions: 220000000 cycles: 127357949 heartbeat IPC: 0.947033 cumulative IPC: 0.946383 (Simulation time: 77 hr 53 min 49 sec) 
 Total Blocks : 262144 Invalid Blocks : 0
Heartbeat CPU 1 instructions: 220000000 cycles: 127364725 heartbeat IPC: 0.94378 cumulative IPC: 0.946048 (Simulation time: 77 hr 53 min 56 sec) 
 Total Blocks : 262144 Invalid Blocks : 0
Heartbeat CPU 4 instructions: 220000000 cycles: 127372491 heartbeat IPC: 0.950163 cumulative IPC: 0.945769 (Simulation time: 77 hr 54 min 6 sec) 
 Total Blocks : 262144 Invalid Blocks : 0
Heartbeat CPU 6 instructions: 220000000 cycles: 127420852 heartbeat IPC: 0.948655 cumulative IPC: 0.943613 (Simulation time: 77 hr 55 min 5 sec) 
 Total Blocks : 262144 Invalid Blocks : 0
Heartbeat CPU 7 instructions: 220000000 cycles: 127488594 heartbeat IPC: 0.942802 cumulative IPC: 0.940568 (Simulation time: 77 hr 56 min 31 sec) 
 Total Blocks : 262144 Invalid Blocks : 0
Heartbeat CPU 0 instructions: 230000002 cycles: 137796432 heartbeat IPC: 0.94624 cumulative IPC: 0.950201 (Simulation time: 81 hr 25 min 19 sec) 
 Total Blocks : 262144 Invalid Blocks : 0
Heartbeat CPU 3 instructions: 230000002 cycles: 137802860 heartbeat IPC: 0.957404 cumulative IPC: 0.950029 (Simulation time: 81 hr 25 min 35 sec) 
 Total Blocks : 262144 Invalid Blocks : 0
Heartbeat CPU 5 instructions: 230000002 cycles: 137848844 heartbeat IPC: 0.944539 cumulative IPC: 0.948667 (Simulation time: 81 hr 26 min 37 sec) 
 Total Blocks : 262144 Invalid Blocks : 0
Heartbeat CPU 4 instructions: 230000002 cycles: 137903875 heartbeat IPC: 0.949543 cumulative IPC: 0.947024 (Simulation time: 81 hr 27 min 47 sec) 
 Total Blocks : 262144 Invalid Blocks : 0
Heartbeat CPU 1 instructions: 230000002 cycles: 137922094 heartbeat IPC: 0.947206 cumulative IPC: 0.946434 (Simulation time: 81 hr 28 min 15 sec) 
 Total Blocks : 262144 Invalid Blocks : 0
Heartbeat CPU 6 instructions: 230000002 cycles: 138000258 heartbeat IPC: 0.945233 cumulative IPC: 0.944152 (Simulation time: 81 hr 29 min 45 sec) 
 Total Blocks : 262144 Invalid Blocks : 0
Heartbeat CPU 2 instructions: 230000002 cycles: 138017021 heartbeat IPC: 0.938019 cumulative IPC: 0.943627 (Simulation time: 81 hr 30 min 4 sec) 
 Total Blocks : 262144 Invalid Blocks : 0
Heartbeat CPU 7 instructions: 230000002 cycles: 138029712 heartbeat IPC: 0.948666 cumulative IPC: 0.943252 (Simulation time: 81 hr 30 min 37 sec) 
 Total Blocks : 262144 Invalid Blocks : 0
Heartbeat CPU 0 instructions: 240000002 cycles: 148287508 heartbeat IPC: 0.953191 cumulative IPC: 0.950947 (Simulation time: 85 hr 0 min 38 sec) 
 Total Blocks : 262144 Invalid Blocks : 0
Heartbeat CPU 4 instructions: 240000002 cycles: 148360365 heartbeat IPC: 0.956344 cumulative IPC: 0.949337 (Simulation time: 85 hr 2 min 10 sec) 
 Total Blocks : 262144 Invalid Blocks : 0
Heartbeat CPU 3 instructions: 240000002 cycles: 148361221 heartbeat IPC: 0.947117 cumulative IPC: 0.949299 (Simulation time: 85 hr 2 min 11 sec) 
 Total Blocks : 262144 Invalid Blocks : 0
Heartbeat CPU 5 instructions: 240000002 cycles: 148395939 heartbeat IPC: 0.948128 cumulative IPC: 0.948533 (Simulation time: 85 hr 2 min 53 sec) 
 Total Blocks : 262144 Invalid Blocks : 0
Heartbeat CPU 1 instructions: 240000002 cycles: 148454267 heartbeat IPC: 0.949472 cumulative IPC: 0.947192 (Simulation time: 85 hr 4 min 8 sec) 
 Total Blocks : 262144 Invalid Blocks : 0
Heartbeat CPU 2 instructions: 240000002 cycles: 148531010 heartbeat IPC: 0.951114 cumulative IPC: 0.945487 (Simulation time: 85 hr 5 min 54 sec) 
 Total Blocks : 262144 Invalid Blocks : 0
Heartbeat CPU 6 instructions: 240000002 cycles: 148597124 heartbeat IPC: 0.943675 cumulative IPC: 0.944033 (Simulation time: 85 hr 7 min 23 sec) 
 Total Blocks : 262144 Invalid Blocks : 0
Heartbeat CPU 7 instructions: 240000002 cycles: 148632455 heartbeat IPC: 0.943152 cumulative IPC: 0.943227 (Simulation time: 85 hr 8 min 8 sec) 
 Total Blocks : 262144 Invalid Blocks : 0
Heartbeat CPU 0 instructions: 250000003 cycles: 158856990 heartbeat IPC: 0.94612 cumulative IPC: 0.949978 (Simulation time: 88 hr 46 min 57 sec) 
 Total Blocks : 262144 Invalid Blocks : 0
Heartbeat CPU 4 instructions: 250000003 cycles: 158874398 heartbeat IPC: 0.95111 cumulative IPC: 0.949691 (Simulation time: 88 hr 47 min 20 sec) 
 Total Blocks : 262144 Invalid Blocks : 0
Heartbeat CPU 3 instructions: 250000003 cycles: 158925805 heartbeat IPC: 0.946559 cumulative IPC: 0.94875 (Simulation time: 88 hr 48 min 26 sec) 
 Total Blocks : 262144 Invalid Blocks : 0
Heartbeat CPU 5 instructions: 250000003 cycles: 158984974 heartbeat IPC: 0.944373 cumulative IPC: 0.947698 (Simulation time: 88 hr 49 min 43 sec) 
 Total Blocks : 262144 Invalid Blocks : 0
Heartbeat CPU 1 instructions: 250000003 cycles: 159059240 heartbeat IPC: 0.942954 cumulative IPC: 0.946341 (Simulation time: 88 hr 51 min 21 sec) 
 Total Blocks : 262144 Invalid Blocks : 0
Heartbeat CPU 2 instructions: 250000003 cycles: 159221971 heartbeat IPC: 0.93537 cumulative IPC: 0.943446 (Simulation time: 88 hr 55 min 1 sec) 
 Total Blocks : 262144 Invalid Blocks : 0
Heartbeat CPU 6 instructions: 250000003 cycles: 159263763 heartbeat IPC: 0.937503 cumulative IPC: 0.94272 (Simulation time: 88 hr 55 min 44 sec) 
 Total Blocks : 262144 Invalid Blocks : 0
Heartbeat CPU 7 instructions: 250000003 cycles: 159281527 heartbeat IPC: 0.939049 cumulative IPC: 0.942389 (Simulation time: 88 hr 56 min 16 sec) 
 Total Blocks : 262144 Invalid Blocks : 0
Heartbeat CPU 0 instructions: 260000002 cycles: 169385050 heartbeat IPC: 0.949843 cumulative IPC: 0.949955 (Simulation time: 92 hr 36 min 35 sec) 
 Total Blocks : 262144 Invalid Blocks : 0
Heartbeat CPU 4 instructions: 260000002 cycles: 169411902 heartbeat IPC: 0.948991 cumulative IPC: 0.949574 (Simulation time: 92 hr 37 min 13 sec) 
 Total Blocks : 262144 Invalid Blocks : 0
Heartbeat CPU 3 instructions: 260000002 cycles: 169534713 heartbeat IPC: 0.942604 cumulative IPC: 0.94772 (Simulation time: 92 hr 39 min 55 sec) 
 Total Blocks : 262144 Invalid Blocks : 0
Heartbeat CPU 1 instructions: 260000002 cycles: 169545200 heartbeat IPC: 0.953656 cumulative IPC: 0.947552 (Simulation time: 92 hr 40 min 7 sec) 
 Total Blocks : 262144 Invalid Blocks : 0
Heartbeat CPU 5 instructions: 260000002 cycles: 169561949 heartbeat IPC: 0.94545 cumulative IPC: 0.947322 (Simulation time: 92 hr 40 min 33 sec) 
 Total Blocks : 262144 Invalid Blocks : 0
Heartbeat CPU 6 instructions: 260000002 cycles: 169782388 heartbeat IPC: 0.950695 cumulative IPC: 0.944039 (Simulation time: 92 hr 45 min 29 sec) 
 Total Blocks : 262144 Invalid Blocks : 0
Heartbeat CPU 2 instructions: 260000002 cycles: 169819045 heartbeat IPC: 0.943657 cumulative IPC: 0.943481 (Simulation time: 92 hr 46 min 10 sec) 
 Total Blocks : 262144 Invalid Blocks : 0
Heartbeat CPU 7 instructions: 260000002 cycles: 169924103 heartbeat IPC: 0.939622 cumulative IPC: 0.941926 (Simulation time: 92 hr 48 min 39 sec) 
 Total Blocks : 262144 Invalid Blocks : 0
Heartbeat CPU 0 instructions: 270000001 cycles: 179896724 heartbeat IPC: 0.951323 cumulative IPC: 0.95015 (Simulation time: 96 hr 28 min 14 sec) 
 Total Blocks : 262144 Invalid Blocks : 0
Heartbeat CPU 1 instructions: 270000001 cycles: 179973836 heartbeat IPC: 0.958898 cumulative IPC: 0.949157 (Simulation time: 96 hr 30 min 2 sec) 
 Total Blocks : 262144 Invalid Blocks : 0
Heartbeat CPU 4 instructions: 270000001 cycles: 180017344 heartbeat IPC: 0.942912 cumulative IPC: 0.948617 (Simulation time: 96 hr 31 min 2 sec) 
 Total Blocks : 262144 Invalid Blocks : 0
Heartbeat CPU 3 instructions: 270000001 cycles: 180051386 heartbeat IPC: 0.950871 cumulative IPC: 0.948169 (Simulation time: 96 hr 31 min 43 sec) 
 Total Blocks : 262144 Invalid Blocks : 0
Heartbeat CPU 5 instructions: 270000001 cycles: 180128082 heartbeat IPC: 0.94642 cumulative IPC: 0.947193 (Simulation time: 96 hr 33 min 23 sec) 
 Total Blocks : 262144 Invalid Blocks : 0
Heartbeat CPU 2 instructions: 270000001 cycles: 180312686 heartbeat IPC: 0.952958 cumulative IPC: 0.944824 (Simulation time: 96 hr 37 min 26 sec) 
 Total Blocks : 262144 Invalid Blocks : 0
Heartbeat CPU 7 instructions: 270000001 cycles: 180412892 heartbeat IPC: 0.953399 cumulative IPC: 0.943548 (Simulation time: 96 hr 39 min 44 sec) 
 Total Blocks : 262144 Invalid Blocks : 0
Heartbeat CPU 6 instructions: 270000001 cycles: 180430761 heartbeat IPC: 0.939111 cumulative IPC: 0.943332 (Simulation time: 96 hr 40 min 14 sec) 
 Total Blocks : 262144 Invalid Blocks : 0
Heartbeat CPU 0 instructions: 280000003 cycles: 190314622 heartbeat IPC: 0.959887 cumulative IPC: 0.951357 (Simulation time: 100 hr 15 min 55 sec) 
 Total Blocks : 262144 Invalid Blocks : 0
Heartbeat CPU 3 instructions: 280000003 cycles: 190529176 heartbeat IPC: 0.9544 cumulative IPC: 0.948943 (Simulation time: 100 hr 20 min 35 sec) 
 Total Blocks : 262144 Invalid Blocks : 0
Heartbeat CPU 1 instructions: 280000003 cycles: 190545691 heartbeat IPC: 0.945908 cumulative IPC: 0.948749 (Simulation time: 100 hr 20 min 46 sec) 
 Total Blocks : 262144 Invalid Blocks : 0
Heartbeat CPU 4 instructions: 280000003 cycles: 190565840 heartbeat IPC: 0.948003 cumulative IPC: 0.94854 (Simulation time: 100 hr 21 min 18 sec) 
 Total Blocks : 262144 Invalid Blocks : 0
Heartbeat CPU 5 instructions: 280000003 cycles: 190664489 heartbeat IPC: 0.94909 cumulative IPC: 0.94743 (Simulation time: 100 hr 23 min 32 sec) 
 Total Blocks : 262144 Invalid Blocks : 0
Heartbeat CPU 2 instructions: 280000003 cycles: 190885031 heartbeat IPC: 0.945864 cumulative IPC: 0.944954 (Simulation time: 100 hr 28 min 21 sec) 
 Total Blocks : 262144 Invalid Blocks : 0
Heartbeat CPU 6 instructions: 280000003 cycles: 191057972 heartbeat IPC: 0.940981 cumulative IPC: 0.943038 (Simulation time: 100 hr 32 min 20 sec) 
 Total Blocks : 262144 Invalid Blocks : 0
Heartbeat CPU 7 instructions: 280000003 cycles: 191136237 heartbeat IPC: 0.932545 cumulative IPC: 0.942159 (Simulation time: 100 hr 34 min 9 sec) 
 Total Blocks : 262144 Invalid Blocks : 0
Heartbeat CPU 0 instructions: 290000002 cycles: 200800732 heartbeat IPC: 0.953642 cumulative IPC: 0.95161 (Simulation time: 104 hr 11 min 16 sec) 
 Total Blocks : 262144 Invalid Blocks : 0
Heartbeat CPU 4 instructions: 290000002 cycles: 201112785 heartbeat IPC: 0.948142 cumulative IPC: 0.948496 (Simulation time: 104 hr 18 min 2 sec) 
 Total Blocks : 262144 Invalid Blocks : 0
Heartbeat CPU 3 instructions: 290000002 cycles: 201126498 heartbeat IPC: 0.943635 cumulative IPC: 0.94835 (Simulation time: 104 hr 18 min 16 sec) 
 Total Blocks : 262144 Invalid Blocks : 0
Heartbeat CPU 1 instructions: 290000002 cycles: 201132193 heartbeat IPC: 0.944599 cumulative IPC: 0.948286 (Simulation time: 104 hr 18 min 25 sec) 
 Total Blocks : 262144 Invalid Blocks : 0
Heartbeat CPU 5 instructions: 290000002 cycles: 201192692 heartbeat IPC: 0.94983 cumulative IPC: 0.947696 (Simulation time: 104 hr 19 min 48 sec) 
 Total Blocks : 262144 Invalid Blocks : 0
Heartbeat CPU 2 instructions: 290000002 cycles: 201357307 heartbeat IPC: 0.954902 cumulative IPC: 0.946049 (Simulation time: 104 hr 23 min 23 sec) 
 Total Blocks : 262144 Invalid Blocks : 0
Heartbeat CPU 7 instructions: 290000002 cycles: 201693661 heartbeat IPC: 0.947201 cumulative IPC: 0.942716 (Simulation time: 104 hr 30 min 42 sec) 
 Total Blocks : 262144 Invalid Blocks : 0
Heartbeat CPU 6 instructions: 290000002 cycles: 201713197 heartbeat IPC: 0.938507 cumulative IPC: 0.942532 (Simulation time: 104 hr 31 min 7 sec) 
 Total Blocks : 262144 Invalid Blocks : 0
Heartbeat CPU 0 instructions: 300000002 cycles: 211273934 heartbeat IPC: 0.954818 cumulative IPC: 0.95193 (Simulation time: 108 hr 6 min 27 sec) 
 Total Blocks : 262144 Invalid Blocks : 0
Heartbeat CPU 5 instructions: 300000002 cycles: 211677541 heartbeat IPC: 0.953757 cumulative IPC: 0.948299 (Simulation time: 108 hr 15 min 20 sec) 
 Total Blocks : 262144 Invalid Blocks : 0
Heartbeat CPU 1 instructions: 300000002 cycles: 211700253 heartbeat IPC: 0.946247 cumulative IPC: 0.948082 (Simulation time: 108 hr 15 min 58 sec) 
 Total Blocks : 262144 Invalid Blocks : 0
Heartbeat CPU 3 instructions: 300000002 cycles: 211722043 heartbeat IPC: 0.943793 cumulative IPC: 0.947893 (Simulation time: 108 hr 16 min 36 sec) 
 Total Blocks : 262144 Invalid Blocks : 0
Heartbeat CPU 4 instructions: 300000002 cycles: 211740774 heartbeat IPC: 0.940912 cumulative IPC: 0.947732 (Simulation time: 108 hr 17 min 0 sec) 
 Total Blocks : 262144 Invalid Blocks : 0
Heartbeat CPU 2 instructions: 300000002 cycles: 211903213 heartbeat IPC: 0.948235 cumulative IPC: 0.946267 (Simulation time: 108 hr 20 min 48 sec) 
 Total Blocks : 262144 Invalid Blocks : 0
Heartbeat CPU 6 instructions: 300000002 cycles: 212217900 heartbeat IPC: 0.951955 cumulative IPC: 0.943466 (Simulation time: 108 hr 27 min 48 sec) 
 Total Blocks : 262144 Invalid Blocks : 0
Heartbeat CPU 7 instructions: 300000002 cycles: 212246802 heartbeat IPC: 0.947585 cumulative IPC: 0.943201 (Simulation time: 108 hr 28 min 27 sec) 
 Total Blocks : 262144 Invalid Blocks : 0
Heartbeat CPU 0 instructions: 310000001 cycles: 221851141 heartbeat IPC: 0.945429 cumulative IPC: 0.951335 (Simulation time: 111 hr 50 min 13 sec) 
 Total Blocks : 262144 Invalid Blocks : 0
Heartbeat CPU 5 instructions: 310000001 cycles: 222196551 heartbeat IPC: 0.95066 cumulative IPC: 0.948513 (Simulation time: 111 hr 57 min 26 sec) 
 Total Blocks : 262144 Invalid Blocks : 0
Heartbeat CPU 1 instructions: 310000001 cycles: 222239247 heartbeat IPC: 0.948857 cumulative IPC: 0.948153 (Simulation time: 111 hr 58 min 22 sec) 
 Total Blocks : 262144 Invalid Blocks : 0
Heartbeat CPU 4 instructions: 310000001 cycles: 222272373 heartbeat IPC: 0.949523 cumulative IPC: 0.947894 (Simulation time: 111 hr 59 min 5 sec) 
 Total Blocks : 262144 Invalid Blocks : 0
Heartbeat CPU 3 instructions: 310000001 cycles: 222329277 heartbeat IPC: 0.942753 cumulative IPC: 0.947423 (Simulation time: 112 hr 0 min 14 sec) 
 Total Blocks : 262144 Invalid Blocks : 0
Heartbeat CPU 2 instructions: 310000001 cycles: 222535918 heartbeat IPC: 0.940494 cumulative IPC: 0.945739 (Simulation time: 112 hr 4 min 37 sec) 
 Total Blocks : 262144 Invalid Blocks : 0
Heartbeat CPU 6 instructions: 310000001 cycles: 222797591 heartbeat IPC: 0.945207 cumulative IPC: 0.943624 (Simulation time: 112 hr 9 min 58 sec) 
 Total Blocks : 262144 Invalid Blocks : 0
Heartbeat CPU 7 instructions: 310000001 cycles: 222814498 heartbeat IPC: 0.94628 cumulative IPC: 0.94348 (Simulation time: 112 hr 10 min 11 sec) 
 Total Blocks : 262144 Invalid Blocks : 0
Heartbeat CPU 0 instructions: 320000001 cycles: 232383906 heartbeat IPC: 0.949418 cumulative IPC: 0.951175 (Simulation time: 115 hr 28 min 51 sec) 
 Total Blocks : 262144 Invalid Blocks : 0
Heartbeat CPU 5 instructions: 320000001 cycles: 232806065 heartbeat IPC: 0.94255 cumulative IPC: 0.948013 (Simulation time: 115 hr 37 min 15 sec) 
 Total Blocks : 262144 Invalid Blocks : 0
Heartbeat CPU 1 instructions: 320000001 cycles: 232807538 heartbeat IPC: 0.946227 cumulative IPC: 0.947992 (Simulation time: 115 hr 37 min 16 sec) 
 Total Blocks : 262144 Invalid Blocks : 0
Heartbeat CPU 3 instructions: 320000001 cycles: 232870562 heartbeat IPC: 0.948651 cumulative IPC: 0.947525 (Simulation time: 115 hr 38 min 27 sec) 
 Total Blocks : 262144 Invalid Blocks : 0
Heartbeat CPU 4 instructions: 320000001 cycles: 232957129 heartbeat IPC: 0.935913 cumulative IPC: 0.946884 (Simulation time: 115 hr 40 min 30 sec) 
 Total Blocks : 262144 Invalid Blocks : 0
Heartbeat CPU 2 instructions: 320000001 cycles: 233173482 heartbeat IPC: 0.940065 cumulative IPC: 0.945264 (Simulation time: 115 hr 44 min 55 sec) 
 Total Blocks : 262144 Invalid Blocks : 0
Heartbeat CPU 6 instructions: 320000001 cycles: 233331614 heartbeat IPC: 0.949305 cumulative IPC: 0.944095 (Simulation time: 115 hr 48 min 2 sec) 
 Total Blocks : 262144 Invalid Blocks : 0
Heartbeat CPU 7 instructions: 320000001 cycles: 233404950 heartbeat IPC: 0.944247 cumulative IPC: 0.943544 (Simulation time: 115 hr 49 min 34 sec) 
 Total Blocks : 262144 Invalid Blocks : 0
Heartbeat CPU 0 instructions: 330000000 cycles: 242921433 heartbeat IPC: 0.948989 cumulative IPC: 0.951007 (Simulation time: 119 hr 3 min 14 sec) 
 Total Blocks : 262144 Invalid Blocks : 0
Heartbeat CPU 1 instructions: 330000000 cycles: 243335958 heartbeat IPC: 0.94981 cumulative IPC: 0.948131 (Simulation time: 119 hr 11 min 42 sec) 
 Total Blocks : 262144 Invalid Blocks : 0
Heartbeat CPU 5 instructions: 330000000 cycles: 243435238 heartbeat IPC: 0.940807 cumulative IPC: 0.947455 (Simulation time: 119 hr 13 min 42 sec) 
 Total Blocks : 262144 Invalid Blocks : 0
Heartbeat CPU 3 instructions: 330000000 cycles: 243506869 heartbeat IPC: 0.940176 cumulative IPC: 0.946956 (Simulation time: 119 hr 15 min 2 sec) 
 Total Blocks : 262144 Invalid Blocks : 0
Heartbeat CPU 4 instructions: 330000000 cycles: 243585220 heartbeat IPC: 0.940903 cumulative IPC: 0.946421 (Simulation time: 119 hr 16 min 38 sec) 
 Total Blocks : 262144 Invalid Blocks : 0
Heartbeat CPU 6 instructions: 330000000 cycles: 243906274 heartbeat IPC: 0.945657 cumulative IPC: 0.944215 (Simulation time: 119 hr 23 min 12 sec) 
 Total Blocks : 262144 Invalid Blocks : 0
Heartbeat CPU 2 instructions: 330000000 cycles: 243910192 heartbeat IPC: 0.931384 cumulative IPC: 0.944181 (Simulation time: 119 hr 23 min 15 sec) 
 Total Blocks : 262144 Invalid Blocks : 0
Heartbeat CPU 7 instructions: 330000000 cycles: 244020598 heartbeat IPC: 0.942006 cumulative IPC: 0.943425 (Simulation time: 119 hr 25 min 31 sec) 
 Total Blocks : 262144 Invalid Blocks : 0
Heartbeat CPU 0 instructions: 340000000 cycles: 253593146 heartbeat IPC: 0.937057 cumulative IPC: 0.949996 (Simulation time: 122 hr 42 min 0 sec) 
 Total Blocks : 262144 Invalid Blocks : 0
Heartbeat CPU 1 instructions: 340000000 cycles: 253934561 heartbeat IPC: 0.943521 cumulative IPC: 0.947801 (Simulation time: 122 hr 48 min 56 sec) 
 Total Blocks : 262144 Invalid Blocks : 0
Heartbeat CPU 5 instructions: 340000000 cycles: 254024472 heartbeat IPC: 0.944355 cumulative IPC: 0.947233 (Simulation time: 122 hr 50 min 48 sec) 
 Total Blocks : 262144 Invalid Blocks : 0
Heartbeat CPU 3 instructions: 340000000 cycles: 254061623 heartbeat IPC: 0.94744 cumulative IPC: 0.94699 (Simulation time: 122 hr 51 min 28 sec) 
 Total Blocks : 262144 Invalid Blocks : 0
Heartbeat CPU 4 instructions: 340000000 cycles: 254103782 heartbeat IPC: 0.9507 cumulative IPC: 0.946726 (Simulation time: 122 hr 52 min 18 sec) 
 Total Blocks : 262144 Invalid Blocks : 0
Heartbeat CPU 2 instructions: 340000000 cycles: 254439041 heartbeat IPC: 0.949771 cumulative IPC: 0.944578 (Simulation time: 122 hr 59 min 14 sec) 
 Total Blocks : 262144 Invalid Blocks : 0
Heartbeat CPU 6 instructions: 340000000 cycles: 254477847 heartbeat IPC: 0.945933 cumulative IPC: 0.944337 (Simulation time: 122 hr 59 min 58 sec) 
 Total Blocks : 262144 Invalid Blocks : 0
Heartbeat CPU 7 instructions: 340000000 cycles: 254562943 heartbeat IPC: 0.948556 cumulative IPC: 0.94379 (Simulation time: 123 hr 1 min 48 sec) 
 Total Blocks : 262144 Invalid Blocks : 0
Heartbeat CPU 0 instructions: 350000000 cycles: 264128680 heartbeat IPC: 0.949169 cumulative IPC: 0.949941 (Simulation time: 126 hr 19 min 57 sec) 
 Total Blocks : 262144 Invalid Blocks : 0
Heartbeat CPU 1 instructions: 350000000 cycles: 264539919 heartbeat IPC: 0.94292 cumulative IPC: 0.947474 (Simulation time: 126 hr 28 min 19 sec) 
 Total Blocks : 262144 Invalid Blocks : 0
Heartbeat CPU 5 instructions: 350000000 cycles: 264542834 heartbeat IPC: 0.950718 cumulative IPC: 0.947464 (Simulation time: 126 hr 28 min 24 sec) 
 Total Blocks : 262144 Invalid Blocks : 0
Heartbeat CPU 4 instructions: 350000000 cycles: 264594858 heartbeat IPC: 0.953191 cumulative IPC: 0.947154 (Simulation time: 126 hr 29 min 24 sec) 
 Total Blocks : 262144 Invalid Blocks : 0
Heartbeat CPU 3 instructions: 350000000 cycles: 264661367 heartbeat IPC: 0.943419 cumulative IPC: 0.946752 (Simulation time: 126 hr 30 min 48 sec) 
 Total Blocks : 262144 Invalid Blocks : 0
Heartbeat CPU 2 instructions: 350000000 cycles: 265008510 heartbeat IPC: 0.946121 cumulative IPC: 0.944681 (Simulation time: 126 hr 37 min 38 sec) 
 Total Blocks : 262144 Invalid Blocks : 0
Heartbeat CPU 7 instructions: 350000000 cycles: 265082362 heartbeat IPC: 0.950623 cumulative IPC: 0.944242 (Simulation time: 126 hr 39 min 10 sec) 
 Total Blocks : 262144 Invalid Blocks : 0
Heartbeat CPU 6 instructions: 350000000 cycles: 265112483 heartbeat IPC: 0.940324 cumulative IPC: 0.944069 (Simulation time: 126 hr 39 min 49 sec) 
 Total Blocks : 262144 Invalid Blocks : 0
Heartbeat CPU 0 instructions: 360000000 cycles: 274640673 heartbeat IPC: 0.951294 cumulative IPC: 0.950026 (Simulation time: 129 hr 58 min 11 sec) 
 Total Blocks : 262144 Invalid Blocks : 0
Heartbeat CPU 4 instructions: 360000000 cycles: 275060734 heartbeat IPC: 0.955486 cumulative IPC: 0.947671 (Simulation time: 130 hr 6 min 41 sec) 
 Total Blocks : 262144 Invalid Blocks : 0
Heartbeat CPU 5 instructions: 360000000 cycles: 275070655 heartbeat IPC: 0.949864 cumulative IPC: 0.947614 (Simulation time: 130 hr 7 min 2 sec) 
 Total Blocks : 262144 Invalid Blocks : 0
Heartbeat CPU 1 instructions: 360000000 cycles: 275088513 heartbeat IPC: 0.947994 cumulative IPC: 0.947506 (Simulation time: 130 hr 7 min 16 sec) 
 Total Blocks : 262144 Invalid Blocks : 0
Heartbeat CPU 3 instructions: 360000000 cycles: 275219563 heartbeat IPC: 0.947132 cumulative IPC: 0.946775 (Simulation time: 130 hr 9 min 52 sec) 
 Total Blocks : 262144 Invalid Blocks : 0
Heartbeat CPU 2 instructions: 360000000 cycles: 275457151 heartbeat IPC: 0.957062 cumulative IPC: 0.945446 (Simulation time: 130 hr 14 min 52 sec) 
 Total Blocks : 262144 Invalid Blocks : 0
Heartbeat CPU 6 instructions: 360000000 cycles: 275698005 heartbeat IPC: 0.944687 cumulative IPC: 0.944107 (Simulation time: 130 hr 20 min 0 sec) 
 Total Blocks : 262144 Invalid Blocks : 0
Heartbeat CPU 7 instructions: 360000000 cycles: 275711187 heartbeat IPC: 0.940838 cumulative IPC: 0.944029 (Simulation time: 130 hr 20 min 16 sec) 
 Total Blocks : 262144 Invalid Blocks : 0
Heartbeat CPU 0 instructions: 370000000 cycles: 285159547 heartbeat IPC: 0.950672 cumulative IPC: 0.950064 (Simulation time: 133 hr 31 min 32 sec) 
 Total Blocks : 262144 Invalid Blocks : 0
Heartbeat CPU 4 instructions: 370000000 cycles: 285573462 heartbeat IPC: 0.951228 cumulative IPC: 0.947879 (Simulation time: 133 hr 39 min 47 sec) 
 Total Blocks : 262144 Invalid Blocks : 0
Heartbeat CPU 1 instructions: 370000000 cycles: 285576414 heartbeat IPC: 0.95348 cumulative IPC: 0.947855 (Simulation time: 133 hr 39 min 52 sec) 
 Total Blocks : 262144 Invalid Blocks : 0
Heartbeat CPU 5 instructions: 370000000 cycles: 285633892 heartbeat IPC: 0.94668 cumulative IPC: 0.947559 (Simulation time: 133 hr 40 min 57 sec) 
 Total Blocks : 262144 Invalid Blocks : 0
Heartbeat CPU 3 instructions: 370000000 cycles: 285752101 heartbeat IPC: 0.949439 cumulative IPC: 0.946932 (Simulation time: 133 hr 43 min 23 sec) 
 Total Blocks : 262144 Invalid Blocks : 0
Heartbeat CPU 2 instructions: 370000000 cycles: 286088790 heartbeat IPC: 0.940589 cumulative IPC: 0.945159 (Simulation time: 133 hr 50 min 2 sec) 
 Total Blocks : 262144 Invalid Blocks : 0
Heartbeat CPU 6 instructions: 370000000 cycles: 286184451 heartbeat IPC: 0.953612 cumulative IPC: 0.944661 (Simulation time: 133 hr 51 min 56 sec) 
 Total Blocks : 262144 Invalid Blocks : 0
Heartbeat CPU 7 instructions: 370000000 cycles: 286226199 heartbeat IPC: 0.951021 cumulative IPC: 0.944437 (Simulation time: 133 hr 52 min 48 sec) 
 Total Blocks : 262144 Invalid Blocks : 0
Heartbeat CPU 0 instructions: 380000002 cycles: 295705550 heartbeat IPC: 0.948227 cumulative IPC: 0.949961 (Simulation time: 136 hr 58 min 55 sec) 
 Total Blocks : 262144 Invalid Blocks : 0
Heartbeat CPU 1 instructions: 380000002 cycles: 296128776 heartbeat IPC: 0.947655 cumulative IPC: 0.947844 (Simulation time: 137 hr 7 min 5 sec) 
 Total Blocks : 262144 Invalid Blocks : 0
Heartbeat CPU 4 instructions: 380000002 cycles: 296155882 heartbeat IPC: 0.944964 cumulative IPC: 0.947717 (Simulation time: 137 hr 7 min 37 sec) 
 Total Blocks : 262144 Invalid Blocks : 0
Heartbeat CPU 5 instructions: 380000002 cycles: 296193245 heartbeat IPC: 0.947028 cumulative IPC: 0.947529 (Simulation time: 137 hr 8 min 17 sec) 
 Total Blocks : 262144 Invalid Blocks : 0
Heartbeat CPU 3 instructions: 380000002 cycles: 296352497 heartbeat IPC: 0.943361 cumulative IPC: 0.946732 (Simulation time: 137 hr 11 min 14 sec) 
 Total Blocks : 262144 Invalid Blocks : 0
Heartbeat CPU 2 instructions: 380000002 cycles: 296699872 heartbeat IPC: 0.942411 cumulative IPC: 0.945005 (Simulation time: 137 hr 17 min 45 sec) 
 Total Blocks : 262144 Invalid Blocks : 0
Heartbeat CPU 6 instructions: 380000002 cycles: 296723700 heartbeat IPC: 0.948834 cumulative IPC: 0.944892 (Simulation time: 137 hr 18 min 15 sec) 
 Total Blocks : 262144 Invalid Blocks : 0
Heartbeat CPU 7 instructions: 380000002 cycles: 296803454 heartbeat IPC: 0.945425 cumulative IPC: 0.944492 (Simulation time: 137 hr 19 min 49 sec) 
 Total Blocks : 262144 Invalid Blocks : 0
Heartbeat CPU 0 instructions: 390000001 cycles: 306311828 heartbeat IPC: 0.942838 cumulative IPC: 0.949584 (Simulation time: 140 hr 20 min 0 sec) 
 Total Blocks : 262144 Invalid Blocks : 0
Heartbeat CPU 4 instructions: 390000001 cycles: 306651998 heartbeat IPC: 0.952733 cumulative IPC: 0.947979 (Simulation time: 140 hr 26 min 26 sec) 
 Total Blocks : 262144 Invalid Blocks : 0
Heartbeat CPU 1 instructions: 390000000 cycles: 306746152 heartbeat IPC: 0.941852 cumulative IPC: 0.947527 (Simulation time: 140 hr 28 min 7 sec) 
 Total Blocks : 262144 Invalid Blocks : 0
Heartbeat CPU 5 instructions: 390000001 cycles: 306813674 heartbeat IPC: 0.941581 cumulative IPC: 0.947215 (Simulation time: 140 hr 29 min 26 sec) 
 Total Blocks : 262144 Invalid Blocks : 0
Heartbeat CPU 3 instructions: 390000001 cycles: 306817668 heartbeat IPC: 0.95555 cumulative IPC: 0.947192 (Simulation time: 140 hr 29 min 30 sec) 
 Total Blocks : 262144 Invalid Blocks : 0
Heartbeat CPU 2 instructions: 390000001 cycles: 307218779 heartbeat IPC: 0.950669 cumulative IPC: 0.945302 (Simulation time: 140 hr 37 min 9 sec) 
 Total Blocks : 262144 Invalid Blocks : 0
Heartbeat CPU 6 instructions: 390000001 cycles: 307345383 heartbeat IPC: 0.94147 cumulative IPC: 0.944711 (Simulation time: 140 hr 39 min 33 sec) 
 Total Blocks : 262144 Invalid Blocks : 0
Heartbeat CPU 7 instructions: 390000001 cycles: 307437742 heartbeat IPC: 0.940354 cumulative IPC: 0.944274 (Simulation time: 140 hr 41 min 7 sec) 
 Total Blocks : 262144 Invalid Blocks : 0
Heartbeat CPU 0 instructions: 400000001 cycles: 316763777 heartbeat IPC: 0.956759 cumulative IPC: 0.94994 (Simulation time: 143 hr 43 min 16 sec) 
 Total Blocks : 262144 Invalid Blocks : 0
Finished CPU 0 instructions: 200000002 cycles: 210539111 cumulative IPC: 0.949942 (Simulation time: 143 hr 43 min 19 sec) 
Heartbeat CPU 4 instructions: 400000001 cycles: 317154441 heartbeat IPC: 0.952159 cumulative IPC: 0.948187 (Simulation time: 143 hr 50 min 57 sec) 
 Total Blocks : 262144 Invalid Blocks : 0
Finished CPU 4 instructions: 200000000 cycles: 210928732 cumulative IPC: 0.948188 (Simulation time: 143 hr 50 min 58 sec) 
Heartbeat CPU 1 instructions: 400000001 cycles: 317286040 heartbeat IPC: 0.948777 cumulative IPC: 0.947589 (Simulation time: 143 hr 53 min 38 sec) 
 Total Blocks : 262144 Invalid Blocks : 0
Finished CPU 1 instructions: 200000002 cycles: 211061374 cumulative IPC: 0.947592 (Simulation time: 143 hr 53 min 39 sec) 
Heartbeat CPU 3 instructions: 400000000 cycles: 317330049 heartbeat IPC: 0.951259 cumulative IPC: 0.947395 (Simulation time: 143 hr 54 min 26 sec) 
 Total Blocks : 262144 Invalid Blocks : 0
Finished CPU 3 instructions: 200000003 cycles: 211104857 cumulative IPC: 0.947396 (Simulation time: 143 hr 54 min 28 sec) 
Heartbeat CPU 5 instructions: 400000001 cycles: 317368130 heartbeat IPC: 0.947467 cumulative IPC: 0.947227 (Simulation time: 143 hr 55 min 16 sec) 
 Total Blocks : 262144 Invalid Blocks : 0
Finished CPU 5 instructions: 200000003 cycles: 211142565 cumulative IPC: 0.947227 (Simulation time: 143 hr 55 min 16 sec) 
Heartbeat CPU 2 instructions: 400000001 cycles: 317725112 heartbeat IPC: 0.951807 cumulative IPC: 0.945625 (Simulation time: 144 hr 2 min 17 sec) 
 Total Blocks : 262144 Invalid Blocks : 0
Finished CPU 2 instructions: 200000003 cycles: 211500028 cumulative IPC: 0.945626 (Simulation time: 144 hr 2 min 17 sec) 
Heartbeat CPU 6 instructions: 400000001 cycles: 317821120 heartbeat IPC: 0.954587 cumulative IPC: 0.9452 (Simulation time: 144 hr 4 min 4 sec) 
 Total Blocks : 262144 Invalid Blocks : 0
Finished CPU 6 instructions: 200000001 cycles: 211595400 cumulative IPC: 0.9452 (Simulation time: 144 hr 4 min 4 sec) 
Heartbeat CPU 7 instructions: 400000001 cycles: 318006779 heartbeat IPC: 0.94616 cumulative IPC: 0.944368 (Simulation time: 144 hr 7 min 51 sec) 
 Total Blocks : 262144 Invalid Blocks : 0
Finished CPU 7 instructions: 200000003 cycles: 211781601 cumulative IPC: 0.944369 (Simulation time: 144 hr 7 min 51 sec) 

CPU 0 Branch Prediction Accuracy: 81.2318% MPKI: 4.68477 Average ROB Occupancy at Mispredict: 210.755

CPU 1 Branch Prediction Accuracy: 81.2318% MPKI: 4.68478 Average ROB Occupancy at Mispredict: 210.755

CPU 2 Branch Prediction Accuracy: 81.2318% MPKI: 4.68479 Average ROB Occupancy at Mispredict: 210.777

CPU 3 Branch Prediction Accuracy: 81.2318% MPKI: 4.6848 Average ROB Occupancy at Mispredict: 210.782

CPU 4 Branch Prediction Accuracy: 81.2318% MPKI: 4.68481 Average ROB Occupancy at Mispredict: 210.784

CPU 5 Branch Prediction Accuracy: 81.2318% MPKI: 4.68481 Average ROB Occupancy at Mispredict: 210.762

CPU 6 Branch Prediction Accuracy: 81.2318% MPKI: 4.68481 Average ROB Occupancy at Mispredict: 210.796

CPU 7 Branch Prediction Accuracy: 81.2318% MPKI: 4.68479 Average ROB Occupancy at Mispredict: 210.772

ChampSim completed all CPUs

Total Simulation Statistics (not including warmup)

CPU 0 cumulative IPC: 0.949883 instructions: 201167670 cycles: 211781600
ITLB TOTAL     ACCESS: 18063449  HIT: 18063449  MISS:     0  HIT %:   100  MISS %:     0  AVERAGE MISS PENALTY: 0
ITLB LOAD      ACCESS: 18063449  HIT: 18063449  MISS:     0  HIT %:   100  MISS %:     0  AVERAGE MISS PENALTY: 0
ITLB RFO       ACCESS:     0  HIT:     0  MISS:     0  HIT %:     0  MISS %:     0  AVERAGE MISS PENALTY: 0
ITLB PREFETCH  ACCESS:     0  HIT:     0  MISS:     0  HIT %:     0  MISS %:     0  AVERAGE MISS PENALTY: 0
ITLB WRITEBACK ACCESS:     0  HIT:     0  MISS:     0  HIT %:     0  MISS %:     0  AVERAGE MISS PENALTY: 0

DTLB TOTAL     ACCESS: 64920610  HIT: 64639891  MISS: 280719  HIT %: 99.5676  MISS %: 0.432404  AVERAGE MISS PENALTY: 96.4625
DTLB LOAD      ACCESS: 59916931  HIT: 59681181  MISS: 235750  HIT %: 99.6065  MISS %: 0.393461  AVERAGE MISS PENALTY: 112.496
DTLB RFO       ACCESS: 5003679  HIT: 4958710  MISS: 44969  HIT %: 99.1013  MISS %: 0.898719  AVERAGE MISS PENALTY: 12.4068
DTLB PREFETCH  ACCESS:     0  HIT:     0  MISS:     0  HIT %:     0  MISS %:     0  AVERAGE MISS PENALTY: 0
DTLB WRITEBACK ACCESS:     0  HIT:     0  MISS:     0  HIT %:     0  MISS %:     0  AVERAGE MISS PENALTY: 0

STLB TOTAL     ACCESS: 280719  HIT: 220993  MISS: 59726  HIT %: 78.7239  MISS %: 21.2761  AVERAGE MISS PENALTY: 100
STLB LOAD      ACCESS: 235750  HIT: 177556  MISS: 58194  HIT %: 75.3154  MISS %: 24.6846  AVERAGE MISS PENALTY: 100
STLB RFO       ACCESS: 44969  HIT: 43437  MISS:  1532  HIT %: 96.5932  MISS %: 3.40679  AVERAGE MISS PENALTY: 100
STLB PREFETCH  ACCESS:     0  HIT:     0  MISS:     0  HIT %:     0  MISS %:     0  AVERAGE MISS PENALTY: 0
STLB WRITEBACK ACCESS:     0  HIT:     0  MISS:     0  HIT %:     0  MISS %:     0  AVERAGE MISS PENALTY: 0

L1D TOTAL     ACCESS: 99470024  HIT: 95448229  MISS: 4021795  HIT %: 95.9568  MISS %: 4.04322  AVERAGE MISS PENALTY: 2.1494e+07
L1D LOAD      ACCESS: 60011673  HIT: 59402137  MISS: 609536  HIT %: 98.9843  MISS %: 1.0157  AVERAGE MISS PENALTY: 1.41819e+08
L1D RFO       ACCESS: 10971214  HIT: 10873196  MISS: 98018  HIT %: 99.1066  MISS %: 0.893411  AVERAGE MISS PENALTY: 558.959
L1D PREFETCH  ACCESS: 28487137  HIT: 25172896  MISS: 3314241  HIT %: 88.3658  MISS %: 11.6342  AVERAGE MISS PENALTY: 175.204
L1D WRITEBACK ACCESS:     0  HIT:     0  MISS:     0  HIT %:     0  MISS %:     0  AVERAGE MISS PENALTY: 0

L1I TOTAL     ACCESS: 30305499  HIT: 30305499  MISS:     0  HIT %:   100  MISS %:     0  AVERAGE MISS PENALTY: 0
L1I LOAD      ACCESS: 30305499  HIT: 30305499  MISS:     0  HIT %:   100  MISS %:     0  AVERAGE MISS PENALTY: 0
L1I RFO       ACCESS:     0  HIT:     0  MISS:     0  HIT %:     0  MISS %:     0  AVERAGE MISS PENALTY: 0
L1I PREFETCH  ACCESS:     0  HIT:     0  MISS:     0  HIT %:     0  MISS %:     0  AVERAGE MISS PENALTY: 0
L1I WRITEBACK ACCESS:     0  HIT:     0  MISS:     0  HIT %:     0  MISS %:     0  AVERAGE MISS PENALTY: 0

L2C TOTAL     ACCESS: 7049241  HIT: 3226491  MISS: 3822750  HIT %: 45.7708  MISS %: 54.2292  AVERAGE MISS PENALTY: 1.97353e+07
L2C LOAD      ACCESS: 587770  HIT: 127133  MISS: 460637  HIT %: 21.6297  MISS %: 78.3703  AVERAGE MISS PENALTY: 1.63776e+08
L2C RFO       ACCESS: 98018  HIT:     0  MISS: 98018  HIT %:     0  MISS %:   100  AVERAGE MISS PENALTY: 542.042
L2C PREFETCH  ACCESS: 6263944  HIT: 2999849  MISS: 3264095  HIT %: 47.8907  MISS %: 52.1093  AVERAGE MISS PENALTY: 487.892
L2C WRITEBACK ACCESS: 99509  HIT: 99509  MISS:     0  HIT %:   100  MISS %:     0  AVERAGE MISS PENALTY: 0


LLC0 TOTAL     ACCESS: 490074  HIT:  6729  MISS: 483345  HIT %: 1.37306  MISS %: 98.6269  AVERAGE MISS PENALTY: 433.705
LLC0 LOAD      ACCESS: 63855  HIT:     4  MISS: 63851  HIT %: 0.00626419  MISS %: 99.9937  AVERAGE MISS PENALTY: 533.786
LLC0 RFO       ACCESS: 12253  HIT:     0  MISS: 12253  HIT %:     0  MISS %:   100  AVERAGE MISS PENALTY: 450.675
LLC0 PREFETCH  ACCESS: 401733  HIT:    36  MISS: 401697  HIT %: 0.00896118  MISS %: 99.991  AVERAGE MISS PENALTY: 423.265
LLC0 WRITEBACK ACCESS: 12233  HIT:  6689  MISS:  5544  HIT %: 54.68  MISS %: 45.32  AVERAGE MISS PENALTY: 0

LLC1 TOTAL     ACCESS: 490066  HIT:  6851  MISS: 483215  HIT %: 1.39797  MISS %: 98.602  AVERAGE MISS PENALTY: 431.408
LLC1 LOAD      ACCESS: 19175  HIT:     0  MISS: 19175  HIT %:     0  MISS %:   100  AVERAGE MISS PENALTY: 538.048
LLC1 RFO       ACCESS: 12252  HIT:     0  MISS: 12252  HIT %:     0  MISS %:   100  AVERAGE MISS PENALTY: 457.477
LLC1 PREFETCH  ACCESS: 446406  HIT:    31  MISS: 446375  HIT %: 0.00694435  MISS %: 99.9931  AVERAGE MISS PENALTY: 431.343
LLC1 WRITEBACK ACCESS: 12233  HIT:  6820  MISS:  5413  HIT %: 55.7508  MISS %: 44.2492  AVERAGE MISS PENALTY: 0

LLC2 TOTAL     ACCESS: 490069  HIT:  8529  MISS: 481540  HIT %: 1.74037  MISS %: 98.2596  AVERAGE MISS PENALTY: 526.056
LLC2 LOAD      ACCESS:  6017  HIT:     0  MISS:  6017  HIT %:     0  MISS %:   100  AVERAGE MISS PENALTY: 448.937
LLC2 RFO       ACCESS: 12252  HIT:     0  MISS: 12252  HIT %:     0  MISS %:   100  AVERAGE MISS PENALTY: 469.801
LLC2 PREFETCH  ACCESS: 459567  HIT:     9  MISS: 459558  HIT %: 0.00195837  MISS %: 99.998  AVERAGE MISS PENALTY: 532.816
LLC2 WRITEBACK ACCESS: 12233  HIT:  8520  MISS:  3713  HIT %: 69.6477  MISS %: 30.3523  AVERAGE MISS PENALTY: 0

LLC3 TOTAL     ACCESS: 490087  HIT:  8783  MISS: 481304  HIT %: 1.79213  MISS %: 98.2079  AVERAGE MISS PENALTY: 512.144
LLC3 LOAD      ACCESS:  6293  HIT:     0  MISS:  6293  HIT %:     0  MISS %:   100  AVERAGE MISS PENALTY: 426.581
LLC3 RFO       ACCESS: 12252  HIT:     0  MISS: 12252  HIT %:     0  MISS %:   100  AVERAGE MISS PENALTY: 456.939
LLC3 PREFETCH  ACCESS: 459309  HIT:    11  MISS: 459298  HIT %: 0.0023949  MISS %: 99.9976  AVERAGE MISS PENALTY: 518.648
LLC3 WRITEBACK ACCESS: 12233  HIT:  8772  MISS:  3461  HIT %: 71.7077  MISS %: 28.2923  AVERAGE MISS PENALTY: 0

LLC4 TOTAL     ACCESS: 490095  HIT:  8732  MISS: 481363  HIT %: 1.7817  MISS %: 98.2183  AVERAGE MISS PENALTY: 442.267
LLC4 LOAD      ACCESS:  6260  HIT:     0  MISS:  6260  HIT %:     0  MISS %:   100  AVERAGE MISS PENALTY: 564.97
LLC4 RFO       ACCESS: 12252  HIT:     0  MISS: 12252  HIT %:     0  MISS %:   100  AVERAGE MISS PENALTY: 508.337
LLC4 PREFETCH  ACCESS: 459339  HIT:     5  MISS: 459334  HIT %: 0.00108852  MISS %: 99.9989  AVERAGE MISS PENALTY: 442.219
LLC4 WRITEBACK ACCESS: 12244  HIT:  8727  MISS:  3517  HIT %: 71.2757  MISS %: 28.7243  AVERAGE MISS PENALTY: 0

LLC5 TOTAL     ACCESS: 490092  HIT:  8646  MISS: 481446  HIT %: 1.76416  MISS %: 98.2358  AVERAGE MISS PENALTY: 440.56
LLC5 LOAD      ACCESS:  5643  HIT:     0  MISS:  5643  HIT %:     0  MISS %:   100  AVERAGE MISS PENALTY: 567.731
LLC5 RFO       ACCESS: 12252  HIT:     0  MISS: 12252  HIT %:     0  MISS %:   100  AVERAGE MISS PENALTY: 742.059
LLC5 PREFETCH  ACCESS: 459953  HIT:     4  MISS: 459949  HIT %: 0.000869654  MISS %: 99.9991  AVERAGE MISS PENALTY: 434.419
LLC5 WRITEBACK ACCESS: 12244  HIT:  8642  MISS:  3602  HIT %: 70.5815  MISS %: 29.4185  AVERAGE MISS PENALTY: 0

LLC6 TOTAL     ACCESS: 490078  HIT:  8300  MISS: 481778  HIT %: 1.69361  MISS %: 98.3064  AVERAGE MISS PENALTY: 532.18
LLC6 LOAD      ACCESS:  5854  HIT:     0  MISS:  5854  HIT %:     0  MISS %:   100  AVERAGE MISS PENALTY: 446.511
LLC6 RFO       ACCESS: 12252  HIT:     0  MISS: 12252  HIT %:     0  MISS %:   100  AVERAGE MISS PENALTY: 491.094
LLC6 PREFETCH  ACCESS: 459738  HIT:    14  MISS: 459724  HIT %: 0.00304521  MISS %: 99.997  AVERAGE MISS PENALTY: 538.936
LLC6 WRITEBACK ACCESS: 12234  HIT:  8286  MISS:  3948  HIT %: 67.7293  MISS %: 32.2707  AVERAGE MISS PENALTY: 0

LLC7 TOTAL     ACCESS: 490077  HIT:  7433  MISS: 482644  HIT %: 1.5167  MISS %: 98.4833  AVERAGE MISS PENALTY: 506.714
LLC7 LOAD      ACCESS:  5814  HIT:     0  MISS:  5814  HIT %:     0  MISS %:   100  AVERAGE MISS PENALTY: 449.363
LLC7 RFO       ACCESS: 12253  HIT:     0  MISS: 12253  HIT %:     0  MISS %:   100  AVERAGE MISS PENALTY: 472.939
LLC7 PREFETCH  ACCESS: 459776  HIT:    30  MISS: 459746  HIT %: 0.00652492  MISS %: 99.9935  AVERAGE MISS PENALTY: 513.664
LLC7 WRITEBACK ACCESS: 12234  HIT:  7403  MISS:  4831  HIT %: 60.5117  MISS %: 39.4883  AVERAGE MISS PENALTY: 0

Total Rob stall cycles : 	168757754
Total Load Rob Stall cycles : 	87379895
Average Rob Stall cycles : 	 5
Average Load Rob Stall cycles : 	 21

CPU 1 cumulative IPC: 0.947639 instructions: 200692498 cycles: 211781600
ITLB TOTAL     ACCESS: 18020675  HIT: 18020675  MISS:     0  HIT %:   100  MISS %:     0  AVERAGE MISS PENALTY: 0
ITLB LOAD      ACCESS: 18020675  HIT: 18020675  MISS:     0  HIT %:   100  MISS %:     0  AVERAGE MISS PENALTY: 0
ITLB RFO       ACCESS:     0  HIT:     0  MISS:     0  HIT %:     0  MISS %:     0  AVERAGE MISS PENALTY: 0
ITLB PREFETCH  ACCESS:     0  HIT:     0  MISS:     0  HIT %:     0  MISS %:     0  AVERAGE MISS PENALTY: 0
ITLB WRITEBACK ACCESS:     0  HIT:     0  MISS:     0  HIT %:     0  MISS %:     0  AVERAGE MISS PENALTY: 0

DTLB TOTAL     ACCESS: 64767213  HIT: 64486763  MISS: 280450  HIT %: 99.567  MISS %: 0.433012  AVERAGE MISS PENALTY: 96.3704
DTLB LOAD      ACCESS: 59775651  HIT: 59540059  MISS: 235592  HIT %: 99.6059  MISS %: 0.394127  AVERAGE MISS PENALTY: 112.358
DTLB RFO       ACCESS: 4991562  HIT: 4946704  MISS: 44858  HIT %: 99.1013  MISS %: 0.898677  AVERAGE MISS PENALTY: 12.4063
DTLB PREFETCH  ACCESS:     0  HIT:     0  MISS:     0  HIT %:     0  MISS %:     0  AVERAGE MISS PENALTY: 0
DTLB WRITEBACK ACCESS:     0  HIT:     0  MISS:     0  HIT %:     0  MISS %:     0  AVERAGE MISS PENALTY: 0

STLB TOTAL     ACCESS: 280450  HIT: 220865  MISS: 59585  HIT %: 78.7538  MISS %: 21.2462  AVERAGE MISS PENALTY: 100
STLB LOAD      ACCESS: 235592  HIT: 177535  MISS: 58057  HIT %: 75.357  MISS %: 24.643  AVERAGE MISS PENALTY: 100
STLB RFO       ACCESS: 44858  HIT: 43330  MISS:  1528  HIT %: 96.5937  MISS %: 3.4063  AVERAGE MISS PENALTY: 100
STLB PREFETCH  ACCESS:     0  HIT:     0  MISS:     0  HIT %:     0  MISS %:     0  AVERAGE MISS PENALTY: 0
STLB WRITEBACK ACCESS:     0  HIT:     0  MISS:     0  HIT %:     0  MISS %:     0  AVERAGE MISS PENALTY: 0

L1D TOTAL     ACCESS: 99238285  HIT: 95225984  MISS: 4012301  HIT %: 95.9569  MISS %: 4.0431  AVERAGE MISS PENALTY: 2.14935e+07
L1D LOAD      ACCESS: 59870761  HIT: 59262686  MISS: 608075  HIT %: 98.9844  MISS %: 1.01565  AVERAGE MISS PENALTY: 1.41821e+08
L1D RFO       ACCESS: 10945763  HIT: 10847977  MISS: 97786  HIT %: 99.1066  MISS %: 0.893369  AVERAGE MISS PENALTY: 560.985
L1D PREFETCH  ACCESS: 28421761  HIT: 25115321  MISS: 3306440  HIT %: 88.3665  MISS %: 11.6335  AVERAGE MISS PENALTY: 175.644
L1D WRITEBACK ACCESS:     0  HIT:     0  MISS:     0  HIT %:     0  MISS %:     0  AVERAGE MISS PENALTY: 0

L1I TOTAL     ACCESS: 30233778  HIT: 30233778  MISS:     0  HIT %:   100  MISS %:     0  AVERAGE MISS PENALTY: 0
L1I LOAD      ACCESS: 30233778  HIT: 30233778  MISS:     0  HIT %:   100  MISS %:     0  AVERAGE MISS PENALTY: 0
L1I RFO       ACCESS:     0  HIT:     0  MISS:     0  HIT %:     0  MISS %:     0  AVERAGE MISS PENALTY: 0
L1I PREFETCH  ACCESS:     0  HIT:     0  MISS:     0  HIT %:     0  MISS %:     0  AVERAGE MISS PENALTY: 0
L1I WRITEBACK ACCESS:     0  HIT:     0  MISS:     0  HIT %:     0  MISS %:     0  AVERAGE MISS PENALTY: 0

L2C TOTAL     ACCESS: 7031686  HIT: 3217973  MISS: 3813713  HIT %: 45.7639  MISS %: 54.2361  AVERAGE MISS PENALTY: 1.97376e+07
L2C LOAD      ACCESS: 586339  HIT: 126679  MISS: 459660  HIT %: 21.6051  MISS %: 78.3949  AVERAGE MISS PENALTY: 1.63755e+08
L2C RFO       ACCESS: 97786  HIT:     0  MISS: 97786  HIT %:     0  MISS %:   100  AVERAGE MISS PENALTY: 544.059
L2C PREFETCH  ACCESS: 6248291  HIT: 2992024  MISS: 3256267  HIT %: 47.8855  MISS %: 52.1145  AVERAGE MISS PENALTY: 488.51
L2C WRITEBACK ACCESS: 99270  HIT: 99270  MISS:     0  HIT %:   100  MISS %:     0  AVERAGE MISS PENALTY: 0


LLC0 TOTAL     ACCESS: 488913  HIT:  6606  MISS: 482307  HIT %: 1.35116  MISS %: 98.6488  AVERAGE MISS PENALTY: 433.681
LLC0 LOAD      ACCESS: 63657  HIT:     0  MISS: 63657  HIT %:     0  MISS %:   100  AVERAGE MISS PENALTY: 532.439
LLC0 RFO       ACCESS: 12224  HIT:     0  MISS: 12224  HIT %:     0  MISS %:   100  AVERAGE MISS PENALTY: 449.129
LLC0 PREFETCH  ACCESS: 400830  HIT:    40  MISS: 400790  HIT %: 0.00997929  MISS %: 99.99  AVERAGE MISS PENALTY: 423.623
LLC0 WRITEBACK ACCESS: 12202  HIT:  6566  MISS:  5636  HIT %: 53.8109  MISS %: 46.1891  AVERAGE MISS PENALTY: 0

LLC1 TOTAL     ACCESS: 488909  HIT:  6675  MISS: 482234  HIT %: 1.36528  MISS %: 98.6347  AVERAGE MISS PENALTY: 431.99
LLC1 LOAD      ACCESS: 19153  HIT:     0  MISS: 19153  HIT %:     0  MISS %:   100  AVERAGE MISS PENALTY: 538.242
LLC1 RFO       ACCESS: 12223  HIT:     0  MISS: 12223  HIT %:     0  MISS %:   100  AVERAGE MISS PENALTY: 457.606
LLC1 PREFETCH  ACCESS: 445331  HIT:    17  MISS: 445314  HIT %: 0.00381739  MISS %: 99.9962  AVERAGE MISS PENALTY: 432.095
LLC1 WRITEBACK ACCESS: 12202  HIT:  6658  MISS:  5544  HIT %: 54.5648  MISS %: 45.4352  AVERAGE MISS PENALTY: 0

LLC2 TOTAL     ACCESS: 488911  HIT:  8450  MISS: 480461  HIT %: 1.72833  MISS %: 98.2717  AVERAGE MISS PENALTY: 526.079
LLC2 LOAD      ACCESS:  6027  HIT:     0  MISS:  6027  HIT %:     0  MISS %:   100  AVERAGE MISS PENALTY: 447.22
LLC2 RFO       ACCESS: 12223  HIT:     0  MISS: 12223  HIT %:     0  MISS %:   100  AVERAGE MISS PENALTY: 464.236
LLC2 PREFETCH  ACCESS: 458459  HIT:     9  MISS: 458450  HIT %: 0.0019631  MISS %: 99.998  AVERAGE MISS PENALTY: 533.08
LLC2 WRITEBACK ACCESS: 12202  HIT:  8441  MISS:  3761  HIT %: 69.1772  MISS %: 30.8228  AVERAGE MISS PENALTY: 0

LLC3 TOTAL     ACCESS: 488924  HIT:  8619  MISS: 480305  HIT %: 1.76285  MISS %: 98.2371  AVERAGE MISS PENALTY: 513.263
LLC3 LOAD      ACCESS:  6204  HIT:     0  MISS:  6204  HIT %:     0  MISS %:   100  AVERAGE MISS PENALTY: 423.442
LLC3 RFO       ACCESS: 12223  HIT:     0  MISS: 12223  HIT %:     0  MISS %:   100  AVERAGE MISS PENALTY: 457.783
[...]
LLC1 PREFETCH  REQUESTED:     0  ISSUED:     0  USEFUL:     1  USELESS: 3561125
 USEFUL LOAD PREFETCHES:          1 PREFETCH ISSUED TO LOWER LEVEL:    8436685  ACCURACY: 1.1853e-05
 TIMELY PREFETCHES:          1 LATE PREFETCHES: 0 DROPPED PREFETCHES: 0
LLC1 AVERAGE MISS LATENCY: 435.198 cycles
LLC2 TOTAL     ACCESS: 487232  HIT:  8414  MISS: 478818  HIT %: 1.7269  MISS %: 98.2731  AVERAGE MISS PENALTY: 530.172
LLC2 LOAD      ACCESS:  6083  HIT:     0  MISS:  6083  HIT %:     0  MISS %:   100  AVERAGE MISS PENALTY: 444.418
LLC2 RFO       ACCESS: 12181  HIT:     0  MISS: 12181  HIT %:     0  MISS %:   100  AVERAGE MISS PENALTY: 465.55
LLC2 PREFETCH  ACCESS: 456798  HIT:    12  MISS: 456786  HIT %: 0.00262698  MISS %: 99.9974  AVERAGE MISS PENALTY: 537.41
LLC2 WRITEBACK ACCESS: 12170  HIT:  8402  MISS:  3768  HIT %: 69.0386  MISS %: 30.9614  AVERAGE MISS PENALTY: 0
LLC2 PREFETCH  REQUESTED:     0  ISSUED:     0  USEFUL:     0  USELESS: 3665788
 USEFUL LOAD PREFETCHES:          0 PREFETCH ISSUED TO LOWER LEVEL:   13458207  ACCURACY: 0
 TIMELY PREFETCHES:          0 LATE PREFETCHES: 0 DROPPED PREFETCHES: 0
LLC2 AVERAGE MISS LATENCY: 530.172 cycles
LLC3 TOTAL     ACCESS: 487242  HIT:  8827  MISS: 478415  HIT %: 1.81163  MISS %: 98.1884  AVERAGE MISS PENALTY: 516.727
LLC3 LOAD      ACCESS:  6421  HIT:     0  MISS:  6421  HIT %:     0  MISS %:   100  AVERAGE MISS PENALTY: 426.05
LLC3 RFO       ACCESS: 12181  HIT:     0  MISS: 12181  HIT %:     0  MISS %:   100  AVERAGE MISS PENALTY: 452.529
LLC3 PREFETCH  ACCESS: 456470  HIT:     4  MISS: 456466  HIT %: 0.00087629  MISS %: 99.9991  AVERAGE MISS PENALTY: 523.504
LLC3 WRITEBACK ACCESS: 12170  HIT:  8823  MISS:  3347  HIT %: 72.4979  MISS %: 27.5021  AVERAGE MISS PENALTY: 0
LLC3 PREFETCH  REQUESTED:     0  ISSUED:     0  USEFUL:     0  USELESS: 3663305
 USEFUL LOAD PREFETCHES:          0 PREFETCH ISSUED TO LOWER LEVEL:   10467449  ACCURACY: 0
 TIMELY PREFETCHES:          0 LATE PREFETCHES: 0 DROPPED PREFETCHES: 0
LLC3 AVERAGE MISS LATENCY: 516.727 cycles
LLC4 TOTAL     ACCESS: 487253  HIT:  8805  MISS: 478448  HIT %: 1.80707  MISS %: 98.1929  AVERAGE MISS PENALTY: 446.454
LLC4 LOAD      ACCESS:  6189  HIT:     0  MISS:  6189  HIT %:     0  MISS %:   100  AVERAGE MISS PENALTY: 564.646
LLC4 RFO       ACCESS: 12181  HIT:     0  MISS: 12181  HIT %:     0  MISS %:   100  AVERAGE MISS PENALTY: 506.537
LLC4 PREFETCH  ACCESS: 456702  HIT:     3  MISS: 456699  HIT %: 0.000656883  MISS %: 99.9993  AVERAGE MISS PENALTY: 446.553
LLC4 WRITEBACK ACCESS: 12181  HIT:  8802  MISS:  3379  HIT %: 72.2601  MISS %: 27.7399  AVERAGE MISS PENALTY: 0
LLC4 PREFETCH  REQUESTED:     0  ISSUED:     0  USEFUL:     0  USELESS: 3664162
 USEFUL LOAD PREFETCHES:          0 PREFETCH ISSUED TO LOWER LEVEL:   16288571  ACCURACY: 0
 TIMELY PREFETCHES:          0 LATE PREFETCHES: 0 DROPPED PREFETCHES: 0
LLC4 AVERAGE MISS LATENCY: 446.454 cycles
LLC5 TOTAL     ACCESS: 487252  HIT:  8587  MISS: 478665  HIT %: 1.76233  MISS %: 98.2377  AVERAGE MISS PENALTY: 443.888
LLC5 LOAD      ACCESS:  5742  HIT:     0  MISS:  5742  HIT %:     0  MISS %:   100  AVERAGE MISS PENALTY: 573.701
LLC5 RFO       ACCESS: 12181  HIT:     0  MISS: 12181  HIT %:     0  MISS %:   100  AVERAGE MISS PENALTY: 752.852
LLC5 PREFETCH  ACCESS: 457148  HIT:     5  MISS: 457143  HIT %: 0.00109374  MISS %: 99.9989  AVERAGE MISS PENALTY: 437.519
LLC5 WRITEBACK ACCESS: 12181  HIT:  8582  MISS:  3599  HIT %: 70.454  MISS %: 29.546  AVERAGE MISS PENALTY: 0
LLC5 PREFETCH  REQUESTED:     0  ISSUED:     0  USEFUL:     0  USELESS: 3668735
 USEFUL LOAD PREFETCHES:          0 PREFETCH ISSUED TO LOWER LEVEL:   11586605  ACCURACY: 0
 TIMELY PREFETCHES:          0 LATE PREFETCHES: 0 DROPPED PREFETCHES: 0
LLC5 AVERAGE MISS LATENCY: 443.888 cycles
LLC6 TOTAL     ACCESS: 487238  HIT:  8305  MISS: 478933  HIT %: 1.70451  MISS %: 98.2955  AVERAGE MISS PENALTY: 536.271
LLC6 LOAD      ACCESS:  5775  HIT:     0  MISS:  5775  HIT %:     0  MISS %:   100  AVERAGE MISS PENALTY: 447.737
LLC6 RFO       ACCESS: 12181  HIT:     0  MISS: 12181  HIT %:     0  MISS %:   100  AVERAGE MISS PENALTY: 489.655
LLC6 PREFETCH  ACCESS: 457111  HIT:    20  MISS: 457091  HIT %: 0.0043753  MISS %: 99.9956  AVERAGE MISS PENALTY: 543.191
LLC6 WRITEBACK ACCESS: 12171  HIT:  8285  MISS:  3886  HIT %: 68.0716  MISS %: 31.9284  AVERAGE MISS PENALTY: 0
LLC6 PREFETCH  REQUESTED:     0  ISSUED:     0  USEFUL:     0  USELESS: 3666804
 USEFUL LOAD PREFETCHES:          0 PREFETCH ISSUED TO LOWER LEVEL:   18354763  ACCURACY: 0
 TIMELY PREFETCHES:          0 LATE PREFETCHES: 0 DROPPED PREFETCHES: 0
LLC6 AVERAGE MISS LATENCY: 536.271 cycles
LLC7 TOTAL     ACCESS: 487240  HIT:  7336  MISS: 479904  HIT %: 1.50562  MISS %: 98.4944  AVERAGE MISS PENALTY: 511.443
LLC7 LOAD      ACCESS:  5756  HIT:     0  MISS:  5756  HIT %:     0  MISS %:   100  AVERAGE MISS PENALTY: 440.21
LLC7 RFO       ACCESS: 12181  HIT:     0  MISS: 12181  HIT %:     0  MISS %:   100  AVERAGE MISS PENALTY: 484.711
LLC7 PREFETCH  ACCESS: 457132  HIT:    24  MISS: 457108  HIT %: 0.00525012  MISS %: 99.9947  AVERAGE MISS PENALTY: 518.489
LLC7 WRITEBACK ACCESS: 12171  HIT:  7312  MISS:  4859  HIT %: 60.0772  MISS %: 39.9228  AVERAGE MISS PENALTY: 0
LLC7 PREFETCH  REQUESTED:     0  ISSUED:     0  USEFUL:     0  USELESS: 3666959
 USEFUL LOAD PREFETCHES:          0 PREFETCH ISSUED TO LOWER LEVEL:   13910328  ACCURACY: 0
 TIMELY PREFETCHES:          0 LATE PREFETCHES: 0 DROPPED PREFETCHES: 0
LLC7 AVERAGE MISS LATENCY: 511.443 cycles
ROI Average ROB Stall Cycles:	5.96775
ROI Total ROB Stalls Cycles:	168818107
ROI TOTAL ROB counter      :	28288415
ROI Average Load ROB Stall Cycles:	21.2653
ROI Total Load ROB Stalls Cycle  :	87914078
ROI Total Load ROB stalls Counter:	4134163
Major fault: 0 Minor fault: 113019

CPU 7 cumulative IPC: 0.944369 instructions: 200000003 cycles: 211781601
ITLB TOTAL     ACCESS: 17958573  HIT: 17958573  MISS:     0  HIT %:   100  MISS %:     0  AVERAGE MISS PENALTY: 0
ITLB LOAD      ACCESS: 17958573  HIT: 17958573  MISS:     0  HIT %:   100  MISS %:     0  AVERAGE MISS PENALTY: 0
ITLB RFO       ACCESS:     0  HIT:     0  MISS:     0  HIT %:     0  MISS %:     0  AVERAGE MISS PENALTY: 0
ITLB PREFETCH  ACCESS:     0  HIT:     0  MISS:     0  HIT %:     0  MISS %:     0  AVERAGE MISS PENALTY: 0
ITLB WRITEBACK ACCESS:     0  HIT:     0  MISS:     0  HIT %:     0  MISS %:     0  AVERAGE MISS PENALTY: 0
ITLB PREFETCH  REQUESTED:     0  ISSUED:     0  USEFUL:     0  USELESS:     0
 USEFUL LOAD PREFETCHES:          0 PREFETCH ISSUED TO LOWER LEVEL:          0  ACCURACY: -nan
 TIMELY PREFETCHES:          0 LATE PREFETCHES: 0 DROPPED PREFETCHES: 0
ITLB AVERAGE MISS LATENCY: -nan cycles
DTLB TOTAL     ACCESS: 64544203  HIT: 64265014  MISS: 279189  HIT %: 99.5674  MISS %: 0.432555  AVERAGE MISS PENALTY: 96.4017
DTLB LOAD      ACCESS: 59569785  HIT: 59335341  MISS: 234444  HIT %: 99.6064  MISS %: 0.393562  AVERAGE MISS PENALTY: 112.433
DTLB RFO       ACCESS: 4974418  HIT: 4929673  MISS: 44745  HIT %: 99.1005  MISS %: 0.899502  AVERAGE MISS PENALTY: 12.4038
DTLB PREFETCH  ACCESS:     0  HIT:     0  MISS:     0  HIT %:     0  MISS %:     0  AVERAGE MISS PENALTY: 0
DTLB WRITEBACK ACCESS:     0  HIT:     0  MISS:     0  HIT %:     0  MISS %:     0  AVERAGE MISS PENALTY: 0
DTLB PREFETCH  REQUESTED:     0  ISSUED:     0  USEFUL:     0  USELESS:     0
 USEFUL LOAD PREFETCHES:          0 PREFETCH ISSUED TO LOWER LEVEL:          0  ACCURACY: -nan
 TIMELY PREFETCHES:          0 LATE PREFETCHES: 0 DROPPED PREFETCHES: 0
DTLB AVERAGE MISS LATENCY: 96.4017 cycles
STLB TOTAL     ACCESS: 279189  HIT: 219806  MISS: 59383  HIT %: 78.7302  MISS %: 21.2698  AVERAGE MISS PENALTY: 100
STLB LOAD      ACCESS: 234444  HIT: 176584  MISS: 57860  HIT %: 75.3203  MISS %: 24.6797  AVERAGE MISS PENALTY: 100
STLB RFO       ACCESS: 44745  HIT: 43222  MISS:  1523  HIT %: 96.5963  MISS %: 3.40373  AVERAGE MISS PENALTY: 100
STLB PREFETCH  ACCESS:     0  HIT:     0  MISS:     0  HIT %:     0  MISS %:     0  AVERAGE MISS PENALTY: 0
STLB WRITEBACK ACCESS:     0  HIT:     0  MISS:     0  HIT %:     0  MISS %:     0  AVERAGE MISS PENALTY: 0
STLB PREFETCH  REQUESTED:     0  ISSUED:     0  USEFUL:     0  USELESS:     0
 USEFUL LOAD PREFETCHES:          0 PREFETCH ISSUED TO LOWER LEVEL:          0  ACCURACY: -nan
 TIMELY PREFETCHES:          0 LATE PREFETCHES: 0 DROPPED PREFETCHES: 0
STLB AVERAGE MISS LATENCY: 100 cycles
L1D TOTAL     ACCESS: 98889114  HIT: 94890656  MISS: 3998458  HIT %: 95.9566  MISS %: 4.04338  AVERAGE MISS PENALTY: 2.15844e+07
L1D LOAD      ACCESS: 59665433  HIT: 59057245  MISS: 608188  HIT %: 98.9807  MISS %: 1.01933  AVERAGE MISS PENALTY: 1.41903e+08
L1D RFO       ACCESS: 10908474  HIT: 10811026  MISS: 97448  HIT %: 99.1067  MISS %: 0.893324  AVERAGE MISS PENALTY: 560.719
L1D PREFETCH  ACCESS: 28315207  HIT: 25022385  MISS: 3292822  HIT %: 88.3708  MISS %: 11.6292  AVERAGE MISS PENALTY: 176.854
L1D WRITEBACK ACCESS:     0  HIT:     0  MISS:     0  HIT %:     0  MISS %:     0  AVERAGE MISS PENALTY: 0
L1D PREFETCH  REQUESTED: 44736971  ISSUED: 30971296  USEFUL: 3292734  USELESS:    89
 USEFUL LOAD PREFETCHES:    3292734 PREFETCH ISSUED TO LOWER LEVEL:   14152523  ACCURACY: 23.2661
 TIMELY PREFETCHES:    3292734 LATE PREFETCHES: 494006 DROPPED PREFETCHES: 13765675
L1D AVERAGE MISS LATENCY: 208.402 cycles
L1I TOTAL     ACCESS: 30129555  HIT: 30129555  MISS:     0  HIT %:   100  MISS %:     0  AVERAGE MISS PENALTY: 0
L1I LOAD      ACCESS: 30129555  HIT: 30129555  MISS:     0  HIT %:   100  MISS %:     0  AVERAGE MISS PENALTY: 0
L1I RFO       ACCESS:     0  HIT:     0  MISS:     0  HIT %:     0  MISS %:     0  AVERAGE MISS PENALTY: 0
L1I PREFETCH  ACCESS:     0  HIT:     0  MISS:     0  HIT %:     0  MISS %:     0  AVERAGE MISS PENALTY: 0
L1I WRITEBACK ACCESS:     0  HIT:     0  MISS:     0  HIT %:     0  MISS %:     0  AVERAGE MISS PENALTY: 0
L1I PREFETCH  REQUESTED:     0  ISSUED:     0  USEFUL:     0  USELESS:     0
 USEFUL LOAD PREFETCHES:          0 PREFETCH ISSUED TO LOWER LEVEL:          0  ACCURACY: -nan
 TIMELY PREFETCHES:          0 LATE PREFETCHES: 0 DROPPED PREFETCHES: 0
L1I AVERAGE MISS LATENCY: -nan cycles
L2C TOTAL     ACCESS: 7007063  HIT: 3206530  MISS: 3800533  HIT %: 45.7614  MISS %: 54.2386  AVERAGE MISS PENALTY: 1.9832e+07
L2C LOAD      ACCESS: 586714  HIT: 126709  MISS: 460005  HIT %: 21.5964  MISS %: 78.4036  AVERAGE MISS PENALTY: 1.63847e+08
L2C RFO       ACCESS: 97448  HIT:     0  MISS: 97448  HIT %:     0  MISS %:   100  AVERAGE MISS PENALTY: 543.787
L2C PREFETCH  ACCESS: 6223969  HIT: 2980889  MISS: 3243080  HIT %: 47.8937  MISS %: 52.1063  AVERAGE MISS PENALTY: 491.434
L2C WRITEBACK ACCESS: 98932  HIT: 98932  MISS:     0  HIT %:   100  MISS %:     0  AVERAGE MISS PENALTY: 0
L2C PREFETCH  REQUESTED: 6021071  ISSUED: 5995638  USEFUL: 120775  USELESS: 3123201
 USEFUL LOAD PREFETCHES:     120775 PREFETCH ISSUED TO LOWER LEVEL:    5304349  ACCURACY: 2.27691
 TIMELY PREFETCHES:     120775 LATE PREFETCHES: 369262 DROPPED PREFETCHES: 25433
L2C AVERAGE MISS LATENCY: 482.337 cycles
LLC0 TOTAL     ACCESS: 487246  HIT:  6676  MISS: 480570  HIT %: 1.37015  MISS %: 98.6299  AVERAGE MISS PENALTY: 439.069
LLC0 LOAD      ACCESS: 63436  HIT:     0  MISS: 63436  HIT %:     0  MISS %:   100  AVERAGE MISS PENALTY: 538.69
LLC0 RFO       ACCESS: 12181  HIT:     0  MISS: 12181  HIT %:     0  MISS %:   100  AVERAGE MISS PENALTY: 453.147
LLC0 PREFETCH  ACCESS: 399451  HIT:    46  MISS: 399405  HIT %: 0.0115158  MISS %: 99.9885  AVERAGE MISS PENALTY: 428.916
LLC0 WRITEBACK ACCESS: 12178  HIT:  6630  MISS:  5548  HIT %: 54.4424  MISS %: 45.5576  AVERAGE MISS PENALTY: 0
LLC0 PREFETCH  REQUESTED:     0  ISSUED:     0  USEFUL:     0  USELESS: 3204341
 USEFUL LOAD PREFETCHES:          0 PREFETCH ISSUED TO LOWER LEVEL:    9591610  ACCURACY: 0
 TIMELY PREFETCHES:          0 LATE PREFETCHES: 0 DROPPED PREFETCHES: 0
LLC0 AVERAGE MISS LATENCY: 439.069 cycles
Deadblocks : 509031 Deadblock percentage : 802.432

LLC1 TOTAL     ACCESS: 487244  HIT:  6655  MISS: 480589  HIT %: 1.36585  MISS %: 98.6342  AVERAGE MISS PENALTY: 433.211
LLC1 LOAD      ACCESS: 19036  HIT:     0  MISS: 19036  HIT %:     0  MISS %:   100  AVERAGE MISS PENALTY: 535.344
LLC1 RFO       ACCESS: 12181  HIT:     0  MISS: 12181  HIT %:     0  MISS %:   100  AVERAGE MISS PENALTY: 458.341
LLC1 PREFETCH  ACCESS: 443849  HIT:    14  MISS: 443835  HIT %: 0.00315423  MISS %: 99.9968  AVERAGE MISS PENALTY: 433.546
LLC1 WRITEBACK ACCESS: 12178  HIT:  6641  MISS:  5537  HIT %: 54.5328  MISS %: 45.4672  AVERAGE MISS PENALTY: 0
LLC1 PREFETCH  REQUESTED:     0  ISSUED:     0  USEFUL:     1  USELESS: 3561125
 USEFUL LOAD PREFETCHES:          1 PREFETCH ISSUED TO LOWER LEVEL:    8436685  ACCURACY: 1.1853e-05
 TIMELY PREFETCHES:          1 LATE PREFETCHES: 0 DROPPED PREFETCHES: 0
LLC1 AVERAGE MISS LATENCY: 433.211 cycles
LLC2 TOTAL     ACCESS: 487240  HIT:  8363  MISS: 478877  HIT %: 1.7164  MISS %: 98.2836  AVERAGE MISS PENALTY: 529.175
LLC2 LOAD      ACCESS:  5926  HIT:     0  MISS:  5926  HIT %:     0  MISS %:   100  AVERAGE MISS PENALTY: 454.163
LLC2 RFO       ACCESS: 12181  HIT:     0  MISS: 12181  HIT %:     0  MISS %:   100  AVERAGE MISS PENALTY: 465.096
LLC2 PREFETCH  ACCESS: 456955  HIT:    10  MISS: 456945  HIT %: 0.0021884  MISS %: 99.9978  AVERAGE MISS PENALTY: 536.286
LLC2 WRITEBACK ACCESS: 12178  HIT:  8353  MISS:  3825  HIT %: 68.5909  MISS %: 31.4091  AVERAGE MISS PENALTY: 0
LLC2 PREFETCH  REQUESTED:     0  ISSUED:     0  USEFUL:     0  USELESS: 3665788
 USEFUL LOAD PREFETCHES:          0 PREFETCH ISSUED TO LOWER LEVEL:   13458207  ACCURACY: 0
 TIMELY PREFETCHES:          0 LATE PREFETCHES: 0 DROPPED PREFETCHES: 0
LLC2 AVERAGE MISS LATENCY: 529.175 cycles
LLC3 TOTAL     ACCESS: 487249  HIT:  8746  MISS: 478503  HIT %: 1.79498  MISS %: 98.205  AVERAGE MISS PENALTY: 516.201
LLC3 LOAD      ACCESS:  6227  HIT:     0  MISS:  6227  HIT %:     0  MISS %:   100  AVERAGE MISS PENALTY: 423.303
LLC3 RFO       ACCESS: 12181  HIT:     0  MISS: 12181  HIT %:     0  MISS %:   100  AVERAGE MISS PENALTY: 456.165
LLC3 PREFETCH  ACCESS: 456663  HIT:     2  MISS: 456661  HIT %: 0.00043796  MISS %: 99.9996  AVERAGE MISS PENALTY: 522.951
LLC3 WRITEBACK ACCESS: 12178  HIT:  8744  MISS:  3434  HIT %: 71.8016  MISS %: 28.1984  AVERAGE MISS PENALTY: 0
LLC3 PREFETCH  REQUESTED:     0  ISSUED:     0  USEFUL:     0  USELESS: 3663305
 USEFUL LOAD PREFETCHES:          0 PREFETCH ISSUED TO LOWER LEVEL:   10467449  ACCURACY: 0
 TIMELY PREFETCHES:          0 LATE PREFETCHES: 0 DROPPED PREFETCHES: 0
LLC3 AVERAGE MISS LATENCY: 516.201 cycles
LLC4 TOTAL     ACCESS: 487259  HIT:  8771  MISS: 478488  HIT %: 1.80007  MISS %: 98.1999  AVERAGE MISS PENALTY: 445.643
LLC4 LOAD      ACCESS:  6155  HIT:     0  MISS:  6155  HIT %:     0  MISS %:   100  AVERAGE MISS PENALTY: 584.206
LLC4 RFO       ACCESS: 12181  HIT:     0  MISS: 12181  HIT %:     0  MISS %:   100  AVERAGE MISS PENALTY: 509.603
LLC4 PREFETCH  ACCESS: 456734  HIT:     2  MISS: 456732  HIT %: 0.000437892  MISS %: 99.9996  AVERAGE MISS PENALTY: 445.407
LLC4 WRITEBACK ACCESS: 12189  HIT:  8769  MISS:  3420  HIT %: 71.9419  MISS %: 28.0581  AVERAGE MISS PENALTY: 0
LLC4 PREFETCH  REQUESTED:     0  ISSUED:     0  USEFUL:     0  USELESS: 3664162
 USEFUL LOAD PREFETCHES:          0 PREFETCH ISSUED TO LOWER LEVEL:   16288571  ACCURACY: 0
 TIMELY PREFETCHES:          0 LATE PREFETCHES: 0 DROPPED PREFETCHES: 0
LLC4 AVERAGE MISS LATENCY: 445.643 cycles
LLC5 TOTAL     ACCESS: 487260  HIT:  8520  MISS: 478740  HIT %: 1.74855  MISS %: 98.2514  AVERAGE MISS PENALTY: 444.751
LLC5 LOAD      ACCESS:  5548  HIT:     0  MISS:  5548  HIT %:     0  MISS %:   100  AVERAGE MISS PENALTY: 573.606
LLC5 RFO       ACCESS: 12181  HIT:     0  MISS: 12181  HIT %:     0  MISS %:   100  AVERAGE MISS PENALTY: 754.486
LLC5 PREFETCH  ACCESS: 457341  HIT:     3  MISS: 457338  HIT %: 0.000655966  MISS %: 99.9993  AVERAGE MISS PENALTY: 438.51
LLC5 WRITEBACK ACCESS: 12190  HIT:  8517  MISS:  3673  HIT %: 69.8687  MISS %: 30.1313  AVERAGE MISS PENALTY: 0
LLC5 PREFETCH  REQUESTED:     0  ISSUED:     0  USEFUL:     0  USELESS: 3668735
 USEFUL LOAD PREFETCHES:          0 PREFETCH ISSUED TO LOWER LEVEL:   11586605  ACCURACY: 0
 TIMELY PREFETCHES:          0 LATE PREFETCHES: 0 DROPPED PREFETCHES: 0
LLC5 AVERAGE MISS LATENCY: 444.751 cycles
LLC6 TOTAL     ACCESS: 487241  HIT:  8290  MISS: 478951  HIT %: 1.70142  MISS %: 98.2986  AVERAGE MISS PENALTY: 539.078
LLC6 LOAD      ACCESS:  5785  HIT:     0  MISS:  5785  HIT %:     0  MISS %:   100  AVERAGE MISS PENALTY: 457.338
LLC6 RFO       ACCESS: 12181  HIT:     0  MISS: 12181  HIT %:     0  MISS %:   100  AVERAGE MISS PENALTY: 490.136
LLC6 PREFETCH  ACCESS: 457096  HIT:    10  MISS: 457086  HIT %: 0.00218772  MISS %: 99.9978  AVERAGE MISS PENALTY: 546.016
LLC6 WRITEBACK ACCESS: 12179  HIT:  8280  MISS:  3899  HIT %: 67.9859  MISS %: 32.0141  AVERAGE MISS PENALTY: 0
LLC6 PREFETCH  REQUESTED:     0  ISSUED:     0  USEFUL:     0  USELESS: 3666804
 USEFUL LOAD PREFETCHES:          0 PREFETCH ISSUED TO LOWER LEVEL:   18354763  ACCURACY: 0
 TIMELY PREFETCHES:          0 LATE PREFETCHES: 0 DROPPED PREFETCHES: 0
LLC6 AVERAGE MISS LATENCY: 539.078 cycles
LLC7 TOTAL     ACCESS: 487243  HIT:  7290  MISS: 479953  HIT %: 1.49617  MISS %: 98.5038  AVERAGE MISS PENALTY: 512.36
LLC7 LOAD      ACCESS:  5745  HIT:     0  MISS:  5745  HIT %:     0  MISS %:   100  AVERAGE MISS PENALTY: 446.95
LLC7 RFO       ACCESS: 12181  HIT:     0  MISS: 12181  HIT %:     0  MISS %:   100  AVERAGE MISS PENALTY: 475.841
LLC7 PREFETCH  ACCESS: 457138  HIT:    21  MISS: 457117  HIT %: 0.0045938  MISS %: 99.9954  AVERAGE MISS PENALTY: 519.658
LLC7 WRITEBACK ACCESS: 12179  HIT:  7269  MISS:  4910  HIT %: 59.6847  MISS %: 40.3153  AVERAGE MISS PENALTY: 0
LLC7 PREFETCH  REQUESTED:     0  ISSUED:     0  USEFUL:     0  USELESS: 3666959
 USEFUL LOAD PREFETCHES:          0 PREFETCH ISSUED TO LOWER LEVEL:   13910328  ACCURACY: 0
 TIMELY PREFETCHES:          0 LATE PREFETCHES: 0 DROPPED PREFETCHES: 0
LLC7 AVERAGE MISS LATENCY: 512.36 cycles
ROI Average ROB Stall Cycles:	5.97376
ROI Total ROB Stalls Cycles:	169007596
ROI TOTAL ROB counter      :	28291641
ROI Average Load ROB Stall Cycles:	21.2967
ROI Total Load ROB Stalls Cycle  :	88057750
ROI Total Load ROB stalls Counter:	4134799
Major fault: 0 Minor fault: 112968








Interconnect Stats 
LINK 0 BW : 0LINK 1 BW : 0LINK 2 BW : 0LINK 3 BW : 0LINK 4 BW : 0LINK 5 BW : 0LINK 6 BW : 0LINK 7 BW : 0
DRAM Statistics
 CHANNEL 0
 RQ ROW_BUFFER_HIT: 12568842  ROW_BUFFER_MISS: 2674331
 DBUS_CONGESTED: 8209285
 WQ ROW_BUFFER_HIT: 34263  ROW_BUFFER_MISS: 356423  FULL:     0

 CHANNEL 1
 RQ ROW_BUFFER_HIT: 12555320  ROW_BUFFER_MISS: 2688020
 DBUS_CONGESTED: 8209285
 WQ ROW_BUFFER_HIT: 34483  ROW_BUFFER_MISS: 356258  FULL:     0

 AVG_CONGESTED_CYCLE: 5
DRAM PAGES: 2097152
Allocated PAGES: 904971
L2C destructor called
L1D destructor called
L1I destructor called
STLB destructor called
DTLB destructor called
ITLB destructor called
L2C destructor called
L1D destructor called
L1I destructor called
STLB destructor called
DTLB destructor called
ITLB destructor called
L2C destructor called
L1D destructor called
L1I destructor called
STLB destructor called
DTLB destructor called
ITLB destructor called
L2C destructor called
L1D destructor called
L1I destructor called
STLB destructor called
DTLB destructor called
ITLB destructor called
L2C destructor called
L1D destructor called
L1I destructor called
STLB destructor called
DTLB destructor called
ITLB destructor called
L2C destructor called
L1D destructor called
L1I destructor called
STLB destructor called
DTLB destructor called
ITLB destructor called
L2C destructor called
L1D destructor called
L1I destructor called
STLB destructor called
DTLB destructor called
ITLB destructor called
L2C destructor called
L1D destructor called
L1I destructor called
STLB destructor called
DTLB destructor called
ITLB destructor called
