
*** ChampSim Multicore Out-of-Order Simulator ***

Warmup Instructions: 200000000
Simulation Instructions: 200000000
Number of CPUs: 8
threads:1

L1I Configuration:
L1I_SET:64
L1I_WAY:8
L1I_RQ_SIZE:64
L1I_WQ_SIZE:64
L1I_PQ_SIZE:8
L1I_MSHR_SIZE:8

L1D Configuration:
L1D_SET:64
L1D_WAY:12
L1D_RQ_SIZE:64
L1D_WQ_SIZE:64
L1D_PQ_SIZE:8
L1D_MSHR_SIZE:16

L2C Configuration:
L2C_SET:1024
L2C_WAY:8
L2C_RQ_SIZE:32
L2C_WQ_SIZE:32
L2C_PQ_SIZE:16
L2C_MSHR_SIZE:32

LLC Configuration:
LLC_SET:2048
LLC_WAY:16
LLC SLICES:8
LLC_RQ_SIZE:64
LLC_WQ_SIZE:64
LLC_PQ_SIZE:32
LLC_MSHR_SIZE:64

Interconnect OFF
Attacker deprioritize is: OFF
Off-chip DRAM Size: 8192 MB Channels: 2 Width: 64-bit Data Rate: 3200 MT/s
PAGE SIZE in KB: 4.000000 
PAGE SIZE in MB: 0.003906 
PAGE offset in bits: 12 
CEASER-S_LLC:0
MIRAGE : 0
CEASER_LATENCY:3
REMAP : OFF
Partitions : 1
Multi-Step : OFF
BFS : OFF

CPU 0 runs /home/anubhav/spec_2017/605.mcf_s-665B.champsimtrace.xz
CPU 1 runs /home/anubhav/spec_2017/605.mcf_s-665B.champsimtrace.xz
CPU 2 runs /home/anubhav/spec_2017/605.mcf_s-665B.champsimtrace.xz
CPU 3 runs /home/anubhav/spec_2017/605.mcf_s-665B.champsimtrace.xz
CPU 4 runs /home/anubhav/spec_2017/605.mcf_s-665B.champsimtrace.xz
CPU 5 runs /home/anubhav/spec_2017/605.mcf_s-665B.champsimtrace.xz
CPU 6 runs /home/anubhav/spec_2017/605.mcf_s-665B.champsimtrace.xz
CPU 7 runs /home/anubhav/spec_2017/605.mcf_s-665B.champsimtrace.xz
CPU 0 Bimodal branch predictor
Initialize Hawkeye state
Initialize Hawkeye state
Initialize Hawkeye state
Initialize Hawkeye state
Initialize Hawkeye state
Initialize Hawkeye state
Initialize Hawkeye state
Initialize Hawkeye state
CPU 1 Bimodal branch predictor
Initialize Hawkeye state
Initialize Hawkeye state
Initialize Hawkeye state
Initialize Hawkeye state
Initialize Hawkeye state
Initialize Hawkeye state
Initialize Hawkeye state
Initialize Hawkeye state
CPU 2 Bimodal branch predictor
Initialize Hawkeye state
Initialize Hawkeye state
Initialize Hawkeye state
Initialize Hawkeye state
Initialize Hawkeye state
Initialize Hawkeye state
Initialize Hawkeye state
Initialize Hawkeye state
CPU 3 Bimodal branch predictor
Initialize Hawkeye state
Initialize Hawkeye state
Initialize Hawkeye state
Initialize Hawkeye state
Initialize Hawkeye state
Initialize Hawkeye state
Initialize Hawkeye state
Initialize Hawkeye state
CPU 4 Bimodal branch predictor
Initialize Hawkeye state
Initialize Hawkeye state
Initialize Hawkeye state
Initialize Hawkeye state
Initialize Hawkeye state
Initialize Hawkeye state
Initialize Hawkeye state
Initialize Hawkeye state
CPU 5 Bimodal branch predictor
Initialize Hawkeye state
Initialize Hawkeye state
Initialize Hawkeye state
Initialize Hawkeye state
Initialize Hawkeye state
Initialize Hawkeye state
Initialize Hawkeye state
Initialize Hawkeye state
CPU 6 Bimodal branch predictor
Initialize Hawkeye state
Initialize Hawkeye state
Initialize Hawkeye state
Initialize Hawkeye state
Initialize Hawkeye state
Initialize Hawkeye state
Initialize Hawkeye state
Initialize Hawkeye state
CPU 7 Bimodal branch predictor
Initialize Hawkeye state
Initialize Hawkeye state
Initialize Hawkeye state
Initialize Hawkeye state
Initialize Hawkeye state
Initialize Hawkeye state
Initialize Hawkeye state
Initialize Hawkeye state
Heartbeat CPU 6 instructions: 10000001 cycles: 11693170 heartbeat IPC: 0.8552 cumulative IPC: 0.8552 (Simulation time: 4 hr 45 min 35 sec) 
 Total Blocks : 262144 Invalid Blocks : 887
Heartbeat CPU 5 instructions: 10000001 cycles: 11693311 heartbeat IPC: 0.85519 cumulative IPC: 0.85519 (Simulation time: 4 hr 45 min 40 sec) 
 Total Blocks : 262144 Invalid Blocks : 887
Heartbeat CPU 0 instructions: 10000001 cycles: 11695726 heartbeat IPC: 0.855013 cumulative IPC: 0.855013 (Simulation time: 4 hr 45 min 43 sec) 
 Total Blocks : 262144 Invalid Blocks : 887
Heartbeat CPU 1 instructions: 10000001 cycles: 11695855 heartbeat IPC: 0.855004 cumulative IPC: 0.855004 (Simulation time: 4 hr 45 min 43 sec) 
 Total Blocks : 262144 Invalid Blocks : 887
Heartbeat CPU 4 instructions: 10000001 cycles: 11696522 heartbeat IPC: 0.854955 cumulative IPC: 0.854955 (Simulation time: 4 hr 45 min 43 sec) 
 Total Blocks : 262144 Invalid Blocks : 887
Heartbeat CPU 2 instructions: 10000001 cycles: 11697767 heartbeat IPC: 0.854864 cumulative IPC: 0.854864 (Simulation time: 4 hr 45 min 44 sec) 
 Total Blocks : 262144 Invalid Blocks : 887
Heartbeat CPU 3 instructions: 10000001 cycles: 11697803 heartbeat IPC: 0.854861 cumulative IPC: 0.854861 (Simulation time: 4 hr 45 min 44 sec) 
 Total Blocks : 262144 Invalid Blocks : 887
Heartbeat CPU 7 instructions: 10000001 cycles: 11698321 heartbeat IPC: 0.854824 cumulative IPC: 0.854824 (Simulation time: 4 hr 45 min 44 sec) 
 Total Blocks : 262144 Invalid Blocks : 887
Heartbeat CPU 5 instructions: 20000001 cycles: 23352430 heartbeat IPC: 0.857698 cumulative IPC: 0.856442 (Simulation time: 8 hr 51 min 28 sec) 
 Total Blocks : 262144 Invalid Blocks : 9
Heartbeat CPU 6 instructions: 20000001 cycles: 23352728 heartbeat IPC: 0.857665 cumulative IPC: 0.856431 (Simulation time: 8 hr 51 min 32 sec) 
 Total Blocks : 262144 Invalid Blocks : 9
Heartbeat CPU 0 instructions: 20000001 cycles: 23357596 heartbeat IPC: 0.857495 cumulative IPC: 0.856253 (Simulation time: 8 hr 51 min 39 sec) 
 Total Blocks : 262144 Invalid Blocks : 9
Heartbeat CPU 1 instructions: 20000001 cycles: 23357702 heartbeat IPC: 0.857497 cumulative IPC: 0.856249 (Simulation time: 8 hr 51 min 41 sec) 
 Total Blocks : 262144 Invalid Blocks : 9
Heartbeat CPU 4 instructions: 20000001 cycles: 23358853 heartbeat IPC: 0.857462 cumulative IPC: 0.856206 (Simulation time: 8 hr 51 min 42 sec) 
 Total Blocks : 262144 Invalid Blocks : 9
Heartbeat CPU 3 instructions: 20000001 cycles: 23360132 heartbeat IPC: 0.857462 cumulative IPC: 0.85616 (Simulation time: 8 hr 51 min 43 sec) 
 Total Blocks : 262144 Invalid Blocks : 9
Heartbeat CPU 2 instructions: 20000001 cycles: 23361649 heartbeat IPC: 0.857347 cumulative IPC: 0.856104 (Simulation time: 8 hr 51 min 45 sec) 
 Total Blocks : 262144 Invalid Blocks : 9
Heartbeat CPU 7 instructions: 20000001 cycles: 23362003 heartbeat IPC: 0.857362 cumulative IPC: 0.856091 (Simulation time: 8 hr 51 min 45 sec) 
 Total Blocks : 262144 Invalid Blocks : 9
Heartbeat CPU 5 instructions: 30000001 cycles: 34997134 heartbeat IPC: 0.858759 cumulative IPC: 0.857213 (Simulation time: 12 hr 21 min 53 sec) 
 Total Blocks : 262144 Invalid Blocks : 0
Heartbeat CPU 6 instructions: 30000001 cycles: 34997420 heartbeat IPC: 0.85876 cumulative IPC: 0.857206 (Simulation time: 12 hr 21 min 59 sec) 
 Total Blocks : 262144 Invalid Blocks : 0
Heartbeat CPU 0 instructions: 30000001 cycles: 35004047 heartbeat IPC: 0.858631 cumulative IPC: 0.857044 (Simulation time: 12 hr 22 min 4 sec) 
 Total Blocks : 262144 Invalid Blocks : 0
Heartbeat CPU 1 instructions: 30000001 cycles: 35004102 heartbeat IPC: 0.858634 cumulative IPC: 0.857042 (Simulation time: 12 hr 22 min 6 sec) 
 Total Blocks : 262144 Invalid Blocks : 0
Heartbeat CPU 4 instructions: 30000001 cycles: 35005335 heartbeat IPC: 0.858628 cumulative IPC: 0.857012 (Simulation time: 12 hr 22 min 7 sec) 
 Total Blocks : 262144 Invalid Blocks : 0
Heartbeat CPU 3 instructions: 30000001 cycles: 35007512 heartbeat IPC: 0.858562 cumulative IPC: 0.856959 (Simulation time: 12 hr 22 min 7 sec) 
 Total Blocks : 262144 Invalid Blocks : 0
Heartbeat CPU 2 instructions: 30000001 cycles: 35008772 heartbeat IPC: 0.858581 cumulative IPC: 0.856928 (Simulation time: 12 hr 22 min 7 sec) 
 Total Blocks : 262144 Invalid Blocks : 0
Heartbeat CPU 7 instructions: 30000001 cycles: 35009984 heartbeat IPC: 0.858518 cumulative IPC: 0.856898 (Simulation time: 12 hr 22 min 8 sec) 
 Total Blocks : 262144 Invalid Blocks : 0
Heartbeat CPU 5 instructions: 40000000 cycles: 46707332 heartbeat IPC: 0.853956 cumulative IPC: 0.856397 (Simulation time: 15 hr 15 min 45 sec) 
 Total Blocks : 262144 Invalid Blocks : 0
Heartbeat CPU 6 instructions: 40000000 cycles: 46708400 heartbeat IPC: 0.853899 cumulative IPC: 0.856377 (Simulation time: 15 hr 15 min 51 sec) 
 Total Blocks : 262144 Invalid Blocks : 0
Heartbeat CPU 0 instructions: 40000000 cycles: 46717054 heartbeat IPC: 0.853752 cumulative IPC: 0.856218 (Simulation time: 15 hr 15 min 54 sec) 
 Total Blocks : 262144 Invalid Blocks : 0
Heartbeat CPU 1 instructions: 40000000 cycles: 46717110 heartbeat IPC: 0.853752 cumulative IPC: 0.856217 (Simulation time: 15 hr 15 min 54 sec) 
 Total Blocks : 262144 Invalid Blocks : 0
Heartbeat CPU 4 instructions: 40000000 cycles: 46719123 heartbeat IPC: 0.853695 cumulative IPC: 0.85618 (Simulation time: 15 hr 15 min 55 sec) 
 Total Blocks : 262144 Invalid Blocks : 0
Heartbeat CPU 3 instructions: 40000000 cycles: 46721670 heartbeat IPC: 0.853668 cumulative IPC: 0.856134 (Simulation time: 15 hr 15 min 56 sec) 
 Total Blocks : 262144 Invalid Blocks : 0
Heartbeat CPU 2 instructions: 40000000 cycles: 46722776 heartbeat IPC: 0.853679 cumulative IPC: 0.856113 (Simulation time: 15 hr 15 min 56 sec) 
 Total Blocks : 262144 Invalid Blocks : 0
Heartbeat CPU 7 instructions: 40000000 cycles: 46724887 heartbeat IPC: 0.853613 cumulative IPC: 0.856075 (Simulation time: 15 hr 15 min 57 sec) 
 Total Blocks : 262144 Invalid Blocks : 0
Heartbeat CPU 5 instructions: 50000003 cycles: 58461426 heartbeat IPC: 0.850768 cumulative IPC: 0.855265 (Simulation time: 17 hr 47 min 37 sec) 
 Total Blocks : 262144 Invalid Blocks : 0
Heartbeat CPU 6 instructions: 50000003 cycles: 58462590 heartbeat IPC: 0.850761 cumulative IPC: 0.855248 (Simulation time: 17 hr 47 min 41 sec) 
 Total Blocks : 262144 Invalid Blocks : 0
Heartbeat CPU 0 instructions: 50000003 cycles: 58473548 heartbeat IPC: 0.850594 cumulative IPC: 0.855088 (Simulation time: 17 hr 47 min 45 sec) 
 Total Blocks : 262144 Invalid Blocks : 0
Heartbeat CPU 1 instructions: 50000003 cycles: 58474004 heartbeat IPC: 0.850565 cumulative IPC: 0.855081 (Simulation time: 17 hr 47 min 45 sec) 
 Total Blocks : 262144 Invalid Blocks : 0
Heartbeat CPU 4 instructions: 50000003 cycles: 58476876 heartbeat IPC: 0.850503 cumulative IPC: 0.855039 (Simulation time: 17 hr 47 min 45 sec) 
 Total Blocks : 262144 Invalid Blocks : 0
Heartbeat CPU 3 instructions: 50000003 cycles: 58480158 heartbeat IPC: 0.85045 cumulative IPC: 0.854991 (Simulation time: 17 hr 47 min 46 sec) 
 Total Blocks : 262144 Invalid Blocks : 0
Heartbeat CPU 2 instructions: 50000003 cycles: 58481225 heartbeat IPC: 0.850453 cumulative IPC: 0.854975 (Simulation time: 17 hr 47 min 46 sec) 
 Total Blocks : 262144 Invalid Blocks : 0
Heartbeat CPU 7 instructions: 50000003 cycles: 58483476 heartbeat IPC: 0.850442 cumulative IPC: 0.854942 (Simulation time: 17 hr 47 min 47 sec) 
 Total Blocks : 262144 Invalid Blocks : 0
Heartbeat CPU 5 instructions: 60000002 cycles: 70182017 heartbeat IPC: 0.853199 cumulative IPC: 0.85492 (Simulation time: 20 hr 10 min 28 sec) 
 Total Blocks : 262144 Invalid Blocks : 0
Heartbeat CPU 6 instructions: 60000002 cycles: 70183622 heartbeat IPC: 0.853167 cumulative IPC: 0.8549 (Simulation time: 20 hr 10 min 32 sec) 
 Total Blocks : 262144 Invalid Blocks : 0
Heartbeat CPU 0 instructions: 60000002 cycles: 70196779 heartbeat IPC: 0.853007 cumulative IPC: 0.85474 (Simulation time: 20 hr 10 min 35 sec) 
 Total Blocks : 262144 Invalid Blocks : 0
Heartbeat CPU 1 instructions: 60000002 cycles: 70197316 heartbeat IPC: 0.853001 cumulative IPC: 0.854734 (Simulation time: 20 hr 10 min 35 sec) 
 Total Blocks : 262144 Invalid Blocks : 0
Heartbeat CPU 4 instructions: 60000002 cycles: 70201111 heartbeat IPC: 0.852934 cumulative IPC: 0.854687 (Simulation time: 20 hr 10 min 35 sec) 
 Total Blocks : 262144 Invalid Blocks : 0
Heartbeat CPU 3 instructions: 60000002 cycles: 70204721 heartbeat IPC: 0.85291 cumulative IPC: 0.854643 (Simulation time: 20 hr 10 min 36 sec) 
 Total Blocks : 262144 Invalid Blocks : 0
Heartbeat CPU 2 instructions: 60000002 cycles: 70205993 heartbeat IPC: 0.852895 cumulative IPC: 0.854628 (Simulation time: 20 hr 10 min 36 sec) 
 Total Blocks : 262144 Invalid Blocks : 0
Heartbeat CPU 7 instructions: 60000002 cycles: 70208541 heartbeat IPC: 0.852874 cumulative IPC: 0.854597 (Simulation time: 20 hr 10 min 36 sec) 
 Total Blocks : 262144 Invalid Blocks : 0
Heartbeat CPU 5 instructions: 70000002 cycles: 82008003 heartbeat IPC: 0.845595 cumulative IPC: 0.853575 (Simulation time: 22 hr 28 min 20 sec) 
 Total Blocks : 262144 Invalid Blocks : 0
Heartbeat CPU 6 instructions: 70000002 cycles: 82009715 heartbeat IPC: 0.845588 cumulative IPC: 0.853557 (Simulation time: 22 hr 28 min 23 sec) 
 Total Blocks : 262144 Invalid Blocks : 0
Heartbeat CPU 0 instructions: 70000002 cycles: 82024930 heartbeat IPC: 0.845441 cumulative IPC: 0.853399 (Simulation time: 22 hr 28 min 37 sec) 
 Total Blocks : 262144 Invalid Blocks : 0
Heartbeat CPU 1 instructions: 70000002 cycles: 82025339 heartbeat IPC: 0.84545 cumulative IPC: 0.853395 (Simulation time: 22 hr 28 min 39 sec) 
 Total Blocks : 262144 Invalid Blocks : 0
Heartbeat CPU 4 instructions: 70000002 cycles: 82030767 heartbeat IPC: 0.845333 cumulative IPC: 0.853338 (Simulation time: 22 hr 28 min 46 sec) 
 Total Blocks : 262144 Invalid Blocks : 0
Heartbeat CPU 3 instructions: 70000002 cycles: 82034389 heartbeat IPC: 0.845332 cumulative IPC: 0.853301 (Simulation time: 22 hr 28 min 50 sec) 
 Total Blocks : 262144 Invalid Blocks : 0
Heartbeat CPU 2 instructions: 70000002 cycles: 82035671 heartbeat IPC: 0.845332 cumulative IPC: 0.853287 (Simulation time: 22 hr 28 min 52 sec) 
 Total Blocks : 262144 Invalid Blocks : 0
Heartbeat CPU 7 instructions: 70000002 cycles: 82039021 heartbeat IPC: 0.845274 cumulative IPC: 0.853253 (Simulation time: 22 hr 28 min 57 sec) 
 Total Blocks : 262144 Invalid Blocks : 0
Heartbeat CPU 5 instructions: 80000001 cycles: 93745579 heartbeat IPC: 0.851965 cumulative IPC: 0.853374 (Simulation time: 24 hr 39 min 40 sec) 
 Total Blocks : 262144 Invalid Blocks : 0
Heartbeat CPU 6 instructions: 80000001 cycles: 93747908 heartbeat IPC: 0.85192 cumulative IPC: 0.853352 (Simulation time: 24 hr 39 min 42 sec) 
 Total Blocks : 262144 Invalid Blocks : 0
Heartbeat CPU 0 instructions: 80000001 cycles: 93765264 heartbeat IPC: 0.851764 cumulative IPC: 0.853194 (Simulation time: 24 hr 39 min 46 sec) 
 Total Blocks : 262144 Invalid Blocks : 0
Heartbeat CPU 1 instructions: 80000001 cycles: 93765621 heartbeat IPC: 0.851768 cumulative IPC: 0.853191 (Simulation time: 24 hr 39 min 47 sec) 
 Total Blocks : 262144 Invalid Blocks : 0
Heartbeat CPU 4 instructions: 80000001 cycles: 93771878 heartbeat IPC: 0.851708 cumulative IPC: 0.853134 (Simulation time: 24 hr 39 min 49 sec) 
 Total Blocks : 262144 Invalid Blocks : 0
Heartbeat CPU 3 instructions: 80000001 cycles: 93776045 heartbeat IPC: 0.851669 cumulative IPC: 0.853096 (Simulation time: 24 hr 39 min 49 sec) 
 Total Blocks : 262144 Invalid Blocks : 0
Heartbeat CPU 2 instructions: 80000001 cycles: 93777344 heartbeat IPC: 0.851667 cumulative IPC: 0.853085 (Simulation time: 24 hr 39 min 50 sec) 
 Total Blocks : 262144 Invalid Blocks : 0
Heartbeat CPU 7 instructions: 80000001 cycles: 93780484 heartbeat IPC: 0.851683 cumulative IPC: 0.853056 (Simulation time: 24 hr 39 min 51 sec) 
 Total Blocks : 262144 Invalid Blocks : 0
Heartbeat CPU 5 instructions: 90000001 cycles: 105537564 heartbeat IPC: 0.848034 cumulative IPC: 0.852777 (Simulation time: 26 hr 46 min 30 sec) 
 Total Blocks : 262144 Invalid Blocks : 0
Heartbeat CPU 6 instructions: 90000001 cycles: 105540243 heartbeat IPC: 0.848008 cumulative IPC: 0.852755 (Simulation time: 26 hr 46 min 31 sec) 
 Total Blocks : 262144 Invalid Blocks : 0
Heartbeat CPU 1 instructions: 90000001 cycles: 105559838 heartbeat IPC: 0.847873 cumulative IPC: 0.852597 (Simulation time: 26 hr 46 min 36 sec) 
 Total Blocks : 262144 Invalid Blocks : 0
Heartbeat CPU 0 instructions: 90000001 cycles: 105560227 heartbeat IPC: 0.84782 cumulative IPC: 0.852594 (Simulation time: 26 hr 46 min 37 sec) 
 Total Blocks : 262144 Invalid Blocks : 0
Heartbeat CPU 4 instructions: 90000001 cycles: 105567571 heartbeat IPC: 0.847767 cumulative IPC: 0.852535 (Simulation time: 26 hr 46 min 39 sec) 
 Total Blocks : 262144 Invalid Blocks : 0
Heartbeat CPU 3 instructions: 90000001 cycles: 105571833 heartbeat IPC: 0.84776 cumulative IPC: 0.8525 (Simulation time: 26 hr 46 min 40 sec) 
 Total Blocks : 262144 Invalid Blocks : 0
Heartbeat CPU 2 instructions: 90000001 cycles: 105573031 heartbeat IPC: 0.847767 cumulative IPC: 0.85249 (Simulation time: 26 hr 46 min 40 sec) 
 Total Blocks : 262144 Invalid Blocks : 0
Heartbeat CPU 7 instructions: 90000001 cycles: 105576562 heartbeat IPC: 0.847739 cumulative IPC: 0.852462 (Simulation time: 26 hr 46 min 41 sec) 
 Total Blocks : 262144 Invalid Blocks : 0
Heartbeat CPU 5 instructions: 100000001 cycles: 117514895 heartbeat IPC: 0.834911 cumulative IPC: 0.850956 (Simulation time: 28 hr 38 min 36 sec) 
 Total Blocks : 262144 Invalid Blocks : 0
Heartbeat CPU 6 instructions: 100000001 cycles: 117516992 heartbeat IPC: 0.834951 cumulative IPC: 0.850941 (Simulation time: 28 hr 38 min 39 sec) 
 Total Blocks : 262144 Invalid Blocks : 0
Heartbeat CPU 1 instructions: 100000001 cycles: 117540255 heartbeat IPC: 0.834695 cumulative IPC: 0.850772 (Simulation time: 28 hr 38 min 43 sec) 
 Total Blocks : 262144 Invalid Blocks : 0
Heartbeat CPU 0 instructions: 100000001 cycles: 117541467 heartbeat IPC: 0.834638 cumulative IPC: 0.850764 (Simulation time: 28 hr 38 min 43 sec) 
 Total Blocks : 262144 Invalid Blocks : 0
Heartbeat CPU 4 instructions: 100000001 cycles: 117549709 heartbeat IPC: 0.834576 cumulative IPC: 0.850704 (Simulation time: 28 hr 38 min 45 sec) 
 Total Blocks : 262144 Invalid Blocks : 0
Heartbeat CPU 3 instructions: 100000001 cycles: 117554055 heartbeat IPC: 0.83457 cumulative IPC: 0.850672 (Simulation time: 28 hr 38 min 46 sec) 
 Total Blocks : 262144 Invalid Blocks : 0
Heartbeat CPU 2 instructions: 100000001 cycles: 117555497 heartbeat IPC: 0.834553 cumulative IPC: 0.850662 (Simulation time: 28 hr 38 min 46 sec) 
 Total Blocks : 262144 Invalid Blocks : 0
Heartbeat CPU 7 instructions: 100000001 cycles: 117559077 heartbeat IPC: 0.834549 cumulative IPC: 0.850636 (Simulation time: 28 hr 38 min 47 sec) 
 Total Blocks : 262144 Invalid Blocks : 0
Heartbeat CPU 5 instructions: 110000000 cycles: 129416974 heartbeat IPC: 0.840189 cumulative IPC: 0.849966 (Simulation time: 30 hr 30 min 6 sec) 
 Total Blocks : 262144 Invalid Blocks : 0
Heartbeat CPU 6 instructions: 110000000 cycles: 129419483 heartbeat IPC: 0.84016 cumulative IPC: 0.849949 (Simulation time: 30 hr 30 min 8 sec) 
 Total Blocks : 262144 Invalid Blocks : 0
Heartbeat CPU 1 instructions: 110000000 cycles: 129445266 heartbeat IPC: 0.839982 cumulative IPC: 0.84978 (Simulation time: 30 hr 30 min 34 sec) 
 Total Blocks : 262144 Invalid Blocks : 0
Heartbeat CPU 0 instructions: 110000000 cycles: 129446402 heartbeat IPC: 0.839988 cumulative IPC: 0.849773 (Simulation time: 30 hr 30 min 36 sec) 
 Total Blocks : 262144 Invalid Blocks : 0
Heartbeat CPU 4 instructions: 110000000 cycles: 129455849 heartbeat IPC: 0.839903 cumulative IPC: 0.849711 (Simulation time: 30 hr 30 min 38 sec) 
 Total Blocks : 262144 Invalid Blocks : 0
Heartbeat CPU 3 instructions: 110000000 cycles: 129459894 heartbeat IPC: 0.839924 cumulative IPC: 0.849684 (Simulation time: 30 hr 30 min 39 sec) 
 Total Blocks : 262144 Invalid Blocks : 0
Heartbeat CPU 2 instructions: 110000000 cycles: 129461641 heartbeat IPC: 0.839902 cumulative IPC: 0.849673 (Simulation time: 30 hr 30 min 39 sec) 
 Total Blocks : 262144 Invalid Blocks : 0
Heartbeat CPU 7 instructions: 110000000 cycles: 129465068 heartbeat IPC: 0.839913 cumulative IPC: 0.84965 (Simulation time: 30 hr 30 min 40 sec) 
 Total Blocks : 262144 Invalid Blocks : 0
Heartbeat CPU 5 instructions: 120000000 cycles: 141373099 heartbeat IPC: 0.836391 cumulative IPC: 0.848818 (Simulation time: 32 hr 20 min 54 sec) 
 Total Blocks : 262144 Invalid Blocks : 0
Heartbeat CPU 6 instructions: 120000000 cycles: 141376314 heartbeat IPC: 0.836342 cumulative IPC: 0.848798 (Simulation time: 32 hr 20 min 57 sec) 
 Total Blocks : 262144 Invalid Blocks : 0
Heartbeat CPU 1 instructions: 120000000 cycles: 141404816 heartbeat IPC: 0.836152 cumulative IPC: 0.848627 (Simulation time: 32 hr 21 min 0 sec) 
 Total Blocks : 262144 Invalid Blocks : 0
Heartbeat CPU 0 instructions: 120000000 cycles: 141406468 heartbeat IPC: 0.836116 cumulative IPC: 0.848617 (Simulation time: 32 hr 21 min 1 sec) 
 Total Blocks : 262144 Invalid Blocks : 0
Heartbeat CPU 4 instructions: 120000000 cycles: 141416986 heartbeat IPC: 0.836041 cumulative IPC: 0.848554 (Simulation time: 32 hr 21 min 2 sec) 
 Total Blocks : 262144 Invalid Blocks : 0
Heartbeat CPU 3 instructions: 120000000 cycles: 141421077 heartbeat IPC: 0.836038 cumulative IPC: 0.84853 (Simulation time: 32 hr 21 min 3 sec) 
 Total Blocks : 262144 Invalid Blocks : 0
Heartbeat CPU 2 instructions: 120000000 cycles: 141422774 heartbeat IPC: 0.836041 cumulative IPC: 0.84852 (Simulation time: 32 hr 21 min 3 sec) 
 Total Blocks : 262144 Invalid Blocks : 0
Heartbeat CPU 7 instructions: 120000000 cycles: 141426607 heartbeat IPC: 0.836013 cumulative IPC: 0.848497 (Simulation time: 32 hr 21 min 4 sec) 
 Total Blocks : 262144 Invalid Blocks : 0
Heartbeat CPU 5 instructions: 130000001 cycles: 153301238 heartbeat IPC: 0.838354 cumulative IPC: 0.848004 (Simulation time: 34 hr 8 min 30 sec) 
 Total Blocks : 262144 Invalid Blocks : 0
Heartbeat CPU 6 instructions: 130000001 cycles: 153304773 heartbeat IPC: 0.838331 cumulative IPC: 0.847984 (Simulation time: 34 hr 8 min 34 sec) 
 Total Blocks : 262144 Invalid Blocks : 0
Heartbeat CPU 1 instructions: 130000001 cycles: 153336198 heartbeat IPC: 0.838126 cumulative IPC: 0.84781 (Simulation time: 34 hr 9 min 26 sec) 
 Total Blocks : 262144 Invalid Blocks : 0
Heartbeat CPU 0 instructions: 130000001 cycles: 153337527 heartbeat IPC: 0.838149 cumulative IPC: 0.847803 (Simulation time: 34 hr 9 min 28 sec) 
 Total Blocks : 262144 Invalid Blocks : 0
Heartbeat CPU 4 instructions: 130000001 cycles: 153349212 heartbeat IPC: 0.838067 cumulative IPC: 0.847738 (Simulation time: 34 hr 9 min 55 sec) 
 Total Blocks : 262144 Invalid Blocks : 0
Heartbeat CPU 3 instructions: 130000001 cycles: 153354223 heartbeat IPC: 0.838002 cumulative IPC: 0.847711 (Simulation time: 34 hr 10 min 0 sec) 
 Total Blocks : 262144 Invalid Blocks : 0
Heartbeat CPU 2 instructions: 130000001 cycles: 153356173 heartbeat IPC: 0.837984 cumulative IPC: 0.8477 (Simulation time: 34 hr 10 min 2 sec) 
 Total Blocks : 262144 Invalid Blocks : 0
Heartbeat CPU 7 instructions: 130000001 cycles: 153359226 heartbeat IPC: 0.838039 cumulative IPC: 0.847683 (Simulation time: 34 hr 10 min 5 sec) 
 Total Blocks : 262144 Invalid Blocks : 0
Heartbeat CPU 5 instructions: 140000001 cycles: 165317797 heartbeat IPC: 0.832185 cumulative IPC: 0.846854 (Simulation time: 35 hr 56 min 24 sec) 
 Total Blocks : 262144 Invalid Blocks : 0
Heartbeat CPU 6 instructions: 140000001 cycles: 165321304 heartbeat IPC: 0.832187 cumulative IPC: 0.846836 (Simulation time: 35 hr 56 min 29 sec) 
 Total Blocks : 262144 Invalid Blocks : 0
Heartbeat CPU 1 instructions: 140000001 cycles: 165355448 heartbeat IPC: 0.831999 cumulative IPC: 0.846661 (Simulation time: 35 hr 57 min 43 sec) 
 Total Blocks : 262144 Invalid Blocks : 0
Heartbeat CPU 0 instructions: 140000001 cycles: 165356616 heartbeat IPC: 0.83201 cumulative IPC: 0.846655 (Simulation time: 35 hr 57 min 46 sec) 
 Total Blocks : 262144 Invalid Blocks : 0
Heartbeat CPU 4 instructions: 140000001 cycles: 165369724 heartbeat IPC: 0.831911 cumulative IPC: 0.846588 (Simulation time: 35 hr 58 min 5 sec) 
 Total Blocks : 262144 Invalid Blocks : 0
Heartbeat CPU 3 instructions: 140000001 cycles: 165375236 heartbeat IPC: 0.831877 cumulative IPC: 0.84656 (Simulation time: 35 hr 58 min 25 sec) 
 Total Blocks : 262144 Invalid Blocks : 0
Heartbeat CPU 2 instructions: 140000001 cycles: 165377792 heartbeat IPC: 0.831835 cumulative IPC: 0.846547 (Simulation time: 35 hr 58 min 27 sec) 
 Total Blocks : 262144 Invalid Blocks : 0
Heartbeat CPU 7 instructions: 140000001 cycles: 165379754 heartbeat IPC: 0.83191 cumulative IPC: 0.846537 (Simulation time: 35 hr 58 min 29 sec) 
 Total Blocks : 262144 Invalid Blocks : 0
Heartbeat CPU 5 instructions: 150000000 cycles: 177353679 heartbeat IPC: 0.830849 cumulative IPC: 0.845768 (Simulation time: 37 hr 44 min 24 sec) 
 Total Blocks : 262144 Invalid Blocks : 0
Heartbeat CPU 6 instructions: 150000000 cycles: 177357016 heartbeat IPC: 0.830861 cumulative IPC: 0.845752 (Simulation time: 37 hr 44 min 28 sec) 
 Total Blocks : 262144 Invalid Blocks : 0
Heartbeat CPU 1 instructions: 150000000 cycles: 177394436 heartbeat IPC: 0.830635 cumulative IPC: 0.845573 (Simulation time: 37 hr 44 min 36 sec) 
 Total Blocks : 262144 Invalid Blocks : 0
Heartbeat CPU 0 instructions: 150000000 cycles: 177395788 heartbeat IPC: 0.830622 cumulative IPC: 0.845567 (Simulation time: 37 hr 44 min 37 sec) 
 Total Blocks : 262144 Invalid Blocks : 0
Heartbeat CPU 4 instructions: 150000000 cycles: 177409229 heartbeat IPC: 0.830599 cumulative IPC: 0.845503 (Simulation time: 37 hr 44 min 46 sec) 
 Total Blocks : 262144 Invalid Blocks : 0
Heartbeat CPU 3 instructions: 150000000 cycles: 177415343 heartbeat IPC: 0.830557 cumulative IPC: 0.845474 (Simulation time: 37 hr 44 min 47 sec) 
 Total Blocks : 262144 Invalid Blocks : 0
Heartbeat CPU 2 instructions: 150000000 cycles: 177418411 heartbeat IPC: 0.830522 cumulative IPC: 0.845459 (Simulation time: 37 hr 44 min 49 sec) 
 Total Blocks : 262144 Invalid Blocks : 0
Heartbeat CPU 7 instructions: 150000000 cycles: 177420142 heartbeat IPC: 0.830538 cumulative IPC: 0.845451 (Simulation time: 37 hr 44 min 50 sec) 
 Total Blocks : 262144 Invalid Blocks : 0
Heartbeat CPU 5 instructions: 160000000 cycles: 189333182 heartbeat IPC: 0.834759 cumulative IPC: 0.845071 (Simulation time: 39 hr 26 min 43 sec) 
 Total Blocks : 262144 Invalid Blocks : 0
Heartbeat CPU 6 instructions: 160000000 cycles: 189336888 heartbeat IPC: 0.834733 cumulative IPC: 0.845055 (Simulation time: 39 hr 26 min 45 sec) 
 Total Blocks : 262144 Invalid Blocks : 0
Heartbeat CPU 1 instructions: 160000000 cycles: 189377300 heartbeat IPC: 0.834525 cumulative IPC: 0.844874 (Simulation time: 39 hr 27 min 8 sec) 
 Total Blocks : 262144 Invalid Blocks : 0
Heartbeat CPU 0 instructions: 160000000 cycles: 189378494 heartbeat IPC: 0.834536 cumulative IPC: 0.844869 (Simulation time: 39 hr 27 min 13 sec) 
 Total Blocks : 262144 Invalid Blocks : 0
Heartbeat CPU 4 instructions: 160000000 cycles: 189393254 heartbeat IPC: 0.834444 cumulative IPC: 0.844803 (Simulation time: 39 hr 27 min 24 sec) 
 Total Blocks : 262144 Invalid Blocks : 0
Heartbeat CPU 3 instructions: 160000000 cycles: 189399379 heartbeat IPC: 0.834443 cumulative IPC: 0.844776 (Simulation time: 39 hr 27 min 27 sec) 
 Total Blocks : 262144 Invalid Blocks : 0
Heartbeat CPU 2 instructions: 160000000 cycles: 189402588 heartbeat IPC: 0.834434 cumulative IPC: 0.844761 (Simulation time: 39 hr 27 min 28 sec) 
 Total Blocks : 262144 Invalid Blocks : 0
Heartbeat CPU 7 instructions: 160000000 cycles: 189404541 heartbeat IPC: 0.834418 cumulative IPC: 0.844753 (Simulation time: 39 hr 27 min 29 sec) 
 Total Blocks : 262144 Invalid Blocks : 0
Heartbeat CPU 5 instructions: 170000003 cycles: 201419067 heartbeat IPC: 0.827412 cumulative IPC: 0.844011 (Simulation time: 41 hr 14 min 39 sec) 
 Total Blocks : 262144 Invalid Blocks : 0
Heartbeat CPU 6 instructions: 170000003 cycles: 201423034 heartbeat IPC: 0.827394 cumulative IPC: 0.843995 (Simulation time: 41 hr 14 min 55 sec) 
 Total Blocks : 262144 Invalid Blocks : 0
Heartbeat CPU 1 instructions: 170000003 cycles: 201466435 heartbeat IPC: 0.827189 cumulative IPC: 0.843813 (Simulation time: 41 hr 15 min 4 sec) 
 Total Blocks : 262144 Invalid Blocks : 0
Heartbeat CPU 0 instructions: 170000003 cycles: 201467645 heartbeat IPC: 0.827188 cumulative IPC: 0.843808 (Simulation time: 41 hr 15 min 5 sec) 
 Total Blocks : 262144 Invalid Blocks : 0
Heartbeat CPU 4 instructions: 170000003 cycles: 201483741 heartbeat IPC: 0.827097 cumulative IPC: 0.843741 (Simulation time: 41 hr 15 min 8 sec) 
 Total Blocks : 262144 Invalid Blocks : 0
Heartbeat CPU 3 instructions: 170000003 cycles: 201489774 heartbeat IPC: 0.827103 cumulative IPC: 0.843715 (Simulation time: 41 hr 15 min 9 sec) 
 Total Blocks : 262144 Invalid Blocks : 0
Heartbeat CPU 2 instructions: 170000003 cycles: 201492953 heartbeat IPC: 0.827105 cumulative IPC: 0.843702 (Simulation time: 41 hr 15 min 10 sec) 
 Total Blocks : 262144 Invalid Blocks : 0
Heartbeat CPU 7 instructions: 170000003 cycles: 201494974 heartbeat IPC: 0.8271 cumulative IPC: 0.843693 (Simulation time: 41 hr 15 min 10 sec) 
 Total Blocks : 262144 Invalid Blocks : 0
Heartbeat CPU 5 instructions: 180000002 cycles: 213534403 heartbeat IPC: 0.8254 cumulative IPC: 0.842956 (Simulation time: 43 hr 0 min 5 sec) 
 Total Blocks : 262144 Invalid Blocks : 0
Heartbeat CPU 6 instructions: 180000002 cycles: 213538791 heartbeat IPC: 0.825371 cumulative IPC: 0.842938 (Simulation time: 43 hr 0 min 10 sec) 
 Total Blocks : 262144 Invalid Blocks : 0
Heartbeat CPU 1 instructions: 180000002 cycles: 213585308 heartbeat IPC: 0.825159 cumulative IPC: 0.842755 (Simulation time: 43 hr 0 min 54 sec) 
 Total Blocks : 262144 Invalid Blocks : 0
Heartbeat CPU 0 instructions: 180000002 cycles: 213586704 heartbeat IPC: 0.825146 cumulative IPC: 0.842749 (Simulation time: 43 hr 0 min 58 sec) 
 Total Blocks : 262144 Invalid Blocks : 0
Heartbeat CPU 4 instructions: 180000002 cycles: 213603772 heartbeat IPC: 0.82508 cumulative IPC: 0.842682 (Simulation time: 43 hr 1 min 19 sec) 
 Total Blocks : 262144 Invalid Blocks : 0
Heartbeat CPU 3 instructions: 180000002 cycles: 213610225 heartbeat IPC: 0.825052 cumulative IPC: 0.842656 (Simulation time: 43 hr 1 min 31 sec) 
 Total Blocks : 262144 Invalid Blocks : 0
Heartbeat CPU 2 instructions: 180000002 cycles: 213613415 heartbeat IPC: 0.825051 cumulative IPC: 0.842644 (Simulation time: 43 hr 1 min 37 sec) 
 Total Blocks : 262144 Invalid Blocks : 0
Heartbeat CPU 7 instructions: 180000002 cycles: 213615295 heartbeat IPC: 0.825061 cumulative IPC: 0.842636 (Simulation time: 43 hr 1 min 43 sec) 
 Total Blocks : 262144 Invalid Blocks : 0
Heartbeat CPU 5 instructions: 190000001 cycles: 225515126 heartbeat IPC: 0.834674 cumulative IPC: 0.842516 (Simulation time: 44 hr 47 min 25 sec) 
 Total Blocks : 262144 Invalid Blocks : 0
Heartbeat CPU 6 instructions: 190000001 cycles: 225520136 heartbeat IPC: 0.834631 cumulative IPC: 0.842497 (Simulation time: 44 hr 47 min 28 sec) 
 Total Blocks : 262144 Invalid Blocks : 0
Heartbeat CPU 1 instructions: 190000001 cycles: 225569582 heartbeat IPC: 0.834427 cumulative IPC: 0.842312 (Simulation time: 44 hr 48 min 0 sec) 
 Total Blocks : 262144 Invalid Blocks : 0
Heartbeat CPU 0 instructions: 190000001 cycles: 225571127 heartbeat IPC: 0.834416 cumulative IPC: 0.842306 (Simulation time: 44 hr 48 min 2 sec) 
 Total Blocks : 262144 Invalid Blocks : 0
Heartbeat CPU 4 instructions: 190000001 cycles: 225588284 heartbeat IPC: 0.83441 cumulative IPC: 0.842242 (Simulation time: 44 hr 48 min 12 sec) 
 Total Blocks : 262144 Invalid Blocks : 0
Heartbeat CPU 3 instructions: 190000001 cycles: 225594933 heartbeat IPC: 0.834397 cumulative IPC: 0.842218 (Simulation time: 44 hr 48 min 16 sec) 
 Total Blocks : 262144 Invalid Blocks : 0
Heartbeat CPU 2 instructions: 190000001 cycles: 225598804 heartbeat IPC: 0.834349 cumulative IPC: 0.842203 (Simulation time: 44 hr 48 min 18 sec) 
 Total Blocks : 262144 Invalid Blocks : 0
Heartbeat CPU 7 instructions: 190000001 cycles: 225600756 heartbeat IPC: 0.834344 cumulative IPC: 0.842196 (Simulation time: 44 hr 48 min 19 sec) 
 Total Blocks : 262144 Invalid Blocks : 0
Heartbeat CPU 5 instructions: 200000000 cycles: 237485474 heartbeat IPC: 0.835398 cumulative IPC: 0.842157 (Simulation time: 46 hr 29 min 48 sec) 
 Total Blocks : 262144 Invalid Blocks : 0
Heartbeat CPU 6 instructions: 200000000 cycles: 237490657 heartbeat IPC: 0.835385 cumulative IPC: 0.842138 (Simulation time: 46 hr 29 min 50 sec) 
 Total Blocks : 262144 Invalid Blocks : 0
Heartbeat CPU 1 instructions: 200000000 cycles: 237542900 heartbeat IPC: 0.83519 cumulative IPC: 0.841953 (Simulation time: 46 hr 29 min 59 sec) 
 Total Blocks : 262144 Invalid Blocks : 0
Heartbeat CPU 0 instructions: 200000000 cycles: 237544562 heartbeat IPC: 0.835182 cumulative IPC: 0.841947 (Simulation time: 46 hr 30 min 1 sec) 
 Total Blocks : 262144 Invalid Blocks : 0
Heartbeat CPU 4 instructions: 200000000 cycles: 237562610 heartbeat IPC: 0.83512 cumulative IPC: 0.841883 (Simulation time: 46 hr 30 min 3 sec) 
 Total Blocks : 262144 Invalid Blocks : 0
Heartbeat CPU 3 instructions: 200000000 cycles: 237569724 heartbeat IPC: 0.835088 cumulative IPC: 0.841858 (Simulation time: 46 hr 30 min 5 sec) 
 Total Blocks : 262144 Invalid Blocks : 0
Heartbeat CPU 2 instructions: 200000000 cycles: 237574152 heartbeat IPC: 0.835049 cumulative IPC: 0.841842 (Simulation time: 46 hr 30 min 5 sec) 
 Total Blocks : 262144 Invalid Blocks : 0
Heartbeat CPU 7 instructions: 200000000 cycles: 237575861 heartbeat IPC: 0.835066 cumulative IPC: 0.841836 (Simulation time: 46 hr 30 min 6 sec) 
 Total Blocks : 262144 Invalid Blocks : 0

Warmup complete CPU 0 instructions: 200026087 cycles: 237575862 (Simulation time: 46 hr 30 min 6 sec) 
Warmup complete CPU 1 instructions: 200027276 cycles: 237575862 (Simulation time: 46 hr 30 min 6 sec) 
Warmup complete CPU 2 instructions: 200001467 cycles: 237575862 (Simulation time: 46 hr 30 min 6 sec) 
Warmup complete CPU 3 instructions: 200005143 cycles: 237575862 (Simulation time: 46 hr 30 min 6 sec) 
Warmup complete CPU 4 instructions: 200011719 cycles: 237575862 (Simulation time: 46 hr 30 min 6 sec) 
Warmup complete CPU 5 instructions: 200072336 cycles: 237575862 (Simulation time: 46 hr 30 min 6 sec) 
Warmup complete CPU 6 instructions: 200067982 cycles: 237575862 (Simulation time: 46 hr 30 min 6 sec) 
Warmup complete CPU 7 instructions: 200000003 cycles: 237575862 (Simulation time: 46 hr 30 min 6 sec) 

Heartbeat CPU 5 instructions: 210000002 cycles: 279181389 heartbeat IPC: 0.239832 cumulative IPC: 0.238614 (Simulation time: 48 hr 45 min 21 sec) 
 Total Blocks : 262144 Invalid Blocks : 0
Heartbeat CPU 6 instructions: 210000002 cycles: 279402345 heartbeat IPC: 0.238597 cumulative IPC: 0.237458 (Simulation time: 48 hr 46 min 19 sec) 
 Total Blocks : 262144 Invalid Blocks : 0
Heartbeat CPU 0 instructions: 210000002 cycles: 280224309 heartbeat IPC: 0.234303 cumulative IPC: 0.233864 (Simulation time: 48 hr 49 min 24 sec) 
 Total Blocks : 262144 Invalid Blocks : 0
Heartbeat CPU 1 instructions: 210000002 cycles: 280241208 heartbeat IPC: 0.234201 cumulative IPC: 0.233743 (Simulation time: 48 hr 49 min 27 sec) 
 Total Blocks : 262144 Invalid Blocks : 0
Heartbeat CPU 3 instructions: 210000002 cycles: 280270283 heartbeat IPC: 0.234189 cumulative IPC: 0.234102 (Simulation time: 48 hr 49 min 30 sec) 
 Total Blocks : 262144 Invalid Blocks : 0
Heartbeat CPU 4 instructions: 210000002 cycles: 280284288 heartbeat IPC: 0.234073 cumulative IPC: 0.233871 (Simulation time: 48 hr 49 min 32 sec) 
 Total Blocks : 262144 Invalid Blocks : 0
Heartbeat CPU 7 instructions: 210000002 cycles: 280303472 heartbeat IPC: 0.234041 cumulative IPC: 0.234041 (Simulation time: 48 hr 49 min 34 sec) 
 Total Blocks : 262144 Invalid Blocks : 0
Heartbeat CPU 2 instructions: 210000002 cycles: 280308157 heartbeat IPC: 0.234006 cumulative IPC: 0.233981 (Simulation time: 48 hr 49 min 35 sec) 
 Total Blocks : 262144 Invalid Blocks : 0
Heartbeat CPU 5 instructions: 220000000 cycles: 318916378 heartbeat IPC: 0.251667 cumulative IPC: 0.244991 (Simulation time: 50 hr 54 min 35 sec) 
 Total Blocks : 262144 Invalid Blocks : 0
Heartbeat CPU 6 instructions: 220000000 cycles: 318976642 heartbeat IPC: 0.252689 cumulative IPC: 0.244863 (Simulation time: 50 hr 54 min 40 sec) 
 Total Blocks : 262144 Invalid Blocks : 0
Heartbeat CPU 1 instructions: 220000000 cycles: 321492736 heartbeat IPC: 0.242415 cumulative IPC: 0.238006 (Simulation time: 51 hr 2 min 51 sec) 
 Total Blocks : 262144 Invalid Blocks : 0
Heartbeat CPU 0 instructions: 220000000 cycles: 321503242 heartbeat IPC: 0.242254 cumulative IPC: 0.23799 (Simulation time: 51 hr 2 min 53 sec) 
 Total Blocks : 262144 Invalid Blocks : 0
Heartbeat CPU 3 instructions: 220000000 cycles: 321596527 heartbeat IPC: 0.241977 cumulative IPC: 0.237975 (Simulation time: 51 hr 3 min 2 sec) 
 Total Blocks : 262144 Invalid Blocks : 0
Heartbeat CPU 4 instructions: 220000000 cycles: 321603512 heartbeat IPC: 0.242018 cumulative IPC: 0.237877 (Simulation time: 51 hr 3 min 4 sec) 
 Total Blocks : 262144 Invalid Blocks : 0
Heartbeat CPU 7 instructions: 220000000 cycles: 321649729 heartbeat IPC: 0.24186 cumulative IPC: 0.237886 (Simulation time: 51 hr 3 min 8 sec) 
 Total Blocks : 262144 Invalid Blocks : 0
Heartbeat CPU 2 instructions: 220000000 cycles: 321650212 heartbeat IPC: 0.241884 cumulative IPC: 0.237867 (Simulation time: 51 hr 3 min 18 sec) 
 Total Blocks : 262144 Invalid Blocks : 0
Heartbeat CPU 6 instructions: 230000002 cycles: 362021691 heartbeat IPC: 0.232315 cumulative IPC: 0.240522 (Simulation time: 53 hr 6 min 32 sec) 
 Total Blocks : 262144 Invalid Blocks : 0
Heartbeat CPU 5 instructions: 230000002 cycles: 362033086 heartbeat IPC: 0.231929 cumulative IPC: 0.240465 (Simulation time: 53 hr 6 min 35 sec) 
 Total Blocks : 262144 Invalid Blocks : 0
Heartbeat CPU 1 instructions: 230000002 cycles: 365289946 heartbeat IPC: 0.228325 cumulative IPC: 0.234686 (Simulation time: 53 hr 16 min 46 sec) 
 Total Blocks : 262144 Invalid Blocks : 0
Heartbeat CPU 0 instructions: 230000002 cycles: 365291509 heartbeat IPC: 0.228372 cumulative IPC: 0.234693 (Simulation time: 53 hr 16 min 47 sec) 
 Total Blocks : 262144 Invalid Blocks : 0
Heartbeat CPU 3 instructions: 230000002 cycles: 365365676 heartbeat IPC: 0.228471 cumulative IPC: 0.23472 (Simulation time: 53 hr 17 min 5 sec) 
 Total Blocks : 262144 Invalid Blocks : 0
Heartbeat CPU 4 instructions: 230000002 cycles: 365373839 heartbeat IPC: 0.228465 cumulative IPC: 0.234654 (Simulation time: 53 hr 17 min 7 sec) 
 Total Blocks : 262144 Invalid Blocks : 0
Heartbeat CPU 7 instructions: 230000002 cycles: 365374134 heartbeat IPC: 0.228705 cumulative IPC: 0.234745 (Simulation time: 53 hr 17 min 7 sec) 
 Total Blocks : 262144 Invalid Blocks : 0
Heartbeat CPU 2 instructions: 230000002 cycles: 365413303 heartbeat IPC: 0.228503 cumulative IPC: 0.234662 (Simulation time: 53 hr 17 min 15 sec) 
 Total Blocks : 262144 Invalid Blocks : 0
Heartbeat CPU 6 instructions: 240000002 cycles: 402381108 heartbeat IPC: 0.247774 cumulative IPC: 0.242298 (Simulation time: 55 hr 9 min 55 sec) 
 Total Blocks : 262144 Invalid Blocks : 0
Heartbeat CPU 5 instructions: 240000002 cycles: 402395064 heartbeat IPC: 0.247758 cumulative IPC: 0.242251 (Simulation time: 55 hr 9 min 57 sec) 
 Total Blocks : 262144 Invalid Blocks : 0
Heartbeat CPU 0 instructions: 240000002 cycles: 406633970 heartbeat IPC: 0.241882 cumulative IPC: 0.236451 (Simulation time: 55 hr 22 min 16 sec) 
 Total Blocks : 262144 Invalid Blocks : 0
Heartbeat CPU 1 instructions: 240000002 cycles: 406645813 heartbeat IPC: 0.241804 cumulative IPC: 0.236427 (Simulation time: 55 hr 22 min 18 sec) 
 Total Blocks : 262144 Invalid Blocks : 0
Heartbeat CPU 7 instructions: 240000002 cycles: 406738471 heartbeat IPC: 0.241754 cumulative IPC: 0.236459 (Simulation time: 55 hr 22 min 36 sec) 
 Total Blocks : 262144 Invalid Blocks : 0
Heartbeat CPU 3 instructions: 240000002 cycles: 406743982 heartbeat IPC: 0.241673 cumulative IPC: 0.236421 (Simulation time: 55 hr 22 min 43 sec) 
 Total Blocks : 262144 Invalid Blocks : 0
Heartbeat CPU 4 instructions: 240000002 cycles: 406750720 heartbeat IPC: 0.241681 cumulative IPC: 0.236373 (Simulation time: 55 hr 22 min 44 sec) 
 Total Blocks : 262144 Invalid Blocks : 0
Heartbeat CPU 2 instructions: 240000002 cycles: 406759249 heartbeat IPC: 0.241862 cumulative IPC: 0.236421 (Simulation time: 55 hr 22 min 45 sec) 
 Total Blocks : 262144 Invalid Blocks : 0
Heartbeat CPU 5 instructions: 250000001 cycles: 442624210 heartbeat IPC: 0.248576 cumulative IPC: 0.243492 (Simulation time: 57 hr 7 min 27 sec) 
 Total Blocks : 262144 Invalid Blocks : 0
Heartbeat CPU 6 instructions: 250000001 cycles: 442673351 heartbeat IPC: 0.248187 cumulative IPC: 0.243455 (Simulation time: 57 hr 7 min 32 sec) 
 Total Blocks : 262144 Invalid Blocks : 0
Heartbeat CPU 0 instructions: 250000001 cycles: 448607204 heartbeat IPC: 0.238247 cumulative IPC: 0.236808 (Simulation time: 57 hr 24 min 8 sec) 
 Total Blocks : 262144 Invalid Blocks : 0
Heartbeat CPU 1 instructions: 250000001 cycles: 448608200 heartbeat IPC: 0.238309 cumulative IPC: 0.236801 (Simulation time: 57 hr 24 min 9 sec) 
 Total Blocks : 262144 Invalid Blocks : 0
Heartbeat CPU 7 instructions: 250000001 cycles: 448760168 heartbeat IPC: 0.237972 cumulative IPC: 0.23676 (Simulation time: 57 hr 24 min 20 sec) 
 Total Blocks : 262144 Invalid Blocks : 0
Heartbeat CPU 3 instructions: 250000001 cycles: 448770245 heartbeat IPC: 0.237946 cumulative IPC: 0.236724 (Simulation time: 57 hr 24 min 22 sec) 
 Total Blocks : 262144 Invalid Blocks : 0
Heartbeat CPU 2 instructions: 250000001 cycles: 448791376 heartbeat IPC: 0.237913 cumulative IPC: 0.236718 (Simulation time: 57 hr 24 min 23 sec) 
 Total Blocks : 262144 Invalid Blocks : 0
Heartbeat CPU 4 instructions: 250000001 cycles: 448795611 heartbeat IPC: 0.237841 cumulative IPC: 0.236665 (Simulation time: 57 hr 24 min 24 sec) 
 Total Blocks : 262144 Invalid Blocks : 0
Heartbeat CPU 5 instructions: 260000003 cycles: 484865547 heartbeat IPC: 0.236735 cumulative IPC: 0.242338 (Simulation time: 59 hr 5 min 9 sec) 
 Total Blocks : 262144 Invalid Blocks : 0
Heartbeat CPU 6 instructions: 260000003 cycles: 484937012 heartbeat IPC: 0.23661 cumulative IPC: 0.242286 (Simulation time: 59 hr 5 min 16 sec) 
 Total Blocks : 262144 Invalid Blocks : 0
Heartbeat CPU 1 instructions: 260000003 cycles: 491243706 heartbeat IPC: 0.234546 cumulative IPC: 0.236422 (Simulation time: 59 hr 22 min 23 sec) 
 Total Blocks : 262144 Invalid Blocks : 0
Heartbeat CPU 0 instructions: 260000003 cycles: 491299846 heartbeat IPC: 0.234232 cumulative IPC: 0.236375 (Simulation time: 59 hr 22 min 28 sec) 
 Total Blocks : 262144 Invalid Blocks : 0
Heartbeat CPU 3 instructions: 260000003 cycles: 491337848 heartbeat IPC: 0.23492 cumulative IPC: 0.236422 (Simulation time: 59 hr 22 min 31 sec) 
 Total Blocks : 262144 Invalid Blocks : 0
Heartbeat CPU 7 instructions: 260000003 cycles: 491342090 heartbeat IPC: 0.234841 cumulative IPC: 0.236438 (Simulation time: 59 hr 22 min 32 sec) 
 Total Blocks : 262144 Invalid Blocks : 0
Heartbeat CPU 4 instructions: 260000003 cycles: 491342309 heartbeat IPC: 0.235036 cumulative IPC: 0.236392 (Simulation time: 59 hr 22 min 32 sec) 
 Total Blocks : 262144 Invalid Blocks : 0
Heartbeat CPU 2 instructions: 260000003 cycles: 491348155 heartbeat IPC: 0.23498 cumulative IPC: 0.236427 (Simulation time: 59 hr 22 min 32 sec) 
 Total Blocks : 262144 Invalid Blocks : 0
Heartbeat CPU 5 instructions: 270000003 cycles: 525218494 heartbeat IPC: 0.247813 cumulative IPC: 0.243106 (Simulation time: 60 hr 54 min 41 sec) 
 Total Blocks : 262144 Invalid Blocks : 0
Heartbeat CPU 6 instructions: 270000003 cycles: 525566366 heartbeat IPC: 0.246127 cumulative IPC: 0.242828 (Simulation time: 60 hr 55 min 9 sec) 
 Total Blocks : 262144 Invalid Blocks : 0
Heartbeat CPU 1 instructions: 270000003 cycles: 532994241 heartbeat IPC: 0.239518 cumulative IPC: 0.23686 (Simulation time: 61 hr 15 min 47 sec) 
 Total Blocks : 262144 Invalid Blocks : 0
Heartbeat CPU 0 instructions: 270000003 cycles: 533159204 heartbeat IPC: 0.238895 cumulative IPC: 0.236732 (Simulation time: 61 hr 16 min 17 sec) 
 Total Blocks : 262144 Invalid Blocks : 0
Heartbeat CPU 4 instructions: 270000003 cycles: 533207431 heartbeat IPC: 0.238862 cumulative IPC: 0.236742 (Simulation time: 61 hr 16 min 23 sec) 
 Total Blocks : 262144 Invalid Blocks : 0
Heartbeat CPU 2 instructions: 270000003 cycles: 533212073 heartbeat IPC: 0.238869 cumulative IPC: 0.236773 (Simulation time: 61 hr 16 min 24 sec) 
 Total Blocks : 262144 Invalid Blocks : 0
Heartbeat CPU 3 instructions: 270000003 cycles: 533214612 heartbeat IPC: 0.238796 cumulative IPC: 0.236758 (Simulation time: 61 hr 16 min 24 sec) 
 Total Blocks : 262144 Invalid Blocks : 0
Heartbeat CPU 7 instructions: 270000003 cycles: 533242928 heartbeat IPC: 0.238659 cumulative IPC: 0.236753 (Simulation time: 61 hr 16 min 27 sec) 
 Total Blocks : 262144 Invalid Blocks : 0
Heartbeat CPU 5 instructions: 280000000 cycles: 566402462 heartbeat IPC: 0.242813 cumulative IPC: 0.243069 (Simulation time: 62 hr 42 min 18 sec) 
 Total Blocks : 262144 Invalid Blocks : 0
Heartbeat CPU 6 instructions: 280000000 cycles: 566459321 heartbeat IPC: 0.244541 cumulative IPC: 0.243041 (Simulation time: 62 hr 42 min 26 sec) 
 Total Blocks : 262144 Invalid Blocks : 0
Heartbeat CPU 1 instructions: 280000000 cycles: 574175813 heartbeat IPC: 0.242827 cumulative IPC: 0.23759 (Simulation time: 63 hr 0 min 8 sec) 
 Total Blocks : 262144 Invalid Blocks : 0
Heartbeat CPU 0 instructions: 280000000 cycles: 575397301 heartbeat IPC: 0.236753 cumulative IPC: 0.236734 (Simulation time: 63 hr 4 min 24 sec) 
 Total Blocks : 262144 Invalid Blocks : 0
Heartbeat CPU 3 instructions: 280000000 cycles: 575493632 heartbeat IPC: 0.236524 cumulative IPC: 0.236729 (Simulation time: 63 hr 4 min 31 sec) 
 Total Blocks : 262144 Invalid Blocks : 0
Heartbeat CPU 4 instructions: 280000000 cycles: 575504796 heartbeat IPC: 0.236421 cumulative IPC: 0.236701 (Simulation time: 63 hr 4 min 32 sec) 
 Total Blocks : 262144 Invalid Blocks : 0
Heartbeat CPU 2 instructions: 280000000 cycles: 575542935 heartbeat IPC: 0.236234 cumulative IPC: 0.236705 (Simulation time: 63 hr 4 min 34 sec) 
 Total Blocks : 262144 Invalid Blocks : 0
Heartbeat CPU 7 instructions: 280000000 cycles: 575559746 heartbeat IPC: 0.236313 cumulative IPC: 0.236698 (Simulation time: 63 hr 4 min 35 sec) 
 Total Blocks : 262144 Invalid Blocks : 0
Heartbeat CPU 5 instructions: 290000001 cycles: 607685312 heartbeat IPC: 0.242231 cumulative IPC: 0.242976 (Simulation time: 64 hr 24 min 8 sec) 
 Total Blocks : 262144 Invalid Blocks : 0
Heartbeat CPU 6 instructions: 290000001 cycles: 607710974 heartbeat IPC: 0.242415 cumulative IPC: 0.242971 (Simulation time: 64 hr 24 min 11 sec) 
 Total Blocks : 262144 Invalid Blocks : 0
Heartbeat CPU 1 instructions: 290000001 cycles: 614321702 heartbeat IPC: 0.249092 cumulative IPC: 0.238815 (Simulation time: 64 hr 39 min 38 sec) 
 Total Blocks : 262144 Invalid Blocks : 0
Heartbeat CPU 0 instructions: 290000001 cycles: 616973140 heartbeat IPC: 0.240524 cumulative IPC: 0.23715 (Simulation time: 64 hr 45 min 55 sec) 
 Total Blocks : 262144 Invalid Blocks : 0
Heartbeat CPU 4 instructions: 290000001 cycles: 617245844 heartbeat IPC: 0.239572 cumulative IPC: 0.237017 (Simulation time: 64 hr 46 min 16 sec) 
 Total Blocks : 262144 Invalid Blocks : 0
Heartbeat CPU 7 instructions: 290000001 cycles: 617269539 heartbeat IPC: 0.239752 cumulative IPC: 0.237033 (Simulation time: 64 hr 46 min 18 sec) 
 Total Blocks : 262144 Invalid Blocks : 0
Heartbeat CPU 3 instructions: 290000001 cycles: 617297668 heartbeat IPC: 0.239211 cumulative IPC: 0.237002 (Simulation time: 64 hr 46 min 19 sec) 
 Total Blocks : 262144 Invalid Blocks : 0
Heartbeat CPU 2 instructions: 290000001 cycles: 617324910 heartbeat IPC: 0.239338 cumulative IPC: 0.236995 (Simulation time: 64 hr 46 min 23 sec) 
 Total Blocks : 262144 Invalid Blocks : 0
Heartbeat CPU 5 instructions: 300000000 cycles: 649114683 heartbeat IPC: 0.241375 cumulative IPC: 0.242815 (Simulation time: 65 hr 59 min 48 sec) 
 Total Blocks : 262144 Invalid Blocks : 0
Heartbeat CPU 6 instructions: 300000000 cycles: 649157842 heartbeat IPC: 0.241273 cumulative IPC: 0.2428 (Simulation time: 65 hr 59 min 51 sec) 
 Total Blocks : 262144 Invalid Blocks : 0
Heartbeat CPU 1 instructions: 300000000 cycles: 656089242 heartbeat IPC: 0.23942 cumulative IPC: 0.238876 (Simulation time: 66 hr 15 min 46 sec) 
 Total Blocks : 262144 Invalid Blocks : 0
Heartbeat CPU 0 instructions: 300000000 cycles: 657575401 heartbeat IPC: 0.246292 cumulative IPC: 0.238033 (Simulation time: 66 hr 19 min 21 sec) 
 Total Blocks : 262144 Invalid Blocks : 0
Heartbeat CPU 4 instructions: 300000000 cycles: 659313731 heartbeat IPC: 0.237711 cumulative IPC: 0.237086 (Simulation time: 66 hr 23 min 30 sec) 
 Total Blocks : 262144 Invalid Blocks : 0
Heartbeat CPU 3 instructions: 300000000 cycles: 659331991 heartbeat IPC: 0.237901 cumulative IPC: 0.237092 (Simulation time: 66 hr 23 min 36 sec) 
 Total Blocks : 262144 Invalid Blocks : 0
Heartbeat CPU 7 instructions: 300000000 cycles: 659347949 heartbeat IPC: 0.237652 cumulative IPC: 0.237095 (Simulation time: 66 hr 23 min 37 sec) 
 Total Blocks : 262144 Invalid Blocks : 0
Heartbeat CPU 2 instructions: 300000000 cycles: 659350713 heartbeat IPC: 0.237949 cumulative IPC: 0.23709 (Simulation time: 66 hr 23 min 38 sec) 
 Total Blocks : 262144 Invalid Blocks : 0
Heartbeat CPU 5 instructions: 310000001 cycles: 687345267 heartbeat IPC: 0.261571 cumulative IPC: 0.244409 (Simulation time: 67 hr 32 min 11 sec) 
 Total Blocks : 262144 Invalid Blocks : 0
Heartbeat CPU 6 instructions: 310000001 cycles: 687422531 heartbeat IPC: 0.261338 cumulative IPC: 0.244377 (Simulation time: 67 hr 32 min 19 sec) 
 Total Blocks : 262144 Invalid Blocks : 0
Heartbeat CPU 1 instructions: 310000001 cycles: 695473364 heartbeat IPC: 0.253909 cumulative IPC: 0.240169 (Simulation time: 67 hr 51 min 1 sec) 
 Total Blocks : 262144 Invalid Blocks : 0
Heartbeat CPU 0 instructions: 310000001 cycles: 695945843 heartbeat IPC: 0.260617 cumulative IPC: 0.239924 (Simulation time: 67 hr 51 min 49 sec) 
 Total Blocks : 262144 Invalid Blocks : 0
Heartbeat CPU 7 instructions: 310000001 cycles: 698772352 heartbeat IPC: 0.25365 cumulative IPC: 0.23851 (Simulation time: 67 hr 58 min 51 sec) 
 Total Blocks : 262144 Invalid Blocks : 0
Heartbeat CPU 3 instructions: 310000001 cycles: 698774897 heartbeat IPC: 0.253531 cumulative IPC: 0.238498 (Simulation time: 67 hr 58 min 53 sec) 
 Total Blocks : 262144 Invalid Blocks : 0
Heartbeat CPU 4 instructions: 310000001 cycles: 698776164 heartbeat IPC: 0.253406 cumulative IPC: 0.238483 (Simulation time: 67 hr 58 min 53 sec) 
 Total Blocks : 262144 Invalid Blocks : 0
Heartbeat CPU 2 instructions: 310000001 cycles: 698844689 heartbeat IPC: 0.253203 cumulative IPC: 0.238469 (Simulation time: 67 hr 58 min 57 sec) 
 Total Blocks : 262144 Invalid Blocks : 0
Heartbeat CPU 5 instructions: 320000000 cycles: 727488142 heartbeat IPC: 0.24911 cumulative IPC: 0.244794 (Simulation time: 69 hr 2 min 36 sec) 
 Total Blocks : 262144 Invalid Blocks : 0
Heartbeat CPU 6 instructions: 320000000 cycles: 727518893 heartbeat IPC: 0.249399 cumulative IPC: 0.244788 (Simulation time: 69 hr 2 min 38 sec) 
 Total Blocks : 262144 Invalid Blocks : 0
Heartbeat CPU 1 instructions: 320000000 cycles: 735853803 heartbeat IPC: 0.247645 cumulative IPC: 0.240775 (Simulation time: 69 hr 22 min 35 sec) 
 Total Blocks : 262144 Invalid Blocks : 0
Heartbeat CPU 0 instructions: 320000000 cycles: 737060967 heartbeat IPC: 0.243219 cumulative IPC: 0.240195 (Simulation time: 69 hr 24 min 9 sec) 
 Total Blocks : 262144 Invalid Blocks : 0
Heartbeat CPU 4 instructions: 320000000 cycles: 740240437 heartbeat IPC: 0.241171 cumulative IPC: 0.238704 (Simulation time: 69 hr 31 min 36 sec) 
 Total Blocks : 262144 Invalid Blocks : 0
Heartbeat CPU 7 instructions: 320000000 cycles: 740265081 heartbeat IPC: 0.241006 cumulative IPC: 0.238716 (Simulation time: 69 hr 31 min 38 sec) 
 Total Blocks : 262144 Invalid Blocks : 0
Heartbeat CPU 3 instructions: 320000000 cycles: 740292504 heartbeat IPC: 0.240862 cumulative IPC: 0.238693 (Simulation time: 69 hr 31 min 41 sec) 
 Total Blocks : 262144 Invalid Blocks : 0
Heartbeat CPU 2 instructions: 320000000 cycles: 740297321 heartbeat IPC: 0.241239 cumulative IPC: 0.238698 (Simulation time: 69 hr 31 min 42 sec) 
 Total Blocks : 262144 Invalid Blocks : 0
Heartbeat CPU 5 instructions: 330000000 cycles: 767500012 heartbeat IPC: 0.249926 cumulative IPC: 0.245182 (Simulation time: 70 hr 33 min 13 sec) 
 Total Blocks : 262144 Invalid Blocks : 0
Heartbeat CPU 6 instructions: 330000000 cycles: 767706939 heartbeat IPC: 0.24883 cumulative IPC: 0.245094 (Simulation time: 70 hr 33 min 33 sec) 
 Total Blocks : 262144 Invalid Blocks : 0
Heartbeat CPU 1 instructions: 330000000 cycles: 774773977 heartbeat IPC: 0.256936 cumulative IPC: 0.241946 (Simulation time: 70 hr 47 min 52 sec) 
 Total Blocks : 262144 Invalid Blocks : 0
Heartbeat CPU 0 instructions: 330000000 cycles: 777601274 heartbeat IPC: 0.246668 cumulative IPC: 0.240681 (Simulation time: 70 hr 54 min 4 sec) 
 Total Blocks : 262144 Invalid Blocks : 0
Heartbeat CPU 7 instructions: 330000000 cycles: 780782255 heartbeat IPC: 0.246809 cumulative IPC: 0.23932 (Simulation time: 71 hr 0 min 48 sec) 
 Total Blocks : 262144 Invalid Blocks : 0
Heartbeat CPU 3 instructions: 330000000 cycles: 780800237 heartbeat IPC: 0.246866 cumulative IPC: 0.239302 (Simulation time: 71 hr 0 min 50 sec) 
 Total Blocks : 262144 Invalid Blocks : 0
Heartbeat CPU 4 instructions: 330000000 cycles: 780803097 heartbeat IPC: 0.246532 cumulative IPC: 0.239289 (Simulation time: 71 hr 0 min 50 sec) 
 Total Blocks : 262144 Invalid Blocks : 0
Heartbeat CPU 2 instructions: 330000000 cycles: 780807061 heartbeat IPC: 0.246854 cumulative IPC: 0.239306 (Simulation time: 71 hr 0 min 50 sec) 
 Total Blocks : 262144 Invalid Blocks : 0
Heartbeat CPU 5 instructions: 340000002 cycles: 806109934 heartbeat IPC: 0.259001 cumulative IPC: 0.24612 (Simulation time: 71 hr 55 min 20 sec) 
 Total Blocks : 262144 Invalid Blocks : 0
Heartbeat CPU 6 instructions: 340000002 cycles: 806337806 heartbeat IPC: 0.25886 cumulative IPC: 0.246029 (Simulation time: 71 hr 55 min 38 sec) 
 Total Blocks : 262144 Invalid Blocks : 0
Heartbeat CPU 1 instructions: 340000002 cycles: 814766666 heartbeat IPC: 0.250046 cumulative IPC: 0.242507 (Simulation time: 72 hr 14 min 21 sec) 
 Total Blocks : 262144 Invalid Blocks : 0
Heartbeat CPU 0 instructions: 340000002 cycles: 817785995 heartbeat IPC: 0.248851 cumulative IPC: 0.241247 (Simulation time: 72 hr 20 min 58 sec) 
 Total Blocks : 262144 Invalid Blocks : 0
Heartbeat CPU 7 instructions: 340000002 cycles: 821057304 heartbeat IPC: 0.248293 cumulative IPC: 0.239939 (Simulation time: 72 hr 28 min 0 sec) 
 Total Blocks : 262144 Invalid Blocks : 0
Heartbeat CPU 4 instructions: 340000002 cycles: 821112315 heartbeat IPC: 0.248082 cumulative IPC: 0.239896 (Simulation time: 72 hr 28 min 6 sec) 
 Total Blocks : 262144 Invalid Blocks : 0
Heartbeat CPU 3 instructions: 340000002 cycles: 821116911 heartbeat IPC: 0.248036 cumulative IPC: 0.239906 (Simulation time: 72 hr 28 min 7 sec) 
 Total Blocks : 262144 Invalid Blocks : 0
Heartbeat CPU 2 instructions: 340000002 cycles: 821179588 heartbeat IPC: 0.247693 cumulative IPC: 0.239886 (Simulation time: 72 hr 28 min 14 sec) 
 Total Blocks : 262144 Invalid Blocks : 0
Heartbeat CPU 5 instructions: 350000002 cycles: 846375110 heartbeat IPC: 0.248354 cumulative IPC: 0.246268 (Simulation time: 73 hr 22 min 28 sec) 
 Total Blocks : 262144 Invalid Blocks : 0
Heartbeat CPU 6 instructions: 350000002 cycles: 846425760 heartbeat IPC: 0.249451 cumulative IPC: 0.246254 (Simulation time: 73 hr 22 min 34 sec) 
 Total Blocks : 262144 Invalid Blocks : 0
Heartbeat CPU 1 instructions: 350000002 cycles: 855784742 heartbeat IPC: 0.243795 cumulative IPC: 0.242592 (Simulation time: 73 hr 42 min 6 sec) 
 Total Blocks : 262144 Invalid Blocks : 0
Heartbeat CPU 0 instructions: 350000002 cycles: 858461222 heartbeat IPC: 0.24585 cumulative IPC: 0.241548 (Simulation time: 73 hr 46 min 40 sec) 
 Total Blocks : 262144 Invalid Blocks : 0
Heartbeat CPU 7 instructions: 350000002 cycles: 862210474 heartbeat IPC: 0.242995 cumulative IPC: 0.24014 (Simulation time: 73 hr 55 min 13 sec) 
 Total Blocks : 262144 Invalid Blocks : 0
Heartbeat CPU 2 instructions: 350000002 cycles: 862264738 heartbeat IPC: 0.243397 cumulative IPC: 0.240117 (Simulation time: 73 hr 55 min 20 sec) 
 Total Blocks : 262144 Invalid Blocks : 0
Heartbeat CPU 4 instructions: 350000002 cycles: 862280010 heartbeat IPC: 0.242909 cumulative IPC: 0.240095 (Simulation time: 73 hr 55 min 22 sec) 
 Total Blocks : 262144 Invalid Blocks : 0
Heartbeat CPU 3 instructions: 350000002 cycles: 862280040 heartbeat IPC: 0.242936 cumulative IPC: 0.240105 (Simulation time: 73 hr 55 min 22 sec) 
 Total Blocks : 262144 Invalid Blocks : 0
Heartbeat CPU 5 instructions: 360000003 cycles: 886479704 heartbeat IPC: 0.249348 cumulative IPC: 0.246458 (Simulation time: 74 hr 45 min 15 sec) 
 Total Blocks : 262144 Invalid Blocks : 0
Heartbeat CPU 6 instructions: 360000003 cycles: 886630810 heartbeat IPC: 0.248725 cumulative IPC: 0.246408 (Simulation time: 74 hr 45 min 50 sec) 
 Total Blocks : 262144 Invalid Blocks : 0
Heartbeat CPU 1 instructions: 360000003 cycles: 896225736 heartbeat IPC: 0.247274 cumulative IPC: 0.24288 (Simulation time: 75 hr 6 min 48 sec) 
 Total Blocks : 262144 Invalid Blocks : 0
Heartbeat CPU 0 instructions: 360000003 cycles: 897163146 heartbeat IPC: 0.258385 cumulative IPC: 0.242536 (Simulation time: 75 hr 9 min 24 sec) 
 Total Blocks : 262144 Invalid Blocks : 0
Heartbeat CPU 7 instructions: 360000003 cycles: 902585905 heartbeat IPC: 0.247675 cumulative IPC: 0.240598 (Simulation time: 75 hr 20 min 22 sec) 
 Total Blocks : 262144 Invalid Blocks : 0
Heartbeat CPU 4 instructions: 360000003 cycles: 902591340 heartbeat IPC: 0.248069 cumulative IPC: 0.240578 (Simulation time: 75 hr 20 min 27 sec) 
 Total Blocks : 262144 Invalid Blocks : 0
Heartbeat CPU 3 instructions: 360000003 cycles: 902632915 heartbeat IPC: 0.247814 cumulative IPC: 0.240573 (Simulation time: 75 hr 20 min 35 sec) 
 Total Blocks : 262144 Invalid Blocks : 0
Heartbeat CPU 2 instructions: 360000003 cycles: 902645904 heartbeat IPC: 0.24764 cumulative IPC: 0.240574 (Simulation time: 75 hr 20 min 39 sec) 
 Total Blocks : 262144 Invalid Blocks : 0
Heartbeat CPU 5 instructions: 370000001 cycles: 925378852 heartbeat IPC: 0.257075 cumulative IPC: 0.247059 (Simulation time: 76 hr 8 min 47 sec) 
 Total Blocks : 262144 Invalid Blocks : 0
Heartbeat CPU 6 instructions: 370000001 cycles: 925977469 heartbeat IPC: 0.254151 cumulative IPC: 0.24685 (Simulation time: 76 hr 9 min 32 sec) 
 Total Blocks : 262144 Invalid Blocks : 0
Heartbeat CPU 1 instructions: 370000001 cycles: 936290195 heartbeat IPC: 0.249598 cumulative IPC: 0.243265 (Simulation time: 76 hr 30 min 56 sec) 
 Total Blocks : 262144 Invalid Blocks : 0
Heartbeat CPU 0 instructions: 370000001 cycles: 936487962 heartbeat IPC: 0.254292 cumulative IPC: 0.243198 (Simulation time: 76 hr 31 min 8 sec) 
 Total Blocks : 262144 Invalid Blocks : 0
Heartbeat CPU 4 instructions: 370000001 cycles: 942650171 heartbeat IPC: 0.249633 cumulative IPC: 0.241093 (Simulation time: 76 hr 44 min 17 sec) 
 Total Blocks : 262144 Invalid Blocks : 0
Heartbeat CPU 3 instructions: 370000001 cycles: 942679577 heartbeat IPC: 0.249709 cumulative IPC: 0.241092 (Simulation time: 76 hr 44 min 20 sec) 
 Total Blocks : 262144 Invalid Blocks : 0
Heartbeat CPU 7 instructions: 370000001 cycles: 942700520 heartbeat IPC: 0.249286 cumulative IPC: 0.241092 (Simulation time: 76 hr 44 min 21 sec) 
 Total Blocks : 262144 Invalid Blocks : 0
Heartbeat CPU 2 instructions: 370000001 cycles: 942707312 heartbeat IPC: 0.249617 cumulative IPC: 0.241088 (Simulation time: 76 hr 44 min 21 sec) 
 Total Blocks : 262144 Invalid Blocks : 0
Heartbeat CPU 5 instructions: 380000000 cycles: 964726881 heartbeat IPC: 0.254142 cumulative IPC: 0.247442 (Simulation time: 77 hr 30 min 33 sec) 
 Total Blocks : 262144 Invalid Blocks : 0
Heartbeat CPU 6 instructions: 380000000 cycles: 964846649 heartbeat IPC: 0.257273 cumulative IPC: 0.247407 (Simulation time: 77 hr 30 min 44 sec) 
 Total Blocks : 262144 Invalid Blocks : 0
Heartbeat CPU 1 instructions: 380000000 cycles: 976746062 heartbeat IPC: 0.247183 cumulative IPC: 0.243479 (Simulation time: 77 hr 56 min 53 sec) 
 Total Blocks : 262144 Invalid Blocks : 0
Heartbeat CPU 0 instructions: 380000000 cycles: 977373600 heartbeat IPC: 0.244585 cumulative IPC: 0.243274 (Simulation time: 77 hr 57 min 30 sec) 
 Total Blocks : 262144 Invalid Blocks : 0
Heartbeat CPU 4 instructions: 380000000 cycles: 983753093 heartbeat IPC: 0.243292 cumulative IPC: 0.241214 (Simulation time: 78 hr 11 min 12 sec) 
 Total Blocks : 262144 Invalid Blocks : 0
Heartbeat CPU 7 instructions: 380000000 cycles: 983776528 heartbeat IPC: 0.243451 cumulative IPC: 0.241222 (Simulation time: 78 hr 11 min 15 sec) 
 Total Blocks : 262144 Invalid Blocks : 0
Heartbeat CPU 3 instructions: 380000000 cycles: 983799203 heartbeat IPC: 0.243193 cumulative IPC: 0.241208 (Simulation time: 78 hr 11 min 16 sec) 
 Total Blocks : 262144 Invalid Blocks : 0
Heartbeat CPU 2 instructions: 380000000 cycles: 983809619 heartbeat IPC: 0.243295 cumulative IPC: 0.241209 (Simulation time: 78 hr 11 min 17 sec) 
 Total Blocks : 262144 Invalid Blocks : 0
Heartbeat CPU 5 instructions: 390000002 cycles: 1004906013 heartbeat IPC: 0.248885 cumulative IPC: 0.247518 (Simulation time: 78 hr 57 min 28 sec) 
 Total Blocks : 262144 Invalid Blocks : 0
Heartbeat CPU 6 instructions: 390000002 cycles: 1004980375 heartbeat IPC: 0.249167 cumulative IPC: 0.247499 (Simulation time: 78 hr 57 min 34 sec) 
 Total Blocks : 262144 Invalid Blocks : 0
Heartbeat CPU 1 instructions: 390000002 cycles: 1015480755 heartbeat IPC: 0.258167 cumulative IPC: 0.244211 (Simulation time: 79 hr 20 min 1 sec) 
 Total Blocks : 262144 Invalid Blocks : 0
Heartbeat CPU 0 instructions: 390000002 cycles: 1017677208 heartbeat IPC: 0.248117 cumulative IPC: 0.243525 (Simulation time: 79 hr 25 min 19 sec) 
 Total Blocks : 262144 Invalid Blocks : 0
Heartbeat CPU 4 instructions: 390000002 cycles: 1024028589 heartbeat IPC: 0.24829 cumulative IPC: 0.241576 (Simulation time: 79 hr 38 min 56 sec) 
 Total Blocks : 262144 Invalid Blocks : 0
Heartbeat CPU 7 instructions: 390000002 cycles: 1024041136 heartbeat IPC: 0.248357 cumulative IPC: 0.241587 (Simulation time: 79 hr 38 min 58 sec) 
 Total Blocks : 262144 Invalid Blocks : 0
Heartbeat CPU 3 instructions: 390000002 cycles: 1024045888 heartbeat IPC: 0.248468 cumulative IPC: 0.241579 (Simulation time: 79 hr 38 min 58 sec) 
 Total Blocks : 262144 Invalid Blocks : 0
Heartbeat CPU 2 instructions: 390000002 cycles: 1024078861 heartbeat IPC: 0.248329 cumulative IPC: 0.241574 (Simulation time: 79 hr 39 min 2 sec) 
 Total Blocks : 262144 Invalid Blocks : 0
Heartbeat CPU 5 instructions: 400000003 cycles: 1043480296 heartbeat IPC: 0.25924 cumulative IPC: 0.248079 (Simulation time: 80 hr 21 min 45 sec) 
 Total Blocks : 262144 Invalid Blocks : 0
Heartbeat CPU 6 instructions: 400000003 cycles: 1043569334 heartbeat IPC: 0.259142 cumulative IPC: 0.248057 (Simulation time: 80 hr 21 min 52 sec) 
 Total Blocks : 262144 Invalid Blocks : 0
Finished CPU 5 instructions: 200000000 cycles: 806142331 cumulative IPC: 0.248095 (Simulation time: 80 hr 22 min 15 sec) 
Finished CPU 6 instructions: 200000001 cycles: 806218208 cumulative IPC: 0.248072 (Simulation time: 80 hr 22 min 31 sec) 
Heartbeat CPU 1 instructions: 400000003 cycles: 1054834239 heartbeat IPC: 0.254107 cumulative IPC: 0.244687 (Simulation time: 80 hr 47 min 28 sec) 
 Total Blocks : 262144 Invalid Blocks : 0
Finished CPU 1 instructions: 200000000 cycles: 817348255 cumulative IPC: 0.244694 (Simulation time: 80 hr 47 min 32 sec) 
Heartbeat CPU 0 instructions: 400000003 cycles: 1057053024 heartbeat IPC: 0.253963 cumulative IPC: 0.244026 (Simulation time: 80 hr 52 min 50 sec) 
 Total Blocks : 262144 Invalid Blocks : 0
Finished CPU 0 instructions: 200000003 cycles: 819562663 cumulative IPC: 0.244033 (Simulation time: 80 hr 53 min 1 sec) 
Heartbeat CPU 4 instructions: 400000003 cycles: 1063923135 heartbeat IPC: 0.250661 cumulative IPC: 0.242015 (Simulation time: 81 hr 7 min 35 sec) 
 Total Blocks : 262144 Invalid Blocks : 0
Finished CPU 4 instructions: 200000002 cycles: 826384788 cumulative IPC: 0.242018 (Simulation time: 81 hr 7 min 37 sec) 
Heartbeat CPU 3 instructions: 400000003 cycles: 1064042271 heartbeat IPC: 0.250023 cumulative IPC: 0.241988 (Simulation time: 81 hr 7 min 41 sec) 
 Total Blocks : 262144 Invalid Blocks : 0
Heartbeat CPU 7 instructions: 400000003 cycles: 1064055402 heartbeat IPC: 0.249911 cumulative IPC: 0.24199 (Simulation time: 81 hr 7 min 42 sec) 
 Total Blocks : 262144 Invalid Blocks : 0
Finished CPU 7 instructions: 200000000 cycles: 826479540 cumulative IPC: 0.24199 (Simulation time: 81 hr 7 min 42 sec) 
Finished CPU 3 instructions: 200000003 cycles: 826483542 cumulative IPC: 0.241989 (Simulation time: 81 hr 7 min 43 sec) 
Heartbeat CPU 2 instructions: 400000003 cycles: 1064077819 heartbeat IPC: 0.250007 cumulative IPC: 0.241982 (Simulation time: 81 hr 7 min 44 sec) 
 Total Blocks : 262144 Invalid Blocks : 0
Finished CPU 2 instructions: 200000000 cycles: 826506684 cumulative IPC: 0.241982 (Simulation time: 81 hr 7 min 44 sec) 

CPU 0 Branch Prediction Accuracy: 85.1408% MPKI: 28.3046 Average ROB Occupancy at Mispredict: 34.9209

CPU 1 Branch Prediction Accuracy: 85.1462% MPKI: 28.2972 Average ROB Occupancy at Mispredict: 34.9232

CPU 2 Branch Prediction Accuracy: 85.1426% MPKI: 28.3062 Average ROB Occupancy at Mispredict: 34.9255

CPU 3 Branch Prediction Accuracy: 85.1424% MPKI: 28.3059 Average ROB Occupancy at Mispredict: 34.9216

CPU 4 Branch Prediction Accuracy: 85.1421% MPKI: 28.3061 Average ROB Occupancy at Mispredict: 34.9158

CPU 5 Branch Prediction Accuracy: 85.1489% MPKI: 28.2871 Average ROB Occupancy at Mispredict: 34.8666

CPU 6 Branch Prediction Accuracy: 85.149% MPKI: 28.2875 Average ROB Occupancy at Mispredict: 34.8652

CPU 7 Branch Prediction Accuracy: 85.1424% MPKI: 28.3066 Average ROB Occupancy at Mispredict: 34.9251

ChampSim completed all CPUs

Total Simulation Statistics (not including warmup)

CPU 0 cumulative IPC: 0.244219 instructions: 201849008 cycles: 826506684
ITLB TOTAL     ACCESS: 32119662  HIT: 32119662  MISS:     0  HIT %:   100  MISS %:     0  AVERAGE MISS PENALTY: 0
ITLB LOAD      ACCESS: 32119662  HIT: 32119662  MISS:     0  HIT %:   100  MISS %:     0  AVERAGE MISS PENALTY: 0
ITLB RFO       ACCESS:     0  HIT:     0  MISS:     0  HIT %:     0  MISS %:     0  AVERAGE MISS PENALTY: 0
ITLB PREFETCH  ACCESS:     0  HIT:     0  MISS:     0  HIT %:     0  MISS %:     0  AVERAGE MISS PENALTY: 0
ITLB WRITEBACK ACCESS:     0  HIT:     0  MISS:     0  HIT %:     0  MISS %:     0  AVERAGE MISS PENALTY: 0

DTLB TOTAL     ACCESS: 61016213  HIT: 58297013  MISS: 2719200  HIT %: 95.5435  MISS %: 4.45652  AVERAGE MISS PENALTY: 10.5841
DTLB LOAD      ACCESS: 46588716  HIT: 44262762  MISS: 2325954  HIT %: 95.0075  MISS %: 4.99253  AVERAGE MISS PENALTY: 10.7646
DTLB RFO       ACCESS: 14427497  HIT: 14034251  MISS: 393246  HIT %: 97.2743  MISS %: 2.72567  AVERAGE MISS PENALTY: 9.51652
DTLB PREFETCH  ACCESS:     0  HIT:     0  MISS:     0  HIT %:     0  MISS %:     0  AVERAGE MISS PENALTY: 0
DTLB WRITEBACK ACCESS:     0  HIT:     0  MISS:     0  HIT %:     0  MISS %:     0  AVERAGE MISS PENALTY: 0

STLB TOTAL     ACCESS: 2719200  HIT: 2684579  MISS: 34621  HIT %: 98.7268  MISS %: 1.27321  AVERAGE MISS PENALTY: 100
STLB LOAD      ACCESS: 2325954  HIT: 2291848  MISS: 34106  HIT %: 98.5337  MISS %: 1.46632  AVERAGE MISS PENALTY: 100
STLB RFO       ACCESS: 393246  HIT: 392731  MISS:   515  HIT %: 99.869  MISS %: 0.130961  AVERAGE MISS PENALTY: 100
STLB PREFETCH  ACCESS:     0  HIT:     0  MISS:     0  HIT %:     0  MISS %:     0  AVERAGE MISS PENALTY: 0
STLB WRITEBACK ACCESS:     0  HIT:     0  MISS:     0  HIT %:     0  MISS %:     0  AVERAGE MISS PENALTY: 0

L1D TOTAL     ACCESS: 97642279  HIT: 88416993  MISS: 9225286  HIT %: 90.552  MISS %: 9.44804  AVERAGE MISS PENALTY: 8.35536e+06
L1D LOAD      ACCESS: 57642096  HIT: 52620878  MISS: 5021218  HIT %: 91.289  MISS %: 8.71103  AVERAGE MISS PENALTY: 1.52309e+07
L1D RFO       ACCESS: 22887899  HIT: 22144939  MISS: 742960  HIT %: 96.7539  MISS %: 3.24608  AVERAGE MISS PENALTY: 810881
L1D PREFETCH  ACCESS: 17112284  HIT: 13651176  MISS: 3461108  HIT %: 79.7741  MISS %: 20.2259  AVERAGE MISS PENALTY: 78.8019
L1D WRITEBACK ACCESS:     0  HIT:     0  MISS:     0  HIT %:     0  MISS %:     0  AVERAGE MISS PENALTY: 0

L1I TOTAL     ACCESS: 43103594  HIT: 43103594  MISS:     0  HIT %:   100  MISS %:     0  AVERAGE MISS PENALTY: 0
L1I LOAD      ACCESS: 43103594  HIT: 43103594  MISS:     0  HIT %:   100  MISS %:     0  AVERAGE MISS PENALTY: 0
L1I RFO       ACCESS:     0  HIT:     0  MISS:     0  HIT %:     0  MISS %:     0  AVERAGE MISS PENALTY: 0
L1I PREFETCH  ACCESS:     0  HIT:     0  MISS:     0  HIT %:     0  MISS %:     0  AVERAGE MISS PENALTY: 0
L1I WRITEBACK ACCESS:     0  HIT:     0  MISS:     0  HIT %:     0  MISS %:     0  AVERAGE MISS PENALTY: 0

L2C TOTAL     ACCESS: 12759848  HIT: 5946279  MISS: 6813569  HIT %: 46.6015  MISS %: 53.3985  AVERAGE MISS PENALTY: 3.66343e+06
L2C LOAD      ACCESS: 5006494  HIT: 1728424  MISS: 3278070  HIT %: 34.5236  MISS %: 65.4764  AVERAGE MISS PENALTY: 7.60985e+06
L2C RFO       ACCESS: 741995  HIT: 186231  MISS: 555764  HIT %: 25.0987  MISS %: 74.9013  AVERAGE MISS PENALTY: 27005.3
L2C PREFETCH  ACCESS: 5843177  HIT: 2933762  MISS: 2909415  HIT %: 50.2083  MISS %: 49.7917  AVERAGE MISS PENALTY: 135.6
L2C WRITEBACK ACCESS: 1168182  HIT: 1097862  MISS: 70320  HIT %: 93.9804  MISS %: 6.01961  AVERAGE MISS PENALTY: 0


LLC0 TOTAL     ACCESS: 958522  HIT: 639156  MISS: 319366  HIT %: 66.6814  MISS %: 33.3186  AVERAGE MISS PENALTY: 216.546
LLC0 LOAD      ACCESS: 428817  HIT: 287773  MISS: 141044  HIT %: 67.1086  MISS %: 32.8914  AVERAGE MISS PENALTY: 238.159
LLC0 RFO       ACCESS: 70861  HIT: 66346  MISS:  4515  HIT %: 93.6284  MISS %: 6.37163  AVERAGE MISS PENALTY: 237.305
LLC0 PREFETCH  ACCESS: 347400  HIT: 177818  MISS: 169582  HIT %: 51.1854  MISS %: 48.8146  AVERAGE MISS PENALTY: 203.412
LLC0 WRITEBACK ACCESS: 111444  HIT: 107219  MISS:  4225  HIT %: 96.2089  MISS %: 3.79114  AVERAGE MISS PENALTY: 0

LLC1 TOTAL     ACCESS: 927963  HIT: 609668  MISS: 318295  HIT %: 65.6996  MISS %: 34.3004  AVERAGE MISS PENALTY: 216.006
LLC1 LOAD      ACCESS: 397903  HIT: 267315  MISS: 130588  HIT %: 67.1809  MISS %: 32.8191  AVERAGE MISS PENALTY: 240.671
LLC1 RFO       ACCESS: 62632  HIT: 58498  MISS:  4134  HIT %: 93.3995  MISS %: 6.60046  AVERAGE MISS PENALTY: 236.432
LLC1 PREFETCH  ACCESS: 362821  HIT: 183407  MISS: 179414  HIT %: 50.5503  MISS %: 49.4497  AVERAGE MISS PENALTY: 202.59
LLC1 WRITEBACK ACCESS: 104607  HIT: 100448  MISS:  4159  HIT %: 96.0242  MISS %: 3.97583  AVERAGE MISS PENALTY: 0

LLC2 TOTAL     ACCESS: 927738  HIT: 612125  MISS: 315613  HIT %: 65.9804  MISS %: 34.0196  AVERAGE MISS PENALTY: 220.129
LLC2 LOAD      ACCESS: 392013  HIT: 268426  MISS: 123587  HIT %: 68.4737  MISS %: 31.5263  AVERAGE MISS PENALTY: 243.942
LLC2 RFO       ACCESS: 66123  HIT: 61655  MISS:  4468  HIT %: 93.2429  MISS %: 6.7571  AVERAGE MISS PENALTY: 236.353
LLC2 PREFETCH  ACCESS: 365783  HIT: 182125  MISS: 183658  HIT %: 49.7904  MISS %: 50.2096  AVERAGE MISS PENALTY: 208.384
LLC2 WRITEBACK ACCESS: 103819  HIT: 99919  MISS:  3900  HIT %: 96.2435  MISS %: 3.75654  AVERAGE MISS PENALTY: 0

LLC3 TOTAL     ACCESS: 936097  HIT: 618226  MISS: 317871  HIT %: 66.0429  MISS %: 33.9571  AVERAGE MISS PENALTY: 217.981
LLC3 LOAD      ACCESS: 399740  HIT: 275930  MISS: 123810  HIT %: 69.0274  MISS %: 30.9726  AVERAGE MISS PENALTY: 242.76
LLC3 RFO       ACCESS: 66511  HIT: 61823  MISS:  4688  HIT %: 92.9515  MISS %: 7.04846  AVERAGE MISS PENALTY: 239.879
LLC3 PREFETCH  ACCESS: 359998  HIT: 175145  MISS: 184853  HIT %: 48.6517  MISS %: 51.3483  AVERAGE MISS PENALTY: 206.159
LLC3 WRITEBACK ACCESS: 109848  HIT: 105328  MISS:  4520  HIT %: 95.8852  MISS %: 4.11478  AVERAGE MISS PENALTY: 0

LLC4 TOTAL     ACCESS: 959252  HIT: 639579  MISS: 319673  HIT %: 66.6748  MISS %: 33.3252  AVERAGE MISS PENALTY: 217.676
LLC4 LOAD      ACCESS: 408139  HIT: 284264  MISS: 123875  HIT %: 69.6488  MISS %: 30.3512  AVERAGE MISS PENALTY: 246.027
LLC4 RFO       ACCESS: 71166  HIT: 66207  MISS:  4959  HIT %: 93.0318  MISS %: 6.96822  AVERAGE MISS PENALTY: 234.94
LLC4 PREFETCH  ACCESS: 366346  HIT: 179913  MISS: 186433  HIT %: 49.1101  MISS %: 50.8899  AVERAGE MISS PENALTY: 203.523
LLC4 WRITEBACK ACCESS: 113601  HIT: 109195  MISS:  4406  HIT %: 96.1215  MISS %: 3.87849  AVERAGE MISS PENALTY: 0

LLC5 TOTAL     ACCESS: 960925  HIT: 642057  MISS: 318868  HIT %: 66.8166  MISS %: 33.1834  AVERAGE MISS PENALTY: 217.192
LLC5 LOAD      ACCESS: 399785  HIT: 279397  MISS: 120388  HIT %: 69.8868  MISS %: 30.1132  AVERAGE MISS PENALTY: 246.242
LLC5 RFO       ACCESS: 70784  HIT: 65719  MISS:  5065  HIT %: 92.8444  MISS %: 7.15557  AVERAGE MISS PENALTY: 234.454
LLC5 PREFETCH  ACCESS: 374967  HIT: 186522  MISS: 188445  HIT %: 49.7436  MISS %: 50.2564  AVERAGE MISS PENALTY: 203.897
LLC5 WRITEBACK ACCESS: 115389  HIT: 110419  MISS:  4970  HIT %: 95.6928  MISS %: 4.30717  AVERAGE MISS PENALTY: 0

LLC6 TOTAL     ACCESS: 975908  HIT: 652096  MISS: 323812  HIT %: 66.8194  MISS %: 33.1806  AVERAGE MISS PENALTY: 220.746
LLC6 LOAD      ACCESS: 409913  HIT: 286154  MISS: 123759  HIT %: 69.8085  MISS %: 30.1915  AVERAGE MISS PENALTY: 245.692
LLC6 RFO       ACCESS: 73438  HIT: 68163  MISS:  5275  HIT %: 92.8171  MISS %: 7.18293  AVERAGE MISS PENALTY: 236.53
LLC6 PREFETCH  ACCESS: 376652  HIT: 187312  MISS: 189340  HIT %: 49.7308  MISS %: 50.2692  AVERAGE MISS PENALTY: 210.34
LLC6 WRITEBACK ACCESS: 115905  HIT: 110467  MISS:  5438  HIT %: 95.3082  MISS %: 4.69177  AVERAGE MISS PENALTY: 0

LLC7 TOTAL     ACCESS: 987684  HIT: 662987  MISS: 324697  HIT %: 67.1254  MISS %: 32.8746  AVERAGE MISS PENALTY: 220.809
LLC7 LOAD      ACCESS: 411376  HIT: 288503  MISS: 122873  HIT %: 70.1312  MISS %: 29.8688  AVERAGE MISS PENALTY: 246.247
LLC7 RFO       ACCESS: 74222  HIT: 68989  MISS:  5233  HIT %: 92.9495  MISS %: 7.05047  AVERAGE MISS PENALTY: 237.442
LLC7 PREFETCH  ACCESS: 385800  HIT: 194398  MISS: 191402  HIT %: 50.3883  MISS %: 49.6117  AVERAGE MISS PENALTY: 210.009
LLC7 WRITEBACK ACCESS: 116286  HIT: 111097  MISS:  5189  HIT %: 95.5377  MISS %: 4.46227  AVERAGE MISS PENALTY: 0

Total Rob stall cycles : 	697221265
Total Load Rob Stall cycles : 	246209184
Average Rob Stall cycles : 	 10
Average Load Rob Stall cycles : 	 13

CPU 1 cumulative IPC: 0.244743 instructions: 202281442 cycles: 826506684
ITLB TOTAL     ACCESS: 32188968  HIT: 32188968  MISS:     0  HIT %:   100  MISS %:     0  AVERAGE MISS PENALTY: 0
ITLB LOAD      ACCESS: 32188968  HIT: 32188968  MISS:     0  HIT %:   100  MISS %:     0  AVERAGE MISS PENALTY: 0
ITLB RFO       ACCESS:     0  HIT:     0  MISS:     0  HIT %:     0  MISS %:     0  AVERAGE MISS PENALTY: 0
ITLB PREFETCH  ACCESS:     0  HIT:     0  MISS:     0  HIT %:     0  MISS %:     0  AVERAGE MISS PENALTY: 0
ITLB WRITEBACK ACCESS:     0  HIT:     0  MISS:     0  HIT %:     0  MISS %:     0  AVERAGE MISS PENALTY: 0

DTLB TOTAL     ACCESS: 61146110  HIT: 58417798  MISS: 2728312  HIT %: 95.538  MISS %: 4.46196  AVERAGE MISS PENALTY: 10.5873
DTLB LOAD      ACCESS: 46687530  HIT: 44353995  MISS: 2333535  HIT %: 95.0018  MISS %: 4.9982  AVERAGE MISS PENALTY: 10.7683
DTLB RFO       ACCESS: 14458580  HIT: 14063803  MISS: 394777  HIT %: 97.2696  MISS %: 2.7304  AVERAGE MISS PENALTY: 9.51687
DTLB PREFETCH  ACCESS:     0  HIT:     0  MISS:     0  HIT %:     0  MISS %:     0  AVERAGE MISS PENALTY: 0
DTLB WRITEBACK ACCESS:     0  HIT:     0  MISS:     0  HIT %:     0  MISS %:     0  AVERAGE MISS PENALTY: 0

STLB TOTAL     ACCESS: 2728312  HIT: 2693555  MISS: 34757  HIT %: 98.7261  MISS %: 1.27394  AVERAGE MISS PENALTY: 100
STLB LOAD      ACCESS: 2333535  HIT: 2299294  MISS: 34241  HIT %: 98.5327  MISS %: 1.46734  AVERAGE MISS PENALTY: 100
STLB RFO       ACCESS: 394777  HIT: 394261  MISS:   516  HIT %: 99.8693  MISS %: 0.130707  AVERAGE MISS PENALTY: 100
STLB PREFETCH  ACCESS:     0  HIT:     0  MISS:     0  HIT %:     0  MISS %:     0  AVERAGE MISS PENALTY: 0
STLB WRITEBACK ACCESS:     0  HIT:     0  MISS:     0  HIT %:     0  MISS %:     0  AVERAGE MISS PENALTY: 0

L1D TOTAL     ACCESS: 97905403  HIT: 88642874  MISS: 9262529  HIT %: 90.5393  MISS %: 9.46069  AVERAGE MISS PENALTY: 8.30021e+06
L1D LOAD      ACCESS: 57764109  HIT: 52726839  MISS: 5037270  HIT %: 91.2796  MISS %: 8.72041  AVERAGE MISS PENALTY: 1.51402e+07
L1D RFO       ACCESS: 22933711  HIT: 22187698  MISS: 746013  HIT %: 96.7471  MISS %: 3.25291  AVERAGE MISS PENALTY: 824648
L1D PREFETCH  ACCESS: 17207583  HIT: 13728337  MISS: 3479246  HIT %: 79.7807  MISS %: 20.2193  AVERAGE MISS PENALTY: 78.3027
L1D WRITEBACK ACCESS:     0  HIT:     0  MISS:     0  HIT %:     0  MISS %:     0  AVERAGE MISS PENALTY: 0

L1I TOTAL     ACCESS: 43195124  HIT: 43195124  MISS:     0  HIT %:   100  MISS %:     0  AVERAGE MISS PENALTY: 0
L1I LOAD      ACCESS: 43195124  HIT: 43195124  MISS:     0  HIT %:   100  MISS %:     0  AVERAGE MISS PENALTY: 0
L1I RFO       ACCESS:     0  HIT:     0  MISS:     0  HIT %:     0  MISS %:     0  AVERAGE MISS PENALTY: 0
L1I PREFETCH  ACCESS:     0  HIT:     0  MISS:     0  HIT %:     0  MISS %:     0  AVERAGE MISS PENALTY: 0
L1I WRITEBACK ACCESS:     0  HIT:     0  MISS:     0  HIT %:     0  MISS %:     0  AVERAGE MISS PENALTY: 0

L2C TOTAL     ACCESS: 12821763  HIT: 5988767  MISS: 6832996  HIT %: 46.7078  MISS %: 53.2922  AVERAGE MISS PENALTY: 3.63389e+06
L2C LOAD      ACCESS: 5022518  HIT: 1737474  MISS: 3285044  HIT %: 34.5937  MISS %: 65.4063  AVERAGE MISS PENALTY: 7.55403e+06
L2C RFO       ACCESS: 745039  HIT: 196801  MISS: 548238  HIT %: 26.4149  MISS %: 73.5851  AVERAGE MISS PENALTY: 26765.3
L2C PREFETCH  ACCESS: 5881156  HIT: 2951607  MISS: 2929549  HIT %: 50.1875  MISS %: 49.8125  AVERAGE MISS PENALTY: 134.499
L2C WRITEBACK ACCESS: 1173050  HIT: 1102885  MISS: 70165  HIT %: 94.0186  MISS %: 5.98142  AVERAGE MISS PENALTY: 0


LLC0 TOTAL     ACCESS: 962062  HIT: 641517  MISS: 320545  HIT %: 66.6815  MISS %: 33.3185  AVERAGE MISS PENALTY: 214.945
LLC0 LOAD      ACCESS: 430113  HIT: 288743  MISS: 141370  HIT %: 67.1319  MISS %: 32.8681  AVERAGE MISS PENALTY: 236.419
LLC0 RFO       ACCESS: 70487  HIT: 65923  MISS:  4564  HIT %: 93.525  MISS %: 6.47495  AVERAGE MISS PENALTY: 228.743
LLC0 PREFETCH  ACCESS: 349667  HIT: 179233  MISS: 170434  HIT %: 51.2582  MISS %: 48.7418  AVERAGE MISS PENALTY: 202.03
LLC0 WRITEBACK ACCESS: 111795  HIT: 107618  MISS:  4177  HIT %: 96.2637  MISS %: 3.7363  AVERAGE MISS PENALTY: 0

LLC1 TOTAL     ACCESS: 930022  HIT: 610817  MISS: 319205  HIT %: 65.6777  MISS %: 34.3223  AVERAGE MISS PENALTY: 214.268
LLC1 LOAD      ACCESS: 397402  HIT: 266561  MISS: 130841  HIT %: 67.0759  MISS %: 32.9241  AVERAGE MISS PENALTY: 238.086
LLC1 RFO       ACCESS: 61620  HIT: 57377  MISS:  4243  HIT %: 93.1142  MISS %: 6.88575  AVERAGE MISS PENALTY: 235.567
LLC1 PREFETCH  ACCESS: 366561  HIT: 186533  MISS: 180028  HIT %: 50.8873  MISS %: 49.1127  AVERAGE MISS PENALTY: 201.326
LLC1 WRITEBACK ACCESS: 104439  HIT: 100346  MISS:  4093  HIT %: 96.081  MISS %: 3.91903  AVERAGE MISS PENALTY: 0

LLC2 TOTAL     ACCESS: 930377  HIT: 614551  MISS: 315826  HIT %: 66.054  MISS %: 33.946  AVERAGE MISS PENALTY: 218.154
LLC2 LOAD      ACCESS: 393476  HIT: 270117  MISS: 123359  HIT %: 68.6489  MISS %: 31.3511  AVERAGE MISS PENALTY: 242.404
LLC2 RFO       ACCESS: 65331  HIT: 60927  MISS:  4404  HIT %: 93.2589  MISS %: 6.74106  AVERAGE MISS PENALTY: 234.662
LLC2 PREFETCH  ACCESS: 368056  HIT: 183799  MISS: 184257  HIT %: 49.9378  MISS %: 50.0622  AVERAGE MISS PENALTY: 206.031
LLC2 WRITEBACK ACCESS: 103514  HIT: 99708  MISS:  3806  HIT %: 96.3232  MISS %: 3.6768  AVERAGE MISS PENALTY: 0

[...]
LLC1 AVERAGE MISS LATENCY: 206.245 cycles
LLC2 TOTAL     ACCESS: 842503  HIT: 528476  MISS: 314027  HIT %: 62.7269  MISS %: 37.2731  AVERAGE MISS PENALTY: 208.782
LLC2 LOAD      ACCESS: 362380  HIT: 240702  MISS: 121678  HIT %: 66.4225  MISS %: 33.5775  AVERAGE MISS PENALTY: 234.133
LLC2 RFO       ACCESS: 60263  HIT: 55760  MISS:  4503  HIT %: 92.5278  MISS %: 7.47225  AVERAGE MISS PENALTY: 227.727
LLC2 PREFETCH  ACCESS: 324483  HIT: 141677  MISS: 182806  HIT %: 43.6624  MISS %: 56.3376  AVERAGE MISS PENALTY: 197.198
LLC2 WRITEBACK ACCESS: 95377  HIT: 90337  MISS:  5040  HIT %: 94.7157  MISS %: 5.28429  AVERAGE MISS PENALTY: 0
LLC2 PREFETCH  REQUESTED:     0  ISSUED:     0  USEFUL: 158678  USELESS: 1308935
 USEFUL LOAD PREFETCHES:     158678 PREFETCH ISSUED TO LOWER LEVEL:    1466621  ACCURACY: 10.8193
 TIMELY PREFETCHES:     158678 LATE PREFETCHES: 0 DROPPED PREFETCHES: 0
LLC2 AVERAGE MISS LATENCY: 208.782 cycles
LLC3 TOTAL     ACCESS: 841386  HIT: 525329  MISS: 316057  HIT %: 62.4361  MISS %: 37.5639  AVERAGE MISS PENALTY: 206.078
LLC3 LOAD      ACCESS: 359262  HIT: 236954  MISS: 122308  HIT %: 65.9558  MISS %: 34.0442  AVERAGE MISS PENALTY: 231.462
LLC3 RFO       ACCESS: 59240  HIT: 54613  MISS:  4627  HIT %: 92.1894  MISS %: 7.8106  AVERAGE MISS PENALTY: 231.35
LLC3 PREFETCH  ACCESS: 322969  HIT: 139635  MISS: 183334  HIT %: 43.2348  MISS %: 56.7652  AVERAGE MISS PENALTY: 195.011
LLC3 WRITEBACK ACCESS: 99915  HIT: 94127  MISS:  5788  HIT %: 94.2071  MISS %: 5.79292  AVERAGE MISS PENALTY: 0
LLC3 PREFETCH  REQUESTED:     0  ISSUED:     0  USEFUL: 162584  USELESS: 1308837
 USEFUL LOAD PREFETCHES:     162584 PREFETCH ISSUED TO LOWER LEVEL:    1470779  ACCURACY: 11.0543
 TIMELY PREFETCHES:     162584 LATE PREFETCHES: 0 DROPPED PREFETCHES: 0
LLC3 AVERAGE MISS LATENCY: 206.078 cycles
LLC4 TOTAL     ACCESS: 862914  HIT: 544769  MISS: 318145  HIT %: 63.1313  MISS %: 36.8687  AVERAGE MISS PENALTY: 207.876
LLC4 LOAD      ACCESS: 368952  HIT: 246467  MISS: 122485  HIT %: 66.8019  MISS %: 33.1981  AVERAGE MISS PENALTY: 234.526
LLC4 RFO       ACCESS: 63561  HIT: 58731  MISS:  4830  HIT %: 92.401  MISS %: 7.599  AVERAGE MISS PENALTY: 231.672
LLC4 PREFETCH  ACCESS: 327310  HIT: 142426  MISS: 184884  HIT %: 43.5141  MISS %: 56.4859  AVERAGE MISS PENALTY: 196.284
LLC4 WRITEBACK ACCESS: 103091  HIT: 97145  MISS:  5946  HIT %: 94.2323  MISS %: 5.76772  AVERAGE MISS PENALTY: 0
LLC4 PREFETCH  REQUESTED:     0  ISSUED:     0  USEFUL: 163122  USELESS: 1323514
 USEFUL LOAD PREFETCHES:     163122 PREFETCH ISSUED TO LOWER LEVEL:    1486214  ACCURACY: 10.9757
 TIMELY PREFETCHES:     163122 LATE PREFETCHES: 0 DROPPED PREFETCHES: 0
LLC4 AVERAGE MISS LATENCY: 207.876 cycles
LLC5 TOTAL     ACCESS: 860490  HIT: 544102  MISS: 316388  HIT %: 63.2316  MISS %: 36.7684  AVERAGE MISS PENALTY: 207.271
LLC5 LOAD      ACCESS: 360796  HIT: 242357  MISS: 118439  HIT %: 67.1729  MISS %: 32.8271  AVERAGE MISS PENALTY: 234.722
LLC5 RFO       ACCESS: 63560  HIT: 58849  MISS:  4711  HIT %: 92.5881  MISS %: 7.41189  AVERAGE MISS PENALTY: 229.175
LLC5 PREFETCH  ACCESS: 331182  HIT: 144122  MISS: 187060  HIT %: 43.5175  MISS %: 56.4825  AVERAGE MISS PENALTY: 196.183
LLC5 WRITEBACK ACCESS: 104952  HIT: 98774  MISS:  6178  HIT %: 94.1135  MISS %: 5.8865  AVERAGE MISS PENALTY: 0
LLC5 PREFETCH  REQUESTED:     0  ISSUED:     0  USEFUL: 173205  USELESS: 1330015
 USEFUL LOAD PREFETCHES:     173205 PREFETCH ISSUED TO LOWER LEVEL:    1502524  ACCURACY: 11.5276
 TIMELY PREFETCHES:     173205 LATE PREFETCHES: 0 DROPPED PREFETCHES: 0
LLC5 AVERAGE MISS LATENCY: 207.271 cycles
LLC6 TOTAL     ACCESS: 871172  HIT: 550101  MISS: 321071  HIT %: 63.1449  MISS %: 36.8551  AVERAGE MISS PENALTY: 209.339
LLC6 LOAD      ACCESS: 367867  HIT: 246213  MISS: 121654  HIT %: 66.9299  MISS %: 33.0701  AVERAGE MISS PENALTY: 235.016
LLC6 RFO       ACCESS: 65604  HIT: 60651  MISS:  4953  HIT %: 92.4502  MISS %: 7.54984  AVERAGE MISS PENALTY: 230.976
LLC6 PREFETCH  ACCESS: 332729  HIT: 144930  MISS: 187799  HIT %: 43.558  MISS %: 56.442  AVERAGE MISS PENALTY: 199.565
LLC6 WRITEBACK ACCESS: 104972  HIT: 98307  MISS:  6665  HIT %: 93.6507  MISS %: 6.34931  AVERAGE MISS PENALTY: 0
LLC6 PREFETCH  REQUESTED:     0  ISSUED:     0  USEFUL: 171195  USELESS: 1339578
 USEFUL LOAD PREFETCHES:     171195 PREFETCH ISSUED TO LOWER LEVEL:    1510199  ACCURACY: 11.3359
 TIMELY PREFETCHES:     171195 LATE PREFETCHES: 0 DROPPED PREFETCHES: 0
LLC6 AVERAGE MISS LATENCY: 209.339 cycles
LLC7 TOTAL     ACCESS: 875061  HIT: 552407  MISS: 322654  HIT %: 63.1278  MISS %: 36.8722  AVERAGE MISS PENALTY: 209.514
LLC7 LOAD      ACCESS: 366611  HIT: 245652  MISS: 120959  HIT %: 67.0062  MISS %: 32.9938  AVERAGE MISS PENALTY: 235.303
LLC7 RFO       ACCESS: 64103  HIT: 59165  MISS:  4938  HIT %: 92.2968  MISS %: 7.70323  AVERAGE MISS PENALTY: 230.875
LLC7 PREFETCH  ACCESS: 341234  HIT: 151278  MISS: 189956  HIT %: 44.3326  MISS %: 55.6674  AVERAGE MISS PENALTY: 200.038
LLC7 WRITEBACK ACCESS: 103113  HIT: 96312  MISS:  6801  HIT %: 93.4043  MISS %: 6.59568  AVERAGE MISS PENALTY: 0
LLC7 PREFETCH  REQUESTED:     0  ISSUED:     0  USEFUL: 175332  USELESS: 1352928
 USEFUL LOAD PREFETCHES:     175332 PREFETCH ISSUED TO LOWER LEVEL:    1527956  ACCURACY: 11.4749
 TIMELY PREFETCHES:     175332 LATE PREFETCHES: 0 DROPPED PREFETCHES: 0
LLC7 AVERAGE MISS LATENCY: 209.514 cycles
ROI Average ROB Stall Cycles:	10.2088
ROI Total ROB Stalls Cycles:	678014639
ROI TOTAL ROB counter      :	66415012
ROI Average Load ROB Stall Cycles:	12.679
ROI Total Load ROB Stalls Cycle  :	236862242
ROI Total Load ROB stalls Counter:	18681460
Major fault: 0 Minor fault: 45065

CPU 7 cumulative IPC: 0.24199 instructions: 200000000 cycles: 826479540
ITLB TOTAL     ACCESS: 31821274  HIT: 31821274  MISS:     0  HIT %:   100  MISS %:     0  AVERAGE MISS PENALTY: 0
ITLB LOAD      ACCESS: 31821274  HIT: 31821274  MISS:     0  HIT %:   100  MISS %:     0  AVERAGE MISS PENALTY: 0
ITLB RFO       ACCESS:     0  HIT:     0  MISS:     0  HIT %:     0  MISS %:     0  AVERAGE MISS PENALTY: 0
ITLB PREFETCH  ACCESS:     0  HIT:     0  MISS:     0  HIT %:     0  MISS %:     0  AVERAGE MISS PENALTY: 0
ITLB WRITEBACK ACCESS:     0  HIT:     0  MISS:     0  HIT %:     0  MISS %:     0  AVERAGE MISS PENALTY: 0
ITLB PREFETCH  REQUESTED:     0  ISSUED:     0  USEFUL:     0  USELESS:     0
 USEFUL LOAD PREFETCHES:          0 PREFETCH ISSUED TO LOWER LEVEL:          0  ACCURACY: -nan
 TIMELY PREFETCHES:          0 LATE PREFETCHES: 0 DROPPED PREFETCHES: 0
ITLB AVERAGE MISS LATENCY: -nan cycles
DTLB TOTAL     ACCESS: 60453083  HIT: 57754837  MISS: 2698246  HIT %: 95.5366  MISS %: 4.46337  AVERAGE MISS PENALTY: 10.5814
DTLB LOAD      ACCESS: 46158933  HIT: 43851015  MISS: 2307918  HIT %: 95.0001  MISS %: 4.99994  AVERAGE MISS PENALTY: 10.7615
DTLB RFO       ACCESS: 14294150  HIT: 13903822  MISS: 390328  HIT %: 97.2693  MISS %: 2.73068  AVERAGE MISS PENALTY: 9.51608
DTLB PREFETCH  ACCESS:     0  HIT:     0  MISS:     0  HIT %:     0  MISS %:     0  AVERAGE MISS PENALTY: 0
DTLB WRITEBACK ACCESS:     0  HIT:     0  MISS:     0  HIT %:     0  MISS %:     0  AVERAGE MISS PENALTY: 0
DTLB PREFETCH  REQUESTED:     0  ISSUED:     0  USEFUL:     0  USELESS:     0
 USEFUL LOAD PREFETCHES:          0 PREFETCH ISSUED TO LOWER LEVEL:          0  ACCURACY: -nan
 TIMELY PREFETCHES:          0 LATE PREFETCHES: 0 DROPPED PREFETCHES: 0
DTLB AVERAGE MISS LATENCY: 10.5814 cycles
STLB TOTAL     ACCESS: 2698246  HIT: 2663897  MISS: 34349  HIT %: 98.727  MISS %: 1.27301  AVERAGE MISS PENALTY: 100
STLB LOAD      ACCESS: 2307918  HIT: 2274079  MISS: 33839  HIT %: 98.5338  MISS %: 1.46621  AVERAGE MISS PENALTY: 100
STLB RFO       ACCESS: 390328  HIT: 389818  MISS:   510  HIT %: 99.8693  MISS %: 0.130659  AVERAGE MISS PENALTY: 100
STLB PREFETCH  ACCESS:     0  HIT:     0  MISS:     0  HIT %:     0  MISS %:     0  AVERAGE MISS PENALTY: 0
STLB WRITEBACK ACCESS:     0  HIT:     0  MISS:     0  HIT %:     0  MISS %:     0  AVERAGE MISS PENALTY: 0
STLB PREFETCH  REQUESTED:     0  ISSUED:     0  USEFUL:     0  USELESS:     0
 USEFUL LOAD PREFETCHES:          0 PREFETCH ISSUED TO LOWER LEVEL:          0  ACCURACY: -nan
 TIMELY PREFETCHES:          0 LATE PREFETCHES: 0 DROPPED PREFETCHES: 0
STLB AVERAGE MISS LATENCY: 100 cycles
L1D TOTAL     ACCESS: 96739673  HIT: 87586246  MISS: 9153427  HIT %: 90.5381  MISS %: 9.46192  AVERAGE MISS PENALTY: 8.5692e+06
L1D LOAD      ACCESS: 57108679  HIT: 52123414  MISS: 4985265  HIT %: 91.2706  MISS %: 8.72943  AVERAGE MISS PENALTY: 1.56067e+07
L1D RFO       ACCESS: 22664429  HIT: 21926804  MISS: 737625  HIT %: 96.7455  MISS %: 3.25455  AVERAGE MISS PENALTY: 859011
L1D PREFETCH  ACCESS: 16966565  HIT: 13536028  MISS: 3430537  HIT %: 79.7806  MISS %: 20.2194  AVERAGE MISS PENALTY: 81.3054
L1D WRITEBACK ACCESS:     0  HIT:     0  MISS:     0  HIT %:     0  MISS %:     0  AVERAGE MISS PENALTY: 0
L1D PREFETCH  REQUESTED: 18909581  ISSUED: 18796742  USEFUL: 1484484  USELESS: 1945876
 USEFUL LOAD PREFETCHES:    1484484 PREFETCH ISSUED TO LOWER LEVEL:    4077333  ACCURACY: 36.4082
 TIMELY PREFETCHES:    1484484 LATE PREFETCHES: 266156 DROPPED PREFETCHES: 112839
L1D AVERAGE MISS LATENCY: 69302.3 cycles
L1I TOTAL     ACCESS: 42702016  HIT: 42702016  MISS:     0  HIT %:   100  MISS %:     0  AVERAGE MISS PENALTY: 0
L1I LOAD      ACCESS: 42702016  HIT: 42702016  MISS:     0  HIT %:   100  MISS %:     0  AVERAGE MISS PENALTY: 0
L1I RFO       ACCESS:     0  HIT:     0  MISS:     0  HIT %:     0  MISS %:     0  AVERAGE MISS PENALTY: 0
L1I PREFETCH  ACCESS:     0  HIT:     0  MISS:     0  HIT %:     0  MISS %:     0  AVERAGE MISS PENALTY: 0
L1I WRITEBACK ACCESS:     0  HIT:     0  MISS:     0  HIT %:     0  MISS %:     0  AVERAGE MISS PENALTY: 0
L1I PREFETCH  REQUESTED:     0  ISSUED:     0  USEFUL:     0  USELESS:     0
 USEFUL LOAD PREFETCHES:          0 PREFETCH ISSUED TO LOWER LEVEL:          0  ACCURACY: -nan
 TIMELY PREFETCHES:          0 LATE PREFETCHES: 0 DROPPED PREFETCHES: 0
L1I AVERAGE MISS LATENCY: -nan cycles
L2C TOTAL     ACCESS: 12659633  HIT: 5650636  MISS: 7008997  HIT %: 44.6351  MISS %: 55.3649  AVERAGE MISS PENALTY: 3.84216e+06
L2C LOAD      ACCESS: 4970696  HIT: 1621085  MISS: 3349611  HIT %: 32.6128  MISS %: 67.3872  AVERAGE MISS PENALTY: 8.0328e+06
L2C RFO       ACCESS: 736608  HIT: 147671  MISS: 588937  HIT %: 20.0474  MISS %: 79.9526  AVERAGE MISS PENALTY: 38314.1
L2C PREFETCH  ACCESS: 5792887  HIT: 2807527  MISS: 2985360  HIT %: 48.4651  MISS %: 51.5349  AVERAGE MISS PENALTY: 135.479
L2C WRITEBACK ACCESS: 1159442  HIT: 1074353  MISS: 85089  HIT %: 92.6612  MISS %: 7.33879  AVERAGE MISS PENALTY: 0
L2C PREFETCH  REQUESTED: 4327859  ISSUED: 4297747  USEFUL: 505084  USELESS: 2480283
 USEFUL LOAD PREFETCHES:     505084 PREFETCH ISSUED TO LOWER LEVEL:    3276101  ACCURACY: 15.4172
 TIMELY PREFETCHES:     505084 LATE PREFETCHES: 108702 DROPPED PREFETCHES: 30112
L2C AVERAGE MISS LATENCY: 115.256 cycles
LLC0 TOTAL     ACCESS: 987950  HIT: 676108  MISS: 311842  HIT %: 68.4354  MISS %: 31.5646  AVERAGE MISS PENALTY: 227.03
LLC0 LOAD      ACCESS: 438961  HIT: 302402  MISS: 136559  HIT %: 68.8904  MISS %: 31.1096  AVERAGE MISS PENALTY: 251.681
LLC0 RFO       ACCESS: 75150  HIT: 69595  MISS:  5555  HIT %: 92.6081  MISS %: 7.39188  AVERAGE MISS PENALTY: 238.796
LLC0 PREFETCH  ACCESS: 357446  HIT: 191003  MISS: 166443  HIT %: 53.4355  MISS %: 46.5645  AVERAGE MISS PENALTY: 210.893
LLC0 WRITEBACK ACCESS: 116393  HIT: 113108  MISS:  3285  HIT %: 97.1777  MISS %: 2.82233  AVERAGE MISS PENALTY: 0
LLC0 PREFETCH  REQUESTED:     0  ISSUED:     0  USEFUL: 148556  USELESS: 1204414
 USEFUL LOAD PREFETCHES:     148556 PREFETCH ISSUED TO LOWER LEVEL:    1352745  ACCURACY: 10.9818
 TIMELY PREFETCHES:     148556 LATE PREFETCHES: 0 DROPPED PREFETCHES: 0
LLC0 AVERAGE MISS LATENCY: 227.03 cycles
Deadblocks : 826545 Deadblock percentage : 605.266

LLC1 TOTAL     ACCESS: 951058  HIT: 639756  MISS: 311302  HIT %: 67.2678  MISS %: 32.7322  AVERAGE MISS PENALTY: 225.869
LLC1 LOAD      ACCESS: 403785  HIT: 277143  MISS: 126642  HIT %: 68.6363  MISS %: 31.3637  AVERAGE MISS PENALTY: 254.247
LLC1 RFO       ACCESS: 65794  HIT: 60563  MISS:  5231  HIT %: 92.0494  MISS %: 7.95057  AVERAGE MISS PENALTY: 238.018
LLC1 PREFETCH  ACCESS: 373372  HIT: 197497  MISS: 175875  HIT %: 52.8955  MISS %: 47.1045  AVERAGE MISS PENALTY: 209.638
LLC1 WRITEBACK ACCESS: 108107  HIT: 104553  MISS:  3554  HIT %: 96.7125  MISS %: 3.28748  AVERAGE MISS PENALTY: 0
LLC1 PREFETCH  REQUESTED:     0  ISSUED:     0  USEFUL: 165337  USELESS: 1266513
 USEFUL LOAD PREFETCHES:     165337 PREFETCH ISSUED TO LOWER LEVEL:    1430672  ACCURACY: 11.5566
 TIMELY PREFETCHES:     165337 LATE PREFETCHES: 0 DROPPED PREFETCHES: 0
LLC1 AVERAGE MISS LATENCY: 225.869 cycles
LLC2 TOTAL     ACCESS: 955079  HIT: 646124  MISS: 308955  HIT %: 67.6514  MISS %: 32.3486  AVERAGE MISS PENALTY: 233.083
LLC2 LOAD      ACCESS: 401359  HIT: 281797  MISS: 119562  HIT %: 70.2107  MISS %: 29.7893  AVERAGE MISS PENALTY: 258.715
LLC2 RFO       ACCESS: 69866  HIT: 64204  MISS:  5662  HIT %: 91.8959  MISS %: 8.10408  AVERAGE MISS PENALTY: 241.633
LLC2 PREFETCH  ACCESS: 375564  HIT: 195076  MISS: 180488  HIT %: 51.9421  MISS %: 48.0579  AVERAGE MISS PENALTY: 220.023
LLC2 WRITEBACK ACCESS: 108290  HIT: 105047  MISS:  3243  HIT %: 97.0053  MISS %: 2.99474  AVERAGE MISS PENALTY: 0
LLC2 PREFETCH  REQUESTED:     0  ISSUED:     0  USEFUL: 158678  USELESS: 1308935
 USEFUL LOAD PREFETCHES:     158678 PREFETCH ISSUED TO LOWER LEVEL:    1466621  ACCURACY: 10.8193
 TIMELY PREFETCHES:     158678 LATE PREFETCHES: 0 DROPPED PREFETCHES: 0
LLC2 AVERAGE MISS LATENCY: 233.083 cycles
LLC3 TOTAL     ACCESS: 958777  HIT: 646705  MISS: 312072  HIT %: 67.451  MISS %: 32.549  AVERAGE MISS PENALTY: 230.305
LLC3 LOAD      ACCESS: 406906  HIT: 285955  MISS: 120951  HIT %: 70.2754  MISS %: 29.7246  AVERAGE MISS PENALTY: 256.677
LLC3 RFO       ACCESS: 70075  HIT: 64074  MISS:  6001  HIT %: 91.4363  MISS %: 8.56368  AVERAGE MISS PENALTY: 241.517
LLC3 PREFETCH  ACCESS: 368778  HIT: 187776  MISS: 181002  HIT %: 50.9184  MISS %: 49.0816  AVERAGE MISS PENALTY: 217.551
LLC3 WRITEBACK ACCESS: 113018  HIT: 108900  MISS:  4118  HIT %: 96.3563  MISS %: 3.64367  AVERAGE MISS PENALTY: 0
LLC3 PREFETCH  REQUESTED:     0  ISSUED:     0  USEFUL: 162584  USELESS: 1308837
 USEFUL LOAD PREFETCHES:     162584 PREFETCH ISSUED TO LOWER LEVEL:    1470779  ACCURACY: 11.0543
 TIMELY PREFETCHES:     162584 LATE PREFETCHES: 0 DROPPED PREFETCHES: 0
LLC3 AVERAGE MISS LATENCY: 230.305 cycles
LLC4 TOTAL     ACCESS: 986150  HIT: 671878  MISS: 314272  HIT %: 68.1314  MISS %: 31.8686  AVERAGE MISS PENALTY: 227.691
LLC4 LOAD      ACCESS: 416165  HIT: 295828  MISS: 120337  HIT %: 71.0843  MISS %: 28.9157  AVERAGE MISS PENALTY: 259.714
LLC4 RFO       ACCESS: 75461  HIT: 68737  MISS:  6724  HIT %: 91.0894  MISS %: 8.91056  AVERAGE MISS PENALTY: 239.874
LLC4 PREFETCH  ACCESS: 376259  HIT: 192929  MISS: 183330  HIT %: 51.2756  MISS %: 48.7244  AVERAGE MISS PENALTY: 211.044
LLC4 WRITEBACK ACCESS: 118265  HIT: 114384  MISS:  3881  HIT %: 96.7184  MISS %: 3.28161  AVERAGE MISS PENALTY: 0
LLC4 PREFETCH  REQUESTED:     0  ISSUED:     0  USEFUL: 163122  USELESS: 1323514
 USEFUL LOAD PREFETCHES:     163122 PREFETCH ISSUED TO LOWER LEVEL:    1486214  ACCURACY: 10.9757
 TIMELY PREFETCHES:     163122 LATE PREFETCHES: 0 DROPPED PREFETCHES: 0
LLC4 AVERAGE MISS LATENCY: 227.691 cycles
LLC5 TOTAL     ACCESS: 991923  HIT: 678484  MISS: 313439  HIT %: 68.4009  MISS %: 31.5991  AVERAGE MISS PENALTY: 227.495
LLC5 LOAD      ACCESS: 411102  HIT: 294095  MISS: 117007  HIT %: 71.5382  MISS %: 28.4618  AVERAGE MISS PENALTY: 260.275
LLC5 RFO       ACCESS: 75968  HIT: 69257  MISS:  6711  HIT %: 91.166  MISS %: 8.83398  AVERAGE MISS PENALTY: 243.376
LLC5 PREFETCH  ACCESS: 384285  HIT: 199091  MISS: 185194  HIT %: 51.8082  MISS %: 48.1918  AVERAGE MISS PENALTY: 211.77
LLC5 WRITEBACK ACCESS: 120568  HIT: 116041  MISS:  4527  HIT %: 96.2453  MISS %: 3.75473  AVERAGE MISS PENALTY: 0
LLC5 PREFETCH  REQUESTED:     0  ISSUED:     0  USEFUL: 173205  USELESS: 1330015
 USEFUL LOAD PREFETCHES:     173205 PREFETCH ISSUED TO LOWER LEVEL:    1502524  ACCURACY: 11.5276
 TIMELY PREFETCHES:     173205 LATE PREFETCHES: 0 DROPPED PREFETCHES: 0
LLC5 AVERAGE MISS LATENCY: 227.495 cycles
LLC6 TOTAL     ACCESS: 1004940  HIT: 686668  MISS: 318272  HIT %: 68.3293  MISS %: 31.6707  AVERAGE MISS PENALTY: 233.88
LLC6 LOAD      ACCESS: 420565  HIT: 300677  MISS: 119888  HIT %: 71.4936  MISS %: 28.5064  AVERAGE MISS PENALTY: 261.193
LLC6 RFO       ACCESS: 78198  HIT: 71022  MISS:  7176  HIT %: 90.8233  MISS %: 9.17671  AVERAGE MISS PENALTY: 243.09
LLC6 PREFETCH  ACCESS: 385952  HIT: 199491  MISS: 186461  HIT %: 51.688  MISS %: 48.312  AVERAGE MISS PENALTY: 221.918
LLC6 WRITEBACK ACCESS: 120225  HIT: 115478  MISS:  4747  HIT %: 96.0516  MISS %: 3.94843  AVERAGE MISS PENALTY: 0
LLC6 PREFETCH  REQUESTED:     0  ISSUED:     0  USEFUL: 171195  USELESS: 1339578
 USEFUL LOAD PREFETCHES:     171195 PREFETCH ISSUED TO LOWER LEVEL:    1510199  ACCURACY: 11.3359
 TIMELY PREFETCHES:     171195 LATE PREFETCHES: 0 DROPPED PREFETCHES: 0
LLC6 AVERAGE MISS LATENCY: 233.88 cycles
LLC7 TOTAL     ACCESS: 1013173  HIT: 692585  MISS: 320588  HIT %: 68.358  MISS %: 31.642  AVERAGE MISS PENALTY: 233.723
LLC7 LOAD      ACCESS: 418120  HIT: 297841  MISS: 120279  HIT %: 71.2334  MISS %: 28.7666  AVERAGE MISS PENALTY: 260.304
LLC7 RFO       ACCESS: 78400  HIT: 71395  MISS:  7005  HIT %: 91.0651  MISS %: 8.93495  AVERAGE MISS PENALTY: 241.762
LLC7 PREFETCH  ACCESS: 396309  HIT: 207869  MISS: 188440  HIT %: 52.4512  MISS %: 47.5488  AVERAGE MISS PENALTY: 222.491
LLC7 WRITEBACK ACCESS: 120344  HIT: 115480  MISS:  4864  HIT %: 95.9583  MISS %: 4.04175  AVERAGE MISS PENALTY: 0
LLC7 PREFETCH  REQUESTED:     0  ISSUED:     0  USEFUL: 175332  USELESS: 1352928
 USEFUL LOAD PREFETCHES:     175332 PREFETCH ISSUED TO LOWER LEVEL:    1527956  ACCURACY: 11.4749
 TIMELY PREFETCHES:     175332 LATE PREFETCHES: 0 DROPPED PREFETCHES: 0
LLC7 AVERAGE MISS LATENCY: 233.723 cycles
ROI Average ROB Stall Cycles:	10.5621
ROI Total ROB Stalls Cycles:	698374557
ROI TOTAL ROB counter      :	66121056
ROI Average Load ROB Stall Cycles:	13.3979
ROI Total Load ROB Stalls Cycle  :	248866414
ROI Total Load ROB stalls Counter:	18574981
Major fault: 0 Minor fault: 44570








Interconnect Stats 
LINK 0 BW : 0LINK 1 BW : 0LINK 2 BW : 0LINK 3 BW : 0LINK 4 BW : 0LINK 5 BW : 0LINK 6 BW : 0LINK 7 BW : 0
DRAM Statistics
 CHANNEL 0
 RQ ROW_BUFFER_HIT: 2713832  ROW_BUFFER_MISS: 7317685
 DBUS_CONGESTED: 4690860
 WQ ROW_BUFFER_HIT: 95281  ROW_BUFFER_MISS: 489289  FULL:     0

 CHANNEL 1
 RQ ROW_BUFFER_HIT: 2694346  ROW_BUFFER_MISS: 7345154
 DBUS_CONGESTED: 4690860
 WQ ROW_BUFFER_HIT: 97083  ROW_BUFFER_MISS: 507894  FULL:     0

 AVG_CONGESTED_CYCLE: 5
DRAM PAGES: 2097152
Allocated PAGES: 357901
L2C destructor called
L1D destructor called
L1I destructor called
STLB destructor called
DTLB destructor called
ITLB destructor called
L2C destructor called
L1D destructor called
L1I destructor called
STLB destructor called
DTLB destructor called
ITLB destructor called
L2C destructor called
L1D destructor called
L1I destructor called
STLB destructor called
DTLB destructor called
ITLB destructor called
L2C destructor called
L1D destructor called
L1I destructor called
STLB destructor called
DTLB destructor called
ITLB destructor called
L2C destructor called
L1D destructor called
L1I destructor called
STLB destructor called
DTLB destructor called
ITLB destructor called
L2C destructor called
L1D destructor called
L1I destructor called
STLB destructor called
DTLB destructor called
ITLB destructor called
L2C destructor called
L1D destructor called
L1I destructor called
STLB destructor called
DTLB destructor called
ITLB destructor called
L2C destructor called
L1D destructor called
L1I destructor called
STLB destructor called
DTLB destructor called
ITLB destructor called
