
*** ChampSim Multicore Out-of-Order Simulator ***

Warmup Instructions: 200000000
Simulation Instructions: 200000000
Number of CPUs: 8
threads:1

L1I Configuration:
L1I_SET:64
L1I_WAY:8
L1I_RQ_SIZE:64
L1I_WQ_SIZE:64
L1I_PQ_SIZE:8
L1I_MSHR_SIZE:8

L1D Configuration:
L1D_SET:64
L1D_WAY:12
L1D_RQ_SIZE:64
L1D_WQ_SIZE:64
L1D_PQ_SIZE:8
L1D_MSHR_SIZE:16

L2C Configuration:
L2C_SET:1024
L2C_WAY:8
L2C_RQ_SIZE:32
L2C_WQ_SIZE:32
L2C_PQ_SIZE:16
L2C_MSHR_SIZE:32

LLC Configuration:
LLC_SET:2048
LLC_WAY:16
LLC SLICES:8
LLC_RQ_SIZE:64
LLC_WQ_SIZE:64
LLC_PQ_SIZE:32
LLC_MSHR_SIZE:64

Interconnect OFF
Attacker deprioritize is: OFF
Off-chip DRAM Size: 8192 MB Channels: 2 Width: 64-bit Data Rate: 3200 MT/s
PAGE SIZE in KB: 4.000000 
PAGE SIZE in MB: 0.003906 
PAGE offset in bits: 12 
CEASER-S_LLC:0
MIRAGE : 0
CEASER_LATENCY:3
REMAP : OFF
Partitions : 1
Multi-Step : OFF
BFS : OFF

CPU 0 runs /home/anubhav/spec_2017/605.mcf_s-1554B.champsimtrace.xz
CPU 1 runs /home/anubhav/spec_2017/605.mcf_s-1554B.champsimtrace.xz
CPU 2 runs /home/anubhav/spec_2017/605.mcf_s-1554B.champsimtrace.xz
CPU 3 runs /home/anubhav/spec_2017/605.mcf_s-1554B.champsimtrace.xz
CPU 4 runs /home/anubhav/spec_2017/605.mcf_s-1554B.champsimtrace.xz
CPU 5 runs /home/anubhav/spec_2017/605.mcf_s-1554B.champsimtrace.xz
CPU 6 runs /home/anubhav/spec_2017/605.mcf_s-1554B.champsimtrace.xz
CPU 7 runs /home/anubhav/spec_2017/605.mcf_s-1554B.champsimtrace.xz
CPU 0 Bimodal branch predictor
Initialize Hawkeye state
Initialize Hawkeye state
Initialize Hawkeye state
Initialize Hawkeye state
Initialize Hawkeye state
Initialize Hawkeye state
Initialize Hawkeye state
Initialize Hawkeye state
CPU 1 Bimodal branch predictor
Initialize Hawkeye state
Initialize Hawkeye state
Initialize Hawkeye state
Initialize Hawkeye state
Initialize Hawkeye state
Initialize Hawkeye state
Initialize Hawkeye state
Initialize Hawkeye state
CPU 2 Bimodal branch predictor
Initialize Hawkeye state
Initialize Hawkeye state
Initialize Hawkeye state
Initialize Hawkeye state
Initialize Hawkeye state
Initialize Hawkeye state
Initialize Hawkeye state
Initialize Hawkeye state
CPU 3 Bimodal branch predictor
Initialize Hawkeye state
Initialize Hawkeye state
Initialize Hawkeye state
Initialize Hawkeye state
Initialize Hawkeye state
Initialize Hawkeye state
Initialize Hawkeye state
Initialize Hawkeye state
CPU 4 Bimodal branch predictor
Initialize Hawkeye state
Initialize Hawkeye state
Initialize Hawkeye state
Initialize Hawkeye state
Initialize Hawkeye state
Initialize Hawkeye state
Initialize Hawkeye state
Initialize Hawkeye state
CPU 5 Bimodal branch predictor
Initialize Hawkeye state
Initialize Hawkeye state
Initialize Hawkeye state
Initialize Hawkeye state
Initialize Hawkeye state
Initialize Hawkeye state
Initialize Hawkeye state
Initialize Hawkeye state
CPU 6 Bimodal branch predictor
Initialize Hawkeye state
Initialize Hawkeye state
Initialize Hawkeye state
Initialize Hawkeye state
Initialize Hawkeye state
Initialize Hawkeye state
Initialize Hawkeye state
Initialize Hawkeye state
CPU 7 Bimodal branch predictor
Initialize Hawkeye state
Initialize Hawkeye state
Initialize Hawkeye state
Initialize Hawkeye state
Initialize Hawkeye state
Initialize Hawkeye state
Initialize Hawkeye state
Initialize Hawkeye state
Heartbeat CPU 0 instructions: 10000000 cycles: 5934857 heartbeat IPC: 1.68496 cumulative IPC: 1.68496 (Simulation time: 11 hr 43 min 11 sec) 
 Total Blocks : 262144 Invalid Blocks : 9
Heartbeat CPU 2 instructions: 10000000 cycles: 5935093 heartbeat IPC: 1.68489 cumulative IPC: 1.68489 (Simulation time: 11 hr 43 min 20 sec) 
 Total Blocks : 262144 Invalid Blocks : 9
Heartbeat CPU 3 instructions: 10000000 cycles: 5935104 heartbeat IPC: 1.68489 cumulative IPC: 1.68489 (Simulation time: 11 hr 43 min 20 sec) 
 Total Blocks : 262144 Invalid Blocks : 9
Heartbeat CPU 1 instructions: 10000000 cycles: 5935370 heartbeat IPC: 1.68481 cumulative IPC: 1.68481 (Simulation time: 11 hr 43 min 23 sec) 
 Total Blocks : 262144 Invalid Blocks : 9
Heartbeat CPU 5 instructions: 10000000 cycles: 5935810 heartbeat IPC: 1.68469 cumulative IPC: 1.68469 (Simulation time: 11 hr 43 min 25 sec) 
 Total Blocks : 262144 Invalid Blocks : 9
Heartbeat CPU 6 instructions: 10000000 cycles: 5935965 heartbeat IPC: 1.68465 cumulative IPC: 1.68465 (Simulation time: 11 hr 43 min 25 sec) 
 Total Blocks : 262144 Invalid Blocks : 9
Heartbeat CPU 7 instructions: 10000000 cycles: 5936044 heartbeat IPC: 1.68462 cumulative IPC: 1.68462 (Simulation time: 11 hr 43 min 25 sec) 
 Total Blocks : 262144 Invalid Blocks : 9
Heartbeat CPU 4 instructions: 10000000 cycles: 5936113 heartbeat IPC: 1.6846 cumulative IPC: 1.6846 (Simulation time: 11 hr 43 min 25 sec) 
 Total Blocks : 262144 Invalid Blocks : 9
Heartbeat CPU 0 instructions: 20000003 cycles: 11777645 heartbeat IPC: 1.71151 cumulative IPC: 1.69813 (Simulation time: 19 hr 16 min 47 sec) 
 Total Blocks : 262144 Invalid Blocks : 0
Heartbeat CPU 3 instructions: 20000003 cycles: 11777910 heartbeat IPC: 1.71151 cumulative IPC: 1.69809 (Simulation time: 19 hr 16 min 50 sec) 
 Total Blocks : 262144 Invalid Blocks : 0
Heartbeat CPU 2 instructions: 20000003 cycles: 11778114 heartbeat IPC: 1.71144 cumulative IPC: 1.69807 (Simulation time: 19 hr 16 min 51 sec) 
 Total Blocks : 262144 Invalid Blocks : 0
Heartbeat CPU 1 instructions: 20000003 cycles: 11778759 heartbeat IPC: 1.71134 cumulative IPC: 1.69797 (Simulation time: 19 hr 16 min 52 sec) 
 Total Blocks : 262144 Invalid Blocks : 0
Heartbeat CPU 5 instructions: 20000003 cycles: 11779400 heartbeat IPC: 1.71128 cumulative IPC: 1.69788 (Simulation time: 19 hr 16 min 52 sec) 
 Total Blocks : 262144 Invalid Blocks : 0
Heartbeat CPU 6 instructions: 20000003 cycles: 11779707 heartbeat IPC: 1.71123 cumulative IPC: 1.69784 (Simulation time: 19 hr 16 min 53 sec) 
 Total Blocks : 262144 Invalid Blocks : 0
Heartbeat CPU 4 instructions: 20000003 cycles: 11779798 heartbeat IPC: 1.71125 cumulative IPC: 1.69782 (Simulation time: 19 hr 16 min 53 sec) 
 Total Blocks : 262144 Invalid Blocks : 0
Heartbeat CPU 7 instructions: 20000003 cycles: 11779914 heartbeat IPC: 1.7112 cumulative IPC: 1.69781 (Simulation time: 19 hr 16 min 54 sec) 
 Total Blocks : 262144 Invalid Blocks : 0
Heartbeat CPU 0 instructions: 30000002 cycles: 17506760 heartbeat IPC: 1.74547 cumulative IPC: 1.71362 (Simulation time: 25 hr 6 min 24 sec) 
 Total Blocks : 262144 Invalid Blocks : 0
Heartbeat CPU 3 instructions: 30000002 cycles: 17507334 heartbeat IPC: 1.74538 cumulative IPC: 1.71357 (Simulation time: 25 hr 6 min 26 sec) 
 Total Blocks : 262144 Invalid Blocks : 0
Heartbeat CPU 2 instructions: 30000002 cycles: 17507542 heartbeat IPC: 1.74537 cumulative IPC: 1.71355 (Simulation time: 25 hr 6 min 27 sec) 
 Total Blocks : 262144 Invalid Blocks : 0
Heartbeat CPU 1 instructions: 30000002 cycles: 17508407 heartbeat IPC: 1.74531 cumulative IPC: 1.71346 (Simulation time: 25 hr 6 min 28 sec) 
 Total Blocks : 262144 Invalid Blocks : 0
Heartbeat CPU 5 instructions: 30000002 cycles: 17509489 heartbeat IPC: 1.74517 cumulative IPC: 1.71336 (Simulation time: 25 hr 6 min 29 sec) 
 Total Blocks : 262144 Invalid Blocks : 0
Heartbeat CPU 6 instructions: 30000002 cycles: 17509802 heartbeat IPC: 1.74517 cumulative IPC: 1.71333 (Simulation time: 25 hr 6 min 30 sec) 
 Total Blocks : 262144 Invalid Blocks : 0
Heartbeat CPU 4 instructions: 30000002 cycles: 17509980 heartbeat IPC: 1.74515 cumulative IPC: 1.71331 (Simulation time: 25 hr 6 min 30 sec) 
 Total Blocks : 262144 Invalid Blocks : 0
Heartbeat CPU 7 instructions: 30000002 cycles: 17510084 heartbeat IPC: 1.74515 cumulative IPC: 1.7133 (Simulation time: 25 hr 6 min 30 sec) 
 Total Blocks : 262144 Invalid Blocks : 0
Heartbeat CPU 0 instructions: 40000003 cycles: 23321100 heartbeat IPC: 1.71989 cumulative IPC: 1.71519 (Simulation time: 29 hr 44 min 52 sec) 
 Total Blocks : 262144 Invalid Blocks : 0
Heartbeat CPU 3 instructions: 40000003 cycles: 23321949 heartbeat IPC: 1.7198 cumulative IPC: 1.71512 (Simulation time: 29 hr 44 min 55 sec) 
 Total Blocks : 262144 Invalid Blocks : 0
Heartbeat CPU 2 instructions: 40000003 cycles: 23322006 heartbeat IPC: 1.71985 cumulative IPC: 1.71512 (Simulation time: 29 hr 44 min 55 sec) 
 Total Blocks : 262144 Invalid Blocks : 0
Heartbeat CPU 1 instructions: 40000003 cycles: 23322998 heartbeat IPC: 1.71981 cumulative IPC: 1.71505 (Simulation time: 29 hr 44 min 56 sec) 
 Total Blocks : 262144 Invalid Blocks : 0
Heartbeat CPU 5 instructions: 40000003 cycles: 23324617 heartbeat IPC: 1.71965 cumulative IPC: 1.71493 (Simulation time: 29 hr 44 min 58 sec) 
 Total Blocks : 262144 Invalid Blocks : 0
Heartbeat CPU 6 instructions: 40000003 cycles: 23324767 heartbeat IPC: 1.7197 cumulative IPC: 1.71492 (Simulation time: 29 hr 44 min 59 sec) 
 Total Blocks : 262144 Invalid Blocks : 0
Heartbeat CPU 4 instructions: 40000003 cycles: 23325055 heartbeat IPC: 1.71967 cumulative IPC: 1.71489 (Simulation time: 29 hr 44 min 59 sec) 
 Total Blocks : 262144 Invalid Blocks : 0
Heartbeat CPU 7 instructions: 40000003 cycles: 23325279 heartbeat IPC: 1.71963 cumulative IPC: 1.71488 (Simulation time: 29 hr 44 min 59 sec) 
 Total Blocks : 262144 Invalid Blocks : 0
Heartbeat CPU 0 instructions: 50000003 cycles: 29145512 heartbeat IPC: 1.71691 cumulative IPC: 1.71553 (Simulation time: 33 hr 57 min 11 sec) 
 Total Blocks : 262144 Invalid Blocks : 0
Heartbeat CPU 2 instructions: 50000003 cycles: 29146531 heartbeat IPC: 1.71688 cumulative IPC: 1.71547 (Simulation time: 33 hr 57 min 12 sec) 
 Total Blocks : 262144 Invalid Blocks : 0
Heartbeat CPU 3 instructions: 50000003 cycles: 29146611 heartbeat IPC: 1.71684 cumulative IPC: 1.71547 (Simulation time: 33 hr 57 min 12 sec) 
 Total Blocks : 262144 Invalid Blocks : 0
Heartbeat CPU 1 instructions: 50000003 cycles: 29147816 heartbeat IPC: 1.71679 cumulative IPC: 1.71539 (Simulation time: 33 hr 57 min 12 sec) 
 Total Blocks : 262144 Invalid Blocks : 0
Heartbeat CPU 5 instructions: 50000003 cycles: 29149967 heartbeat IPC: 1.71664 cumulative IPC: 1.71527 (Simulation time: 33 hr 57 min 13 sec) 
 Total Blocks : 262144 Invalid Blocks : 0
Heartbeat CPU 6 instructions: 50000003 cycles: 29150001 heartbeat IPC: 1.71667 cumulative IPC: 1.71527 (Simulation time: 33 hr 57 min 13 sec) 
 Total Blocks : 262144 Invalid Blocks : 0
Heartbeat CPU 4 instructions: 50000003 cycles: 29150551 heartbeat IPC: 1.71659 cumulative IPC: 1.71523 (Simulation time: 33 hr 57 min 14 sec) 
 Total Blocks : 262144 Invalid Blocks : 0
Heartbeat CPU 7 instructions: 50000003 cycles: 29150870 heartbeat IPC: 1.71656 cumulative IPC: 1.71521 (Simulation time: 33 hr 57 min 14 sec) 
 Total Blocks : 262144 Invalid Blocks : 0
Heartbeat CPU 0 instructions: 60000001 cycles: 34898965 heartbeat IPC: 1.73809 cumulative IPC: 1.71925 (Simulation time: 37 hr 47 min 14 sec) 
 Total Blocks : 262144 Invalid Blocks : 0
Heartbeat CPU 3 instructions: 60000001 cycles: 34900180 heartbeat IPC: 1.73805 cumulative IPC: 1.71919 (Simulation time: 37 hr 47 min 16 sec) 
 Total Blocks : 262144 Invalid Blocks : 0
Heartbeat CPU 2 instructions: 60000001 cycles: 34900227 heartbeat IPC: 1.73801 cumulative IPC: 1.71919 (Simulation time: 37 hr 47 min 16 sec) 
 Total Blocks : 262144 Invalid Blocks : 0
Heartbeat CPU 1 instructions: 60000001 cycles: 34902115 heartbeat IPC: 1.73783 cumulative IPC: 1.71909 (Simulation time: 37 hr 47 min 18 sec) 
 Total Blocks : 262144 Invalid Blocks : 0
Heartbeat CPU 5 instructions: 60000001 cycles: 34904213 heartbeat IPC: 1.73785 cumulative IPC: 1.71899 (Simulation time: 37 hr 47 min 20 sec) 
 Total Blocks : 262144 Invalid Blocks : 0
Heartbeat CPU 6 instructions: 60000001 cycles: 34904220 heartbeat IPC: 1.73785 cumulative IPC: 1.71899 (Simulation time: 37 hr 47 min 20 sec) 
 Total Blocks : 262144 Invalid Blocks : 0
Heartbeat CPU 7 instructions: 60000001 cycles: 34905300 heartbeat IPC: 1.73779 cumulative IPC: 1.71894 (Simulation time: 37 hr 47 min 21 sec) 
 Total Blocks : 262144 Invalid Blocks : 0
Heartbeat CPU 4 instructions: 60000001 cycles: 34905305 heartbeat IPC: 1.73769 cumulative IPC: 1.71894 (Simulation time: 37 hr 47 min 21 sec) 
 Total Blocks : 262144 Invalid Blocks : 0
Heartbeat CPU 0 instructions: 70000001 cycles: 40769630 heartbeat IPC: 1.70338 cumulative IPC: 1.71696 (Simulation time: 41 hr 8 min 40 sec) 
 Total Blocks : 262144 Invalid Blocks : 0
Heartbeat CPU 2 instructions: 70000001 cycles: 40770888 heartbeat IPC: 1.70339 cumulative IPC: 1.71691 (Simulation time: 41 hr 8 min 43 sec) 
 Total Blocks : 262144 Invalid Blocks : 0
Heartbeat CPU 3 instructions: 70000001 cycles: 40770981 heartbeat IPC: 1.70335 cumulative IPC: 1.71691 (Simulation time: 41 hr 8 min 43 sec) 
 Total Blocks : 262144 Invalid Blocks : 0
Heartbeat CPU 1 instructions: 70000001 cycles: 40773441 heartbeat IPC: 1.70319 cumulative IPC: 1.7168 (Simulation time: 41 hr 8 min 46 sec) 
 Total Blocks : 262144 Invalid Blocks : 0
Heartbeat CPU 6 instructions: 70000001 cycles: 40775618 heartbeat IPC: 1.70317 cumulative IPC: 1.71671 (Simulation time: 41 hr 8 min 47 sec) 
 Total Blocks : 262144 Invalid Blocks : 0
Heartbeat CPU 5 instructions: 70000001 cycles: 40775659 heartbeat IPC: 1.70316 cumulative IPC: 1.71671 (Simulation time: 41 hr 8 min 47 sec) 
 Total Blocks : 262144 Invalid Blocks : 0
Heartbeat CPU 4 instructions: 70000001 cycles: 40776805 heartbeat IPC: 1.70314 cumulative IPC: 1.71666 (Simulation time: 41 hr 8 min 48 sec) 
 Total Blocks : 262144 Invalid Blocks : 0
Heartbeat CPU 7 instructions: 70000001 cycles: 40776905 heartbeat IPC: 1.70311 cumulative IPC: 1.71666 (Simulation time: 41 hr 8 min 49 sec) 
 Total Blocks : 262144 Invalid Blocks : 0
Heartbeat CPU 0 instructions: 80000000 cycles: 46650469 heartbeat IPC: 1.70044 cumulative IPC: 1.71488 (Simulation time: 44 hr 30 min 8 sec) 
 Total Blocks : 262144 Invalid Blocks : 0
Heartbeat CPU 2 instructions: 80000000 cycles: 46651903 heartbeat IPC: 1.70039 cumulative IPC: 1.71483 (Simulation time: 44 hr 30 min 16 sec) 
 Total Blocks : 262144 Invalid Blocks : 0
Heartbeat CPU 3 instructions: 80000000 cycles: 46652019 heartbeat IPC: 1.70038 cumulative IPC: 1.71482 (Simulation time: 44 hr 30 min 16 sec) 
 Total Blocks : 262144 Invalid Blocks : 0
Heartbeat CPU 1 instructions: 80000000 cycles: 46654851 heartbeat IPC: 1.70027 cumulative IPC: 1.71472 (Simulation time: 44 hr 30 min 18 sec) 
 Total Blocks : 262144 Invalid Blocks : 0
Heartbeat CPU 6 instructions: 80000000 cycles: 46657069 heartbeat IPC: 1.70026 cumulative IPC: 1.71464 (Simulation time: 44 hr 30 min 23 sec) 
 Total Blocks : 262144 Invalid Blocks : 0
Heartbeat CPU 5 instructions: 80000000 cycles: 46657232 heartbeat IPC: 1.70023 cumulative IPC: 1.71463 (Simulation time: 44 hr 30 min 23 sec) 
 Total Blocks : 262144 Invalid Blocks : 0
Heartbeat CPU 7 instructions: 80000000 cycles: 46658408 heartbeat IPC: 1.70025 cumulative IPC: 1.71459 (Simulation time: 44 hr 30 min 25 sec) 
 Total Blocks : 262144 Invalid Blocks : 0
Heartbeat CPU 4 instructions: 80000000 cycles: 46658495 heartbeat IPC: 1.70019 cumulative IPC: 1.71459 (Simulation time: 44 hr 30 min 25 sec) 
 Total Blocks : 262144 Invalid Blocks : 0
Heartbeat CPU 0 instructions: 90000002 cycles: 52413161 heartbeat IPC: 1.7353 cumulative IPC: 1.71713 (Simulation time: 47 hr 19 min 19 sec) 
 Total Blocks : 262144 Invalid Blocks : 0
Heartbeat CPU 3 instructions: 90000002 cycles: 52414543 heartbeat IPC: 1.73535 cumulative IPC: 1.71708 (Simulation time: 47 hr 19 min 22 sec) 
 Total Blocks : 262144 Invalid Blocks : 0
Heartbeat CPU 2 instructions: 90000002 cycles: 52414668 heartbeat IPC: 1.73528 cumulative IPC: 1.71708 (Simulation time: 47 hr 19 min 22 sec) 
 Total Blocks : 262144 Invalid Blocks : 0
Heartbeat CPU 1 instructions: 90000002 cycles: 52418045 heartbeat IPC: 1.73515 cumulative IPC: 1.71697 (Simulation time: 47 hr 19 min 25 sec) 
 Total Blocks : 262144 Invalid Blocks : 0
Heartbeat CPU 5 instructions: 90000002 cycles: 52420455 heartbeat IPC: 1.73514 cumulative IPC: 1.71689 (Simulation time: 47 hr 19 min 27 sec) 
 Total Blocks : 262144 Invalid Blocks : 0
Heartbeat CPU 6 instructions: 90000002 cycles: 52420833 heartbeat IPC: 1.73498 cumulative IPC: 1.71687 (Simulation time: 47 hr 19 min 28 sec) 
 Total Blocks : 262144 Invalid Blocks : 0
Heartbeat CPU 4 instructions: 90000002 cycles: 52421871 heartbeat IPC: 1.73509 cumulative IPC: 1.71684 (Simulation time: 47 hr 19 min 29 sec) 
 Total Blocks : 262144 Invalid Blocks : 0
Heartbeat CPU 7 instructions: 90000002 cycles: 52422016 heartbeat IPC: 1.73502 cumulative IPC: 1.71684 (Simulation time: 47 hr 19 min 29 sec) 
 Total Blocks : 262144 Invalid Blocks : 0
Heartbeat CPU 0 instructions: 100000003 cycles: 58160112 heartbeat IPC: 1.74005 cumulative IPC: 1.71939 (Simulation time: 50 hr 0 min 34 sec) 
 Total Blocks : 262144 Invalid Blocks : 0
Heartbeat CPU 3 instructions: 100000003 cycles: 58161346 heartbeat IPC: 1.7401 cumulative IPC: 1.71935 (Simulation time: 50 hr 0 min 36 sec) 
 Total Blocks : 262144 Invalid Blocks : 0
Heartbeat CPU 2 instructions: 100000000 cycles: 58161447 heartbeat IPC: 1.7401 cumulative IPC: 1.71935 (Simulation time: 50 hr 0 min 36 sec) 
 Total Blocks : 262144 Invalid Blocks : 0
Heartbeat CPU 1 instructions: 100000000 cycles: 58165448 heartbeat IPC: 1.73992 cumulative IPC: 1.71923 (Simulation time: 50 hr 0 min 39 sec) 
 Total Blocks : 262144 Invalid Blocks : 0
Heartbeat CPU 5 instructions: 100000000 cycles: 58167700 heartbeat IPC: 1.73996 cumulative IPC: 1.71917 (Simulation time: 50 hr 0 min 41 sec) 
 Total Blocks : 262144 Invalid Blocks : 0
Heartbeat CPU 6 instructions: 100000000 cycles: 58168341 heartbeat IPC: 1.73988 cumulative IPC: 1.71915 (Simulation time: 50 hr 0 min 42 sec) 
 Total Blocks : 262144 Invalid Blocks : 0
Heartbeat CPU 4 instructions: 100000000 cycles: 58169328 heartbeat IPC: 1.7399 cumulative IPC: 1.71912 (Simulation time: 50 hr 0 min 43 sec) 
 Total Blocks : 262144 Invalid Blocks : 0
Heartbeat CPU 7 instructions: 100000000 cycles: 58169550 heartbeat IPC: 1.73988 cumulative IPC: 1.71911 (Simulation time: 50 hr 0 min 43 sec) 
 Total Blocks : 262144 Invalid Blocks : 0
Heartbeat CPU 0 instructions: 110000000 cycles: 63891558 heartbeat IPC: 1.74476 cumulative IPC: 1.72167 (Simulation time: 52 hr 16 min 32 sec) 
 Total Blocks : 262144 Invalid Blocks : 0
Heartbeat CPU 3 instructions: 110000000 cycles: 63893264 heartbeat IPC: 1.74462 cumulative IPC: 1.72162 (Simulation time: 52 hr 16 min 34 sec) 
 Total Blocks : 262144 Invalid Blocks : 0
Heartbeat CPU 2 instructions: 110000000 cycles: 63894261 heartbeat IPC: 1.74434 cumulative IPC: 1.72159 (Simulation time: 52 hr 16 min 35 sec) 
 Total Blocks : 262144 Invalid Blocks : 0
Heartbeat CPU 1 instructions: 110000000 cycles: 63897221 heartbeat IPC: 1.74466 cumulative IPC: 1.72151 (Simulation time: 52 hr 16 min 37 sec) 
 Total Blocks : 262144 Invalid Blocks : 0
Heartbeat CPU 5 instructions: 110000000 cycles: 63900167 heartbeat IPC: 1.74445 cumulative IPC: 1.72144 (Simulation time: 52 hr 16 min 39 sec) 
 Total Blocks : 262144 Invalid Blocks : 0
Heartbeat CPU 6 instructions: 110000000 cycles: 63900740 heartbeat IPC: 1.74447 cumulative IPC: 1.72142 (Simulation time: 52 hr 16 min 39 sec) 
 Total Blocks : 262144 Invalid Blocks : 0
Heartbeat CPU 4 instructions: 110000000 cycles: 63901154 heartbeat IPC: 1.74464 cumulative IPC: 1.72141 (Simulation time: 52 hr 16 min 39 sec) 
 Total Blocks : 262144 Invalid Blocks : 0
Heartbeat CPU 7 instructions: 110000000 cycles: 63902572 heartbeat IPC: 1.74428 cumulative IPC: 1.72137 (Simulation time: 52 hr 16 min 40 sec) 
 Total Blocks : 262144 Invalid Blocks : 0
Heartbeat CPU 0 instructions: 120000000 cycles: 69426137 heartbeat IPC: 1.80682 cumulative IPC: 1.72846 (Simulation time: 54 hr 23 min 37 sec) 
 Total Blocks : 262144 Invalid Blocks : 0
Heartbeat CPU 3 instructions: 120000000 cycles: 69428730 heartbeat IPC: 1.80653 cumulative IPC: 1.72839 (Simulation time: 54 hr 23 min 44 sec) 
 Total Blocks : 262144 Invalid Blocks : 0
Heartbeat CPU 2 instructions: 120000000 cycles: 69429058 heartbeat IPC: 1.80675 cumulative IPC: 1.72838 (Simulation time: 54 hr 23 min 44 sec) 
 Total Blocks : 262144 Invalid Blocks : 0
Heartbeat CPU 1 instructions: 120000000 cycles: 69433761 heartbeat IPC: 1.80618 cumulative IPC: 1.72827 (Simulation time: 54 hr 23 min 49 sec) 
 Total Blocks : 262144 Invalid Blocks : 0
Heartbeat CPU 5 instructions: 120000000 cycles: 69435723 heartbeat IPC: 1.8065 cumulative IPC: 1.72822 (Simulation time: 54 hr 23 min 54 sec) 
 Total Blocks : 262144 Invalid Blocks : 0
Heartbeat CPU 6 instructions: 120000000 cycles: 69436213 heartbeat IPC: 1.80653 cumulative IPC: 1.7282 (Simulation time: 54 hr 23 min 54 sec) 
 Total Blocks : 262144 Invalid Blocks : 0
Heartbeat CPU 4 instructions: 120000000 cycles: 69437203 heartbeat IPC: 1.80634 cumulative IPC: 1.72818 (Simulation time: 54 hr 23 min 54 sec) 
 Total Blocks : 262144 Invalid Blocks : 0
Heartbeat CPU 7 instructions: 120000000 cycles: 69437963 heartbeat IPC: 1.80656 cumulative IPC: 1.72816 (Simulation time: 54 hr 23 min 55 sec) 
 Total Blocks : 262144 Invalid Blocks : 0
Heartbeat CPU 0 instructions: 130000003 cycles: 75113131 heartbeat IPC: 1.7584 cumulative IPC: 1.73072 (Simulation time: 56 hr 19 min 34 sec) 
 Total Blocks : 262144 Invalid Blocks : 0
Heartbeat CPU 3 instructions: 130000003 cycles: 75113272 heartbeat IPC: 1.75916 cumulative IPC: 1.73072 (Simulation time: 56 hr 19 min 34 sec) 
 Total Blocks : 262144 Invalid Blocks : 0
Heartbeat CPU 2 instructions: 130000003 cycles: 75113677 heartbeat IPC: 1.75913 cumulative IPC: 1.73071 (Simulation time: 56 hr 19 min 35 sec) 
 Total Blocks : 262144 Invalid Blocks : 0
Heartbeat CPU 1 instructions: 130000003 cycles: 75119149 heartbeat IPC: 1.7589 cumulative IPC: 1.73058 (Simulation time: 56 hr 19 min 38 sec) 
 Total Blocks : 262144 Invalid Blocks : 0
Heartbeat CPU 5 instructions: 130000003 cycles: 75121277 heartbeat IPC: 1.75884 cumulative IPC: 1.73054 (Simulation time: 56 hr 19 min 39 sec) 
 Total Blocks : 262144 Invalid Blocks : 0
Heartbeat CPU 6 instructions: 130000003 cycles: 75121471 heartbeat IPC: 1.75894 cumulative IPC: 1.73053 (Simulation time: 56 hr 19 min 40 sec) 
 Total Blocks : 262144 Invalid Blocks : 0
Heartbeat CPU 4 instructions: 130000003 cycles: 75122727 heartbeat IPC: 1.75885 cumulative IPC: 1.7305 (Simulation time: 56 hr 19 min 40 sec) 
 Total Blocks : 262144 Invalid Blocks : 0
Heartbeat CPU 7 instructions: 130000003 cycles: 75123893 heartbeat IPC: 1.75873 cumulative IPC: 1.73047 (Simulation time: 56 hr 19 min 41 sec) 
 Total Blocks : 262144 Invalid Blocks : 0
Heartbeat CPU 0 instructions: 140000003 cycles: 80719564 heartbeat IPC: 1.78367 cumulative IPC: 1.7344 (Simulation time: 57 hr 55 min 56 sec) 
 Total Blocks : 262144 Invalid Blocks : 0
Heartbeat CPU 3 instructions: 140000003 cycles: 80719918 heartbeat IPC: 1.7836 cumulative IPC: 1.73439 (Simulation time: 57 hr 55 min 57 sec) 
 Total Blocks : 262144 Invalid Blocks : 0
Heartbeat CPU 2 instructions: 140000003 cycles: 80720486 heartbeat IPC: 1.78355 cumulative IPC: 1.73438 (Simulation time: 57 hr 55 min 57 sec) 
 Total Blocks : 262144 Invalid Blocks : 0
Heartbeat CPU 1 instructions: 140000003 cycles: 80726320 heartbeat IPC: 1.78343 cumulative IPC: 1.73425 (Simulation time: 57 hr 56 min 2 sec) 
 Total Blocks : 262144 Invalid Blocks : 0
Heartbeat CPU 5 instructions: 140000003 cycles: 80728787 heartbeat IPC: 1.78332 cumulative IPC: 1.7342 (Simulation time: 57 hr 56 min 4 sec) 
 Total Blocks : 262144 Invalid Blocks : 0
Heartbeat CPU 6 instructions: 140000003 cycles: 80728975 heartbeat IPC: 1.78332 cumulative IPC: 1.7342 (Simulation time: 57 hr 56 min 4 sec) 
 Total Blocks : 262144 Invalid Blocks : 0
Heartbeat CPU 4 instructions: 140000003 cycles: 80729753 heartbeat IPC: 1.78348 cumulative IPC: 1.73418 (Simulation time: 57 hr 56 min 5 sec) 
 Total Blocks : 262144 Invalid Blocks : 0
Heartbeat CPU 7 instructions: 140000003 cycles: 80731088 heartbeat IPC: 1.78342 cumulative IPC: 1.73415 (Simulation time: 57 hr 56 min 5 sec) 
 Total Blocks : 262144 Invalid Blocks : 0
Heartbeat CPU 0 instructions: 150000000 cycles: 86308504 heartbeat IPC: 1.78925 cumulative IPC: 1.73795 (Simulation time: 59 hr 30 min 34 sec) 
 Total Blocks : 262144 Invalid Blocks : 0
Heartbeat CPU 3 instructions: 150000000 cycles: 86308912 heartbeat IPC: 1.78923 cumulative IPC: 1.73794 (Simulation time: 59 hr 30 min 34 sec) 
 Total Blocks : 262144 Invalid Blocks : 0
Heartbeat CPU 2 instructions: 150000000 cycles: 86309359 heartbeat IPC: 1.78927 cumulative IPC: 1.73793 (Simulation time: 59 hr 30 min 35 sec) 
 Total Blocks : 262144 Invalid Blocks : 0
Heartbeat CPU 1 instructions: 150000000 cycles: 86315395 heartbeat IPC: 1.7892 cumulative IPC: 1.73781 (Simulation time: 59 hr 30 min 40 sec) 
 Total Blocks : 262144 Invalid Blocks : 0
Heartbeat CPU 5 instructions: 150000000 cycles: 86318441 heartbeat IPC: 1.78902 cumulative IPC: 1.73775 (Simulation time: 59 hr 30 min 42 sec) 
 Total Blocks : 262144 Invalid Blocks : 0
Heartbeat CPU 6 instructions: 150000000 cycles: 86318621 heartbeat IPC: 1.78902 cumulative IPC: 1.73775 (Simulation time: 59 hr 30 min 42 sec) 
 Total Blocks : 262144 Invalid Blocks : 0
Heartbeat CPU 4 instructions: 150000000 cycles: 86319314 heartbeat IPC: 1.78905 cumulative IPC: 1.73773 (Simulation time: 59 hr 30 min 43 sec) 
 Total Blocks : 262144 Invalid Blocks : 0
Heartbeat CPU 7 instructions: 150000000 cycles: 86320412 heartbeat IPC: 1.78912 cumulative IPC: 1.73771 (Simulation time: 59 hr 30 min 44 sec) 
 Total Blocks : 262144 Invalid Blocks : 0
Heartbeat CPU 0 instructions: 160000001 cycles: 91717873 heartbeat IPC: 1.84864 cumulative IPC: 1.74448 (Simulation time: 60 hr 52 min 42 sec) 
 Total Blocks : 262144 Invalid Blocks : 0
Heartbeat CPU 3 instructions: 160000001 cycles: 91718163 heartbeat IPC: 1.84868 cumulative IPC: 1.74447 (Simulation time: 60 hr 52 min 42 sec) 
 Total Blocks : 262144 Invalid Blocks : 0
Heartbeat CPU 2 instructions: 160000001 cycles: 91718698 heartbeat IPC: 1.84865 cumulative IPC: 1.74446 (Simulation time: 60 hr 52 min 43 sec) 
 Total Blocks : 262144 Invalid Blocks : 0
Heartbeat CPU 1 instructions: 160000001 cycles: 91725302 heartbeat IPC: 1.84846 cumulative IPC: 1.74434 (Simulation time: 60 hr 52 min 46 sec) 
 Total Blocks : 262144 Invalid Blocks : 0
Heartbeat CPU 5 instructions: 160000001 cycles: 91728492 heartbeat IPC: 1.84841 cumulative IPC: 1.74428 (Simulation time: 60 hr 52 min 47 sec) 
 Total Blocks : 262144 Invalid Blocks : 0
Heartbeat CPU 6 instructions: 160000001 cycles: 91728533 heartbeat IPC: 1.84846 cumulative IPC: 1.74428 (Simulation time: 60 hr 52 min 47 sec) 
 Total Blocks : 262144 Invalid Blocks : 0
Heartbeat CPU 4 instructions: 160000001 cycles: 91729329 heartbeat IPC: 1.84842 cumulative IPC: 1.74426 (Simulation time: 60 hr 52 min 47 sec) 
 Total Blocks : 262144 Invalid Blocks : 0
Heartbeat CPU 7 instructions: 160000001 cycles: 91730392 heartbeat IPC: 1.84844 cumulative IPC: 1.74424 (Simulation time: 60 hr 52 min 48 sec) 
 Total Blocks : 262144 Invalid Blocks : 0
Heartbeat CPU 0 instructions: 170000002 cycles: 97086573 heartbeat IPC: 1.86265 cumulative IPC: 1.75101 (Simulation time: 62 hr 7 min 32 sec) 
 Total Blocks : 262144 Invalid Blocks : 0
Heartbeat CPU 3 instructions: 170000002 cycles: 97086724 heartbeat IPC: 1.8627 cumulative IPC: 1.75101 (Simulation time: 62 hr 7 min 32 sec) 
 Total Blocks : 262144 Invalid Blocks : 0
Heartbeat CPU 2 instructions: 170000002 cycles: 97087503 heartbeat IPC: 1.86261 cumulative IPC: 1.751 (Simulation time: 62 hr 7 min 32 sec) 
 Total Blocks : 262144 Invalid Blocks : 0
Heartbeat CPU 1 instructions: 170000002 cycles: 97094508 heartbeat IPC: 1.86247 cumulative IPC: 1.75087 (Simulation time: 62 hr 7 min 37 sec) 
 Total Blocks : 262144 Invalid Blocks : 0
Heartbeat CPU 6 instructions: 170000002 cycles: 97097847 heartbeat IPC: 1.86244 cumulative IPC: 1.75081 (Simulation time: 62 hr 7 min 40 sec) 
 Total Blocks : 262144 Invalid Blocks : 0
Heartbeat CPU 5 instructions: 170000002 cycles: 97098176 heartbeat IPC: 1.86231 cumulative IPC: 1.75081 (Simulation time: 62 hr 7 min 40 sec) 
 Total Blocks : 262144 Invalid Blocks : 0
Heartbeat CPU 4 instructions: 170000002 cycles: 97098577 heartbeat IPC: 1.86246 cumulative IPC: 1.7508 (Simulation time: 62 hr 7 min 40 sec) 
 Total Blocks : 262144 Invalid Blocks : 0
Heartbeat CPU 7 instructions: 170000002 cycles: 97099780 heartbeat IPC: 1.86241 cumulative IPC: 1.75078 (Simulation time: 62 hr 7 min 41 sec) 
 Total Blocks : 262144 Invalid Blocks : 0
Heartbeat CPU 0 instructions: 180000002 cycles: 102476503 heartbeat IPC: 1.85531 cumulative IPC: 1.7565 (Simulation time: 63 hr 9 min 45 sec) 
 Total Blocks : 262144 Invalid Blocks : 0
Heartbeat CPU 3 instructions: 180000002 cycles: 102476840 heartbeat IPC: 1.85525 cumulative IPC: 1.75649 (Simulation time: 63 hr 9 min 46 sec) 
 Total Blocks : 262144 Invalid Blocks : 0
Heartbeat CPU 2 instructions: 180000002 cycles: 102477500 heartbeat IPC: 1.85529 cumulative IPC: 1.75648 (Simulation time: 63 hr 9 min 46 sec) 
 Total Blocks : 262144 Invalid Blocks : 0
Heartbeat CPU 1 instructions: 180000002 cycles: 102484839 heartbeat IPC: 1.85517 cumulative IPC: 1.75636 (Simulation time: 63 hr 10 min 0 sec) 
 Total Blocks : 262144 Invalid Blocks : 0
Heartbeat CPU 6 instructions: 180000002 cycles: 102488412 heartbeat IPC: 1.85509 cumulative IPC: 1.7563 (Simulation time: 63 hr 10 min 3 sec) 
 Total Blocks : 262144 Invalid Blocks : 0
Heartbeat CPU 5 instructions: 180000002 cycles: 102488715 heartbeat IPC: 1.8551 cumulative IPC: 1.75629 (Simulation time: 63 hr 10 min 3 sec) 
 Total Blocks : 262144 Invalid Blocks : 0
Heartbeat CPU 4 instructions: 180000002 cycles: 102489127 heartbeat IPC: 1.8551 cumulative IPC: 1.75628 (Simulation time: 63 hr 10 min 3 sec) 
 Total Blocks : 262144 Invalid Blocks : 0
Heartbeat CPU 7 instructions: 180000002 cycles: 102490412 heartbeat IPC: 1.85507 cumulative IPC: 1.75626 (Simulation time: 63 hr 10 min 4 sec) 
 Total Blocks : 262144 Invalid Blocks : 0
Heartbeat CPU 0 instructions: 190000000 cycles: 107912369 heartbeat IPC: 1.83963 cumulative IPC: 1.76069 (Simulation time: 64 hr 7 min 34 sec) 
 Total Blocks : 262144 Invalid Blocks : 0
Heartbeat CPU 3 instructions: 190000000 cycles: 107913268 heartbeat IPC: 1.83944 cumulative IPC: 1.76067 (Simulation time: 64 hr 7 min 34 sec) 
 Total Blocks : 262144 Invalid Blocks : 0
Heartbeat CPU 2 instructions: 190000000 cycles: 107913520 heartbeat IPC: 1.83958 cumulative IPC: 1.76067 (Simulation time: 64 hr 7 min 34 sec) 
 Total Blocks : 262144 Invalid Blocks : 0
Heartbeat CPU 1 instructions: 190000000 cycles: 107921364 heartbeat IPC: 1.83941 cumulative IPC: 1.76054 (Simulation time: 64 hr 7 min 39 sec) 
 Total Blocks : 262144 Invalid Blocks : 0
Heartbeat CPU 6 instructions: 190000000 cycles: 107924985 heartbeat IPC: 1.83939 cumulative IPC: 1.76048 (Simulation time: 64 hr 7 min 42 sec) 
 Total Blocks : 262144 Invalid Blocks : 0
Heartbeat CPU 5 instructions: 190000000 cycles: 107925648 heartbeat IPC: 1.83927 cumulative IPC: 1.76047 (Simulation time: 64 hr 7 min 43 sec) 
 Total Blocks : 262144 Invalid Blocks : 0
Heartbeat CPU 4 instructions: 190000000 cycles: 107925740 heartbeat IPC: 1.83938 cumulative IPC: 1.76047 (Simulation time: 64 hr 7 min 43 sec) 
 Total Blocks : 262144 Invalid Blocks : 0
Heartbeat CPU 7 instructions: 190000000 cycles: 107927117 heartbeat IPC: 1.83935 cumulative IPC: 1.76045 (Simulation time: 64 hr 7 min 44 sec) 
 Total Blocks : 262144 Invalid Blocks : 0
Heartbeat CPU 0 instructions: 200000001 cycles: 113224035 heartbeat IPC: 1.88265 cumulative IPC: 1.76641 (Simulation time: 65 hr 1 min 18 sec) 
 Total Blocks : 262144 Invalid Blocks : 0
Heartbeat CPU 2 instructions: 200000001 cycles: 113225245 heartbeat IPC: 1.88263 cumulative IPC: 1.76639 (Simulation time: 65 hr 1 min 18 sec) 
 Total Blocks : 262144 Invalid Blocks : 0
Heartbeat CPU 3 instructions: 200000001 cycles: 113225315 heartbeat IPC: 1.88251 cumulative IPC: 1.76639 (Simulation time: 65 hr 1 min 18 sec) 
 Total Blocks : 262144 Invalid Blocks : 0
Heartbeat CPU 1 instructions: 200000001 cycles: 113233784 heartbeat IPC: 1.88238 cumulative IPC: 1.76626 (Simulation time: 65 hr 1 min 22 sec) 
 Total Blocks : 262144 Invalid Blocks : 0
Heartbeat CPU 6 instructions: 200000001 cycles: 113237637 heartbeat IPC: 1.8823 cumulative IPC: 1.7662 (Simulation time: 65 hr 1 min 24 sec) 
 Total Blocks : 262144 Invalid Blocks : 0
Heartbeat CPU 5 instructions: 200000001 cycles: 113238202 heartbeat IPC: 1.88233 cumulative IPC: 1.76619 (Simulation time: 65 hr 1 min 24 sec) 
 Total Blocks : 262144 Invalid Blocks : 0
Heartbeat CPU 4 instructions: 200000001 cycles: 113238214 heartbeat IPC: 1.88236 cumulative IPC: 1.76619 (Simulation time: 65 hr 1 min 25 sec) 
 Total Blocks : 262144 Invalid Blocks : 0
Heartbeat CPU 7 instructions: 200000001 cycles: 113239378 heartbeat IPC: 1.88244 cumulative IPC: 1.76617 (Simulation time: 65 hr 1 min 25 sec) 
 Total Blocks : 262144 Invalid Blocks : 0

Warmup complete CPU 0 instructions: 200032228 cycles: 113239378 (Simulation time: 65 hr 1 min 25 sec) 
Warmup complete CPU 1 instructions: 200011686 cycles: 113239378 (Simulation time: 65 hr 1 min 25 sec) 
Warmup complete CPU 2 instructions: 200029641 cycles: 113239378 (Simulation time: 65 hr 1 min 25 sec) 
Warmup complete CPU 3 instructions: 200029534 cycles: 113239378 (Simulation time: 65 hr 1 min 25 sec) 
Warmup complete CPU 4 instructions: 200002444 cycles: 113239378 (Simulation time: 65 hr 1 min 25 sec) 
Warmup complete CPU 5 instructions: 200002466 cycles: 113239378 (Simulation time: 65 hr 1 min 25 sec) 
Warmup complete CPU 6 instructions: 200003626 cycles: 113239378 (Simulation time: 65 hr 1 min 25 sec) 
Warmup complete CPU 7 instructions: 200000001 cycles: 113239378 (Simulation time: 65 hr 1 min 25 sec) 

Heartbeat CPU 7 instructions: 210000000 cycles: 189440689 heartbeat IPC: 0.131231 cumulative IPC: 0.131231 (Simulation time: 67 hr 42 min 1 sec) 
 Total Blocks : 262144 Invalid Blocks : 0
Heartbeat CPU 5 instructions: 210000000 cycles: 189442672 heartbeat IPC: 0.131226 cumulative IPC: 0.131196 (Simulation time: 67 hr 42 min 2 sec) 
 Total Blocks : 262144 Invalid Blocks : 0
Heartbeat CPU 0 instructions: 210000000 cycles: 189478240 heartbeat IPC: 0.13114 cumulative IPC: 0.130744 (Simulation time: 67 hr 42 min 5 sec) 
 Total Blocks : 262144 Invalid Blocks : 0
Heartbeat CPU 2 instructions: 210000000 cycles: 189517693 heartbeat IPC: 0.131075 cumulative IPC: 0.13071 (Simulation time: 67 hr 42 min 7 sec) 
 Total Blocks : 262144 Invalid Blocks : 0
Heartbeat CPU 3 instructions: 210000000 cycles: 189613797 heartbeat IPC: 0.13091 cumulative IPC: 0.130547 (Simulation time: 67 hr 42 min 16 sec) 
 Total Blocks : 262144 Invalid Blocks : 0
Heartbeat CPU 4 instructions: 210000000 cycles: 189814649 heartbeat IPC: 0.130588 cumulative IPC: 0.130559 (Simulation time: 67 hr 42 min 38 sec) 
 Total Blocks : 262144 Invalid Blocks : 0
Heartbeat CPU 1 instructions: 210000000 cycles: 190488457 heartbeat IPC: 0.129442 cumulative IPC: 0.1293 (Simulation time: 67 hr 44 min 11 sec) 
 Total Blocks : 262144 Invalid Blocks : 0
Heartbeat CPU 6 instructions: 210000000 cycles: 190822921 heartbeat IPC: 0.12889 cumulative IPC: 0.128847 (Simulation time: 67 hr 44 min 47 sec) 
 Total Blocks : 262144 Invalid Blocks : 0
Heartbeat CPU 7 instructions: 220000000 cycles: 266758321 heartbeat IPC: 0.129337 cumulative IPC: 0.130277 (Simulation time: 70 hr 12 min 25 sec) 
 Total Blocks : 262144 Invalid Blocks : 0
Heartbeat CPU 3 instructions: 220000000 cycles: 267346175 heartbeat IPC: 0.128647 cumulative IPC: 0.129588 (Simulation time: 70 hr 13 min 19 sec) 
 Total Blocks : 262144 Invalid Blocks : 0
Heartbeat CPU 5 instructions: 220000000 cycles: 267411805 heartbeat IPC: 0.128256 cumulative IPC: 0.129709 (Simulation time: 70 hr 13 min 25 sec) 
 Total Blocks : 262144 Invalid Blocks : 0
Heartbeat CPU 2 instructions: 220000000 cycles: 267769219 heartbeat IPC: 0.127793 cumulative IPC: 0.129233 (Simulation time: 70 hr 14 min 11 sec) 
 Total Blocks : 262144 Invalid Blocks : 0
Heartbeat CPU 0 instructions: 220000000 cycles: 268017876 heartbeat IPC: 0.127324 cumulative IPC: 0.129009 (Simulation time: 70 hr 14 min 35 sec) 
 Total Blocks : 262144 Invalid Blocks : 0
Heartbeat CPU 4 instructions: 220000000 cycles: 268680058 heartbeat IPC: 0.126798 cumulative IPC: 0.128651 (Simulation time: 70 hr 15 min 40 sec) 
 Total Blocks : 262144 Invalid Blocks : 0
Heartbeat CPU 6 instructions: 220000000 cycles: 268880582 heartbeat IPC: 0.12811 cumulative IPC: 0.128477 (Simulation time: 70 hr 16 min 1 sec) 
 Total Blocks : 262144 Invalid Blocks : 0
Heartbeat CPU 1 instructions: 220000000 cycles: 269244823 heartbeat IPC: 0.126974 cumulative IPC: 0.128126 (Simulation time: 70 hr 16 min 36 sec) 
 Total Blocks : 262144 Invalid Blocks : 0
Heartbeat CPU 7 instructions: 230000000 cycles: 343641986 heartbeat IPC: 0.130067 cumulative IPC: 0.130207 (Simulation time: 72 hr 25 min 22 sec) 
 Total Blocks : 262144 Invalid Blocks : 0
Heartbeat CPU 3 instructions: 230000000 cycles: 344598532 heartbeat IPC: 0.129446 cumulative IPC: 0.129541 (Simulation time: 72 hr 27 min 1 sec) 
 Total Blocks : 262144 Invalid Blocks : 0
Heartbeat CPU 5 instructions: 230000000 cycles: 345340034 heartbeat IPC: 0.128323 cumulative IPC: 0.129244 (Simulation time: 72 hr 28 min 9 sec) 
 Total Blocks : 262144 Invalid Blocks : 0
Heartbeat CPU 2 instructions: 230000000 cycles: 345388888 heartbeat IPC: 0.128833 cumulative IPC: 0.129099 (Simulation time: 72 hr 28 min 13 sec) 
 Total Blocks : 262144 Invalid Blocks : 0
Heartbeat CPU 0 instructions: 230000000 cycles: 345656595 heartbeat IPC: 0.128802 cumulative IPC: 0.12894 (Simulation time: 72 hr 28 min 39 sec) 
 Total Blocks : 262144 Invalid Blocks : 0
Heartbeat CPU 6 instructions: 230000000 cycles: 346345671 heartbeat IPC: 0.12909 cumulative IPC: 0.128681 (Simulation time: 72 hr 29 min 55 sec) 
 Total Blocks : 262144 Invalid Blocks : 0
Heartbeat CPU 4 instructions: 230000000 cycles: 346444458 heartbeat IPC: 0.128594 cumulative IPC: 0.128632 (Simulation time: 72 hr 30 min 3 sec) 
 Total Blocks : 262144 Invalid Blocks : 0
Heartbeat CPU 1 instructions: 230000000 cycles: 347018845 heartbeat IPC: 0.128578 cumulative IPC: 0.128276 (Simulation time: 72 hr 31 min 1 sec) 
 Total Blocks : 262144 Invalid Blocks : 0
Heartbeat CPU 7 instructions: 240000001 cycles: 420073093 heartbeat IPC: 0.130837 cumulative IPC: 0.130364 (Simulation time: 74 hr 35 min 25 sec) 
 Total Blocks : 262144 Invalid Blocks : 0
Heartbeat CPU 3 instructions: 240000001 cycles: 421795716 heartbeat IPC: 0.129538 cumulative IPC: 0.12954 (Simulation time: 74 hr 38 min 18 sec) 
 Total Blocks : 262144 Invalid Blocks : 0
Heartbeat CPU 5 instructions: 240000001 cycles: 422009780 heartbeat IPC: 0.13043 cumulative IPC: 0.129538 (Simulation time: 74 hr 38 min 38 sec) 
 Total Blocks : 262144 Invalid Blocks : 0
Heartbeat CPU 0 instructions: 240000001 cycles: 423631353 heartbeat IPC: 0.128247 cumulative IPC: 0.128765 (Simulation time: 74 hr 41 min 13 sec) 
 Total Blocks : 262144 Invalid Blocks : 0
Heartbeat CPU 2 instructions: 240000001 cycles: 423653514 heartbeat IPC: 0.127772 cumulative IPC: 0.128765 (Simulation time: 74 hr 41 min 14 sec) 
 Total Blocks : 262144 Invalid Blocks : 0
Heartbeat CPU 6 instructions: 240000001 cycles: 424402500 heartbeat IPC: 0.128112 cumulative IPC: 0.128538 (Simulation time: 74 hr 42 min 25 sec) 
 Total Blocks : 262144 Invalid Blocks : 0
Heartbeat CPU 4 instructions: 240000001 cycles: 425000666 heartbeat IPC: 0.127297 cumulative IPC: 0.128295 (Simulation time: 74 hr 43 min 13 sec) 
 Total Blocks : 262144 Invalid Blocks : 0
Heartbeat CPU 1 instructions: 240000001 cycles: 425532481 heartbeat IPC: 0.127366 cumulative IPC: 0.128047 (Simulation time: 74 hr 44 min 0 sec) 
 Total Blocks : 262144 Invalid Blocks : 0
Heartbeat CPU 7 instructions: 250000000 cycles: 500421219 heartbeat IPC: 0.124458 cumulative IPC: 0.129138 (Simulation time: 76 hr 44 min 23 sec) 
 Total Blocks : 262144 Invalid Blocks : 0
Heartbeat CPU 5 instructions: 250000000 cycles: 502229040 heartbeat IPC: 0.124658 cumulative IPC: 0.128532 (Simulation time: 76 hr 47 min 19 sec) 
 Total Blocks : 262144 Invalid Blocks : 0
Heartbeat CPU 3 instructions: 250000000 cycles: 502630416 heartbeat IPC: 0.123709 cumulative IPC: 0.12833 (Simulation time: 76 hr 47 min 54 sec) 
 Total Blocks : 262144 Invalid Blocks : 0
Heartbeat CPU 0 instructions: 250000000 cycles: 503924081 heartbeat IPC: 0.124544 cumulative IPC: 0.127898 (Simulation time: 76 hr 49 min 48 sec) 
 Total Blocks : 262144 Invalid Blocks : 0
Heartbeat CPU 2 instructions: 250000000 cycles: 503952096 heartbeat IPC: 0.124535 cumulative IPC: 0.127895 (Simulation time: 76 hr 49 min 51 sec) 
 Total Blocks : 262144 Invalid Blocks : 0
Heartbeat CPU 6 instructions: 250000000 cycles: 505466165 heartbeat IPC: 0.12336 cumulative IPC: 0.127468 (Simulation time: 76 hr 52 min 5 sec) 
 Total Blocks : 262144 Invalid Blocks : 0
Heartbeat CPU 4 instructions: 250000000 cycles: 505845538 heartbeat IPC: 0.123694 cumulative IPC: 0.127348 (Simulation time: 76 hr 52 min 38 sec) 
 Total Blocks : 262144 Invalid Blocks : 0
Heartbeat CPU 1 instructions: 250000000 cycles: 506183763 heartbeat IPC: 0.123991 cumulative IPC: 0.127215 (Simulation time: 76 hr 53 min 10 sec) 
 Total Blocks : 262144 Invalid Blocks : 0
Heartbeat CPU 7 instructions: 260000002 cycles: 577222360 heartbeat IPC: 0.130206 cumulative IPC: 0.129315 (Simulation time: 78 hr 50 min 25 sec) 
 Total Blocks : 262144 Invalid Blocks : 0
Heartbeat CPU 5 instructions: 260000002 cycles: 579256003 heartbeat IPC: 0.129825 cumulative IPC: 0.128745 (Simulation time: 78 hr 53 min 43 sec) 
 Total Blocks : 262144 Invalid Blocks : 0
Heartbeat CPU 3 instructions: 260000002 cycles: 579498986 heartbeat IPC: 0.130092 cumulative IPC: 0.12862 (Simulation time: 78 hr 54 min 7 sec) 
 Total Blocks : 262144 Invalid Blocks : 0
Heartbeat CPU 0 instructions: 260000002 cycles: 580858101 heartbeat IPC: 0.129982 cumulative IPC: 0.128241 (Simulation time: 78 hr 56 min 27 sec) 
 Total Blocks : 262144 Invalid Blocks : 0
Heartbeat CPU 6 instructions: 260000002 cycles: 581219880 heartbeat IPC: 0.132007 cumulative IPC: 0.128203 (Simulation time: 78 hr 57 min 7 sec) 
 Total Blocks : 262144 Invalid Blocks : 0
Heartbeat CPU 2 instructions: 260000002 cycles: 581230888 heartbeat IPC: 0.129402 cumulative IPC: 0.128144 (Simulation time: 78 hr 57 min 9 sec) 
 Total Blocks : 262144 Invalid Blocks : 0
Heartbeat CPU 4 instructions: 260000002 cycles: 581647629 heartbeat IPC: 0.131923 cumulative IPC: 0.128088 (Simulation time: 78 hr 57 min 51 sec) 
 Total Blocks : 262144 Invalid Blocks : 0
Heartbeat CPU 1 instructions: 260000002 cycles: 582713544 heartbeat IPC: 0.130668 cumulative IPC: 0.127778 (Simulation time: 78 hr 59 min 50 sec) 
 Total Blocks : 262144 Invalid Blocks : 0
Heartbeat CPU 7 instructions: 270000002 cycles: 656898261 heartbeat IPC: 0.125508 cumulative IPC: 0.128757 (Simulation time: 81 hr 2 min 39 sec) 
 Total Blocks : 262144 Invalid Blocks : 0
Heartbeat CPU 5 instructions: 270000002 cycles: 659647434 heartbeat IPC: 0.124391 cumulative IPC: 0.128105 (Simulation time: 81 hr 6 min 58 sec) 
 Total Blocks : 262144 Invalid Blocks : 0
Heartbeat CPU 3 instructions: 270000002 cycles: 659965540 heartbeat IPC: 0.124275 cumulative IPC: 0.127981 (Simulation time: 81 hr 7 min 25 sec) 
 Total Blocks : 262144 Invalid Blocks : 0
Heartbeat CPU 0 instructions: 270000002 cycles: 660956512 heartbeat IPC: 0.124846 cumulative IPC: 0.127744 (Simulation time: 81 hr 8 min 58 sec) 
 Total Blocks : 262144 Invalid Blocks : 0
Heartbeat CPU 6 instructions: 270000002 cycles: 661817538 heartbeat IPC: 0.124073 cumulative IPC: 0.127596 (Simulation time: 81 hr 10 min 23 sec) 
 Total Blocks : 262144 Invalid Blocks : 0
Heartbeat CPU 2 instructions: 270000001 cycles: 662065160 heartbeat IPC: 0.12371 cumulative IPC: 0.127491 (Simulation time: 81 hr 10 min 48 sec) 
 Total Blocks : 262144 Invalid Blocks : 0
Heartbeat CPU 4 instructions: 270000002 cycles: 662654661 heartbeat IPC: 0.123446 cumulative IPC: 0.127404 (Simulation time: 81 hr 11 min 41 sec) 
 Total Blocks : 262144 Invalid Blocks : 0
Heartbeat CPU 1 instructions: 270000002 cycles: 662990835 heartbeat IPC: 0.124568 cumulative IPC: 0.127309 (Simulation time: 81 hr 12 min 12 sec) 
 Total Blocks : 262144 Invalid Blocks : 0
Heartbeat CPU 7 instructions: 280000000 cycles: 737580973 heartbeat IPC: 0.123942 cumulative IPC: 0.128135 (Simulation time: 83 hr 9 min 5 sec) 
 Total Blocks : 262144 Invalid Blocks : 0
Heartbeat CPU 3 instructions: 280000000 cycles: 739831555 heartbeat IPC: 0.12521 cumulative IPC: 0.127628 (Simulation time: 83 hr 12 min 39 sec) 
 Total Blocks : 262144 Invalid Blocks : 0
Heartbeat CPU 5 instructions: 280000000 cycles: 740699462 heartbeat IPC: 0.123378 cumulative IPC: 0.127494 (Simulation time: 83 hr 13 min 55 sec) 
 Total Blocks : 262144 Invalid Blocks : 0
Heartbeat CPU 0 instructions: 280000000 cycles: 741763278 heartbeat IPC: 0.123752 cumulative IPC: 0.127231 (Simulation time: 83 hr 15 min 32 sec) 
 Total Blocks : 262144 Invalid Blocks : 0
Heartbeat CPU 6 instructions: 280000000 cycles: 741965498 heartbeat IPC: 0.124769 cumulative IPC: 0.127236 (Simulation time: 83 hr 15 min 47 sec) 
 Total Blocks : 262144 Invalid Blocks : 0
Heartbeat CPU 2 instructions: 280000000 cycles: 743070129 heartbeat IPC: 0.123449 cumulative IPC: 0.126971 (Simulation time: 83 hr 17 min 21 sec) 
 Total Blocks : 262144 Invalid Blocks : 0
Heartbeat CPU 4 instructions: 280000000 cycles: 743341082 heartbeat IPC: 0.123937 cumulative IPC: 0.12696 (Simulation time: 83 hr 17 min 48 sec) 
 Total Blocks : 262144 Invalid Blocks : 0
Heartbeat CPU 1 instructions: 280000000 cycles: 743472377 heartbeat IPC: 0.124252 cumulative IPC: 0.126919 (Simulation time: 83 hr 17 min 58 sec) 
 Total Blocks : 262144 Invalid Blocks : 0
Heartbeat CPU 7 instructions: 290000000 cycles: 817987350 heartbeat IPC: 0.124368 cumulative IPC: 0.127705 (Simulation time: 85 hr 13 min 32 sec) 
 Total Blocks : 262144 Invalid Blocks : 0
Heartbeat CPU 3 instructions: 290000000 cycles: 820541970 heartbeat IPC: 0.1239 cumulative IPC: 0.127202 (Simulation time: 85 hr 17 min 38 sec) 
 Total Blocks : 262144 Invalid Blocks : 0
Heartbeat CPU 5 instructions: 290000000 cycles: 822151876 heartbeat IPC: 0.122771 cumulative IPC: 0.126952 (Simulation time: 85 hr 20 min 9 sec) 
 Total Blocks : 262144 Invalid Blocks : 0
Heartbeat CPU 6 instructions: 290000000 cycles: 823833393 heartbeat IPC: 0.122148 cumulative IPC: 0.126649 (Simulation time: 85 hr 22 min 24 sec) 
 Total Blocks : 262144 Invalid Blocks : 0
Heartbeat CPU 0 instructions: 290000000 cycles: 824140494 heartbeat IPC: 0.121393 cumulative IPC: 0.126555 (Simulation time: 85 hr 22 min 43 sec) 
 Total Blocks : 262144 Invalid Blocks : 0
Heartbeat CPU 2 instructions: 290000000 cycles: 825514971 heartbeat IPC: 0.121293 cumulative IPC: 0.126314 (Simulation time: 85 hr 24 min 35 sec) 
 Total Blocks : 262144 Invalid Blocks : 0
Heartbeat CPU 4 instructions: 290000000 cycles: 825665388 heartbeat IPC: 0.121471 cumulative IPC: 0.126325 (Simulation time: 85 hr 24 min 46 sec) 
 Total Blocks : 262144 Invalid Blocks : 0
Heartbeat CPU 1 instructions: 290000000 cycles: 825759759 heartbeat IPC: 0.121525 cumulative IPC: 0.126296 (Simulation time: 85 hr 24 min 53 sec) 
 Total Blocks : 262144 Invalid Blocks : 0
Heartbeat CPU 7 instructions: 300000002 cycles: 897130783 heartbeat IPC: 0.126353 cumulative IPC: 0.127569 (Simulation time: 86 hr 59 min 15 sec) 
 Total Blocks : 262144 Invalid Blocks : 0
Heartbeat CPU 3 instructions: 300000002 cycles: 900055055 heartbeat IPC: 0.125765 cumulative IPC: 0.127057 (Simulation time: 87 hr 2 min 56 sec) 
 Total Blocks : 262144 Invalid Blocks : 0
Heartbeat CPU 5 instructions: 300000002 cycles: 901979224 heartbeat IPC: 0.12527 cumulative IPC: 0.126781 (Simulation time: 87 hr 5 min 31 sec) 
 Total Blocks : 262144 Invalid Blocks : 0
Heartbeat CPU 6 instructions: 300000002 cycles: 902959841 heartbeat IPC: 0.12638 cumulative IPC: 0.126622 (Simulation time: 87 hr 6 min 50 sec) 
 Total Blocks : 262144 Invalid Blocks : 0
Heartbeat CPU 0 instructions: 300000002 cycles: 903377654 heartbeat IPC: 0.126203 cumulative IPC: 0.126519 (Simulation time: 87 hr 7 min 29 sec) 
 Total Blocks : 262144 Invalid Blocks : 0
Heartbeat CPU 4 instructions: 300000002 cycles: 904556987 heartbeat IPC: 0.126756 cumulative IPC: 0.126368 (Simulation time: 87 hr 8 min 59 sec) 
 Total Blocks : 262144 Invalid Blocks : 0
Heartbeat CPU 2 instructions: 300000002 cycles: 904643317 heartbeat IPC: 0.126377 cumulative IPC: 0.12632 (Simulation time: 87 hr 9 min 5 sec) 
 Total Blocks : 262144 Invalid Blocks : 0
Heartbeat CPU 1 instructions: 300000002 cycles: 904689701 heartbeat IPC: 0.126695 cumulative IPC: 0.126336 (Simulation time: 87 hr 9 min 8 sec) 
 Total Blocks : 262144 Invalid Blocks : 0
Heartbeat CPU 7 instructions: 310000003 cycles: 975535645 heartbeat IPC: 0.127543 cumulative IPC: 0.127566 (Simulation time: 88 hr 42 min 4 sec) 
 Total Blocks : 262144 Invalid Blocks : 0
Heartbeat CPU 3 instructions: 310000003 cycles: 979417269 heartbeat IPC: 0.126005 cumulative IPC: 0.126961 (Simulation time: 88 hr 47 min 16 sec) 
 Total Blocks : 262144 Invalid Blocks : 0
Heartbeat CPU 5 instructions: 310000003 cycles: 981530221 heartbeat IPC: 0.125706 cumulative IPC: 0.126683 (Simulation time: 88 hr 50 min 27 sec) 
 Total Blocks : 262144 Invalid Blocks : 0
Heartbeat CPU 6 instructions: 310000003 cycles: 982735070 heartbeat IPC: 0.125352 cumulative IPC: 0.126506 (Simulation time: 88 hr 52 min 24 sec) 
 Total Blocks : 262144 Invalid Blocks : 0
Heartbeat CPU 0 instructions: 310000003 cycles: 983407744 heartbeat IPC: 0.124953 cumulative IPC: 0.126375 (Simulation time: 88 hr 53 min 23 sec) 
 Total Blocks : 262144 Invalid Blocks : 0
Heartbeat CPU 4 instructions: 310000003 cycles: 983752863 heartbeat IPC: 0.126269 cumulative IPC: 0.126359 (Simulation time: 88 hr 53 min 45 sec) 
 Total Blocks : 262144 Invalid Blocks : 0
Heartbeat CPU 2 instructions: 310000003 cycles: 984273401 heartbeat IPC: 0.125581 cumulative IPC: 0.126253 (Simulation time: 88 hr 54 min 26 sec) 
 Total Blocks : 262144 Invalid Blocks : 0
Heartbeat CPU 1 instructions: 310000003 cycles: 984315926 heartbeat IPC: 0.125587 cumulative IPC: 0.126267 (Simulation time: 88 hr 54 min 29 sec) 
 Total Blocks : 262144 Invalid Blocks : 0
Heartbeat CPU 7 instructions: 320000001 cycles: 1054756775 heartbeat IPC: 0.126229 cumulative IPC: 0.127454 (Simulation time: 90 hr 25 min 51 sec) 
 Total Blocks : 262144 Invalid Blocks : 0
Heartbeat CPU 3 instructions: 320000001 cycles: 1059310230 heartbeat IPC: 0.125167 cumulative IPC: 0.126809 (Simulation time: 90 hr 32 min 20 sec) 
 Total Blocks : 262144 Invalid Blocks : 0
Heartbeat CPU 5 instructions: 320000001 cycles: 1063379877 heartbeat IPC: 0.122175 cumulative IPC: 0.126295 (Simulation time: 90 hr 38 min 23 sec) 
 Total Blocks : 262144 Invalid Blocks : 0
Heartbeat CPU 6 instructions: 320000001 cycles: 1064783754 heartbeat IPC: 0.121879 cumulative IPC: 0.126107 (Simulation time: 90 hr 40 min 26 sec) 
 Total Blocks : 262144 Invalid Blocks : 0
Heartbeat CPU 0 instructions: 320000001 cycles: 1065148645 heartbeat IPC: 0.122338 cumulative IPC: 0.126029 (Simulation time: 90 hr 40 min 58 sec) 
 Total Blocks : 262144 Invalid Blocks : 0
Heartbeat CPU 4 instructions: 320000001 cycles: 1066260308 heartbeat IPC: 0.121201 cumulative IPC: 0.125913 (Simulation time: 90 hr 42 min 30 sec) 
 Total Blocks : 262144 Invalid Blocks : 0
Heartbeat CPU 1 instructions: 320000000 cycles: 1066430199 heartbeat IPC: 0.121781 cumulative IPC: 0.125881 (Simulation time: 90 hr 42 min 44 sec) 
 Total Blocks : 262144 Invalid Blocks : 0
Heartbeat CPU 2 instructions: 320000001 cycles: 1066662325 heartbeat IPC: 0.121376 cumulative IPC: 0.125831 (Simulation time: 90 hr 43 min 5 sec) 
 Total Blocks : 262144 Invalid Blocks : 0
Heartbeat CPU 7 instructions: 330000000 cycles: 1138146805 heartbeat IPC: 0.119918 cumulative IPC: 0.126841 (Simulation time: 92 hr 17 min 20 sec) 
 Total Blocks : 262144 Invalid Blocks : 0
Heartbeat CPU 3 instructions: 330000000 cycles: 1143104915 heartbeat IPC: 0.119339 cumulative IPC: 0.126201 (Simulation time: 92 hr 24 min 19 sec) 
 Total Blocks : 262144 Invalid Blocks : 0
Heartbeat CPU 5 instructions: 330000000 cycles: 1147443773 heartbeat IPC: 0.118957 cumulative IPC: 0.125698 (Simulation time: 92 hr 29 min 39 sec) 
 Total Blocks : 262144 Invalid Blocks : 0
Heartbeat CPU 6 instructions: 330000000 cycles: 1148667126 heartbeat IPC: 0.119213 cumulative IPC: 0.125548 (Simulation time: 92 hr 31 min 4 sec) 
 Total Blocks : 262144 Invalid Blocks : 0
Heartbeat CPU 0 instructions: 330000000 cycles: 1149326918 heartbeat IPC: 0.118795 cumulative IPC: 0.125441 (Simulation time: 92 hr 31 min 51 sec) 
 Total Blocks : 262144 Invalid Blocks : 0
Heartbeat CPU 4 instructions: 330000000 cycles: 1149556373 heartbeat IPC: 0.120054 cumulative IPC: 0.125442 (Simulation time: 92 hr 32 min 7 sec) 
 Total Blocks : 262144 Invalid Blocks : 0
Heartbeat CPU 1 instructions: 330000000 cycles: 1150337181 heartbeat IPC: 0.11918 cumulative IPC: 0.125339 (Simulation time: 92 hr 33 min 11 sec) 
 Total Blocks : 262144 Invalid Blocks : 0
Heartbeat CPU 2 instructions: 330000000 cycles: 1150497570 heartbeat IPC: 0.119282 cumulative IPC: 0.125302 (Simulation time: 92 hr 33 min 21 sec) 
 Total Blocks : 262144 Invalid Blocks : 0
Heartbeat CPU 7 instructions: 340000001 cycles: 1222483513 heartbeat IPC: 0.118572 cumulative IPC: 0.126212 (Simulation time: 94 hr 15 min 26 sec) 
 Total Blocks : 262144 Invalid Blocks : 0
Heartbeat CPU 3 instructions: 340000001 cycles: 1227718245 heartbeat IPC: 0.118185 cumulative IPC: 0.125593 (Simulation time: 94 hr 22 min 20 sec) 
 Total Blocks : 262144 Invalid Blocks : 0
Heartbeat CPU 5 instructions: 340000001 cycles: 1231924136 heartbeat IPC: 0.118371 cumulative IPC: 0.125145 (Simulation time: 94 hr 27 min 57 sec) 
 Total Blocks : 262144 Invalid Blocks : 0
Heartbeat CPU 6 instructions: 340000001 cycles: 1233406687 heartbeat IPC: 0.118009 cumulative IPC: 0.124978 (Simulation time: 94 hr 30 min 8 sec) 
 Total Blocks : 262144 Invalid Blocks : 0
Heartbeat CPU 0 instructions: 340000001 cycles: 1234341954 heartbeat IPC: 0.117626 cumulative IPC: 0.124848 (Simulation time: 94 hr 31 min 41 sec) 
 Total Blocks : 262144 Invalid Blocks : 0
Heartbeat CPU 4 instructions: 340000001 cycles: 1234392349 heartbeat IPC: 0.117875 cumulative IPC: 0.124869 (Simulation time: 94 hr 31 min 45 sec) 
 Total Blocks : 262144 Invalid Blocks : 0
Heartbeat CPU 1 instructions: 340000001 cycles: 1235413864 heartbeat IPC: 0.117541 cumulative IPC: 0.124747 (Simulation time: 94 hr 33 min 12 sec) 
 Total Blocks : 262144 Invalid Blocks : 0
Heartbeat CPU 2 instructions: 340000001 cycles: 1235520770 heartbeat IPC: 0.117615 cumulative IPC: 0.124719 (Simulation time: 94 hr 33 min 19 sec) 
 Total Blocks : 262144 Invalid Blocks : 0
Heartbeat CPU 7 instructions: 350000000 cycles: 1307396012 heartbeat IPC: 0.117768 cumulative IPC: 0.125612 (Simulation time: 96 hr 7 min 6 sec) 
 Total Blocks : 262144 Invalid Blocks : 0
Heartbeat CPU 3 instructions: 350000000 cycles: 1313465278 heartbeat IPC: 0.116622 cumulative IPC: 0.124952 (Simulation time: 96 hr 13 min 17 sec) 
 Total Blocks : 262144 Invalid Blocks : 0
Heartbeat CPU 5 instructions: 350000000 cycles: 1317895443 heartbeat IPC: 0.116318 cumulative IPC: 0.124515 (Simulation time: 96 hr 18 min 1 sec) 
 Total Blocks : 262144 Invalid Blocks : 0
Heartbeat CPU 6 instructions: 350000000 cycles: 1318824246 heartbeat IPC: 0.117072 cumulative IPC: 0.124418 (Simulation time: 96 hr 18 min 57 sec) 
 Total Blocks : 262144 Invalid Blocks : 0
Heartbeat CPU 4 instructions: 350000000 cycles: 1319299665 heartbeat IPC: 0.117775 cumulative IPC: 0.12437 (Simulation time: 96 hr 19 min 27 sec) 
 Total Blocks : 262144 Invalid Blocks : 0
Heartbeat CPU 0 instructions: 350000000 cycles: 1319815457 heartbeat IPC: 0.116995 cumulative IPC: 0.124292 (Simulation time: 96 hr 20 min 12 sec) 
 Total Blocks : 262144 Invalid Blocks : 0
Heartbeat CPU 1 instructions: 350000000 cycles: 1320835364 heartbeat IPC: 0.117067 cumulative IPC: 0.124204 (Simulation time: 96 hr 21 min 35 sec) 
 Total Blocks : 262144 Invalid Blocks : 0
Heartbeat CPU 2 instructions: 350000000 cycles: 1321052804 heartbeat IPC: 0.116915 cumulative IPC: 0.124167 (Simulation time: 96 hr 21 min 51 sec) 
 Total Blocks : 262144 Invalid Blocks : 0
Heartbeat CPU 7 instructions: 360000001 cycles: 1390122436 heartbeat IPC: 0.12088 cumulative IPC: 0.125305 (Simulation time: 97 hr 39 min 37 sec) 
 Total Blocks : 262144 Invalid Blocks : 0
Heartbeat CPU 3 instructions: 360000001 cycles: 1396158249 heartbeat IPC: 0.120929 cumulative IPC: 0.124693 (Simulation time: 97 hr 46 min 16 sec) 
 Total Blocks : 262144 Invalid Blocks : 0
Heartbeat CPU 5 instructions: 360000001 cycles: 1400972951 heartbeat IPC: 0.12037 cumulative IPC: 0.124247 (Simulation time: 97 hr 52 min 37 sec) 
 Total Blocks : 262144 Invalid Blocks : 0
Heartbeat CPU 6 instructions: 360000001 cycles: 1401542868 heartbeat IPC: 0.120892 cumulative IPC: 0.124192 (Simulation time: 97 hr 53 min 17 sec) 
 Total Blocks : 262144 Invalid Blocks : 0
Heartbeat CPU 4 instructions: 360000001 cycles: 1403088308 heartbeat IPC: 0.119348 cumulative IPC: 0.124044 (Simulation time: 97 hr 55 min 6 sec) 
 Total Blocks : 262144 Invalid Blocks : 0
Heartbeat CPU 0 instructions: 360000001 cycles: 1403436147 heartbeat IPC: 0.119588 cumulative IPC: 0.123987 (Simulation time: 97 hr 55 min 28 sec) 
 Total Blocks : 262144 Invalid Blocks : 0
Heartbeat CPU 1 instructions: 360000000 cycles: 1403980861 heartbeat IPC: 0.120271 cumulative IPC: 0.123951 (Simulation time: 97 hr 56 min 3 sec) 
 Total Blocks : 262144 Invalid Blocks : 0
Heartbeat CPU 2 instructions: 360000001 cycles: 1404944344 heartbeat IPC: 0.119202 cumulative IPC: 0.123844 (Simulation time: 97 hr 56 min 59 sec) 
 Total Blocks : 262144 Invalid Blocks : 0
Heartbeat CPU 7 instructions: 370000001 cycles: 1473161180 heartbeat IPC: 0.120426 cumulative IPC: 0.125007 (Simulation time: 99 hr 9 min 43 sec) 
 Total Blocks : 262144 Invalid Blocks : 0
Heartbeat CPU 3 instructions: 370000001 cycles: 1479894158 heartbeat IPC: 0.119423 cumulative IPC: 0.12437 (Simulation time: 99 hr 17 min 50 sec) 
 Total Blocks : 262144 Invalid Blocks : 0
Heartbeat CPU 6 instructions: 370000001 cycles: 1484397019 heartbeat IPC: 0.120694 cumulative IPC: 0.12398 (Simulation time: 99 hr 22 min 36 sec) 
 Total Blocks : 262144 Invalid Blocks : 0
Heartbeat CPU 5 instructions: 370000001 cycles: 1484579660 heartbeat IPC: 0.119608 cumulative IPC: 0.123965 (Simulation time: 99 hr 22 min 48 sec) 
 Total Blocks : 262144 Invalid Blocks : 0
Heartbeat CPU 4 instructions: 370000001 cycles: 1486670631 heartbeat IPC: 0.119643 cumulative IPC: 0.123776 (Simulation time: 99 hr 25 min 39 sec) 
 Total Blocks : 262144 Invalid Blocks : 0
Heartbeat CPU 0 instructions: 370000001 cycles: 1486929182 heartbeat IPC: 0.11977 cumulative IPC: 0.123731 (Simulation time: 99 hr 25 min 56 sec) 
 Total Blocks : 262144 Invalid Blocks : 0
Heartbeat CPU 1 instructions: 370000001 cycles: 1487139415 heartbeat IPC: 0.120252 cumulative IPC: 0.123727 (Simulation time: 99 hr 26 min 7 sec) 
 Total Blocks : 262144 Invalid Blocks : 0
Heartbeat CPU 2 instructions: 370000001 cycles: 1488959097 heartbeat IPC: 0.119027 cumulative IPC: 0.12355 (Simulation time: 99 hr 28 min 9 sec) 
 Total Blocks : 262144 Invalid Blocks : 0
Heartbeat CPU 7 instructions: 380000002 cycles: 1558730488 heartbeat IPC: 0.116864 cumulative IPC: 0.124525 (Simulation time: 100 hr 40 min 19 sec) 
 Total Blocks : 262144 Invalid Blocks : 0
Heartbeat CPU 3 instructions: 380000002 cycles: 1564497796 heartbeat IPC: 0.118198 cumulative IPC: 0.12401 (Simulation time: 100 hr 45 min 47 sec) 
 Total Blocks : 262144 Invalid Blocks : 0
Heartbeat CPU 6 instructions: 380000000 cycles: 1568556728 heartbeat IPC: 0.118822 cumulative IPC: 0.123682 (Simulation time: 100 hr 50 min 12 sec) 
 Total Blocks : 262144 Invalid Blocks : 0
Heartbeat CPU 5 instructions: 380000000 cycles: 1569032652 heartbeat IPC: 0.118409 cumulative IPC: 0.123642 (Simulation time: 100 hr 50 min 49 sec) 
 Total Blocks : 262144 Invalid Blocks : 0
Heartbeat CPU 4 instructions: 380000002 cycles: 1571345324 heartbeat IPC: 0.118099 cumulative IPC: 0.123446 (Simulation time: 100 hr 53 min 18 sec) 
 Total Blocks : 262144 Invalid Blocks : 0
Heartbeat CPU 0 instructions: 380000002 cycles: 1571736642 heartbeat IPC: 0.117914 cumulative IPC: 0.123393 (Simulation time: 100 hr 53 min 49 sec) 
 Total Blocks : 262144 Invalid Blocks : 0
Heartbeat CPU 1 instructions: 380000002 cycles: 1572024359 heartbeat IPC: 0.117807 cumulative IPC: 0.123382 (Simulation time: 100 hr 54 min 19 sec) 
 Total Blocks : 262144 Invalid Blocks : 0
Heartbeat CPU 2 instructions: 380000000 cycles: 1573333166 heartbeat IPC: 0.11852 cumulative IPC: 0.123259 (Simulation time: 100 hr 56 min 2 sec) 
 Total Blocks : 262144 Invalid Blocks : 0
Heartbeat CPU 7 instructions: 390000002 cycles: 1641102375 heartbeat IPC: 0.121401 cumulative IPC: 0.124357 (Simulation time: 102 hr 4 min 55 sec) 
 Total Blocks : 262144 Invalid Blocks : 0
Heartbeat CPU 3 instructions: 390000002 cycles: 1647180795 heartbeat IPC: 0.120944 cumulative IPC: 0.123845 (Simulation time: 102 hr 10 min 54 sec) 
 Total Blocks : 262144 Invalid Blocks : 0
Heartbeat CPU 6 instructions: 390000002 cycles: 1651416156 heartbeat IPC: 0.120686 cumulative IPC: 0.123521 (Simulation time: 102 hr 14 min 54 sec) 
 Total Blocks : 262144 Invalid Blocks : 0
Heartbeat CPU 5 instructions: 390000002 cycles: 1652155788 heartbeat IPC: 0.120303 cumulative IPC: 0.123462 (Simulation time: 102 hr 15 min 34 sec) 
 Total Blocks : 262144 Invalid Blocks : 0
Heartbeat CPU 1 instructions: 390000002 cycles: 1654252594 heartbeat IPC: 0.121613 cumulative IPC: 0.123288 (Simulation time: 102 hr 17 min 37 sec) 
 Total Blocks : 262144 Invalid Blocks : 0
Heartbeat CPU 4 instructions: 390000002 cycles: 1654253772 heartbeat IPC: 0.120615 cumulative IPC: 0.123294 (Simulation time: 102 hr 17 min 37 sec) 
 Total Blocks : 262144 Invalid Blocks : 0
Heartbeat CPU 0 instructions: 390000002 cycles: 1654263885 heartbeat IPC: 0.121172 cumulative IPC: 0.123274 (Simulation time: 102 hr 17 min 38 sec) 
 Total Blocks : 262144 Invalid Blocks : 0
Heartbeat CPU 2 instructions: 390000002 cycles: 1656115110 heartbeat IPC: 0.120799 cumulative IPC: 0.123127 (Simulation time: 102 hr 19 min 24 sec) 
 Total Blocks : 262144 Invalid Blocks : 0
Heartbeat CPU 7 instructions: 400000000 cycles: 1722055756 heartbeat IPC: 0.123528 cumulative IPC: 0.124315 (Simulation time: 103 hr 29 min 31 sec) 
 Total Blocks : 262144 Invalid Blocks : 0
Finished CPU 7 instructions: 200000003 cycles: 1608816380 cumulative IPC: 0.124315 (Simulation time: 103 hr 29 min 31 sec) 
Heartbeat CPU 3 instructions: 400000000 cycles: 1729720334 heartbeat IPC: 0.121154 cumulative IPC: 0.123707 (Simulation time: 103 hr 37 min 34 sec) 
 Total Blocks : 262144 Invalid Blocks : 0
Finished CPU 3 instructions: 200000001 cycles: 1616728606 cumulative IPC: 0.123707 (Simulation time: 103 hr 37 min 52 sec) 
Heartbeat CPU 6 instructions: 400000000 cycles: 1734607961 heartbeat IPC: 0.120204 cumulative IPC: 0.12335 (Simulation time: 103 hr 42 min 17 sec) 
 Total Blocks : 262144 Invalid Blocks : 0
Finished CPU 6 instructions: 200000003 cycles: 1621399423 cumulative IPC: 0.12335 (Simulation time: 103 hr 42 min 19 sec) 
Heartbeat CPU 5 instructions: 400000000 cycles: 1734719738 heartbeat IPC: 0.121118 cumulative IPC: 0.123343 (Simulation time: 103 hr 42 min 23 sec) 
 Total Blocks : 262144 Invalid Blocks : 0
Finished CPU 5 instructions: 200000000 cycles: 1621501103 cumulative IPC: 0.123343 (Simulation time: 103 hr 42 min 24 sec) 
Heartbeat CPU 0 instructions: 400000000 cycles: 1737057907 heartbeat IPC: 0.120782 cumulative IPC: 0.123147 (Simulation time: 103 hr 44 min 23 sec) 
 Total Blocks : 262144 Invalid Blocks : 0
Heartbeat CPU 1 instructions: 400000000 cycles: 1737071631 heartbeat IPC: 0.120745 cumulative IPC: 0.123158 (Simulation time: 103 hr 44 min 24 sec) 
 Total Blocks : 262144 Invalid Blocks : 0
Finished CPU 1 instructions: 200000003 cycles: 1623913281 cumulative IPC: 0.123159 (Simulation time: 103 hr 44 min 28 sec) 
Heartbeat CPU 4 instructions: 400000000 cycles: 1737268773 heartbeat IPC: 0.12046 cumulative IPC: 0.123149 (Simulation time: 103 hr 44 min 34 sec) 
 Total Blocks : 262144 Invalid Blocks : 0
Finished CPU 4 instructions: 200000001 cycles: 1624048853 cumulative IPC: 0.123149 (Simulation time: 103 hr 44 min 35 sec) 
Finished CPU 0 instructions: 200000003 cycles: 1624053973 cumulative IPC: 0.123149 (Simulation time: 103 hr 44 min 35 sec) 
Heartbeat CPU 2 instructions: 400000000 cycles: 1739015990 heartbeat IPC: 0.120626 cumulative IPC: 0.123 (Simulation time: 103 hr 46 min 14 sec) 
 Total Blocks : 262144 Invalid Blocks : 0
Finished CPU 2 instructions: 200000003 cycles: 1625972481 cumulative IPC: 0.123003 (Simulation time: 103 hr 46 min 25 sec) 

CPU 0 Branch Prediction Accuracy: 98.056% MPKI: 3.49854 Average ROB Occupancy at Mispredict: 69.2885

CPU 1 Branch Prediction Accuracy: 98.0561% MPKI: 3.49876 Average ROB Occupancy at Mispredict: 69.2818

CPU 2 Branch Prediction Accuracy: 98.0544% MPKI: 3.5013 Average ROB Occupancy at Mispredict: 69.2885

CPU 3 Branch Prediction Accuracy: 98.0618% MPKI: 3.48906 Average ROB Occupancy at Mispredict: 69.2679

CPU 4 Branch Prediction Accuracy: 98.0559% MPKI: 3.49936 Average ROB Occupancy at Mispredict: 69.2825

CPU 5 Branch Prediction Accuracy: 98.0581% MPKI: 3.4957 Average ROB Occupancy at Mispredict: 69.2827

CPU 6 Branch Prediction Accuracy: 98.0582% MPKI: 3.49551 Average ROB Occupancy at Mispredict: 69.2815

CPU 7 Branch Prediction Accuracy: 98.0673% MPKI: 3.48055 Average ROB Occupancy at Mispredict: 69.2484

ChampSim completed all CPUs

Total Simulation Statistics (not including warmup)

CPU 0 cumulative IPC: 0.123156 instructions: 200248224 cycles: 1625972481
ITLB TOTAL     ACCESS: 52092351  HIT: 52092351  MISS:     0  HIT %:   100  MISS %:     0  AVERAGE MISS PENALTY: 0
ITLB LOAD      ACCESS: 52092351  HIT: 52092351  MISS:     0  HIT %:   100  MISS %:     0  AVERAGE MISS PENALTY: 0
ITLB RFO       ACCESS:     0  HIT:     0  MISS:     0  HIT %:     0  MISS %:     0  AVERAGE MISS PENALTY: 0
ITLB PREFETCH  ACCESS:     0  HIT:     0  MISS:     0  HIT %:     0  MISS %:     0  AVERAGE MISS PENALTY: 0
ITLB WRITEBACK ACCESS:     0  HIT:     0  MISS:     0  HIT %:     0  MISS %:     0  AVERAGE MISS PENALTY: 0

DTLB TOTAL     ACCESS: 70788582  HIT: 70005387  MISS: 783195  HIT %: 98.8936  MISS %: 1.10639  AVERAGE MISS PENALTY: 10.4781
DTLB LOAD      ACCESS: 60128423  HIT: 59351904  MISS: 776519  HIT %: 98.7086  MISS %: 1.29143  AVERAGE MISS PENALTY: 9.73427
DTLB RFO       ACCESS: 10660159  HIT: 10653483  MISS:  6676  HIT %: 99.9374  MISS %: 0.0626257  AVERAGE MISS PENALTY: 96.991
DTLB PREFETCH  ACCESS:     0  HIT:     0  MISS:     0  HIT %:     0  MISS %:     0  AVERAGE MISS PENALTY: 0
DTLB WRITEBACK ACCESS:     0  HIT:     0  MISS:     0  HIT %:     0  MISS %:     0  AVERAGE MISS PENALTY: 0

STLB TOTAL     ACCESS: 783195  HIT: 771904  MISS: 11291  HIT %: 98.5583  MISS %: 1.44166  AVERAGE MISS PENALTY: 100
STLB LOAD      ACCESS: 776519  HIT: 771099  MISS:  5420  HIT %: 99.302  MISS %: 0.697987  AVERAGE MISS PENALTY: 100
STLB RFO       ACCESS:  6676  HIT:   805  MISS:  5871  HIT %: 12.0581  MISS %: 87.9419  AVERAGE MISS PENALTY: 100
STLB PREFETCH  ACCESS:     0  HIT:     0  MISS:     0  HIT %:     0  MISS %:     0  AVERAGE MISS PENALTY: 0
STLB WRITEBACK ACCESS:     0  HIT:     0  MISS:     0  HIT %:     0  MISS %:     0  AVERAGE MISS PENALTY: 0

L1D TOTAL     ACCESS: 103874311  HIT: 70905557  MISS: 32968754  HIT %: 68.2609  MISS %: 31.7391  AVERAGE MISS PENALTY: 1.89338e+08
L1D LOAD      ACCESS: 66573588  HIT: 47070022  MISS: 19503566  HIT %: 70.7037  MISS %: 29.2963  AVERAGE MISS PENALTY: 3.19857e+08
L1D RFO       ACCESS: 13128694  HIT: 12767945  MISS: 360749  HIT %: 97.2522  MISS %: 2.74779  AVERAGE MISS PENALTY: 1.07658e+07
L1D PREFETCH  ACCESS: 24172029  HIT: 11067590  MISS: 13104439  HIT %: 45.7868  MISS %: 54.2132  AVERAGE MISS PENALTY: 216.007
L1D WRITEBACK ACCESS:     0  HIT:     0  MISS:     0  HIT %:     0  MISS %:     0  AVERAGE MISS PENALTY: 0

L1I TOTAL     ACCESS: 66970007  HIT: 66970006  MISS:     1  HIT %:   100  MISS %: 1.49321e-06  AVERAGE MISS PENALTY: 219
L1I LOAD      ACCESS: 66970007  HIT: 66970006  MISS:     1  HIT %:   100  MISS %: 1.49321e-06  AVERAGE MISS PENALTY: 219
L1I RFO       ACCESS:     0  HIT:     0  MISS:     0  HIT %:     0  MISS %:     0  AVERAGE MISS PENALTY: 0
L1I PREFETCH  ACCESS:     0  HIT:     0  MISS:     0  HIT %:     0  MISS %:     0  AVERAGE MISS PENALTY: 0
L1I WRITEBACK ACCESS:     0  HIT:     0  MISS:     0  HIT %:     0  MISS %:     0  AVERAGE MISS PENALTY: 0

L2C TOTAL     ACCESS: 37900649  HIT: 5396670  MISS: 32503979  HIT %: 14.239  MISS %: 85.761  AVERAGE MISS PENALTY: 1.77525e+08
L2C LOAD      ACCESS: 19224326  HIT: 319753  MISS: 18904573  HIT %: 1.66327  MISS %: 98.3367  AVERAGE MISS PENALTY: 3.05225e+08
L2C RFO       ACCESS: 356758  HIT:  3498  MISS: 353260  HIT %: 0.980497  MISS %: 99.0195  AVERAGE MISS PENALTY: 331503
L2C PREFETCH  ACCESS: 17718744  HIT: 4475833  MISS: 13242911  HIT %: 25.2604  MISS %: 74.7396  AVERAGE MISS PENALTY: 251.112
L2C WRITEBACK ACCESS: 600821  HIT: 597586  MISS:  3235  HIT %: 99.4616  MISS %: 0.53843  AVERAGE MISS PENALTY: 0


LLC0 TOTAL     ACCESS: 4140293  HIT: 1649334  MISS: 2490959  HIT %: 39.8362  MISS %: 60.1638  AVERAGE MISS PENALTY: 411.762
LLC0 LOAD      ACCESS: 1589471  HIT: 676850  MISS: 912621  HIT %: 42.5834  MISS %: 57.4166  AVERAGE MISS PENALTY: 405.749
LLC0 RFO       ACCESS: 44834  HIT:   371  MISS: 44463  HIT %: 0.827497  MISS %: 99.1725  AVERAGE MISS PENALTY: 414.116
LLC0 PREFETCH  ACCESS: 2431835  HIT: 920770  MISS: 1511065  HIT %: 37.8632  MISS %: 62.1368  AVERAGE MISS PENALTY: 421.541
LLC0 WRITEBACK ACCESS: 74153  HIT: 51343  MISS: 22810  HIT %: 69.2393  MISS %: 30.7607  AVERAGE MISS PENALTY: 0

LLC1 TOTAL     ACCESS: 4146382  HIT: 1656594  MISS: 2489788  HIT %: 39.9528  MISS %: 60.0472  AVERAGE MISS PENALTY: 416.421
LLC1 LOAD      ACCESS: 1615306  HIT: 690977  MISS: 924329  HIT %: 42.7768  MISS %: 57.2232  AVERAGE MISS PENALTY: 408.405
LLC1 RFO       ACCESS: 43695  HIT:     6  MISS: 43689  HIT %: 0.0137315  MISS %: 99.9863  AVERAGE MISS PENALTY: 421.212
LLC1 PREFETCH  ACCESS: 2412884  HIT: 914251  MISS: 1498633  HIT %: 37.8904  MISS %: 62.1096  AVERAGE MISS PENALTY: 427.655
LLC1 WRITEBACK ACCESS: 74497  HIT: 51360  MISS: 23137  HIT %: 68.9424  MISS %: 31.0576  AVERAGE MISS PENALTY: 0

LLC2 TOTAL     ACCESS: 4155302  HIT: 1655920  MISS: 2499382  HIT %: 39.8508  MISS %: 60.1492  AVERAGE MISS PENALTY: 409.44
LLC2 LOAD      ACCESS: 1620549  HIT: 694818  MISS: 925731  HIT %: 42.8755  MISS %: 57.1245  AVERAGE MISS PENALTY: 406.39
LLC2 RFO       ACCESS: 43742  HIT:    11  MISS: 43731  HIT %: 0.0251475  MISS %: 99.9749  AVERAGE MISS PENALTY: 421.172
LLC2 PREFETCH  ACCESS: 2415764  HIT: 908720  MISS: 1507044  HIT %: 37.6163  MISS %: 62.3837  AVERAGE MISS PENALTY: 417.189
LLC2 WRITEBACK ACCESS: 75247  HIT: 52371  MISS: 22876  HIT %: 69.5988  MISS %: 30.4012  AVERAGE MISS PENALTY: 0

LLC3 TOTAL     ACCESS: 4151069  HIT: 1648319  MISS: 2502750  HIT %: 39.7083  MISS %: 60.2917  AVERAGE MISS PENALTY: 414.286
LLC3 LOAD      ACCESS: 1626131  HIT: 694266  MISS: 931865  HIT %: 42.6943  MISS %: 57.3057  AVERAGE MISS PENALTY: 409.075
LLC3 RFO       ACCESS: 43660  HIT:     6  MISS: 43654  HIT %: 0.0137426  MISS %: 99.9863  AVERAGE MISS PENALTY: 425.868
LLC3 PREFETCH  ACCESS: 2406002  HIT: 900680  MISS: 1505322  HIT %: 37.4347  MISS %: 62.5653  AVERAGE MISS PENALTY: 423.206
LLC3 WRITEBACK ACCESS: 75276  HIT: 53367  MISS: 21909  HIT %: 70.8951  MISS %: 29.1049  AVERAGE MISS PENALTY: 0

LLC4 TOTAL     ACCESS: 4142197  HIT: 1674552  MISS: 2467645  HIT %: 40.4267  MISS %: 59.5733  AVERAGE MISS PENALTY: 412.268
LLC4 LOAD      ACCESS: 1653785  HIT: 717083  MISS: 936702  HIT %: 43.3601  MISS %: 56.6399  AVERAGE MISS PENALTY: 403.037
LLC4 RFO       ACCESS: 43671  HIT:    14  MISS: 43657  HIT %: 0.0320579  MISS %: 99.9679  AVERAGE MISS PENALTY: 416.66
LLC4 PREFETCH  ACCESS: 2371051  HIT: 905514  MISS: 1465537  HIT %: 38.1904  MISS %: 61.8096  AVERAGE MISS PENALTY: 424.155
LLC4 WRITEBACK ACCESS: 73690  HIT: 51941  MISS: 21749  HIT %: 70.4858  MISS %: 29.5142  AVERAGE MISS PENALTY: 0

LLC5 TOTAL     ACCESS: 4138020  HIT: 1677916  MISS: 2460104  HIT %: 40.5488  MISS %: 59.4512  AVERAGE MISS PENALTY: 399.797
LLC5 LOAD      ACCESS: 1706075  HIT: 748830  MISS: 957245  HIT %: 43.892  MISS %: 56.108  AVERAGE MISS PENALTY: 390.593
LLC5 RFO       ACCESS: 44430  HIT:   411  MISS: 44019  HIT %: 0.925051  MISS %: 99.0749  AVERAGE MISS PENALTY: 402.664
LLC5 PREFETCH  ACCESS: 2313438  HIT: 875609  MISS: 1437829  HIT %: 37.8488  MISS %: 62.1512  AVERAGE MISS PENALTY: 411.678
LLC5 WRITEBACK ACCESS: 74077  HIT: 53066  MISS: 21011  HIT %: 71.6363  MISS %: 28.3637  AVERAGE MISS PENALTY: 0

LLC6 TOTAL     ACCESS: 4115611  HIT: 1700165  MISS: 2415446  HIT %: 41.3101  MISS %: 58.6899  AVERAGE MISS PENALTY: 410
LLC6 LOAD      ACCESS: 1773419  HIT: 808571  MISS: 964848  HIT %: 45.5939  MISS %: 54.4061  AVERAGE MISS PENALTY: 403.851
LLC6 RFO       ACCESS: 44518  HIT:   313  MISS: 44205  HIT %: 0.703086  MISS %: 99.2969  AVERAGE MISS PENALTY: 422.929
LLC6 PREFETCH  ACCESS: 2221956  HIT: 837388  MISS: 1384568  HIT %: 37.687  MISS %: 62.313  AVERAGE MISS PENALTY: 420.336
LLC6 WRITEBACK ACCESS: 75718  HIT: 53893  MISS: 21825  HIT %: 71.1759  MISS %: 28.8241  AVERAGE MISS PENALTY: 0

LLC7 TOTAL     ACCESS: 4110259  HIT: 1722082  MISS: 2388177  HIT %: 41.8972  MISS %: 58.1028  AVERAGE MISS PENALTY: 398.194
LLC7 LOAD      ACCESS: 1843331  HIT: 840525  MISS: 1002806  HIT %: 45.5982  MISS %: 54.4018  AVERAGE MISS PENALTY: 390.174
LLC7 RFO       ACCESS: 44595  HIT:   398  MISS: 44197  HIT %: 0.892477  MISS %: 99.1075  AVERAGE MISS PENALTY: 408.728
LLC7 PREFETCH  ACCESS: 2146603  HIT: 826594  MISS: 1320009  HIT %: 38.5071  MISS %: 61.4929  AVERAGE MISS PENALTY: 410.319
LLC7 WRITEBACK ACCESS: 75730  HIT: 54565  MISS: 21165  HIT %: 72.052  MISS %: 27.948  AVERAGE MISS PENALTY: 0

Total Rob stall cycles : 	1580508349
Total Load Rob Stall cycles : 	1046437048
Average Rob Stall cycles : 	 32
Average Load Rob Stall cycles : 	 167

CPU 1 cumulative IPC: 0.123161 instructions: 200256165 cycles: 1625972481
ITLB TOTAL     ACCESS: 52097327  HIT: 52097327  MISS:     0  HIT %:   100  MISS %:     0  AVERAGE MISS PENALTY: 0
ITLB LOAD      ACCESS: 52097327  HIT: 52097327  MISS:     0  HIT %:   100  MISS %:     0  AVERAGE MISS PENALTY: 0
ITLB RFO       ACCESS:     0  HIT:     0  MISS:     0  HIT %:     0  MISS %:     0  AVERAGE MISS PENALTY: 0
ITLB PREFETCH  ACCESS:     0  HIT:     0  MISS:     0  HIT %:     0  MISS %:     0  AVERAGE MISS PENALTY: 0
ITLB WRITEBACK ACCESS:     0  HIT:     0  MISS:     0  HIT %:     0  MISS %:     0  AVERAGE MISS PENALTY: 0

DTLB TOTAL     ACCESS: 70822513  HIT: 70039278  MISS: 783235  HIT %: 98.8941  MISS %: 1.10591  AVERAGE MISS PENALTY: 10.4775
DTLB LOAD      ACCESS: 60161396  HIT: 59384857  MISS: 776539  HIT %: 98.7092  MISS %: 1.29076  AVERAGE MISS PENALTY: 9.73392
DTLB RFO       ACCESS: 10661117  HIT: 10654421  MISS:  6696  HIT %: 99.9372  MISS %: 0.0628077  AVERAGE MISS PENALTY: 96.7131
DTLB PREFETCH  ACCESS:     0  HIT:     0  MISS:     0  HIT %:     0  MISS %:     0  AVERAGE MISS PENALTY: 0
DTLB WRITEBACK ACCESS:     0  HIT:     0  MISS:     0  HIT %:     0  MISS %:     0  AVERAGE MISS PENALTY: 0

STLB TOTAL     ACCESS: 783235  HIT: 771944  MISS: 11291  HIT %: 98.5584  MISS %: 1.44159  AVERAGE MISS PENALTY: 100
STLB LOAD      ACCESS: 776539  HIT: 771118  MISS:  5421  HIT %: 99.3019  MISS %: 0.698098  AVERAGE MISS PENALTY: 100
STLB RFO       ACCESS:  6696  HIT:   826  MISS:  5870  HIT %: 12.3357  MISS %: 87.6643  AVERAGE MISS PENALTY: 100
STLB PREFETCH  ACCESS:     0  HIT:     0  MISS:     0  HIT %:     0  MISS %:     0  AVERAGE MISS PENALTY: 0
STLB WRITEBACK ACCESS:     0  HIT:     0  MISS:     0  HIT %:     0  MISS %:     0  AVERAGE MISS PENALTY: 0

L1D TOTAL     ACCESS: 103852850  HIT: 70871188  MISS: 32981662  HIT %: 68.2419  MISS %: 31.7581  AVERAGE MISS PENALTY: 1.90696e+08
L1D LOAD      ACCESS: 66547862  HIT: 47027810  MISS: 19520052  HIT %: 70.6676  MISS %: 29.3324  AVERAGE MISS PENALTY: 3.22008e+08
L1D RFO       ACCESS: 13129501  HIT: 12768997  MISS: 360504  HIT %: 97.2542  MISS %: 2.74576  AVERAGE MISS PENALTY: 1.07068e+07
L1D PREFETCH  ACCESS: 24175487  HIT: 11074381  MISS: 13101106  HIT %: 45.8083  MISS %: 54.1917  AVERAGE MISS PENALTY: 216.958
L1D WRITEBACK ACCESS:     0  HIT:     0  MISS:     0  HIT %:     0  MISS %:     0  AVERAGE MISS PENALTY: 0

L1I TOTAL     ACCESS: 66975273  HIT: 66975272  MISS:     1  HIT %:   100  MISS %: 1.49309e-06  AVERAGE MISS PENALTY: 579
L1I LOAD      ACCESS: 66975273  HIT: 66975272  MISS:     1  HIT %:   100  MISS %: 1.49309e-06  AVERAGE MISS PENALTY: 579
L1I RFO       ACCESS:     0  HIT:     0  MISS:     0  HIT %:     0  MISS %:     0  AVERAGE MISS PENALTY: 0
L1I PREFETCH  ACCESS:     0  HIT:     0  MISS:     0  HIT %:     0  MISS %:     0  AVERAGE MISS PENALTY: 0
L1I WRITEBACK ACCESS:     0  HIT:     0  MISS:     0  HIT %:     0  MISS %:     0  AVERAGE MISS PENALTY: 0

L2C TOTAL     ACCESS: 37882124  HIT: 4991327  MISS: 32890797  HIT %: 13.1759  MISS %: 86.8241  AVERAGE MISS PENALTY: 1.76837e+08
L2C LOAD      ACCESS: 19239390  HIT: 153198  MISS: 19086192  HIT %: 0.796273  MISS %: 99.2037  AVERAGE MISS PENALTY: 3.04732e+08
L2C RFO       ACCESS: 356530  HIT:  3446  MISS: 353084  HIT %: 0.966539  MISS %: 99.0335  AVERAGE MISS PENALTY: 336712
L2C PREFETCH  ACCESS: 17685383  HIT: 4236013  MISS: 13449370  HIT %: 23.9521  MISS %: 76.0479  AVERAGE MISS PENALTY: 257.138
L2C WRITEBACK ACCESS: 600821  HIT: 598670  MISS:  2151  HIT %: 99.642  MISS %: 0.35801  AVERAGE MISS PENALTY: 0


LLC0 TOTAL     ACCESS: 4191777  HIT: 1712242  MISS: 2479535  HIT %: 40.8476  MISS %: 59.1524  AVERAGE MISS PENALTY: 412.515
LLC0 LOAD      ACCESS: 1610411  HIT: 700145  MISS: 910266  HIT %: 43.4762  MISS %: 56.5238  AVERAGE MISS PENALTY: 405.992
LLC0 RFO       ACCESS: 44824  HIT:   494  MISS: 44330  HIT %: 1.10209  MISS %: 98.8979  AVERAGE MISS PENALTY: 423.868
LLC0 PREFETCH  ACCESS: 2462410  HIT: 957610  MISS: 1504800  HIT %: 38.8891  MISS %: 61.1109  AVERAGE MISS PENALTY: 421.647
LLC0 WRITEBACK ACCESS: 74132  HIT: 53993  MISS: 20139  HIT %: 72.8336  MISS %: 27.1664  AVERAGE MISS PENALTY: 0

LLC1 TOTAL     ACCESS: 4199062  HIT: 1704587  MISS: 2494475  HIT %: 40.5945  MISS %: 59.4055  AVERAGE MISS PENALTY: 416.975
LLC1 LOAD      ACCESS: 1632239  HIT: 711797  MISS: 920442  HIT %: 43.6086  MISS %: 56.3914  AVERAGE MISS PENALTY: 408.013
LLC1 RFO       ACCESS: 43693  HIT:     5  MISS: 43688  HIT %: 0.0114435  MISS %: 99.9886  AVERAGE MISS PENALTY: 430.595
LLC1 PREFETCH  ACCESS: 2448631  HIT: 938041  MISS: 1510590  HIT %: 38.3088  MISS %: 61.6912  AVERAGE MISS PENALTY: 427.495
LLC1 WRITEBACK ACCESS: 74499  HIT: 54744  MISS: 19755  HIT %: 73.4829  MISS %: 26.5171  AVERAGE MISS PENALTY: 0

LLC2 TOTAL     ACCESS: 4201742  HIT: 1707322  MISS: 2494420  HIT %: 40.6337  MISS %: 59.3663  AVERAGE MISS PENALTY: 410.419
LLC2 LOAD      ACCESS: 1640208  HIT: 715538  MISS: 924670  HIT %: 43.6248  MISS %: 56.3752  AVERAGE MISS PENALTY: 405.879
LLC2 RFO       ACCESS: 43705  HIT:     8  MISS: 43697  HIT %: 0.0183045  MISS %: 99.9817  AVERAGE MISS PENALTY: 431.833
LLC2 PREFETCH  ACCESS: 2443259  HIT: 936876  MISS: 1506383  HIT %: 38.3453  MISS %: 61.6547  AVERAGE MISS PENALTY: 417.944
LLC2 WRITEBACK ACCESS: 74570  HIT: 54900  MISS: 19670  HIT %: 73.6221  MISS %: 26.3779  AVERAGE MISS PENALTY: 0

LLC3 TOTAL     ACCESS: 4196892  HIT: 1706506  MISS: 2490386  HIT %: 40.6612  MISS %: 59.3388  AVERAGE MISS PENALTY: 414.65
[...]
LLC2 LOAD      ACCESS: 1641578  HIT: 723041  MISS: 918537  HIT %: 44.0455  MISS %: 55.9545  AVERAGE MISS PENALTY: 407.614
LLC2 RFO       ACCESS: 43733  HIT:     4  MISS: 43729  HIT %: 0.00914641  MISS %: 99.9909  AVERAGE MISS PENALTY: 424.501
LLC2 PREFETCH  ACCESS: 2436497  HIT: 941138  MISS: 1495359  HIT %: 38.6267  MISS %: 61.3733  AVERAGE MISS PENALTY: 418.663
LLC2 WRITEBACK ACCESS: 75211  HIT: 56441  MISS: 18770  HIT %: 75.0435  MISS %: 24.9565  AVERAGE MISS PENALTY: 0
LLC2 PREFETCH  REQUESTED:     0  ISSUED:     0  USEFUL: 1037626  USELESS: 10973975
 USEFUL LOAD PREFETCHES:    1037626 PREFETCH ISSUED TO LOWER LEVEL:   11998925  ACCURACY: 8.64766
 TIMELY PREFETCHES:    1037626 LATE PREFETCHES: 0 DROPPED PREFETCHES: 0
LLC2 AVERAGE MISS LATENCY: 411.495 cycles
LLC3 TOTAL     ACCESS: 4197599  HIT: 1737310  MISS: 2460289  HIT %: 41.3882  MISS %: 58.6118  AVERAGE MISS PENALTY: 415.683
LLC3 LOAD      ACCESS: 1649044  HIT: 733263  MISS: 915781  HIT %: 44.4659  MISS %: 55.5341  AVERAGE MISS PENALTY: 410.35
LLC3 RFO       ACCESS: 43647  HIT:     6  MISS: 43641  HIT %: 0.0137466  MISS %: 99.9863  AVERAGE MISS PENALTY: 430.904
LLC3 PREFETCH  ACCESS: 2429674  HIT: 946807  MISS: 1482867  HIT %: 38.9685  MISS %: 61.0315  AVERAGE MISS PENALTY: 423.575
LLC3 WRITEBACK ACCESS: 75234  HIT: 57234  MISS: 18000  HIT %: 76.0746  MISS %: 23.9254  AVERAGE MISS PENALTY: 0
LLC3 PREFETCH  REQUESTED:     0  ISSUED:     0  USEFUL: 1019499  USELESS: 10921901
 USEFUL LOAD PREFETCHES:    1019499 PREFETCH ISSUED TO LOWER LEVEL:   11928780  ACCURACY: 8.54655
 TIMELY PREFETCHES:    1019499 LATE PREFETCHES: 0 DROPPED PREFETCHES: 0
LLC3 AVERAGE MISS LATENCY: 415.683 cycles
LLC4 TOTAL     ACCESS: 4186000  HIT: 1708808  MISS: 2477192  HIT %: 40.822  MISS %: 59.178  AVERAGE MISS PENALTY: 413.813
LLC4 LOAD      ACCESS: 1666077  HIT: 730776  MISS: 935301  HIT %: 43.8621  MISS %: 56.1379  AVERAGE MISS PENALTY: 403.815
LLC4 RFO       ACCESS: 43668  HIT:     7  MISS: 43661  HIT %: 0.01603  MISS %: 99.984  AVERAGE MISS PENALTY: 418.192
LLC4 PREFETCH  ACCESS: 2402602  HIT: 921632  MISS: 1480970  HIT %: 38.3597  MISS %: 61.6403  AVERAGE MISS PENALTY: 424.821
LLC4 WRITEBACK ACCESS: 73653  HIT: 56393  MISS: 17260  HIT %: 76.5658  MISS %: 23.4342  AVERAGE MISS PENALTY: 0
LLC4 PREFETCH  REQUESTED:     0  ISSUED:     0  USEFUL: 982593  USELESS: 10852348
 USEFUL LOAD PREFETCHES:     982593 PREFETCH ISSUED TO LOWER LEVEL:   11822787  ACCURACY: 8.31101
 TIMELY PREFETCHES:     982593 LATE PREFETCHES: 0 DROPPED PREFETCHES: 0
LLC4 AVERAGE MISS LATENCY: 413.813 cycles
LLC5 TOTAL     ACCESS: 4176509  HIT: 1735213  MISS: 2441296  HIT %: 41.547  MISS %: 58.453  AVERAGE MISS PENALTY: 400.769
LLC5 LOAD      ACCESS: 1728848  HIT: 776183  MISS: 952665  HIT %: 44.896  MISS %: 55.104  AVERAGE MISS PENALTY: 390.968
LLC5 RFO       ACCESS: 44422  HIT:   394  MISS: 44028  HIT %: 0.886948  MISS %: 99.1131  AVERAGE MISS PENALTY: 405.951
LLC5 PREFETCH  ACCESS: 2329169  HIT: 901553  MISS: 1427616  HIT %: 38.7071  MISS %: 61.2929  AVERAGE MISS PENALTY: 411.918
LLC5 WRITEBACK ACCESS: 74070  HIT: 57083  MISS: 16987  HIT %: 77.0663  MISS %: 22.9337  AVERAGE MISS PENALTY: 0
LLC5 PREFETCH  REQUESTED:     0  ISSUED:     0  USEFUL: 932391  USELESS: 10520639
 USEFUL LOAD PREFETCHES:     932391 PREFETCH ISSUED TO LOWER LEVEL:   11441229  ACCURACY: 8.1494
 TIMELY PREFETCHES:     932391 LATE PREFETCHES: 0 DROPPED PREFETCHES: 0
LLC5 AVERAGE MISS LATENCY: 400.769 cycles
LLC6 TOTAL     ACCESS: 4165273  HIT: 1752398  MISS: 2412875  HIT %: 42.0716  MISS %: 57.9284  AVERAGE MISS PENALTY: 411.382
LLC6 LOAD      ACCESS: 1787595  HIT: 809279  MISS: 978316  HIT %: 45.2719  MISS %: 54.7281  AVERAGE MISS PENALTY: 404.575
LLC6 RFO       ACCESS: 44523  HIT:   351  MISS: 44172  HIT %: 0.788357  MISS %: 99.2116  AVERAGE MISS PENALTY: 424.874
LLC6 PREFETCH  ACCESS: 2257467  HIT: 883738  MISS: 1373729  HIT %: 39.1473  MISS %: 60.8527  AVERAGE MISS PENALTY: 420.784
LLC6 WRITEBACK ACCESS: 75688  HIT: 59030  MISS: 16658  HIT %: 77.9912  MISS %: 22.0088  AVERAGE MISS PENALTY: 0
LLC6 PREFETCH  REQUESTED:     0  ISSUED:     0  USEFUL: 955491  USELESS: 10089118
 USEFUL LOAD PREFETCHES:     955491 PREFETCH ISSUED TO LOWER LEVEL:   11032550  ACCURACY: 8.66065
 TIMELY PREFETCHES:     955491 LATE PREFETCHES: 0 DROPPED PREFETCHES: 0
LLC6 AVERAGE MISS LATENCY: 411.382 cycles
LLC7 TOTAL     ACCESS: 4145742  HIT: 1758987  MISS: 2386755  HIT %: 42.4288  MISS %: 57.5712  AVERAGE MISS PENALTY: 399.754
LLC7 LOAD      ACCESS: 1861346  HIT: 870378  MISS: 990968  HIT %: 46.7607  MISS %: 53.2393  AVERAGE MISS PENALTY: 392.132
LLC7 RFO       ACCESS: 44611  HIT:   451  MISS: 44160  HIT %: 1.01096  MISS %: 98.989  AVERAGE MISS PENALTY: 413.707
LLC7 PREFETCH  ACCESS: 2164067  HIT: 829191  MISS: 1334876  HIT %: 38.3163  MISS %: 61.6837  AVERAGE MISS PENALTY: 409.967
LLC7 WRITEBACK ACCESS: 75718  HIT: 58967  MISS: 16751  HIT %: 77.8771  MISS %: 22.1229  AVERAGE MISS PENALTY: 0
LLC7 PREFETCH  REQUESTED:     0  ISSUED:     0  USEFUL: 928913  USELESS: 9745548
 USEFUL LOAD PREFETCHES:     928913 PREFETCH ISSUED TO LOWER LEVEL:   10662992  ACCURACY: 8.71156
 TIMELY PREFETCHES:     928913 LATE PREFETCHES: 0 DROPPED PREFETCHES: 0
LLC7 AVERAGE MISS LATENCY: 399.754 cycles
ROI Average ROB Stall Cycles:	32.5963
ROI Total ROB Stalls Cycles:	1575995868
ROI TOTAL ROB counter      :	48348848
ROI Average Load ROB Stall Cycles:	167.353
ROI Total Load ROB Stalls Cycle  :	1048285712
ROI Total Load ROB stalls Counter:	6263907
Major fault: 0 Minor fault: 25655

CPU 7 cumulative IPC: 0.124315 instructions: 200000003 cycles: 1608816380
ITLB TOTAL     ACCESS: 51995503  HIT: 51995503  MISS:     0  HIT %:   100  MISS %:     0  AVERAGE MISS PENALTY: 0
ITLB LOAD      ACCESS: 51995503  HIT: 51995503  MISS:     0  HIT %:   100  MISS %:     0  AVERAGE MISS PENALTY: 0
ITLB RFO       ACCESS:     0  HIT:     0  MISS:     0  HIT %:     0  MISS %:     0  AVERAGE MISS PENALTY: 0
ITLB PREFETCH  ACCESS:     0  HIT:     0  MISS:     0  HIT %:     0  MISS %:     0  AVERAGE MISS PENALTY: 0
ITLB WRITEBACK ACCESS:     0  HIT:     0  MISS:     0  HIT %:     0  MISS %:     0  AVERAGE MISS PENALTY: 0
ITLB PREFETCH  REQUESTED:     0  ISSUED:     0  USEFUL:     0  USELESS:     0
 USEFUL LOAD PREFETCHES:          0 PREFETCH ISSUED TO LOWER LEVEL:          0  ACCURACY: -nan
 TIMELY PREFETCHES:          0 LATE PREFETCHES: 0 DROPPED PREFETCHES: 0
ITLB AVERAGE MISS LATENCY: -nan cycles
DTLB TOTAL     ACCESS: 70701054  HIT: 69918907  MISS: 782147  HIT %: 98.8937  MISS %: 1.10627  AVERAGE MISS PENALTY: 10.4791
DTLB LOAD      ACCESS: 60051858  HIT: 59276425  MISS: 775433  HIT %: 98.7087  MISS %: 1.29127  AVERAGE MISS PENALTY: 9.73433
DTLB RFO       ACCESS: 10649196  HIT: 10642482  MISS:  6714  HIT %: 99.937  MISS %: 0.063047  AVERAGE MISS PENALTY: 96.4927
DTLB PREFETCH  ACCESS:     0  HIT:     0  MISS:     0  HIT %:     0  MISS %:     0  AVERAGE MISS PENALTY: 0
DTLB WRITEBACK ACCESS:     0  HIT:     0  MISS:     0  HIT %:     0  MISS %:     0  AVERAGE MISS PENALTY: 0
DTLB PREFETCH  REQUESTED:     0  ISSUED:     0  USEFUL:     0  USELESS:     0
 USEFUL LOAD PREFETCHES:          0 PREFETCH ISSUED TO LOWER LEVEL:          0  ACCURACY: -nan
 TIMELY PREFETCHES:          0 LATE PREFETCHES: 0 DROPPED PREFETCHES: 0
DTLB AVERAGE MISS LATENCY: 10.4791 cycles
STLB TOTAL     ACCESS: 782147  HIT: 770856  MISS: 11291  HIT %: 98.5564  MISS %: 1.44359  AVERAGE MISS PENALTY: 100
STLB LOAD      ACCESS: 775433  HIT: 770013  MISS:  5420  HIT %: 99.301  MISS %: 0.698964  AVERAGE MISS PENALTY: 100
STLB RFO       ACCESS:  6714  HIT:   843  MISS:  5871  HIT %: 12.5559  MISS %: 87.4441  AVERAGE MISS PENALTY: 100
STLB PREFETCH  ACCESS:     0  HIT:     0  MISS:     0  HIT %:     0  MISS %:     0  AVERAGE MISS PENALTY: 0
STLB WRITEBACK ACCESS:     0  HIT:     0  MISS:     0  HIT %:     0  MISS %:     0  AVERAGE MISS PENALTY: 0
STLB PREFETCH  REQUESTED:     0  ISSUED:     0  USEFUL:     0  USELESS:     0
 USEFUL LOAD PREFETCHES:          0 PREFETCH ISSUED TO LOWER LEVEL:          0  ACCURACY: -nan
 TIMELY PREFETCHES:          0 LATE PREFETCHES: 0 DROPPED PREFETCHES: 0
STLB AVERAGE MISS LATENCY: 100 cycles
L1D TOTAL     ACCESS: 103859517  HIT: 70931542  MISS: 32927975  HIT %: 68.2957  MISS %: 31.7043  AVERAGE MISS PENALTY: 1.88179e+08
L1D LOAD      ACCESS: 66475623  HIT: 47051114  MISS: 19424509  HIT %: 70.7795  MISS %: 29.2205  AVERAGE MISS PENALTY: 3.18797e+08
L1D RFO       ACCESS: 13106106  HIT: 12745110  MISS: 360996  HIT %: 97.2456  MISS %: 2.75441  AVERAGE MISS PENALTY: 1.07223e+07
L1D PREFETCH  ACCESS: 24277788  HIT: 11135318  MISS: 13142470  HIT %: 45.8663  MISS %: 54.1337  AVERAGE MISS PENALTY: 211.884
L1D WRITEBACK ACCESS:     0  HIT:     0  MISS:     0  HIT %:     0  MISS %:     0  AVERAGE MISS PENALTY: 0
L1D PREFETCH  REQUESTED: 41741336  ISSUED: 41723878  USEFUL: 10623675  USELESS: 2518723
 USEFUL LOAD PREFETCHES:   10623675 PREFETCH ISSUED TO LOWER LEVEL:   31831987  ACCURACY: 33.3742
 TIMELY PREFETCHES:   10623675 LATE PREFETCHES: 8170632 DROPPED PREFETCHES: 17458
L1D AVERAGE MISS LATENCY: 117789 cycles
L1I TOTAL     ACCESS: 66865300  HIT: 66865299  MISS:     1  HIT %:   100  MISS %: 1.49554e-06  AVERAGE MISS PENALTY: 338
L1I LOAD      ACCESS: 66865300  HIT: 66865299  MISS:     1  HIT %:   100  MISS %: 1.49554e-06  AVERAGE MISS PENALTY: 338
L1I RFO       ACCESS:     0  HIT:     0  MISS:     0  HIT %:     0  MISS %:     0  AVERAGE MISS PENALTY: 0
L1I PREFETCH  ACCESS:     0  HIT:     0  MISS:     0  HIT %:     0  MISS %:     0  AVERAGE MISS PENALTY: 0
L1I WRITEBACK ACCESS:     0  HIT:     0  MISS:     0  HIT %:     0  MISS %:     0  AVERAGE MISS PENALTY: 0
L1I PREFETCH  REQUESTED:     0  ISSUED:     0  USEFUL:     0  USELESS:     0
 USEFUL LOAD PREFETCHES:          0 PREFETCH ISSUED TO LOWER LEVEL:          0  ACCURACY: -nan
 TIMELY PREFETCHES:          0 LATE PREFETCHES: 0 DROPPED PREFETCHES: 0
L1I AVERAGE MISS LATENCY: 338 cycles
L2C TOTAL     ACCESS: 37967878  HIT: 5491530  MISS: 32476348  HIT %: 14.4636  MISS %: 85.5364  AVERAGE MISS PENALTY: 1.76099e+08
L2C LOAD      ACCESS: 19138250  HIT: 255329  MISS: 18882921  HIT %: 1.33413  MISS %: 98.6659  AVERAGE MISS PENALTY: 3.0286e+08
L2C RFO       ACCESS: 356977  HIT:  3542  MISS: 353435  HIT %: 0.992221  MISS %: 99.0078  AVERAGE MISS PENALTY: 435006
L2C PREFETCH  ACCESS: 17871851  HIT: 4633979  MISS: 13237872  HIT %: 25.9289  MISS %: 74.0711  AVERAGE MISS PENALTY: 253.382
L2C WRITEBACK ACCESS: 600800  HIT: 598680  MISS:  2120  HIT %: 99.6471  MISS %: 0.352863  AVERAGE MISS PENALTY: 0
L2C PREFETCH  REQUESTED: 7383890  ISSUED: 7369516  USEFUL: 77903  USELESS: 13164089
 USEFUL LOAD PREFETCHES:      77903 PREFETCH ISSUED TO LOWER LEVEL:   21711404  ACCURACY: 0.358811
 TIMELY PREFETCHES:      77903 LATE PREFETCHES: 6369385 DROPPED PREFETCHES: 14374
L2C AVERAGE MISS LATENCY: 256.806 cycles
LLC0 TOTAL     ACCESS: 4134021  HIT: 1734798  MISS: 2399223  HIT %: 41.9639  MISS %: 58.0361  AVERAGE MISS PENALTY: 411.787
LLC0 LOAD      ACCESS: 1587685  HIT: 714273  MISS: 873412  HIT %: 44.9883  MISS %: 55.0117  AVERAGE MISS PENALTY: 407.197
LLC0 RFO       ACCESS: 44865  HIT:   373  MISS: 44492  HIT %: 0.831383  MISS %: 99.1686  AVERAGE MISS PENALTY: 412.237
LLC0 PREFETCH  ACCESS: 2427344  HIT: 968490  MISS: 1458854  HIT %: 39.8992  MISS %: 60.1008  AVERAGE MISS PENALTY: 420.862
LLC0 WRITEBACK ACCESS: 74127  HIT: 51662  MISS: 22465  HIT %: 69.6939  MISS %: 30.3061  AVERAGE MISS PENALTY: 0
LLC0 PREFETCH  REQUESTED:     0  ISSUED:     0  USEFUL: 1062753  USELESS: 10921227
 USEFUL LOAD PREFETCHES:    1062753 PREFETCH ISSUED TO LOWER LEVEL:   11970860  ACCURACY: 8.87783
 TIMELY PREFETCHES:    1062753 LATE PREFETCHES: 0 DROPPED PREFETCHES: 0
LLC0 AVERAGE MISS LATENCY: 411.787 cycles
Deadblocks : 5956301 Deadblock percentage : 681.958

LLC1 TOTAL     ACCESS: 4146837  HIT: 1697471  MISS: 2449366  HIT %: 40.9341  MISS %: 59.0659  AVERAGE MISS PENALTY: 416.386
LLC1 LOAD      ACCESS: 1612379  HIT: 706990  MISS: 905389  HIT %: 43.8476  MISS %: 56.1524  AVERAGE MISS PENALTY: 410.547
LLC1 RFO       ACCESS: 43726  HIT:     4  MISS: 43722  HIT %: 0.00914788  MISS %: 99.9909  AVERAGE MISS PENALTY: 418.213
LLC1 PREFETCH  ACCESS: 2416257  HIT: 938354  MISS: 1477903  HIT %: 38.835  MISS %: 61.165  AVERAGE MISS PENALTY: 426.205
LLC1 WRITEBACK ACCESS: 74475  HIT: 52123  MISS: 22352  HIT %: 69.9872  MISS %: 30.0128  AVERAGE MISS PENALTY: 0
LLC1 PREFETCH  REQUESTED:     0  ISSUED:     0  USEFUL: 1035030  USELESS: 11002238
 USEFUL LOAD PREFETCHES:    1035030 PREFETCH ISSUED TO LOWER LEVEL:   12024172  ACCURACY: 8.60791
 TIMELY PREFETCHES:    1035030 LATE PREFETCHES: 0 DROPPED PREFETCHES: 0
LLC1 AVERAGE MISS LATENCY: 416.386 cycles
LLC2 TOTAL     ACCESS: 4143791  HIT: 1699083  MISS: 2444708  HIT %: 41.0031  MISS %: 58.9969  AVERAGE MISS PENALTY: 409.625
LLC2 LOAD      ACCESS: 1617170  HIT: 709825  MISS: 907345  HIT %: 43.893  MISS %: 56.107  AVERAGE MISS PENALTY: 407.488
LLC2 RFO       ACCESS: 43753  HIT:     4  MISS: 43749  HIT %: 0.00914223  MISS %: 99.9909  AVERAGE MISS PENALTY: 421.186
LLC2 PREFETCH  ACCESS: 2407662  HIT: 936457  MISS: 1471205  HIT %: 38.8949  MISS %: 61.1051  AVERAGE MISS PENALTY: 416.839
LLC2 WRITEBACK ACCESS: 75206  HIT: 52797  MISS: 22409  HIT %: 70.2032  MISS %: 29.7968  AVERAGE MISS PENALTY: 0
LLC2 PREFETCH  REQUESTED:     0  ISSUED:     0  USEFUL: 1037626  USELESS: 10973975
 USEFUL LOAD PREFETCHES:    1037626 PREFETCH ISSUED TO LOWER LEVEL:   11998925  ACCURACY: 8.64766
 TIMELY PREFETCHES:    1037626 LATE PREFETCHES: 0 DROPPED PREFETCHES: 0
LLC2 AVERAGE MISS LATENCY: 409.625 cycles
LLC3 TOTAL     ACCESS: 4154498  HIT: 1733843  MISS: 2420655  HIT %: 41.7341  MISS %: 58.2659  AVERAGE MISS PENALTY: 413.892
LLC3 LOAD      ACCESS: 1630205  HIT: 728733  MISS: 901472  HIT %: 44.7019  MISS %: 55.2981  AVERAGE MISS PENALTY: 410.422
LLC3 RFO       ACCESS: 43666  HIT:     6  MISS: 43660  HIT %: 0.0137407  MISS %: 99.9863  AVERAGE MISS PENALTY: 425.138
LLC3 PREFETCH  ACCESS: 2405496  HIT: 951546  MISS: 1453950  HIT %: 39.5572  MISS %: 60.4428  AVERAGE MISS PENALTY: 421.846
LLC3 WRITEBACK ACCESS: 75131  HIT: 53558  MISS: 21573  HIT %: 71.2862  MISS %: 28.7138  AVERAGE MISS PENALTY: 0
LLC3 PREFETCH  REQUESTED:     0  ISSUED:     0  USEFUL: 1019499  USELESS: 10921901
 USEFUL LOAD PREFETCHES:    1019499 PREFETCH ISSUED TO LOWER LEVEL:   11928780  ACCURACY: 8.54655
 TIMELY PREFETCHES:    1019499 LATE PREFETCHES: 0 DROPPED PREFETCHES: 0
LLC3 AVERAGE MISS LATENCY: 413.892 cycles
LLC4 TOTAL     ACCESS: 4138144  HIT: 1689279  MISS: 2448865  HIT %: 40.8221  MISS %: 59.1779  AVERAGE MISS PENALTY: 411.543
LLC4 LOAD      ACCESS: 1645259  HIT: 720446  MISS: 924813  HIT %: 43.7892  MISS %: 56.2108  AVERAGE MISS PENALTY: 403.519
LLC4 RFO       ACCESS: 43701  HIT:     9  MISS: 43692  HIT %: 0.0205945  MISS %: 99.9794  AVERAGE MISS PENALTY: 413.705
LLC4 PREFETCH  ACCESS: 2375530  HIT: 916259  MISS: 1459271  HIT %: 38.5707  MISS %: 61.4293  AVERAGE MISS PENALTY: 422.512
LLC4 WRITEBACK ACCESS: 73654  HIT: 52565  MISS: 21089  HIT %: 71.3675  MISS %: 28.6325  AVERAGE MISS PENALTY: 0
LLC4 PREFETCH  REQUESTED:     0  ISSUED:     0  USEFUL: 982593  USELESS: 10852348
 USEFUL LOAD PREFETCHES:     982593 PREFETCH ISSUED TO LOWER LEVEL:   11822787  ACCURACY: 8.31101
 TIMELY PREFETCHES:     982593 LATE PREFETCHES: 0 DROPPED PREFETCHES: 0
LLC4 AVERAGE MISS LATENCY: 411.543 cycles
LLC5 TOTAL     ACCESS: 4128350  HIT: 1733000  MISS: 2395350  HIT %: 41.978  MISS %: 58.022  AVERAGE MISS PENALTY: 399.025
LLC5 LOAD      ACCESS: 1705346  HIT: 773114  MISS: 932232  HIT %: 45.3347  MISS %: 54.6653  AVERAGE MISS PENALTY: 391.286
LLC5 RFO       ACCESS: 44446  HIT:   358  MISS: 44088  HIT %: 0.805472  MISS %: 99.1945  AVERAGE MISS PENALTY: 400.617
LLC5 PREFETCH  ACCESS: 2304483  HIT: 906415  MISS: 1398068  HIT %: 39.3327  MISS %: 60.6673  AVERAGE MISS PENALTY: 410.119
LLC5 WRITEBACK ACCESS: 74075  HIT: 53113  MISS: 20962  HIT %: 71.7017  MISS %: 28.2983  AVERAGE MISS PENALTY: 0
LLC5 PREFETCH  REQUESTED:     0  ISSUED:     0  USEFUL: 932391  USELESS: 10520639
 USEFUL LOAD PREFETCHES:     932391 PREFETCH ISSUED TO LOWER LEVEL:   11441229  ACCURACY: 8.1494
 TIMELY PREFETCHES:     932391 LATE PREFETCHES: 0 DROPPED PREFETCHES: 0
LLC5 AVERAGE MISS LATENCY: 399.025 cycles
LLC6 TOTAL     ACCESS: 4119010  HIT: 1742835  MISS: 2376175  HIT %: 42.312  MISS %: 57.688  AVERAGE MISS PENALTY: 409.264
LLC6 LOAD      ACCESS: 1774822  HIT: 807546  MISS: 967276  HIT %: 45.5001  MISS %: 54.4999  AVERAGE MISS PENALTY: 403.983
LLC6 RFO       ACCESS: 44513  HIT:   282  MISS: 44231  HIT %: 0.633523  MISS %: 99.3665  AVERAGE MISS PENALTY: 419.044
LLC6 PREFETCH  ACCESS: 2223994  HIT: 880101  MISS: 1343893  HIT %: 39.573  MISS %: 60.427  AVERAGE MISS PENALTY: 419.069
LLC6 WRITEBACK ACCESS: 75681  HIT: 54906  MISS: 20775  HIT %: 72.5493  MISS %: 27.4507  AVERAGE MISS PENALTY: 0
LLC6 PREFETCH  REQUESTED:     0  ISSUED:     0  USEFUL: 955491  USELESS: 10089118
 USEFUL LOAD PREFETCHES:     955491 PREFETCH ISSUED TO LOWER LEVEL:   11032550  ACCURACY: 8.66065
 TIMELY PREFETCHES:     955491 LATE PREFETCHES: 0 DROPPED PREFETCHES: 0
LLC6 AVERAGE MISS LATENCY: 409.264 cycles
LLC7 TOTAL     ACCESS: 4107660  HIT: 1743119  MISS: 2364541  HIT %: 42.4358  MISS %: 57.5642  AVERAGE MISS PENALTY: 397.789
LLC7 LOAD      ACCESS: 1841918  HIT: 856979  MISS: 984939  HIT %: 46.5264  MISS %: 53.4736  AVERAGE MISS PENALTY: 391.503
LLC7 RFO       ACCESS: 44609  HIT:   308  MISS: 44301  HIT %: 0.690444  MISS %: 99.3096  AVERAGE MISS PENALTY: 408.872
LLC7 PREFETCH  ACCESS: 2145399  HIT: 830784  MISS: 1314615  HIT %: 38.724  MISS %: 61.276  AVERAGE MISS PENALTY: 408.385
LLC7 WRITEBACK ACCESS: 75734  HIT: 55048  MISS: 20686  HIT %: 72.686  MISS %: 27.314  AVERAGE MISS PENALTY: 0
LLC7 PREFETCH  REQUESTED:     0  ISSUED:     0  USEFUL: 928913  USELESS: 9745548
 USEFUL LOAD PREFETCHES:     928913 PREFETCH ISSUED TO LOWER LEVEL:   10662992  ACCURACY: 8.71156
 TIMELY PREFETCHES:     928913 LATE PREFETCHES: 0 DROPPED PREFETCHES: 0
LLC7 AVERAGE MISS LATENCY: 397.789 cycles
ROI Average ROB Stall Cycles:	32.3643
ROI Total ROB Stalls Cycles:	1563389745
ROI TOTAL ROB counter      :	48306010
ROI Average Load ROB Stall Cycles:	166.508
ROI Total Load ROB Stalls Cycle  :	1039720017
ROI Total Load ROB stalls Counter:	6244263
Major fault: 0 Minor fault: 25656








Interconnect Stats 
LINK 0 BW : 0LINK 1 BW : 0LINK 2 BW : 0LINK 3 BW : 0LINK 4 BW : 0LINK 5 BW : 0LINK 6 BW : 0LINK 7 BW : 0
DRAM Statistics
 CHANNEL 0
 RQ ROW_BUFFER_HIT: 15583747  ROW_BUFFER_MISS: 62575719
 DBUS_CONGESTED: 37920904
 WQ ROW_BUFFER_HIT: 297975  ROW_BUFFER_MISS: 2085986  FULL:     0

 CHANNEL 1
 RQ ROW_BUFFER_HIT: 15546586  ROW_BUFFER_MISS: 62322081
 DBUS_CONGESTED: 37920904
 WQ ROW_BUFFER_HIT: 298488  ROW_BUFFER_MISS: 2087264  FULL:     0

 AVG_CONGESTED_CYCLE: 5
DRAM PAGES: 2097152
Allocated PAGES: 205242
L2C destructor called
L1D destructor called
L1I destructor called
STLB destructor called
DTLB destructor called
ITLB destructor called
L2C destructor called
L1D destructor called
L1I destructor called
STLB destructor called
DTLB destructor called
ITLB destructor called
L2C destructor called
L1D destructor called
L1I destructor called
STLB destructor called
DTLB destructor called
ITLB destructor called
L2C destructor called
L1D destructor called
L1I destructor called
STLB destructor called
DTLB destructor called
ITLB destructor called
L2C destructor called
L1D destructor called
L1I destructor called
STLB destructor called
DTLB destructor called
ITLB destructor called
L2C destructor called
L1D destructor called
L1I destructor called
STLB destructor called
DTLB destructor called
ITLB destructor called
L2C destructor called
L1D destructor called
L1I destructor called
STLB destructor called
DTLB destructor called
ITLB destructor called
L2C destructor called
L1D destructor called
L1I destructor called
STLB destructor called
DTLB destructor called
ITLB destructor called
