
*** ChampSim Multicore Out-of-Order Simulator ***

Warmup Instructions: 200000000
Simulation Instructions: 200000000
Number of CPUs: 8
threads:1

L1I Configuration:
L1I_SET:64
L1I_WAY:8
L1I_RQ_SIZE:64
L1I_WQ_SIZE:64
L1I_PQ_SIZE:8
L1I_MSHR_SIZE:8

L1D Configuration:
L1D_SET:64
L1D_WAY:12
L1D_RQ_SIZE:64
L1D_WQ_SIZE:64
L1D_PQ_SIZE:8
L1D_MSHR_SIZE:16

L2C Configuration:
L2C_SET:1024
L2C_WAY:8
L2C_RQ_SIZE:32
L2C_WQ_SIZE:32
L2C_PQ_SIZE:16
L2C_MSHR_SIZE:32

LLC Configuration:
LLC_SET:2048
LLC_WAY:16
LLC SLICES:8
LLC_RQ_SIZE:64
LLC_WQ_SIZE:64
LLC_PQ_SIZE:32
LLC_MSHR_SIZE:64

Interconnect OFF
Attacker deprioritize is: OFF
Off-chip DRAM Size: 8192 MB Channels: 2 Width: 64-bit Data Rate: 3200 MT/s
PAGE SIZE in KB: 4.000000 
PAGE SIZE in MB: 0.003906 
PAGE offset in bits: 12 
CEASER-S_LLC:0
MIRAGE : 0
CEASER_LATENCY:3
REMAP : OFF
Partitions : 1
Multi-Step : OFF
BFS : OFF

CPU 0 runs /home/anubhav/spec_2017/607.cactuBSSN_s-3477B.champsimtrace.xz
CPU 1 runs /home/anubhav/spec_2017/607.cactuBSSN_s-3477B.champsimtrace.xz
CPU 2 runs /home/anubhav/spec_2017/607.cactuBSSN_s-3477B.champsimtrace.xz
CPU 3 runs /home/anubhav/spec_2017/607.cactuBSSN_s-3477B.champsimtrace.xz
CPU 4 runs /home/anubhav/spec_2017/607.cactuBSSN_s-3477B.champsimtrace.xz
CPU 5 runs /home/anubhav/spec_2017/607.cactuBSSN_s-3477B.champsimtrace.xz
CPU 6 runs /home/anubhav/spec_2017/607.cactuBSSN_s-3477B.champsimtrace.xz
CPU 7 runs /home/anubhav/spec_2017/607.cactuBSSN_s-3477B.champsimtrace.xz
CPU 0 Bimodal branch predictor
Initialize Hawkeye state
Initialize Hawkeye state
Initialize Hawkeye state
Initialize Hawkeye state
Initialize Hawkeye state
Initialize Hawkeye state
Initialize Hawkeye state
Initialize Hawkeye state
CPU 1 Bimodal branch predictor
Initialize Hawkeye state
Initialize Hawkeye state
Initialize Hawkeye state
Initialize Hawkeye state
Initialize Hawkeye state
Initialize Hawkeye state
Initialize Hawkeye state
Initialize Hawkeye state
CPU 2 Bimodal branch predictor
Initialize Hawkeye state
Initialize Hawkeye state
Initialize Hawkeye state
Initialize Hawkeye state
Initialize Hawkeye state
Initialize Hawkeye state
Initialize Hawkeye state
Initialize Hawkeye state
CPU 3 Bimodal branch predictor
Initialize Hawkeye state
Initialize Hawkeye state
Initialize Hawkeye state
Initialize Hawkeye state
Initialize Hawkeye state
Initialize Hawkeye state
Initialize Hawkeye state
Initialize Hawkeye state
CPU 4 Bimodal branch predictor
Initialize Hawkeye state
Initialize Hawkeye state
Initialize Hawkeye state
Initialize Hawkeye state
Initialize Hawkeye state
Initialize Hawkeye state
Initialize Hawkeye state
Initialize Hawkeye state
CPU 5 Bimodal branch predictor
Initialize Hawkeye state
Initialize Hawkeye state
Initialize Hawkeye state
Initialize Hawkeye state
Initialize Hawkeye state
Initialize Hawkeye state
Initialize Hawkeye state
Initialize Hawkeye state
CPU 6 Bimodal branch predictor
Initialize Hawkeye state
Initialize Hawkeye state
Initialize Hawkeye state
Initialize Hawkeye state
Initialize Hawkeye state
Initialize Hawkeye state
Initialize Hawkeye state
Initialize Hawkeye state
CPU 7 Bimodal branch predictor
Initialize Hawkeye state
Initialize Hawkeye state
Initialize Hawkeye state
Initialize Hawkeye state
Initialize Hawkeye state
Initialize Hawkeye state
Initialize Hawkeye state
Initialize Hawkeye state
Heartbeat CPU 5 instructions: 10000002 cycles: 5456442 heartbeat IPC: 1.8327 cumulative IPC: 1.8327 (Simulation time: 3 hr 7 min 58 sec) 
 Total Blocks : 262144 Invalid Blocks : 91004
Heartbeat CPU 0 instructions: 10000002 cycles: 5456485 heartbeat IPC: 1.83268 cumulative IPC: 1.83268 (Simulation time: 3 hr 8 min 4 sec) 
 Total Blocks : 262144 Invalid Blocks : 91004
Heartbeat CPU 4 instructions: 10000002 cycles: 5456612 heartbeat IPC: 1.83264 cumulative IPC: 1.83264 (Simulation time: 3 hr 8 min 4 sec) 
 Total Blocks : 262144 Invalid Blocks : 91004
Heartbeat CPU 3 instructions: 10000002 cycles: 5457356 heartbeat IPC: 1.83239 cumulative IPC: 1.83239 (Simulation time: 3 hr 8 min 7 sec) 
 Total Blocks : 262144 Invalid Blocks : 90982
Heartbeat CPU 2 instructions: 10000002 cycles: 5457501 heartbeat IPC: 1.83234 cumulative IPC: 1.83234 (Simulation time: 3 hr 8 min 8 sec) 
 Total Blocks : 262144 Invalid Blocks : 90976
Heartbeat CPU 1 instructions: 10000002 cycles: 5457828 heartbeat IPC: 1.83223 cumulative IPC: 1.83223 (Simulation time: 3 hr 8 min 8 sec) 
 Total Blocks : 262144 Invalid Blocks : 90968
Heartbeat CPU 7 instructions: 10000002 cycles: 5457902 heartbeat IPC: 1.83221 cumulative IPC: 1.83221 (Simulation time: 3 hr 8 min 9 sec) 
 Total Blocks : 262144 Invalid Blocks : 90963
Heartbeat CPU 6 instructions: 10000002 cycles: 5457978 heartbeat IPC: 1.83218 cumulative IPC: 1.83218 (Simulation time: 3 hr 8 min 9 sec) 
 Total Blocks : 262144 Invalid Blocks : 90954
Heartbeat CPU 0 instructions: 20000000 cycles: 10923578 heartbeat IPC: 1.82913 cumulative IPC: 1.8309 (Simulation time: 5 hr 47 min 42 sec) 
 Total Blocks : 262144 Invalid Blocks : 38438
Heartbeat CPU 5 instructions: 20000000 cycles: 10923620 heartbeat IPC: 1.8291 cumulative IPC: 1.83089 (Simulation time: 5 hr 47 min 51 sec) 
 Total Blocks : 262144 Invalid Blocks : 38438
Heartbeat CPU 4 instructions: 20000000 cycles: 10923800 heartbeat IPC: 1.82909 cumulative IPC: 1.83086 (Simulation time: 5 hr 47 min 54 sec) 
 Total Blocks : 262144 Invalid Blocks : 38437
Heartbeat CPU 3 instructions: 20000000 cycles: 10924280 heartbeat IPC: 1.82918 cumulative IPC: 1.83078 (Simulation time: 5 hr 47 min 59 sec) 
 Total Blocks : 262144 Invalid Blocks : 38435
Heartbeat CPU 7 instructions: 20000000 cycles: 10924362 heartbeat IPC: 1.82934 cumulative IPC: 1.83077 (Simulation time: 5 hr 48 min 0 sec) 
 Total Blocks : 262144 Invalid Blocks : 38435
Heartbeat CPU 2 instructions: 20000000 cycles: 10924574 heartbeat IPC: 1.82913 cumulative IPC: 1.83073 (Simulation time: 5 hr 48 min 0 sec) 
 Total Blocks : 262144 Invalid Blocks : 38435
Heartbeat CPU 1 instructions: 20000000 cycles: 10924995 heartbeat IPC: 1.8291 cumulative IPC: 1.83066 (Simulation time: 5 hr 48 min 2 sec) 
 Total Blocks : 262144 Invalid Blocks : 38435
Heartbeat CPU 6 instructions: 20000000 cycles: 10925083 heartbeat IPC: 1.82912 cumulative IPC: 1.83065 (Simulation time: 5 hr 48 min 3 sec) 
 Total Blocks : 262144 Invalid Blocks : 38435
Heartbeat CPU 0 instructions: 30000000 cycles: 16379358 heartbeat IPC: 1.83292 cumulative IPC: 1.83157 (Simulation time: 8 hr 21 min 36 sec) 
 Total Blocks : 262144 Invalid Blocks : 16952
Heartbeat CPU 5 instructions: 30000000 cycles: 16379459 heartbeat IPC: 1.8329 cumulative IPC: 1.83156 (Simulation time: 8 hr 21 min 43 sec) 
 Total Blocks : 262144 Invalid Blocks : 16952
Heartbeat CPU 4 instructions: 30000000 cycles: 16379559 heartbeat IPC: 1.83293 cumulative IPC: 1.83155 (Simulation time: 8 hr 21 min 45 sec) 
 Total Blocks : 262144 Invalid Blocks : 16952
Heartbeat CPU 3 instructions: 30000000 cycles: 16380218 heartbeat IPC: 1.83287 cumulative IPC: 1.83148 (Simulation time: 8 hr 21 min 49 sec) 
 Total Blocks : 262144 Invalid Blocks : 16944
Heartbeat CPU 7 instructions: 30000000 cycles: 16380234 heartbeat IPC: 1.83289 cumulative IPC: 1.83148 (Simulation time: 8 hr 21 min 50 sec) 
 Total Blocks : 262144 Invalid Blocks : 16944
Heartbeat CPU 2 instructions: 30000000 cycles: 16380540 heartbeat IPC: 1.83286 cumulative IPC: 1.83144 (Simulation time: 8 hr 21 min 51 sec) 
 Total Blocks : 262144 Invalid Blocks : 16944
Heartbeat CPU 1 instructions: 30000000 cycles: 16380965 heartbeat IPC: 1.83285 cumulative IPC: 1.83139 (Simulation time: 8 hr 21 min 54 sec) 
 Total Blocks : 262144 Invalid Blocks : 16939
Heartbeat CPU 6 instructions: 30000000 cycles: 16381103 heartbeat IPC: 1.83284 cumulative IPC: 1.83138 (Simulation time: 8 hr 21 min 55 sec) 
 Total Blocks : 262144 Invalid Blocks : 16939
Heartbeat CPU 0 instructions: 40000001 cycles: 21836866 heartbeat IPC: 1.83234 cumulative IPC: 1.83176 (Simulation time: 10 hr 49 min 46 sec) 
 Total Blocks : 262144 Invalid Blocks : 7523
Heartbeat CPU 5 instructions: 40000001 cycles: 21836974 heartbeat IPC: 1.83234 cumulative IPC: 1.83176 (Simulation time: 10 hr 49 min 53 sec) 
 Total Blocks : 262144 Invalid Blocks : 7523
Heartbeat CPU 4 instructions: 40000001 cycles: 21837030 heartbeat IPC: 1.83235 cumulative IPC: 1.83175 (Simulation time: 10 hr 49 min 53 sec) 
 Total Blocks : 262144 Invalid Blocks : 7523
Heartbeat CPU 3 instructions: 40000001 cycles: 21837544 heartbeat IPC: 1.8324 cumulative IPC: 1.83171 (Simulation time: 10 hr 49 min 55 sec) 
 Total Blocks : 262144 Invalid Blocks : 7523
Heartbeat CPU 7 instructions: 40000001 cycles: 21837711 heartbeat IPC: 1.83235 cumulative IPC: 1.83169 (Simulation time: 10 hr 49 min 56 sec) 
 Total Blocks : 262144 Invalid Blocks : 7523
Heartbeat CPU 2 instructions: 40000001 cycles: 21838093 heartbeat IPC: 1.83232 cumulative IPC: 1.83166 (Simulation time: 10 hr 49 min 57 sec) 
 Total Blocks : 262144 Invalid Blocks : 7523
Heartbeat CPU 1 instructions: 40000001 cycles: 21838537 heartbeat IPC: 1.83232 cumulative IPC: 1.83162 (Simulation time: 10 hr 50 min 0 sec) 
 Total Blocks : 262144 Invalid Blocks : 7523
Heartbeat CPU 6 instructions: 40000001 cycles: 21838637 heartbeat IPC: 1.83233 cumulative IPC: 1.83162 (Simulation time: 10 hr 50 min 0 sec) 
 Total Blocks : 262144 Invalid Blocks : 7523
Heartbeat CPU 5 instructions: 50000001 cycles: 27294456 heartbeat IPC: 1.83235 cumulative IPC: 1.83187 (Simulation time: 13 hr 4 min 15 sec) 
 Total Blocks : 262144 Invalid Blocks : 2829
Heartbeat CPU 0 instructions: 50000001 cycles: 27294482 heartbeat IPC: 1.8323 cumulative IPC: 1.83187 (Simulation time: 13 hr 4 min 20 sec) 
 Total Blocks : 262144 Invalid Blocks : 2829
Heartbeat CPU 4 instructions: 50000001 cycles: 27294571 heartbeat IPC: 1.83233 cumulative IPC: 1.83187 (Simulation time: 13 hr 4 min 20 sec) 
 Total Blocks : 262144 Invalid Blocks : 2829
Heartbeat CPU 3 instructions: 50000001 cycles: 27294910 heartbeat IPC: 1.83239 cumulative IPC: 1.83184 (Simulation time: 13 hr 4 min 21 sec) 
 Total Blocks : 262144 Invalid Blocks : 2829
Heartbeat CPU 7 instructions: 50000001 cycles: 27295167 heartbeat IPC: 1.83236 cumulative IPC: 1.83183 (Simulation time: 13 hr 4 min 22 sec) 
 Total Blocks : 262144 Invalid Blocks : 2829
Heartbeat CPU 2 instructions: 50000001 cycles: 27295655 heartbeat IPC: 1.83232 cumulative IPC: 1.83179 (Simulation time: 13 hr 4 min 25 sec) 
 Total Blocks : 262144 Invalid Blocks : 2829
Heartbeat CPU 1 instructions: 50000001 cycles: 27296123 heartbeat IPC: 1.83231 cumulative IPC: 1.83176 (Simulation time: 13 hr 4 min 26 sec) 
 Total Blocks : 262144 Invalid Blocks : 2829
Heartbeat CPU 6 instructions: 50000001 cycles: 27296157 heartbeat IPC: 1.83233 cumulative IPC: 1.83176 (Simulation time: 13 hr 4 min 26 sec) 
 Total Blocks : 262144 Invalid Blocks : 2829
Heartbeat CPU 4 instructions: 60000002 cycles: 32751267 heartbeat IPC: 1.83261 cumulative IPC: 1.83199 (Simulation time: 15 hr 2 min 49 sec) 
 Total Blocks : 262144 Invalid Blocks : 1259
Heartbeat CPU 5 instructions: 60000002 cycles: 32751350 heartbeat IPC: 1.83254 cumulative IPC: 1.83199 (Simulation time: 15 hr 2 min 54 sec) 
 Total Blocks : 262144 Invalid Blocks : 1259
Heartbeat CPU 0 instructions: 60000002 cycles: 32751392 heartbeat IPC: 1.83254 cumulative IPC: 1.83198 (Simulation time: 15 hr 2 min 54 sec) 
 Total Blocks : 262144 Invalid Blocks : 1259
Heartbeat CPU 3 instructions: 60000002 cycles: 32751906 heartbeat IPC: 1.83251 cumulative IPC: 1.83195 (Simulation time: 15 hr 2 min 55 sec) 
 Total Blocks : 262144 Invalid Blocks : 1259
Heartbeat CPU 7 instructions: 60000002 cycles: 32752093 heartbeat IPC: 1.83253 cumulative IPC: 1.83194 (Simulation time: 15 hr 2 min 57 sec) 
 Total Blocks : 262144 Invalid Blocks : 1259
Heartbeat CPU 2 instructions: 60000002 cycles: 32752370 heartbeat IPC: 1.8326 cumulative IPC: 1.83193 (Simulation time: 15 hr 2 min 57 sec) 
 Total Blocks : 262144 Invalid Blocks : 1259
Heartbeat CPU 6 instructions: 60000002 cycles: 32752976 heartbeat IPC: 1.83257 cumulative IPC: 1.83189 (Simulation time: 15 hr 2 min 59 sec) 
 Total Blocks : 262144 Invalid Blocks : 1259
Heartbeat CPU 1 instructions: 60000002 cycles: 32753056 heartbeat IPC: 1.83253 cumulative IPC: 1.83189 (Simulation time: 15 hr 2 min 59 sec) 
 Total Blocks : 262144 Invalid Blocks : 1259
Heartbeat CPU 0 instructions: 70000003 cycles: 38209542 heartbeat IPC: 1.83212 cumulative IPC: 1.832 (Simulation time: 16 hr 51 min 1 sec) 
 Total Blocks : 262144 Invalid Blocks : 604
Heartbeat CPU 4 instructions: 70000003 cycles: 38209682 heartbeat IPC: 1.83203 cumulative IPC: 1.832 (Simulation time: 16 hr 51 min 6 sec) 
 Total Blocks : 262144 Invalid Blocks : 604
Heartbeat CPU 5 instructions: 70000003 cycles: 38209793 heartbeat IPC: 1.83202 cumulative IPC: 1.83199 (Simulation time: 16 hr 51 min 6 sec) 
 Total Blocks : 262144 Invalid Blocks : 604
Heartbeat CPU 3 instructions: 70000003 cycles: 38210310 heartbeat IPC: 1.83204 cumulative IPC: 1.83197 (Simulation time: 16 hr 51 min 7 sec) 
 Total Blocks : 262144 Invalid Blocks : 604
Heartbeat CPU 7 instructions: 70000003 cycles: 38210364 heartbeat IPC: 1.83208 cumulative IPC: 1.83196 (Simulation time: 16 hr 51 min 7 sec) 
 Total Blocks : 262144 Invalid Blocks : 604
Heartbeat CPU 2 instructions: 70000003 cycles: 38210772 heartbeat IPC: 1.83204 cumulative IPC: 1.83194 (Simulation time: 16 hr 51 min 7 sec) 
 Total Blocks : 262144 Invalid Blocks : 604
Heartbeat CPU 6 instructions: 70000003 cycles: 38211373 heartbeat IPC: 1.83204 cumulative IPC: 1.83192 (Simulation time: 16 hr 51 min 9 sec) 
 Total Blocks : 262144 Invalid Blocks : 603
Heartbeat CPU 1 instructions: 70000003 cycles: 38211443 heartbeat IPC: 1.83204 cumulative IPC: 1.83191 (Simulation time: 16 hr 51 min 9 sec) 
 Total Blocks : 262144 Invalid Blocks : 603
Heartbeat CPU 0 instructions: 80000001 cycles: 43667222 heartbeat IPC: 1.83228 cumulative IPC: 1.83204 (Simulation time: 18 hr 30 min 44 sec) 
 Total Blocks : 262144 Invalid Blocks : 282
Heartbeat CPU 4 instructions: 80000001 cycles: 43667357 heartbeat IPC: 1.83228 cumulative IPC: 1.83203 (Simulation time: 18 hr 30 min 48 sec) 
 Total Blocks : 262144 Invalid Blocks : 282
Heartbeat CPU 5 instructions: 80000001 cycles: 43667485 heartbeat IPC: 1.83228 cumulative IPC: 1.83203 (Simulation time: 18 hr 30 min 48 sec) 
 Total Blocks : 262144 Invalid Blocks : 282
Heartbeat CPU 3 instructions: 80000001 cycles: 43668020 heartbeat IPC: 1.83227 cumulative IPC: 1.832 (Simulation time: 18 hr 30 min 49 sec) 
 Total Blocks : 262144 Invalid Blocks : 282
Heartbeat CPU 7 instructions: 80000001 cycles: 43668044 heartbeat IPC: 1.83228 cumulative IPC: 1.832 (Simulation time: 18 hr 30 min 49 sec) 
 Total Blocks : 262144 Invalid Blocks : 282
Heartbeat CPU 2 instructions: 80000001 cycles: 43668464 heartbeat IPC: 1.83228 cumulative IPC: 1.83199 (Simulation time: 18 hr 30 min 49 sec) 
 Total Blocks : 262144 Invalid Blocks : 282
Heartbeat CPU 6 instructions: 80000001 cycles: 43669053 heartbeat IPC: 1.83228 cumulative IPC: 1.83196 (Simulation time: 18 hr 30 min 50 sec) 
 Total Blocks : 262144 Invalid Blocks : 282
Heartbeat CPU 1 instructions: 80000001 cycles: 43669095 heartbeat IPC: 1.83229 cumulative IPC: 1.83196 (Simulation time: 18 hr 30 min 50 sec) 
 Total Blocks : 262144 Invalid Blocks : 282
Heartbeat CPU 5 instructions: 90000001 cycles: 49125240 heartbeat IPC: 1.83226 cumulative IPC: 1.83205 (Simulation time: 20 hr 7 min 19 sec) 
 Total Blocks : 262144 Invalid Blocks : 135
Heartbeat CPU 0 instructions: 90000001 cycles: 49125266 heartbeat IPC: 1.83216 cumulative IPC: 1.83205 (Simulation time: 20 hr 7 min 35 sec) 
 Total Blocks : 262144 Invalid Blocks : 135
Heartbeat CPU 4 instructions: 90000001 cycles: 49125515 heartbeat IPC: 1.83212 cumulative IPC: 1.83204 (Simulation time: 20 hr 7 min 36 sec) 
 Total Blocks : 262144 Invalid Blocks : 135
Heartbeat CPU 3 instructions: 90000001 cycles: 49126143 heartbeat IPC: 1.83213 cumulative IPC: 1.83202 (Simulation time: 20 hr 7 min 38 sec) 
 Total Blocks : 262144 Invalid Blocks : 135
Heartbeat CPU 7 instructions: 90000001 cycles: 49126272 heartbeat IPC: 1.8321 cumulative IPC: 1.83201 (Simulation time: 20 hr 7 min 38 sec) 
 Total Blocks : 262144 Invalid Blocks : 135
Heartbeat CPU 2 instructions: 90000001 cycles: 49126477 heartbeat IPC: 1.83217 cumulative IPC: 1.83201 (Simulation time: 20 hr 7 min 38 sec) 
 Total Blocks : 262144 Invalid Blocks : 135
Heartbeat CPU 6 instructions: 90000001 cycles: 49127121 heartbeat IPC: 1.83215 cumulative IPC: 1.83198 (Simulation time: 20 hr 7 min 39 sec) 
 Total Blocks : 262144 Invalid Blocks : 135
Heartbeat CPU 1 instructions: 90000001 cycles: 49127182 heartbeat IPC: 1.83214 cumulative IPC: 1.83198 (Simulation time: 20 hr 7 min 39 sec) 
 Total Blocks : 262144 Invalid Blocks : 135
Heartbeat CPU 5 instructions: 100000003 cycles: 54582893 heartbeat IPC: 1.83229 cumulative IPC: 1.83208 (Simulation time: 21 hr 44 min 57 sec) 
 Total Blocks : 262144 Invalid Blocks : 68
Heartbeat CPU 0 instructions: 100000003 cycles: 54582926 heartbeat IPC: 1.83229 cumulative IPC: 1.83207 (Simulation time: 21 hr 45 min 0 sec) 
 Total Blocks : 262144 Invalid Blocks : 68
Heartbeat CPU 4 instructions: 100000003 cycles: 54583177 heartbeat IPC: 1.83229 cumulative IPC: 1.83207 (Simulation time: 21 hr 45 min 0 sec) 
 Total Blocks : 262144 Invalid Blocks : 68
Heartbeat CPU 3 instructions: 100000003 cycles: 54583868 heartbeat IPC: 1.83227 cumulative IPC: 1.83204 (Simulation time: 21 hr 45 min 1 sec) 
 Total Blocks : 262144 Invalid Blocks : 68
Heartbeat CPU 7 instructions: 100000003 cycles: 54584035 heartbeat IPC: 1.83225 cumulative IPC: 1.83204 (Simulation time: 21 hr 45 min 1 sec) 
 Total Blocks : 262144 Invalid Blocks : 68
Heartbeat CPU 2 instructions: 100000003 cycles: 54584108 heartbeat IPC: 1.8323 cumulative IPC: 1.83204 (Simulation time: 21 hr 45 min 1 sec) 
 Total Blocks : 262144 Invalid Blocks : 68
Heartbeat CPU 6 instructions: 100000003 cycles: 54584502 heartbeat IPC: 1.83238 cumulative IPC: 1.83202 (Simulation time: 21 hr 45 min 1 sec) 
 Total Blocks : 262144 Invalid Blocks : 68
Heartbeat CPU 1 instructions: 100000003 cycles: 54584808 heartbeat IPC: 1.8323 cumulative IPC: 1.83201 (Simulation time: 21 hr 45 min 2 sec) 
 Total Blocks : 262144 Invalid Blocks : 68
Heartbeat CPU 0 instructions: 110000000 cycles: 60039652 heartbeat IPC: 1.8326 cumulative IPC: 1.83212 (Simulation time: 23 hr 18 min 5 sec) 
 Total Blocks : 262144 Invalid Blocks : 29
Heartbeat CPU 5 instructions: 110000000 cycles: 60039728 heartbeat IPC: 1.83256 cumulative IPC: 1.83212 (Simulation time: 23 hr 18 min 24 sec) 
 Total Blocks : 262144 Invalid Blocks : 29
Heartbeat CPU 4 instructions: 110000000 cycles: 60039946 heartbeat IPC: 1.83259 cumulative IPC: 1.83211 (Simulation time: 23 hr 18 min 25 sec) 
 Total Blocks : 262144 Invalid Blocks : 29
Heartbeat CPU 7 instructions: 110000000 cycles: 60040498 heartbeat IPC: 1.83269 cumulative IPC: 1.8321 (Simulation time: 23 hr 18 min 26 sec) 
 Total Blocks : 262144 Invalid Blocks : 29
Heartbeat CPU 3 instructions: 110000000 cycles: 60040593 heartbeat IPC: 1.8326 cumulative IPC: 1.83209 (Simulation time: 23 hr 18 min 27 sec) 
 Total Blocks : 262144 Invalid Blocks : 29
Heartbeat CPU 2 instructions: 110000000 cycles: 60040681 heartbeat IPC: 1.83265 cumulative IPC: 1.83209 (Simulation time: 23 hr 18 min 27 sec) 
 Total Blocks : 262144 Invalid Blocks : 29
Heartbeat CPU 6 instructions: 110000000 cycles: 60041163 heartbeat IPC: 1.83262 cumulative IPC: 1.83208 (Simulation time: 23 hr 18 min 27 sec) 
 Total Blocks : 262144 Invalid Blocks : 29
Heartbeat CPU 1 instructions: 110000000 cycles: 60041596 heartbeat IPC: 1.83258 cumulative IPC: 1.83206 (Simulation time: 23 hr 18 min 28 sec) 
 Total Blocks : 262144 Invalid Blocks : 29
Heartbeat CPU 0 instructions: 120000002 cycles: 65498035 heartbeat IPC: 1.83204 cumulative IPC: 1.83212 (Simulation time: 24 hr 50 min 46 sec) 
 Total Blocks : 262144 Invalid Blocks : 15
Heartbeat CPU 5 instructions: 120000002 cycles: 65498080 heartbeat IPC: 1.83206 cumulative IPC: 1.83211 (Simulation time: 24 hr 50 min 49 sec) 
 Total Blocks : 262144 Invalid Blocks : 15
Heartbeat CPU 4 instructions: 120000002 cycles: 65498287 heartbeat IPC: 1.83206 cumulative IPC: 1.83211 (Simulation time: 24 hr 50 min 49 sec) 
 Total Blocks : 262144 Invalid Blocks : 15
Heartbeat CPU 2 instructions: 120000002 cycles: 65498836 heartbeat IPC: 1.83212 cumulative IPC: 1.83209 (Simulation time: 24 hr 50 min 49 sec) 
 Total Blocks : 262144 Invalid Blocks : 15
Heartbeat CPU 7 instructions: 120000002 cycles: 65498858 heartbeat IPC: 1.83205 cumulative IPC: 1.83209 (Simulation time: 24 hr 50 min 49 sec) 
 Total Blocks : 262144 Invalid Blocks : 15
Heartbeat CPU 3 instructions: 120000002 cycles: 65498923 heartbeat IPC: 1.83206 cumulative IPC: 1.83209 (Simulation time: 24 hr 50 min 50 sec) 
 Total Blocks : 262144 Invalid Blocks : 15
Heartbeat CPU 6 instructions: 120000002 cycles: 65499481 heartbeat IPC: 1.83207 cumulative IPC: 1.83208 (Simulation time: 24 hr 50 min 50 sec) 
 Total Blocks : 262144 Invalid Blocks : 15
Heartbeat CPU 1 instructions: 120000002 cycles: 65499927 heartbeat IPC: 1.83206 cumulative IPC: 1.83206 (Simulation time: 24 hr 50 min 50 sec) 
 Total Blocks : 262144 Invalid Blocks : 15
Heartbeat CPU 0 instructions: 130000001 cycles: 70962952 heartbeat IPC: 1.82985 cumulative IPC: 1.83194 (Simulation time: 26 hr 17 min 52 sec) 
 Total Blocks : 262144 Invalid Blocks : 6
Heartbeat CPU 5 instructions: 130000001 cycles: 70962978 heartbeat IPC: 1.82986 cumulative IPC: 1.83194 (Simulation time: 26 hr 17 min 54 sec) 
 Total Blocks : 262144 Invalid Blocks : 6
Heartbeat CPU 4 instructions: 130000001 cycles: 70963217 heartbeat IPC: 1.82985 cumulative IPC: 1.83194 (Simulation time: 26 hr 17 min 55 sec) 
 Total Blocks : 262144 Invalid Blocks : 6
Heartbeat CPU 2 instructions: 130000001 cycles: 70963719 heartbeat IPC: 1.82987 cumulative IPC: 1.83192 (Simulation time: 26 hr 17 min 55 sec) 
 Total Blocks : 262144 Invalid Blocks : 6
Heartbeat CPU 7 instructions: 130000001 cycles: 70963757 heartbeat IPC: 1.82986 cumulative IPC: 1.83192 (Simulation time: 26 hr 17 min 56 sec) 
 Total Blocks : 262144 Invalid Blocks : 6
Heartbeat CPU 3 instructions: 130000001 cycles: 70963788 heartbeat IPC: 1.82987 cumulative IPC: 1.83192 (Simulation time: 26 hr 17 min 56 sec) 
 Total Blocks : 262144 Invalid Blocks : 6
Heartbeat CPU 6 instructions: 130000001 cycles: 70964346 heartbeat IPC: 1.82987 cumulative IPC: 1.83191 (Simulation time: 26 hr 17 min 56 sec) 
 Total Blocks : 262144 Invalid Blocks : 6
Heartbeat CPU 1 instructions: 130000001 cycles: 70964688 heartbeat IPC: 1.82991 cumulative IPC: 1.8319 (Simulation time: 26 hr 17 min 57 sec) 
 Total Blocks : 262144 Invalid Blocks : 6
Heartbeat CPU 0 instructions: 140000001 cycles: 76419823 heartbeat IPC: 1.83255 cumulative IPC: 1.83199 (Simulation time: 27 hr 47 min 30 sec) 
 Total Blocks : 262144 Invalid Blocks : 4
Heartbeat CPU 5 instructions: 140000001 cycles: 76419831 heartbeat IPC: 1.83256 cumulative IPC: 1.83199 (Simulation time: 27 hr 47 min 32 sec) 
 Total Blocks : 262144 Invalid Blocks : 4
Heartbeat CPU 4 instructions: 140000001 cycles: 76420098 heartbeat IPC: 1.83255 cumulative IPC: 1.83198 (Simulation time: 27 hr 47 min 33 sec) 
 Total Blocks : 262144 Invalid Blocks : 4
Heartbeat CPU 2 instructions: 140000001 cycles: 76420603 heartbeat IPC: 1.83255 cumulative IPC: 1.83197 (Simulation time: 27 hr 47 min 33 sec) 
 Total Blocks : 262144 Invalid Blocks : 4
Heartbeat CPU 7 instructions: 140000001 cycles: 76420625 heartbeat IPC: 1.83255 cumulative IPC: 1.83197 (Simulation time: 27 hr 47 min 33 sec) 
 Total Blocks : 262144 Invalid Blocks : 4
Heartbeat CPU 3 instructions: 140000001 cycles: 76420713 heartbeat IPC: 1.83253 cumulative IPC: 1.83196 (Simulation time: 27 hr 47 min 34 sec) 
 Total Blocks : 262144 Invalid Blocks : 4
Heartbeat CPU 6 instructions: 140000001 cycles: 76421236 heartbeat IPC: 1.83255 cumulative IPC: 1.83195 (Simulation time: 27 hr 47 min 34 sec) 
 Total Blocks : 262144 Invalid Blocks : 4
Heartbeat CPU 1 instructions: 140000001 cycles: 76421455 heartbeat IPC: 1.83259 cumulative IPC: 1.83195 (Simulation time: 27 hr 47 min 35 sec) 
 Total Blocks : 262144 Invalid Blocks : 4
Heartbeat CPU 0 instructions: 150000001 cycles: 81876649 heartbeat IPC: 1.83257 cumulative IPC: 1.83202 (Simulation time: 29 hr 10 min 40 sec) 
 Total Blocks : 262144 Invalid Blocks : 2
Heartbeat CPU 5 instructions: 150000001 cycles: 81876769 heartbeat IPC: 1.83253 cumulative IPC: 1.83202 (Simulation time: 29 hr 10 min 42 sec) 
 Total Blocks : 262144 Invalid Blocks : 2
Heartbeat CPU 4 instructions: 150000001 cycles: 81876940 heartbeat IPC: 1.83256 cumulative IPC: 1.83202 (Simulation time: 29 hr 10 min 43 sec) 
 Total Blocks : 262144 Invalid Blocks : 2
Heartbeat CPU 2 instructions: 150000001 cycles: 81877481 heartbeat IPC: 1.83255 cumulative IPC: 1.83201 (Simulation time: 29 hr 10 min 44 sec) 
 Total Blocks : 262144 Invalid Blocks : 2
Heartbeat CPU 7 instructions: 150000001 cycles: 81877575 heartbeat IPC: 1.83253 cumulative IPC: 1.832 (Simulation time: 29 hr 10 min 44 sec) 
 Total Blocks : 262144 Invalid Blocks : 2
Heartbeat CPU 3 instructions: 150000001 cycles: 81877620 heartbeat IPC: 1.83254 cumulative IPC: 1.832 (Simulation time: 29 hr 10 min 44 sec) 
 Total Blocks : 262144 Invalid Blocks : 2
Heartbeat CPU 6 instructions: 150000001 cycles: 81878161 heartbeat IPC: 1.83253 cumulative IPC: 1.83199 (Simulation time: 29 hr 10 min 44 sec) 
 Total Blocks : 262144 Invalid Blocks : 2
Heartbeat CPU 1 instructions: 150000001 cycles: 81878302 heartbeat IPC: 1.83256 cumulative IPC: 1.83199 (Simulation time: 29 hr 10 min 44 sec) 
 Total Blocks : 262144 Invalid Blocks : 2
Heartbeat CPU 0 instructions: 160000002 cycles: 87332553 heartbeat IPC: 1.83288 cumulative IPC: 1.83208 (Simulation time: 30 hr 34 min 55 sec) 
 Total Blocks : 262144 Invalid Blocks : 1
Heartbeat CPU 5 instructions: 160000002 cycles: 87332866 heartbeat IPC: 1.83281 cumulative IPC: 1.83207 (Simulation time: 30 hr 34 min 58 sec) 
 Total Blocks : 262144 Invalid Blocks : 1
Heartbeat CPU 4 instructions: 160000002 cycles: 87333038 heartbeat IPC: 1.83281 cumulative IPC: 1.83207 (Simulation time: 30 hr 34 min 59 sec) 
 Total Blocks : 262144 Invalid Blocks : 1
Heartbeat CPU 7 instructions: 160000002 cycles: 87334307 heartbeat IPC: 1.8326 cumulative IPC: 1.83204 (Simulation time: 30 hr 35 min 0 sec) 
 Total Blocks : 262144 Invalid Blocks : 1
Heartbeat CPU 2 instructions: 160000002 cycles: 87334321 heartbeat IPC: 1.83256 cumulative IPC: 1.83204 (Simulation time: 30 hr 35 min 0 sec) 
 Total Blocks : 262144 Invalid Blocks : 1
Heartbeat CPU 3 instructions: 160000002 cycles: 87334415 heartbeat IPC: 1.83258 cumulative IPC: 1.83204 (Simulation time: 30 hr 35 min 0 sec) 
 Total Blocks : 262144 Invalid Blocks : 1
Heartbeat CPU 6 instructions: 160000002 cycles: 87334940 heartbeat IPC: 1.83258 cumulative IPC: 1.83203 (Simulation time: 30 hr 35 min 0 sec) 
 Total Blocks : 262144 Invalid Blocks : 1
Heartbeat CPU 1 instructions: 160000002 cycles: 87335043 heartbeat IPC: 1.8326 cumulative IPC: 1.83203 (Simulation time: 30 hr 35 min 0 sec) 
 Total Blocks : 262144 Invalid Blocks : 1
Heartbeat CPU 0 instructions: 170000000 cycles: 92789677 heartbeat IPC: 1.83247 cumulative IPC: 1.8321 (Simulation time: 31 hr 57 min 15 sec) 
 Total Blocks : 262144 Invalid Blocks : 1
Heartbeat CPU 5 instructions: 170000000 cycles: 92789886 heartbeat IPC: 1.8325 cumulative IPC: 1.8321 (Simulation time: 31 hr 57 min 17 sec) 
 Total Blocks : 262144 Invalid Blocks : 1
Heartbeat CPU 4 instructions: 170000000 cycles: 92790301 heartbeat IPC: 1.83242 cumulative IPC: 1.83209 (Simulation time: 31 hr 57 min 17 sec) 
 Total Blocks : 262144 Invalid Blocks : 1
Heartbeat CPU 2 instructions: 170000000 cycles: 92791448 heartbeat IPC: 1.83247 cumulative IPC: 1.83207 (Simulation time: 31 hr 57 min 19 sec) 
 Total Blocks : 262144 Invalid Blocks : 1
Heartbeat CPU 7 instructions: 170000000 cycles: 92791530 heartbeat IPC: 1.83243 cumulative IPC: 1.83206 (Simulation time: 31 hr 57 min 19 sec) 
 Total Blocks : 262144 Invalid Blocks : 1
Heartbeat CPU 3 instructions: 170000000 cycles: 92791601 heartbeat IPC: 1.83245 cumulative IPC: 1.83206 (Simulation time: 31 hr 57 min 19 sec) 
 Total Blocks : 262144 Invalid Blocks : 1
Heartbeat CPU 6 instructions: 170000000 cycles: 92792078 heartbeat IPC: 1.83246 cumulative IPC: 1.83205 (Simulation time: 31 hr 57 min 19 sec) 
 Total Blocks : 262144 Invalid Blocks : 1
Heartbeat CPU 1 instructions: 170000000 cycles: 92792232 heartbeat IPC: 1.83244 cumulative IPC: 1.83205 (Simulation time: 31 hr 57 min 20 sec) 
 Total Blocks : 262144 Invalid Blocks : 1
Heartbeat CPU 0 instructions: 180000003 cycles: 98246830 heartbeat IPC: 1.83246 cumulative IPC: 1.83212 (Simulation time: 33 hr 16 min 56 sec) 
 Total Blocks : 262144 Invalid Blocks : 0
Heartbeat CPU 5 instructions: 180000003 cycles: 98247105 heartbeat IPC: 1.83244 cumulative IPC: 1.83212 (Simulation time: 33 hr 16 min 58 sec) 
 Total Blocks : 262144 Invalid Blocks : 0
Heartbeat CPU 4 instructions: 180000003 cycles: 98247298 heartbeat IPC: 1.83251 cumulative IPC: 1.83211 (Simulation time: 33 hr 16 min 59 sec) 
 Total Blocks : 262144 Invalid Blocks : 0
Heartbeat CPU 7 instructions: 180000003 cycles: 98248685 heartbeat IPC: 1.83246 cumulative IPC: 1.83209 (Simulation time: 33 hr 16 min 59 sec) 
 Total Blocks : 262144 Invalid Blocks : 0
Heartbeat CPU 2 instructions: 180000003 cycles: 98248718 heartbeat IPC: 1.83242 cumulative IPC: 1.83209 (Simulation time: 33 hr 16 min 59 sec) 
 Total Blocks : 262144 Invalid Blocks : 0
Heartbeat CPU 3 instructions: 180000003 cycles: 98248750 heartbeat IPC: 1.83246 cumulative IPC: 1.83208 (Simulation time: 33 hr 16 min 59 sec) 
 Total Blocks : 262144 Invalid Blocks : 0
Heartbeat CPU 6 instructions: 180000003 cycles: 98249342 heartbeat IPC: 1.83242 cumulative IPC: 1.83207 (Simulation time: 33 hr 17 min 0 sec) 
 Total Blocks : 262144 Invalid Blocks : 0
Heartbeat CPU 1 instructions: 180000003 cycles: 98249497 heartbeat IPC: 1.83242 cumulative IPC: 1.83207 (Simulation time: 33 hr 17 min 0 sec) 
 Total Blocks : 262144 Invalid Blocks : 0
Heartbeat CPU 0 instructions: 190000001 cycles: 103703891 heartbeat IPC: 1.83249 cumulative IPC: 1.83214 (Simulation time: 34 hr 36 min 31 sec) 
 Total Blocks : 262144 Invalid Blocks : 0
Heartbeat CPU 5 instructions: 190000001 cycles: 103704182 heartbeat IPC: 1.83248 cumulative IPC: 1.83213 (Simulation time: 34 hr 36 min 33 sec) 
 Total Blocks : 262144 Invalid Blocks : 0
Heartbeat CPU 4 instructions: 190000001 cycles: 103704392 heartbeat IPC: 1.83248 cumulative IPC: 1.83213 (Simulation time: 34 hr 36 min 33 sec) 
 Total Blocks : 262144 Invalid Blocks : 0
Heartbeat CPU 7 instructions: 190000001 cycles: 103705733 heartbeat IPC: 1.83249 cumulative IPC: 1.83211 (Simulation time: 34 hr 36 min 34 sec) 
 Total Blocks : 262144 Invalid Blocks : 0
Heartbeat CPU 2 instructions: 190000001 cycles: 103705848 heartbeat IPC: 1.83246 cumulative IPC: 1.83211 (Simulation time: 34 hr 36 min 35 sec) 
 Total Blocks : 262144 Invalid Blocks : 0
Heartbeat CPU 3 instructions: 190000001 cycles: 103705853 heartbeat IPC: 1.83247 cumulative IPC: 1.8321 (Simulation time: 34 hr 36 min 35 sec) 
 Total Blocks : 262144 Invalid Blocks : 0
Heartbeat CPU 6 instructions: 190000001 cycles: 103706438 heartbeat IPC: 1.83248 cumulative IPC: 1.83209 (Simulation time: 34 hr 36 min 35 sec) 
 Total Blocks : 262144 Invalid Blocks : 0
Heartbeat CPU 1 instructions: 190000001 cycles: 103706644 heartbeat IPC: 1.83246 cumulative IPC: 1.83209 (Simulation time: 34 hr 36 min 35 sec) 
 Total Blocks : 262144 Invalid Blocks : 0
Heartbeat CPU 0 instructions: 200000003 cycles: 109160678 heartbeat IPC: 1.83258 cumulative IPC: 1.83216 (Simulation time: 35 hr 55 min 19 sec) 
 Total Blocks : 262144 Invalid Blocks : 0
Heartbeat CPU 5 instructions: 200000003 cycles: 109161042 heartbeat IPC: 1.83256 cumulative IPC: 1.83216 (Simulation time: 35 hr 55 min 21 sec) 
 Total Blocks : 262144 Invalid Blocks : 0
Heartbeat CPU 4 instructions: 200000003 cycles: 109161252 heartbeat IPC: 1.83256 cumulative IPC: 1.83215 (Simulation time: 35 hr 55 min 21 sec) 
 Total Blocks : 262144 Invalid Blocks : 0
Heartbeat CPU 7 instructions: 200000003 cycles: 109162576 heartbeat IPC: 1.83256 cumulative IPC: 1.83213 (Simulation time: 35 hr 55 min 23 sec) 
 Total Blocks : 262144 Invalid Blocks : 0
Heartbeat CPU 2 instructions: 200000003 cycles: 109162638 heartbeat IPC: 1.83258 cumulative IPC: 1.83213 (Simulation time: 35 hr 55 min 23 sec) 
 Total Blocks : 262144 Invalid Blocks : 0
Heartbeat CPU 3 instructions: 200000003 cycles: 109162660 heartbeat IPC: 1.83257 cumulative IPC: 1.83213 (Simulation time: 35 hr 55 min 23 sec) 
 Total Blocks : 262144 Invalid Blocks : 0
Heartbeat CPU 6 instructions: 200000003 cycles: 109163193 heartbeat IPC: 1.83259 cumulative IPC: 1.83212 (Simulation time: 35 hr 55 min 24 sec) 
 Total Blocks : 262144 Invalid Blocks : 0
Heartbeat CPU 1 instructions: 200000003 cycles: 109163481 heartbeat IPC: 1.83256 cumulative IPC: 1.83211 (Simulation time: 35 hr 55 min 24 sec) 
 Total Blocks : 262144 Invalid Blocks : 0

Warmup complete CPU 0 instructions: 200005244 cycles: 109163481 (Simulation time: 35 hr 55 min 24 sec) 
Warmup complete CPU 1 instructions: 200000003 cycles: 109163481 (Simulation time: 35 hr 55 min 24 sec) 
Warmup complete CPU 2 instructions: 200001943 cycles: 109163480 (Simulation time: 35 hr 55 min 24 sec) 
Warmup complete CPU 3 instructions: 200001856 cycles: 109163480 (Simulation time: 35 hr 55 min 24 sec) 
Warmup complete CPU 4 instructions: 200004454 cycles: 109163480 (Simulation time: 35 hr 55 min 24 sec) 
Warmup complete CPU 5 instructions: 200004704 cycles: 109163480 (Simulation time: 35 hr 55 min 24 sec) 
Warmup complete CPU 6 instructions: 200000789 cycles: 109163480 (Simulation time: 35 hr 55 min 24 sec) 
Warmup complete CPU 7 instructions: 200002176 cycles: 109163480 (Simulation time: 35 hr 55 min 24 sec) 

Heartbeat CPU 5 instructions: 210000000 cycles: 117587670 heartbeat IPC: 1.18671 cumulative IPC: 1.1865 (Simulation time: 37 hr 19 min 32 sec) 
 Total Blocks : 262144 Invalid Blocks : 0
Heartbeat CPU 0 instructions: 210000000 cycles: 117591480 heartbeat IPC: 1.18613 cumulative IPC: 1.1859 (Simulation time: 37 hr 19 min 37 sec) 
 Total Blocks : 262144 Invalid Blocks : 0
Heartbeat CPU 4 instructions: 210000000 cycles: 117602750 heartbeat IPC: 1.18462 cumulative IPC: 1.18441 (Simulation time: 37 hr 19 min 41 sec) 
 Total Blocks : 262144 Invalid Blocks : 0
Heartbeat CPU 2 instructions: 210000000 cycles: 117611277 heartbeat IPC: 1.18362 cumulative IPC: 1.18351 (Simulation time: 37 hr 19 min 43 sec) 
 Total Blocks : 262144 Invalid Blocks : 0
Heartbeat CPU 3 instructions: 210000000 cycles: 117612802 heartbeat IPC: 1.18341 cumulative IPC: 1.18331 (Simulation time: 37 hr 19 min 44 sec) 
 Total Blocks : 262144 Invalid Blocks : 0
Heartbeat CPU 6 instructions: 210000000 cycles: 117617786 heartbeat IPC: 1.18279 cumulative IPC: 1.18274 (Simulation time: 37 hr 19 min 45 sec) 
 Total Blocks : 262144 Invalid Blocks : 0
Heartbeat CPU 7 instructions: 210000000 cycles: 117622175 heartbeat IPC: 1.18209 cumulative IPC: 1.18196 (Simulation time: 37 hr 19 min 47 sec) 
 Total Blocks : 262144 Invalid Blocks : 0
Heartbeat CPU 1 instructions: 210000000 cycles: 117629562 heartbeat IPC: 1.18118 cumulative IPC: 1.18118 (Simulation time: 37 hr 19 min 49 sec) 
 Total Blocks : 262144 Invalid Blocks : 0
Heartbeat CPU 5 instructions: 220000000 cycles: 125981876 heartbeat IPC: 1.1913 cumulative IPC: 1.18889 (Simulation time: 38 hr 42 min 22 sec) 
 Total Blocks : 262144 Invalid Blocks : 0
Heartbeat CPU 0 instructions: 220000000 cycles: 125998094 heartbeat IPC: 1.18954 cumulative IPC: 1.18772 (Simulation time: 38 hr 42 min 31 sec) 
 Total Blocks : 262144 Invalid Blocks : 0
Heartbeat CPU 4 instructions: 220000000 cycles: 126006804 heartbeat IPC: 1.1899 cumulative IPC: 1.18715 (Simulation time: 38 hr 42 min 37 sec) 
 Total Blocks : 262144 Invalid Blocks : 0
Heartbeat CPU 2 instructions: 220000000 cycles: 126009575 heartbeat IPC: 1.19072 cumulative IPC: 1.1871 (Simulation time: 38 hr 42 min 38 sec) 
 Total Blocks : 262144 Invalid Blocks : 0
Heartbeat CPU 3 instructions: 220000000 cycles: 126017593 heartbeat IPC: 1.1898 cumulative IPC: 1.18654 (Simulation time: 38 hr 42 min 40 sec) 
 Total Blocks : 262144 Invalid Blocks : 0
Heartbeat CPU 6 instructions: 220000000 cycles: 126023305 heartbeat IPC: 1.18969 cumulative IPC: 1.18621 (Simulation time: 38 hr 42 min 41 sec) 
 Total Blocks : 262144 Invalid Blocks : 0
Heartbeat CPU 7 instructions: 220000000 cycles: 126027826 heartbeat IPC: 1.18968 cumulative IPC: 1.1858 (Simulation time: 38 hr 42 min 43 sec) 
 Total Blocks : 262144 Invalid Blocks : 0
Heartbeat CPU 1 instructions: 220000000 cycles: 126035639 heartbeat IPC: 1.18962 cumulative IPC: 1.18538 (Simulation time: 38 hr 42 min 46 sec) 
 Total Blocks : 262144 Invalid Blocks : 0
Heartbeat CPU 5 instructions: 230000003 cycles: 134386798 heartbeat IPC: 1.18978 cumulative IPC: 1.18919 (Simulation time: 40 hr 2 min 35 sec) 
 Total Blocks : 262144 Invalid Blocks : 0
Heartbeat CPU 0 instructions: 230000003 cycles: 134399157 heartbeat IPC: 1.19033 cumulative IPC: 1.18859 (Simulation time: 40 hr 2 min 43 sec) 
 Total Blocks : 262144 Invalid Blocks : 0
Heartbeat CPU 4 instructions: 230000003 cycles: 134406840 heartbeat IPC: 1.19047 cumulative IPC: 1.18825 (Simulation time: 40 hr 2 min 47 sec) 
 Total Blocks : 262144 Invalid Blocks : 0
Heartbeat CPU 2 instructions: 230000003 cycles: 134420033 heartbeat IPC: 1.189 cumulative IPC: 1.18773 (Simulation time: 40 hr 2 min 51 sec) 
 Total Blocks : 262144 Invalid Blocks : 0
Heartbeat CPU 3 instructions: 230000003 cycles: 134428821 heartbeat IPC: 1.18889 cumulative IPC: 1.18732 (Simulation time: 40 hr 2 min 53 sec) 
 Total Blocks : 262144 Invalid Blocks : 0
Heartbeat CPU 7 instructions: 230000003 cycles: 134430096 heartbeat IPC: 1.19015 cumulative IPC: 1.18725 (Simulation time: 40 hr 2 min 53 sec) 
 Total Blocks : 262144 Invalid Blocks : 0
Heartbeat CPU 6 instructions: 230000003 cycles: 134446729 heartbeat IPC: 1.18717 cumulative IPC: 1.18653 (Simulation time: 40 hr 2 min 58 sec) 
 Total Blocks : 262144 Invalid Blocks : 0
Heartbeat CPU 1 instructions: 230000003 cycles: 134448466 heartbeat IPC: 1.18866 cumulative IPC: 1.18647 (Simulation time: 40 hr 2 min 59 sec) 
 Total Blocks : 262144 Invalid Blocks : 0
Heartbeat CPU 5 instructions: 240000000 cycles: 142788682 heartbeat IPC: 1.19021 cumulative IPC: 1.18944 (Simulation time: 41 hr 25 min 7 sec) 
 Total Blocks : 262144 Invalid Blocks : 0
Heartbeat CPU 0 instructions: 240000000 cycles: 142796110 heartbeat IPC: 1.19091 cumulative IPC: 1.18917 (Simulation time: 41 hr 25 min 12 sec) 
 Total Blocks : 262144 Invalid Blocks : 0
Heartbeat CPU 4 instructions: 240000000 cycles: 142805045 heartbeat IPC: 1.19073 cumulative IPC: 1.18887 (Simulation time: 41 hr 25 min 15 sec) 
 Total Blocks : 262144 Invalid Blocks : 0
Heartbeat CPU 2 instructions: 240000000 cycles: 142815566 heartbeat IPC: 1.19111 cumulative IPC: 1.18858 (Simulation time: 41 hr 25 min 18 sec) 
 Total Blocks : 262144 Invalid Blocks : 0
Heartbeat CPU 3 instructions: 240000000 cycles: 142821574 heartbeat IPC: 1.1915 cumulative IPC: 1.18837 (Simulation time: 41 hr 25 min 25 sec) 
 Total Blocks : 262144 Invalid Blocks : 0
Heartbeat CPU 7 instructions: 240000000 cycles: 142827841 heartbeat IPC: 1.1908 cumulative IPC: 1.18814 (Simulation time: 41 hr 25 min 30 sec) 
 Total Blocks : 262144 Invalid Blocks : 0
Heartbeat CPU 6 instructions: 240000000 cycles: 142849224 heartbeat IPC: 1.19012 cumulative IPC: 1.18742 (Simulation time: 41 hr 25 min 42 sec) 
 Total Blocks : 262144 Invalid Blocks : 0
Heartbeat CPU 1 instructions: 240000000 cycles: 142855990 heartbeat IPC: 1.18941 cumulative IPC: 1.18721 (Simulation time: 41 hr 25 min 46 sec) 
 Total Blocks : 262144 Invalid Blocks : 0
Heartbeat CPU 5 instructions: 250000002 cycles: 151193904 heartbeat IPC: 1.18974 cumulative IPC: 1.1895 (Simulation time: 42 hr 47 min 52 sec) 
 Total Blocks : 262144 Invalid Blocks : 0
Heartbeat CPU 0 instructions: 250000002 cycles: 151202580 heartbeat IPC: 1.18956 cumulative IPC: 1.18924 (Simulation time: 42 hr 47 min 56 sec) 
 Total Blocks : 262144 Invalid Blocks : 0
Heartbeat CPU 4 instructions: 250000002 cycles: 151208405 heartbeat IPC: 1.19 cumulative IPC: 1.1891 (Simulation time: 42 hr 47 min 58 sec) 
 Total Blocks : 262144 Invalid Blocks : 0
Heartbeat CPU 2 instructions: 250000002 cycles: 151223278 heartbeat IPC: 1.18938 cumulative IPC: 1.18874 (Simulation time: 42 hr 48 min 2 sec) 
 Total Blocks : 262144 Invalid Blocks : 0
Heartbeat CPU 7 instructions: 250000002 cycles: 151227914 heartbeat IPC: 1.19047 cumulative IPC: 1.1886 (Simulation time: 42 hr 48 min 4 sec) 
 Total Blocks : 262144 Invalid Blocks : 0
Heartbeat CPU 3 instructions: 250000002 cycles: 151233463 heartbeat IPC: 1.18879 cumulative IPC: 1.18845 (Simulation time: 42 hr 48 min 6 sec) 
 Total Blocks : 262144 Invalid Blocks : 0
Heartbeat CPU 6 instructions: 250000002 cycles: 151247206 heartbeat IPC: 1.19076 cumulative IPC: 1.18809 (Simulation time: 42 hr 48 min 10 sec) 
 Total Blocks : 262144 Invalid Blocks : 0
Heartbeat CPU 1 instructions: 250000002 cycles: 151253127 heartbeat IPC: 1.19088 cumulative IPC: 1.18794 (Simulation time: 42 hr 48 min 13 sec) 
 Total Blocks : 262144 Invalid Blocks : 0
Heartbeat CPU 5 instructions: 260000002 cycles: 159596374 heartbeat IPC: 1.19013 cumulative IPC: 1.18961 (Simulation time: 44 hr 7 min 18 sec) 
 Total Blocks : 262144 Invalid Blocks : 0
Heartbeat CPU 0 instructions: 260000002 cycles: 159605315 heartbeat IPC: 1.19009 cumulative IPC: 1.18938 (Simulation time: 44 hr 7 min 22 sec) 
 Total Blocks : 262144 Invalid Blocks : 0
Heartbeat CPU 4 instructions: 260000002 cycles: 159607839 heartbeat IPC: 1.19056 cumulative IPC: 1.18934 (Simulation time: 44 hr 7 min 23 sec) 
 Total Blocks : 262144 Invalid Blocks : 0
Heartbeat CPU 2 instructions: 260000002 cycles: 159619085 heartbeat IPC: 1.19107 cumulative IPC: 1.18913 (Simulation time: 44 hr 7 min 26 sec) 
 Total Blocks : 262144 Invalid Blocks : 0
Heartbeat CPU 7 instructions: 260000002 cycles: 159625010 heartbeat IPC: 1.19089 cumulative IPC: 1.18898 (Simulation time: 44 hr 7 min 28 sec) 
 Total Blocks : 262144 Invalid Blocks : 0
Heartbeat CPU 3 instructions: 260000002 cycles: 159633985 heartbeat IPC: 1.1904 cumulative IPC: 1.18878 (Simulation time: 44 hr 7 min 30 sec) 
 Total Blocks : 262144 Invalid Blocks : 0
Heartbeat CPU 6 instructions: 260000002 cycles: 159646676 heartbeat IPC: 1.19055 cumulative IPC: 1.1885 (Simulation time: 44 hr 7 min 34 sec) 
 Total Blocks : 262144 Invalid Blocks : 0
Heartbeat CPU 1 instructions: 260000002 cycles: 159655938 heartbeat IPC: 1.19008 cumulative IPC: 1.1883 (Simulation time: 44 hr 7 min 36 sec) 
 Total Blocks : 262144 Invalid Blocks : 0
Heartbeat CPU 5 instructions: 270000003 cycles: 168001288 heartbeat IPC: 1.18978 cumulative IPC: 1.18963 (Simulation time: 45 hr 26 min 51 sec) 
 Total Blocks : 262144 Invalid Blocks : 0
Heartbeat CPU 0 instructions: 270000003 cycles: 168009161 heartbeat IPC: 1.18993 cumulative IPC: 1.18946 (Simulation time: 45 hr 26 min 57 sec) 
 Total Blocks : 262144 Invalid Blocks : 0
Heartbeat CPU 4 instructions: 270000003 cycles: 168013135 heartbeat IPC: 1.18973 cumulative IPC: 1.1894 (Simulation time: 45 hr 26 min 58 sec) 
 Total Blocks : 262144 Invalid Blocks : 0
Heartbeat CPU 7 instructions: 270000003 cycles: 168029786 heartbeat IPC: 1.1898 cumulative IPC: 1.1891 (Simulation time: 45 hr 27 min 2 sec) 
 Total Blocks : 262144 Invalid Blocks : 0
Heartbeat CPU 2 instructions: 270000003 cycles: 168036321 heartbeat IPC: 1.18804 cumulative IPC: 1.18897 (Simulation time: 45 hr 27 min 4 sec) 
 Total Blocks : 262144 Invalid Blocks : 0
Heartbeat CPU 3 instructions: 270000003 cycles: 168042838 heartbeat IPC: 1.18922 cumulative IPC: 1.18884 (Simulation time: 45 hr 27 min 6 sec) 
 Total Blocks : 262144 Invalid Blocks : 0
Heartbeat CPU 6 instructions: 270000003 cycles: 168057788 heartbeat IPC: 1.1889 cumulative IPC: 1.18856 (Simulation time: 45 hr 27 min 10 sec) 
 Total Blocks : 262144 Invalid Blocks : 0
Heartbeat CPU 1 instructions: 270000003 cycles: 168063200 heartbeat IPC: 1.18945 cumulative IPC: 1.18846 (Simulation time: 45 hr 27 min 13 sec) 
 Total Blocks : 262144 Invalid Blocks : 0
Heartbeat CPU 5 instructions: 280000000 cycles: 176407779 heartbeat IPC: 1.18956 cumulative IPC: 1.18962 (Simulation time: 46 hr 43 min 16 sec) 
 Total Blocks : 262144 Invalid Blocks : 0
Heartbeat CPU 0 instructions: 280000000 cycles: 176410644 heartbeat IPC: 1.19027 cumulative IPC: 1.18956 (Simulation time: 46 hr 43 min 18 sec) 
 Total Blocks : 262144 Invalid Blocks : 0
Heartbeat CPU 4 instructions: 280000000 cycles: 176413075 heartbeat IPC: 1.19048 cumulative IPC: 1.18953 (Simulation time: 46 hr 43 min 19 sec) 
 Total Blocks : 262144 Invalid Blocks : 0
Heartbeat CPU 7 instructions: 280000000 cycles: 176417317 heartbeat IPC: 1.19225 cumulative IPC: 1.18949 (Simulation time: 46 hr 43 min 20 sec) 
 Total Blocks : 262144 Invalid Blocks : 0
Heartbeat CPU 2 instructions: 280000000 cycles: 176432246 heartbeat IPC: 1.19105 cumulative IPC: 1.18923 (Simulation time: 46 hr 43 min 25 sec) 
 Total Blocks : 262144 Invalid Blocks : 0
Heartbeat CPU 3 instructions: 280000000 cycles: 176434476 heartbeat IPC: 1.19166 cumulative IPC: 1.18919 (Simulation time: 46 hr 43 min 26 sec) 
 Total Blocks : 262144 Invalid Blocks : 0
Heartbeat CPU 6 instructions: 280000000 cycles: 176450921 heartbeat IPC: 1.19145 cumulative IPC: 1.18892 (Simulation time: 46 hr 43 min 31 sec) 
 Total Blocks : 262144 Invalid Blocks : 0
Heartbeat CPU 1 instructions: 280000000 cycles: 176457545 heartbeat IPC: 1.19128 cumulative IPC: 1.18881 (Simulation time: 46 hr 43 min 35 sec) 
 Total Blocks : 262144 Invalid Blocks : 0
Heartbeat CPU 5 instructions: 290000003 cycles: 184804965 heartbeat IPC: 1.19088 cumulative IPC: 1.18976 (Simulation time: 47 hr 58 min 1 sec) 
 Total Blocks : 262144 Invalid Blocks : 0
Heartbeat CPU 0 instructions: 290000003 cycles: 184812798 heartbeat IPC: 1.19017 cumulative IPC: 1.18963 (Simulation time: 47 hr 58 min 6 sec) 
 Total Blocks : 262144 Invalid Blocks : 0
Heartbeat CPU 4 instructions: 290000003 cycles: 184822115 heartbeat IPC: 1.1892 cumulative IPC: 1.18949 (Simulation time: 47 hr 58 min 10 sec) 
 Total Blocks : 262144 Invalid Blocks : 0
Heartbeat CPU 7 instructions: 290000003 cycles: 184823416 heartbeat IPC: 1.18961 cumulative IPC: 1.1895 (Simulation time: 47 hr 58 min 11 sec) 
 Total Blocks : 262144 Invalid Blocks : 0
Heartbeat CPU 3 instructions: 290000003 cycles: 184830239 heartbeat IPC: 1.19108 cumulative IPC: 1.1894 (Simulation time: 47 hr 58 min 12 sec) 
 Total Blocks : 262144 Invalid Blocks : 0
Heartbeat CPU 2 instructions: 290000003 cycles: 184832750 heartbeat IPC: 1.19041 cumulative IPC: 1.18936 (Simulation time: 47 hr 58 min 13 sec) 
 Total Blocks : 262144 Invalid Blocks : 0
Heartbeat CPU 6 instructions: 290000003 cycles: 184847034 heartbeat IPC: 1.19103 cumulative IPC: 1.18915 (Simulation time: 47 hr 58 min 18 sec) 
 Total Blocks : 262144 Invalid Blocks : 0
Heartbeat CPU 1 instructions: 290000003 cycles: 184855256 heartbeat IPC: 1.1908 cumulative IPC: 1.18903 (Simulation time: 47 hr 58 min 24 sec) 
 Total Blocks : 262144 Invalid Blocks : 0
Heartbeat CPU 5 instructions: 300000001 cycles: 193211390 heartbeat IPC: 1.18957 cumulative IPC: 1.18974 (Simulation time: 49 hr 14 min 39 sec) 
 Total Blocks : 262144 Invalid Blocks : 0
Heartbeat CPU 0 instructions: 300000001 cycles: 193219000 heartbeat IPC: 1.1896 cumulative IPC: 1.18963 (Simulation time: 49 hr 14 min 42 sec) 
 Total Blocks : 262144 Invalid Blocks : 0
Heartbeat CPU 4 instructions: 300000001 cycles: 193221782 heartbeat IPC: 1.19052 cumulative IPC: 1.1896 (Simulation time: 49 hr 14 min 43 sec) 
 Total Blocks : 262144 Invalid Blocks : 0
Heartbeat CPU 7 instructions: 300000001 cycles: 193229998 heartbeat IPC: 1.18954 cumulative IPC: 1.18951 (Simulation time: 49 hr 14 min 46 sec) 
 Total Blocks : 262144 Invalid Blocks : 0
Heartbeat CPU 3 instructions: 300000001 cycles: 193236558 heartbeat IPC: 1.18958 cumulative IPC: 1.18942 (Simulation time: 49 hr 14 min 48 sec) 
 Total Blocks : 262144 Invalid Blocks : 0
Heartbeat CPU 2 instructions: 300000001 cycles: 193246621 heartbeat IPC: 1.18851 cumulative IPC: 1.18928 (Simulation time: 49 hr 14 min 51 sec) 
 Total Blocks : 262144 Invalid Blocks : 0
Heartbeat CPU 6 instructions: 300000001 cycles: 193253017 heartbeat IPC: 1.18963 cumulative IPC: 1.1892 (Simulation time: 49 hr 14 min 53 sec) 
 Total Blocks : 262144 Invalid Blocks : 0
Heartbeat CPU 1 instructions: 300000001 cycles: 193261223 heartbeat IPC: 1.18963 cumulative IPC: 1.18909 (Simulation time: 49 hr 14 min 56 sec) 
 Total Blocks : 262144 Invalid Blocks : 0
Heartbeat CPU 5 instructions: 310000003 cycles: 201629037 heartbeat IPC: 1.18798 cumulative IPC: 1.18958 (Simulation time: 50 hr 26 min 54 sec) 
 Total Blocks : 262144 Invalid Blocks : 0
Heartbeat CPU 0 instructions: 310000003 cycles: 201636397 heartbeat IPC: 1.18802 cumulative IPC: 1.18948 (Simulation time: 50 hr 27 min 4 sec) 
 Total Blocks : 262144 Invalid Blocks : 0
Heartbeat CPU 7 instructions: 310000003 cycles: 201638479 heartbeat IPC: 1.18928 cumulative IPC: 1.18949 (Simulation time: 50 hr 27 min 5 sec) 
 Total Blocks : 262144 Invalid Blocks : 0
Heartbeat CPU 2 instructions: 310000003 cycles: 201652026 heartbeat IPC: 1.18971 cumulative IPC: 1.18932 (Simulation time: 50 hr 27 min 9 sec) 
 Total Blocks : 262144 Invalid Blocks : 0
Heartbeat CPU 3 instructions: 310000003 cycles: 201666168 heartbeat IPC: 1.18629 cumulative IPC: 1.18913 (Simulation time: 50 hr 27 min 14 sec) 
 Total Blocks : 262144 Invalid Blocks : 0
Heartbeat CPU 6 instructions: 310000003 cycles: 201676999 heartbeat IPC: 1.18709 cumulative IPC: 1.18901 (Simulation time: 50 hr 27 min 18 sec) 
 Total Blocks : 262144 Invalid Blocks : 0
Heartbeat CPU 4 instructions: 310000003 cycles: 201707387 heartbeat IPC: 1.17847 cumulative IPC: 1.18858 (Simulation time: 50 hr 27 min 28 sec) 
 Total Blocks : 262144 Invalid Blocks : 0
Heartbeat CPU 1 instructions: 310000003 cycles: 201717137 heartbeat IPC: 1.1826 cumulative IPC: 1.1885 (Simulation time: 50 hr 27 min 32 sec) 
 Total Blocks : 262144 Invalid Blocks : 0
Heartbeat CPU 5 instructions: 320000000 cycles: 210036884 heartbeat IPC: 1.18936 cumulative IPC: 1.18956 (Simulation time: 51 hr 37 min 51 sec) 
 Total Blocks : 262144 Invalid Blocks : 0
Heartbeat CPU 7 instructions: 320000000 cycles: 210047895 heartbeat IPC: 1.18914 cumulative IPC: 1.18946 (Simulation time: 51 hr 37 min 56 sec) 
 Total Blocks : 262144 Invalid Blocks : 0
Heartbeat CPU 0 instructions: 320000000 cycles: 210049243 heartbeat IPC: 1.18866 cumulative IPC: 1.18941 (Simulation time: 51 hr 37 min 57 sec) 
 Total Blocks : 262144 Invalid Blocks : 0
Heartbeat CPU 2 instructions: 320000000 cycles: 210066711 heartbeat IPC: 1.1884 cumulative IPC: 1.18924 (Simulation time: 51 hr 38 min 2 sec) 
 Total Blocks : 262144 Invalid Blocks : 0
Heartbeat CPU 3 instructions: 320000000 cycles: 210069517 heartbeat IPC: 1.19 cumulative IPC: 1.18921 (Simulation time: 51 hr 38 min 4 sec) 
 Total Blocks : 262144 Invalid Blocks : 0
Heartbeat CPU 6 instructions: 320000000 cycles: 210075750 heartbeat IPC: 1.19065 cumulative IPC: 1.18914 (Simulation time: 51 hr 38 min 6 sec) 
 Total Blocks : 262144 Invalid Blocks : 0
Heartbeat CPU 4 instructions: 320000000 cycles: 210119343 heartbeat IPC: 1.18878 cumulative IPC: 1.18859 (Simulation time: 51 hr 38 min 21 sec) 
 Total Blocks : 262144 Invalid Blocks : 0
Heartbeat CPU 1 instructions: 320000000 cycles: 210130904 heartbeat IPC: 1.18853 cumulative IPC: 1.1885 (Simulation time: 51 hr 38 min 26 sec) 
 Total Blocks : 262144 Invalid Blocks : 0
Heartbeat CPU 5 instructions: 330000000 cycles: 218442503 heartbeat IPC: 1.18968 cumulative IPC: 1.18957 (Simulation time: 52 hr 48 min 31 sec) 
 Total Blocks : 262144 Invalid Blocks : 0
Heartbeat CPU 7 instructions: 330000000 cycles: 218444848 heartbeat IPC: 1.19091 cumulative IPC: 1.18957 (Simulation time: 52 hr 48 min 33 sec) 
 Total Blocks : 262144 Invalid Blocks : 0
Heartbeat CPU 0 instructions: 330000000 cycles: 218457972 heartbeat IPC: 1.18924 cumulative IPC: 1.1894 (Simulation time: 52 hr 48 min 38 sec) 
 Total Blocks : 262144 Invalid Blocks : 0
Heartbeat CPU 2 instructions: 330000000 cycles: 218472281 heartbeat IPC: 1.18969 cumulative IPC: 1.18927 (Simulation time: 52 hr 48 min 45 sec) 
 Total Blocks : 262144 Invalid Blocks : 0
Heartbeat CPU 3 instructions: 330000000 cycles: 218478103 heartbeat IPC: 1.18926 cumulative IPC: 1.18921 (Simulation time: 52 hr 48 min 49 sec) 
 Total Blocks : 262144 Invalid Blocks : 0
Heartbeat CPU 6 instructions: 330000000 cycles: 218484175 heartbeat IPC: 1.18928 cumulative IPC: 1.18915 (Simulation time: 52 hr 48 min 51 sec) 
 Total Blocks : 262144 Invalid Blocks : 0
Heartbeat CPU 4 instructions: 330000000 cycles: 218533920 heartbeat IPC: 1.18841 cumulative IPC: 1.18858 (Simulation time: 52 hr 49 min 10 sec) 
 Total Blocks : 262144 Invalid Blocks : 0
Heartbeat CPU 1 instructions: 330000000 cycles: 218542583 heartbeat IPC: 1.18882 cumulative IPC: 1.18853 (Simulation time: 52 hr 49 min 15 sec) 
 Total Blocks : 262144 Invalid Blocks : 0
Heartbeat CPU 7 instructions: 340000002 cycles: 226838366 heartbeat IPC: 1.1914 cumulative IPC: 1.1897 (Simulation time: 53 hr 59 min 0 sec) 
 Total Blocks : 262144 Invalid Blocks : 0
Heartbeat CPU 5 instructions: 340000002 cycles: 226848806 heartbeat IPC: 1.18958 cumulative IPC: 1.18957 (Simulation time: 53 hr 59 min 5 sec) 
 Total Blocks : 262144 Invalid Blocks : 0
Heartbeat CPU 0 instructions: 340000002 cycles: 226862032 heartbeat IPC: 1.1899 cumulative IPC: 1.18943 (Simulation time: 53 hr 59 min 8 sec) 
 Total Blocks : 262144 Invalid Blocks : 0
Heartbeat CPU 2 instructions: 340000002 cycles: 226877884 heartbeat IPC: 1.18968 cumulative IPC: 1.1893 (Simulation time: 53 hr 59 min 14 sec) 
 Total Blocks : 262144 Invalid Blocks : 0
Heartbeat CPU 3 instructions: 340000002 cycles: 226886729 heartbeat IPC: 1.18926 cumulative IPC: 1.18921 (Simulation time: 53 hr 59 min 17 sec) 
 Total Blocks : 262144 Invalid Blocks : 0
Heartbeat CPU 6 instructions: 340000002 cycles: 226891241 heartbeat IPC: 1.18948 cumulative IPC: 1.18918 (Simulation time: 53 hr 59 min 19 sec) 
 Total Blocks : 262144 Invalid Blocks : 0
Heartbeat CPU 4 instructions: 340000002 cycles: 226940559 heartbeat IPC: 1.18954 cumulative IPC: 1.18865 (Simulation time: 53 hr 59 min 34 sec) 
 Total Blocks : 262144 Invalid Blocks : 0
Heartbeat CPU 1 instructions: 340000002 cycles: 226947240 heartbeat IPC: 1.18982 cumulative IPC: 1.18862 (Simulation time: 53 hr 59 min 37 sec) 
 Total Blocks : 262144 Invalid Blocks : 0
Heartbeat CPU 7 instructions: 350000003 cycles: 235229983 heartbeat IPC: 1.19167 cumulative IPC: 1.18983 (Simulation time: 55 hr 6 min 48 sec) 
 Total Blocks : 262144 Invalid Blocks : 0
Heartbeat CPU 5 instructions: 350000003 cycles: 235253873 heartbeat IPC: 1.18976 cumulative IPC: 1.18959 (Simulation time: 55 hr 6 min 58 sec) 
 Total Blocks : 262144 Invalid Blocks : 0
Heartbeat CPU 0 instructions: 350000003 cycles: 235267810 heartbeat IPC: 1.18966 cumulative IPC: 1.18945 (Simulation time: 55 hr 7 min 6 sec) 
 Total Blocks : 262144 Invalid Blocks : 0
Heartbeat CPU 2 instructions: 350000003 cycles: 235271717 heartbeat IPC: 1.19135 cumulative IPC: 1.18944 (Simulation time: 55 hr 7 min 11 sec) 
 Total Blocks : 262144 Invalid Blocks : 0
Heartbeat CPU 3 instructions: 350000003 cycles: 235284305 heartbeat IPC: 1.19082 cumulative IPC: 1.18932 (Simulation time: 55 hr 7 min 20 sec) 
 Total Blocks : 262144 Invalid Blocks : 0
Heartbeat CPU 6 instructions: 350000003 cycles: 235297354 heartbeat IPC: 1.18961 cumulative IPC: 1.18921 (Simulation time: 55 hr 7 min 25 sec) 
 Total Blocks : 262144 Invalid Blocks : 0
Heartbeat CPU 4 instructions: 350000003 cycles: 235343357 heartbeat IPC: 1.19008 cumulative IPC: 1.18874 (Simulation time: 55 hr 7 min 41 sec) 
 Total Blocks : 262144 Invalid Blocks : 0
Heartbeat CPU 1 instructions: 350000003 cycles: 235353436 heartbeat IPC: 1.1896 cumulative IPC: 1.18868 (Simulation time: 55 hr 7 min 46 sec) 
 Total Blocks : 262144 Invalid Blocks : 0
Heartbeat CPU 7 instructions: 360000000 cycles: 243736389 heartbeat IPC: 1.17558 cumulative IPC: 1.18893 (Simulation time: 56 hr 15 min 39 sec) 
 Total Blocks : 262144 Invalid Blocks : 0
Heartbeat CPU 0 instructions: 360000000 cycles: 243799977 heartbeat IPC: 1.17203 cumulative IPC: 1.18835 (Simulation time: 56 hr 16 min 7 sec) 
 Total Blocks : 262144 Invalid Blocks : 0
Heartbeat CPU 5 instructions: 360000000 cycles: 243827722 heartbeat IPC: 1.16634 cumulative IPC: 1.18811 (Simulation time: 56 hr 16 min 21 sec) 
 Total Blocks : 262144 Invalid Blocks : 0
Heartbeat CPU 3 instructions: 360000000 cycles: 243834312 heartbeat IPC: 1.16959 cumulative IPC: 1.18807 (Simulation time: 56 hr 16 min 24 sec) 
 Total Blocks : 262144 Invalid Blocks : 0
Heartbeat CPU 2 instructions: 360000000 cycles: 243851322 heartbeat IPC: 1.16555 cumulative IPC: 1.18792 (Simulation time: 56 hr 16 min 30 sec) 
 Total Blocks : 262144 Invalid Blocks : 0
Heartbeat CPU 6 instructions: 360000000 cycles: 243867745 heartbeat IPC: 1.16681 cumulative IPC: 1.18778 (Simulation time: 56 hr 16 min 36 sec) 
 Total Blocks : 262144 Invalid Blocks : 0
Heartbeat CPU 1 instructions: 360000000 cycles: 243922722 heartbeat IPC: 1.16696 cumulative IPC: 1.1873 (Simulation time: 56 hr 16 min 53 sec) 
 Total Blocks : 262144 Invalid Blocks : 0
Heartbeat CPU 4 instructions: 360000000 cycles: 243924182 heartbeat IPC: 1.16539 cumulative IPC: 1.18726 (Simulation time: 56 hr 16 min 55 sec) 
 Total Blocks : 262144 Invalid Blocks : 0
Heartbeat CPU 7 instructions: 370000000 cycles: 252136196 heartbeat IPC: 1.1905 cumulative IPC: 1.18902 (Simulation time: 57 hr 19 min 51 sec) 
 Total Blocks : 262144 Invalid Blocks : 0
Heartbeat CPU 0 instructions: 370000000 cycles: 252195298 heartbeat IPC: 1.19114 cumulative IPC: 1.18851 (Simulation time: 57 hr 20 min 13 sec) 
 Total Blocks : 262144 Invalid Blocks : 0
Heartbeat CPU 5 instructions: 370000000 cycles: 252219188 heartbeat IPC: 1.19169 cumulative IPC: 1.18832 (Simulation time: 57 hr 20 min 23 sec) 
 Total Blocks : 262144 Invalid Blocks : 0
Heartbeat CPU 3 instructions: 370000000 cycles: 252225898 heartbeat IPC: 1.19167 cumulative IPC: 1.18828 (Simulation time: 57 hr 20 min 25 sec) 
 Total Blocks : 262144 Invalid Blocks : 0
Heartbeat CPU 2 instructions: 370000000 cycles: 252257330 heartbeat IPC: 1.18963 cumulative IPC: 1.18802 (Simulation time: 57 hr 20 min 37 sec) 
 Total Blocks : 262144 Invalid Blocks : 0
Heartbeat CPU 6 instructions: 370000000 cycles: 252262535 heartbeat IPC: 1.19122 cumulative IPC: 1.18798 (Simulation time: 57 hr 20 min 39 sec) 
 Total Blocks : 262144 Invalid Blocks : 0
Heartbeat CPU 1 instructions: 370000000 cycles: 252317109 heartbeat IPC: 1.19127 cumulative IPC: 1.18754 (Simulation time: 57 hr 20 min 57 sec) 
 Total Blocks : 262144 Invalid Blocks : 0
Heartbeat CPU 4 instructions: 370000000 cycles: 252328159 heartbeat IPC: 1.18991 cumulative IPC: 1.18741 (Simulation time: 57 hr 21 min 5 sec) 
 Total Blocks : 262144 Invalid Blocks : 0
Heartbeat CPU 7 instructions: 380000001 cycles: 260519019 heartbeat IPC: 1.19292 cumulative IPC: 1.18924 (Simulation time: 58 hr 22 min 5 sec) 
 Total Blocks : 262144 Invalid Blocks : 0
Heartbeat CPU 0 instructions: 380000001 cycles: 260585499 heartbeat IPC: 1.19187 cumulative IPC: 1.1887 (Simulation time: 58 hr 22 min 36 sec) 
 Total Blocks : 262144 Invalid Blocks : 0
Heartbeat CPU 5 instructions: 380000001 cycles: 260605271 heartbeat IPC: 1.19245 cumulative IPC: 1.18854 (Simulation time: 58 hr 22 min 44 sec) 
 Total Blocks : 262144 Invalid Blocks : 0
Heartbeat CPU 3 instructions: 380000001 cycles: 260621261 heartbeat IPC: 1.19113 cumulative IPC: 1.18844 (Simulation time: 58 hr 22 min 50 sec) 
 Total Blocks : 262144 Invalid Blocks : 0
Heartbeat CPU 2 instructions: 380000001 cycles: 260647576 heartbeat IPC: 1.19186 cumulative IPC: 1.18823 (Simulation time: 58 hr 22 min 57 sec) 
 Total Blocks : 262144 Invalid Blocks : 0
Heartbeat CPU 6 instructions: 380000001 cycles: 260668139 heartbeat IPC: 1.18968 cumulative IPC: 1.18808 (Simulation time: 58 hr 23 min 2 sec) 
 Total Blocks : 262144 Invalid Blocks : 0
Heartbeat CPU 1 instructions: 380000001 cycles: 260708459 heartbeat IPC: 1.1917 cumulative IPC: 1.18777 (Simulation time: 58 hr 23 min 15 sec) 
 Total Blocks : 262144 Invalid Blocks : 0
Heartbeat CPU 4 instructions: 380000001 cycles: 260719436 heartbeat IPC: 1.19171 cumulative IPC: 1.18765 (Simulation time: 58 hr 23 min 24 sec) 
 Total Blocks : 262144 Invalid Blocks : 0
Heartbeat CPU 7 instructions: 390000003 cycles: 268908086 heartbeat IPC: 1.19203 cumulative IPC: 1.18938 (Simulation time: 59 hr 23 min 24 sec) 
 Total Blocks : 262144 Invalid Blocks : 0
Heartbeat CPU 0 instructions: 390000003 cycles: 268974998 heartbeat IPC: 1.19197 cumulative IPC: 1.18887 (Simulation time: 59 hr 23 min 52 sec) 
 Total Blocks : 262144 Invalid Blocks : 0
Heartbeat CPU 5 instructions: 390000003 cycles: 268998502 heartbeat IPC: 1.19144 cumulative IPC: 1.1887 (Simulation time: 59 hr 24 min 13 sec) 
 Total Blocks : 262144 Invalid Blocks : 0
Heartbeat CPU 3 instructions: 390000003 cycles: 269006631 heartbeat IPC: 1.19255 cumulative IPC: 1.18865 (Simulation time: 59 hr 24 min 16 sec) 
 Total Blocks : 262144 Invalid Blocks : 0
Heartbeat CPU 2 instructions: 390000003 cycles: 269047131 heartbeat IPC: 1.19054 cumulative IPC: 1.18835 (Simulation time: 59 hr 24 min 27 sec) 
 Total Blocks : 262144 Invalid Blocks : 0
Heartbeat CPU 6 instructions: 390000003 cycles: 269063124 heartbeat IPC: 1.19119 cumulative IPC: 1.18824 (Simulation time: 59 hr 24 min 32 sec) 
 Total Blocks : 262144 Invalid Blocks : 0
Heartbeat CPU 1 instructions: 390000003 cycles: 269105978 heartbeat IPC: 1.19083 cumulative IPC: 1.18793 (Simulation time: 59 hr 24 min 46 sec) 
 Total Blocks : 262144 Invalid Blocks : 0
Heartbeat CPU 4 instructions: 390000003 cycles: 269115086 heartbeat IPC: 1.19109 cumulative IPC: 1.18783 (Simulation time: 59 hr 24 min 49 sec) 
 Total Blocks : 262144 Invalid Blocks : 0
Heartbeat CPU 7 instructions: 400000002 cycles: 277294189 heartbeat IPC: 1.19245 cumulative IPC: 1.18954 (Simulation time: 60 hr 22 min 53 sec) 
 Total Blocks : 262144 Invalid Blocks : 0
Finished CPU 7 instructions: 200000001 cycles: 168132741 cumulative IPC: 1.18954 (Simulation time: 60 hr 22 min 55 sec) 
Heartbeat CPU 0 instructions: 400000002 cycles: 277364756 heartbeat IPC: 1.19193 cumulative IPC: 1.18902 (Simulation time: 60 hr 23 min 16 sec) 
 Total Blocks : 262144 Invalid Blocks : 0
Finished CPU 0 instructions: 200000002 cycles: 168205385 cumulative IPC: 1.18902 (Simulation time: 60 hr 23 min 18 sec) 
Heartbeat CPU 5 instructions: 400000002 cycles: 277390517 heartbeat IPC: 1.19161 cumulative IPC: 1.18884 (Simulation time: 60 hr 23 min 25 sec) 
 Total Blocks : 262144 Invalid Blocks : 0
Finished CPU 5 instructions: 200000000 cycles: 168230806 cumulative IPC: 1.18884 (Simulation time: 60 hr 23 min 27 sec) 
Heartbeat CPU 3 instructions: 400000002 cycles: 277396889 heartbeat IPC: 1.19186 cumulative IPC: 1.18881 (Simulation time: 60 hr 23 min 28 sec) 
 Total Blocks : 262144 Invalid Blocks : 0
Finished CPU 3 instructions: 200000002 cycles: 168235295 cumulative IPC: 1.18881 (Simulation time: 60 hr 23 min 29 sec) 
Heartbeat CPU 2 instructions: 400000002 cycles: 277449084 heartbeat IPC: 1.1902 cumulative IPC: 1.18844 (Simulation time: 60 hr 23 min 45 sec) 
 Total Blocks : 262144 Invalid Blocks : 0
Finished CPU 2 instructions: 200000002 cycles: 168287565 cumulative IPC: 1.18844 (Simulation time: 60 hr 23 min 47 sec) 
Heartbeat CPU 6 instructions: 400000002 cycles: 277461751 heartbeat IPC: 1.19067 cumulative IPC: 1.18836 (Simulation time: 60 hr 23 min 56 sec) 
 Total Blocks : 262144 Invalid Blocks : 0
Finished CPU 6 instructions: 200000003 cycles: 168299043 cumulative IPC: 1.18836 (Simulation time: 60 hr 23 min 58 sec) 
Heartbeat CPU 1 instructions: 400000002 cycles: 277490553 heartbeat IPC: 1.19267 cumulative IPC: 1.18816 (Simulation time: 60 hr 24 min 13 sec) 
 Total Blocks : 262144 Invalid Blocks : 0
Finished CPU 1 instructions: 200000003 cycles: 168327073 cumulative IPC: 1.18816 (Simulation time: 60 hr 24 min 14 sec) 
Heartbeat CPU 4 instructions: 400000002 cycles: 277508640 heartbeat IPC: 1.19139 cumulative IPC: 1.18801 (Simulation time: 60 hr 24 min 19 sec) 
 Total Blocks : 262144 Invalid Blocks : 0
Finished CPU 4 instructions: 200000001 cycles: 168348829 cumulative IPC: 1.18801 (Simulation time: 60 hr 24 min 20 sec) 

CPU 0 Branch Prediction Accuracy: 99.9836% MPKI: 0.00109402 Average ROB Occupancy at Mispredict: 348.183

CPU 1 Branch Prediction Accuracy: 99.9836% MPKI: 0.00109485 Average ROB Occupancy at Mispredict: 348.183

CPU 2 Branch Prediction Accuracy: 99.9836% MPKI: 0.00109458 Average ROB Occupancy at Mispredict: 348.183

CPU 3 Branch Prediction Accuracy: 99.9836% MPKI: 0.00109423 Average ROB Occupancy at Mispredict: 348.183

CPU 4 Branch Prediction Accuracy: 99.9836% MPKI: 0.00109498 Average ROB Occupancy at Mispredict: 348.183

CPU 5 Branch Prediction Accuracy: 99.9836% MPKI: 0.00109419 Average ROB Occupancy at Mispredict: 348.183

CPU 6 Branch Prediction Accuracy: 99.9836% MPKI: 0.00109466 Average ROB Occupancy at Mispredict: 348.183

CPU 7 Branch Prediction Accuracy: 99.9837% MPKI: 0.00109356 Average ROB Occupancy at Mispredict: 348.183

ChampSim completed all CPUs

Total Simulation Statistics (not including warmup)

CPU 0 cumulative IPC: 1.18905 instructions: 200174383 cycles: 168348828
ITLB TOTAL     ACCESS: 39207135  HIT: 39207135  MISS:     0  HIT %:   100  MISS %:     0  AVERAGE MISS PENALTY: 0
ITLB LOAD      ACCESS: 39207135  HIT: 39207135  MISS:     0  HIT %:   100  MISS %:     0  AVERAGE MISS PENALTY: 0
ITLB RFO       ACCESS:     0  HIT:     0  MISS:     0  HIT %:     0  MISS %:     0  AVERAGE MISS PENALTY: 0
ITLB PREFETCH  ACCESS:     0  HIT:     0  MISS:     0  HIT %:     0  MISS %:     0  AVERAGE MISS PENALTY: 0
ITLB WRITEBACK ACCESS:     0  HIT:     0  MISS:     0  HIT %:     0  MISS %:     0  AVERAGE MISS PENALTY: 0

DTLB TOTAL     ACCESS: 57998807  HIT: 50430615  MISS: 7568192  HIT %: 86.9511  MISS %: 13.0489  AVERAGE MISS PENALTY: 9.78782
DTLB LOAD      ACCESS: 48854466  HIT: 42192070  MISS: 6662396  HIT %: 86.3628  MISS %: 13.6372  AVERAGE MISS PENALTY: 9.62483
DTLB RFO       ACCESS: 9144341  HIT: 8238545  MISS: 905796  HIT %: 90.0945  MISS %: 9.90554  AVERAGE MISS PENALTY: 10.9866
DTLB PREFETCH  ACCESS:     0  HIT:     0  MISS:     0  HIT %:     0  MISS %:     0  AVERAGE MISS PENALTY: 0
DTLB WRITEBACK ACCESS:     0  HIT:     0  MISS:     0  HIT %:     0  MISS %:     0  AVERAGE MISS PENALTY: 0

STLB TOTAL     ACCESS: 7568192  HIT: 7559869  MISS:  8323  HIT %: 99.89  MISS %: 0.109973  AVERAGE MISS PENALTY: 100
STLB LOAD      ACCESS: 6662396  HIT: 6655948  MISS:  6448  HIT %: 99.9032  MISS %: 0.096782  AVERAGE MISS PENALTY: 100
STLB RFO       ACCESS: 905796  HIT: 903921  MISS:  1875  HIT %: 99.793  MISS %: 0.207  AVERAGE MISS PENALTY: 100
STLB PREFETCH  ACCESS:     0  HIT:     0  MISS:     0  HIT %:     0  MISS %:     0  AVERAGE MISS PENALTY: 0
STLB WRITEBACK ACCESS:     0  HIT:     0  MISS:     0  HIT %:     0  MISS %:     0  AVERAGE MISS PENALTY: 0

L1D TOTAL     ACCESS: 113855260  HIT: 90004507  MISS: 23850753  HIT %: 79.0517  MISS %: 20.9483  AVERAGE MISS PENALTY: 1.34269e+06
L1D LOAD      ACCESS: 61542855  HIT: 47757780  MISS: 13785075  HIT %: 77.6009  MISS %: 22.3991  AVERAGE MISS PENALTY: 2.31359e+06
L1D RFO       ACCESS: 15758171  HIT: 14434597  MISS: 1323574  HIT %: 91.6007  MISS %: 8.39929  AVERAGE MISS PENALTY: 98742.5
L1D PREFETCH  ACCESS: 36554234  HIT: 27812130  MISS: 8742104  HIT %: 76.0846  MISS %: 23.9154  AVERAGE MISS PENALTY: 62.1858
L1D WRITEBACK ACCESS:     0  HIT:     0  MISS:     0  HIT %:     0  MISS %:     0  AVERAGE MISS PENALTY: 0

L1I TOTAL     ACCESS: 44640635  HIT: 38883367  MISS: 5757268  HIT %: 87.1031  MISS %: 12.8969  AVERAGE MISS PENALTY: 11.0898
L1I LOAD      ACCESS: 44640635  HIT: 38883367  MISS: 5757268  HIT %: 87.1031  MISS %: 12.8969  AVERAGE MISS PENALTY: 11.0898
L1I RFO       ACCESS:     0  HIT:     0  MISS:     0  HIT %:     0  MISS %:     0  AVERAGE MISS PENALTY: 0
L1I PREFETCH  ACCESS:     0  HIT:     0  MISS:     0  HIT %:     0  MISS %:     0  AVERAGE MISS PENALTY: 0
L1I WRITEBACK ACCESS:     0  HIT:     0  MISS:     0  HIT %:     0  MISS %:     0  AVERAGE MISS PENALTY: 0

L2C TOTAL     ACCESS: 45715225  HIT: 44692258  MISS: 1022967  HIT %: 97.7623  MISS %: 2.23769  AVERAGE MISS PENALTY: 56218.6
L2C LOAD      ACCESS: 19509137  HIT: 19468790  MISS: 40347  HIT %: 99.7932  MISS %: 0.206811  AVERAGE MISS PENALTY: 1.42021e+06
L2C RFO       ACCESS: 1320249  HIT: 1202664  MISS: 117585  HIT %: 91.0937  MISS %: 8.90627  AVERAGE MISS PENALTY: 711.974
L2C PREFETCH  ACCESS: 23361924  HIT: 22497332  MISS: 864592  HIT %: 96.2991  MISS %: 3.70086  AVERAGE MISS PENALTY: 144.383
L2C WRITEBACK ACCESS: 1523915  HIT: 1523472  MISS:   443  HIT %: 99.9709  MISS %: 0.0290699  AVERAGE MISS PENALTY: 0


LLC0 TOTAL     ACCESS: 144328  HIT: 70594  MISS: 73734  HIT %: 48.9122  MISS %: 51.0878  AVERAGE MISS PENALTY: 287.906
LLC0 LOAD      ACCESS: 16858  HIT:  8560  MISS:  8298  HIT %: 50.7771  MISS %: 49.2229  AVERAGE MISS PENALTY: 202.31
LLC0 RFO       ACCESS: 14829  HIT:   179  MISS: 14650  HIT %: 1.20709  MISS %: 98.7929  AVERAGE MISS PENALTY: 624.15
LLC0 PREFETCH  ACCESS: 97823  HIT: 48602  MISS: 49221  HIT %: 49.6836  MISS %: 50.3164  AVERAGE MISS PENALTY: 211.412
LLC0 WRITEBACK ACCESS: 14818  HIT: 13253  MISS:  1565  HIT %: 89.4385  MISS %: 10.5615  AVERAGE MISS PENALTY: 0

LLC1 TOTAL     ACCESS: 141917  HIT: 69135  MISS: 72782  HIT %: 48.7151  MISS %: 51.2849  AVERAGE MISS PENALTY: 297.894
LLC1 LOAD      ACCESS:  2762  HIT:  1698  MISS:  1064  HIT %: 61.4772  MISS %: 38.5228  AVERAGE MISS PENALTY: 211.83
LLC1 RFO       ACCESS: 14650  HIT:     0  MISS: 14650  HIT %:     0  MISS %:   100  AVERAGE MISS PENALTY: 673.064
LLC1 PREFETCH  ACCESS: 109842  HIT: 54209  MISS: 55633  HIT %: 49.3518  MISS %: 50.6482  AVERAGE MISS PENALTY: 208.429
LLC1 WRITEBACK ACCESS: 14663  HIT: 13228  MISS:  1435  HIT %: 90.2135  MISS %: 9.78654  AVERAGE MISS PENALTY: 0

LLC2 TOTAL     ACCESS: 141929  HIT: 69343  MISS: 72586  HIT %: 48.8575  MISS %: 51.1425  AVERAGE MISS PENALTY: 315.385
LLC2 LOAD      ACCESS:  3325  HIT:  2254  MISS:  1071  HIT %: 67.7895  MISS %: 32.2105  AVERAGE MISS PENALTY: 252.536
LLC2 RFO       ACCESS: 14657  HIT:     7  MISS: 14650  HIT %: 0.0477588  MISS %: 99.9522  AVERAGE MISS PENALTY: 697.717
LLC2 PREFETCH  ACCESS: 109333  HIT: 53774  MISS: 55559  HIT %: 49.1837  MISS %: 50.8163  AVERAGE MISS PENALTY: 223.196
LLC2 WRITEBACK ACCESS: 14614  HIT: 13308  MISS:  1306  HIT %: 91.0634  MISS %: 8.93664  AVERAGE MISS PENALTY: 0

LLC3 TOTAL     ACCESS: 139576  HIT: 66814  MISS: 72762  HIT %: 47.8693  MISS %: 52.1307  AVERAGE MISS PENALTY: 312.833
LLC3 LOAD      ACCESS:  2718  HIT:  1647  MISS:  1071  HIT %: 60.596  MISS %: 39.404  AVERAGE MISS PENALTY: 224.8
LLC3 RFO       ACCESS: 14650  HIT:     0  MISS: 14650  HIT %:     0  MISS %:   100  AVERAGE MISS PENALTY: 693.3
LLC3 PREFETCH  ACCESS: 107605  HIT: 51871  MISS: 55734  HIT %: 48.205  MISS %: 51.795  AVERAGE MISS PENALTY: 221.852
LLC3 WRITEBACK ACCESS: 14603  HIT: 13296  MISS:  1307  HIT %: 91.0498  MISS %: 8.95022  AVERAGE MISS PENALTY: 0

LLC4 TOTAL     ACCESS: 141503  HIT: 68661  MISS: 72842  HIT %: 48.5226  MISS %: 51.4774  AVERAGE MISS PENALTY: 298.687
LLC4 LOAD      ACCESS:  2827  HIT:  1761  MISS:  1066  HIT %: 62.2922  MISS %: 37.7078  AVERAGE MISS PENALTY: 218.58
LLC4 RFO       ACCESS: 14650  HIT:     0  MISS: 14650  HIT %:     0  MISS %:   100  AVERAGE MISS PENALTY: 674.804
LLC4 PREFETCH  ACCESS: 109373  HIT: 53512  MISS: 55861  HIT %: 48.9262  MISS %: 51.0738  AVERAGE MISS PENALTY: 208.34
LLC4 WRITEBACK ACCESS: 14653  HIT: 13388  MISS:  1265  HIT %: 91.367  MISS %: 8.63304  AVERAGE MISS PENALTY: 0

LLC5 TOTAL     ACCESS: 142994  HIT: 70380  MISS: 72614  HIT %: 49.2188  MISS %: 50.7812  AVERAGE MISS PENALTY: 299.384
LLC5 LOAD      ACCESS:  4044  HIT:  2994  MISS:  1050  HIT %: 74.0356  MISS %: 25.9644  AVERAGE MISS PENALTY: 210.193
LLC5 RFO       ACCESS: 14667  HIT:    17  MISS: 14650  HIT %: 0.115906  MISS %: 99.8841  AVERAGE MISS PENALTY: 674.848
LLC5 PREFETCH  ACCESS: 109531  HIT: 53900  MISS: 55631  HIT %: 49.2098  MISS %: 50.7902  AVERAGE MISS PENALTY: 209.096
LLC5 WRITEBACK ACCESS: 14752  HIT: 13469  MISS:  1283  HIT %: 91.3029  MISS %: 8.69713  AVERAGE MISS PENALTY: 0

LLC6 TOTAL     ACCESS: 142700  HIT: 70110  MISS: 72590  HIT %: 49.131  MISS %: 50.869  AVERAGE MISS PENALTY: 315.957
LLC6 LOAD      ACCESS:  3710  HIT:  2558  MISS:  1152  HIT %: 68.9488  MISS %: 31.0512  AVERAGE MISS PENALTY: 263.214
LLC6 RFO       ACCESS: 14645  HIT:    20  MISS: 14625  HIT %: 0.136565  MISS %: 99.8634  AVERAGE MISS PENALTY: 699.989
LLC6 PREFETCH  ACCESS: 109524  HIT: 53950  MISS: 55574  HIT %: 49.2586  MISS %: 50.7414  AVERAGE MISS PENALTY: 223.031
LLC6 WRITEBACK ACCESS: 14821  HIT: 13582  MISS:  1239  HIT %: 91.6402  MISS %: 8.35976  AVERAGE MISS PENALTY: 0

LLC7 TOTAL     ACCESS: 145255  HIT: 72588  MISS: 72667  HIT %: 49.9728  MISS %: 50.0272  AVERAGE MISS PENALTY: 315.609
LLC7 LOAD      ACCESS:  4047  HIT:  3045  MISS:  1002  HIT %: 75.2409  MISS %: 24.7591  AVERAGE MISS PENALTY: 248.803
LLC7 RFO       ACCESS: 14812  HIT:   162  MISS: 14650  HIT %: 1.09371  MISS %: 98.9063  AVERAGE MISS PENALTY: 693.846
LLC7 PREFETCH  ACCESS: 111616  HIT: 55730  MISS: 55886  HIT %: 49.9301  MISS %: 50.0699  AVERAGE MISS PENALTY: 224.031
LLC7 WRITEBACK ACCESS: 14780  HIT: 13651  MISS:  1129  HIT %: 92.3613  MISS %: 7.6387  AVERAGE MISS PENALTY: 0

Total Rob stall cycles : 	126526930
Total Load Rob Stall cycles : 	38653132
Average Rob Stall cycles : 	 5
Average Load Rob Stall cycles : 	 12

CPU 1 cumulative IPC: 1.18817 instructions: 200027261 cycles: 168348828
ITLB TOTAL     ACCESS: 39180933  HIT: 39180933  MISS:     0  HIT %:   100  MISS %:     0  AVERAGE MISS PENALTY: 0
ITLB LOAD      ACCESS: 39180933  HIT: 39180933  MISS:     0  HIT %:   100  MISS %:     0  AVERAGE MISS PENALTY: 0
ITLB RFO       ACCESS:     0  HIT:     0  MISS:     0  HIT %:     0  MISS %:     0  AVERAGE MISS PENALTY: 0
ITLB PREFETCH  ACCESS:     0  HIT:     0  MISS:     0  HIT %:     0  MISS %:     0  AVERAGE MISS PENALTY: 0
ITLB WRITEBACK ACCESS:     0  HIT:     0  MISS:     0  HIT %:     0  MISS %:     0  AVERAGE MISS PENALTY: 0

DTLB TOTAL     ACCESS: 57956427  HIT: 50393954  MISS: 7562473  HIT %: 86.9515  MISS %: 13.0485  AVERAGE MISS PENALTY: 9.78804
DTLB LOAD      ACCESS: 48819594  HIT: 42162240  MISS: 6657354  HIT %: 86.3634  MISS %: 13.6366  AVERAGE MISS PENALTY: 9.62505
DTLB RFO       ACCESS: 9136833  HIT: 8231714  MISS: 905119  HIT %: 90.0937  MISS %: 9.90627  AVERAGE MISS PENALTY: 10.9869
DTLB PREFETCH  ACCESS:     0  HIT:     0  MISS:     0  HIT %:     0  MISS %:     0  AVERAGE MISS PENALTY: 0
DTLB WRITEBACK ACCESS:     0  HIT:     0  MISS:     0  HIT %:     0  MISS %:     0  AVERAGE MISS PENALTY: 0

STLB TOTAL     ACCESS: 7562473  HIT: 7554150  MISS:  8323  HIT %: 99.8899  MISS %: 0.110057  AVERAGE MISS PENALTY: 100
STLB LOAD      ACCESS: 6657354  HIT: 6650906  MISS:  6448  HIT %: 99.9031  MISS %: 0.0968553  AVERAGE MISS PENALTY: 100
STLB RFO       ACCESS: 905119  HIT: 903244  MISS:  1875  HIT %: 99.7928  MISS %: 0.207155  AVERAGE MISS PENALTY: 100
STLB PREFETCH  ACCESS:     0  HIT:     0  MISS:     0  HIT %:     0  MISS %:     0  AVERAGE MISS PENALTY: 0
STLB WRITEBACK ACCESS:     0  HIT:     0  MISS:     0  HIT %:     0  MISS %:     0  AVERAGE MISS PENALTY: 0

L1D TOTAL     ACCESS: 113801942  HIT: 89942815  MISS: 23859127  HIT %: 79.0345  MISS %: 20.9655  AVERAGE MISS PENALTY: 1.29292e+06
L1D LOAD      ACCESS: 61496585  HIT: 47725828  MISS: 13770757  HIT %: 77.6073  MISS %: 22.3927  AVERAGE MISS PENALTY: 2.23072e+06
L1D RFO       ACCESS: 15746930  HIT: 14424633  MISS: 1322297  HIT %: 91.6028  MISS %: 8.39717  AVERAGE MISS PENALTY: 97536.4
L1D PREFETCH  ACCESS: 36558427  HIT: 27792354  MISS: 8766073  HIT %: 76.0217  MISS %: 23.9783  AVERAGE MISS PENALTY: 24.6767
L1D WRITEBACK ACCESS:     0  HIT:     0  MISS:     0  HIT %:     0  MISS %:     0  AVERAGE MISS PENALTY: 0

L1I TOTAL     ACCESS: 44612922  HIT: 38859830  MISS: 5753092  HIT %: 87.1044  MISS %: 12.8956  AVERAGE MISS PENALTY: 11.0789
L1I LOAD      ACCESS: 44612922  HIT: 38859830  MISS: 5753092  HIT %: 87.1044  MISS %: 12.8956  AVERAGE MISS PENALTY: 11.0789
L1I RFO       ACCESS:     0  HIT:     0  MISS:     0  HIT %:     0  MISS %:     0  AVERAGE MISS PENALTY: 0
L1I PREFETCH  ACCESS:     0  HIT:     0  MISS:     0  HIT %:     0  MISS %:     0  AVERAGE MISS PENALTY: 0
L1I WRITEBACK ACCESS:     0  HIT:     0  MISS:     0  HIT %:     0  MISS %:     0  AVERAGE MISS PENALTY: 0

L2C TOTAL     ACCESS: 45635966  HIT: 44579372  MISS: 1056594  HIT %: 97.6847  MISS %: 2.31527  AVERAGE MISS PENALTY: 23897.5
L2C LOAD      ACCESS: 19490878  HIT: 19462317  MISS: 28561  HIT %: 99.8535  MISS %: 0.146535  AVERAGE MISS PENALTY: 876784
L2C RFO       ACCESS: 1318993  HIT: 1201610  MISS: 117383  HIT %: 91.1006  MISS %: 8.89944  AVERAGE MISS PENALTY: 712.807
L2C PREFETCH  ACCESS: 23303609  HIT: 22393374  MISS: 910235  HIT %: 96.094  MISS %: 3.90598  AVERAGE MISS PENALTY: 136.702
L2C WRITEBACK ACCESS: 1522486  HIT: 1522071  MISS:   415  HIT %: 99.9727  MISS %: 0.0272581  AVERAGE MISS PENALTY: 0


LLC0 TOTAL     ACCESS: 147991  HIT: 74925  MISS: 73066  HIT %: 50.6281  MISS %: 49.3719  AVERAGE MISS PENALTY: 296.057
LLC0 LOAD      ACCESS: 16298  HIT:  8068  MISS:  8230  HIT %: 49.503  MISS %: 50.497  AVERAGE MISS PENALTY: 216.849
LLC0 RFO       ACCESS: 14703  HIT:    53  MISS: 14650  HIT %: 0.360471  MISS %: 99.6395  AVERAGE MISS PENALTY: 646.155
LLC0 PREFETCH  ACCESS: 102320  HIT: 53509  MISS: 48811  HIT %: 52.2957  MISS %: 47.7043  AVERAGE MISS PENALTY: 212.675
LLC0 WRITEBACK ACCESS: 14670  HIT: 13295  MISS:  1375  HIT %: 90.6271  MISS %: 9.37287  AVERAGE MISS PENALTY: 0

LLC1 TOTAL     ACCESS: 147685  HIT: 75193  MISS: 72492  HIT %: 50.9144  MISS %: 49.0856  AVERAGE MISS PENALTY: 305.547
LLC1 LOAD      ACCESS:  2245  HIT:  1238  MISS:  1007  HIT %: 55.1448  MISS %: 44.8552  AVERAGE MISS PENALTY: 232.819
LLC1 RFO       ACCESS: 14712  HIT:    62  MISS: 14650  HIT %: 0.421425  MISS %: 99.5786  AVERAGE MISS PENALTY: 693.698
LLC1 PREFETCH  ACCESS: 115989  HIT: 60492  MISS: 55497  HIT %: 52.1532  MISS %: 47.8468  AVERAGE MISS PENALTY: 211.769
LLC1 WRITEBACK ACCESS: 14739  HIT: 13401  MISS:  1338  HIT %: 90.922  MISS %: 9.07796  AVERAGE MISS PENALTY: 0

LLC2 TOTAL     ACCESS: 146435  HIT: 74008  MISS: 72427  HIT %: 50.5398  MISS %: 49.4602  AVERAGE MISS PENALTY: 302.635
LLC2 LOAD      ACCESS:  2031  HIT:  1037  MISS:   994  HIT %: 51.0586  MISS %: 48.9414  AVERAGE MISS PENALTY: 274.302
LLC2 RFO       ACCESS: 14677  HIT:    52  MISS: 14625  HIT %: 0.354296  MISS %: 99.6457  AVERAGE MISS PENALTY: 675.06
LLC2 PREFETCH  ACCESS: 115061  HIT: 59590  MISS: 55471  HIT %: 51.7899  MISS %: 48.2101  AVERAGE MISS PENALTY: 212.247
LLC2 WRITEBACK ACCESS: 14666  HIT: 13329  MISS:  1337  HIT %: 90.8837  MISS %: 9.11632  AVERAGE MISS PENALTY: 0

LLC3 TOTAL     ACCESS: 145182  HIT: 72581  MISS: 72601  HIT %: 49.9931  MISS %: 50.0069  AVERAGE MISS PENALTY: 301.016
LLC3 LOAD      ACCESS:  1625  HIT:   630  MISS:   995  HIT %: 38.7692  MISS %: 61.2308  AVERAGE MISS PENALTY: 299.532
LLC3 RFO       ACCESS: 14643  HIT:    18  MISS: 14625  HIT %: 0.122926  MISS %: 99.8771  AVERAGE MISS PENALTY: 667.466
LLC3 PREFETCH  ACCESS: 114294  HIT: 58704  MISS: 55590  HIT %: 51.3623  MISS %: 48.6377  AVERAGE MISS PENALTY: 212.166
[...]
 TIMELY PREFETCHES:       2025 LATE PREFETCHES: 0 DROPPED PREFETCHES: 0
LLC1 AVERAGE MISS LATENCY: 309.831 cycles
LLC2 TOTAL     ACCESS: 140633  HIT: 68267  MISS: 72366  HIT %: 48.5427  MISS %: 51.4573  AVERAGE MISS PENALTY: 310.332
LLC2 LOAD      ACCESS:  1538  HIT:   523  MISS:  1015  HIT %: 34.0052  MISS %: 65.9948  AVERAGE MISS PENALTY: 256.405
LLC2 RFO       ACCESS: 14640  HIT:    15  MISS: 14625  HIT %: 0.102459  MISS %: 99.8975  AVERAGE MISS PENALTY: 677.122
LLC2 PREFETCH  ACCESS: 109794  HIT: 54352  MISS: 55442  HIT %: 49.5036  MISS %: 50.4964  AVERAGE MISS PENALTY: 221.751
LLC2 WRITEBACK ACCESS: 14661  HIT: 13377  MISS:  1284  HIT %: 91.2421  MISS %: 8.75793  AVERAGE MISS PENALTY: 0
LLC2 PREFETCH  REQUESTED:     0  ISSUED:     0  USEFUL:  1744  USELESS: 443655
 USEFUL LOAD PREFETCHES:       1744 PREFETCH ISSUED TO LOWER LEVEL:     558029  ACCURACY: 0.312529
 TIMELY PREFETCHES:       1744 LATE PREFETCHES: 0 DROPPED PREFETCHES: 0
LLC2 AVERAGE MISS LATENCY: 310.332 cycles
LLC3 TOTAL     ACCESS: 139311  HIT: 66977  MISS: 72334  HIT %: 48.0773  MISS %: 51.9227  AVERAGE MISS PENALTY: 309.049
LLC3 LOAD      ACCESS:  1524  HIT:   467  MISS:  1057  HIT %: 30.643  MISS %: 69.357  AVERAGE MISS PENALTY: 249.996
LLC3 RFO       ACCESS: 14642  HIT:    17  MISS: 14625  HIT %: 0.116104  MISS %: 99.8839  AVERAGE MISS PENALTY: 675.054
LLC3 PREFETCH  ACCESS: 108516  HIT: 53182  MISS: 55334  HIT %: 49.0084  MISS %: 50.9916  AVERAGE MISS PENALTY: 220.801
LLC3 WRITEBACK ACCESS: 14629  HIT: 13311  MISS:  1318  HIT %: 90.9905  MISS %: 9.0095  AVERAGE MISS PENALTY: 0
LLC3 PREFETCH  REQUESTED:     0  ISSUED:     0  USEFUL:  1630  USELESS: 443982
 USEFUL LOAD PREFETCHES:       1630 PREFETCH ISSUED TO LOWER LEVEL:     579595  ACCURACY: 0.281231
 TIMELY PREFETCHES:       1630 LATE PREFETCHES: 0 DROPPED PREFETCHES: 0
LLC3 AVERAGE MISS LATENCY: 309.049 cycles
LLC4 TOTAL     ACCESS: 140558  HIT: 68183  MISS: 72375  HIT %: 48.5088  MISS %: 51.4912  AVERAGE MISS PENALTY: 306.977
LLC4 LOAD      ACCESS:  1611  HIT:   507  MISS:  1104  HIT %: 31.4711  MISS %: 68.5289  AVERAGE MISS PENALTY: 226.737
LLC4 RFO       ACCESS: 14658  HIT:    33  MISS: 14625  HIT %: 0.225133  MISS %: 99.7749  AVERAGE MISS PENALTY: 683.899
LLC4 PREFETCH  ACCESS: 109617  HIT: 54218  MISS: 55399  HIT %: 49.4613  MISS %: 50.5387  AVERAGE MISS PENALTY: 215.981
LLC4 WRITEBACK ACCESS: 14672  HIT: 13425  MISS:  1247  HIT %: 91.5008  MISS %: 8.49918  AVERAGE MISS PENALTY: 0
LLC4 PREFETCH  REQUESTED:     0  ISSUED:     0  USEFUL:  1598  USELESS: 443982
 USEFUL LOAD PREFETCHES:       1598 PREFETCH ISSUED TO LOWER LEVEL:     575859  ACCURACY: 0.277498
 TIMELY PREFETCHES:       1598 LATE PREFETCHES: 0 DROPPED PREFETCHES: 0
LLC4 AVERAGE MISS LATENCY: 306.977 cycles
LLC5 TOTAL     ACCESS: 140436  HIT: 68194  MISS: 72242  HIT %: 48.5588  MISS %: 51.4412  AVERAGE MISS PENALTY: 310.173
LLC5 LOAD      ACCESS:  1497  HIT:   460  MISS:  1037  HIT %: 30.7281  MISS %: 69.2719  AVERAGE MISS PENALTY: 210.707
LLC5 RFO       ACCESS: 14649  HIT:    24  MISS: 14625  HIT %: 0.163834  MISS %: 99.8362  AVERAGE MISS PENALTY: 685.462
LLC5 PREFETCH  ACCESS: 109577  HIT: 54254  MISS: 55323  HIT %: 49.5122  MISS %: 50.4878  AVERAGE MISS PENALTY: 219.875
LLC5 WRITEBACK ACCESS: 14713  HIT: 13456  MISS:  1257  HIT %: 91.4565  MISS %: 8.54346  AVERAGE MISS PENALTY: 0
LLC5 PREFETCH  REQUESTED:     0  ISSUED:     0  USEFUL:  1869  USELESS: 443695
 USEFUL LOAD PREFETCHES:       1869 PREFETCH ISSUED TO LOWER LEVEL:     613190  ACCURACY: 0.304799
 TIMELY PREFETCHES:       1869 LATE PREFETCHES: 0 DROPPED PREFETCHES: 0
LLC5 AVERAGE MISS LATENCY: 310.173 cycles
LLC6 TOTAL     ACCESS: 140762  HIT: 68275  MISS: 72487  HIT %: 48.5039  MISS %: 51.4961  AVERAGE MISS PENALTY: 311.21
LLC6 LOAD      ACCESS:  1729  HIT:   637  MISS:  1092  HIT %: 36.8421  MISS %: 63.1579  AVERAGE MISS PENALTY: 251.834
LLC6 RFO       ACCESS: 14646  HIT:    21  MISS: 14625  HIT %: 0.143384  MISS %: 99.8566  AVERAGE MISS PENALTY: 687.904
LLC6 PREFETCH  ACCESS: 109720  HIT: 54109  MISS: 55611  HIT %: 49.3155  MISS %: 50.6845  AVERAGE MISS PENALTY: 219.796
LLC6 WRITEBACK ACCESS: 14667  HIT: 13508  MISS:  1159  HIT %: 92.0979  MISS %: 7.90209  AVERAGE MISS PENALTY: 0
LLC6 PREFETCH  REQUESTED:     0  ISSUED:     0  USEFUL:  1940  USELESS: 442907
 USEFUL LOAD PREFETCHES:       1940 PREFETCH ISSUED TO LOWER LEVEL:     717010  ACCURACY: 0.270568
 TIMELY PREFETCHES:       1940 LATE PREFETCHES: 0 DROPPED PREFETCHES: 0
LLC6 AVERAGE MISS LATENCY: 311.21 cycles
LLC7 TOTAL     ACCESS: 142516  HIT: 70052  MISS: 72464  HIT %: 49.1538  MISS %: 50.8462  AVERAGE MISS PENALTY: 314.115
LLC7 LOAD      ACCESS:  1525  HIT:   554  MISS:   971  HIT %: 36.3279  MISS %: 63.6721  AVERAGE MISS PENALTY: 299.126
LLC7 RFO       ACCESS: 14705  HIT:    55  MISS: 14650  HIT %: 0.374022  MISS %: 99.626  AVERAGE MISS PENALTY: 690.992
LLC7 PREFETCH  ACCESS: 111608  HIT: 55842  MISS: 55766  HIT %: 50.034  MISS %: 49.966  AVERAGE MISS PENALTY: 221.436
LLC7 WRITEBACK ACCESS: 14678  HIT: 13601  MISS:  1077  HIT %: 92.6625  MISS %: 7.33751  AVERAGE MISS PENALTY: 0
LLC7 PREFETCH  REQUESTED:     0  ISSUED:     0  USEFUL:  2588  USELESS: 444894
 USEFUL LOAD PREFETCHES:       2588 PREFETCH ISSUED TO LOWER LEVEL:     708429  ACCURACY: 0.365315
 TIMELY PREFETCHES:       2588 LATE PREFETCHES: 0 DROPPED PREFETCHES: 0
LLC7 AVERAGE MISS LATENCY: 314.115 cycles
ROI Average ROB Stall Cycles:	5.76115
ROI Total ROB Stalls Cycles:	126515067
ROI TOTAL ROB counter      :	21960026
ROI Average Load ROB Stall Cycles:	12.4419
ROI Total Load ROB Stalls Cycle  :	38738880
ROI Total Load ROB stalls Counter:	3113588
Major fault: 0 Minor fault: 11250

CPU 7 cumulative IPC: 1.18954 instructions: 200000001 cycles: 168132741
ITLB TOTAL     ACCESS: 39176049  HIT: 39176049  MISS:     0  HIT %:   100  MISS %:     0  AVERAGE MISS PENALTY: 0
ITLB LOAD      ACCESS: 39176049  HIT: 39176049  MISS:     0  HIT %:   100  MISS %:     0  AVERAGE MISS PENALTY: 0
ITLB RFO       ACCESS:     0  HIT:     0  MISS:     0  HIT %:     0  MISS %:     0  AVERAGE MISS PENALTY: 0
ITLB PREFETCH  ACCESS:     0  HIT:     0  MISS:     0  HIT %:     0  MISS %:     0  AVERAGE MISS PENALTY: 0
ITLB WRITEBACK ACCESS:     0  HIT:     0  MISS:     0  HIT %:     0  MISS %:     0  AVERAGE MISS PENALTY: 0
ITLB PREFETCH  REQUESTED:     0  ISSUED:     0  USEFUL:     0  USELESS:     0
 USEFUL LOAD PREFETCHES:          0 PREFETCH ISSUED TO LOWER LEVEL:          0  ACCURACY: -nan
 TIMELY PREFETCHES:          0 LATE PREFETCHES: 0 DROPPED PREFETCHES: 0
ITLB AVERAGE MISS LATENCY: -nan cycles
DTLB TOTAL     ACCESS: 57949138  HIT: 50387519  MISS: 7561619  HIT %: 86.9513  MISS %: 13.0487  AVERAGE MISS PENALTY: 9.7884
DTLB LOAD      ACCESS: 48812992  HIT: 42156394  MISS: 6656598  HIT %: 86.3631  MISS %: 13.6369  AVERAGE MISS PENALTY: 9.62492
DTLB RFO       ACCESS: 9136146  HIT: 8231125  MISS: 905021  HIT %: 90.0941  MISS %: 9.90594  AVERAGE MISS PENALTY: 10.9909
DTLB PREFETCH  ACCESS:     0  HIT:     0  MISS:     0  HIT %:     0  MISS %:     0  AVERAGE MISS PENALTY: 0
DTLB WRITEBACK ACCESS:     0  HIT:     0  MISS:     0  HIT %:     0  MISS %:     0  AVERAGE MISS PENALTY: 0
DTLB PREFETCH  REQUESTED:     0  ISSUED:     0  USEFUL:     0  USELESS:     0
 USEFUL LOAD PREFETCHES:          0 PREFETCH ISSUED TO LOWER LEVEL:          0  ACCURACY: -nan
 TIMELY PREFETCHES:          0 LATE PREFETCHES: 0 DROPPED PREFETCHES: 0
DTLB AVERAGE MISS LATENCY: 9.7884 cycles
STLB TOTAL     ACCESS: 7561619  HIT: 7553296  MISS:  8323  HIT %: 99.8899  MISS %: 0.110069  AVERAGE MISS PENALTY: 100
STLB LOAD      ACCESS: 6656598  HIT: 6650150  MISS:  6448  HIT %: 99.9031  MISS %: 0.0968663  AVERAGE MISS PENALTY: 100
STLB RFO       ACCESS: 905021  HIT: 903146  MISS:  1875  HIT %: 99.7928  MISS %: 0.207178  AVERAGE MISS PENALTY: 100
STLB PREFETCH  ACCESS:     0  HIT:     0  MISS:     0  HIT %:     0  MISS %:     0  AVERAGE MISS PENALTY: 0
STLB WRITEBACK ACCESS:     0  HIT:     0  MISS:     0  HIT %:     0  MISS %:     0  AVERAGE MISS PENALTY: 0
STLB PREFETCH  REQUESTED:     0  ISSUED:     0  USEFUL:     0  USELESS:     0
 USEFUL LOAD PREFETCHES:          0 PREFETCH ISSUED TO LOWER LEVEL:          0  ACCURACY: -nan
 TIMELY PREFETCHES:          0 LATE PREFETCHES: 0 DROPPED PREFETCHES: 0
STLB AVERAGE MISS LATENCY: 100 cycles
L1D TOTAL     ACCESS: 113762581  HIT: 89937859  MISS: 23824722  HIT %: 79.0575  MISS %: 20.9425  AVERAGE MISS PENALTY: 1.31979e+06
L1D LOAD      ACCESS: 61488155  HIT: 47719821  MISS: 13768334  HIT %: 77.6082  MISS %: 22.3918  AVERAGE MISS PENALTY: 2.27431e+06
L1D RFO       ACCESS: 15744621  HIT: 14422421  MISS: 1322200  HIT %: 91.6022  MISS %: 8.39779  AVERAGE MISS PENALTY: 98338.5
L1D PREFETCH  ACCESS: 36529805  HIT: 27795617  MISS: 8734188  HIT %: 76.0902  MISS %: 23.9098  AVERAGE MISS PENALTY: 24.8707
L1D WRITEBACK ACCESS:     0  HIT:     0  MISS:     0  HIT %:     0  MISS %:     0  AVERAGE MISS PENALTY: 0
L1D PREFETCH  REQUESTED: 42047434  ISSUED: 38184081  USEFUL: 561560  USELESS: 8172594
 USEFUL LOAD PREFETCHES:     561560 PREFETCH ISSUED TO LOWER LEVEL:   21444291  ACCURACY: 2.61869
 TIMELY PREFETCHES:     561560 LATE PREFETCHES: 552979 DROPPED PREFETCHES: 3863353
L1D AVERAGE MISS LATENCY: 5475.79 cycles
L1I TOTAL     ACCESS: 44606473  HIT: 38854235  MISS: 5752238  HIT %: 87.1045  MISS %: 12.8955  AVERAGE MISS PENALTY: 11.0727
L1I LOAD      ACCESS: 44606473  HIT: 38854235  MISS: 5752238  HIT %: 87.1045  MISS %: 12.8955  AVERAGE MISS PENALTY: 11.0727
L1I RFO       ACCESS:     0  HIT:     0  MISS:     0  HIT %:     0  MISS %:     0  AVERAGE MISS PENALTY: 0
L1I PREFETCH  ACCESS:     0  HIT:     0  MISS:     0  HIT %:     0  MISS %:     0  AVERAGE MISS PENALTY: 0
L1I WRITEBACK ACCESS:     0  HIT:     0  MISS:     0  HIT %:     0  MISS %:     0  AVERAGE MISS PENALTY: 0
L1I PREFETCH  REQUESTED:     0  ISSUED:     0  USEFUL:     0  USELESS:     0
 USEFUL LOAD PREFETCHES:          0 PREFETCH ISSUED TO LOWER LEVEL:          0  ACCURACY: -nan
 TIMELY PREFETCHES:          0 LATE PREFETCHES: 0 DROPPED PREFETCHES: 0
L1I AVERAGE MISS LATENCY: 11.0727 cycles
L2C TOTAL     ACCESS: 45618952  HIT: 44623903  MISS: 995049  HIT %: 97.8188  MISS %: 2.18122  AVERAGE MISS PENALTY: 16331
L2C LOAD      ACCESS: 19487600  HIT: 19461555  MISS: 26045  HIT %: 99.8664  MISS %: 0.133649  AVERAGE MISS PENALTY: 615929
L2C RFO       ACCESS: 1318893  HIT: 1201762  MISS: 117131  HIT %: 91.119  MISS %: 8.88101  AVERAGE MISS PENALTY: 715.388
L2C PREFETCH  ACCESS: 23290384  HIT: 22438743  MISS: 851641  HIT %: 96.3434  MISS %: 3.65662  AVERAGE MISS PENALTY: 146.15
L2C WRITEBACK ACCESS: 1522075  HIT: 1521843  MISS:   232  HIT %: 99.9848  MISS %: 0.0152424  AVERAGE MISS PENALTY: 0
L2C PREFETCH  REQUESTED: 19137375  ISSUED: 18070355  USEFUL: 843235  USELESS:  8807
 USEFUL LOAD PREFETCHES:     843235 PREFETCH ISSUED TO LOWER LEVEL:     862422  ACCURACY: 97.7752
 TIMELY PREFETCHES:     843235 LATE PREFETCHES: 349 DROPPED PREFETCHES: 1067020
L2C AVERAGE MISS LATENCY: 213.379 cycles
LLC0 TOTAL     ACCESS: 140026  HIT: 66684  MISS: 73342  HIT %: 47.6226  MISS %: 52.3774  AVERAGE MISS PENALTY: 293.314
LLC0 LOAD      ACCESS: 15033  HIT:  6783  MISS:  8250  HIT %: 45.1207  MISS %: 54.8793  AVERAGE MISS PENALTY: 208.577
LLC0 RFO       ACCESS: 14661  HIT:    11  MISS: 14650  HIT %: 0.075029  MISS %: 99.925  AVERAGE MISS PENALTY: 637.532
LLC0 PREFETCH  ACCESS: 95679  HIT: 46686  MISS: 48993  HIT %: 48.7944  MISS %: 51.2056  AVERAGE MISS PENALTY: 213.329
LLC0 WRITEBACK ACCESS: 14653  HIT: 13204  MISS:  1449  HIT %: 90.1112  MISS %: 9.88876  AVERAGE MISS PENALTY: 0
LLC0 PREFETCH  REQUESTED:     0  ISSUED:     0  USEFUL:  2031  USELESS: 390671
 USEFUL LOAD PREFETCHES:       2031 PREFETCH ISSUED TO LOWER LEVEL:     496202  ACCURACY: 0.409309
 TIMELY PREFETCHES:       2031 LATE PREFETCHES: 0 DROPPED PREFETCHES: 0
LLC0 AVERAGE MISS LATENCY: 293.314 cycles
Deadblocks : 46967 Deadblock percentage : 569.297

LLC1 TOTAL     ACCESS: 139536  HIT: 66780  MISS: 72756  HIT %: 47.8586  MISS %: 52.1414  AVERAGE MISS PENALTY: 302.026
LLC1 LOAD      ACCESS:  1478  HIT:   509  MISS:   969  HIT %: 34.4384  MISS %: 65.5616  AVERAGE MISS PENALTY: 193.818
LLC1 RFO       ACCESS: 14660  HIT:    10  MISS: 14650  HIT %: 0.0682128  MISS %: 99.9318  AVERAGE MISS PENALTY: 679.534
LLC1 PREFETCH  ACCESS: 108709  HIT: 52995  MISS: 55714  HIT %: 48.7494  MISS %: 51.2506  AVERAGE MISS PENALTY: 212.356
LLC1 WRITEBACK ACCESS: 14689  HIT: 13266  MISS:  1423  HIT %: 90.3125  MISS %: 9.68752  AVERAGE MISS PENALTY: 0
LLC1 PREFETCH  REQUESTED:     0  ISSUED:     0  USEFUL:  2025  USELESS: 443477
 USEFUL LOAD PREFETCHES:       2025 PREFETCH ISSUED TO LOWER LEVEL:     562206  ACCURACY: 0.360188
 TIMELY PREFETCHES:       2025 LATE PREFETCHES: 0 DROPPED PREFETCHES: 0
LLC1 AVERAGE MISS LATENCY: 302.026 cycles
LLC2 TOTAL     ACCESS: 138452  HIT: 65871  MISS: 72581  HIT %: 47.5768  MISS %: 52.4232  AVERAGE MISS PENALTY: 310.242
LLC2 LOAD      ACCESS:  1572  HIT:   610  MISS:   962  HIT %: 38.8041  MISS %: 61.1959  AVERAGE MISS PENALTY: 203.799
LLC2 RFO       ACCESS: 14634  HIT:     9  MISS: 14625  HIT %: 0.0615006  MISS %: 99.9385  AVERAGE MISS PENALTY: 681.944
LLC2 PREFETCH  ACCESS: 107613  HIT: 51999  MISS: 55614  HIT %: 48.3204  MISS %: 51.6796  AVERAGE MISS PENALTY: 222.034
LLC2 WRITEBACK ACCESS: 14633  HIT: 13253  MISS:  1380  HIT %: 90.5693  MISS %: 9.43074  AVERAGE MISS PENALTY: 0
LLC2 PREFETCH  REQUESTED:     0  ISSUED:     0  USEFUL:  1744  USELESS: 443655
 USEFUL LOAD PREFETCHES:       1744 PREFETCH ISSUED TO LOWER LEVEL:     558029  ACCURACY: 0.312529
 TIMELY PREFETCHES:       1744 LATE PREFETCHES: 0 DROPPED PREFETCHES: 0
LLC2 AVERAGE MISS LATENCY: 310.242 cycles
LLC3 TOTAL     ACCESS: 137328  HIT: 64614  MISS: 72714  HIT %: 47.0509  MISS %: 52.9491  AVERAGE MISS PENALTY: 309.02
LLC3 LOAD      ACCESS:  1523  HIT:   525  MISS:   998  HIT %: 34.4714  MISS %: 65.5286  AVERAGE MISS PENALTY: 211.101
LLC3 RFO       ACCESS: 14632  HIT:     7  MISS: 14625  HIT %: 0.0478403  MISS %: 99.9522  AVERAGE MISS PENALTY: 683.464
LLC3 PREFETCH  ACCESS: 106556  HIT: 50887  MISS: 55669  HIT %: 47.7561  MISS %: 52.2439  AVERAGE MISS PENALTY: 220.297
LLC3 WRITEBACK ACCESS: 14617  HIT: 13195  MISS:  1422  HIT %: 90.2716  MISS %: 9.7284  AVERAGE MISS PENALTY: 0
LLC3 PREFETCH  REQUESTED:     0  ISSUED:     0  USEFUL:  1630  USELESS: 443982
 USEFUL LOAD PREFETCHES:       1630 PREFETCH ISSUED TO LOWER LEVEL:     579595  ACCURACY: 0.281231
 TIMELY PREFETCHES:       1630 LATE PREFETCHES: 0 DROPPED PREFETCHES: 0
LLC3 AVERAGE MISS LATENCY: 309.02 cycles
LLC4 TOTAL     ACCESS: 138652  HIT: 66074  MISS: 72578  HIT %: 47.6546  MISS %: 52.3454  AVERAGE MISS PENALTY: 302.074
LLC4 LOAD      ACCESS:  1570  HIT:   549  MISS:  1021  HIT %: 34.9682  MISS %: 65.0318  AVERAGE MISS PENALTY: 195.46
LLC4 RFO       ACCESS: 14627  HIT:     2  MISS: 14625  HIT %: 0.0136733  MISS %: 99.9863  AVERAGE MISS PENALTY: 681.758
LLC4 PREFETCH  ACCESS: 107829  HIT: 52305  MISS: 55524  HIT %: 48.5074  MISS %: 51.4926  AVERAGE MISS PENALTY: 211.687
LLC4 WRITEBACK ACCESS: 14626  HIT: 13218  MISS:  1408  HIT %: 90.3733  MISS %: 9.62669  AVERAGE MISS PENALTY: 0
LLC4 PREFETCH  REQUESTED:     0  ISSUED:     0  USEFUL:  1598  USELESS: 443982
 USEFUL LOAD PREFETCHES:       1598 PREFETCH ISSUED TO LOWER LEVEL:     575859  ACCURACY: 0.277498
 TIMELY PREFETCHES:       1598 LATE PREFETCHES: 0 DROPPED PREFETCHES: 0
LLC4 AVERAGE MISS LATENCY: 302.074 cycles
LLC5 TOTAL     ACCESS: 138442  HIT: 65702  MISS: 72740  HIT %: 47.4581  MISS %: 52.5419  AVERAGE MISS PENALTY: 302.655
LLC5 LOAD      ACCESS:  1613  HIT:   639  MISS:   974  HIT %: 39.6156  MISS %: 60.3844  AVERAGE MISS PENALTY: 197.438
LLC5 RFO       ACCESS: 14625  HIT:     0  MISS: 14625  HIT %:     0  MISS %:   100  AVERAGE MISS PENALTY: 684.235
LLC5 PREFETCH  ACCESS: 107517  HIT: 51791  MISS: 55726  HIT %: 48.1701  MISS %: 51.8299  AVERAGE MISS PENALTY: 212.036
LLC5 WRITEBACK ACCESS: 14687  HIT: 13272  MISS:  1415  HIT %: 90.3656  MISS %: 9.63437  AVERAGE MISS PENALTY: 0
LLC5 PREFETCH  REQUESTED:     0  ISSUED:     0  USEFUL:  1869  USELESS: 443695
 USEFUL LOAD PREFETCHES:       1869 PREFETCH ISSUED TO LOWER LEVEL:     613190  ACCURACY: 0.304799
 TIMELY PREFETCHES:       1869 LATE PREFETCHES: 0 DROPPED PREFETCHES: 0
LLC5 AVERAGE MISS LATENCY: 302.655 cycles
LLC6 TOTAL     ACCESS: 138801  HIT: 66277  MISS: 72524  HIT %: 47.7497  MISS %: 52.2503  AVERAGE MISS PENALTY: 312.653
LLC6 LOAD      ACCESS:  1664  HIT:   606  MISS:  1058  HIT %: 36.4183  MISS %: 63.5817  AVERAGE MISS PENALTY: 220.358
LLC6 RFO       ACCESS: 14626  HIT:     1  MISS: 14625  HIT %: 0.00683714  MISS %: 99.9932  AVERAGE MISS PENALTY: 692.332
LLC6 PREFETCH  ACCESS: 107901  HIT: 52300  MISS: 55601  HIT %: 48.4704  MISS %: 51.5296  AVERAGE MISS PENALTY: 221.513
LLC6 WRITEBACK ACCESS: 14610  HIT: 13370  MISS:  1240  HIT %: 91.5127  MISS %: 8.48734  AVERAGE MISS PENALTY: 0
LLC6 PREFETCH  REQUESTED:     0  ISSUED:     0  USEFUL:  1940  USELESS: 442907
 USEFUL LOAD PREFETCHES:       1940 PREFETCH ISSUED TO LOWER LEVEL:     717010  ACCURACY: 0.270568
 TIMELY PREFETCHES:       1940 LATE PREFETCHES: 0 DROPPED PREFETCHES: 0
LLC6 AVERAGE MISS LATENCY: 312.653 cycles
LLC7 TOTAL     ACCESS: 140724  HIT: 68214  MISS: 72510  HIT %: 48.4736  MISS %: 51.5264  AVERAGE MISS PENALTY: 313.561
LLC7 LOAD      ACCESS:  1585  HIT:   667  MISS:   918  HIT %: 42.082  MISS %: 57.918  AVERAGE MISS PENALTY: 223.047
LLC7 RFO       ACCESS: 14663  HIT:    13  MISS: 14650  HIT %: 0.0886585  MISS %: 99.9113  AVERAGE MISS PENALTY: 701.993
LLC7 PREFETCH  ACCESS: 109842  HIT: 54063  MISS: 55779  HIT %: 49.2189  MISS %: 50.7811  AVERAGE MISS PENALTY: 219.57
LLC7 WRITEBACK ACCESS: 14634  HIT: 13471  MISS:  1163  HIT %: 92.0528  MISS %: 7.94725  AVERAGE MISS PENALTY: 0
LLC7 PREFETCH  REQUESTED:     0  ISSUED:     0  USEFUL:  2588  USELESS: 444894
 USEFUL LOAD PREFETCHES:       2588 PREFETCH ISSUED TO LOWER LEVEL:     708429  ACCURACY: 0.365315
 TIMELY PREFETCHES:       2588 LATE PREFETCHES: 0 DROPPED PREFETCHES: 0
LLC7 AVERAGE MISS LATENCY: 313.561 cycles
ROI Average ROB Stall Cycles:	5.75271
ROI Total ROB Stalls Cycles:	126347448
ROI TOTAL ROB counter      :	21963119
ROI Average Load ROB Stall Cycles:	12.382
ROI Total Load ROB Stalls Cycle  :	38553557
ROI Total Load ROB stalls Counter:	3113689
Major fault: 0 Minor fault: 11250








Interconnect Stats 
LINK 0 BW : 0LINK 1 BW : 0LINK 2 BW : 0LINK 3 BW : 0LINK 4 BW : 0LINK 5 BW : 0LINK 6 BW : 0LINK 7 BW : 0
DRAM Statistics
 CHANNEL 0
 RQ ROW_BUFFER_HIT: 1084550  ROW_BUFFER_MISS: 1202370
 DBUS_CONGESTED: 942666
 WQ ROW_BUFFER_HIT: 109211  ROW_BUFFER_MISS: 355947  FULL:     0

 CHANNEL 1
 RQ ROW_BUFFER_HIT: 1068671  ROW_BUFFER_MISS: 1214421
 DBUS_CONGESTED: 942666
 WQ ROW_BUFFER_HIT: 108418  ROW_BUFFER_MISS: 356810  FULL:     0

 AVG_CONGESTED_CYCLE: 5
DRAM PAGES: 2097152
Allocated PAGES: 90000
L2C destructor called
L1D destructor called
L1I destructor called
STLB destructor called
DTLB destructor called
ITLB destructor called
L2C destructor called
L1D destructor called
L1I destructor called
STLB destructor called
DTLB destructor called
ITLB destructor called
L2C destructor called
L1D destructor called
L1I destructor called
STLB destructor called
DTLB destructor called
ITLB destructor called
L2C destructor called
L1D destructor called
L1I destructor called
STLB destructor called
DTLB destructor called
ITLB destructor called
L2C destructor called
L1D destructor called
L1I destructor called
STLB destructor called
DTLB destructor called
ITLB destructor called
L2C destructor called
L1D destructor called
L1I destructor called
STLB destructor called
DTLB destructor called
ITLB destructor called
L2C destructor called
L1D destructor called
L1I destructor called
STLB destructor called
DTLB destructor called
ITLB destructor called
L2C destructor called
L1D destructor called
L1I destructor called
STLB destructor called
DTLB destructor called
ITLB destructor called
