
*** ChampSim Multicore Out-of-Order Simulator ***

Warmup Instructions: 200000000
Simulation Instructions: 200000000
Number of CPUs: 8
threads:1

L1I Configuration:
L1I_SET:64
L1I_WAY:8
L1I_RQ_SIZE:64
L1I_WQ_SIZE:64
L1I_PQ_SIZE:8
L1I_MSHR_SIZE:8

L1D Configuration:
L1D_SET:64
L1D_WAY:12
L1D_RQ_SIZE:64
L1D_WQ_SIZE:64
L1D_PQ_SIZE:8
L1D_MSHR_SIZE:16

L2C Configuration:
L2C_SET:1024
L2C_WAY:8
L2C_RQ_SIZE:32
L2C_WQ_SIZE:32
L2C_PQ_SIZE:16
L2C_MSHR_SIZE:32

LLC Configuration:
LLC_SET:2048
LLC_WAY:16
LLC SLICES:8
LLC_RQ_SIZE:64
LLC_WQ_SIZE:64
LLC_PQ_SIZE:32
LLC_MSHR_SIZE:64

Interconnect OFF
Attacker deprioritize is: OFF
Off-chip DRAM Size: 8192 MB Channels: 2 Width: 64-bit Data Rate: 3200 MT/s
PAGE SIZE in KB: 4.000000 
PAGE SIZE in MB: 0.003906 
PAGE offset in bits: 12 
CEASER-S_LLC:0
MIRAGE : 0
CEASER_LATENCY:3
REMAP : OFF
Partitions : 1
Multi-Step : OFF
BFS : OFF

CPU 0 runs /home/anubhav/spec_2017/619.lbm_s-4268B.champsimtrace.xz
CPU 1 runs /home/anubhav/spec_2017/619.lbm_s-4268B.champsimtrace.xz
CPU 2 runs /home/anubhav/spec_2017/619.lbm_s-4268B.champsimtrace.xz
CPU 3 runs /home/anubhav/spec_2017/619.lbm_s-4268B.champsimtrace.xz
CPU 4 runs /home/anubhav/spec_2017/619.lbm_s-4268B.champsimtrace.xz
CPU 5 runs /home/anubhav/spec_2017/619.lbm_s-4268B.champsimtrace.xz
CPU 6 runs /home/anubhav/spec_2017/619.lbm_s-4268B.champsimtrace.xz
CPU 7 runs /home/anubhav/spec_2017/619.lbm_s-4268B.champsimtrace.xz
CPU 0 Bimodal branch predictor
Initialize Hawkeye state
Initialize Hawkeye state
Initialize Hawkeye state
Initialize Hawkeye state
Initialize Hawkeye state
Initialize Hawkeye state
Initialize Hawkeye state
Initialize Hawkeye state
CPU 1 Bimodal branch predictor
Initialize Hawkeye state
Initialize Hawkeye state
Initialize Hawkeye state
Initialize Hawkeye state
Initialize Hawkeye state
Initialize Hawkeye state
Initialize Hawkeye state
Initialize Hawkeye state
CPU 2 Bimodal branch predictor
Initialize Hawkeye state
Initialize Hawkeye state
Initialize Hawkeye state
Initialize Hawkeye state
Initialize Hawkeye state
Initialize Hawkeye state
Initialize Hawkeye state
Initialize Hawkeye state
CPU 3 Bimodal branch predictor
Initialize Hawkeye state
Initialize Hawkeye state
Initialize Hawkeye state
Initialize Hawkeye state
Initialize Hawkeye state
Initialize Hawkeye state
Initialize Hawkeye state
Initialize Hawkeye state
CPU 4 Bimodal branch predictor
Initialize Hawkeye state
Initialize Hawkeye state
Initialize Hawkeye state
Initialize Hawkeye state
Initialize Hawkeye state
Initialize Hawkeye state
Initialize Hawkeye state
Initialize Hawkeye state
CPU 5 Bimodal branch predictor
Initialize Hawkeye state
Initialize Hawkeye state
Initialize Hawkeye state
Initialize Hawkeye state
Initialize Hawkeye state
Initialize Hawkeye state
Initialize Hawkeye state
Initialize Hawkeye state
CPU 6 Bimodal branch predictor
Initialize Hawkeye state
Initialize Hawkeye state
Initialize Hawkeye state
Initialize Hawkeye state
Initialize Hawkeye state
Initialize Hawkeye state
Initialize Hawkeye state
Initialize Hawkeye state
CPU 7 Bimodal branch predictor
Initialize Hawkeye state
Initialize Hawkeye state
Initialize Hawkeye state
Initialize Hawkeye state
Initialize Hawkeye state
Initialize Hawkeye state
Initialize Hawkeye state
Initialize Hawkeye state
Heartbeat CPU 6 instructions: 10000001 cycles: 3994247 heartbeat IPC: 2.5036 cumulative IPC: 2.5036 (Simulation time: 7 hr 30 min 17 sec) 
 Total Blocks : 262144 Invalid Blocks : 12
Heartbeat CPU 7 instructions: 10000001 cycles: 3994359 heartbeat IPC: 2.50353 cumulative IPC: 2.50353 (Simulation time: 7 hr 30 min 30 sec) 
 Total Blocks : 262144 Invalid Blocks : 12
Heartbeat CPU 4 instructions: 10000001 cycles: 3994365 heartbeat IPC: 2.50353 cumulative IPC: 2.50353 (Simulation time: 7 hr 30 min 55 sec) 
 Total Blocks : 262144 Invalid Blocks : 12
Heartbeat CPU 3 instructions: 10000001 cycles: 3994462 heartbeat IPC: 2.50347 cumulative IPC: 2.50347 (Simulation time: 7 hr 31 min 3 sec) 
 Total Blocks : 262144 Invalid Blocks : 12
Heartbeat CPU 2 instructions: 10000001 cycles: 3994508 heartbeat IPC: 2.50344 cumulative IPC: 2.50344 (Simulation time: 7 hr 31 min 4 sec) 
 Total Blocks : 262144 Invalid Blocks : 12
Heartbeat CPU 1 instructions: 10000001 cycles: 3994552 heartbeat IPC: 2.50341 cumulative IPC: 2.50341 (Simulation time: 7 hr 31 min 5 sec) 
 Total Blocks : 262144 Invalid Blocks : 12
Heartbeat CPU 5 instructions: 10000001 cycles: 3994636 heartbeat IPC: 2.50336 cumulative IPC: 2.50336 (Simulation time: 7 hr 31 min 5 sec) 
 Total Blocks : 262144 Invalid Blocks : 12
Heartbeat CPU 0 instructions: 10000001 cycles: 3994817 heartbeat IPC: 2.50324 cumulative IPC: 2.50324 (Simulation time: 7 hr 31 min 6 sec) 
 Total Blocks : 262144 Invalid Blocks : 12
Heartbeat CPU 6 instructions: 20000000 cycles: 7982627 heartbeat IPC: 2.50728 cumulative IPC: 2.50544 (Simulation time: 14 hr 6 min 4 sec) 
 Total Blocks : 262144 Invalid Blocks : 0
Heartbeat CPU 7 instructions: 20000000 cycles: 7982775 heartbeat IPC: 2.50726 cumulative IPC: 2.50539 (Simulation time: 14 hr 6 min 6 sec) 
 Total Blocks : 262144 Invalid Blocks : 0
Heartbeat CPU 4 instructions: 20000000 cycles: 7983015 heartbeat IPC: 2.50711 cumulative IPC: 2.50532 (Simulation time: 14 hr 6 min 6 sec) 
 Total Blocks : 262144 Invalid Blocks : 0
Heartbeat CPU 2 instructions: 20000000 cycles: 7983207 heartbeat IPC: 2.50708 cumulative IPC: 2.50526 (Simulation time: 14 hr 6 min 6 sec) 
 Total Blocks : 262144 Invalid Blocks : 0
Heartbeat CPU 1 instructions: 20000000 cycles: 7983290 heartbeat IPC: 2.50706 cumulative IPC: 2.50523 (Simulation time: 14 hr 6 min 7 sec) 
 Total Blocks : 262144 Invalid Blocks : 0
Heartbeat CPU 5 instructions: 20000000 cycles: 7983325 heartbeat IPC: 2.50709 cumulative IPC: 2.50522 (Simulation time: 14 hr 6 min 7 sec) 
 Total Blocks : 262144 Invalid Blocks : 0
Heartbeat CPU 3 instructions: 20000000 cycles: 7983405 heartbeat IPC: 2.50693 cumulative IPC: 2.5052 (Simulation time: 14 hr 6 min 7 sec) 
 Total Blocks : 262144 Invalid Blocks : 0
Heartbeat CPU 0 instructions: 20000000 cycles: 7983540 heartbeat IPC: 2.50707 cumulative IPC: 2.50515 (Simulation time: 14 hr 6 min 7 sec) 
 Total Blocks : 262144 Invalid Blocks : 0
Heartbeat CPU 7 instructions: 30000000 cycles: 11960111 heartbeat IPC: 2.51425 cumulative IPC: 2.50834 (Simulation time: 19 hr 0 min 4 sec) 
 Total Blocks : 262144 Invalid Blocks : 0
Heartbeat CPU 6 instructions: 30000000 cycles: 11960367 heartbeat IPC: 2.51399 cumulative IPC: 2.50828 (Simulation time: 19 hr 0 min 8 sec) 
 Total Blocks : 262144 Invalid Blocks : 0
Heartbeat CPU 4 instructions: 30000000 cycles: 11960708 heartbeat IPC: 2.51402 cumulative IPC: 2.50821 (Simulation time: 19 hr 0 min 8 sec) 
 Total Blocks : 262144 Invalid Blocks : 0
Heartbeat CPU 5 instructions: 30000000 cycles: 11960709 heartbeat IPC: 2.51422 cumulative IPC: 2.50821 (Simulation time: 19 hr 0 min 9 sec) 
 Total Blocks : 262144 Invalid Blocks : 0
Heartbeat CPU 3 instructions: 30000000 cycles: 11960827 heartbeat IPC: 2.51419 cumulative IPC: 2.50819 (Simulation time: 19 hr 0 min 9 sec) 
 Total Blocks : 262144 Invalid Blocks : 0
Heartbeat CPU 1 instructions: 30000000 cycles: 11960869 heartbeat IPC: 2.51409 cumulative IPC: 2.50818 (Simulation time: 19 hr 0 min 9 sec) 
 Total Blocks : 262144 Invalid Blocks : 0
Heartbeat CPU 2 instructions: 30000000 cycles: 11960903 heartbeat IPC: 2.51402 cumulative IPC: 2.50817 (Simulation time: 19 hr 0 min 10 sec) 
 Total Blocks : 262144 Invalid Blocks : 0
Heartbeat CPU 0 instructions: 30000000 cycles: 11961283 heartbeat IPC: 2.51399 cumulative IPC: 2.50809 (Simulation time: 19 hr 0 min 11 sec) 
 Total Blocks : 262144 Invalid Blocks : 0
Heartbeat CPU 7 instructions: 40000001 cycles: 15960680 heartbeat IPC: 2.49964 cumulative IPC: 2.50616 (Simulation time: 23 hr 37 min 36 sec) 
 Total Blocks : 262144 Invalid Blocks : 0
Heartbeat CPU 6 instructions: 40000001 cycles: 15961037 heartbeat IPC: 2.49958 cumulative IPC: 2.5061 (Simulation time: 23 hr 37 min 39 sec) 
 Total Blocks : 262144 Invalid Blocks : 0
Heartbeat CPU 5 instructions: 40000001 cycles: 15961197 heartbeat IPC: 2.4997 cumulative IPC: 2.50608 (Simulation time: 23 hr 37 min 40 sec) 
 Total Blocks : 262144 Invalid Blocks : 0
Heartbeat CPU 4 instructions: 40000001 cycles: 15961445 heartbeat IPC: 2.49954 cumulative IPC: 2.50604 (Simulation time: 23 hr 37 min 41 sec) 
 Total Blocks : 262144 Invalid Blocks : 0
Heartbeat CPU 3 instructions: 40000001 cycles: 15961510 heartbeat IPC: 2.49957 cumulative IPC: 2.50603 (Simulation time: 23 hr 37 min 41 sec) 
 Total Blocks : 262144 Invalid Blocks : 0
Heartbeat CPU 1 instructions: 40000001 cycles: 15961520 heartbeat IPC: 2.49959 cumulative IPC: 2.50603 (Simulation time: 23 hr 37 min 41 sec) 
 Total Blocks : 262144 Invalid Blocks : 0
Heartbeat CPU 2 instructions: 40000001 cycles: 15961763 heartbeat IPC: 2.49946 cumulative IPC: 2.50599 (Simulation time: 23 hr 37 min 41 sec) 
 Total Blocks : 262144 Invalid Blocks : 0
Heartbeat CPU 0 instructions: 40000001 cycles: 15962236 heartbeat IPC: 2.4994 cumulative IPC: 2.50591 (Simulation time: 23 hr 37 min 42 sec) 
 Total Blocks : 262144 Invalid Blocks : 0
Heartbeat CPU 7 instructions: 50000000 cycles: 19965542 heartbeat IPC: 2.49696 cumulative IPC: 2.50431 (Simulation time: 28 hr 25 min 58 sec) 
 Total Blocks : 262144 Invalid Blocks : 0
Heartbeat CPU 5 instructions: 50000000 cycles: 19966025 heartbeat IPC: 2.49699 cumulative IPC: 2.50425 (Simulation time: 28 hr 26 min 1 sec) 
 Total Blocks : 262144 Invalid Blocks : 0
Heartbeat CPU 6 instructions: 50000000 cycles: 19966332 heartbeat IPC: 2.49669 cumulative IPC: 2.50422 (Simulation time: 28 hr 26 min 3 sec) 
 Total Blocks : 262144 Invalid Blocks : 0
Heartbeat CPU 4 instructions: 50000000 cycles: 19966549 heartbeat IPC: 2.49681 cumulative IPC: 2.50419 (Simulation time: 28 hr 26 min 3 sec) 
 Total Blocks : 262144 Invalid Blocks : 0
Heartbeat CPU 3 instructions: 50000000 cycles: 19966710 heartbeat IPC: 2.49675 cumulative IPC: 2.50417 (Simulation time: 28 hr 26 min 4 sec) 
 Total Blocks : 262144 Invalid Blocks : 0
Heartbeat CPU 1 instructions: 50000000 cycles: 19966781 heartbeat IPC: 2.49672 cumulative IPC: 2.50416 (Simulation time: 28 hr 26 min 4 sec) 
 Total Blocks : 262144 Invalid Blocks : 0
Heartbeat CPU 2 instructions: 50000000 cycles: 19966927 heartbeat IPC: 2.49678 cumulative IPC: 2.50414 (Simulation time: 28 hr 26 min 5 sec) 
 Total Blocks : 262144 Invalid Blocks : 0
Heartbeat CPU 0 instructions: 50000000 cycles: 19967312 heartbeat IPC: 2.49683 cumulative IPC: 2.50409 (Simulation time: 28 hr 26 min 6 sec) 
 Total Blocks : 262144 Invalid Blocks : 0
Heartbeat CPU 5 instructions: 60000003 cycles: 23980779 heartbeat IPC: 2.49081 cumulative IPC: 2.502 (Simulation time: 33 hr 26 min 3 sec) 
 Total Blocks : 262144 Invalid Blocks : 0
Heartbeat CPU 7 instructions: 60000003 cycles: 23981194 heartbeat IPC: 2.49026 cumulative IPC: 2.50196 (Simulation time: 33 hr 26 min 6 sec) 
 Total Blocks : 262144 Invalid Blocks : 0
Heartbeat CPU 6 instructions: 60000003 cycles: 23981594 heartbeat IPC: 2.4905 cumulative IPC: 2.50192 (Simulation time: 33 hr 26 min 7 sec) 
 Total Blocks : 262144 Invalid Blocks : 0
Heartbeat CPU 4 instructions: 60000003 cycles: 23981948 heartbeat IPC: 2.49041 cumulative IPC: 2.50188 (Simulation time: 33 hr 26 min 8 sec) 
 Total Blocks : 262144 Invalid Blocks : 0
Heartbeat CPU 3 instructions: 60000003 cycles: 23982253 heartbeat IPC: 2.49032 cumulative IPC: 2.50185 (Simulation time: 33 hr 26 min 9 sec) 
 Total Blocks : 262144 Invalid Blocks : 0
Heartbeat CPU 2 instructions: 60000003 cycles: 23982297 heartbeat IPC: 2.49043 cumulative IPC: 2.50185 (Simulation time: 33 hr 26 min 9 sec) 
 Total Blocks : 262144 Invalid Blocks : 0
Heartbeat CPU 1 instructions: 60000003 cycles: 23982638 heartbeat IPC: 2.49013 cumulative IPC: 2.50181 (Simulation time: 33 hr 26 min 10 sec) 
 Total Blocks : 262144 Invalid Blocks : 0
Heartbeat CPU 0 instructions: 60000003 cycles: 23983133 heartbeat IPC: 2.49015 cumulative IPC: 2.50176 (Simulation time: 33 hr 26 min 11 sec) 
 Total Blocks : 262144 Invalid Blocks : 0
Heartbeat CPU 5 instructions: 70000000 cycles: 27989759 heartbeat IPC: 2.4944 cumulative IPC: 2.50091 (Simulation time: 38 hr 26 min 59 sec) 
 Total Blocks : 262144 Invalid Blocks : 0
Heartbeat CPU 7 instructions: 70000000 cycles: 27989826 heartbeat IPC: 2.49462 cumulative IPC: 2.50091 (Simulation time: 38 hr 27 min 0 sec) 
 Total Blocks : 262144 Invalid Blocks : 0
Heartbeat CPU 6 instructions: 70000000 cycles: 27990604 heartbeat IPC: 2.49438 cumulative IPC: 2.50084 (Simulation time: 38 hr 27 min 1 sec) 
 Total Blocks : 262144 Invalid Blocks : 0
Heartbeat CPU 2 instructions: 70000000 cycles: 27990834 heartbeat IPC: 2.49467 cumulative IPC: 2.50082 (Simulation time: 38 hr 27 min 2 sec) 
 Total Blocks : 262144 Invalid Blocks : 0
Heartbeat CPU 4 instructions: 70000000 cycles: 27991182 heartbeat IPC: 2.49424 cumulative IPC: 2.50079 (Simulation time: 38 hr 27 min 2 sec) 
 Total Blocks : 262144 Invalid Blocks : 0
Heartbeat CPU 3 instructions: 70000000 cycles: 27991183 heartbeat IPC: 2.49443 cumulative IPC: 2.50079 (Simulation time: 38 hr 27 min 2 sec) 
 Total Blocks : 262144 Invalid Blocks : 0
Heartbeat CPU 1 instructions: 70000000 cycles: 27991236 heartbeat IPC: 2.49464 cumulative IPC: 2.50078 (Simulation time: 38 hr 27 min 3 sec) 
 Total Blocks : 262144 Invalid Blocks : 0
Heartbeat CPU 0 instructions: 70000000 cycles: 27991767 heartbeat IPC: 2.49461 cumulative IPC: 2.50074 (Simulation time: 38 hr 27 min 3 sec) 
 Total Blocks : 262144 Invalid Blocks : 0
Heartbeat CPU 5 instructions: 80000003 cycles: 31981822 heartbeat IPC: 2.50497 cumulative IPC: 2.50142 (Simulation time: 43 hr 23 min 15 sec) 
 Total Blocks : 262144 Invalid Blocks : 0
Heartbeat CPU 7 instructions: 80000003 cycles: 31982234 heartbeat IPC: 2.50475 cumulative IPC: 2.50139 (Simulation time: 43 hr 23 min 18 sec) 
 Total Blocks : 262144 Invalid Blocks : 0
Heartbeat CPU 6 instructions: 80000003 cycles: 31982569 heartbeat IPC: 2.50503 cumulative IPC: 2.50136 (Simulation time: 43 hr 23 min 18 sec) 
 Total Blocks : 262144 Invalid Blocks : 0
Heartbeat CPU 2 instructions: 80000003 cycles: 31982601 heartbeat IPC: 2.50516 cumulative IPC: 2.50136 (Simulation time: 43 hr 23 min 18 sec) 
 Total Blocks : 262144 Invalid Blocks : 0
Heartbeat CPU 4 instructions: 80000003 cycles: 31983453 heartbeat IPC: 2.50484 cumulative IPC: 2.50129 (Simulation time: 43 hr 23 min 22 sec) 
 Total Blocks : 262144 Invalid Blocks : 0
Heartbeat CPU 3 instructions: 80000003 cycles: 31983492 heartbeat IPC: 2.50482 cumulative IPC: 2.50129 (Simulation time: 43 hr 23 min 24 sec) 
 Total Blocks : 262144 Invalid Blocks : 0
Heartbeat CPU 1 instructions: 80000003 cycles: 31983670 heartbeat IPC: 2.50474 cumulative IPC: 2.50128 (Simulation time: 43 hr 23 min 24 sec) 
 Total Blocks : 262144 Invalid Blocks : 0
Heartbeat CPU 0 instructions: 80000003 cycles: 31983897 heartbeat IPC: 2.50493 cumulative IPC: 2.50126 (Simulation time: 43 hr 23 min 25 sec) 
 Total Blocks : 262144 Invalid Blocks : 0
Heartbeat CPU 5 instructions: 90000000 cycles: 35984479 heartbeat IPC: 2.49834 cumulative IPC: 2.50108 (Simulation time: 48 hr 25 min 39 sec) 
 Total Blocks : 262144 Invalid Blocks : 0
Heartbeat CPU 7 instructions: 90000000 cycles: 35984805 heartbeat IPC: 2.49839 cumulative IPC: 2.50106 (Simulation time: 48 hr 25 min 42 sec) 
 Total Blocks : 262144 Invalid Blocks : 0
Heartbeat CPU 6 instructions: 90000000 cycles: 35985675 heartbeat IPC: 2.49806 cumulative IPC: 2.501 (Simulation time: 48 hr 25 min 47 sec) 
 Total Blocks : 262144 Invalid Blocks : 0
Heartbeat CPU 2 instructions: 90000000 cycles: 35985915 heartbeat IPC: 2.49793 cumulative IPC: 2.50098 (Simulation time: 48 hr 25 min 48 sec) 
 Total Blocks : 262144 Invalid Blocks : 0
Heartbeat CPU 4 instructions: 90000000 cycles: 35986428 heartbeat IPC: 2.49814 cumulative IPC: 2.50094 (Simulation time: 48 hr 25 min 50 sec) 
 Total Blocks : 262144 Invalid Blocks : 0
Heartbeat CPU 3 instructions: 90000000 cycles: 35986523 heartbeat IPC: 2.49811 cumulative IPC: 2.50094 (Simulation time: 48 hr 25 min 51 sec) 
 Total Blocks : 262144 Invalid Blocks : 0
Heartbeat CPU 1 instructions: 90000000 cycles: 35986570 heartbeat IPC: 2.49819 cumulative IPC: 2.50093 (Simulation time: 48 hr 25 min 51 sec) 
 Total Blocks : 262144 Invalid Blocks : 0
Heartbeat CPU 0 instructions: 90000000 cycles: 35986950 heartbeat IPC: 2.49809 cumulative IPC: 2.50091 (Simulation time: 48 hr 25 min 53 sec) 
 Total Blocks : 262144 Invalid Blocks : 0
Heartbeat CPU 5 instructions: 100000003 cycles: 39974832 heartbeat IPC: 2.50604 cumulative IPC: 2.50157 (Simulation time: 53 hr 29 min 35 sec) 
 Total Blocks : 262144 Invalid Blocks : 0
Heartbeat CPU 7 instructions: 100000003 cycles: 39975068 heartbeat IPC: 2.5061 cumulative IPC: 2.50156 (Simulation time: 53 hr 29 min 37 sec) 
 Total Blocks : 262144 Invalid Blocks : 0
Heartbeat CPU 6 instructions: 100000003 cycles: 39976443 heartbeat IPC: 2.50578 cumulative IPC: 2.50147 (Simulation time: 53 hr 29 min 44 sec) 
 Total Blocks : 262144 Invalid Blocks : 0
Heartbeat CPU 4 instructions: 100000003 cycles: 39976549 heartbeat IPC: 2.50619 cumulative IPC: 2.50147 (Simulation time: 53 hr 29 min 46 sec) 
 Total Blocks : 262144 Invalid Blocks : 0
Heartbeat CPU 2 instructions: 100000003 cycles: 39976589 heartbeat IPC: 2.50584 cumulative IPC: 2.50146 (Simulation time: 53 hr 29 min 46 sec) 
 Total Blocks : 262144 Invalid Blocks : 0
Heartbeat CPU 1 instructions: 100000003 cycles: 39976624 heartbeat IPC: 2.50623 cumulative IPC: 2.50146 (Simulation time: 53 hr 29 min 46 sec) 
 Total Blocks : 262144 Invalid Blocks : 0
Heartbeat CPU 3 instructions: 100000003 cycles: 39976763 heartbeat IPC: 2.50612 cumulative IPC: 2.50145 (Simulation time: 53 hr 29 min 46 sec) 
 Total Blocks : 262144 Invalid Blocks : 0
Heartbeat CPU 0 instructions: 100000003 cycles: 39977312 heartbeat IPC: 2.50604 cumulative IPC: 2.50142 (Simulation time: 53 hr 29 min 48 sec) 
 Total Blocks : 262144 Invalid Blocks : 0
Heartbeat CPU 5 instructions: 110000000 cycles: 43977032 heartbeat IPC: 2.49863 cumulative IPC: 2.50131 (Simulation time: 58 hr 24 min 3 sec) 
 Total Blocks : 262144 Invalid Blocks : 0
Heartbeat CPU 7 instructions: 110000000 cycles: 43977827 heartbeat IPC: 2.49828 cumulative IPC: 2.50126 (Simulation time: 58 hr 24 min 5 sec) 
 Total Blocks : 262144 Invalid Blocks : 0
Heartbeat CPU 6 instructions: 110000000 cycles: 43978536 heartbeat IPC: 2.49869 cumulative IPC: 2.50122 (Simulation time: 58 hr 24 min 6 sec) 
 Total Blocks : 262144 Invalid Blocks : 0
Heartbeat CPU 4 instructions: 110000000 cycles: 43978592 heartbeat IPC: 2.49872 cumulative IPC: 2.50122 (Simulation time: 58 hr 24 min 6 sec) 
 Total Blocks : 262144 Invalid Blocks : 0
Heartbeat CPU 2 instructions: 110000000 cycles: 43978767 heartbeat IPC: 2.49864 cumulative IPC: 2.50121 (Simulation time: 58 hr 24 min 7 sec) 
 Total Blocks : 262144 Invalid Blocks : 0
Heartbeat CPU 1 instructions: 110000000 cycles: 43978927 heartbeat IPC: 2.49856 cumulative IPC: 2.5012 (Simulation time: 58 hr 24 min 7 sec) 
 Total Blocks : 262144 Invalid Blocks : 0
Heartbeat CPU 3 instructions: 110000000 cycles: 43979068 heartbeat IPC: 2.49856 cumulative IPC: 2.50119 (Simulation time: 58 hr 24 min 8 sec) 
 Total Blocks : 262144 Invalid Blocks : 0
Heartbeat CPU 0 instructions: 110000000 cycles: 43979550 heartbeat IPC: 2.4986 cumulative IPC: 2.50116 (Simulation time: 58 hr 24 min 9 sec) 
 Total Blocks : 262144 Invalid Blocks : 0
Heartbeat CPU 5 instructions: 120000000 cycles: 47995059 heartbeat IPC: 2.48878 cumulative IPC: 2.50026 (Simulation time: 63 hr 11 min 1 sec) 
 Total Blocks : 262144 Invalid Blocks : 0
Heartbeat CPU 7 instructions: 120000000 cycles: 47995856 heartbeat IPC: 2.48878 cumulative IPC: 2.50022 (Simulation time: 63 hr 11 min 5 sec) 
 Total Blocks : 262144 Invalid Blocks : 0
Heartbeat CPU 6 instructions: 120000000 cycles: 47996394 heartbeat IPC: 2.48889 cumulative IPC: 2.50019 (Simulation time: 63 hr 11 min 7 sec) 
 Total Blocks : 262144 Invalid Blocks : 0
Heartbeat CPU 1 instructions: 120000000 cycles: 47996459 heartbeat IPC: 2.48909 cumulative IPC: 2.50018 (Simulation time: 63 hr 11 min 7 sec) 
 Total Blocks : 262144 Invalid Blocks : 0
Heartbeat CPU 3 instructions: 120000000 cycles: 47996633 heartbeat IPC: 2.48907 cumulative IPC: 2.50018 (Simulation time: 63 hr 11 min 7 sec) 
 Total Blocks : 262144 Invalid Blocks : 0
Heartbeat CPU 4 instructions: 120000000 cycles: 47996636 heartbeat IPC: 2.48877 cumulative IPC: 2.50018 (Simulation time: 63 hr 11 min 7 sec) 
 Total Blocks : 262144 Invalid Blocks : 0
Heartbeat CPU 2 instructions: 120000000 cycles: 47996872 heartbeat IPC: 2.48874 cumulative IPC: 2.50016 (Simulation time: 63 hr 11 min 8 sec) 
 Total Blocks : 262144 Invalid Blocks : 0
Heartbeat CPU 0 instructions: 120000000 cycles: 47997305 heartbeat IPC: 2.48895 cumulative IPC: 2.50014 (Simulation time: 63 hr 11 min 9 sec) 
 Total Blocks : 262144 Invalid Blocks : 0
Heartbeat CPU 5 instructions: 130000003 cycles: 51983358 heartbeat IPC: 2.50734 cumulative IPC: 2.5008 (Simulation time: 67 hr 44 min 4 sec) 
 Total Blocks : 262144 Invalid Blocks : 0
Heartbeat CPU 7 instructions: 130000003 cycles: 51984200 heartbeat IPC: 2.50731 cumulative IPC: 2.50076 (Simulation time: 67 hr 44 min 7 sec) 
 Total Blocks : 262144 Invalid Blocks : 0
Heartbeat CPU 3 instructions: 130000003 cycles: 51984420 heartbeat IPC: 2.50766 cumulative IPC: 2.50075 (Simulation time: 67 hr 44 min 7 sec) 
 Total Blocks : 262144 Invalid Blocks : 0
Heartbeat CPU 4 instructions: 130000003 cycles: 51984777 heartbeat IPC: 2.50743 cumulative IPC: 2.50073 (Simulation time: 67 hr 44 min 9 sec) 
 Total Blocks : 262144 Invalid Blocks : 0
Heartbeat CPU 1 instructions: 130000003 cycles: 51984805 heartbeat IPC: 2.50731 cumulative IPC: 2.50073 (Simulation time: 67 hr 44 min 9 sec) 
 Total Blocks : 262144 Invalid Blocks : 0
Heartbeat CPU 6 instructions: 130000003 cycles: 51984965 heartbeat IPC: 2.50716 cumulative IPC: 2.50072 (Simulation time: 67 hr 44 min 9 sec) 
 Total Blocks : 262144 Invalid Blocks : 0
Heartbeat CPU 2 instructions: 130000003 cycles: 51985302 heartbeat IPC: 2.50725 cumulative IPC: 2.50071 (Simulation time: 67 hr 44 min 9 sec) 
 Total Blocks : 262144 Invalid Blocks : 0
Heartbeat CPU 0 instructions: 130000003 cycles: 51985824 heartbeat IPC: 2.5072 cumulative IPC: 2.50068 (Simulation time: 67 hr 44 min 10 sec) 
 Total Blocks : 262144 Invalid Blocks : 0
Heartbeat CPU 5 instructions: 140000001 cycles: 55983756 heartbeat IPC: 2.49975 cumulative IPC: 2.50073 (Simulation time: 72 hr 19 min 25 sec) 
 Total Blocks : 262144 Invalid Blocks : 0
Heartbeat CPU 7 instructions: 140000001 cycles: 55984508 heartbeat IPC: 2.49981 cumulative IPC: 2.50069 (Simulation time: 72 hr 19 min 30 sec) 
 Total Blocks : 262144 Invalid Blocks : 0
Heartbeat CPU 3 instructions: 140000001 cycles: 55984597 heartbeat IPC: 2.49989 cumulative IPC: 2.50069 (Simulation time: 72 hr 19 min 30 sec) 
 Total Blocks : 262144 Invalid Blocks : 0
Heartbeat CPU 1 instructions: 140000001 cycles: 55984926 heartbeat IPC: 2.49992 cumulative IPC: 2.50067 (Simulation time: 72 hr 19 min 31 sec) 
 Total Blocks : 262144 Invalid Blocks : 0
Heartbeat CPU 4 instructions: 140000001 cycles: 55984942 heartbeat IPC: 2.4999 cumulative IPC: 2.50067 (Simulation time: 72 hr 19 min 31 sec) 
 Total Blocks : 262144 Invalid Blocks : 0
Heartbeat CPU 6 instructions: 140000001 cycles: 55985001 heartbeat IPC: 2.49998 cumulative IPC: 2.50067 (Simulation time: 72 hr 19 min 32 sec) 
 Total Blocks : 262144 Invalid Blocks : 0
Heartbeat CPU 2 instructions: 140000001 cycles: 55985653 heartbeat IPC: 2.49978 cumulative IPC: 2.50064 (Simulation time: 72 hr 19 min 33 sec) 
 Total Blocks : 262144 Invalid Blocks : 0
Heartbeat CPU 0 instructions: 140000001 cycles: 55986206 heartbeat IPC: 2.49976 cumulative IPC: 2.50062 (Simulation time: 72 hr 19 min 35 sec) 
 Total Blocks : 262144 Invalid Blocks : 0
Heartbeat CPU 5 instructions: 150000000 cycles: 60000239 heartbeat IPC: 2.48974 cumulative IPC: 2.49999 (Simulation time: 77 hr 0 min 51 sec) 
 Total Blocks : 262144 Invalid Blocks : 0
Heartbeat CPU 3 instructions: 150000000 cycles: 60000879 heartbeat IPC: 2.48986 cumulative IPC: 2.49996 (Simulation time: 77 hr 0 min 55 sec) 
 Total Blocks : 262144 Invalid Blocks : 0
Heartbeat CPU 7 instructions: 150000000 cycles: 60000895 heartbeat IPC: 2.4898 cumulative IPC: 2.49996 (Simulation time: 77 hr 0 min 55 sec) 
 Total Blocks : 262144 Invalid Blocks : 0
Heartbeat CPU 4 instructions: 150000000 cycles: 60001456 heartbeat IPC: 2.48972 cumulative IPC: 2.49994 (Simulation time: 77 hr 0 min 58 sec) 
 Total Blocks : 262144 Invalid Blocks : 0
Heartbeat CPU 1 instructions: 150000000 cycles: 60001680 heartbeat IPC: 2.48957 cumulative IPC: 2.49993 (Simulation time: 77 hr 0 min 59 sec) 
 Total Blocks : 262144 Invalid Blocks : 0
Heartbeat CPU 6 instructions: 150000000 cycles: 60001790 heartbeat IPC: 2.48955 cumulative IPC: 2.49993 (Simulation time: 77 hr 1 min 0 sec) 
 Total Blocks : 262144 Invalid Blocks : 0
Heartbeat CPU 2 instructions: 150000000 cycles: 60002490 heartbeat IPC: 2.48952 cumulative IPC: 2.4999 (Simulation time: 77 hr 1 min 2 sec) 
 Total Blocks : 262144 Invalid Blocks : 0
Heartbeat CPU 0 instructions: 150000000 cycles: 60002676 heartbeat IPC: 2.48975 cumulative IPC: 2.49989 (Simulation time: 77 hr 1 min 2 sec) 
 Total Blocks : 262144 Invalid Blocks : 0
Heartbeat CPU 5 instructions: 160000000 cycles: 64025596 heartbeat IPC: 2.48425 cumulative IPC: 2.499 (Simulation time: 81 hr 52 min 29 sec) 
 Total Blocks : 262144 Invalid Blocks : 0
Heartbeat CPU 3 instructions: 160000000 cycles: 64025773 heartbeat IPC: 2.48454 cumulative IPC: 2.49899 (Simulation time: 81 hr 52 min 30 sec) 
 Total Blocks : 262144 Invalid Blocks : 0
Heartbeat CPU 7 instructions: 160000002 cycles: 64026399 heartbeat IPC: 2.48416 cumulative IPC: 2.49897 (Simulation time: 81 hr 52 min 35 sec) 
 Total Blocks : 262144 Invalid Blocks : 0
Heartbeat CPU 6 instructions: 160000000 cycles: 64026868 heartbeat IPC: 2.48442 cumulative IPC: 2.49895 (Simulation time: 81 hr 52 min 37 sec) 
 Total Blocks : 262144 Invalid Blocks : 0
Heartbeat CPU 1 instructions: 160000002 cycles: 64026896 heartbeat IPC: 2.48434 cumulative IPC: 2.49895 (Simulation time: 81 hr 52 min 37 sec) 
 Total Blocks : 262144 Invalid Blocks : 0
Heartbeat CPU 4 instructions: 160000000 cycles: 64027074 heartbeat IPC: 2.48409 cumulative IPC: 2.49894 (Simulation time: 81 hr 52 min 38 sec) 
 Total Blocks : 262144 Invalid Blocks : 0
Heartbeat CPU 2 instructions: 160000000 cycles: 64027728 heartbeat IPC: 2.48433 cumulative IPC: 2.49892 (Simulation time: 81 hr 52 min 41 sec) 
 Total Blocks : 262144 Invalid Blocks : 0
Heartbeat CPU 0 instructions: 160000000 cycles: 64027866 heartbeat IPC: 2.48435 cumulative IPC: 2.49891 (Simulation time: 81 hr 52 min 41 sec) 
 Total Blocks : 262144 Invalid Blocks : 0
Heartbeat CPU 5 instructions: 170000003 cycles: 68043426 heartbeat IPC: 2.48891 cumulative IPC: 2.4984 (Simulation time: 86 hr 49 min 24 sec) 
 Total Blocks : 262144 Invalid Blocks : 0
Heartbeat CPU 3 instructions: 170000003 cycles: 68043538 heartbeat IPC: 2.48895 cumulative IPC: 2.4984 (Simulation time: 86 hr 49 min 27 sec) 
 Total Blocks : 262144 Invalid Blocks : 0
Heartbeat CPU 7 instructions: 170000003 cycles: 68044042 heartbeat IPC: 2.48902 cumulative IPC: 2.49838 (Simulation time: 86 hr 49 min 30 sec) 
 Total Blocks : 262144 Invalid Blocks : 0
Heartbeat CPU 6 instructions: 170000003 cycles: 68044711 heartbeat IPC: 2.4889 cumulative IPC: 2.49836 (Simulation time: 86 hr 49 min 31 sec) 
 Total Blocks : 262144 Invalid Blocks : 0
Heartbeat CPU 1 instructions: 170000003 cycles: 68044819 heartbeat IPC: 2.48885 cumulative IPC: 2.49835 (Simulation time: 86 hr 49 min 33 sec) 
 Total Blocks : 262144 Invalid Blocks : 0
Heartbeat CPU 4 instructions: 170000003 cycles: 68044873 heartbeat IPC: 2.48893 cumulative IPC: 2.49835 (Simulation time: 86 hr 49 min 33 sec) 
 Total Blocks : 262144 Invalid Blocks : 0
Heartbeat CPU 2 instructions: 170000003 cycles: 68045464 heartbeat IPC: 2.48896 cumulative IPC: 2.49833 (Simulation time: 86 hr 49 min 37 sec) 
 Total Blocks : 262144 Invalid Blocks : 0
Heartbeat CPU 0 instructions: 170000003 cycles: 68046000 heartbeat IPC: 2.48872 cumulative IPC: 2.49831 (Simulation time: 86 hr 49 min 39 sec) 
 Total Blocks : 262144 Invalid Blocks : 0
Heartbeat CPU 3 instructions: 180000003 cycles: 72057343 heartbeat IPC: 2.4914 cumulative IPC: 2.49801 (Simulation time: 91 hr 57 min 56 sec) 
 Total Blocks : 262144 Invalid Blocks : 0
Heartbeat CPU 5 instructions: 180000003 cycles: 72057635 heartbeat IPC: 2.49115 cumulative IPC: 2.498 (Simulation time: 91 hr 57 min 57 sec) 
 Total Blocks : 262144 Invalid Blocks : 0
Heartbeat CPU 7 instructions: 180000003 cycles: 72057903 heartbeat IPC: 2.49137 cumulative IPC: 2.49799 (Simulation time: 91 hr 57 min 57 sec) 
 Total Blocks : 262144 Invalid Blocks : 0
Heartbeat CPU 4 instructions: 180000003 cycles: 72058625 heartbeat IPC: 2.49143 cumulative IPC: 2.49797 (Simulation time: 91 hr 57 min 59 sec) 
 Total Blocks : 262144 Invalid Blocks : 0
Heartbeat CPU 6 instructions: 180000003 cycles: 72058735 heartbeat IPC: 2.49127 cumulative IPC: 2.49796 (Simulation time: 91 hr 57 min 59 sec) 
 Total Blocks : 262144 Invalid Blocks : 0
Heartbeat CPU 1 instructions: 180000003 cycles: 72058767 heartbeat IPC: 2.49131 cumulative IPC: 2.49796 (Simulation time: 91 hr 57 min 59 sec) 
 Total Blocks : 262144 Invalid Blocks : 0
Heartbeat CPU 2 instructions: 180000003 cycles: 72059191 heartbeat IPC: 2.49145 cumulative IPC: 2.49795 (Simulation time: 91 hr 58 min 0 sec) 
 Total Blocks : 262144 Invalid Blocks : 0
Heartbeat CPU 0 instructions: 180000003 cycles: 72059430 heartbeat IPC: 2.49163 cumulative IPC: 2.49794 (Simulation time: 91 hr 58 min 0 sec) 
 Total Blocks : 262144 Invalid Blocks : 0
Heartbeat CPU 3 instructions: 190000001 cycles: 76078678 heartbeat IPC: 2.48674 cumulative IPC: 2.49741 (Simulation time: 97 hr 12 min 11 sec) 
 Total Blocks : 262144 Invalid Blocks : 0
Heartbeat CPU 5 instructions: 190000001 cycles: 76079288 heartbeat IPC: 2.48654 cumulative IPC: 2.49739 (Simulation time: 97 hr 12 min 15 sec) 
 Total Blocks : 262144 Invalid Blocks : 0
Heartbeat CPU 7 instructions: 190000001 cycles: 76079912 heartbeat IPC: 2.48632 cumulative IPC: 2.49737 (Simulation time: 97 hr 12 min 20 sec) 
 Total Blocks : 262144 Invalid Blocks : 0
Heartbeat CPU 4 instructions: 190000001 cycles: 76080233 heartbeat IPC: 2.48657 cumulative IPC: 2.49736 (Simulation time: 97 hr 12 min 21 sec) 
 Total Blocks : 262144 Invalid Blocks : 0
Heartbeat CPU 6 instructions: 190000001 cycles: 76080271 heartbeat IPC: 2.48661 cumulative IPC: 2.49736 (Simulation time: 97 hr 12 min 21 sec) 
 Total Blocks : 262144 Invalid Blocks : 0
Heartbeat CPU 1 instructions: 190000001 cycles: 76080579 heartbeat IPC: 2.48644 cumulative IPC: 2.49735 (Simulation time: 97 hr 12 min 21 sec) 
 Total Blocks : 262144 Invalid Blocks : 0
Heartbeat CPU 0 instructions: 190000001 cycles: 76080800 heartbeat IPC: 2.48671 cumulative IPC: 2.49734 (Simulation time: 97 hr 12 min 22 sec) 
 Total Blocks : 262144 Invalid Blocks : 0
Heartbeat CPU 2 instructions: 190000001 cycles: 76080833 heartbeat IPC: 2.48655 cumulative IPC: 2.49734 (Simulation time: 97 hr 12 min 23 sec) 
 Total Blocks : 262144 Invalid Blocks : 0
Heartbeat CPU 3 instructions: 200000001 cycles: 80089797 heartbeat IPC: 2.49307 cumulative IPC: 2.4972 (Simulation time: 102 hr 23 min 33 sec) 
 Total Blocks : 262144 Invalid Blocks : 0
Heartbeat CPU 5 instructions: 200000001 cycles: 80090620 heartbeat IPC: 2.49294 cumulative IPC: 2.49717 (Simulation time: 102 hr 23 min 37 sec) 
 Total Blocks : 262144 Invalid Blocks : 0
Heartbeat CPU 7 instructions: 200000001 cycles: 80090658 heartbeat IPC: 2.4933 cumulative IPC: 2.49717 (Simulation time: 102 hr 23 min 38 sec) 
 Total Blocks : 262144 Invalid Blocks : 0
Heartbeat CPU 6 instructions: 200000001 cycles: 80091330 heartbeat IPC: 2.49311 cumulative IPC: 2.49715 (Simulation time: 102 hr 23 min 40 sec) 
 Total Blocks : 262144 Invalid Blocks : 0
Heartbeat CPU 4 instructions: 200000001 cycles: 80091487 heartbeat IPC: 2.49299 cumulative IPC: 2.49714 (Simulation time: 102 hr 23 min 41 sec) 
 Total Blocks : 262144 Invalid Blocks : 0
Heartbeat CPU 0 instructions: 200000001 cycles: 80091566 heartbeat IPC: 2.49329 cumulative IPC: 2.49714 (Simulation time: 102 hr 23 min 41 sec) 
 Total Blocks : 262144 Invalid Blocks : 0
Heartbeat CPU 1 instructions: 200000001 cycles: 80091647 heartbeat IPC: 2.4931 cumulative IPC: 2.49714 (Simulation time: 102 hr 23 min 42 sec) 
 Total Blocks : 262144 Invalid Blocks : 0
Heartbeat CPU 2 instructions: 200000001 cycles: 80091832 heartbeat IPC: 2.49314 cumulative IPC: 2.49713 (Simulation time: 102 hr 23 min 42 sec) 
 Total Blocks : 262144 Invalid Blocks : 0

Warmup complete CPU 0 instructions: 200000460 cycles: 80091832 (Simulation time: 102 hr 23 min 42 sec) 
Warmup complete CPU 1 instructions: 200000346 cycles: 80091832 (Simulation time: 102 hr 23 min 42 sec) 
Warmup complete CPU 2 instructions: 200000001 cycles: 80091832 (Simulation time: 102 hr 23 min 42 sec) 
Warmup complete CPU 3 instructions: 200004288 cycles: 80091831 (Simulation time: 102 hr 23 min 42 sec) 
Warmup complete CPU 4 instructions: 200000581 cycles: 80091831 (Simulation time: 102 hr 23 min 42 sec) 
Warmup complete CPU 5 instructions: 200002031 cycles: 80091831 (Simulation time: 102 hr 23 min 42 sec) 
Warmup complete CPU 6 instructions: 200000802 cycles: 80091831 (Simulation time: 102 hr 23 min 42 sec) 
Warmup complete CPU 7 instructions: 200001965 cycles: 80091831 (Simulation time: 102 hr 23 min 42 sec) 

Heartbeat CPU 0 instructions: 210000002 cycles: 164873920 heartbeat IPC: 0.117949 cumulative IPC: 0.117944 (Simulation time: 109 hr 7 min 42 sec) 
 Total Blocks : 262144 Invalid Blocks : 0
Heartbeat CPU 3 instructions: 210000002 cycles: 164917646 heartbeat IPC: 0.117886 cumulative IPC: 0.117838 (Simulation time: 109 hr 7 min 52 sec) 
 Total Blocks : 262144 Invalid Blocks : 0
Heartbeat CPU 2 instructions: 210000002 cycles: 165242436 heartbeat IPC: 0.117439 cumulative IPC: 0.117439 (Simulation time: 109 hr 9 min 10 sec) 
 Total Blocks : 262144 Invalid Blocks : 0
Heartbeat CPU 6 instructions: 210000002 cycles: 165295522 heartbeat IPC: 0.117365 cumulative IPC: 0.117356 (Simulation time: 109 hr 9 min 23 sec) 
 Total Blocks : 262144 Invalid Blocks : 0
Heartbeat CPU 7 instructions: 210000002 cycles: 165405458 heartbeat IPC: 0.117213 cumulative IPC: 0.117192 (Simulation time: 109 hr 9 min 51 sec) 
 Total Blocks : 262144 Invalid Blocks : 0
Heartbeat CPU 1 instructions: 210000002 cycles: 165444855 heartbeat IPC: 0.11716 cumulative IPC: 0.117156 (Simulation time: 109 hr 10 min 1 sec) 
 Total Blocks : 262144 Invalid Blocks : 0
Heartbeat CPU 4 instructions: 210000002 cycles: 165843650 heartbeat IPC: 0.116615 cumulative IPC: 0.116609 (Simulation time: 109 hr 11 min 36 sec) 
 Total Blocks : 262144 Invalid Blocks : 0
Heartbeat CPU 5 instructions: 210000002 cycles: 165847936 heartbeat IPC: 0.116608 cumulative IPC: 0.116586 (Simulation time: 109 hr 11 min 37 sec) 
 Total Blocks : 262144 Invalid Blocks : 0
Heartbeat CPU 0 instructions: 220000000 cycles: 249989635 heartbeat IPC: 0.117487 cumulative IPC: 0.117715 (Simulation time: 114 hr 50 min 41 sec) 
 Total Blocks : 262144 Invalid Blocks : 0
Heartbeat CPU 3 instructions: 220000000 cycles: 250096311 heartbeat IPC: 0.1174 cumulative IPC: 0.117619 (Simulation time: 114 hr 51 min 9 sec) 
 Total Blocks : 262144 Invalid Blocks : 0
Heartbeat CPU 7 instructions: 220000000 cycles: 250374129 heartbeat IPC: 0.11769 cumulative IPC: 0.11744 (Simulation time: 114 hr 52 min 10 sec) 
 Total Blocks : 262144 Invalid Blocks : 0
Heartbeat CPU 6 instructions: 220000000 cycles: 250430908 heartbeat IPC: 0.11746 cumulative IPC: 0.117408 (Simulation time: 114 hr 52 min 22 sec) 
 Total Blocks : 262144 Invalid Blocks : 0
Heartbeat CPU 1 instructions: 220000000 cycles: 250506913 heartbeat IPC: 0.117561 cumulative IPC: 0.117358 (Simulation time: 114 hr 52 min 41 sec) 
 Total Blocks : 262144 Invalid Blocks : 0
Heartbeat CPU 2 instructions: 220000000 cycles: 250571301 heartbeat IPC: 0.117194 cumulative IPC: 0.117316 (Simulation time: 114 hr 52 min 56 sec) 
 Total Blocks : 262144 Invalid Blocks : 0
Heartbeat CPU 4 instructions: 220000000 cycles: 250709179 heartbeat IPC: 0.117833 cumulative IPC: 0.117218 (Simulation time: 114 hr 53 min 29 sec) 
 Total Blocks : 262144 Invalid Blocks : 0
Heartbeat CPU 5 instructions: 220000000 cycles: 251392206 heartbeat IPC: 0.116899 cumulative IPC: 0.116742 (Simulation time: 114 hr 56 min 10 sec) 
 Total Blocks : 262144 Invalid Blocks : 0
Heartbeat CPU 0 instructions: 230000003 cycles: 333498861 heartbeat IPC: 0.119747 cumulative IPC: 0.118385 (Simulation time: 120 hr 15 min 24 sec) 
 Total Blocks : 262144 Invalid Blocks : 0
Heartbeat CPU 3 instructions: 230000003 cycles: 333977728 heartbeat IPC: 0.119216 cumulative IPC: 0.118146 (Simulation time: 120 hr 17 min 13 sec) 
 Total Blocks : 262144 Invalid Blocks : 0
Heartbeat CPU 7 instructions: 230000003 cycles: 334027645 heartbeat IPC: 0.119541 cumulative IPC: 0.118132 (Simulation time: 120 hr 17 min 24 sec) 
 Total Blocks : 262144 Invalid Blocks : 0
Heartbeat CPU 1 instructions: 230000003 cycles: 334054066 heartbeat IPC: 0.119693 cumulative IPC: 0.118126 (Simulation time: 120 hr 17 min 31 sec) 
 Total Blocks : 262144 Invalid Blocks : 0
Heartbeat CPU 6 instructions: 230000003 cycles: 334116623 heartbeat IPC: 0.119495 cumulative IPC: 0.118096 (Simulation time: 120 hr 17 min 45 sec) 
 Total Blocks : 262144 Invalid Blocks : 0
Heartbeat CPU 4 instructions: 230000003 cycles: 334448706 heartbeat IPC: 0.119418 cumulative IPC: 0.117942 (Simulation time: 120 hr 18 min 56 sec) 
 Total Blocks : 262144 Invalid Blocks : 0
Heartbeat CPU 2 instructions: 230000003 cycles: 335156061 heartbeat IPC: 0.118225 cumulative IPC: 0.117617 (Simulation time: 120 hr 21 min 30 sec) 
 Total Blocks : 262144 Invalid Blocks : 0
Heartbeat CPU 5 instructions: 230000003 cycles: 335958789 heartbeat IPC: 0.11825 cumulative IPC: 0.117241 (Simulation time: 120 hr 24 min 33 sec) 
 Total Blocks : 262144 Invalid Blocks : 0
Heartbeat CPU 6 instructions: 240000001 cycles: 418544706 heartbeat IPC: 0.118444 cumulative IPC: 0.118182 (Simulation time: 125 hr 33 min 41 sec) 
 Total Blocks : 262144 Invalid Blocks : 0
Heartbeat CPU 0 instructions: 240000001 cycles: 418606439 heartbeat IPC: 0.117498 cumulative IPC: 0.118162 (Simulation time: 125 hr 33 min 56 sec) 
 Total Blocks : 262144 Invalid Blocks : 0
Heartbeat CPU 7 instructions: 240000000 cycles: 418698780 heartbeat IPC: 0.118104 cumulative IPC: 0.118125 (Simulation time: 125 hr 34 min 14 sec) 
 Total Blocks : 262144 Invalid Blocks : 0
Heartbeat CPU 4 instructions: 240000000 cycles: 418851637 heartbeat IPC: 0.118479 cumulative IPC: 0.118076 (Simulation time: 125 hr 34 min 48 sec) 
 Total Blocks : 262144 Invalid Blocks : 0
Heartbeat CPU 1 instructions: 240000000 cycles: 419134509 heartbeat IPC: 0.117536 cumulative IPC: 0.117978 (Simulation time: 125 hr 35 min 43 sec) 
 Total Blocks : 262144 Invalid Blocks : 0
Heartbeat CPU 3 instructions: 240000001 cycles: 419292792 heartbeat IPC: 0.117213 cumulative IPC: 0.117912 (Simulation time: 125 hr 36 min 16 sec) 
 Total Blocks : 262144 Invalid Blocks : 0
Heartbeat CPU 5 instructions: 240000001 cycles: 420927177 heartbeat IPC: 0.117691 cumulative IPC: 0.117353 (Simulation time: 125 hr 41 min 49 sec) 
 Total Blocks : 262144 Invalid Blocks : 0
Heartbeat CPU 2 instructions: 240000001 cycles: 421055259 heartbeat IPC: 0.116416 cumulative IPC: 0.117315 (Simulation time: 125 hr 42 min 16 sec) 
 Total Blocks : 262144 Invalid Blocks : 0
Heartbeat CPU 0 instructions: 250000000 cycles: 501026480 heartbeat IPC: 0.12133 cumulative IPC: 0.118782 (Simulation time: 130 hr 25 min 10 sec) 
 Total Blocks : 262144 Invalid Blocks : 0
Heartbeat CPU 6 instructions: 250000000 cycles: 501231308 heartbeat IPC: 0.120939 cumulative IPC: 0.118724 (Simulation time: 130 hr 25 min 55 sec) 
 Total Blocks : 262144 Invalid Blocks : 0
Heartbeat CPU 4 instructions: 250000001 cycles: 501254766 heartbeat IPC: 0.121355 cumulative IPC: 0.118718 (Simulation time: 130 hr 26 min 0 sec) 
 Total Blocks : 262144 Invalid Blocks : 0
Heartbeat CPU 7 instructions: 250000000 cycles: 501300241 heartbeat IPC: 0.121063 cumulative IPC: 0.118701 (Simulation time: 130 hr 26 min 9 sec) 
 Total Blocks : 262144 Invalid Blocks : 0
Heartbeat CPU 1 instructions: 250000000 cycles: 502092174 heartbeat IPC: 0.120543 cumulative IPC: 0.118482 (Simulation time: 130 hr 28 min 53 sec) 
 Total Blocks : 262144 Invalid Blocks : 0
Heartbeat CPU 3 instructions: 250000000 cycles: 502357506 heartbeat IPC: 0.120388 cumulative IPC: 0.118399 (Simulation time: 130 hr 29 min 46 sec) 
 Total Blocks : 262144 Invalid Blocks : 0
Heartbeat CPU 5 instructions: 250000001 cycles: 503319672 heartbeat IPC: 0.12137 cumulative IPC: 0.118135 (Simulation time: 130 hr 33 min 4 sec) 
 Total Blocks : 262144 Invalid Blocks : 0
Heartbeat CPU 2 instructions: 250000000 cycles: 503832111 heartbeat IPC: 0.120807 cumulative IPC: 0.117997 (Simulation time: 130 hr 34 min 51 sec) 
 Total Blocks : 262144 Invalid Blocks : 0
Heartbeat CPU 0 instructions: 260000001 cycles: 583525857 heartbeat IPC: 0.121213 cumulative IPC: 0.119181 (Simulation time: 135 hr 13 min 7 sec) 
 Total Blocks : 262144 Invalid Blocks : 0
Heartbeat CPU 6 instructions: 260000001 cycles: 583543121 heartbeat IPC: 0.121489 cumulative IPC: 0.119176 (Simulation time: 135 hr 13 min 11 sec) 
 Total Blocks : 262144 Invalid Blocks : 0
Heartbeat CPU 4 instructions: 260000001 cycles: 583739061 heartbeat IPC: 0.121235 cumulative IPC: 0.11913 (Simulation time: 135 hr 13 min 51 sec) 
 Total Blocks : 262144 Invalid Blocks : 0
Heartbeat CPU 7 instructions: 260000001 cycles: 584025101 heartbeat IPC: 0.120883 cumulative IPC: 0.119059 (Simulation time: 135 hr 14 min 52 sec) 
 Total Blocks : 262144 Invalid Blocks : 0
Heartbeat CPU 1 instructions: 260000001 cycles: 584838960 heartbeat IPC: 0.120851 cumulative IPC: 0.118871 (Simulation time: 135 hr 17 min 45 sec) 
 Total Blocks : 262144 Invalid Blocks : 0
Heartbeat CPU 3 instructions: 260000001 cycles: 585366270 heartbeat IPC: 0.120469 cumulative IPC: 0.118739 (Simulation time: 135 hr 19 min 34 sec) 
 Total Blocks : 262144 Invalid Blocks : 0
Heartbeat CPU 5 instructions: 260000001 cycles: 585914054 heartbeat IPC: 0.121074 cumulative IPC: 0.118615 (Simulation time: 135 hr 21 min 28 sec) 
 Total Blocks : 262144 Invalid Blocks : 0
Heartbeat CPU 2 instructions: 260000001 cycles: 586149123 heartbeat IPC: 0.121482 cumulative IPC: 0.118564 (Simulation time: 135 hr 22 min 17 sec) 
 Total Blocks : 262144 Invalid Blocks : 0
Heartbeat CPU 0 instructions: 270000000 cycles: 665736794 heartbeat IPC: 0.121638 cumulative IPC: 0.119526 (Simulation time: 139 hr 54 min 45 sec) 
 Total Blocks : 262144 Invalid Blocks : 0
Heartbeat CPU 6 instructions: 270000001 cycles: 665772028 heartbeat IPC: 0.121612 cumulative IPC: 0.119518 (Simulation time: 139 hr 54 min 52 sec) 
 Total Blocks : 262144 Invalid Blocks : 0
Heartbeat CPU 4 instructions: 270000001 cycles: 666117544 heartbeat IPC: 0.121391 cumulative IPC: 0.119448 (Simulation time: 139 hr 56 min 2 sec) 
 Total Blocks : 262144 Invalid Blocks : 0
Heartbeat CPU 7 instructions: 270000001 cycles: 666548029 heartbeat IPC: 0.121178 cumulative IPC: 0.119358 (Simulation time: 139 hr 57 min 32 sec) 
 Total Blocks : 262144 Invalid Blocks : 0
Heartbeat CPU 1 instructions: 270000001 cycles: 667648278 heartbeat IPC: 0.120759 cumulative IPC: 0.119137 (Simulation time: 140 hr 1 min 15 sec) 
 Total Blocks : 262144 Invalid Blocks : 0
Heartbeat CPU 3 instructions: 270000001 cycles: 668012238 heartbeat IPC: 0.120998 cumulative IPC: 0.119056 (Simulation time: 140 hr 2 min 29 sec) 
 Total Blocks : 262144 Invalid Blocks : 0
Heartbeat CPU 5 instructions: 270000001 cycles: 668519545 heartbeat IPC: 0.121057 cumulative IPC: 0.118958 (Simulation time: 140 hr 4 min 14 sec) 
 Total Blocks : 262144 Invalid Blocks : 0
Heartbeat CPU 2 instructions: 270000001 cycles: 668564172 heartbeat IPC: 0.121337 cumulative IPC: 0.118952 (Simulation time: 140 hr 4 min 23 sec) 
 Total Blocks : 262144 Invalid Blocks : 0
Heartbeat CPU 6 instructions: 280000001 cycles: 746944374 heartbeat IPC: 0.123195 cumulative IPC: 0.119965 (Simulation time: 144 hr 31 min 30 sec) 
 Total Blocks : 262144 Invalid Blocks : 0
Heartbeat CPU 4 instructions: 280000001 cycles: 747050193 heartbeat IPC: 0.12356 cumulative IPC: 0.119947 (Simulation time: 144 hr 31 min 51 sec) 
 Total Blocks : 262144 Invalid Blocks : 0
Heartbeat CPU 0 instructions: 280000001 cycles: 747421120 heartbeat IPC: 0.122423 cumulative IPC: 0.11988 (Simulation time: 144 hr 33 min 7 sec) 
 Total Blocks : 262144 Invalid Blocks : 0
Heartbeat CPU 7 instructions: 280000001 cycles: 747464614 heartbeat IPC: 0.123584 cumulative IPC: 0.11987 (Simulation time: 144 hr 33 min 16 sec) 
 Total Blocks : 262144 Invalid Blocks : 0
Heartbeat CPU 3 instructions: 280000001 cycles: 749260481 heartbeat IPC: 0.12308 cumulative IPC: 0.119545 (Simulation time: 144 hr 39 min 24 sec) 
 Total Blocks : 262144 Invalid Blocks : 0
Heartbeat CPU 1 instructions: 280000001 cycles: 749484794 heartbeat IPC: 0.122195 cumulative IPC: 0.119511 (Simulation time: 144 hr 40 min 11 sec) 
 Total Blocks : 262144 Invalid Blocks : 0
Heartbeat CPU 2 instructions: 280000001 cycles: 749675431 heartbeat IPC: 0.123287 cumulative IPC: 0.119477 (Simulation time: 144 hr 40 min 49 sec) 
 Total Blocks : 262144 Invalid Blocks : 0
Heartbeat CPU 5 instructions: 280000001 cycles: 749783898 heartbeat IPC: 0.123055 cumulative IPC: 0.119455 (Simulation time: 144 hr 41 min 11 sec) 
 Total Blocks : 262144 Invalid Blocks : 0
Heartbeat CPU 6 instructions: 290000001 cycles: 828983696 heartbeat IPC: 0.121893 cumulative IPC: 0.120176 (Simulation time: 149 hr 9 min 40 sec) 
 Total Blocks : 262144 Invalid Blocks : 0
Heartbeat CPU 0 instructions: 290000001 cycles: 829395358 heartbeat IPC: 0.12199 cumulative IPC: 0.120111 (Simulation time: 149 hr 11 min 6 sec) 
 Total Blocks : 262144 Invalid Blocks : 0
Heartbeat CPU 7 instructions: 290000001 cycles: 830000595 heartbeat IPC: 0.121159 cumulative IPC: 0.120012 (Simulation time: 149 hr 13 min 12 sec) 
 Total Blocks : 262144 Invalid Blocks : 0
Heartbeat CPU 4 instructions: 290000001 cycles: 830085686 heartbeat IPC: 0.12043 cumulative IPC: 0.12 (Simulation time: 149 hr 13 min 30 sec) 
 Total Blocks : 262144 Invalid Blocks : 0
Heartbeat CPU 2 instructions: 290000001 cycles: 831953001 heartbeat IPC: 0.12154 cumulative IPC: 0.119703 (Simulation time: 149 hr 19 min 57 sec) 
 Total Blocks : 262144 Invalid Blocks : 0
Heartbeat CPU 3 instructions: 290000001 cycles: 832080269 heartbeat IPC: 0.120744 cumulative IPC: 0.119677 (Simulation time: 149 hr 20 min 24 sec) 
 Total Blocks : 262144 Invalid Blocks : 0
Heartbeat CPU 5 instructions: 290000001 cycles: 832291288 heartbeat IPC: 0.121201 cumulative IPC: 0.119646 (Simulation time: 149 hr 21 min 7 sec) 
 Total Blocks : 262144 Invalid Blocks : 0
Heartbeat CPU 1 instructions: 290000001 cycles: 832523361 heartbeat IPC: 0.120426 cumulative IPC: 0.119612 (Simulation time: 149 hr 21 min 55 sec) 
 Total Blocks : 262144 Invalid Blocks : 0
Heartbeat CPU 0 instructions: 300000002 cycles: 913054423 heartbeat IPC: 0.119533 cumulative IPC: 0.120053 (Simulation time: 154 hr 5 min 12 sec) 
 Total Blocks : 262144 Invalid Blocks : 0
Heartbeat CPU 6 instructions: 300000003 cycles: 913246887 heartbeat IPC: 0.118676 cumulative IPC: 0.120025 (Simulation time: 154 hr 5 min 53 sec) 
 Total Blocks : 262144 Invalid Blocks : 0
Heartbeat CPU 7 instructions: 300000001 cycles: 913861060 heartbeat IPC: 0.119246 cumulative IPC: 0.119935 (Simulation time: 154 hr 8 min 5 sec) 
 Total Blocks : 262144 Invalid Blocks : 0
Heartbeat CPU 4 instructions: 300000002 cycles: 913972038 heartbeat IPC: 0.119209 cumulative IPC: 0.119921 (Simulation time: 154 hr 8 min 30 sec) 
 Total Blocks : 262144 Invalid Blocks : 0
Heartbeat CPU 2 instructions: 300000002 cycles: 915575053 heartbeat IPC: 0.119586 cumulative IPC: 0.119691 (Simulation time: 154 hr 14 min 13 sec) 
 Total Blocks : 262144 Invalid Blocks : 0
Heartbeat CPU 5 instructions: 300000003 cycles: 915877701 heartbeat IPC: 0.119637 cumulative IPC: 0.119645 (Simulation time: 154 hr 15 min 19 sec) 
 Total Blocks : 262144 Invalid Blocks : 0
Heartbeat CPU 3 instructions: 300000003 cycles: 915993225 heartbeat IPC: 0.119171 cumulative IPC: 0.119626 (Simulation time: 154 hr 15 min 45 sec) 
 Total Blocks : 262144 Invalid Blocks : 0
Heartbeat CPU 1 instructions: 300000002 cycles: 916181474 heartbeat IPC: 0.119534 cumulative IPC: 0.119604 (Simulation time: 154 hr 16 min 25 sec) 
 Total Blocks : 262144 Invalid Blocks : 0
Heartbeat CPU 0 instructions: 310000000 cycles: 995479903 heartbeat IPC: 0.121322 cumulative IPC: 0.120167 (Simulation time: 159 hr 3 min 13 sec) 
 Total Blocks : 262144 Invalid Blocks : 0
Heartbeat CPU 6 instructions: 310000000 cycles: 995728619 heartbeat IPC: 0.121239 cumulative IPC: 0.120134 (Simulation time: 159 hr 4 min 9 sec) 
 Total Blocks : 262144 Invalid Blocks : 0
Heartbeat CPU 7 instructions: 310000000 cycles: 996319213 heartbeat IPC: 0.121274 cumulative IPC: 0.120055 (Simulation time: 159 hr 6 min 15 sec) 
 Total Blocks : 262144 Invalid Blocks : 0
Heartbeat CPU 4 instructions: 310000000 cycles: 996400750 heartbeat IPC: 0.121317 cumulative IPC: 0.120046 (Simulation time: 159 hr 6 min 35 sec) 
 Total Blocks : 262144 Invalid Blocks : 0
Heartbeat CPU 2 instructions: 310000000 cycles: 998182614 heartbeat IPC: 0.121054 cumulative IPC: 0.119814 (Simulation time: 159 hr 13 min 1 sec) 
 Total Blocks : 262144 Invalid Blocks : 0
Heartbeat CPU 3 instructions: 310000000 cycles: 998300177 heartbeat IPC: 0.121496 cumulative IPC: 0.119794 (Simulation time: 159 hr 13 min 25 sec) 
 Total Blocks : 262144 Invalid Blocks : 0
Heartbeat CPU 5 instructions: 310000000 cycles: 998663426 heartbeat IPC: 0.120794 cumulative IPC: 0.119749 (Simulation time: 159 hr 14 min 39 sec) 
 Total Blocks : 262144 Invalid Blocks : 0
Heartbeat CPU 1 instructions: 310000000 cycles: 999304588 heartbeat IPC: 0.120303 cumulative IPC: 0.119667 (Simulation time: 159 hr 16 min 55 sec) 
 Total Blocks : 262144 Invalid Blocks : 0
Heartbeat CPU 0 instructions: 320000001 cycles: 1078104784 heartbeat IPC: 0.121029 cumulative IPC: 0.120238 (Simulation time: 163 hr 44 min 50 sec) 
 Total Blocks : 262144 Invalid Blocks : 0
Heartbeat CPU 6 instructions: 320000001 cycles: 1078534687 heartbeat IPC: 0.120764 cumulative IPC: 0.120186 (Simulation time: 163 hr 46 min 17 sec) 
 Total Blocks : 262144 Invalid Blocks : 0
Heartbeat CPU 4 instructions: 320000001 cycles: 1078914139 heartbeat IPC: 0.121192 cumulative IPC: 0.120141 (Simulation time: 163 hr 47 min 33 sec) 
 Total Blocks : 262144 Invalid Blocks : 0
Heartbeat CPU 7 instructions: 320000002 cycles: 1079025509 heartbeat IPC: 0.12091 cumulative IPC: 0.120126 (Simulation time: 163 hr 47 min 58 sec) 
 Total Blocks : 262144 Invalid Blocks : 0
Heartbeat CPU 3 instructions: 320000001 cycles: 1081003606 heartbeat IPC: 0.120914 cumulative IPC: 0.119886 (Simulation time: 163 hr 54 min 40 sec) 
 Total Blocks : 262144 Invalid Blocks : 0
Heartbeat CPU 2 instructions: 320000001 cycles: 1081178911 heartbeat IPC: 0.120487 cumulative IPC: 0.11987 (Simulation time: 163 hr 55 min 15 sec) 
 Total Blocks : 262144 Invalid Blocks : 0
Heartbeat CPU 5 instructions: 320000001 cycles: 1082133201 heartbeat IPC: 0.119804 cumulative IPC: 0.119754 (Simulation time: 163 hr 58 min 29 sec) 
 Total Blocks : 262144 Invalid Blocks : 0
Heartbeat CPU 1 instructions: 320000002 cycles: 1082853489 heartbeat IPC: 0.11969 cumulative IPC: 0.119669 (Simulation time: 164 hr 0 min 55 sec) 
 Total Blocks : 262144 Invalid Blocks : 0
Heartbeat CPU 0 instructions: 330000000 cycles: 1160154984 heartbeat IPC: 0.121877 cumulative IPC: 0.120363 (Simulation time: 168 hr 21 min 42 sec) 
 Total Blocks : 262144 Invalid Blocks : 0
Heartbeat CPU 6 instructions: 330000000 cycles: 1161069783 heartbeat IPC: 0.121161 cumulative IPC: 0.120261 (Simulation time: 168 hr 24 min 48 sec) 
 Total Blocks : 262144 Invalid Blocks : 0
Heartbeat CPU 7 instructions: 330000000 cycles: 1161200650 heartbeat IPC: 0.121691 cumulative IPC: 0.120245 (Simulation time: 168 hr 25 min 15 sec) 
 Total Blocks : 262144 Invalid Blocks : 0
Heartbeat CPU 4 instructions: 330000000 cycles: 1161209718 heartbeat IPC: 0.121513 cumulative IPC: 0.120245 (Simulation time: 168 hr 25 min 18 sec) 
 Total Blocks : 262144 Invalid Blocks : 0
Heartbeat CPU 3 instructions: 330000000 cycles: 1163428343 heartbeat IPC: 0.121323 cumulative IPC: 0.119996 (Simulation time: 168 hr 32 min 48 sec) 
 Total Blocks : 262144 Invalid Blocks : 0
Heartbeat CPU 2 instructions: 330000000 cycles: 1163944700 heartbeat IPC: 0.120823 cumulative IPC: 0.119942 (Simulation time: 168 hr 34 min 32 sec) 
 Total Blocks : 262144 Invalid Blocks : 0
Heartbeat CPU 5 instructions: 330000000 cycles: 1164718701 heartbeat IPC: 0.121087 cumulative IPC: 0.119855 (Simulation time: 168 hr 37 min 11 sec) 
 Total Blocks : 262144 Invalid Blocks : 0
Heartbeat CPU 1 instructions: 330000000 cycles: 1165566807 heartbeat IPC: 0.120899 cumulative IPC: 0.119763 (Simulation time: 168 hr 40 min 0 sec) 
 Total Blocks : 262144 Invalid Blocks : 0
Heartbeat CPU 0 instructions: 340000001 cycles: 1240953588 heartbeat IPC: 0.123765 cumulative IPC: 0.1206 (Simulation time: 173 hr 0 min 1 sec) 
 Total Blocks : 262144 Invalid Blocks : 0
Heartbeat CPU 6 instructions: 340000001 cycles: 1241855634 heartbeat IPC: 0.123784 cumulative IPC: 0.120506 (Simulation time: 173 hr 3 min 9 sec) 
 Total Blocks : 262144 Invalid Blocks : 0
Heartbeat CPU 4 instructions: 340000001 cycles: 1242228921 heartbeat IPC: 0.123428 cumulative IPC: 0.120467 (Simulation time: 173 hr 4 min 28 sec) 
 Total Blocks : 262144 Invalid Blocks : 0
Heartbeat CPU 7 instructions: 340000001 cycles: 1242348478 heartbeat IPC: 0.123232 cumulative IPC: 0.120454 (Simulation time: 173 hr 4 min 52 sec) 
 Total Blocks : 262144 Invalid Blocks : 0
Heartbeat CPU 3 instructions: 340000001 cycles: 1244315315 heartbeat IPC: 0.123629 cumulative IPC: 0.120248 (Simulation time: 173 hr 11 min 46 sec) 
 Total Blocks : 262144 Invalid Blocks : 0
Heartbeat CPU 2 instructions: 340000001 cycles: 1245226197 heartbeat IPC: 0.123029 cumulative IPC: 0.120158 (Simulation time: 173 hr 14 min 55 sec) 
 Total Blocks : 262144 Invalid Blocks : 0
Heartbeat CPU 5 instructions: 340000001 cycles: 1245641728 heartbeat IPC: 0.123574 cumulative IPC: 0.120113 (Simulation time: 173 hr 16 min 21 sec) 
 Total Blocks : 262144 Invalid Blocks : 0
Heartbeat CPU 1 instructions: 340000001 cycles: 1246581842 heartbeat IPC: 0.123434 cumulative IPC: 0.120018 (Simulation time: 173 hr 19 min 37 sec) 
 Total Blocks : 262144 Invalid Blocks : 0
Heartbeat CPU 0 instructions: 350000001 cycles: 1320458898 heartbeat IPC: 0.125778 cumulative IPC: 0.120932 (Simulation time: 177 hr 41 min 15 sec) 
 Total Blocks : 262144 Invalid Blocks : 0
Heartbeat CPU 6 instructions: 350000000 cycles: 1321433624 heartbeat IPC: 0.125663 cumulative IPC: 0.120836 (Simulation time: 177 hr 44 min 42 sec) 
 Total Blocks : 262144 Invalid Blocks : 0
Heartbeat CPU 7 instructions: 350000001 cycles: 1321932500 heartbeat IPC: 0.125653 cumulative IPC: 0.120787 (Simulation time: 177 hr 46 min 30 sec) 
 Total Blocks : 262144 Invalid Blocks : 0
Heartbeat CPU 4 instructions: 350000000 cycles: 1321979570 heartbeat IPC: 0.125391 cumulative IPC: 0.120783 (Simulation time: 177 hr 46 min 40 sec) 
 Total Blocks : 262144 Invalid Blocks : 0
Heartbeat CPU 3 instructions: 350000001 cycles: 1323900273 heartbeat IPC: 0.125652 cumulative IPC: 0.120594 (Simulation time: 177 hr 53 min 33 sec) 
 Total Blocks : 262144 Invalid Blocks : 0
Heartbeat CPU 5 instructions: 350000000 cycles: 1325148477 heartbeat IPC: 0.125775 cumulative IPC: 0.120475 (Simulation time: 177 hr 57 min 56 sec) 
 Total Blocks : 262144 Invalid Blocks : 0
Heartbeat CPU 2 instructions: 350000000 cycles: 1325407422 heartbeat IPC: 0.124717 cumulative IPC: 0.120451 (Simulation time: 177 hr 58 min 53 sec) 
 Total Blocks : 262144 Invalid Blocks : 0
Heartbeat CPU 1 instructions: 350000000 cycles: 1326296231 heartbeat IPC: 0.125448 cumulative IPC: 0.120365 (Simulation time: 178 hr 2 min 5 sec) 
 Total Blocks : 262144 Invalid Blocks : 0
Heartbeat CPU 0 instructions: 360000001 cycles: 1402405186 heartbeat IPC: 0.122031 cumulative IPC: 0.121 (Simulation time: 182 hr 39 min 13 sec) 
 Total Blocks : 262144 Invalid Blocks : 0
Heartbeat CPU 6 instructions: 360000001 cycles: 1402893649 heartbeat IPC: 0.12276 cumulative IPC: 0.120955 (Simulation time: 182 hr 41 min 0 sec) 
 Total Blocks : 262144 Invalid Blocks : 0
Heartbeat CPU 4 instructions: 360000001 cycles: 1403443726 heartbeat IPC: 0.122753 cumulative IPC: 0.120905 (Simulation time: 182 hr 43 min 1 sec) 
 Total Blocks : 262144 Invalid Blocks : 0
Heartbeat CPU 7 instructions: 360000003 cycles: 1403573237 heartbeat IPC: 0.122488 cumulative IPC: 0.120892 (Simulation time: 182 hr 43 min 29 sec) 
 Total Blocks : 262144 Invalid Blocks : 0
Heartbeat CPU 3 instructions: 360000003 cycles: 1405780535 heartbeat IPC: 0.12213 cumulative IPC: 0.120689 (Simulation time: 182 hr 51 min 37 sec) 
 Total Blocks : 262144 Invalid Blocks : 0
Heartbeat CPU 5 instructions: 360000001 cycles: 1406722855 heartbeat IPC: 0.122588 cumulative IPC: 0.120605 (Simulation time: 182 hr 55 min 4 sec) 
 Total Blocks : 262144 Invalid Blocks : 0
Heartbeat CPU 2 instructions: 360000001 cycles: 1407988240 heartbeat IPC: 0.121094 cumulative IPC: 0.120491 (Simulation time: 182 hr 59 min 46 sec) 
 Total Blocks : 262144 Invalid Blocks : 0
Heartbeat CPU 1 instructions: 360000001 cycles: 1408730956 heartbeat IPC: 0.121308 cumulative IPC: 0.120424 (Simulation time: 183 hr 2 min 28 sec) 
 Total Blocks : 262144 Invalid Blocks : 0
Heartbeat CPU 0 instructions: 370000001 cycles: 1482846443 heartbeat IPC: 0.124314 cumulative IPC: 0.12119 (Simulation time: 187 hr 39 min 17 sec) 
 Total Blocks : 262144 Invalid Blocks : 0
Heartbeat CPU 6 instructions: 370000002 cycles: 1482914973 heartbeat IPC: 0.124967 cumulative IPC: 0.121184 (Simulation time: 187 hr 39 min 32 sec) 
 Total Blocks : 262144 Invalid Blocks : 0
Heartbeat CPU 4 instructions: 370000001 cycles: 1483536824 heartbeat IPC: 0.124855 cumulative IPC: 0.12113 (Simulation time: 187 hr 41 min 53 sec) 
 Total Blocks : 262144 Invalid Blocks : 0
Heartbeat CPU 7 instructions: 370000001 cycles: 1484020972 heartbeat IPC: 0.124304 cumulative IPC: 0.121087 (Simulation time: 187 hr 43 min 42 sec) 
 Total Blocks : 262144 Invalid Blocks : 0
Heartbeat CPU 3 instructions: 370000001 cycles: 1486440035 heartbeat IPC: 0.123978 cumulative IPC: 0.120877 (Simulation time: 187 hr 52 min 45 sec) 
 Total Blocks : 262144 Invalid Blocks : 0
Heartbeat CPU 5 instructions: 370000001 cycles: 1486778381 heartbeat IPC: 0.124913 cumulative IPC: 0.12085 (Simulation time: 187 hr 54 min 0 sec) 
 Total Blocks : 262144 Invalid Blocks : 0
Heartbeat CPU 2 instructions: 370000001 cycles: 1488265345 heartbeat IPC: 0.124569 cumulative IPC: 0.120724 (Simulation time: 187 hr 59 min 41 sec) 
 Total Blocks : 262144 Invalid Blocks : 0
Heartbeat CPU 1 instructions: 370000001 cycles: 1488971532 heartbeat IPC: 0.124625 cumulative IPC: 0.120663 (Simulation time: 188 hr 2 min 22 sec) 
 Total Blocks : 262144 Invalid Blocks : 0
Heartbeat CPU 0 instructions: 380000001 cycles: 1563591637 heartbeat IPC: 0.123846 cumulative IPC: 0.121334 (Simulation time: 192 hr 46 min 39 sec) 
 Total Blocks : 262144 Invalid Blocks : 0
Heartbeat CPU 6 instructions: 380000003 cycles: 1563903027 heartbeat IPC: 0.123475 cumulative IPC: 0.121309 (Simulation time: 192 hr 47 min 49 sec) 
 Total Blocks : 262144 Invalid Blocks : 0
Heartbeat CPU 4 instructions: 380000001 cycles: 1564429803 heartbeat IPC: 0.12362 cumulative IPC: 0.121266 (Simulation time: 192 hr 49 min 51 sec) 
 Total Blocks : 262144 Invalid Blocks : 0
Heartbeat CPU 7 instructions: 380000003 cycles: 1565367072 heartbeat IPC: 0.122932 cumulative IPC: 0.121188 (Simulation time: 192 hr 53 min 26 sec) 
 Total Blocks : 262144 Invalid Blocks : 0
Heartbeat CPU 3 instructions: 380000001 cycles: 1567507579 heartbeat IPC: 0.123354 cumulative IPC: 0.121012 (Simulation time: 193 hr 1 min 43 sec) 
 Total Blocks : 262144 Invalid Blocks : 0
Heartbeat CPU 5 instructions: 380000003 cycles: 1567636435 heartbeat IPC: 0.123674 cumulative IPC: 0.121003 (Simulation time: 193 hr 2 min 11 sec) 
 Total Blocks : 262144 Invalid Blocks : 0
Heartbeat CPU 2 instructions: 380000001 cycles: 1569890545 heartbeat IPC: 0.122511 cumulative IPC: 0.120822 (Simulation time: 193 hr 10 min 52 sec) 
 Total Blocks : 262144 Invalid Blocks : 0
Heartbeat CPU 1 instructions: 380000003 cycles: 1570169350 heartbeat IPC: 0.123156 cumulative IPC: 0.120799 (Simulation time: 193 hr 11 min 56 sec) 
 Total Blocks : 262144 Invalid Blocks : 0
Heartbeat CPU 0 instructions: 390000002 cycles: 1644431985 heartbeat IPC: 0.123701 cumulative IPC: 0.121457 (Simulation time: 198 hr 2 min 58 sec) 
 Total Blocks : 262144 Invalid Blocks : 0
Heartbeat CPU 6 instructions: 390000000 cycles: 1645242751 heartbeat IPC: 0.122941 cumulative IPC: 0.121394 (Simulation time: 198 hr 6 min 9 sec) 
 Total Blocks : 262144 Invalid Blocks : 0
Heartbeat CPU 4 instructions: 390000000 cycles: 1645333330 heartbeat IPC: 0.123604 cumulative IPC: 0.121387 (Simulation time: 198 hr 6 min 30 sec) 
 Total Blocks : 262144 Invalid Blocks : 0
Heartbeat CPU 7 instructions: 390000000 cycles: 1646747299 heartbeat IPC: 0.12288 cumulative IPC: 0.121276 (Simulation time: 198 hr 12 min 7 sec) 
 Total Blocks : 262144 Invalid Blocks : 0
Heartbeat CPU 5 instructions: 390000000 cycles: 1648481078 heartbeat IPC: 0.123694 cumulative IPC: 0.121142 (Simulation time: 198 hr 18 min 57 sec) 
 Total Blocks : 262144 Invalid Blocks : 0
Heartbeat CPU 3 instructions: 390000000 cycles: 1648929720 heartbeat IPC: 0.122817 cumulative IPC: 0.121106 (Simulation time: 198 hr 20 min 42 sec) 
 Total Blocks : 262144 Invalid Blocks : 0
Heartbeat CPU 2 instructions: 390000000 cycles: 1650696946 heartbeat IPC: 0.123753 cumulative IPC: 0.120972 (Simulation time: 198 hr 27 min 40 sec) 
 Total Blocks : 262144 Invalid Blocks : 0
Heartbeat CPU 1 instructions: 390000000 cycles: 1651697324 heartbeat IPC: 0.122657 cumulative IPC: 0.120895 (Simulation time: 198 hr 31 min 37 sec) 
 Total Blocks : 262144 Invalid Blocks : 0
Heartbeat CPU 0 instructions: 400000000 cycles: 1723858615 heartbeat IPC: 0.125902 cumulative IPC: 0.121671 (Simulation time: 203 hr 20 min 57 sec) 
 Total Blocks : 262144 Invalid Blocks : 0
Finished CPU 0 instructions: 200000001 cycles: 1643767676 cumulative IPC: 0.121672 (Simulation time: 203 hr 20 min 57 sec) 
Heartbeat CPU 4 instructions: 400000000 cycles: 1724533918 heartbeat IPC: 0.126262 cumulative IPC: 0.121621 (Simulation time: 203 hr 23 min 43 sec) 
 Total Blocks : 262144 Invalid Blocks : 0
Finished CPU 4 instructions: 200000002 cycles: 1644442419 cumulative IPC: 0.121622 (Simulation time: 203 hr 23 min 43 sec) 
Heartbeat CPU 6 instructions: 400000000 cycles: 1724817611 heartbeat IPC: 0.125668 cumulative IPC: 0.1216 (Simulation time: 203 hr 24 min 52 sec) 
 Total Blocks : 262144 Invalid Blocks : 0
Finished CPU 6 instructions: 200000003 cycles: 1644726179 cumulative IPC: 0.121601 (Simulation time: 203 hr 24 min 52 sec) 
Heartbeat CPU 7 instructions: 400000000 cycles: 1725904655 heartbeat IPC: 0.126331 cumulative IPC: 0.121519 (Simulation time: 203 hr 29 min 15 sec) 
 Total Blocks : 262144 Invalid Blocks : 0
Finished CPU 7 instructions: 200000002 cycles: 1645839246 cumulative IPC: 0.121519 (Simulation time: 203 hr 29 min 22 sec) 
Heartbeat CPU 5 instructions: 400000000 cycles: 1727826047 heartbeat IPC: 0.126032 cumulative IPC: 0.121378 (Simulation time: 203 hr 37 min 9 sec) 
 Total Blocks : 262144 Invalid Blocks : 0
Finished CPU 5 instructions: 200000003 cycles: 1647756166 cumulative IPC: 0.121377 (Simulation time: 203 hr 37 min 14 sec) 
Heartbeat CPU 3 instructions: 400000001 cycles: 1728173585 heartbeat IPC: 0.126193 cumulative IPC: 0.121351 (Simulation time: 203 hr 38 min 33 sec) 
 Total Blocks : 262144 Invalid Blocks : 0
Finished CPU 3 instructions: 200000003 cycles: 1648138240 cumulative IPC: 0.121349 (Simulation time: 203 hr 38 min 46 sec) 
Heartbeat CPU 2 instructions: 400000001 cycles: 1729903209 heartbeat IPC: 0.126253 cumulative IPC: 0.121226 (Simulation time: 203 hr 45 min 33 sec) 
 Total Blocks : 262144 Invalid Blocks : 0
Finished CPU 2 instructions: 200000000 cycles: 1649811377 cumulative IPC: 0.121226 (Simulation time: 203 hr 45 min 33 sec) 
Heartbeat CPU 1 instructions: 400000000 cycles: 1731131717 heartbeat IPC: 0.12589 cumulative IPC: 0.121136 (Simulation time: 203 hr 50 min 31 sec) 
 Total Blocks : 262144 Invalid Blocks : 0
Finished CPU 1 instructions: 200000003 cycles: 1651040097 cumulative IPC: 0.121136 (Simulation time: 203 hr 50 min 31 sec) 

CPU 0 Branch Prediction Accuracy: 94.9863% MPKI: 0.896655 Average ROB Occupancy at Mispredict: 273.085

CPU 1 Branch Prediction Accuracy: 94.9847% MPKI: 0.896903 Average ROB Occupancy at Mispredict: 273.086

CPU 2 Branch Prediction Accuracy: 94.9847% MPKI: 0.896901 Average ROB Occupancy at Mispredict: 273.058

CPU 3 Branch Prediction Accuracy: 94.9851% MPKI: 0.896667 Average ROB Occupancy at Mispredict: 273.064

CPU 4 Branch Prediction Accuracy: 94.9861% MPKI: 0.896627 Average ROB Occupancy at Mispredict: 273.046

CPU 5 Branch Prediction Accuracy: 94.9852% MPKI: 0.896648 Average ROB Occupancy at Mispredict: 273.048

CPU 6 Branch Prediction Accuracy: 94.9861% MPKI: 0.896616 Average ROB Occupancy at Mispredict: 273.069

CPU 7 Branch Prediction Accuracy: 94.9855% MPKI: 0.896667 Average ROB Occupancy at Mispredict: 273.054

ChampSim completed all CPUs

Total Simulation Statistics (not including warmup)

CPU 0 cumulative IPC: 0.121672 instructions: 200885043 cycles: 1651040097
ITLB TOTAL     ACCESS: 30832564  HIT: 30832564  MISS:     0  HIT %:   100  MISS %:     0  AVERAGE MISS PENALTY: 0
ITLB LOAD      ACCESS: 30832564  HIT: 30832564  MISS:     0  HIT %:   100  MISS %:     0  AVERAGE MISS PENALTY: 0
ITLB RFO       ACCESS:     0  HIT:     0  MISS:     0  HIT %:     0  MISS %:     0  AVERAGE MISS PENALTY: 0
ITLB PREFETCH  ACCESS:     0  HIT:     0  MISS:     0  HIT %:     0  MISS %:     0  AVERAGE MISS PENALTY: 0
ITLB WRITEBACK ACCESS:     0  HIT:     0  MISS:     0  HIT %:     0  MISS %:     0  AVERAGE MISS PENALTY: 0

DTLB TOTAL     ACCESS: 40420286  HIT: 40146427  MISS: 273859  HIT %: 99.3225  MISS %: 0.677529  AVERAGE MISS PENALTY: 87.2042
DTLB LOAD      ACCESS: 19551258  HIT: 19514096  MISS: 37162  HIT %: 99.8099  MISS %: 0.190075  AVERAGE MISS PENALTY: 109
DTLB RFO       ACCESS: 20869028  HIT: 20632331  MISS: 236697  HIT %: 98.8658  MISS %: 1.1342  AVERAGE MISS PENALTY: 83.7823
DTLB PREFETCH  ACCESS:     0  HIT:     0  MISS:     0  HIT %:     0  MISS %:     0  AVERAGE MISS PENALTY: 0
DTLB WRITEBACK ACCESS:     0  HIT:     0  MISS:     0  HIT %:     0  MISS %:     0  AVERAGE MISS PENALTY: 0

STLB TOTAL     ACCESS: 273859  HIT: 125261  MISS: 148598  HIT %: 45.7392  MISS %: 54.2608  AVERAGE MISS PENALTY: 100
STLB LOAD      ACCESS: 37162  HIT:     1  MISS: 37161  HIT %: 0.00269092  MISS %: 99.9973  AVERAGE MISS PENALTY: 100
STLB RFO       ACCESS: 236697  HIT: 125260  MISS: 111437  HIT %: 52.92  MISS %: 47.08  AVERAGE MISS PENALTY: 100
STLB PREFETCH  ACCESS:     0  HIT:     0  MISS:     0  HIT %:     0  MISS %:     0  AVERAGE MISS PENALTY: 0
STLB WRITEBACK ACCESS:     0  HIT:     0  MISS:     0  HIT %:     0  MISS %:     0  AVERAGE MISS PENALTY: 0

L1D TOTAL     ACCESS: 58908774  HIT: 43209631  MISS: 15699143  HIT %: 73.3501  MISS %: 26.6499  AVERAGE MISS PENALTY: 3.47393e+07
L1D LOAD      ACCESS: 16595721  HIT: 15047265  MISS: 1548456  HIT %: 90.6695  MISS %: 9.33045  AVERAGE MISS PENALTY: 3.52194e+08
L1D RFO       ACCESS: 34788197  HIT: 21477655  MISS: 13310542  HIT %: 61.7383  MISS %: 38.2617  AVERAGE MISS PENALTY: 1460.95
L1D PREFETCH  ACCESS: 7524856  HIT: 6684711  MISS: 840145  HIT %: 88.8351  MISS %: 11.1649  AVERAGE MISS PENALTY: 1188.2
L1D WRITEBACK ACCESS:     0  HIT:     0  MISS:     0  HIT %:     0  MISS %:     0  AVERAGE MISS PENALTY: 0

L1I TOTAL     ACCESS: 42546010  HIT: 42546010  MISS:     0  HIT %:   100  MISS %:     0  AVERAGE MISS PENALTY: 0
L1I LOAD      ACCESS: 42546010  HIT: 42546010  MISS:     0  HIT %:   100  MISS %:     0  AVERAGE MISS PENALTY: 0
L1I RFO       ACCESS:     0  HIT:     0  MISS:     0  HIT %:     0  MISS %:     0  AVERAGE MISS PENALTY: 0
L1I PREFETCH  ACCESS:     0  HIT:     0  MISS:     0  HIT %:     0  MISS %:     0  AVERAGE MISS PENALTY: 0
L1I WRITEBACK ACCESS:     0  HIT:     0  MISS:     0  HIT %:     0  MISS %:     0  AVERAGE MISS PENALTY: 0

L2C TOTAL     ACCESS: 29819184  HIT: 19385012  MISS: 10434172  HIT %: 65.0085  MISS %: 34.9915  AVERAGE MISS PENALTY: 8.72188e+07
L2C LOAD      ACCESS: 1540152  HIT: 263357  MISS: 1276795  HIT %: 17.0994  MISS %: 82.9006  AVERAGE MISS PENALTY: 7.12749e+08
L2C RFO       ACCESS: 13310532  HIT: 5255567  MISS: 8054965  HIT %: 39.4843  MISS %: 60.5157  AVERAGE MISS PENALTY: 2332.7
L2C PREFETCH  ACCESS: 1657944  HIT: 556285  MISS: 1101659  HIT %: 33.5527  MISS %: 66.4473  AVERAGE MISS PENALTY: 1933.31
L2C WRITEBACK ACCESS: 13310556  HIT: 13309803  MISS:   753  HIT %: 99.9943  MISS %: 0.00565716  AVERAGE MISS PENALTY: 0


LLC0 TOTAL     ACCESS: 2310369  HIT: 911757  MISS: 1398612  HIT %: 39.4637  MISS %: 60.5363  AVERAGE MISS PENALTY: 2078.28
LLC0 LOAD      ACCESS: 65124  HIT:     0  MISS: 65124  HIT %:     0  MISS %:   100  AVERAGE MISS PENALTY: 2180.93
LLC0 RFO       ACCESS: 1006445  HIT: 112371  MISS: 894074  HIT %: 11.1651  MISS %: 88.8349  AVERAGE MISS PENALTY: 2497.58
LLC0 PREFETCH  ACCESS: 231976  HIT:     1  MISS: 231975  HIT %: 0.000431079  MISS %: 99.9996  AVERAGE MISS PENALTY: 2291.86
LLC0 WRITEBACK ACCESS: 1006824  HIT: 799385  MISS: 207439  HIT %: 79.3967  MISS %: 20.6033  AVERAGE MISS PENALTY: 0

LLC1 TOTAL     ACCESS: 2310632  HIT: 911183  MISS: 1399449  HIT %: 39.4344  MISS %: 60.5656  AVERAGE MISS PENALTY: 2080.44
LLC1 LOAD      ACCESS: 49626  HIT:    24  MISS: 49602  HIT %: 0.0483617  MISS %: 99.9516  AVERAGE MISS PENALTY: 2177.45
LLC1 RFO       ACCESS: 1006515  HIT: 112543  MISS: 893972  HIT %: 11.1815  MISS %: 88.8185  AVERAGE MISS PENALTY: 2500.85
LLC1 PREFETCH  ACCESS: 247582  HIT:     0  MISS: 247582  HIT %:     0  MISS %:   100  AVERAGE MISS PENALTY: 2293.26
LLC1 WRITEBACK ACCESS: 1006909  HIT: 798616  MISS: 208293  HIT %: 79.3136  MISS %: 20.6864  AVERAGE MISS PENALTY: 0

LLC2 TOTAL     ACCESS: 2310594  HIT: 917291  MISS: 1393303  HIT %: 39.6994  MISS %: 60.3006  AVERAGE MISS PENALTY: 2061.08
LLC2 LOAD      ACCESS: 39779  HIT:    27  MISS: 39752  HIT %: 0.067875  MISS %: 99.9321  AVERAGE MISS PENALTY: 2167.13
LLC2 RFO       ACCESS: 1006506  HIT: 112869  MISS: 893637  HIT %: 11.2139  MISS %: 88.7861  AVERAGE MISS PENALTY: 2436.8
LLC2 PREFETCH  ACCESS: 257424  HIT:     0  MISS: 257424  HIT %:     0  MISS %:   100  AVERAGE MISS PENALTY: 2361.64
LLC2 WRITEBACK ACCESS: 1006885  HIT: 804395  MISS: 202490  HIT %: 79.8895  MISS %: 20.1105  AVERAGE MISS PENALTY: 0

LLC3 TOTAL     ACCESS: 2310737  HIT: 922523  MISS: 1388214  HIT %: 39.9233  MISS %: 60.0767  AVERAGE MISS PENALTY: 2073.75
LLC3 LOAD      ACCESS: 39534  HIT:    20  MISS: 39514  HIT %: 0.0505894  MISS %: 99.9494  AVERAGE MISS PENALTY: 2187.8
LLC3 RFO       ACCESS: 1006552  HIT: 113023  MISS: 893529  HIT %: 11.2287  MISS %: 88.7713  AVERAGE MISS PENALTY: 2442.8
LLC3 PREFETCH  ACCESS: 257685  HIT:     8  MISS: 257677  HIT %: 0.00310457  MISS %: 99.9969  AVERAGE MISS PENALTY: 2365.96
LLC3 WRITEBACK ACCESS: 1006966  HIT: 809472  MISS: 197494  HIT %: 80.3872  MISS %: 19.6128  AVERAGE MISS PENALTY: 0

LLC4 TOTAL     ACCESS: 2312420  HIT: 923967  MISS: 1388453  HIT %: 39.9567  MISS %: 60.0433  AVERAGE MISS PENALTY: 2164.4
LLC4 LOAD      ACCESS: 38092  HIT:     0  MISS: 38092  HIT %:     0  MISS %:   100  AVERAGE MISS PENALTY: 2184.11
LLC4 RFO       ACCESS: 1007165  HIT: 113617  MISS: 893548  HIT %: 11.2809  MISS %: 88.7191  AVERAGE MISS PENALTY: 2515.65
LLC4 PREFETCH  ACCESS: 259669  HIT:   381  MISS: 259288  HIT %: 0.146725  MISS %: 99.8533  AVERAGE MISS PENALTY: 2599.86
LLC4 WRITEBACK ACCESS: 1007494  HIT: 809969  MISS: 197525  HIT %: 80.3944  MISS %: 19.6056  AVERAGE MISS PENALTY: 0

LLC5 TOTAL     ACCESS: 2312236  HIT: 927752  MISS: 1384484  HIT %: 40.1236  MISS %: 59.8764  AVERAGE MISS PENALTY: 2109.28
LLC5 LOAD      ACCESS: 38249  HIT:     0  MISS: 38249  HIT %:     0  MISS %:   100  AVERAGE MISS PENALTY: 2168.19
LLC5 RFO       ACCESS: 1007067  HIT: 113525  MISS: 893542  HIT %: 11.2728  MISS %: 88.7272  AVERAGE MISS PENALTY: 2510.64
LLC5 PREFETCH  ACCESS: 259516  HIT:   362  MISS: 259154  HIT %: 0.13949  MISS %: 99.8605  AVERAGE MISS PENALTY: 2291.98
LLC5 WRITEBACK ACCESS: 1007404  HIT: 813865  MISS: 193539  HIT %: 80.7883  MISS %: 19.2117  AVERAGE MISS PENALTY: 0

LLC6 TOTAL     ACCESS: 2310604  HIT: 925219  MISS: 1385385  HIT %: 40.0423  MISS %: 59.9577  AVERAGE MISS PENALTY: 2077.69
LLC6 LOAD      ACCESS: 38960  HIT:     0  MISS: 38960  HIT %:     0  MISS %:   100  AVERAGE MISS PENALTY: 2202.75
LLC6 RFO       ACCESS: 1006541  HIT: 112997  MISS: 893544  HIT %: 11.2263  MISS %: 88.7737  AVERAGE MISS PENALTY: 2446.78
LLC6 PREFETCH  ACCESS: 258139  HIT:     0  MISS: 258139  HIT %:     0  MISS %:   100  AVERAGE MISS PENALTY: 2348.64
LLC6 WRITEBACK ACCESS: 1006964  HIT: 812222  MISS: 194742  HIT %: 80.6605  MISS %: 19.3395  AVERAGE MISS PENALTY: 0

LLC7 TOTAL     ACCESS: 2310418  HIT: 924723  MISS: 1385695  HIT %: 40.0241  MISS %: 59.9759  AVERAGE MISS PENALTY: 2074.82
LLC7 LOAD      ACCESS: 38833  HIT:     0  MISS: 38833  HIT %:     0  MISS %:   100  AVERAGE MISS PENALTY: 2201.51
LLC7 RFO       ACCESS: 1006461  HIT: 113014  MISS: 893447  HIT %: 11.2289  MISS %: 88.7711  AVERAGE MISS PENALTY: 2445.18
LLC7 PREFETCH  ACCESS: 258266  HIT:     0  MISS: 258266  HIT %:     0  MISS %:   100  AVERAGE MISS PENALTY: 2342.32
LLC7 WRITEBACK ACCESS: 1006858  HIT: 811709  MISS: 195149  HIT %: 80.618  MISS %: 19.382  AVERAGE MISS PENALTY: 0

Total Rob stall cycles : 	1578557485
Total Load Rob Stall cycles : 	1514482697
Average Rob Stall cycles : 	 124
Average Load Rob Stall cycles : 	 809

CPU 1 cumulative IPC: 0.121136 instructions: 200000003 cycles: 1651040097
ITLB TOTAL     ACCESS: 30691980  HIT: 30691980  MISS:     0  HIT %:   100  MISS %:     0  AVERAGE MISS PENALTY: 0
ITLB LOAD      ACCESS: 30691980  HIT: 30691980  MISS:     0  HIT %:   100  MISS %:     0  AVERAGE MISS PENALTY: 0
ITLB RFO       ACCESS:     0  HIT:     0  MISS:     0  HIT %:     0  MISS %:     0  AVERAGE MISS PENALTY: 0
ITLB PREFETCH  ACCESS:     0  HIT:     0  MISS:     0  HIT %:     0  MISS %:     0  AVERAGE MISS PENALTY: 0
ITLB WRITEBACK ACCESS:     0  HIT:     0  MISS:     0  HIT %:     0  MISS %:     0  AVERAGE MISS PENALTY: 0

DTLB TOTAL     ACCESS: 40239897  HIT: 39967268  MISS: 272629  HIT %: 99.3225  MISS %: 0.677509  AVERAGE MISS PENALTY: 87.2591
DTLB LOAD      ACCESS: 19463480  HIT: 19426484  MISS: 36996  HIT %: 99.8099  MISS %: 0.190079  AVERAGE MISS PENALTY: 109
DTLB RFO       ACCESS: 20776417  HIT: 20540784  MISS: 235633  HIT %: 98.8659  MISS %: 1.13414  AVERAGE MISS PENALTY: 83.8456
DTLB PREFETCH  ACCESS:     0  HIT:     0  MISS:     0  HIT %:     0  MISS %:     0  AVERAGE MISS PENALTY: 0
DTLB WRITEBACK ACCESS:     0  HIT:     0  MISS:     0  HIT %:     0  MISS %:     0  AVERAGE MISS PENALTY: 0

STLB TOTAL     ACCESS: 272629  HIT: 124697  MISS: 147932  HIT %: 45.7387  MISS %: 54.2613  AVERAGE MISS PENALTY: 100
STLB LOAD      ACCESS: 36996  HIT:     1  MISS: 36995  HIT %: 0.00270299  MISS %: 99.9973  AVERAGE MISS PENALTY: 100
STLB RFO       ACCESS: 235633  HIT: 124696  MISS: 110937  HIT %: 52.9196  MISS %: 47.0804  AVERAGE MISS PENALTY: 100
STLB PREFETCH  ACCESS:     0  HIT:     0  MISS:     0  HIT %:     0  MISS %:     0  AVERAGE MISS PENALTY: 0
STLB WRITEBACK ACCESS:     0  HIT:     0  MISS:     0  HIT %:     0  MISS %:     0  AVERAGE MISS PENALTY: 0

L1D TOTAL     ACCESS: 58640518  HIT: 43011695  MISS: 15628823  HIT %: 73.3481  MISS %: 26.6519  AVERAGE MISS PENALTY: 3.45449e+07
L1D LOAD      ACCESS: 16522942  HIT: 14982422  MISS: 1540520  HIT %: 90.6765  MISS %: 9.32352  AVERAGE MISS PENALTY: 3.5045e+08
L1D RFO       ACCESS: 34631997  HIT: 21381022  MISS: 13250975  HIT %: 61.7378  MISS %: 38.2622  AVERAGE MISS PENALTY: 1411.12
L1D PREFETCH  ACCESS: 7485579  HIT: 6648251  MISS: 837328  HIT %: 88.8141  MISS %: 11.1859  AVERAGE MISS PENALTY: 1186.86
L1D WRITEBACK ACCESS:     0  HIT:     0  MISS:     0  HIT %:     0  MISS %:     0  AVERAGE MISS PENALTY: 0

L1I TOTAL     ACCESS: 42353819  HIT: 42353819  MISS:     0  HIT %:   100  MISS %:     0  AVERAGE MISS PENALTY: 0
L1I LOAD      ACCESS: 42353819  HIT: 42353819  MISS:     0  HIT %:   100  MISS %:     0  AVERAGE MISS PENALTY: 0
L1I RFO       ACCESS:     0  HIT:     0  MISS:     0  HIT %:     0  MISS %:     0  AVERAGE MISS PENALTY: 0
L1I PREFETCH  ACCESS:     0  HIT:     0  MISS:     0  HIT %:     0  MISS %:     0  AVERAGE MISS PENALTY: 0
L1I WRITEBACK ACCESS:     0  HIT:     0  MISS:     0  HIT %:     0  MISS %:     0  AVERAGE MISS PENALTY: 0

L2C TOTAL     ACCESS: 29688634  HIT: 19270637  MISS: 10417997  HIT %: 64.9091  MISS %: 35.0909  AVERAGE MISS PENALTY: 8.66665e+07
L2C LOAD      ACCESS: 1532350  HIT: 264264  MISS: 1268086  HIT %: 17.2457  MISS %: 82.7543  AVERAGE MISS PENALTY: 7.11995e+08
L2C RFO       ACCESS: 13250968  HIT: 5201565  MISS: 8049403  HIT %: 39.2542  MISS %: 60.7458  AVERAGE MISS PENALTY: 2286.72
L2C PREFETCH  ACCESS: 1654333  HIT: 554648  MISS: 1099685  HIT %: 33.527  MISS %: 66.473  AVERAGE MISS PENALTY: 1856.93
L2C WRITEBACK ACCESS: 13250983  HIT: 13250160  MISS:   823  HIT %: 99.9938  MISS %: 0.00621086  AVERAGE MISS PENALTY: 0


LLC0 TOTAL     ACCESS: 2307312  HIT: 910486  MISS: 1396826  HIT %: 39.4609  MISS %: 60.5391  AVERAGE MISS PENALTY: 2076.31
LLC0 LOAD      ACCESS: 64604  HIT:     0  MISS: 64604  HIT %:     0  MISS %:   100  AVERAGE MISS PENALTY: 2190.97
LLC0 RFO       ACCESS: 1005693  HIT: 115341  MISS: 890352  HIT %: 11.4688  MISS %: 88.5312  AVERAGE MISS PENALTY: 2508.13
LLC0 PREFETCH  ACCESS: 231164  HIT:     0  MISS: 231164  HIT %:     0  MISS %:   100  AVERAGE MISS PENALTY: 2273.64
LLC0 WRITEBACK ACCESS: 1005851  HIT: 795145  MISS: 210706  HIT %: 79.052  MISS %: 20.948  AVERAGE MISS PENALTY: 0

LLC1 TOTAL     ACCESS: 2307778  HIT: 910785  MISS: 1396993  HIT %: 39.4659  MISS %: 60.5341  AVERAGE MISS PENALTY: 2078.14
LLC1 LOAD      ACCESS: 49696  HIT:    27  MISS: 49669  HIT %: 0.0543303  MISS %: 99.9457  AVERAGE MISS PENALTY: 2172.46
LLC1 RFO       ACCESS: 1005865  HIT: 115568  MISS: 890297  HIT %: 11.4894  MISS %: 88.5106  AVERAGE MISS PENALTY: 2508.05
LLC1 PREFETCH  ACCESS: 246175  HIT:     0  MISS: 246175  HIT %:     0  MISS %:   100  AVERAGE MISS PENALTY: 2284.29
LLC1 WRITEBACK ACCESS: 1006042  HIT: 795190  MISS: 210852  HIT %: 79.0414  MISS %: 20.9586  AVERAGE MISS PENALTY: 0

LLC2 TOTAL     ACCESS: 2307384  HIT: 917211  MISS: 1390173  HIT %: 39.7511  MISS %: 60.2489  AVERAGE MISS PENALTY: 2066.68
LLC2 LOAD      ACCESS: 39596  HIT:    19  MISS: 39577  HIT %: 0.0479846  MISS %: 99.952  AVERAGE MISS PENALTY: 2168.07
LLC2 RFO       ACCESS: 1005672  HIT: 115688  MISS: 889984  HIT %: 11.5036  MISS %: 88.4964  AVERAGE MISS PENALTY: 2451.57
LLC2 PREFETCH  ACCESS: 256279  HIT:     0  MISS: 256279  HIT %:     0  MISS %:   100  AVERAGE MISS PENALTY: 2362.22
LLC2 WRITEBACK ACCESS: 1005837  HIT: 801504  MISS: 204333  HIT %: 79.6853  MISS %: 20.3147  AVERAGE MISS PENALTY: 0

LLC3 TOTAL     ACCESS: 2308026  HIT: 922454  MISS: 1385572  HIT %: 39.9672  MISS %: 60.0328  AVERAGE MISS PENALTY: 2075.66
[...]
LLC1 AVERAGE MISS LATENCY: 2076.79 cycles
LLC2 TOTAL     ACCESS: 2331861  HIT: 946214  MISS: 1385647  HIT %: 40.5776  MISS %: 59.4224  AVERAGE MISS PENALTY: 2062.16
LLC2 LOAD      ACCESS: 39695  HIT:    18  MISS: 39677  HIT %: 0.0453458  MISS %: 99.9547  AVERAGE MISS PENALTY: 2177.1
LLC2 RFO       ACCESS: 1018015  HIT: 127856  MISS: 890159  HIT %: 12.5593  MISS %: 87.4407  AVERAGE MISS PENALTY: 2432.68
LLC2 PREFETCH  ACCESS: 256177  HIT:     0  MISS: 256177  HIT %:     0  MISS %:   100  AVERAGE MISS PENALTY: 2363.9
LLC2 WRITEBACK ACCESS: 1017974  HIT: 818340  MISS: 199634  HIT %: 80.3891  MISS %: 19.6109  AVERAGE MISS PENALTY: 0
LLC2 PREFETCH  REQUESTED:     0  ISSUED:     0  USEFUL:     0  USELESS: 2055104
 USEFUL LOAD PREFETCHES:          0 PREFETCH ISSUED TO LOWER LEVEL:  651511209  ACCURACY: 0
 TIMELY PREFETCHES:          0 LATE PREFETCHES: 0 DROPPED PREFETCHES: 0
LLC2 AVERAGE MISS LATENCY: 2062.16 cycles
LLC3 TOTAL     ACCESS: 2332004  HIT: 951281  MISS: 1380723  HIT %: 40.7924  MISS %: 59.2076  AVERAGE MISS PENALTY: 2076.14
LLC3 LOAD      ACCESS: 39597  HIT:    20  MISS: 39577  HIT %: 0.0505089  MISS %: 99.9495  AVERAGE MISS PENALTY: 2215.95
LLC3 RFO       ACCESS: 1018077  HIT: 128017  MISS: 890060  HIT %: 12.5744  MISS %: 87.4256  AVERAGE MISS PENALTY: 2441.79
LLC3 PREFETCH  ACCESS: 256292  HIT:     6  MISS: 256286  HIT %: 0.00234108  MISS %: 99.9977  AVERAGE MISS PENALTY: 2362.73
LLC3 WRITEBACK ACCESS: 1018038  HIT: 823238  MISS: 194800  HIT %: 80.8652  MISS %: 19.1348  AVERAGE MISS PENALTY: 0
LLC3 PREFETCH  REQUESTED:     0  ISSUED:     0  USEFUL:    37  USELESS: 2056342
 USEFUL LOAD PREFETCHES:         37 PREFETCH ISSUED TO LOWER LEVEL:  661826171  ACCURACY: 5.59059e-06
 TIMELY PREFETCHES:         37 LATE PREFETCHES: 0 DROPPED PREFETCHES: 0
LLC3 AVERAGE MISS LATENCY: 2076.14 cycles
LLC4 TOTAL     ACCESS: 2333280  HIT: 952073  MISS: 1381207  HIT %: 40.8041  MISS %: 59.1959  AVERAGE MISS PENALTY: 2101.94
LLC4 LOAD      ACCESS: 37729  HIT:     0  MISS: 37729  HIT %:     0  MISS %:   100  AVERAGE MISS PENALTY: 2185.91
LLC4 RFO       ACCESS: 1018510  HIT: 128611  MISS: 889899  HIT %: 12.6274  MISS %: 87.3726  AVERAGE MISS PENALTY: 2505.35
LLC4 PREFETCH  ACCESS: 258648  HIT:   348  MISS: 258300  HIT %: 0.134546  MISS %: 99.8655  AVERAGE MISS PENALTY: 2288.93
LLC4 WRITEBACK ACCESS: 1018393  HIT: 823114  MISS: 195279  HIT %: 80.8248  MISS %: 19.1752  AVERAGE MISS PENALTY: 0
LLC4 PREFETCH  REQUESTED:     0  ISSUED:     0  USEFUL:     0  USELESS: 2072281
 USEFUL LOAD PREFETCHES:          0 PREFETCH ISSUED TO LOWER LEVEL:  744397365  ACCURACY: 0
 TIMELY PREFETCHES:          0 LATE PREFETCHES: 0 DROPPED PREFETCHES: 0
LLC4 AVERAGE MISS LATENCY: 2101.94 cycles
LLC5 TOTAL     ACCESS: 2333562  HIT: 956429  MISS: 1377133  HIT %: 40.9858  MISS %: 59.0142  AVERAGE MISS PENALTY: 2107.02
LLC5 LOAD      ACCESS: 38055  HIT:     0  MISS: 38055  HIT %:     0  MISS %:   100  AVERAGE MISS PENALTY: 2180.44
LLC5 RFO       ACCESS: 1018641  HIT: 128748  MISS: 889893  HIT %: 12.6392  MISS %: 87.3608  AVERAGE MISS PENALTY: 2502.99
LLC5 PREFETCH  ACCESS: 258329  HIT:   348  MISS: 257981  HIT %: 0.134712  MISS %: 99.8653  AVERAGE MISS PENALTY: 2291.94
LLC5 WRITEBACK ACCESS: 1018537  HIT: 827333  MISS: 191204  HIT %: 81.2276  MISS %: 18.7724  AVERAGE MISS PENALTY: 0
LLC5 PREFETCH  REQUESTED:     0  ISSUED:     0  USEFUL:     0  USELESS: 2069841
 USEFUL LOAD PREFETCHES:          0 PREFETCH ISSUED TO LOWER LEVEL:  749007708  ACCURACY: 0
 TIMELY PREFETCHES:          0 LATE PREFETCHES: 0 DROPPED PREFETCHES: 0
LLC5 AVERAGE MISS LATENCY: 2107.02 cycles
LLC6 TOTAL     ACCESS: 2331505  HIT: 953348  MISS: 1378157  HIT %: 40.8898  MISS %: 59.1102  AVERAGE MISS PENALTY: 2077.86
LLC6 LOAD      ACCESS: 38548  HIT:     0  MISS: 38548  HIT %:     0  MISS %:   100  AVERAGE MISS PENALTY: 2219.35
LLC6 RFO       ACCESS: 1017900  HIT: 128038  MISS: 889862  HIT %: 12.5786  MISS %: 87.4214  AVERAGE MISS PENALTY: 2441.86
LLC6 PREFETCH  ACCESS: 257219  HIT:     0  MISS: 257219  HIT %:     0  MISS %:   100  AVERAGE MISS PENALTY: 2352.64
LLC6 WRITEBACK ACCESS: 1017838  HIT: 825310  MISS: 192528  HIT %: 81.0846  MISS %: 18.9154  AVERAGE MISS PENALTY: 0
LLC6 PREFETCH  REQUESTED:     0  ISSUED:     0  USEFUL:     0  USELESS: 2062566
 USEFUL LOAD PREFETCHES:          0 PREFETCH ISSUED TO LOWER LEVEL: 1068060863  ACCURACY: 0
 TIMELY PREFETCHES:          0 LATE PREFETCHES: 0 DROPPED PREFETCHES: 0
LLC6 AVERAGE MISS LATENCY: 2077.86 cycles
LLC7 TOTAL     ACCESS: 2331693  HIT: 952861  MISS: 1378832  HIT %: 40.8656  MISS %: 59.1344  AVERAGE MISS PENALTY: 2073.18
LLC7 LOAD      ACCESS: 38544  HIT:     0  MISS: 38544  HIT %:     0  MISS %:   100  AVERAGE MISS PENALTY: 2209.77
LLC7 RFO       ACCESS: 1018002  HIT: 128278  MISS: 889724  HIT %: 12.601  MISS %: 87.399  AVERAGE MISS PENALTY: 2438.58
LLC7 PREFETCH  ACCESS: 257222  HIT:     0  MISS: 257222  HIT %:     0  MISS %:   100  AVERAGE MISS PENALTY: 2347.13
LLC7 WRITEBACK ACCESS: 1017925  HIT: 824583  MISS: 193342  HIT %: 81.0063  MISS %: 18.9937  AVERAGE MISS PENALTY: 0
LLC7 PREFETCH  REQUESTED:     0  ISSUED:     0  USEFUL:     0  USELESS: 2061475
 USEFUL LOAD PREFETCHES:          0 PREFETCH ISSUED TO LOWER LEVEL: 1090435886  ACCURACY: 0
 TIMELY PREFETCHES:          0 LATE PREFETCHES: 0 DROPPED PREFETCHES: 0
LLC7 AVERAGE MISS LATENCY: 2073.18 cycles
ROI Average ROB Stall Cycles:	124.813
ROI Total ROB Stalls Cycles:	1572712479
ROI TOTAL ROB counter      :	12600590
ROI Average Load ROB Stall Cycles:	811.839
ROI Total Load ROB Stalls Cycle  :	1509019070
ROI Total Load ROB stalls Counter:	1858766
Major fault: 0 Minor fault: 151777

CPU 7 cumulative IPC: 0.121519 instructions: 200000002 cycles: 1645839246
ITLB TOTAL     ACCESS: 30692264  HIT: 30692264  MISS:     0  HIT %:   100  MISS %:     0  AVERAGE MISS PENALTY: 0
ITLB LOAD      ACCESS: 30692264  HIT: 30692264  MISS:     0  HIT %:   100  MISS %:     0  AVERAGE MISS PENALTY: 0
ITLB RFO       ACCESS:     0  HIT:     0  MISS:     0  HIT %:     0  MISS %:     0  AVERAGE MISS PENALTY: 0
ITLB PREFETCH  ACCESS:     0  HIT:     0  MISS:     0  HIT %:     0  MISS %:     0  AVERAGE MISS PENALTY: 0
ITLB WRITEBACK ACCESS:     0  HIT:     0  MISS:     0  HIT %:     0  MISS %:     0  AVERAGE MISS PENALTY: 0
ITLB PREFETCH  REQUESTED:     0  ISSUED:     0  USEFUL:     0  USELESS:     0
 USEFUL LOAD PREFETCHES:          0 PREFETCH ISSUED TO LOWER LEVEL:          0  ACCURACY: -nan
 TIMELY PREFETCHES:          0 LATE PREFETCHES: 0 DROPPED PREFETCHES: 0
ITLB AVERAGE MISS LATENCY: -nan cycles
DTLB TOTAL     ACCESS: 40242974  HIT: 39970349  MISS: 272625  HIT %: 99.3226  MISS %: 0.677447  AVERAGE MISS PENALTY: 87.2793
DTLB LOAD      ACCESS: 19466012  HIT: 19429016  MISS: 36996  HIT %: 99.8099  MISS %: 0.190054  AVERAGE MISS PENALTY: 109.005
DTLB RFO       ACCESS: 20776962  HIT: 20541333  MISS: 235629  HIT %: 98.8659  MISS %: 1.13409  AVERAGE MISS PENALTY: 83.8682
DTLB PREFETCH  ACCESS:     0  HIT:     0  MISS:     0  HIT %:     0  MISS %:     0  AVERAGE MISS PENALTY: 0
DTLB WRITEBACK ACCESS:     0  HIT:     0  MISS:     0  HIT %:     0  MISS %:     0  AVERAGE MISS PENALTY: 0
DTLB PREFETCH  REQUESTED:     0  ISSUED:     0  USEFUL:     0  USELESS:     0
 USEFUL LOAD PREFETCHES:          0 PREFETCH ISSUED TO LOWER LEVEL:          0  ACCURACY: -nan
 TIMELY PREFETCHES:          0 LATE PREFETCHES: 0 DROPPED PREFETCHES: 0
DTLB AVERAGE MISS LATENCY: 87.2793 cycles
STLB TOTAL     ACCESS: 272625  HIT: 124694  MISS: 147931  HIT %: 45.7383  MISS %: 54.2617  AVERAGE MISS PENALTY: 100
STLB LOAD      ACCESS: 36996  HIT:     1  MISS: 36995  HIT %: 0.00270299  MISS %: 99.9973  AVERAGE MISS PENALTY: 100
STLB RFO       ACCESS: 235629  HIT: 124693  MISS: 110936  HIT %: 52.9192  MISS %: 47.0808  AVERAGE MISS PENALTY: 100
STLB PREFETCH  ACCESS:     0  HIT:     0  MISS:     0  HIT %:     0  MISS %:     0  AVERAGE MISS PENALTY: 0
STLB WRITEBACK ACCESS:     0  HIT:     0  MISS:     0  HIT %:     0  MISS %:     0  AVERAGE MISS PENALTY: 0
STLB PREFETCH  REQUESTED:     0  ISSUED:     0  USEFUL:     0  USELESS:     0
 USEFUL LOAD PREFETCHES:          0 PREFETCH ISSUED TO LOWER LEVEL:          0  ACCURACY: -nan
 TIMELY PREFETCHES:          0 LATE PREFETCHES: 0 DROPPED PREFETCHES: 0
STLB AVERAGE MISS LATENCY: 100 cycles
L1D TOTAL     ACCESS: 58679758  HIT: 43051098  MISS: 15628660  HIT %: 73.3662  MISS %: 26.6338  AVERAGE MISS PENALTY: 3.45641e+07
L1D LOAD      ACCESS: 16532772  HIT: 14994091  MISS: 1538681  HIT %: 90.6931  MISS %: 9.30685  AVERAGE MISS PENALTY: 3.51061e+08
L1D RFO       ACCESS: 34637133  HIT: 21386326  MISS: 13250807  HIT %: 61.7439  MISS %: 38.2561  AVERAGE MISS PENALTY: 1390.43
L1D PREFETCH  ACCESS: 7509853  HIT: 6670681  MISS: 839172  HIT %: 88.8257  MISS %: 11.1743  AVERAGE MISS PENALTY: 1187.65
L1D WRITEBACK ACCESS:     0  HIT:     0  MISS:     0  HIT %:     0  MISS %:     0  AVERAGE MISS PENALTY: 0
L1D PREFETCH  REQUESTED: 26221145  ISSUED: 22156770  USEFUL: 827883  USELESS: 11288
 USEFUL LOAD PREFETCHES:     827883 PREFETCH ISSUED TO LOWER LEVEL: 1903686202  ACCURACY: 0.0434884
 TIMELY PREFETCHES:     827883 LATE PREFETCHES: 1815854 DROPPED PREFETCHES: 4064375
L1D AVERAGE MISS LATENCY: 1402.69 cycles
L1I TOTAL     ACCESS: 42354993  HIT: 42354993  MISS:     0  HIT %:   100  MISS %:     0  AVERAGE MISS PENALTY: 0
L1I LOAD      ACCESS: 42354993  HIT: 42354993  MISS:     0  HIT %:   100  MISS %:     0  AVERAGE MISS PENALTY: 0
L1I RFO       ACCESS:     0  HIT:     0  MISS:     0  HIT %:     0  MISS %:     0  AVERAGE MISS PENALTY: 0
L1I PREFETCH  ACCESS:     0  HIT:     0  MISS:     0  HIT %:     0  MISS %:     0  AVERAGE MISS PENALTY: 0
L1I WRITEBACK ACCESS:     0  HIT:     0  MISS:     0  HIT %:     0  MISS %:     0  AVERAGE MISS PENALTY: 0
L1I PREFETCH  REQUESTED:     0  ISSUED:     0  USEFUL:     0  USELESS:     0
 USEFUL LOAD PREFETCHES:          0 PREFETCH ISSUED TO LOWER LEVEL:          0  ACCURACY: -nan
 TIMELY PREFETCHES:          0 LATE PREFETCHES: 0 DROPPED PREFETCHES: 0
L1I AVERAGE MISS LATENCY: -nan cycles
L2C TOTAL     ACCESS: 29685065  HIT: 19219143  MISS: 10465922  HIT %: 64.7435  MISS %: 35.2565  AVERAGE MISS PENALTY: 8.61091e+07
L2C LOAD      ACCESS: 1530443  HIT: 261744  MISS: 1268699  HIT %: 17.1025  MISS %: 82.8975  AVERAGE MISS PENALTY: 7.10327e+08
L2C RFO       ACCESS: 13250802  HIT: 5157599  MISS: 8093203  HIT %: 38.9229  MISS %: 61.0771  AVERAGE MISS PENALTY: 2250.35
L2C PREFETCH  ACCESS: 1653007  HIT: 553871  MISS: 1099136  HIT %: 33.5069  MISS %: 66.4931  AVERAGE MISS PENALTY: 1858.98
L2C WRITEBACK ACCESS: 13250813  HIT: 13245929  MISS:  4884  HIT %: 99.9631  MISS %: 0.0368581  AVERAGE MISS PENALTY: 0
L2C PREFETCH  REQUESTED: 4135255  ISSUED: 4135238  USEFUL: 261622  USELESS: 839837
 USEFUL LOAD PREFETCHES:     261622 PREFETCH ISSUED TO LOWER LEVEL:    4123789  ACCURACY: 6.34421
 TIMELY PREFETCHES:     261622 LATE PREFETCHES: 1644473 DROPPED PREFETCHES: 17
L2C AVERAGE MISS LATENCY: 2163.71 cycles
LLC0 TOTAL     ACCESS: 2318140  HIT: 925615  MISS: 1392525  HIT %: 39.9292  MISS %: 60.0708  AVERAGE MISS PENALTY: 2070.42
LLC0 LOAD      ACCESS: 64768  HIT:     0  MISS: 64768  HIT %:     0  MISS %:   100  AVERAGE MISS PENALTY: 2190.04
LLC0 RFO       ACCESS: 1011129  HIT: 121057  MISS: 890072  HIT %: 11.9725  MISS %: 88.0275  AVERAGE MISS PENALTY: 2487.18
LLC0 PREFETCH  ACCESS: 230997  HIT:     0  MISS: 230997  HIT %:     0  MISS %:   100  AVERAGE MISS PENALTY: 2283.58
LLC0 WRITEBACK ACCESS: 1011246  HIT: 804558  MISS: 206688  HIT %: 79.5611  MISS %: 20.4389  AVERAGE MISS PENALTY: 0
LLC0 PREFETCH  REQUESTED:     0  ISSUED:     0  USEFUL:     0  USELESS: 1854677
 USEFUL LOAD PREFETCHES:          0 PREFETCH ISSUED TO LOWER LEVEL:  549159620  ACCURACY: 0
 TIMELY PREFETCHES:          0 LATE PREFETCHES: 0 DROPPED PREFETCHES: 0
LLC0 AVERAGE MISS LATENCY: 2070.42 cycles
Deadblocks : 476245 Deadblock percentage : 735.309

LLC1 TOTAL     ACCESS: 2318951  HIT: 925714  MISS: 1393237  HIT %: 39.9195  MISS %: 60.0805  AVERAGE MISS PENALTY: 2075.38
LLC1 LOAD      ACCESS: 49333  HIT:    22  MISS: 49311  HIT %: 0.0445949  MISS %: 99.9554  AVERAGE MISS PENALTY: 2186.46
LLC1 RFO       ACCESS: 1011469  HIT: 121421  MISS: 890048  HIT %: 12.0044  MISS %: 87.9956  AVERAGE MISS PENALTY: 2493.71
LLC1 PREFETCH  ACCESS: 246536  HIT:     0  MISS: 246536  HIT %:     0  MISS %:   100  AVERAGE MISS PENALTY: 2288.33
LLC1 WRITEBACK ACCESS: 1011613  HIT: 804271  MISS: 207342  HIT %: 79.5038  MISS %: 20.4962  AVERAGE MISS PENALTY: 0
LLC1 PREFETCH  REQUESTED:     0  ISSUED:     0  USEFUL:     0  USELESS: 1977199
 USEFUL LOAD PREFETCHES:          0 PREFETCH ISSUED TO LOWER LEVEL:  586492561  ACCURACY: 0
 TIMELY PREFETCHES:          0 LATE PREFETCHES: 0 DROPPED PREFETCHES: 0
LLC1 AVERAGE MISS LATENCY: 2075.38 cycles
LLC2 TOTAL     ACCESS: 2318350  HIT: 931157  MISS: 1387193  HIT %: 40.1646  MISS %: 59.8354  AVERAGE MISS PENALTY: 2061.69
LLC2 LOAD      ACCESS: 39754  HIT:    27  MISS: 39727  HIT %: 0.0679177  MISS %: 99.9321  AVERAGE MISS PENALTY: 2178.48
LLC2 RFO       ACCESS: 1011180  HIT: 121356  MISS: 889824  HIT %: 12.0014  MISS %: 87.9986  AVERAGE MISS PENALTY: 2436.15
LLC2 PREFETCH  ACCESS: 256111  HIT:     0  MISS: 256111  HIT %:     0  MISS %:   100  AVERAGE MISS PENALTY: 2364.92
LLC2 WRITEBACK ACCESS: 1011305  HIT: 809774  MISS: 201531  HIT %: 80.0722  MISS %: 19.9278  AVERAGE MISS PENALTY: 0
LLC2 PREFETCH  REQUESTED:     0  ISSUED:     0  USEFUL:     0  USELESS: 2055104
 USEFUL LOAD PREFETCHES:          0 PREFETCH ISSUED TO LOWER LEVEL:  651511209  ACCURACY: 0
 TIMELY PREFETCHES:          0 LATE PREFETCHES: 0 DROPPED PREFETCHES: 0
LLC2 AVERAGE MISS LATENCY: 2061.69 cycles
LLC3 TOTAL     ACCESS: 2318824  HIT: 936054  MISS: 1382770  HIT %: 40.3676  MISS %: 59.6324  AVERAGE MISS PENALTY: 2073.28
LLC3 LOAD      ACCESS: 39575  HIT:    18  MISS: 39557  HIT %: 0.0454833  MISS %: 99.9545  AVERAGE MISS PENALTY: 2191.32
LLC3 RFO       ACCESS: 1011383  HIT: 121634  MISS: 889749  HIT %: 12.0265  MISS %: 87.9735  AVERAGE MISS PENALTY: 2442.46
LLC3 PREFETCH  ACCESS: 256310  HIT:     7  MISS: 256303  HIT %: 0.00273107  MISS %: 99.9973  AVERAGE MISS PENALTY: 2368.35
LLC3 WRITEBACK ACCESS: 1011556  HIT: 814395  MISS: 197161  HIT %: 80.5091  MISS %: 19.4909  AVERAGE MISS PENALTY: 0
LLC3 PREFETCH  REQUESTED:     0  ISSUED:     0  USEFUL:    37  USELESS: 2056342
 USEFUL LOAD PREFETCHES:         37 PREFETCH ISSUED TO LOWER LEVEL:  661826171  ACCURACY: 5.59059e-06
 TIMELY PREFETCHES:         37 LATE PREFETCHES: 0 DROPPED PREFETCHES: 0
LLC3 AVERAGE MISS LATENCY: 2073.28 cycles
LLC4 TOTAL     ACCESS: 2320572  HIT: 938473  MISS: 1382099  HIT %: 40.4415  MISS %: 59.5585  AVERAGE MISS PENALTY: 2100.27
LLC4 LOAD      ACCESS: 37609  HIT:     0  MISS: 37609  HIT %:     0  MISS %:   100  AVERAGE MISS PENALTY: 2194.41
LLC4 RFO       ACCESS: 1012018  HIT: 122389  MISS: 889629  HIT %: 12.0936  MISS %: 87.9064  AVERAGE MISS PENALTY: 2505.82
LLC4 PREFETCH  ACCESS: 258848  HIT:   406  MISS: 258442  HIT %: 0.156849  MISS %: 99.8432  AVERAGE MISS PENALTY: 2286.78
LLC4 WRITEBACK ACCESS: 1012097  HIT: 815678  MISS: 196419  HIT %: 80.5929  MISS %: 19.4071  AVERAGE MISS PENALTY: 0
LLC4 PREFETCH  REQUESTED:     0  ISSUED:     0  USEFUL:     0  USELESS: 2072281
 USEFUL LOAD PREFETCHES:          0 PREFETCH ISSUED TO LOWER LEVEL:  744397365  ACCURACY: 0
 TIMELY PREFETCHES:          0 LATE PREFETCHES: 0 DROPPED PREFETCHES: 0
LLC4 AVERAGE MISS LATENCY: 2100.27 cycles
LLC5 TOTAL     ACCESS: 2320095  HIT: 941398  MISS: 1378697  HIT %: 40.5758  MISS %: 59.4242  AVERAGE MISS PENALTY: 2105.7
LLC5 LOAD      ACCESS: 37888  HIT:     0  MISS: 37888  HIT %:     0  MISS %:   100  AVERAGE MISS PENALTY: 2191.5
LLC5 RFO       ACCESS: 1011788  HIT: 122183  MISS: 889605  HIT %: 12.0759  MISS %: 87.9241  AVERAGE MISS PENALTY: 2504.3
LLC5 PREFETCH  ACCESS: 258576  HIT:   437  MISS: 258139  HIT %: 0.169003  MISS %: 99.831  AVERAGE MISS PENALTY: 2294.31
LLC5 WRITEBACK ACCESS: 1011843  HIT: 818778  MISS: 193065  HIT %: 80.9195  MISS %: 19.0805  AVERAGE MISS PENALTY: 0
LLC5 PREFETCH  REQUESTED:     0  ISSUED:     0  USEFUL:     0  USELESS: 2069841
 USEFUL LOAD PREFETCHES:          0 PREFETCH ISSUED TO LOWER LEVEL:  749007708  ACCURACY: 0
 TIMELY PREFETCHES:          0 LATE PREFETCHES: 0 DROPPED PREFETCHES: 0
LLC5 AVERAGE MISS LATENCY: 2105.7 cycles
LLC6 TOTAL     ACCESS: 2318843  HIT: 939239  MISS: 1379604  HIT %: 40.5046  MISS %: 59.4954  AVERAGE MISS PENALTY: 2076.34
LLC6 LOAD      ACCESS: 38592  HIT:     0  MISS: 38592  HIT %:     0  MISS %:   100  AVERAGE MISS PENALTY: 2210.15
LLC6 RFO       ACCESS: 1011475  HIT: 121886  MISS: 889589  HIT %: 12.0503  MISS %: 87.9497  AVERAGE MISS PENALTY: 2445.05
LLC6 PREFETCH  ACCESS: 257173  HIT:     0  MISS: 257173  HIT %:     0  MISS %:   100  AVERAGE MISS PENALTY: 2349.2
LLC6 WRITEBACK ACCESS: 1011603  HIT: 817353  MISS: 194250  HIT %: 80.7978  MISS %: 19.2022  AVERAGE MISS PENALTY: 0
LLC6 PREFETCH  REQUESTED:     0  ISSUED:     0  USEFUL:     0  USELESS: 2062566
 USEFUL LOAD PREFETCHES:          0 PREFETCH ISSUED TO LOWER LEVEL: 1068060863  ACCURACY: 0
 TIMELY PREFETCHES:          0 LATE PREFETCHES: 0 DROPPED PREFETCHES: 0
LLC6 AVERAGE MISS LATENCY: 2076.34 cycles
LLC7 TOTAL     ACCESS: 2318108  HIT: 937854  MISS: 1380254  HIT %: 40.4577  MISS %: 59.5423  AVERAGE MISS PENALTY: 2073.82
LLC7 LOAD      ACCESS: 39014  HIT:     0  MISS: 39014  HIT %:     0  MISS %:   100  AVERAGE MISS PENALTY: 2211
LLC7 RFO       ACCESS: 1011116  HIT: 121549  MISS: 889567  HIT %: 12.0213  MISS %: 87.9787  AVERAGE MISS PENALTY: 2444.16
LLC7 PREFETCH  ACCESS: 256751  HIT:     0  MISS: 256751  HIT %:     0  MISS %:   100  AVERAGE MISS PENALTY: 2344.29
LLC7 WRITEBACK ACCESS: 1011227  HIT: 816305  MISS: 194922  HIT %: 80.7242  MISS %: 19.2758  AVERAGE MISS PENALTY: 0
LLC7 PREFETCH  REQUESTED:     0  ISSUED:     0  USEFUL:     0  USELESS: 2061475
 USEFUL LOAD PREFETCHES:          0 PREFETCH ISSUED TO LOWER LEVEL: 1090435886  ACCURACY: 0
 TIMELY PREFETCHES:          0 LATE PREFETCHES: 0 DROPPED PREFETCHES: 0
LLC7 AVERAGE MISS LATENCY: 2073.82 cycles
ROI Average ROB Stall Cycles:	124.818
ROI Total ROB Stalls Cycles:	1573594829
ROI TOTAL ROB counter      :	12607065
ROI Average Load ROB Stall Cycles:	812.228
ROI Total Load ROB Stalls Cycle  :	1509987468
ROI Total Load ROB stalls Counter:	1859068
Major fault: 0 Minor fault: 151727








Interconnect Stats 
LINK 0 BW : 0LINK 1 BW : 0LINK 2 BW : 0LINK 3 BW : 0LINK 4 BW : 0LINK 5 BW : 0LINK 6 BW : 0LINK 7 BW : 0
DRAM Statistics
 CHANNEL 0
 RQ ROW_BUFFER_HIT: 13528373  ROW_BUFFER_MISS: 24507149
 DBUS_CONGESTED: 94124341
 WQ ROW_BUFFER_HIT: 1049001  ROW_BUFFER_MISS: 27997088  FULL:    98

 CHANNEL 1
 RQ ROW_BUFFER_HIT: 13531876  ROW_BUFFER_MISS: 24502247
 DBUS_CONGESTED: 94124341
 WQ ROW_BUFFER_HIT: 1048214  ROW_BUFFER_MISS: 27985535  FULL:     0

 AVG_CONGESTED_CYCLE: 6
DRAM PAGES: 2097152
Allocated PAGES: 1213440
L2C destructor called
L1D destructor called
L1I destructor called
STLB destructor called
DTLB destructor called
ITLB destructor called
L2C destructor called
L1D destructor called
L1I destructor called
STLB destructor called
DTLB destructor called
ITLB destructor called
L2C destructor called
L1D destructor called
L1I destructor called
STLB destructor called
DTLB destructor called
ITLB destructor called
L2C destructor called
L1D destructor called
L1I destructor called
STLB destructor called
DTLB destructor called
ITLB destructor called
L2C destructor called
L1D destructor called
L1I destructor called
STLB destructor called
DTLB destructor called
ITLB destructor called
L2C destructor called
L1D destructor called
L1I destructor called
STLB destructor called
DTLB destructor called
ITLB destructor called
L2C destructor called
L1D destructor called
L1I destructor called
STLB destructor called
DTLB destructor called
ITLB destructor called
L2C destructor called
L1D destructor called
L1I destructor called
STLB destructor called
DTLB destructor called
ITLB destructor called
