
*** ChampSim Multicore Out-of-Order Simulator ***

Warmup Instructions: 200000000
Simulation Instructions: 200000000
Number of CPUs: 8
threads:1

L1I Configuration:
L1I_SET:64
L1I_WAY:8
L1I_RQ_SIZE:64
L1I_WQ_SIZE:64
L1I_PQ_SIZE:8
L1I_MSHR_SIZE:8

L1D Configuration:
L1D_SET:64
L1D_WAY:12
L1D_RQ_SIZE:64
L1D_WQ_SIZE:64
L1D_PQ_SIZE:8
L1D_MSHR_SIZE:16

L2C Configuration:
L2C_SET:1024
L2C_WAY:8
L2C_RQ_SIZE:32
L2C_WQ_SIZE:32
L2C_PQ_SIZE:16
L2C_MSHR_SIZE:32

LLC Configuration:
LLC_SET:2048
LLC_WAY:16
LLC SLICES:8
LLC_RQ_SIZE:64
LLC_WQ_SIZE:64
LLC_PQ_SIZE:32
LLC_MSHR_SIZE:64

Interconnect OFF
Attacker deprioritize is: OFF
Off-chip DRAM Size: 8192 MB Channels: 2 Width: 64-bit Data Rate: 3200 MT/s
PAGE SIZE in KB: 4.000000 
PAGE SIZE in MB: 0.003906 
PAGE offset in bits: 12 
CEASER-S_LLC:0
MIRAGE : 0
CEASER_LATENCY:3
REMAP : OFF
Partitions : 1
Multi-Step : OFF
BFS : OFF

CPU 0 runs /home/anubhav/spec_2017/620.omnetpp_s-874B.champsimtrace.xz
CPU 1 runs /home/anubhav/spec_2017/620.omnetpp_s-874B.champsimtrace.xz
CPU 2 runs /home/anubhav/spec_2017/620.omnetpp_s-874B.champsimtrace.xz
CPU 3 runs /home/anubhav/spec_2017/620.omnetpp_s-874B.champsimtrace.xz
CPU 4 runs /home/anubhav/spec_2017/620.omnetpp_s-874B.champsimtrace.xz
CPU 5 runs /home/anubhav/spec_2017/620.omnetpp_s-874B.champsimtrace.xz
CPU 6 runs /home/anubhav/spec_2017/620.omnetpp_s-874B.champsimtrace.xz
CPU 7 runs /home/anubhav/spec_2017/620.omnetpp_s-874B.champsimtrace.xz
CPU 0 Bimodal branch predictor
Initialize Hawkeye state
Initialize Hawkeye state
Initialize Hawkeye state
Initialize Hawkeye state
Initialize Hawkeye state
Initialize Hawkeye state
Initialize Hawkeye state
Initialize Hawkeye state
CPU 1 Bimodal branch predictor
Initialize Hawkeye state
Initialize Hawkeye state
Initialize Hawkeye state
Initialize Hawkeye state
Initialize Hawkeye state
Initialize Hawkeye state
Initialize Hawkeye state
Initialize Hawkeye state
CPU 2 Bimodal branch predictor
Initialize Hawkeye state
Initialize Hawkeye state
Initialize Hawkeye state
Initialize Hawkeye state
Initialize Hawkeye state
Initialize Hawkeye state
Initialize Hawkeye state
Initialize Hawkeye state
CPU 3 Bimodal branch predictor
Initialize Hawkeye state
Initialize Hawkeye state
Initialize Hawkeye state
Initialize Hawkeye state
Initialize Hawkeye state
Initialize Hawkeye state
Initialize Hawkeye state
Initialize Hawkeye state
CPU 4 Bimodal branch predictor
Initialize Hawkeye state
Initialize Hawkeye state
Initialize Hawkeye state
Initialize Hawkeye state
Initialize Hawkeye state
Initialize Hawkeye state
Initialize Hawkeye state
Initialize Hawkeye state
CPU 5 Bimodal branch predictor
Initialize Hawkeye state
Initialize Hawkeye state
Initialize Hawkeye state
Initialize Hawkeye state
Initialize Hawkeye state
Initialize Hawkeye state
Initialize Hawkeye state
Initialize Hawkeye state
CPU 6 Bimodal branch predictor
Initialize Hawkeye state
Initialize Hawkeye state
Initialize Hawkeye state
Initialize Hawkeye state
Initialize Hawkeye state
Initialize Hawkeye state
Initialize Hawkeye state
Initialize Hawkeye state
CPU 7 Bimodal branch predictor
Initialize Hawkeye state
Initialize Hawkeye state
Initialize Hawkeye state
Initialize Hawkeye state
Initialize Hawkeye state
Initialize Hawkeye state
Initialize Hawkeye state
Initialize Hawkeye state
Heartbeat CPU 1 instructions: 10000000 cycles: 8849607 heartbeat IPC: 1.12999 cumulative IPC: 1.12999 (Simulation time: 10 hr 58 min 24 sec) 
 Total Blocks : 262144 Invalid Blocks : 667
Heartbeat CPU 4 instructions: 10000000 cycles: 8849803 heartbeat IPC: 1.12997 cumulative IPC: 1.12997 (Simulation time: 10 hr 58 min 59 sec) 
 Total Blocks : 262144 Invalid Blocks : 667
Heartbeat CPU 5 instructions: 10000000 cycles: 8849826 heartbeat IPC: 1.12997 cumulative IPC: 1.12997 (Simulation time: 10 hr 59 min 4 sec) 
 Total Blocks : 262144 Invalid Blocks : 667
Heartbeat CPU 7 instructions: 10000000 cycles: 8849889 heartbeat IPC: 1.12996 cumulative IPC: 1.12996 (Simulation time: 10 hr 59 min 4 sec) 
 Total Blocks : 262144 Invalid Blocks : 667
Heartbeat CPU 2 instructions: 10000000 cycles: 8849894 heartbeat IPC: 1.12996 cumulative IPC: 1.12996 (Simulation time: 10 hr 59 min 4 sec) 
 Total Blocks : 262144 Invalid Blocks : 667
Heartbeat CPU 0 instructions: 10000000 cycles: 8849925 heartbeat IPC: 1.12995 cumulative IPC: 1.12995 (Simulation time: 10 hr 59 min 5 sec) 
 Total Blocks : 262144 Invalid Blocks : 667
Heartbeat CPU 6 instructions: 10000000 cycles: 8849942 heartbeat IPC: 1.12995 cumulative IPC: 1.12995 (Simulation time: 10 hr 59 min 5 sec) 
 Total Blocks : 262144 Invalid Blocks : 667
Heartbeat CPU 3 instructions: 10000000 cycles: 8849945 heartbeat IPC: 1.12995 cumulative IPC: 1.12995 (Simulation time: 10 hr 59 min 5 sec) 
 Total Blocks : 262144 Invalid Blocks : 667
Heartbeat CPU 4 instructions: 20000003 cycles: 17581857 heartbeat IPC: 1.14521 cumulative IPC: 1.13754 (Simulation time: 19 hr 58 min 23 sec) 
 Total Blocks : 262144 Invalid Blocks : 7
Heartbeat CPU 2 instructions: 20000003 cycles: 17581993 heartbeat IPC: 1.1452 cumulative IPC: 1.13753 (Simulation time: 19 hr 58 min 26 sec) 
 Total Blocks : 262144 Invalid Blocks : 7
Heartbeat CPU 7 instructions: 20000003 cycles: 17582000 heartbeat IPC: 1.1452 cumulative IPC: 1.13753 (Simulation time: 19 hr 58 min 26 sec) 
 Total Blocks : 262144 Invalid Blocks : 7
Heartbeat CPU 5 instructions: 20000003 cycles: 17582021 heartbeat IPC: 1.14519 cumulative IPC: 1.13753 (Simulation time: 19 hr 58 min 26 sec) 
 Total Blocks : 262144 Invalid Blocks : 7
Heartbeat CPU 6 instructions: 20000003 cycles: 17582178 heartbeat IPC: 1.14518 cumulative IPC: 1.13752 (Simulation time: 19 hr 58 min 26 sec) 
 Total Blocks : 262144 Invalid Blocks : 7
Heartbeat CPU 0 instructions: 20000003 cycles: 17582217 heartbeat IPC: 1.14518 cumulative IPC: 1.13751 (Simulation time: 19 hr 58 min 27 sec) 
 Total Blocks : 262144 Invalid Blocks : 7
Heartbeat CPU 3 instructions: 20000003 cycles: 17582265 heartbeat IPC: 1.14517 cumulative IPC: 1.13751 (Simulation time: 19 hr 58 min 27 sec) 
 Total Blocks : 262144 Invalid Blocks : 7
Heartbeat CPU 1 instructions: 20000003 cycles: 17582298 heartbeat IPC: 1.14512 cumulative IPC: 1.13751 (Simulation time: 19 hr 58 min 27 sec) 
 Total Blocks : 262144 Invalid Blocks : 7
Heartbeat CPU 4 instructions: 30000001 cycles: 26332829 heartbeat IPC: 1.14273 cumulative IPC: 1.13926 (Simulation time: 27 hr 35 min 58 sec) 
 Total Blocks : 262144 Invalid Blocks : 0
Heartbeat CPU 7 instructions: 30000001 cycles: 26333449 heartbeat IPC: 1.14267 cumulative IPC: 1.13924 (Simulation time: 27 hr 36 min 0 sec) 
 Total Blocks : 262144 Invalid Blocks : 0
Heartbeat CPU 5 instructions: 30000001 cycles: 26333450 heartbeat IPC: 1.14267 cumulative IPC: 1.13924 (Simulation time: 27 hr 36 min 0 sec) 
 Total Blocks : 262144 Invalid Blocks : 0
Heartbeat CPU 3 instructions: 30000001 cycles: 26333536 heartbeat IPC: 1.14269 cumulative IPC: 1.13923 (Simulation time: 27 hr 36 min 0 sec) 
 Total Blocks : 262144 Invalid Blocks : 0
Heartbeat CPU 0 instructions: 30000001 cycles: 26333561 heartbeat IPC: 1.14268 cumulative IPC: 1.13923 (Simulation time: 27 hr 36 min 0 sec) 
 Total Blocks : 262144 Invalid Blocks : 0
Heartbeat CPU 6 instructions: 30000001 cycles: 26333604 heartbeat IPC: 1.14267 cumulative IPC: 1.13923 (Simulation time: 27 hr 36 min 0 sec) 
 Total Blocks : 262144 Invalid Blocks : 0
Heartbeat CPU 2 instructions: 30000001 cycles: 26333689 heartbeat IPC: 1.14264 cumulative IPC: 1.13923 (Simulation time: 27 hr 36 min 0 sec) 
 Total Blocks : 262144 Invalid Blocks : 0
Heartbeat CPU 1 instructions: 30000001 cycles: 26334008 heartbeat IPC: 1.14263 cumulative IPC: 1.13921 (Simulation time: 27 hr 36 min 0 sec) 
 Total Blocks : 262144 Invalid Blocks : 0
Heartbeat CPU 4 instructions: 40000000 cycles: 35147439 heartbeat IPC: 1.13448 cumulative IPC: 1.13806 (Simulation time: 34 hr 55 min 14 sec) 
 Total Blocks : 262144 Invalid Blocks : 0
Heartbeat CPU 7 instructions: 40000000 cycles: 35148018 heartbeat IPC: 1.13449 cumulative IPC: 1.13804 (Simulation time: 34 hr 55 min 24 sec) 
 Total Blocks : 262144 Invalid Blocks : 0
Heartbeat CPU 0 instructions: 40000000 cycles: 35148052 heartbeat IPC: 1.1345 cumulative IPC: 1.13804 (Simulation time: 34 hr 55 min 43 sec) 
 Total Blocks : 262144 Invalid Blocks : 0
Heartbeat CPU 5 instructions: 40000000 cycles: 35148065 heartbeat IPC: 1.13448 cumulative IPC: 1.13804 (Simulation time: 34 hr 55 min 47 sec) 
 Total Blocks : 262144 Invalid Blocks : 0
Heartbeat CPU 2 instructions: 40000000 cycles: 35148100 heartbeat IPC: 1.13451 cumulative IPC: 1.13804 (Simulation time: 34 hr 55 min 48 sec) 
 Total Blocks : 262144 Invalid Blocks : 0
Heartbeat CPU 3 instructions: 40000000 cycles: 35148142 heartbeat IPC: 1.13448 cumulative IPC: 1.13804 (Simulation time: 34 hr 55 min 49 sec) 
 Total Blocks : 262144 Invalid Blocks : 0
Heartbeat CPU 6 instructions: 40000000 cycles: 35148198 heartbeat IPC: 1.13448 cumulative IPC: 1.13804 (Simulation time: 34 hr 55 min 49 sec) 
 Total Blocks : 262144 Invalid Blocks : 0
Heartbeat CPU 1 instructions: 40000000 cycles: 35148447 heartbeat IPC: 1.1345 cumulative IPC: 1.13803 (Simulation time: 34 hr 55 min 50 sec) 
 Total Blocks : 262144 Invalid Blocks : 0
Heartbeat CPU 4 instructions: 50000000 cycles: 43996374 heartbeat IPC: 1.13008 cumulative IPC: 1.13646 (Simulation time: 41 hr 14 min 45 sec) 
 Total Blocks : 262144 Invalid Blocks : 0
Heartbeat CPU 5 instructions: 50000000 cycles: 43996818 heartbeat IPC: 1.1301 cumulative IPC: 1.13645 (Simulation time: 41 hr 14 min 47 sec) 
 Total Blocks : 262144 Invalid Blocks : 0
Heartbeat CPU 7 instructions: 50000000 cycles: 43996936 heartbeat IPC: 1.13008 cumulative IPC: 1.13644 (Simulation time: 41 hr 14 min 47 sec) 
 Total Blocks : 262144 Invalid Blocks : 0
Heartbeat CPU 0 instructions: 50000000 cycles: 43997044 heartbeat IPC: 1.13007 cumulative IPC: 1.13644 (Simulation time: 41 hr 14 min 47 sec) 
 Total Blocks : 262144 Invalid Blocks : 0
Heartbeat CPU 2 instructions: 50000000 cycles: 43997123 heartbeat IPC: 1.13007 cumulative IPC: 1.13644 (Simulation time: 41 hr 14 min 47 sec) 
 Total Blocks : 262144 Invalid Blocks : 0
Heartbeat CPU 1 instructions: 50000000 cycles: 43997188 heartbeat IPC: 1.1301 cumulative IPC: 1.13644 (Simulation time: 41 hr 14 min 47 sec) 
 Total Blocks : 262144 Invalid Blocks : 0
Heartbeat CPU 3 instructions: 50000000 cycles: 43997404 heartbeat IPC: 1.13004 cumulative IPC: 1.13643 (Simulation time: 41 hr 14 min 47 sec) 
 Total Blocks : 262144 Invalid Blocks : 0
Heartbeat CPU 6 instructions: 50000000 cycles: 43997424 heartbeat IPC: 1.13004 cumulative IPC: 1.13643 (Simulation time: 41 hr 14 min 48 sec) 
 Total Blocks : 262144 Invalid Blocks : 0
Heartbeat CPU 4 instructions: 60000000 cycles: 52848823 heartbeat IPC: 1.12963 cumulative IPC: 1.13531 (Simulation time: 44 hr 39 min 34 sec) 
 Total Blocks : 262144 Invalid Blocks : 0
Heartbeat CPU 7 instructions: 60000000 cycles: 52849167 heartbeat IPC: 1.12966 cumulative IPC: 1.13531 (Simulation time: 44 hr 39 min 35 sec) 
 Total Blocks : 262144 Invalid Blocks : 0
Heartbeat CPU 5 instructions: 60000000 cycles: 52849381 heartbeat IPC: 1.12962 cumulative IPC: 1.1353 (Simulation time: 44 hr 39 min 35 sec) 
 Total Blocks : 262144 Invalid Blocks : 0
Heartbeat CPU 2 instructions: 60000000 cycles: 52849779 heartbeat IPC: 1.1296 cumulative IPC: 1.13529 (Simulation time: 44 hr 39 min 36 sec) 
 Total Blocks : 262144 Invalid Blocks : 0
Heartbeat CPU 0 instructions: 60000000 cycles: 52849913 heartbeat IPC: 1.12958 cumulative IPC: 1.13529 (Simulation time: 44 hr 39 min 36 sec) 
 Total Blocks : 262144 Invalid Blocks : 0
Heartbeat CPU 1 instructions: 60000000 cycles: 52850105 heartbeat IPC: 1.12957 cumulative IPC: 1.13529 (Simulation time: 44 hr 39 min 36 sec) 
 Total Blocks : 262144 Invalid Blocks : 0
Heartbeat CPU 6 instructions: 60000000 cycles: 52850160 heartbeat IPC: 1.12959 cumulative IPC: 1.13529 (Simulation time: 44 hr 39 min 36 sec) 
 Total Blocks : 262144 Invalid Blocks : 0
Heartbeat CPU 3 instructions: 60000000 cycles: 52850220 heartbeat IPC: 1.12958 cumulative IPC: 1.13528 (Simulation time: 44 hr 39 min 36 sec) 
 Total Blocks : 262144 Invalid Blocks : 0
Heartbeat CPU 4 instructions: 70000000 cycles: 61656673 heartbeat IPC: 1.13535 cumulative IPC: 1.13532 (Simulation time: 46 hr 46 min 54 sec) 
 Total Blocks : 262144 Invalid Blocks : 0
Heartbeat CPU 7 instructions: 70000000 cycles: 61656835 heartbeat IPC: 1.13537 cumulative IPC: 1.13532 (Simulation time: 46 hr 46 min 55 sec) 
 Total Blocks : 262144 Invalid Blocks : 0
Heartbeat CPU 5 instructions: 70000000 cycles: 61657092 heartbeat IPC: 1.13537 cumulative IPC: 1.13531 (Simulation time: 46 hr 46 min 55 sec) 
 Total Blocks : 262144 Invalid Blocks : 0
Heartbeat CPU 0 instructions: 70000000 cycles: 61657527 heartbeat IPC: 1.13538 cumulative IPC: 1.1353 (Simulation time: 46 hr 46 min 55 sec) 
 Total Blocks : 262144 Invalid Blocks : 0
Heartbeat CPU 2 instructions: 70000000 cycles: 61657802 heartbeat IPC: 1.13533 cumulative IPC: 1.1353 (Simulation time: 46 hr 46 min 55 sec) 
 Total Blocks : 262144 Invalid Blocks : 0
Heartbeat CPU 6 instructions: 70000000 cycles: 61658054 heartbeat IPC: 1.13535 cumulative IPC: 1.13529 (Simulation time: 46 hr 46 min 55 sec) 
 Total Blocks : 262144 Invalid Blocks : 0
Heartbeat CPU 1 instructions: 70000000 cycles: 61658109 heartbeat IPC: 1.13533 cumulative IPC: 1.13529 (Simulation time: 46 hr 46 min 55 sec) 
 Total Blocks : 262144 Invalid Blocks : 0
Heartbeat CPU 3 instructions: 70000000 cycles: 61658361 heartbeat IPC: 1.13531 cumulative IPC: 1.13529 (Simulation time: 46 hr 46 min 56 sec) 
 Total Blocks : 262144 Invalid Blocks : 0
Heartbeat CPU 4 instructions: 80000000 cycles: 70453071 heartbeat IPC: 1.13683 cumulative IPC: 1.13551 (Simulation time: 48 hr 23 min 59 sec) 
 Total Blocks : 262144 Invalid Blocks : 0
Heartbeat CPU 7 instructions: 80000000 cycles: 70453624 heartbeat IPC: 1.13678 cumulative IPC: 1.1355 (Simulation time: 48 hr 24 min 0 sec) 
 Total Blocks : 262144 Invalid Blocks : 0
Heartbeat CPU 5 instructions: 80000000 cycles: 70453682 heartbeat IPC: 1.1368 cumulative IPC: 1.1355 (Simulation time: 48 hr 24 min 0 sec) 
 Total Blocks : 262144 Invalid Blocks : 0
Heartbeat CPU 2 instructions: 80000000 cycles: 70454658 heartbeat IPC: 1.13677 cumulative IPC: 1.13548 (Simulation time: 48 hr 24 min 0 sec) 
 Total Blocks : 262144 Invalid Blocks : 0
Heartbeat CPU 0 instructions: 80000000 cycles: 70454669 heartbeat IPC: 1.13673 cumulative IPC: 1.13548 (Simulation time: 48 hr 24 min 0 sec) 
 Total Blocks : 262144 Invalid Blocks : 0
Heartbeat CPU 6 instructions: 80000000 cycles: 70454891 heartbeat IPC: 1.13677 cumulative IPC: 1.13548 (Simulation time: 48 hr 24 min 0 sec) 
 Total Blocks : 262144 Invalid Blocks : 0
Heartbeat CPU 1 instructions: 80000000 cycles: 70454961 heartbeat IPC: 1.13677 cumulative IPC: 1.13548 (Simulation time: 48 hr 24 min 0 sec) 
 Total Blocks : 262144 Invalid Blocks : 0
Heartbeat CPU 3 instructions: 80000000 cycles: 70455047 heartbeat IPC: 1.13679 cumulative IPC: 1.13548 (Simulation time: 48 hr 24 min 0 sec) 
 Total Blocks : 262144 Invalid Blocks : 0
Heartbeat CPU 4 instructions: 90000000 cycles: 79289239 heartbeat IPC: 1.13171 cumulative IPC: 1.13508 (Simulation time: 50 hr 0 min 29 sec) 
 Total Blocks : 262144 Invalid Blocks : 0
Heartbeat CPU 7 instructions: 90000000 cycles: 79289696 heartbeat IPC: 1.13172 cumulative IPC: 1.13508 (Simulation time: 50 hr 0 min 30 sec) 
 Total Blocks : 262144 Invalid Blocks : 0
Heartbeat CPU 5 instructions: 90000000 cycles: 79289987 heartbeat IPC: 1.13169 cumulative IPC: 1.13507 (Simulation time: 50 hr 0 min 30 sec) 
 Total Blocks : 262144 Invalid Blocks : 0
Heartbeat CPU 1 instructions: 90000000 cycles: 79290958 heartbeat IPC: 1.13173 cumulative IPC: 1.13506 (Simulation time: 50 hr 0 min 30 sec) 
 Total Blocks : 262144 Invalid Blocks : 0
Heartbeat CPU 0 instructions: 90000000 cycles: 79291211 heartbeat IPC: 1.13166 cumulative IPC: 1.13506 (Simulation time: 50 hr 0 min 30 sec) 
 Total Blocks : 262144 Invalid Blocks : 0
Heartbeat CPU 2 instructions: 90000000 cycles: 79291299 heartbeat IPC: 1.13165 cumulative IPC: 1.13506 (Simulation time: 50 hr 0 min 30 sec) 
 Total Blocks : 262144 Invalid Blocks : 0
Heartbeat CPU 3 instructions: 90000000 cycles: 79291431 heartbeat IPC: 1.13168 cumulative IPC: 1.13505 (Simulation time: 50 hr 0 min 30 sec) 
 Total Blocks : 262144 Invalid Blocks : 0
Heartbeat CPU 6 instructions: 90000000 cycles: 79291464 heartbeat IPC: 1.13166 cumulative IPC: 1.13505 (Simulation time: 50 hr 0 min 30 sec) 
 Total Blocks : 262144 Invalid Blocks : 0
Heartbeat CPU 4 instructions: 100000003 cycles: 88201359 heartbeat IPC: 1.12207 cumulative IPC: 1.13377 (Simulation time: 51 hr 23 min 32 sec) 
 Total Blocks : 262144 Invalid Blocks : 0
Heartbeat CPU 7 instructions: 100000003 cycles: 88201516 heartbeat IPC: 1.12211 cumulative IPC: 1.13377 (Simulation time: 51 hr 23 min 33 sec) 
 Total Blocks : 262144 Invalid Blocks : 0
Heartbeat CPU 5 instructions: 100000003 cycles: 88201959 heartbeat IPC: 1.12209 cumulative IPC: 1.13376 (Simulation time: 51 hr 23 min 33 sec) 
 Total Blocks : 262144 Invalid Blocks : 0
Heartbeat CPU 1 instructions: 100000003 cycles: 88202963 heartbeat IPC: 1.12208 cumulative IPC: 1.13375 (Simulation time: 51 hr 23 min 33 sec) 
 Total Blocks : 262144 Invalid Blocks : 0
Heartbeat CPU 3 instructions: 100000003 cycles: 88203439 heartbeat IPC: 1.12208 cumulative IPC: 1.13374 (Simulation time: 51 hr 23 min 33 sec) 
 Total Blocks : 262144 Invalid Blocks : 0
Heartbeat CPU 2 instructions: 100000003 cycles: 88203533 heartbeat IPC: 1.12205 cumulative IPC: 1.13374 (Simulation time: 51 hr 23 min 33 sec) 
 Total Blocks : 262144 Invalid Blocks : 0
Heartbeat CPU 6 instructions: 100000003 cycles: 88203543 heartbeat IPC: 1.12207 cumulative IPC: 1.13374 (Simulation time: 51 hr 23 min 33 sec) 
 Total Blocks : 262144 Invalid Blocks : 0
Heartbeat CPU 0 instructions: 100000003 cycles: 88203660 heartbeat IPC: 1.12203 cumulative IPC: 1.13374 (Simulation time: 51 hr 23 min 33 sec) 
 Total Blocks : 262144 Invalid Blocks : 0
Heartbeat CPU 4 instructions: 110000000 cycles: 97016124 heartbeat IPC: 1.13446 cumulative IPC: 1.13383 (Simulation time: 52 hr 45 min 52 sec) 
 Total Blocks : 262144 Invalid Blocks : 0
Heartbeat CPU 7 instructions: 110000000 cycles: 97016248 heartbeat IPC: 1.13446 cumulative IPC: 1.13383 (Simulation time: 52 hr 45 min 53 sec) 
 Total Blocks : 262144 Invalid Blocks : 0
Heartbeat CPU 5 instructions: 110000000 cycles: 97017137 heartbeat IPC: 1.13441 cumulative IPC: 1.13382 (Simulation time: 52 hr 45 min 53 sec) 
 Total Blocks : 262144 Invalid Blocks : 0
Heartbeat CPU 1 instructions: 110000000 cycles: 97017587 heartbeat IPC: 1.13448 cumulative IPC: 1.13382 (Simulation time: 52 hr 45 min 53 sec) 
 Total Blocks : 262144 Invalid Blocks : 0
Heartbeat CPU 2 instructions: 110000000 cycles: 97018317 heartbeat IPC: 1.13446 cumulative IPC: 1.13381 (Simulation time: 52 hr 45 min 54 sec) 
 Total Blocks : 262144 Invalid Blocks : 0
Heartbeat CPU 3 instructions: 110000000 cycles: 97018496 heartbeat IPC: 1.13442 cumulative IPC: 1.1338 (Simulation time: 52 hr 45 min 54 sec) 
 Total Blocks : 262144 Invalid Blocks : 0
Heartbeat CPU 0 instructions: 110000000 cycles: 97018594 heartbeat IPC: 1.13444 cumulative IPC: 1.1338 (Simulation time: 52 hr 45 min 54 sec) 
 Total Blocks : 262144 Invalid Blocks : 0
Heartbeat CPU 6 instructions: 110000000 cycles: 97018899 heartbeat IPC: 1.13438 cumulative IPC: 1.1338 (Simulation time: 52 hr 45 min 54 sec) 
 Total Blocks : 262144 Invalid Blocks : 0
Heartbeat CPU 4 instructions: 120000003 cycles: 105820552 heartbeat IPC: 1.13579 cumulative IPC: 1.134 (Simulation time: 54 hr 6 min 28 sec) 
 Total Blocks : 262144 Invalid Blocks : 0
Heartbeat CPU 7 instructions: 120000003 cycles: 105820809 heartbeat IPC: 1.13578 cumulative IPC: 1.13399 (Simulation time: 54 hr 6 min 29 sec) 
 Total Blocks : 262144 Invalid Blocks : 0
Heartbeat CPU 5 instructions: 120000003 cycles: 105821532 heartbeat IPC: 1.1358 cumulative IPC: 1.13398 (Simulation time: 54 hr 6 min 29 sec) 
 Total Blocks : 262144 Invalid Blocks : 0
Heartbeat CPU 1 instructions: 120000003 cycles: 105822281 heartbeat IPC: 1.13576 cumulative IPC: 1.13398 (Simulation time: 54 hr 6 min 29 sec) 
 Total Blocks : 262144 Invalid Blocks : 0
Heartbeat CPU 2 instructions: 120000003 cycles: 105822801 heartbeat IPC: 1.13579 cumulative IPC: 1.13397 (Simulation time: 54 hr 6 min 29 sec) 
 Total Blocks : 262144 Invalid Blocks : 0
Heartbeat CPU 3 instructions: 120000003 cycles: 105823092 heartbeat IPC: 1.13577 cumulative IPC: 1.13397 (Simulation time: 54 hr 6 min 29 sec) 
 Total Blocks : 262144 Invalid Blocks : 0
Heartbeat CPU 0 instructions: 120000003 cycles: 105823306 heartbeat IPC: 1.13576 cumulative IPC: 1.13397 (Simulation time: 54 hr 6 min 29 sec) 
 Total Blocks : 262144 Invalid Blocks : 0
Heartbeat CPU 6 instructions: 120000003 cycles: 105823327 heartbeat IPC: 1.13579 cumulative IPC: 1.13397 (Simulation time: 54 hr 6 min 29 sec) 
 Total Blocks : 262144 Invalid Blocks : 0
Heartbeat CPU 4 instructions: 130000000 cycles: 114642936 heartbeat IPC: 1.13348 cumulative IPC: 1.13396 (Simulation time: 55 hr 28 min 53 sec) 
 Total Blocks : 262144 Invalid Blocks : 0
Heartbeat CPU 7 instructions: 130000000 cycles: 114643472 heartbeat IPC: 1.13344 cumulative IPC: 1.13395 (Simulation time: 55 hr 28 min 54 sec) 
 Total Blocks : 262144 Invalid Blocks : 0
Heartbeat CPU 5 instructions: 130000000 cycles: 114644280 heartbeat IPC: 1.13343 cumulative IPC: 1.13394 (Simulation time: 55 hr 28 min 54 sec) 
 Total Blocks : 262144 Invalid Blocks : 0
Heartbeat CPU 1 instructions: 130000000 cycles: 114645306 heartbeat IPC: 1.1334 cumulative IPC: 1.13393 (Simulation time: 55 hr 28 min 54 sec) 
 Total Blocks : 262144 Invalid Blocks : 0
Heartbeat CPU 2 instructions: 130000000 cycles: 114645447 heartbeat IPC: 1.13345 cumulative IPC: 1.13393 (Simulation time: 55 hr 28 min 54 sec) 
 Total Blocks : 262144 Invalid Blocks : 0
Heartbeat CPU 3 instructions: 130000000 cycles: 114645880 heartbeat IPC: 1.13343 cumulative IPC: 1.13393 (Simulation time: 55 hr 28 min 54 sec) 
 Total Blocks : 262144 Invalid Blocks : 0
Heartbeat CPU 6 instructions: 130000000 cycles: 114646044 heartbeat IPC: 1.13344 cumulative IPC: 1.13392 (Simulation time: 55 hr 28 min 54 sec) 
 Total Blocks : 262144 Invalid Blocks : 0
Heartbeat CPU 0 instructions: 130000000 cycles: 114646239 heartbeat IPC: 1.13341 cumulative IPC: 1.13392 (Simulation time: 55 hr 28 min 54 sec) 
 Total Blocks : 262144 Invalid Blocks : 0
Heartbeat CPU 4 instructions: 140000000 cycles: 123476483 heartbeat IPC: 1.13205 cumulative IPC: 1.13382 (Simulation time: 56 hr 45 min 10 sec) 
 Total Blocks : 262144 Invalid Blocks : 0
Heartbeat CPU 7 instructions: 140000000 cycles: 123476848 heartbeat IPC: 1.13207 cumulative IPC: 1.13382 (Simulation time: 56 hr 45 min 11 sec) 
 Total Blocks : 262144 Invalid Blocks : 0
Heartbeat CPU 5 instructions: 140000000 cycles: 123477791 heartbeat IPC: 1.13205 cumulative IPC: 1.13381 (Simulation time: 56 hr 45 min 12 sec) 
 Total Blocks : 262144 Invalid Blocks : 0
Heartbeat CPU 1 instructions: 140000000 cycles: 123478942 heartbeat IPC: 1.13204 cumulative IPC: 1.1338 (Simulation time: 56 hr 45 min 12 sec) 
 Total Blocks : 262144 Invalid Blocks : 0
Heartbeat CPU 2 instructions: 140000000 cycles: 123479255 heartbeat IPC: 1.13201 cumulative IPC: 1.13379 (Simulation time: 56 hr 45 min 12 sec) 
 Total Blocks : 262144 Invalid Blocks : 0
Heartbeat CPU 3 instructions: 140000000 cycles: 123479386 heartbeat IPC: 1.13205 cumulative IPC: 1.13379 (Simulation time: 56 hr 45 min 12 sec) 
 Total Blocks : 262144 Invalid Blocks : 0
Heartbeat CPU 6 instructions: 140000000 cycles: 123479678 heartbeat IPC: 1.13204 cumulative IPC: 1.13379 (Simulation time: 56 hr 45 min 12 sec) 
 Total Blocks : 262144 Invalid Blocks : 0
Heartbeat CPU 0 instructions: 140000000 cycles: 123479851 heartbeat IPC: 1.13204 cumulative IPC: 1.13379 (Simulation time: 56 hr 45 min 12 sec) 
 Total Blocks : 262144 Invalid Blocks : 0
Heartbeat CPU 4 instructions: 150000001 cycles: 132337096 heartbeat IPC: 1.12859 cumulative IPC: 1.13347 (Simulation time: 57 hr 54 min 42 sec) 
 Total Blocks : 262144 Invalid Blocks : 0
Heartbeat CPU 7 instructions: 150000001 cycles: 132337721 heartbeat IPC: 1.12856 cumulative IPC: 1.13346 (Simulation time: 57 hr 54 min 43 sec) 
 Total Blocks : 262144 Invalid Blocks : 0
Heartbeat CPU 5 instructions: 150000001 cycles: 132338872 heartbeat IPC: 1.12853 cumulative IPC: 1.13345 (Simulation time: 57 hr 54 min 43 sec) 
 Total Blocks : 262144 Invalid Blocks : 0
Heartbeat CPU 1 instructions: 150000001 cycles: 132339698 heartbeat IPC: 1.12857 cumulative IPC: 1.13345 (Simulation time: 57 hr 54 min 44 sec) 
 Total Blocks : 262144 Invalid Blocks : 0
Heartbeat CPU 2 instructions: 150000001 cycles: 132340172 heartbeat IPC: 1.12855 cumulative IPC: 1.13344 (Simulation time: 57 hr 54 min 44 sec) 
 Total Blocks : 262144 Invalid Blocks : 0
Heartbeat CPU 3 instructions: 150000001 cycles: 132340380 heartbeat IPC: 1.12854 cumulative IPC: 1.13344 (Simulation time: 57 hr 54 min 44 sec) 
 Total Blocks : 262144 Invalid Blocks : 0
Heartbeat CPU 6 instructions: 150000001 cycles: 132340789 heartbeat IPC: 1.12853 cumulative IPC: 1.13344 (Simulation time: 57 hr 54 min 44 sec) 
 Total Blocks : 262144 Invalid Blocks : 0
Heartbeat CPU 0 instructions: 150000001 cycles: 132341085 heartbeat IPC: 1.12851 cumulative IPC: 1.13343 (Simulation time: 57 hr 54 min 44 sec) 
 Total Blocks : 262144 Invalid Blocks : 0
Heartbeat CPU 4 instructions: 160000000 cycles: 141163905 heartbeat IPC: 1.13291 cumulative IPC: 1.13343 (Simulation time: 59 hr 5 min 26 sec) 
 Total Blocks : 262144 Invalid Blocks : 0
Heartbeat CPU 7 instructions: 160000000 cycles: 141164687 heartbeat IPC: 1.13289 cumulative IPC: 1.13343 (Simulation time: 59 hr 5 min 27 sec) 
 Total Blocks : 262144 Invalid Blocks : 0
Heartbeat CPU 5 instructions: 160000000 cycles: 141165873 heartbeat IPC: 1.13289 cumulative IPC: 1.13342 (Simulation time: 59 hr 5 min 28 sec) 
 Total Blocks : 262144 Invalid Blocks : 0
Heartbeat CPU 1 instructions: 160000000 cycles: 141167040 heartbeat IPC: 1.13284 cumulative IPC: 1.13341 (Simulation time: 59 hr 5 min 28 sec) 
 Total Blocks : 262144 Invalid Blocks : 0
Heartbeat CPU 2 instructions: 160000000 cycles: 141167352 heartbeat IPC: 1.13286 cumulative IPC: 1.13341 (Simulation time: 59 hr 5 min 28 sec) 
 Total Blocks : 262144 Invalid Blocks : 0
Heartbeat CPU 3 instructions: 160000000 cycles: 141167541 heartbeat IPC: 1.13287 cumulative IPC: 1.1334 (Simulation time: 59 hr 5 min 28 sec) 
 Total Blocks : 262144 Invalid Blocks : 0
Heartbeat CPU 6 instructions: 160000000 cycles: 141167989 heartbeat IPC: 1.13286 cumulative IPC: 1.1334 (Simulation time: 59 hr 5 min 28 sec) 
 Total Blocks : 262144 Invalid Blocks : 0
Heartbeat CPU 0 instructions: 160000000 cycles: 141168221 heartbeat IPC: 1.13287 cumulative IPC: 1.1334 (Simulation time: 59 hr 5 min 28 sec) 
 Total Blocks : 262144 Invalid Blocks : 0
Heartbeat CPU 4 instructions: 170000003 cycles: 149960083 heartbeat IPC: 1.13686 cumulative IPC: 1.13364 (Simulation time: 60 hr 12 min 13 sec) 
 Total Blocks : 262144 Invalid Blocks : 0
Heartbeat CPU 7 instructions: 170000003 cycles: 149961128 heartbeat IPC: 1.13682 cumulative IPC: 1.13363 (Simulation time: 60 hr 12 min 14 sec) 
 Total Blocks : 262144 Invalid Blocks : 0
Heartbeat CPU 5 instructions: 170000003 cycles: 149962241 heartbeat IPC: 1.13683 cumulative IPC: 1.13362 (Simulation time: 60 hr 12 min 14 sec) 
 Total Blocks : 262144 Invalid Blocks : 0
Heartbeat CPU 1 instructions: 170000003 cycles: 149963758 heartbeat IPC: 1.13679 cumulative IPC: 1.13361 (Simulation time: 60 hr 12 min 15 sec) 
 Total Blocks : 262144 Invalid Blocks : 0
Heartbeat CPU 2 instructions: 170000003 cycles: 149964012 heartbeat IPC: 1.1368 cumulative IPC: 1.13361 (Simulation time: 60 hr 12 min 15 sec) 
 Total Blocks : 262144 Invalid Blocks : 0
Heartbeat CPU 3 instructions: 170000003 cycles: 149964175 heartbeat IPC: 1.1368 cumulative IPC: 1.1336 (Simulation time: 60 hr 12 min 15 sec) 
 Total Blocks : 262144 Invalid Blocks : 0
Heartbeat CPU 6 instructions: 170000003 cycles: 149964177 heartbeat IPC: 1.13686 cumulative IPC: 1.1336 (Simulation time: 60 hr 12 min 15 sec) 
 Total Blocks : 262144 Invalid Blocks : 0
Heartbeat CPU 0 instructions: 170000003 cycles: 149964841 heartbeat IPC: 1.1368 cumulative IPC: 1.1336 (Simulation time: 60 hr 12 min 15 sec) 
 Total Blocks : 262144 Invalid Blocks : 0
Heartbeat CPU 4 instructions: 180000000 cycles: 158754133 heartbeat IPC: 1.13713 cumulative IPC: 1.13383 (Simulation time: 61 hr 14 min 3 sec) 
 Total Blocks : 262144 Invalid Blocks : 0
Heartbeat CPU 7 instructions: 180000000 cycles: 158755355 heartbeat IPC: 1.13711 cumulative IPC: 1.13382 (Simulation time: 61 hr 14 min 5 sec) 
 Total Blocks : 262144 Invalid Blocks : 0
Heartbeat CPU 5 instructions: 180000000 cycles: 158756266 heartbeat IPC: 1.13714 cumulative IPC: 1.13381 (Simulation time: 61 hr 14 min 5 sec) 
 Total Blocks : 262144 Invalid Blocks : 0
Heartbeat CPU 1 instructions: 180000000 cycles: 158758226 heartbeat IPC: 1.13708 cumulative IPC: 1.1338 (Simulation time: 61 hr 14 min 5 sec) 
 Total Blocks : 262144 Invalid Blocks : 0
Heartbeat CPU 2 instructions: 180000000 cycles: 158758492 heartbeat IPC: 1.13708 cumulative IPC: 1.1338 (Simulation time: 61 hr 14 min 6 sec) 
 Total Blocks : 262144 Invalid Blocks : 0
Heartbeat CPU 3 instructions: 180000000 cycles: 158758608 heartbeat IPC: 1.13708 cumulative IPC: 1.1338 (Simulation time: 61 hr 14 min 6 sec) 
 Total Blocks : 262144 Invalid Blocks : 0
Heartbeat CPU 6 instructions: 180000000 cycles: 158758674 heartbeat IPC: 1.13707 cumulative IPC: 1.1338 (Simulation time: 61 hr 14 min 6 sec) 
 Total Blocks : 262144 Invalid Blocks : 0
Heartbeat CPU 0 instructions: 180000000 cycles: 158759113 heartbeat IPC: 1.1371 cumulative IPC: 1.13379 (Simulation time: 61 hr 14 min 6 sec) 
 Total Blocks : 262144 Invalid Blocks : 0
Heartbeat CPU 4 instructions: 190000002 cycles: 167576667 heartbeat IPC: 1.13346 cumulative IPC: 1.13381 (Simulation time: 62 hr 15 min 49 sec) 
 Total Blocks : 262144 Invalid Blocks : 0
Heartbeat CPU 7 instructions: 190000002 cycles: 167578050 heartbeat IPC: 1.13344 cumulative IPC: 1.1338 (Simulation time: 62 hr 15 min 50 sec) 
 Total Blocks : 262144 Invalid Blocks : 0
Heartbeat CPU 5 instructions: 190000002 cycles: 167579041 heartbeat IPC: 1.13343 cumulative IPC: 1.13379 (Simulation time: 62 hr 15 min 50 sec) 
 Total Blocks : 262144 Invalid Blocks : 0
Heartbeat CPU 2 instructions: 190000002 cycles: 167581199 heartbeat IPC: 1.13344 cumulative IPC: 1.13378 (Simulation time: 62 hr 15 min 50 sec) 
 Total Blocks : 262144 Invalid Blocks : 0
Heartbeat CPU 1 instructions: 190000002 cycles: 167581226 heartbeat IPC: 1.1334 cumulative IPC: 1.13378 (Simulation time: 62 hr 15 min 50 sec) 
 Total Blocks : 262144 Invalid Blocks : 0
Heartbeat CPU 3 instructions: 190000002 cycles: 167581415 heartbeat IPC: 1.13343 cumulative IPC: 1.13378 (Simulation time: 62 hr 15 min 50 sec) 
 Total Blocks : 262144 Invalid Blocks : 0
Heartbeat CPU 6 instructions: 190000002 cycles: 167581465 heartbeat IPC: 1.13343 cumulative IPC: 1.13378 (Simulation time: 62 hr 15 min 50 sec) 
 Total Blocks : 262144 Invalid Blocks : 0
Heartbeat CPU 0 instructions: 190000002 cycles: 167582273 heartbeat IPC: 1.13338 cumulative IPC: 1.13377 (Simulation time: 62 hr 15 min 50 sec) 
 Total Blocks : 262144 Invalid Blocks : 0
Heartbeat CPU 4 instructions: 200000000 cycles: 176370017 heartbeat IPC: 1.13722 cumulative IPC: 1.13398 (Simulation time: 63 hr 10 min 56 sec) 
 Total Blocks : 262144 Invalid Blocks : 0
Heartbeat CPU 7 instructions: 200000000 cycles: 176371343 heartbeat IPC: 1.13723 cumulative IPC: 1.13397 (Simulation time: 63 hr 10 min 58 sec) 
 Total Blocks : 262144 Invalid Blocks : 0
Heartbeat CPU 5 instructions: 200000000 cycles: 176372434 heartbeat IPC: 1.13722 cumulative IPC: 1.13396 (Simulation time: 63 hr 10 min 59 sec) 
 Total Blocks : 262144 Invalid Blocks : 0
Heartbeat CPU 1 instructions: 200000000 cycles: 176374804 heartbeat IPC: 1.13719 cumulative IPC: 1.13395 (Simulation time: 63 hr 10 min 59 sec) 
 Total Blocks : 262144 Invalid Blocks : 0
Heartbeat CPU 2 instructions: 200000000 cycles: 176375007 heartbeat IPC: 1.13716 cumulative IPC: 1.13395 (Simulation time: 63 hr 10 min 59 sec) 
 Total Blocks : 262144 Invalid Blocks : 0
Heartbeat CPU 3 instructions: 200000000 cycles: 176375052 heartbeat IPC: 1.13719 cumulative IPC: 1.13395 (Simulation time: 63 hr 10 min 59 sec) 
 Total Blocks : 262144 Invalid Blocks : 0
Heartbeat CPU 6 instructions: 200000000 cycles: 176375157 heartbeat IPC: 1.13718 cumulative IPC: 1.13395 (Simulation time: 63 hr 10 min 59 sec) 
 Total Blocks : 262144 Invalid Blocks : 0
Heartbeat CPU 0 instructions: 200000000 cycles: 176375866 heartbeat IPC: 1.13719 cumulative IPC: 1.13394 (Simulation time: 63 hr 10 min 59 sec) 
 Total Blocks : 262144 Invalid Blocks : 0

Warmup complete CPU 0 instructions: 200000001 cycles: 176375868 (Simulation time: 63 hr 10 min 59 sec) 
Warmup complete CPU 1 instructions: 200001443 cycles: 176375867 (Simulation time: 63 hr 10 min 59 sec) 
Warmup complete CPU 2 instructions: 200001226 cycles: 176375867 (Simulation time: 63 hr 10 min 59 sec) 
Warmup complete CPU 3 instructions: 200001156 cycles: 176375867 (Simulation time: 63 hr 10 min 59 sec) 
Warmup complete CPU 4 instructions: 200006752 cycles: 176375867 (Simulation time: 63 hr 10 min 59 sec) 
Warmup complete CPU 5 instructions: 200003814 cycles: 176375867 (Simulation time: 63 hr 10 min 59 sec) 
Warmup complete CPU 6 instructions: 200000943 cycles: 176375867 (Simulation time: 63 hr 10 min 59 sec) 
Warmup complete CPU 7 instructions: 200005007 cycles: 176375867 (Simulation time: 63 hr 10 min 59 sec) 

Heartbeat CPU 4 instructions: 210000003 cycles: 225394094 heartbeat IPC: 0.203981 cumulative IPC: 0.203868 (Simulation time: 64 hr 59 min 40 sec) 
 Total Blocks : 262144 Invalid Blocks : 0
Heartbeat CPU 6 instructions: 210000003 cycles: 225765309 heartbeat IPC: 0.20247 cumulative IPC: 0.202453 (Simulation time: 65 hr 0 min 33 sec) 
 Total Blocks : 262144 Invalid Blocks : 0
Heartbeat CPU 5 instructions: 210000003 cycles: 225866895 heartbeat IPC: 0.202043 cumulative IPC: 0.20198 (Simulation time: 65 hr 0 min 43 sec) 
 Total Blocks : 262144 Invalid Blocks : 0
Heartbeat CPU 0 instructions: 210000003 cycles: 225993638 heartbeat IPC: 0.201541 cumulative IPC: 0.201541 (Simulation time: 65 hr 1 min 1 sec) 
 Total Blocks : 262144 Invalid Blocks : 0
Heartbeat CPU 7 instructions: 210000003 cycles: 226031643 heartbeat IPC: 0.201368 cumulative IPC: 0.201286 (Simulation time: 65 hr 1 min 27 sec) 
 Total Blocks : 262144 Invalid Blocks : 0
Heartbeat CPU 1 instructions: 210000003 cycles: 226072390 heartbeat IPC: 0.201217 cumulative IPC: 0.201192 (Simulation time: 65 hr 1 min 32 sec) 
 Total Blocks : 262144 Invalid Blocks : 0
Heartbeat CPU 2 instructions: 210000003 cycles: 226087312 heartbeat IPC: 0.201157 cumulative IPC: 0.201136 (Simulation time: 65 hr 1 min 33 sec) 
 Total Blocks : 262144 Invalid Blocks : 0
Heartbeat CPU 3 instructions: 210000003 cycles: 226107244 heartbeat IPC: 0.201077 cumulative IPC: 0.201057 (Simulation time: 65 hr 1 min 35 sec) 
 Total Blocks : 262144 Invalid Blocks : 0
Heartbeat CPU 4 instructions: 220000000 cycles: 274607028 heartbeat IPC: 0.203199 cumulative IPC: 0.203533 (Simulation time: 66 hr 52 min 20 sec) 
 Total Blocks : 262144 Invalid Blocks : 0
Heartbeat CPU 6 instructions: 220000000 cycles: 274995265 heartbeat IPC: 0.203128 cumulative IPC: 0.20279 (Simulation time: 66 hr 53 min 19 sec) 
 Total Blocks : 262144 Invalid Blocks : 0
Heartbeat CPU 5 instructions: 220000000 cycles: 275106834 heartbeat IPC: 0.203087 cumulative IPC: 0.202532 (Simulation time: 66 hr 53 min 39 sec) 
 Total Blocks : 262144 Invalid Blocks : 0
Heartbeat CPU 0 instructions: 220000000 cycles: 275339097 heartbeat IPC: 0.202653 cumulative IPC: 0.202095 (Simulation time: 66 hr 54 min 5 sec) 
 Total Blocks : 262144 Invalid Blocks : 0
Heartbeat CPU 7 instructions: 220000000 cycles: 275419097 heartbeat IPC: 0.202481 cumulative IPC: 0.201881 (Simulation time: 66 hr 54 min 14 sec) 
 Total Blocks : 262144 Invalid Blocks : 0
Heartbeat CPU 1 instructions: 220000000 cycles: 275433664 heartbeat IPC: 0.202588 cumulative IPC: 0.201888 (Simulation time: 66 hr 54 min 16 sec) 
 Total Blocks : 262144 Invalid Blocks : 0
Heartbeat CPU 3 instructions: 220000000 cycles: 275486535 heartbeat IPC: 0.202514 cumulative IPC: 0.201783 (Simulation time: 66 hr 54 min 22 sec) 
 Total Blocks : 262144 Invalid Blocks : 0
Heartbeat CPU 2 instructions: 220000000 cycles: 275519566 heartbeat IPC: 0.202297 cumulative IPC: 0.201715 (Simulation time: 66 hr 54 min 26 sec) 
 Total Blocks : 262144 Invalid Blocks : 0
Heartbeat CPU 4 instructions: 230000001 cycles: 322420777 heartbeat IPC: 0.209145 cumulative IPC: 0.20537 (Simulation time: 68 hr 41 min 15 sec) 
 Total Blocks : 262144 Invalid Blocks : 0
Heartbeat CPU 6 instructions: 230000001 cycles: 322929548 heartbeat IPC: 0.208619 cumulative IPC: 0.204697 (Simulation time: 68 hr 42 min 18 sec) 
 Total Blocks : 262144 Invalid Blocks : 0
Heartbeat CPU 5 instructions: 230000001 cycles: 323084587 heartbeat IPC: 0.20843 cumulative IPC: 0.204461 (Simulation time: 68 hr 42 min 37 sec) 
 Total Blocks : 262144 Invalid Blocks : 0
Heartbeat CPU 0 instructions: 230000001 cycles: 323378626 heartbeat IPC: 0.208162 cumulative IPC: 0.204078 (Simulation time: 68 hr 43 min 15 sec) 
 Total Blocks : 262144 Invalid Blocks : 0
Heartbeat CPU 7 instructions: 230000001 cycles: 323551839 heartbeat IPC: 0.207759 cumulative IPC: 0.203804 (Simulation time: 68 hr 43 min 44 sec) 
 Total Blocks : 262144 Invalid Blocks : 0
Heartbeat CPU 3 instructions: 230000001 cycles: 323705489 heartbeat IPC: 0.207387 cumulative IPC: 0.203617 (Simulation time: 68 hr 44 min 6 sec) 
 Total Blocks : 262144 Invalid Blocks : 0
Heartbeat CPU 2 instructions: 230000001 cycles: 323713572 heartbeat IPC: 0.207495 cumulative IPC: 0.203606 (Simulation time: 68 hr 44 min 9 sec) 
 Total Blocks : 262144 Invalid Blocks : 0
Heartbeat CPU 1 instructions: 230000001 cycles: 323731518 heartbeat IPC: 0.207049 cumulative IPC: 0.203579 (Simulation time: 68 hr 44 min 10 sec) 
 Total Blocks : 262144 Invalid Blocks : 0
Heartbeat CPU 4 instructions: 240000000 cycles: 371254616 heartbeat IPC: 0.204776 cumulative IPC: 0.205221 (Simulation time: 70 hr 24 min 0 sec) 
 Total Blocks : 262144 Invalid Blocks : 0
Heartbeat CPU 6 instructions: 240000000 cycles: 371828671 heartbeat IPC: 0.204503 cumulative IPC: 0.204648 (Simulation time: 70 hr 25 min 9 sec) 
 Total Blocks : 262144 Invalid Blocks : 0
Heartbeat CPU 5 instructions: 240000000 cycles: 372020171 heartbeat IPC: 0.20435 cumulative IPC: 0.204433 (Simulation time: 70 hr 25 min 31 sec) 
 Total Blocks : 262144 Invalid Blocks : 0
Heartbeat CPU 0 instructions: 240000000 cycles: 372232189 heartbeat IPC: 0.204693 cumulative IPC: 0.204231 (Simulation time: 70 hr 25 min 52 sec) 
 Total Blocks : 262144 Invalid Blocks : 0
Heartbeat CPU 7 instructions: 240000000 cycles: 372315464 heartbeat IPC: 0.205071 cumulative IPC: 0.204119 (Simulation time: 70 hr 25 min 59 sec) 
 Total Blocks : 262144 Invalid Blocks : 0
Heartbeat CPU 1 instructions: 240000000 cycles: 372841000 heartbeat IPC: 0.203627 cumulative IPC: 0.203591 (Simulation time: 70 hr 26 min 57 sec) 
 Total Blocks : 262144 Invalid Blocks : 0
Heartbeat CPU 3 instructions: 240000000 cycles: 372860286 heartbeat IPC: 0.203439 cumulative IPC: 0.203573 (Simulation time: 70 hr 26 min 59 sec) 
 Total Blocks : 262144 Invalid Blocks : 0
Heartbeat CPU 2 instructions: 240000000 cycles: 372866373 heartbeat IPC: 0.203447 cumulative IPC: 0.203566 (Simulation time: 70 hr 27 min 0 sec) 
 Total Blocks : 262144 Invalid Blocks : 0
Heartbeat CPU 4 instructions: 250000003 cycles: 419921353 heartbeat IPC: 0.205479 cumulative IPC: 0.205273 (Simulation time: 72 hr 0 min 23 sec) 
 Total Blocks : 262144 Invalid Blocks : 0
Heartbeat CPU 6 instructions: 250000003 cycles: 420482905 heartbeat IPC: 0.205532 cumulative IPC: 0.204824 (Simulation time: 72 hr 1 min 26 sec) 
 Total Blocks : 262144 Invalid Blocks : 0
Heartbeat CPU 5 instructions: 250000003 cycles: 420705153 heartbeat IPC: 0.205402 cumulative IPC: 0.204626 (Simulation time: 72 hr 1 min 46 sec) 
 Total Blocks : 262144 Invalid Blocks : 0
Heartbeat CPU 0 instructions: 250000003 cycles: 420974604 heartbeat IPC: 0.20516 cumulative IPC: 0.204416 (Simulation time: 72 hr 2 min 10 sec) 
 Total Blocks : 262144 Invalid Blocks : 0
Heartbeat CPU 7 instructions: 250000003 cycles: 421097175 heartbeat IPC: 0.204995 cumulative IPC: 0.204294 (Simulation time: 72 hr 2 min 25 sec) 
 Total Blocks : 262144 Invalid Blocks : 0
Heartbeat CPU 3 instructions: 250000003 cycles: 421780907 heartbeat IPC: 0.204413 cumulative IPC: 0.20374 (Simulation time: 72 hr 3 min 37 sec) 
 Total Blocks : 262144 Invalid Blocks : 0
Heartbeat CPU 1 instructions: 250000003 cycles: 421784424 heartbeat IPC: 0.204318 cumulative IPC: 0.203736 (Simulation time: 72 hr 3 min 38 sec) 
 Total Blocks : 262144 Invalid Blocks : 0
Heartbeat CPU 2 instructions: 250000003 cycles: 421811552 heartbeat IPC: 0.20431 cumulative IPC: 0.203714 (Simulation time: 72 hr 3 min 43 sec) 
 Total Blocks : 262144 Invalid Blocks : 0
Heartbeat CPU 4 instructions: 260000003 cycles: 468719918 heartbeat IPC: 0.204924 cumulative IPC: 0.205215 (Simulation time: 73 hr 38 min 6 sec) 
 Total Blocks : 262144 Invalid Blocks : 0
Heartbeat CPU 6 instructions: 260000003 cycles: 469263560 heartbeat IPC: 0.204999 cumulative IPC: 0.204853 (Simulation time: 73 hr 38 min 56 sec) 
 Total Blocks : 262144 Invalid Blocks : 0
Heartbeat CPU 5 instructions: 260000003 cycles: 469471273 heartbeat IPC: 0.20506 cumulative IPC: 0.204699 (Simulation time: 73 hr 39 min 15 sec) 
 Total Blocks : 262144 Invalid Blocks : 0
Heartbeat CPU 0 instructions: 260000003 cycles: 469835249 heartbeat IPC: 0.204664 cumulative IPC: 0.204458 (Simulation time: 73 hr 40 min 1 sec) 
 Total Blocks : 262144 Invalid Blocks : 0
Heartbeat CPU 7 instructions: 260000003 cycles: 469989754 heartbeat IPC: 0.20453 cumulative IPC: 0.204333 (Simulation time: 73 hr 40 min 16 sec) 
 Total Blocks : 262144 Invalid Blocks : 0
Heartbeat CPU 3 instructions: 260000003 cycles: 470861131 heartbeat IPC: 0.203748 cumulative IPC: 0.203741 (Simulation time: 73 hr 41 min 45 sec) 
 Total Blocks : 262144 Invalid Blocks : 0
Heartbeat CPU 1 instructions: 260000003 cycles: 470867855 heartbeat IPC: 0.203735 cumulative IPC: 0.203736 (Simulation time: 73 hr 41 min 46 sec) 
 Total Blocks : 262144 Invalid Blocks : 0
Heartbeat CPU 2 instructions: 260000003 cycles: 470913624 heartbeat IPC: 0.203657 cumulative IPC: 0.203705 (Simulation time: 73 hr 41 min 50 sec) 
 Total Blocks : 262144 Invalid Blocks : 0
Heartbeat CPU 4 instructions: 270000000 cycles: 518149865 heartbeat IPC: 0.202306 cumulative IPC: 0.204794 (Simulation time: 75 hr 11 min 50 sec) 
 Total Blocks : 262144 Invalid Blocks : 0
Heartbeat CPU 6 instructions: 270000000 cycles: 518802440 heartbeat IPC: 0.201862 cumulative IPC: 0.204421 (Simulation time: 75 hr 12 min 51 sec) 
 Total Blocks : 262144 Invalid Blocks : 0
Heartbeat CPU 5 instructions: 270000000 cycles: 519043467 heartbeat IPC: 0.201726 cumulative IPC: 0.204268 (Simulation time: 75 hr 13 min 14 sec) 
 Total Blocks : 262144 Invalid Blocks : 0
Heartbeat CPU 0 instructions: 270000000 cycles: 519443666 heartbeat IPC: 0.201579 cumulative IPC: 0.204041 (Simulation time: 75 hr 14 min 3 sec) 
 Total Blocks : 262144 Invalid Blocks : 0
Heartbeat CPU 7 instructions: 270000000 cycles: 519545542 heartbeat IPC: 0.201793 cumulative IPC: 0.203966 (Simulation time: 75 hr 14 min 12 sec) 
 Total Blocks : 262144 Invalid Blocks : 0
Heartbeat CPU 1 instructions: 270000000 cycles: 520707324 heartbeat IPC: 0.200644 cumulative IPC: 0.203288 (Simulation time: 75 hr 16 min 30 sec) 
 Total Blocks : 262144 Invalid Blocks : 0
Heartbeat CPU 3 instructions: 270000000 cycles: 520730809 heartbeat IPC: 0.200523 cumulative IPC: 0.203275 (Simulation time: 75 hr 16 min 36 sec) 
 Total Blocks : 262144 Invalid Blocks : 0
Heartbeat CPU 2 instructions: 270000000 cycles: 520768358 heartbeat IPC: 0.200583 cumulative IPC: 0.203253 (Simulation time: 75 hr 16 min 40 sec) 
 Total Blocks : 262144 Invalid Blocks : 0
Heartbeat CPU 4 instructions: 280000000 cycles: 567670065 heartbeat IPC: 0.201938 cumulative IPC: 0.204432 (Simulation time: 76 hr 46 min 47 sec) 
 Total Blocks : 262144 Invalid Blocks : 0
Heartbeat CPU 6 instructions: 280000000 cycles: 568396729 heartbeat IPC: 0.201636 cumulative IPC: 0.204068 (Simulation time: 76 hr 48 min 4 sec) 
 Total Blocks : 262144 Invalid Blocks : 0
Heartbeat CPU 5 instructions: 280000000 cycles: 568694397 heartbeat IPC: 0.201406 cumulative IPC: 0.203906 (Simulation time: 76 hr 48 min 42 sec) 
 Total Blocks : 262144 Invalid Blocks : 0
Heartbeat CPU 0 instructions: 280000000 cycles: 569148318 heartbeat IPC: 0.201188 cumulative IPC: 0.20368 (Simulation time: 76 hr 49 min 31 sec) 
 Total Blocks : 262144 Invalid Blocks : 0
Heartbeat CPU 7 instructions: 280000000 cycles: 569150642 heartbeat IPC: 0.201592 cumulative IPC: 0.203666 (Simulation time: 76 hr 49 min 32 sec) 
 Total Blocks : 262144 Invalid Blocks : 0
Heartbeat CPU 1 instructions: 280000000 cycles: 570444731 heartbeat IPC: 0.201056 cumulative IPC: 0.203007 (Simulation time: 76 hr 51 min 52 sec) 
 Total Blocks : 262144 Invalid Blocks : 0
Heartbeat CPU 3 instructions: 280000000 cycles: 570466736 heartbeat IPC: 0.201062 cumulative IPC: 0.202996 (Simulation time: 76 hr 51 min 55 sec) 
 Total Blocks : 262144 Invalid Blocks : 0
Heartbeat CPU 2 instructions: 280000000 cycles: 570487207 heartbeat IPC: 0.201131 cumulative IPC: 0.202985 (Simulation time: 76 hr 51 min 56 sec) 
 Total Blocks : 262144 Invalid Blocks : 0
Heartbeat CPU 4 instructions: 290000000 cycles: 616948093 heartbeat IPC: 0.20293 cumulative IPC: 0.204264 (Simulation time: 78 hr 23 min 10 sec) 
 Total Blocks : 262144 Invalid Blocks : 0
Heartbeat CPU 6 instructions: 290000000 cycles: 617663490 heartbeat IPC: 0.202977 cumulative IPC: 0.203946 (Simulation time: 78 hr 24 min 44 sec) 
 Total Blocks : 262144 Invalid Blocks : 0
Heartbeat CPU 5 instructions: 290000000 cycles: 618016655 heartbeat IPC: 0.202748 cumulative IPC: 0.203777 (Simulation time: 78 hr 25 min 19 sec) 
 Total Blocks : 262144 Invalid Blocks : 0
Heartbeat CPU 0 instructions: 290000000 cycles: 618559602 heartbeat IPC: 0.202383 cumulative IPC: 0.203535 (Simulation time: 78 hr 26 min 16 sec) 
 Total Blocks : 262144 Invalid Blocks : 0
Heartbeat CPU 7 instructions: 290000000 cycles: 618633987 heartbeat IPC: 0.202088 cumulative IPC: 0.20349 (Simulation time: 78 hr 26 min 28 sec) 
 Total Blocks : 262144 Invalid Blocks : 0
Heartbeat CPU 1 instructions: 290000000 cycles: 619807397 heartbeat IPC: 0.202582 cumulative IPC: 0.202959 (Simulation time: 78 hr 28 min 47 sec) 
 Total Blocks : 262144 Invalid Blocks : 0
Heartbeat CPU 3 instructions: 290000000 cycles: 620018468 heartbeat IPC: 0.201809 cumulative IPC: 0.202863 (Simulation time: 78 hr 29 min 27 sec) 
 Total Blocks : 262144 Invalid Blocks : 0
Heartbeat CPU 2 instructions: 290000000 cycles: 620037823 heartbeat IPC: 0.201814 cumulative IPC: 0.202854 (Simulation time: 78 hr 29 min 29 sec) 
 Total Blocks : 262144 Invalid Blocks : 0
Heartbeat CPU 4 instructions: 300000001 cycles: 665788129 heartbeat IPC: 0.20475 cumulative IPC: 0.204313 (Simulation time: 80 hr 5 min 14 sec) 
 Total Blocks : 262144 Invalid Blocks : 0
Heartbeat CPU 6 instructions: 300000001 cycles: 666549170 heartbeat IPC: 0.204559 cumulative IPC: 0.204008 (Simulation time: 80 hr 6 min 59 sec) 
 Total Blocks : 262144 Invalid Blocks : 0
Heartbeat CPU 5 instructions: 300000001 cycles: 666780521 heartbeat IPC: 0.20507 cumulative IPC: 0.203905 (Simulation time: 80 hr 7 min 20 sec) 
 Total Blocks : 262144 Invalid Blocks : 0
Heartbeat CPU 0 instructions: 300000001 cycles: 667561088 heartbeat IPC: 0.204075 cumulative IPC: 0.203589 (Simulation time: 80 hr 9 min 4 sec) 
 Total Blocks : 262144 Invalid Blocks : 0
Heartbeat CPU 7 instructions: 300000001 cycles: 667568158 heartbeat IPC: 0.204356 cumulative IPC: 0.203576 (Simulation time: 80 hr 9 min 6 sec) 
 Total Blocks : 262144 Invalid Blocks : 0
Heartbeat CPU 1 instructions: 300000001 cycles: 668660893 heartbeat IPC: 0.204694 cumulative IPC: 0.203131 (Simulation time: 80 hr 11 min 41 sec) 
 Total Blocks : 262144 Invalid Blocks : 0
Heartbeat CPU 3 instructions: 300000001 cycles: 668883209 heartbeat IPC: 0.204647 cumulative IPC: 0.20304 (Simulation time: 80 hr 12 min 1 sec) 
 Total Blocks : 262144 Invalid Blocks : 0
Heartbeat CPU 2 instructions: 300000001 cycles: 668938852 heartbeat IPC: 0.204495 cumulative IPC: 0.203017 (Simulation time: 80 hr 12 min 6 sec) 
 Total Blocks : 262144 Invalid Blocks : 0
Heartbeat CPU 4 instructions: 310000000 cycles: 713843385 heartbeat IPC: 0.208094 cumulative IPC: 0.204651 (Simulation time: 81 hr 46 min 53 sec) 
 Total Blocks : 262144 Invalid Blocks : 0
Heartbeat CPU 6 instructions: 310000003 cycles: 714659273 heartbeat IPC: 0.207857 cumulative IPC: 0.204352 (Simulation time: 81 hr 48 min 41 sec) 
 Total Blocks : 262144 Invalid Blocks : 0
Heartbeat CPU 5 instructions: 310000000 cycles: 714883983 heartbeat IPC: 0.207885 cumulative IPC: 0.204261 (Simulation time: 81 hr 49 min 15 sec) 
 Total Blocks : 262144 Invalid Blocks : 0
Heartbeat CPU 0 instructions: 310000000 cycles: 715701975 heartbeat IPC: 0.207724 cumulative IPC: 0.203958 (Simulation time: 81 hr 51 min 6 sec) 
 Total Blocks : 262144 Invalid Blocks : 0
Heartbeat CPU 7 instructions: 310000000 cycles: 715767754 heartbeat IPC: 0.207471 cumulative IPC: 0.203924 (Simulation time: 81 hr 51 min 14 sec) 
 Total Blocks : 262144 Invalid Blocks : 0
Heartbeat CPU 1 instructions: 310000000 cycles: 716773652 heartbeat IPC: 0.207845 cumulative IPC: 0.203551 (Simulation time: 81 hr 53 min 45 sec) 
 Total Blocks : 262144 Invalid Blocks : 0
Heartbeat CPU 2 instructions: 310000000 cycles: 717125970 heartbeat IPC: 0.207524 cumulative IPC: 0.203419 (Simulation time: 81 hr 54 min 29 sec) 
 Total Blocks : 262144 Invalid Blocks : 0
Heartbeat CPU 3 instructions: 310000000 cycles: 717163258 heartbeat IPC: 0.207125 cumulative IPC: 0.203405 (Simulation time: 81 hr 54 min 33 sec) 
 Total Blocks : 262144 Invalid Blocks : 0
Heartbeat CPU 4 instructions: 320000001 cycles: 762530810 heartbeat IPC: 0.205392 cumulative IPC: 0.204713 (Simulation time: 83 hr 35 min 31 sec) 
 Total Blocks : 262144 Invalid Blocks : 0
Heartbeat CPU 6 instructions: 320000001 cycles: 763435707 heartbeat IPC: 0.205017 cumulative IPC: 0.204407 (Simulation time: 83 hr 37 min 13 sec) 
 Total Blocks : 262144 Invalid Blocks : 0
Heartbeat CPU 5 instructions: 320000001 cycles: 763678266 heartbeat IPC: 0.204942 cumulative IPC: 0.204318 (Simulation time: 83 hr 37 min 52 sec) 
 Total Blocks : 262144 Invalid Blocks : 0
Heartbeat CPU 0 instructions: 320000001 cycles: 764494406 heartbeat IPC: 0.20495 cumulative IPC: 0.20404 (Simulation time: 83 hr 39 min 44 sec) 
 Total Blocks : 262144 Invalid Blocks : 0
Heartbeat CPU 7 instructions: 320000001 cycles: 764612738 heartbeat IPC: 0.204729 cumulative IPC: 0.203991 (Simulation time: 83 hr 40 min 5 sec) 
 Total Blocks : 262144 Invalid Blocks : 0
Heartbeat CPU 1 instructions: 320000001 cycles: 765597311 heartbeat IPC: 0.204819 cumulative IPC: 0.203656 (Simulation time: 83 hr 42 min 28 sec) 
 Total Blocks : 262144 Invalid Blocks : 0
Heartbeat CPU 2 instructions: 320000001 cycles: 765911333 heartbeat IPC: 0.20498 cumulative IPC: 0.203548 (Simulation time: 83 hr 43 min 17 sec) 
 Total Blocks : 262144 Invalid Blocks : 0
Heartbeat CPU 3 instructions: 320000001 cycles: 766016842 heartbeat IPC: 0.204693 cumulative IPC: 0.203512 (Simulation time: 83 hr 43 min 27 sec) 
 Total Blocks : 262144 Invalid Blocks : 0
Heartbeat CPU 4 instructions: 330000000 cycles: 811748295 heartbeat IPC: 0.20318 cumulative IPC: 0.204594 (Simulation time: 85 hr 21 min 54 sec) 
 Total Blocks : 262144 Invalid Blocks : 0
Heartbeat CPU 6 instructions: 330000000 cycles: 812678372 heartbeat IPC: 0.203076 cumulative IPC: 0.204304 (Simulation time: 85 hr 23 min 18 sec) 
 Total Blocks : 262144 Invalid Blocks : 0
Heartbeat CPU 5 instructions: 330000000 cycles: 812940126 heartbeat IPC: 0.202997 cumulative IPC: 0.204215 (Simulation time: 85 hr 23 min 42 sec) 
 Total Blocks : 262144 Invalid Blocks : 0
Heartbeat CPU 0 instructions: 330000000 cycles: 813817702 heartbeat IPC: 0.202744 cumulative IPC: 0.20394 (Simulation time: 85 hr 25 min 0 sec) 
 Total Blocks : 262144 Invalid Blocks : 0
Heartbeat CPU 7 instructions: 330000000 cycles: 813935432 heartbeat IPC: 0.202746 cumulative IPC: 0.203895 (Simulation time: 85 hr 25 min 11 sec) 
 Total Blocks : 262144 Invalid Blocks : 0
Heartbeat CPU 1 instructions: 330000000 cycles: 814884232 heartbeat IPC: 0.202894 cumulative IPC: 0.203597 (Simulation time: 85 hr 26 min 37 sec) 
 Total Blocks : 262144 Invalid Blocks : 0
Heartbeat CPU 2 instructions: 330000000 cycles: 815217802 heartbeat IPC: 0.202813 cumulative IPC: 0.203491 (Simulation time: 85 hr 27 min 11 sec) 
 Total Blocks : 262144 Invalid Blocks : 0
Heartbeat CPU 3 instructions: 330000000 cycles: 815334842 heartbeat IPC: 0.202766 cumulative IPC: 0.203454 (Simulation time: 85 hr 27 min 28 sec) 
 Total Blocks : 262144 Invalid Blocks : 0
Heartbeat CPU 4 instructions: 340000000 cycles: 861242528 heartbeat IPC: 0.202044 cumulative IPC: 0.204409 (Simulation time: 86 hr 41 min 55 sec) 
 Total Blocks : 262144 Invalid Blocks : 0
Heartbeat CPU 6 instructions: 340000000 cycles: 862193882 heartbeat IPC: 0.201957 cumulative IPC: 0.204134 (Simulation time: 86 hr 43 min 23 sec) 
 Total Blocks : 262144 Invalid Blocks : 0
Heartbeat CPU 5 instructions: 340000000 cycles: 862350538 heartbeat IPC: 0.202386 cumulative IPC: 0.204084 (Simulation time: 86 hr 43 min 38 sec) 
 Total Blocks : 262144 Invalid Blocks : 0
Heartbeat CPU 0 instructions: 340000000 cycles: 863291576 heartbeat IPC: 0.202127 cumulative IPC: 0.20381 (Simulation time: 86 hr 45 min 11 sec) 
 Total Blocks : 262144 Invalid Blocks : 0
Heartbeat CPU 7 instructions: 340000000 cycles: 863402328 heartbeat IPC: 0.202155 cumulative IPC: 0.203769 (Simulation time: 86 hr 45 min 21 sec) 
 Total Blocks : 262144 Invalid Blocks : 0
Heartbeat CPU 1 instructions: 340000000 cycles: 864312208 heartbeat IPC: 0.202315 cumulative IPC: 0.203505 (Simulation time: 86 hr 46 min 46 sec) 
 Total Blocks : 262144 Invalid Blocks : 0
Heartbeat CPU 2 instructions: 340000000 cycles: 864725299 heartbeat IPC: 0.20199 cumulative IPC: 0.203383 (Simulation time: 86 hr 47 min 25 sec) 
 Total Blocks : 262144 Invalid Blocks : 0
Heartbeat CPU 3 instructions: 340000000 cycles: 864766082 heartbeat IPC: 0.202301 cumulative IPC: 0.203371 (Simulation time: 86 hr 47 min 30 sec) 
 Total Blocks : 262144 Invalid Blocks : 0
Heartbeat CPU 4 instructions: 350000001 cycles: 911213745 heartbeat IPC: 0.200115 cumulative IPC: 0.204117 (Simulation time: 88 hr 1 min 18 sec) 
 Total Blocks : 262144 Invalid Blocks : 0
Heartbeat CPU 6 instructions: 350000001 cycles: 912173861 heartbeat IPC: 0.20008 cumulative IPC: 0.203859 (Simulation time: 88 hr 2 min 35 sec) 
 Total Blocks : 262144 Invalid Blocks : 0
Heartbeat CPU 5 instructions: 350000001 cycles: 912301099 heartbeat IPC: 0.200198 cumulative IPC: 0.20382 (Simulation time: 88 hr 2 min 48 sec) 
 Total Blocks : 262144 Invalid Blocks : 0
Heartbeat CPU 0 instructions: 350000001 cycles: 913349838 heartbeat IPC: 0.199767 cumulative IPC: 0.203535 (Simulation time: 88 hr 4 min 29 sec) 
 Total Blocks : 262144 Invalid Blocks : 0
Heartbeat CPU 7 instructions: 350000001 cycles: 913421382 heartbeat IPC: 0.199924 cumulative IPC: 0.203508 (Simulation time: 88 hr 4 min 35 sec) 
 Total Blocks : 262144 Invalid Blocks : 0
Heartbeat CPU 1 instructions: 350000001 cycles: 914388949 heartbeat IPC: 0.199694 cumulative IPC: 0.203246 (Simulation time: 88 hr 5 min 56 sec) 
 Total Blocks : 262144 Invalid Blocks : 0
Heartbeat CPU 2 instructions: 350000001 cycles: 914791911 heartbeat IPC: 0.199734 cumulative IPC: 0.203136 (Simulation time: 88 hr 6 min 32 sec) 
 Total Blocks : 262144 Invalid Blocks : 0
Heartbeat CPU 3 instructions: 350000001 cycles: 914862160 heartbeat IPC: 0.199616 cumulative IPC: 0.203117 (Simulation time: 88 hr 6 min 36 sec) 
 Total Blocks : 262144 Invalid Blocks : 0
Heartbeat CPU 4 instructions: 360000002 cycles: 960488551 heartbeat IPC: 0.202943 cumulative IPC: 0.204044 (Simulation time: 89 hr 19 min 29 sec) 
 Total Blocks : 262144 Invalid Blocks : 0
Heartbeat CPU 6 instructions: 360000002 cycles: 961524630 heartbeat IPC: 0.202631 cumulative IPC: 0.203782 (Simulation time: 89 hr 21 min 9 sec) 
 Total Blocks : 262144 Invalid Blocks : 0
Heartbeat CPU 5 instructions: 360000002 cycles: 961650188 heartbeat IPC: 0.202638 cumulative IPC: 0.203746 (Simulation time: 89 hr 21 min 21 sec) 
 Total Blocks : 262144 Invalid Blocks : 0
Heartbeat CPU 0 instructions: 360000002 cycles: 962784874 heartbeat IPC: 0.202286 cumulative IPC: 0.203456 (Simulation time: 89 hr 23 min 22 sec) 
 Total Blocks : 262144 Invalid Blocks : 0
Heartbeat CPU 7 instructions: 360000002 cycles: 962868352 heartbeat IPC: 0.202237 cumulative IPC: 0.203429 (Simulation time: 89 hr 23 min 29 sec) 
 Total Blocks : 262144 Invalid Blocks : 0
Heartbeat CPU 1 instructions: 360000002 cycles: 963731176 heartbeat IPC: 0.202666 cumulative IPC: 0.20321 (Simulation time: 89 hr 24 min 50 sec) 
 Total Blocks : 262144 Invalid Blocks : 0
Heartbeat CPU 2 instructions: 360000002 cycles: 964233548 heartbeat IPC: 0.202259 cumulative IPC: 0.203081 (Simulation time: 89 hr 25 min 39 sec) 
 Total Blocks : 262144 Invalid Blocks : 0
Heartbeat CPU 3 instructions: 360000002 cycles: 964335128 heartbeat IPC: 0.202131 cumulative IPC: 0.203055 (Simulation time: 89 hr 25 min 46 sec) 
 Total Blocks : 262144 Invalid Blocks : 0
Heartbeat CPU 4 instructions: 370000001 cycles: 1009203969 heartbeat IPC: 0.205274 cumulative IPC: 0.204116 (Simulation time: 90 hr 37 min 54 sec) 
 Total Blocks : 262144 Invalid Blocks : 0
Heartbeat CPU 6 instructions: 370000001 cycles: 1010401156 heartbeat IPC: 0.204597 cumulative IPC: 0.20383 (Simulation time: 90 hr 39 min 37 sec) 
 Total Blocks : 262144 Invalid Blocks : 0
Heartbeat CPU 5 instructions: 370000001 cycles: 1010545137 heartbeat IPC: 0.20452 cumulative IPC: 0.203791 (Simulation time: 90 hr 39 min 53 sec) 
 Total Blocks : 262144 Invalid Blocks : 0
Heartbeat CPU 0 instructions: 370000001 cycles: 1011565655 heartbeat IPC: 0.204999 cumulative IPC: 0.203547 (Simulation time: 90 hr 41 min 20 sec) 
 Total Blocks : 262144 Invalid Blocks : 0
Heartbeat CPU 7 instructions: 370000001 cycles: 1011685245 heartbeat IPC: 0.204847 cumulative IPC: 0.203511 (Simulation time: 90 hr 41 min 31 sec) 
 Total Blocks : 262144 Invalid Blocks : 0
Heartbeat CPU 1 instructions: 370000001 cycles: 1012540928 heartbeat IPC: 0.204877 cumulative IPC: 0.203307 (Simulation time: 90 hr 42 min 41 sec) 
 Total Blocks : 262144 Invalid Blocks : 0
Heartbeat CPU 2 instructions: 370000001 cycles: 1013071996 heartbeat IPC: 0.204757 cumulative IPC: 0.203179 (Simulation time: 90 hr 43 min 34 sec) 
 Total Blocks : 262144 Invalid Blocks : 0
Heartbeat CPU 3 instructions: 370000001 cycles: 1013116709 heartbeat IPC: 0.204995 cumulative IPC: 0.203168 (Simulation time: 90 hr 43 min 37 sec) 
 Total Blocks : 262144 Invalid Blocks : 0
Heartbeat CPU 4 instructions: 380000001 cycles: 1057928792 heartbeat IPC: 0.205234 cumulative IPC: 0.204177 (Simulation time: 91 hr 53 min 16 sec) 
 Total Blocks : 262144 Invalid Blocks : 0
Heartbeat CPU 6 instructions: 380000001 cycles: 1059260516 heartbeat IPC: 0.204669 cumulative IPC: 0.203876 (Simulation time: 91 hr 55 min 21 sec) 
 Total Blocks : 262144 Invalid Blocks : 0
Heartbeat CPU 5 instructions: 380000001 cycles: 1059354843 heartbeat IPC: 0.204877 cumulative IPC: 0.203851 (Simulation time: 91 hr 55 min 33 sec) 
 Total Blocks : 262144 Invalid Blocks : 0
Heartbeat CPU 0 instructions: 380000001 cycles: 1060447611 heartbeat IPC: 0.204574 cumulative IPC: 0.203603 (Simulation time: 91 hr 57 min 22 sec) 
 Total Blocks : 262144 Invalid Blocks : 0
Heartbeat CPU 7 instructions: 380000001 cycles: 1060484880 heartbeat IPC: 0.20492 cumulative IPC: 0.203589 (Simulation time: 91 hr 57 min 28 sec) 
 Total Blocks : 262144 Invalid Blocks : 0
Heartbeat CPU 1 instructions: 380000001 cycles: 1061374167 heartbeat IPC: 0.204779 cumulative IPC: 0.203389 (Simulation time: 91 hr 59 min 3 sec) 
 Total Blocks : 262144 Invalid Blocks : 0
Heartbeat CPU 3 instructions: 380000001 cycles: 1061907424 heartbeat IPC: 0.204957 cumulative IPC: 0.203266 (Simulation time: 92 hr 0 min 10 sec) 
 Total Blocks : 262144 Invalid Blocks : 0
Heartbeat CPU 2 instructions: 380000001 cycles: 1061911729 heartbeat IPC: 0.204751 cumulative IPC: 0.203265 (Simulation time: 92 hr 0 min 11 sec) 
 Total Blocks : 262144 Invalid Blocks : 0
Heartbeat CPU 4 instructions: 390000002 cycles: 1106121504 heartbeat IPC: 0.2075 cumulative IPC: 0.20435 (Simulation time: 93 hr 10 min 21 sec) 
 Total Blocks : 262144 Invalid Blocks : 0
Heartbeat CPU 6 instructions: 390000002 cycles: 1107529476 heartbeat IPC: 0.207172 cumulative IPC: 0.204047 (Simulation time: 93 hr 12 min 17 sec) 
 Total Blocks : 262144 Invalid Blocks : 0
Heartbeat CPU 5 instructions: 390000002 cycles: 1107604740 heartbeat IPC: 0.207254 cumulative IPC: 0.204027 (Simulation time: 93 hr 12 min 22 sec) 
 Total Blocks : 262144 Invalid Blocks : 0
Heartbeat CPU 0 instructions: 390000002 cycles: 1108785273 heartbeat IPC: 0.206878 cumulative IPC: 0.203773 (Simulation time: 93 hr 13 min 54 sec) 
 Total Blocks : 262144 Invalid Blocks : 0
Heartbeat CPU 7 instructions: 390000002 cycles: 1108788201 heartbeat IPC: 0.207025 cumulative IPC: 0.203767 (Simulation time: 93 hr 13 min 55 sec) 
 Total Blocks : 262144 Invalid Blocks : 0
Heartbeat CPU 1 instructions: 390000002 cycles: 1109709274 heartbeat IPC: 0.206889 cumulative IPC: 0.20357 (Simulation time: 93 hr 15 min 16 sec) 
 Total Blocks : 262144 Invalid Blocks : 0
Heartbeat CPU 2 instructions: 390000002 cycles: 1110305579 heartbeat IPC: 0.206638 cumulative IPC: 0.20344 (Simulation time: 93 hr 16 min 8 sec) 
 Total Blocks : 262144 Invalid Blocks : 0
Heartbeat CPU 3 instructions: 390000002 cycles: 1110313852 heartbeat IPC: 0.206584 cumulative IPC: 0.203438 (Simulation time: 93 hr 16 min 10 sec) 
 Total Blocks : 262144 Invalid Blocks : 0
Heartbeat CPU 4 instructions: 400000001 cycles: 1155805564 heartbeat IPC: 0.201272 cumulative IPC: 0.204194 (Simulation time: 94 hr 27 min 24 sec) 
 Total Blocks : 262144 Invalid Blocks : 0
Finished CPU 4 instructions: 200000003 cycles: 979479435 cumulative IPC: 0.20419 (Simulation time: 94 hr 27 min 27 sec) 
Heartbeat CPU 6 instructions: 400000001 cycles: 1157285971 heartbeat IPC: 0.200979 cumulative IPC: 0.203891 (Simulation time: 94 hr 29 min 42 sec) 
 Total Blocks : 262144 Invalid Blocks : 0
Finished CPU 6 instructions: 200000000 cycles: 980919760 cumulative IPC: 0.20389 (Simulation time: 94 hr 29 min 43 sec) 
Heartbeat CPU 5 instructions: 400000001 cycles: 1157318483 heartbeat IPC: 0.201152 cumulative IPC: 0.203882 (Simulation time: 94 hr 29 min 45 sec) 
 Total Blocks : 262144 Invalid Blocks : 0
Finished CPU 5 instructions: 200000001 cycles: 980972537 cumulative IPC: 0.203879 (Simulation time: 94 hr 29 min 47 sec) 
Heartbeat CPU 7 instructions: 400000001 cycles: 1158563790 heartbeat IPC: 0.200902 cumulative IPC: 0.203622 (Simulation time: 94 hr 32 min 10 sec) 
 Total Blocks : 262144 Invalid Blocks : 0
Heartbeat CPU 0 instructions: 400000001 cycles: 1158571990 heartbeat IPC: 0.200857 cumulative IPC: 0.203625 (Simulation time: 94 hr 32 min 11 sec) 
 Total Blocks : 262144 Invalid Blocks : 0
Finished CPU 0 instructions: 200000000 cycles: 982196122 cumulative IPC: 0.203625 (Simulation time: 94 hr 32 min 11 sec) 
Finished CPU 7 instructions: 200000000 cycles: 982225950 cumulative IPC: 0.203619 (Simulation time: 94 hr 32 min 15 sec) 
Heartbeat CPU 1 instructions: 400000001 cycles: 1159344598 heartbeat IPC: 0.201469 cumulative IPC: 0.203464 (Simulation time: 94 hr 33 min 33 sec) 
 Total Blocks : 262144 Invalid Blocks : 0
Finished CPU 1 instructions: 200000000 cycles: 982977749 cumulative IPC: 0.203463 (Simulation time: 94 hr 33 min 35 sec) 
Heartbeat CPU 2 instructions: 400000001 cycles: 1159999995 heartbeat IPC: 0.20123 cumulative IPC: 0.203328 (Simulation time: 94 hr 34 min 47 sec) 
 Total Blocks : 262144 Invalid Blocks : 0
Finished CPU 2 instructions: 200000002 cycles: 983632179 cumulative IPC: 0.203328 (Simulation time: 94 hr 34 min 51 sec) 
Heartbeat CPU 3 instructions: 400000001 cycles: 1160075569 heartbeat IPC: 0.200958 cumulative IPC: 0.203313 (Simulation time: 94 hr 35 min 0 sec) 
 Total Blocks : 262144 Invalid Blocks : 0
Finished CPU 3 instructions: 200000001 cycles: 983708231 cumulative IPC: 0.203312 (Simulation time: 94 hr 35 min 1 sec) 

CPU 0 Branch Prediction Accuracy: 94.2234% MPKI: 8.5859 Average ROB Occupancy at Mispredict: 102.337

CPU 1 Branch Prediction Accuracy: 94.2233% MPKI: 8.58645 Average ROB Occupancy at Mispredict: 102.322

CPU 2 Branch Prediction Accuracy: 94.2237% MPKI: 8.58575 Average ROB Occupancy at Mispredict: 102.341

CPU 3 Branch Prediction Accuracy: 94.2237% MPKI: 8.58574 Average ROB Occupancy at Mispredict: 102.331

CPU 4 Branch Prediction Accuracy: 94.2223% MPKI: 8.58723 Average ROB Occupancy at Mispredict: 102.299

CPU 5 Branch Prediction Accuracy: 94.2229% MPKI: 8.58641 Average ROB Occupancy at Mispredict: 102.333

CPU 6 Branch Prediction Accuracy: 94.2228% MPKI: 8.58667 Average ROB Occupancy at Mispredict: 102.318

CPU 7 Branch Prediction Accuracy: 94.2234% MPKI: 8.58566 Average ROB Occupancy at Mispredict: 102.346

ChampSim completed all CPUs

Total Simulation Statistics (not including warmup)

CPU 0 cumulative IPC: 0.203636 instructions: 200318081 cycles: 983708230
ITLB TOTAL     ACCESS: 33031997  HIT: 32712585  MISS: 319412  HIT %: 99.033  MISS %: 0.966978  AVERAGE MISS PENALTY: 10.9482
ITLB LOAD      ACCESS: 33031997  HIT: 32712585  MISS: 319412  HIT %: 99.033  MISS %: 0.966978  AVERAGE MISS PENALTY: 10.9482
ITLB RFO       ACCESS:     0  HIT:     0  MISS:     0  HIT %:     0  MISS %:     0  AVERAGE MISS PENALTY: 0
ITLB PREFETCH  ACCESS:     0  HIT:     0  MISS:     0  HIT %:     0  MISS %:     0  AVERAGE MISS PENALTY: 0
ITLB WRITEBACK ACCESS:     0  HIT:     0  MISS:     0  HIT %:     0  MISS %:     0  AVERAGE MISS PENALTY: 0

DTLB TOTAL     ACCESS: 80725728  HIT: 76895192  MISS: 3830536  HIT %: 95.2549  MISS %: 4.74512  AVERAGE MISS PENALTY: 35.4865
DTLB LOAD      ACCESS: 49614187  HIT: 46211531  MISS: 3402656  HIT %: 93.1418  MISS %: 6.85823  AVERAGE MISS PENALTY: 32.9897
DTLB RFO       ACCESS: 31111541  HIT: 30683661  MISS: 427880  HIT %: 98.6247  MISS %: 1.37531  AVERAGE MISS PENALTY: 55.3423
DTLB PREFETCH  ACCESS:     0  HIT:     0  MISS:     0  HIT %:     0  MISS %:     0  AVERAGE MISS PENALTY: 0
DTLB WRITEBACK ACCESS:     0  HIT:     0  MISS:     0  HIT %:     0  MISS %:     0  AVERAGE MISS PENALTY: 0

STLB TOTAL     ACCESS: 4149948  HIT: 3290809  MISS: 859139  HIT %: 79.2976  MISS %: 20.7024  AVERAGE MISS PENALTY: 100
STLB LOAD      ACCESS: 3722068  HIT: 3016655  MISS: 705413  HIT %: 81.0478  MISS %: 18.9522  AVERAGE MISS PENALTY: 100
STLB RFO       ACCESS: 427880  HIT: 274154  MISS: 153726  HIT %: 64.0726  MISS %: 35.9274  AVERAGE MISS PENALTY: 100
STLB PREFETCH  ACCESS:     0  HIT:     0  MISS:     0  HIT %:     0  MISS %:     0  AVERAGE MISS PENALTY: 0
STLB WRITEBACK ACCESS:     0  HIT:     0  MISS:     0  HIT %:     0  MISS %:     0  AVERAGE MISS PENALTY: 0

L1D TOTAL     ACCESS: 115608417  HIT: 108525512  MISS: 7082905  HIT %: 93.8734  MISS %: 6.12663  AVERAGE MISS PENALTY: 8.02916e+06
L1D LOAD      ACCESS: 51819738  HIT: 48856954  MISS: 2962784  HIT %: 94.2825  MISS %: 5.71748  AVERAGE MISS PENALTY: 1.47913e+07
L1D RFO       ACCESS: 36754760  HIT: 36439119  MISS: 315641  HIT %: 99.1412  MISS %: 0.858776  AVERAGE MISS PENALTY: 4.13304e+07
L1D PREFETCH  ACCESS: 27033919  HIT: 23229439  MISS: 3804480  HIT %: 85.927  MISS %: 14.073  AVERAGE MISS PENALTY: 184.027
L1D WRITEBACK ACCESS:     0  HIT:     0  MISS:     0  HIT %:     0  MISS %:     0  AVERAGE MISS PENALTY: 0

L1I TOTAL     ACCESS: 43356114  HIT: 43279110  MISS: 77004  HIT %: 99.8224  MISS %: 0.177608  AVERAGE MISS PENALTY: 60.6405
L1I LOAD      ACCESS: 43356114  HIT: 43279110  MISS: 77004  HIT %: 99.8224  MISS %: 0.177608  AVERAGE MISS PENALTY: 60.6405
L1I RFO       ACCESS:     0  HIT:     0  MISS:     0  HIT %:     0  MISS %:     0  AVERAGE MISS PENALTY: 0
L1I PREFETCH  ACCESS:     0  HIT:     0  MISS:     0  HIT %:     0  MISS %:     0  AVERAGE MISS PENALTY: 0
L1I WRITEBACK ACCESS:     0  HIT:     0  MISS:     0  HIT %:     0  MISS %:     0  AVERAGE MISS PENALTY: 0

L2C TOTAL     ACCESS: 11957301  HIT: 5736540  MISS: 6220761  HIT %: 47.9752  MISS %: 52.0248  AVERAGE MISS PENALTY: 8.04947e+06
L2C LOAD      ACCESS: 3034762  HIT: 1180983  MISS: 1853779  HIT %: 38.9152  MISS %: 61.0848  AVERAGE MISS PENALTY: 2.56657e+07
L2C RFO       ACCESS: 296083  HIT: 103223  MISS: 192860  HIT %: 34.8629  MISS %: 65.1371  AVERAGE MISS PENALTY: 1.29331e+07
L2C PREFETCH  ACCESS: 6700175  HIT: 2533619  MISS: 4166556  HIT %: 37.8142  MISS %: 62.1858  AVERAGE MISS PENALTY: 262.949
L2C WRITEBACK ACCESS: 1926281  HIT: 1918715  MISS:  7566  HIT %: 99.6072  MISS %: 0.392778  AVERAGE MISS PENALTY: 0


LLC0 TOTAL     ACCESS: 918845  HIT: 318681  MISS: 600164  HIT %: 34.6828  MISS %: 65.3172  AVERAGE MISS PENALTY: 264.936
LLC0 LOAD      ACCESS: 234027  HIT: 57910  MISS: 176117  HIT %: 24.745  MISS %: 75.255  AVERAGE MISS PENALTY: 276.816
LLC0 RFO       ACCESS: 25514  HIT: 10014  MISS: 15500  HIT %: 39.249  MISS %: 60.751  AVERAGE MISS PENALTY: 269.93
LLC0 PREFETCH  ACCESS: 480317  HIT: 102822  MISS: 377495  HIT %: 21.4071  MISS %: 78.5929  AVERAGE MISS PENALTY: 280.982
LLC0 WRITEBACK ACCESS: 178987  HIT: 147935  MISS: 31052  HIT %: 82.6513  MISS %: 17.3487  AVERAGE MISS PENALTY: 0

LLC1 TOTAL     ACCESS: 943981  HIT: 325900  MISS: 618081  HIT %: 34.524  MISS %: 65.476  AVERAGE MISS PENALTY: 267.255
LLC1 LOAD      ACCESS: 224120  HIT: 54172  MISS: 169948  HIT %: 24.171  MISS %: 75.829  AVERAGE MISS PENALTY: 279.436
LLC1 RFO       ACCESS: 23954  HIT:  9295  MISS: 14659  HIT %: 38.8035  MISS %: 61.1965  AVERAGE MISS PENALTY: 273.215
LLC1 PREFETCH  ACCESS: 516974  HIT: 113794  MISS: 403180  HIT %: 22.0116  MISS %: 77.9884  AVERAGE MISS PENALTY: 281.986
LLC1 WRITEBACK ACCESS: 178933  HIT: 148639  MISS: 30294  HIT %: 83.0696  MISS %: 16.9304  AVERAGE MISS PENALTY: 0

LLC2 TOTAL     ACCESS: 959300  HIT: 327821  MISS: 631479  HIT %: 34.1729  MISS %: 65.8271  AVERAGE MISS PENALTY: 273.416
LLC2 LOAD      ACCESS: 222938  HIT: 54790  MISS: 168148  HIT %: 24.5763  MISS %: 75.4237  AVERAGE MISS PENALTY: 280.316
LLC2 RFO       ACCESS: 22939  HIT:  8845  MISS: 14094  HIT %: 38.5588  MISS %: 61.4412  AVERAGE MISS PENALTY: 274.668
LLC2 PREFETCH  ACCESS: 533582  HIT: 114968  MISS: 418614  HIT %: 21.5465  MISS %: 78.4535  AVERAGE MISS PENALTY: 290.604
LLC2 WRITEBACK ACCESS: 179841  HIT: 149218  MISS: 30623  HIT %: 82.9722  MISS %: 17.0278  AVERAGE MISS PENALTY: 0

LLC3 TOTAL     ACCESS: 961594  HIT: 330514  MISS: 631080  HIT %: 34.3715  MISS %: 65.6285  AVERAGE MISS PENALTY: 274.905
LLC3 LOAD      ACCESS: 221680  HIT: 54699  MISS: 166981  HIT %: 24.6748  MISS %: 75.3252  AVERAGE MISS PENALTY: 282.196
LLC3 RFO       ACCESS: 22977  HIT:  8895  MISS: 14082  HIT %: 38.7126  MISS %: 61.2874  AVERAGE MISS PENALTY: 277.381
LLC3 PREFETCH  ACCESS: 536298  HIT: 117121  MISS: 419177  HIT %: 21.8388  MISS %: 78.1612  AVERAGE MISS PENALTY: 292.142
LLC3 WRITEBACK ACCESS: 180639  HIT: 149799  MISS: 30840  HIT %: 82.9273  MISS %: 17.0727  AVERAGE MISS PENALTY: 0

LLC4 TOTAL     ACCESS: 969454  HIT: 337752  MISS: 631702  HIT %: 34.8394  MISS %: 65.1606  AVERAGE MISS PENALTY: 269.05
LLC4 LOAD      ACCESS: 229087  HIT: 59725  MISS: 169362  HIT %: 26.0709  MISS %: 73.9291  AVERAGE MISS PENALTY: 281.427
LLC4 RFO       ACCESS: 23608  HIT:  9219  MISS: 14389  HIT %: 39.0503  MISS %: 60.9497  AVERAGE MISS PENALTY: 273.08
LLC4 PREFETCH  ACCESS: 535093  HIT: 117546  MISS: 417547  HIT %: 21.9674  MISS %: 78.0326  AVERAGE MISS PENALTY: 283.482
LLC4 WRITEBACK ACCESS: 181666  HIT: 151262  MISS: 30404  HIT %: 83.2638  MISS %: 16.7362  AVERAGE MISS PENALTY: 0

LLC5 TOTAL     ACCESS: 972097  HIT: 339170  MISS: 632927  HIT %: 34.8906  MISS %: 65.1094  AVERAGE MISS PENALTY: 269.317
LLC5 LOAD      ACCESS: 225891  HIT: 58163  MISS: 167728  HIT %: 25.7483  MISS %: 74.2517  AVERAGE MISS PENALTY: 281.203
LLC5 RFO       ACCESS: 23559  HIT:  9123  MISS: 14436  HIT %: 38.7241  MISS %: 61.2759  AVERAGE MISS PENALTY: 276.967
LLC5 PREFETCH  ACCESS: 542015  HIT: 121462  MISS: 420553  HIT %: 22.4093  MISS %: 77.5907  AVERAGE MISS PENALTY: 283.659
LLC5 WRITEBACK ACCESS: 180632  HIT: 150422  MISS: 30210  HIT %: 83.2754  MISS %: 16.7246  AVERAGE MISS PENALTY: 0

LLC6 TOTAL     ACCESS: 969089  HIT: 336062  MISS: 633027  HIT %: 34.6781  MISS %: 65.3219  AVERAGE MISS PENALTY: 276.29
LLC6 LOAD      ACCESS: 226957  HIT: 57212  MISS: 169745  HIT %: 25.2083  MISS %: 74.7917  AVERAGE MISS PENALTY: 282.565
LLC6 RFO       ACCESS: 23265  HIT:  8928  MISS: 14337  HIT %: 38.3752  MISS %: 61.6248  AVERAGE MISS PENALTY: 278.427
LLC6 PREFETCH  ACCESS: 536889  HIT: 118815  MISS: 418074  HIT %: 22.1303  MISS %: 77.8697  AVERAGE MISS PENALTY: 294.07
LLC6 WRITEBACK ACCESS: 181978  HIT: 151107  MISS: 30871  HIT %: 83.0359  MISS %: 16.9641  AVERAGE MISS PENALTY: 0

LLC7 TOTAL     ACCESS: 962809  HIT: 328239  MISS: 634570  HIT %: 34.0918  MISS %: 65.9082  AVERAGE MISS PENALTY: 275.37
LLC7 LOAD      ACCESS: 223027  HIT: 54179  MISS: 168848  HIT %: 24.2926  MISS %: 75.7074  AVERAGE MISS PENALTY: 283.947
LLC7 RFO       ACCESS: 23352  HIT:  8947  MISS: 14405  HIT %: 38.3136  MISS %: 61.6864  AVERAGE MISS PENALTY: 277.698
LLC7 PREFETCH  ACCESS: 535121  HIT: 117221  MISS: 417900  HIT %: 21.9055  MISS %: 78.0945  AVERAGE MISS PENALTY: 293.844
LLC7 WRITEBACK ACCESS: 181309  HIT: 147892  MISS: 33417  HIT %: 81.569  MISS %: 18.431  AVERAGE MISS PENALTY: 0

Total Rob stall cycles : 	925947813
Total Load Rob Stall cycles : 	312923816
Average Rob Stall cycles : 	 13
Average Load Rob Stall cycles : 	 34

CPU 1 cumulative IPC: 0.203459 instructions: 200144319 cycles: 983708231
ITLB TOTAL     ACCESS: 33010891  HIT: 32691640  MISS: 319251  HIT %: 99.0329  MISS %: 0.967108  AVERAGE MISS PENALTY: 10.957
ITLB LOAD      ACCESS: 33010891  HIT: 32691640  MISS: 319251  HIT %: 99.0329  MISS %: 0.967108  AVERAGE MISS PENALTY: 10.957
ITLB RFO       ACCESS:     0  HIT:     0  MISS:     0  HIT %:     0  MISS %:     0  AVERAGE MISS PENALTY: 0
ITLB PREFETCH  ACCESS:     0  HIT:     0  MISS:     0  HIT %:     0  MISS %:     0  AVERAGE MISS PENALTY: 0
ITLB WRITEBACK ACCESS:     0  HIT:     0  MISS:     0  HIT %:     0  MISS %:     0  AVERAGE MISS PENALTY: 0

DTLB TOTAL     ACCESS: 80653600  HIT: 76826173  MISS: 3827427  HIT %: 95.2545  MISS %: 4.74551  AVERAGE MISS PENALTY: 35.4666
DTLB LOAD      ACCESS: 49569301  HIT: 46169183  MISS: 3400118  HIT %: 93.1407  MISS %: 6.85932  AVERAGE MISS PENALTY: 32.9852
DTLB RFO       ACCESS: 31084299  HIT: 30656990  MISS: 427309  HIT %: 98.6253  MISS %: 1.37468  AVERAGE MISS PENALTY: 55.2112
DTLB PREFETCH  ACCESS:     0  HIT:     0  MISS:     0  HIT %:     0  MISS %:     0  AVERAGE MISS PENALTY: 0
DTLB WRITEBACK ACCESS:     0  HIT:     0  MISS:     0  HIT %:     0  MISS %:     0  AVERAGE MISS PENALTY: 0

STLB TOTAL     ACCESS: 4146678  HIT: 3288113  MISS: 858565  HIT %: 79.2951  MISS %: 20.7049  AVERAGE MISS PENALTY: 100
STLB LOAD      ACCESS: 3719369  HIT: 3014275  MISS: 705094  HIT %: 81.0426  MISS %: 18.9574  AVERAGE MISS PENALTY: 100
STLB RFO       ACCESS: 427309  HIT: 273838  MISS: 153471  HIT %: 64.0843  MISS %: 35.9157  AVERAGE MISS PENALTY: 100
STLB PREFETCH  ACCESS:     0  HIT:     0  MISS:     0  HIT %:     0  MISS %:     0  AVERAGE MISS PENALTY: 0
STLB WRITEBACK ACCESS:     0  HIT:     0  MISS:     0  HIT %:     0  MISS %:     0  AVERAGE MISS PENALTY: 0

L1D TOTAL     ACCESS: 115516843  HIT: 108436598  MISS: 7080245  HIT %: 93.8708  MISS %: 6.12919  AVERAGE MISS PENALTY: 7.98462e+06
L1D LOAD      ACCESS: 51771847  HIT: 48811032  MISS: 2960815  HIT %: 94.281  MISS %: 5.71897  AVERAGE MISS PENALTY: 1.47485e+07
L1D RFO       ACCESS: 36723316  HIT: 36408337  MISS: 314979  HIT %: 99.1423  MISS %: 0.857708  AVERAGE MISS PENALTY: 4.08431e+07
L1D PREFETCH  ACCESS: 27021680  HIT: 23217229  MISS: 3804451  HIT %: 85.9207  MISS %: 14.0793  AVERAGE MISS PENALTY: 184.129
L1D WRITEBACK ACCESS:     0  HIT:     0  MISS:     0  HIT %:     0  MISS %:     0  AVERAGE MISS PENALTY: 0

L1I TOTAL     ACCESS: 43325288  HIT: 43248004  MISS: 77284  HIT %: 99.8216  MISS %: 0.178381  AVERAGE MISS PENALTY: 57.8359
L1I LOAD      ACCESS: 43325288  HIT: 43248004  MISS: 77284  HIT %: 99.8216  MISS %: 0.178381  AVERAGE MISS PENALTY: 57.8359
L1I RFO       ACCESS:     0  HIT:     0  MISS:     0  HIT %:     0  MISS %:     0  AVERAGE MISS PENALTY: 0
L1I PREFETCH  ACCESS:     0  HIT:     0  MISS:     0  HIT %:     0  MISS %:     0  AVERAGE MISS PENALTY: 0
L1I WRITEBACK ACCESS:     0  HIT:     0  MISS:     0  HIT %:     0  MISS %:     0  AVERAGE MISS PENALTY: 0

L2C TOTAL     ACCESS: 11954315  HIT: 5727492  MISS: 6226823  HIT %: 47.9115  MISS %: 52.0885  AVERAGE MISS PENALTY: 8.03054e+06
L2C LOAD      ACCESS: 3033181  HIT: 1180800  MISS: 1852381  HIT %: 38.9294  MISS %: 61.0706  AVERAGE MISS PENALTY: 2.56334e+07
L2C RFO       ACCESS: 295662  HIT: 103738  MISS: 191924  HIT %: 35.0867  MISS %: 64.9133  AVERAGE MISS PENALTY: 1.31345e+07
L2C PREFETCH  ACCESS: 6700544  HIT: 2526573  MISS: 4173971  HIT %: 37.707  MISS %: 62.293  AVERAGE MISS PENALTY: 262.95
L2C WRITEBACK ACCESS: 1924928  HIT: 1916381  MISS:  8547  HIT %: 99.556  MISS %: 0.444017  AVERAGE MISS PENALTY: 0


LLC0 TOTAL     ACCESS: 920864  HIT: 321154  MISS: 599710  HIT %: 34.8753  MISS %: 65.1247  AVERAGE MISS PENALTY: 265.47
LLC0 LOAD      ACCESS: 233384  HIT: 57569  MISS: 175815  HIT %: 24.6671  MISS %: 75.3329  AVERAGE MISS PENALTY: 277.658
LLC0 RFO       ACCESS: 25478  HIT:  9978  MISS: 15500  HIT %: 39.1632  MISS %: 60.8368  AVERAGE MISS PENALTY: 267.579
LLC0 PREFETCH  ACCESS: 482565  HIT: 104929  MISS: 377636  HIT %: 21.744  MISS %: 78.256  AVERAGE MISS PENALTY: 281.332
LLC0 WRITEBACK ACCESS: 179437  HIT: 148678  MISS: 30759  HIT %: 82.8581  MISS %: 17.1419  AVERAGE MISS PENALTY: 0

LLC1 TOTAL     ACCESS: 946706  HIT: 328884  MISS: 617822  HIT %: 34.7398  MISS %: 65.2602  AVERAGE MISS PENALTY: 268.114
LLC1 LOAD      ACCESS: 224559  HIT: 54924  MISS: 169635  HIT %: 24.4586  MISS %: 75.5414  AVERAGE MISS PENALTY: 280.318
LLC1 RFO       ACCESS: 23904  HIT:  9400  MISS: 14504  HIT %: 39.324  MISS %: 60.676  AVERAGE MISS PENALTY: 273.211
LLC1 PREFETCH  ACCESS: 518847  HIT: 115133  MISS: 403714  HIT %: 22.1902  MISS %: 77.8098  AVERAGE MISS PENALTY: 282.706
LLC1 WRITEBACK ACCESS: 179396  HIT: 149427  MISS: 29969  HIT %: 83.2945  MISS %: 16.7055  AVERAGE MISS PENALTY: 0

LLC2 TOTAL     ACCESS: 961130  HIT: 329667  MISS: 631463  HIT %: 34.2999  MISS %: 65.7001  AVERAGE MISS PENALTY: 273.794
LLC2 LOAD      ACCESS: 223429  HIT: 55100  MISS: 168329  HIT %: 24.6611  MISS %: 75.3389  AVERAGE MISS PENALTY: 280.72
LLC2 RFO       ACCESS: 22831  HIT:  8729  MISS: 14102  HIT %: 38.2331  MISS %: 61.7669  AVERAGE MISS PENALTY: 274.723
LLC2 PREFETCH  ACCESS: 534605  HIT: 116335  MISS: 418270  HIT %: 21.7609  MISS %: 78.2391  AVERAGE MISS PENALTY: 291.112
LLC2 WRITEBACK ACCESS: 180265  HIT: 149503  MISS: 30762  HIT %: 82.9351  MISS %: 17.0649  AVERAGE MISS PENALTY: 0

LLC3 TOTAL     ACCESS: 963452  HIT: 333253  MISS: 630199  HIT %: 34.5895  MISS %: 65.4105  AVERAGE MISS PENALTY: 275.898
[...]
LLC2 TOTAL     ACCESS: 964111  HIT: 334203  MISS: 629908  HIT %: 34.6644  MISS %: 65.3356  AVERAGE MISS PENALTY: 271.856
LLC2 LOAD      ACCESS: 223935  HIT: 55982  MISS: 167953  HIT %: 24.9992  MISS %: 75.0008  AVERAGE MISS PENALTY: 277.917
LLC2 RFO       ACCESS: 22785  HIT:  8713  MISS: 14072  HIT %: 38.2401  MISS %: 61.7599  AVERAGE MISS PENALTY: 274.711
LLC2 PREFETCH  ACCESS: 537063  HIT: 119469  MISS: 417594  HIT %: 22.2449  MISS %: 77.7551  AVERAGE MISS PENALTY: 289.04
LLC2 WRITEBACK ACCESS: 180328  HIT: 150039  MISS: 30289  HIT %: 83.2034  MISS %: 16.7966  AVERAGE MISS PENALTY: 0
LLC2 PREFETCH  REQUESTED:     0  ISSUED:     0  USEFUL: 96829  USELESS: 3247162
 USEFUL LOAD PREFETCHES:      96829 PREFETCH ISSUED TO LOWER LEVEL:    3350004  ACCURACY: 2.89041
 TIMELY PREFETCHES:      96829 LATE PREFETCHES: 0 DROPPED PREFETCHES: 0
LLC2 AVERAGE MISS LATENCY: 271.856 cycles
LLC3 TOTAL     ACCESS: 963151  HIT: 334693  MISS: 628458  HIT %: 34.7498  MISS %: 65.2502  AVERAGE MISS PENALTY: 273.895
LLC3 LOAD      ACCESS: 221134  HIT: 54863  MISS: 166271  HIT %: 24.8098  MISS %: 75.1902  AVERAGE MISS PENALTY: 279.995
LLC3 RFO       ACCESS: 22680  HIT:  8529  MISS: 14151  HIT %: 37.6058  MISS %: 62.3942  AVERAGE MISS PENALTY: 278.764
LLC3 PREFETCH  ACCESS: 538255  HIT: 120583  MISS: 417672  HIT %: 22.4026  MISS %: 77.5974  AVERAGE MISS PENALTY: 291.214
LLC3 WRITEBACK ACCESS: 181082  HIT: 150718  MISS: 30364  HIT %: 83.2319  MISS %: 16.7681  AVERAGE MISS PENALTY: 0
LLC3 PREFETCH  REQUESTED:     0  ISSUED:     0  USEFUL: 99301  USELESS: 3247591
 USEFUL LOAD PREFETCHES:      99301 PREFETCH ISSUED TO LOWER LEVEL:    3352752  ACCURACY: 2.96178
 TIMELY PREFETCHES:      99301 LATE PREFETCHES: 0 DROPPED PREFETCHES: 0
LLC3 AVERAGE MISS LATENCY: 273.895 cycles
LLC4 TOTAL     ACCESS: 970376  HIT: 340777  MISS: 629599  HIT %: 35.118  MISS %: 64.882  AVERAGE MISS PENALTY: 267.428
LLC4 LOAD      ACCESS: 229373  HIT: 60505  MISS: 168868  HIT %: 26.3784  MISS %: 73.6216  AVERAGE MISS PENALTY: 279.965
LLC4 RFO       ACCESS: 23375  HIT:  8899  MISS: 14476  HIT %: 38.0706  MISS %: 61.9294  AVERAGE MISS PENALTY: 271.66
LLC4 PREFETCH  ACCESS: 535618  HIT: 119285  MISS: 416333  HIT %: 22.2705  MISS %: 77.7295  AVERAGE MISS PENALTY: 281.416
LLC4 WRITEBACK ACCESS: 182010  HIT: 152088  MISS: 29922  HIT %: 83.5602  MISS %: 16.4398  AVERAGE MISS PENALTY: 0
LLC4 PREFETCH  REQUESTED:     0  ISSUED:     0  USEFUL: 100250  USELESS: 3233942
 USEFUL LOAD PREFETCHES:     100250 PREFETCH ISSUED TO LOWER LEVEL:    3339911  ACCURACY: 3.00158
 TIMELY PREFETCHES:     100250 LATE PREFETCHES: 0 DROPPED PREFETCHES: 0
LLC4 AVERAGE MISS LATENCY: 267.428 cycles
LLC5 TOTAL     ACCESS: 973258  HIT: 343044  MISS: 630214  HIT %: 35.247  MISS %: 64.753  AVERAGE MISS PENALTY: 268.317
LLC5 LOAD      ACCESS: 224254  HIT: 57129  MISS: 167125  HIT %: 25.4751  MISS %: 74.5249  AVERAGE MISS PENALTY: 280.148
LLC5 RFO       ACCESS: 23279  HIT:  8875  MISS: 14404  HIT %: 38.1245  MISS %: 61.8755  AVERAGE MISS PENALTY: 276.539
LLC5 PREFETCH  ACCESS: 544939  HIT: 125901  MISS: 419038  HIT %: 23.1037  MISS %: 76.8963  AVERAGE MISS PENALTY: 282.3
LLC5 WRITEBACK ACCESS: 180786  HIT: 151139  MISS: 29647  HIT %: 83.6011  MISS %: 16.3989  AVERAGE MISS PENALTY: 0
LLC5 PREFETCH  REQUESTED:     0  ISSUED:     0  USEFUL: 98413  USELESS: 3259138
 USEFUL LOAD PREFETCHES:      98413 PREFETCH ISSUED TO LOWER LEVEL:    3363042  ACCURACY: 2.92631
 TIMELY PREFETCHES:      98413 LATE PREFETCHES: 0 DROPPED PREFETCHES: 0
LLC5 AVERAGE MISS LATENCY: 268.317 cycles
LLC6 TOTAL     ACCESS: 971726  HIT: 340557  MISS: 631169  HIT %: 35.0466  MISS %: 64.9534  AVERAGE MISS PENALTY: 275.02
LLC6 LOAD      ACCESS: 227987  HIT: 58766  MISS: 169221  HIT %: 25.776  MISS %: 74.224  AVERAGE MISS PENALTY: 282.015
LLC6 RFO       ACCESS: 23012  HIT:  8824  MISS: 14188  HIT %: 38.3452  MISS %: 61.6548  AVERAGE MISS PENALTY: 278.692
LLC6 PREFETCH  ACCESS: 538347  HIT: 121434  MISS: 416913  HIT %: 22.5568  MISS %: 77.4432  AVERAGE MISS PENALTY: 292.404
LLC6 WRITEBACK ACCESS: 182380  HIT: 151533  MISS: 30847  HIT %: 83.0864  MISS %: 16.9136  AVERAGE MISS PENALTY: 0
LLC6 PREFETCH  REQUESTED:     0  ISSUED:     0  USEFUL: 99006  USELESS: 3238685
 USEFUL LOAD PREFETCHES:      99006 PREFETCH ISSUED TO LOWER LEVEL:    3343451  ACCURACY: 2.96119
 TIMELY PREFETCHES:      99006 LATE PREFETCHES: 0 DROPPED PREFETCHES: 0
LLC6 AVERAGE MISS LATENCY: 275.02 cycles
LLC7 TOTAL     ACCESS: 966421  HIT: 333777  MISS: 632644  HIT %: 34.5374  MISS %: 65.4626  AVERAGE MISS PENALTY: 274.383
LLC7 LOAD      ACCESS: 224279  HIT: 55513  MISS: 168766  HIT %: 24.7518  MISS %: 75.2482  AVERAGE MISS PENALTY: 282.16
LLC7 RFO       ACCESS: 23225  HIT:  8858  MISS: 14367  HIT %: 38.1399  MISS %: 61.8601  AVERAGE MISS PENALTY: 278.691
LLC7 PREFETCH  ACCESS: 536929  HIT: 120401  MISS: 416528  HIT %: 22.424  MISS %: 77.576  AVERAGE MISS PENALTY: 292.81
LLC7 WRITEBACK ACCESS: 181988  HIT: 149005  MISS: 32983  HIT %: 81.8763  MISS %: 18.1237  AVERAGE MISS PENALTY: 0
LLC7 PREFETCH  REQUESTED:     0  ISSUED:     0  USEFUL: 98486  USELESS: 3238285
 USEFUL LOAD PREFETCHES:      98486 PREFETCH ISSUED TO LOWER LEVEL:    3342540  ACCURACY: 2.94644
 TIMELY PREFETCHES:      98486 LATE PREFETCHES: 0 DROPPED PREFETCHES: 0
LLC7 AVERAGE MISS LATENCY: 274.383 cycles
ROI Average ROB Stall Cycles:	13.0793
ROI Total ROB Stalls Cycles:	923245048
ROI TOTAL ROB counter      :	70588070
ROI Average Load ROB Stall Cycles:	34.3891
ROI Total Load ROB Stalls Cycle  :	311387772
ROI Total Load ROB stalls Counter:	9054841
Major fault: 0 Minor fault: 48116

CPU 7 cumulative IPC: 0.203619 instructions: 200000000 cycles: 982225950
ITLB TOTAL     ACCESS: 32978815  HIT: 32659772  MISS: 319043  HIT %: 99.0326  MISS %: 0.967418  AVERAGE MISS PENALTY: 10.9511
ITLB LOAD      ACCESS: 32978815  HIT: 32659772  MISS: 319043  HIT %: 99.0326  MISS %: 0.967418  AVERAGE MISS PENALTY: 10.9511
ITLB RFO       ACCESS:     0  HIT:     0  MISS:     0  HIT %:     0  MISS %:     0  AVERAGE MISS PENALTY: 0
ITLB PREFETCH  ACCESS:     0  HIT:     0  MISS:     0  HIT %:     0  MISS %:     0  AVERAGE MISS PENALTY: 0
ITLB WRITEBACK ACCESS:     0  HIT:     0  MISS:     0  HIT %:     0  MISS %:     0  AVERAGE MISS PENALTY: 0
ITLB PREFETCH  REQUESTED:     0  ISSUED:     0  USEFUL:     0  USELESS:     0
 USEFUL LOAD PREFETCHES:          0 PREFETCH ISSUED TO LOWER LEVEL:          0  ACCURACY: -nan
 TIMELY PREFETCHES:          0 LATE PREFETCHES: 0 DROPPED PREFETCHES: 0
ITLB AVERAGE MISS LATENCY: 10.9511 cycles
DTLB TOTAL     ACCESS: 80595531  HIT: 76770989  MISS: 3824542  HIT %: 95.2546  MISS %: 4.74535  AVERAGE MISS PENALTY: 35.5344
DTLB LOAD      ACCESS: 49534494  HIT: 46137363  MISS: 3397131  HIT %: 93.1419  MISS %: 6.85811  AVERAGE MISS PENALTY: 33.0185
DTLB RFO       ACCESS: 31061037  HIT: 30633626  MISS: 427411  HIT %: 98.624  MISS %: 1.37604  AVERAGE MISS PENALTY: 55.5312
DTLB PREFETCH  ACCESS:     0  HIT:     0  MISS:     0  HIT %:     0  MISS %:     0  AVERAGE MISS PENALTY: 0
DTLB WRITEBACK ACCESS:     0  HIT:     0  MISS:     0  HIT %:     0  MISS %:     0  AVERAGE MISS PENALTY: 0
DTLB PREFETCH  REQUESTED:     0  ISSUED:     0  USEFUL:     0  USELESS:     0
 USEFUL LOAD PREFETCHES:          0 PREFETCH ISSUED TO LOWER LEVEL:          0  ACCURACY: -nan
 TIMELY PREFETCHES:          0 LATE PREFETCHES: 0 DROPPED PREFETCHES: 0
DTLB AVERAGE MISS LATENCY: 35.5344 cycles
STLB TOTAL     ACCESS: 4143585  HIT: 3285676  MISS: 857909  HIT %: 79.2955  MISS %: 20.7045  AVERAGE MISS PENALTY: 100
STLB LOAD      ACCESS: 3716174  HIT: 3011988  MISS: 704186  HIT %: 81.0508  MISS %: 18.9492  AVERAGE MISS PENALTY: 100
STLB RFO       ACCESS: 427411  HIT: 273688  MISS: 153723  HIT %: 64.0339  MISS %: 35.9661  AVERAGE MISS PENALTY: 100
STLB PREFETCH  ACCESS:     0  HIT:     0  MISS:     0  HIT %:     0  MISS %:     0  AVERAGE MISS PENALTY: 0
STLB WRITEBACK ACCESS:     0  HIT:     0  MISS:     0  HIT %:     0  MISS %:     0  AVERAGE MISS PENALTY: 0
STLB PREFETCH  REQUESTED:     0  ISSUED:     0  USEFUL:     0  USELESS:     0
 USEFUL LOAD PREFETCHES:          0 PREFETCH ISSUED TO LOWER LEVEL:          0  ACCURACY: -nan
 TIMELY PREFETCHES:          0 LATE PREFETCHES: 0 DROPPED PREFETCHES: 0
STLB AVERAGE MISS LATENCY: 100 cycles
L1D TOTAL     ACCESS: 115435783  HIT: 108360767  MISS: 7075016  HIT %: 93.871  MISS %: 6.12896  AVERAGE MISS PENALTY: 8.02347e+06
L1D LOAD      ACCESS: 51735654  HIT: 48776879  MISS: 2958775  HIT %: 94.281  MISS %: 5.71903  AVERAGE MISS PENALTY: 1.47814e+07
L1D RFO       ACCESS: 36696959  HIT: 36382162  MISS: 314797  HIT %: 99.1422  MISS %: 0.857829  AVERAGE MISS PENALTY: 4.13937e+07
L1D PREFETCH  ACCESS: 27003170  HIT: 23201726  MISS: 3801444  HIT %: 85.9222  MISS %: 14.0778  AVERAGE MISS PENALTY: 183.911
L1D WRITEBACK ACCESS:     0  HIT:     0  MISS:     0  HIT %:     0  MISS %:     0  AVERAGE MISS PENALTY: 0
L1D PREFETCH  REQUESTED: 28127151  ISSUED: 27962346  USEFUL: 635793  USELESS: 3165586
 USEFUL LOAD PREFETCHES:     635793 PREFETCH ISSUED TO LOWER LEVEL:    4652630  ACCURACY: 13.6652
 TIMELY PREFETCHES:     635793 LATE PREFETCHES: 550671 DROPPED PREFETCHES: 164805
L1D AVERAGE MISS LATENCY: 1.84195e+06 cycles
L1I TOTAL     ACCESS: 43285918  HIT: 43208353  MISS: 77565  HIT %: 99.8208  MISS %: 0.179192  AVERAGE MISS PENALTY: 55.8495
L1I LOAD      ACCESS: 43285918  HIT: 43208353  MISS: 77565  HIT %: 99.8208  MISS %: 0.179192  AVERAGE MISS PENALTY: 55.8495
L1I RFO       ACCESS:     0  HIT:     0  MISS:     0  HIT %:     0  MISS %:     0  AVERAGE MISS PENALTY: 0
L1I PREFETCH  ACCESS:     0  HIT:     0  MISS:     0  HIT %:     0  MISS %:     0  AVERAGE MISS PENALTY: 0
L1I WRITEBACK ACCESS:     0  HIT:     0  MISS:     0  HIT %:     0  MISS %:     0  AVERAGE MISS PENALTY: 0
L1I PREFETCH  REQUESTED:     0  ISSUED:     0  USEFUL:     0  USELESS:     0
 USEFUL LOAD PREFETCHES:          0 PREFETCH ISSUED TO LOWER LEVEL:          0  ACCURACY: -nan
 TIMELY PREFETCHES:          0 LATE PREFETCHES: 0 DROPPED PREFETCHES: 0
L1I AVERAGE MISS LATENCY: 55.8495 cycles
L2C TOTAL     ACCESS: 11947554  HIT: 5769735  MISS: 6177819  HIT %: 48.2922  MISS %: 51.7078  AVERAGE MISS PENALTY: 8.09304e+06
L2C LOAD      ACCESS: 3031363  HIT: 1193630  MISS: 1837733  HIT %: 39.376  MISS %: 60.624  AVERAGE MISS PENALTY: 2.58453e+07
L2C RFO       ACCESS: 295305  HIT: 102868  MISS: 192437  HIT %: 34.8345  MISS %: 65.1655  AVERAGE MISS PENALTY: 1.29887e+07
L2C PREFETCH  ACCESS: 6697323  HIT: 2556152  MISS: 4141171  HIT %: 38.1668  MISS %: 61.8332  AVERAGE MISS PENALTY: 264.496
L2C WRITEBACK ACCESS: 1923563  HIT: 1917085  MISS:  6478  HIT %: 99.6632  MISS %: 0.336771  AVERAGE MISS PENALTY: 0
L2C PREFETCH  REQUESTED: 4893730  ISSUED: 4824614  USEFUL: 357035  USELESS: 3782775
 USEFUL LOAD PREFETCHES:     357035 PREFETCH ISSUED TO LOWER LEVEL:    4446174  ACCURACY: 8.03016
 TIMELY PREFETCHES:     357035 LATE PREFETCHES: 248533 DROPPED PREFETCHES: 69116
L2C AVERAGE MISS LATENCY: 257.748 cycles
LLC0 TOTAL     ACCESS: 912573  HIT: 313427  MISS: 599146  HIT %: 34.3454  MISS %: 65.6546  AVERAGE MISS PENALTY: 265.482
LLC0 LOAD      ACCESS: 231653  HIT: 56289  MISS: 175364  HIT %: 24.2988  MISS %: 75.7012  AVERAGE MISS PENALTY: 277.533
LLC0 RFO       ACCESS: 25568  HIT: 10166  MISS: 15402  HIT %: 39.7606  MISS %: 60.2394  AVERAGE MISS PENALTY: 266.592
LLC0 PREFETCH  ACCESS: 477783  HIT: 100065  MISS: 377718  HIT %: 20.9436  MISS %: 79.0564  AVERAGE MISS PENALTY: 281.393
LLC0 WRITEBACK ACCESS: 177569  HIT: 146907  MISS: 30662  HIT %: 82.7323  MISS %: 17.2677  AVERAGE MISS PENALTY: 0
LLC0 PREFETCH  REQUESTED:     0  ISSUED:     0  USEFUL: 89916  USELESS: 2927827
 USEFUL LOAD PREFETCHES:      89916 PREFETCH ISSUED TO LOWER LEVEL:    3022672  ACCURACY: 2.97472
 TIMELY PREFETCHES:      89916 LATE PREFETCHES: 0 DROPPED PREFETCHES: 0
LLC0 AVERAGE MISS LATENCY: 265.482 cycles
Deadblocks : 1277452 Deadblock percentage : 728.457

LLC1 TOTAL     ACCESS: 938388  HIT: 321507  MISS: 616881  HIT %: 34.2616  MISS %: 65.7384  AVERAGE MISS PENALTY: 268.32
LLC1 LOAD      ACCESS: 222862  HIT: 53619  MISS: 169243  HIT %: 24.0593  MISS %: 75.9407  AVERAGE MISS PENALTY: 281.166
LLC1 RFO       ACCESS: 23965  HIT:  9383  MISS: 14582  HIT %: 39.1529  MISS %: 60.8471  AVERAGE MISS PENALTY: 276.447
LLC1 PREFETCH  ACCESS: 513969  HIT: 110722  MISS: 403247  HIT %: 21.5425  MISS %: 78.4575  AVERAGE MISS PENALTY: 282.469
LLC1 WRITEBACK ACCESS: 177592  HIT: 147783  MISS: 29809  HIT %: 83.2149  MISS %: 16.7851  AVERAGE MISS PENALTY: 0
LLC1 PREFETCH  REQUESTED:     0  ISSUED:     0  USEFUL: 96175  USELESS: 3126966
 USEFUL LOAD PREFETCHES:      96175 PREFETCH ISSUED TO LOWER LEVEL:    3228304  ACCURACY: 2.97912
 TIMELY PREFETCHES:      96175 LATE PREFETCHES: 0 DROPPED PREFETCHES: 0
LLC1 AVERAGE MISS LATENCY: 268.32 cycles
LLC2 TOTAL     ACCESS: 953878  HIT: 323306  MISS: 630572  HIT %: 33.8939  MISS %: 66.1061  AVERAGE MISS PENALTY: 274.658
LLC2 LOAD      ACCESS: 221543  HIT: 53766  MISS: 167777  HIT %: 24.2689  MISS %: 75.7311  AVERAGE MISS PENALTY: 281.207
LLC2 RFO       ACCESS: 22889  HIT:  8876  MISS: 14013  HIT %: 38.7785  MISS %: 61.2215  AVERAGE MISS PENALTY: 277.056
LLC2 PREFETCH  ACCESS: 530964  HIT: 112798  MISS: 418166  HIT %: 21.244  MISS %: 78.756  AVERAGE MISS PENALTY: 292.059
LLC2 WRITEBACK ACCESS: 178482  HIT: 147866  MISS: 30616  HIT %: 82.8464  MISS %: 17.1536  AVERAGE MISS PENALTY: 0
LLC2 PREFETCH  REQUESTED:     0  ISSUED:     0  USEFUL: 96829  USELESS: 3247162
 USEFUL LOAD PREFETCHES:      96829 PREFETCH ISSUED TO LOWER LEVEL:    3350004  ACCURACY: 2.89041
 TIMELY PREFETCHES:      96829 LATE PREFETCHES: 0 DROPPED PREFETCHES: 0
LLC2 AVERAGE MISS LATENCY: 274.658 cycles
LLC3 TOTAL     ACCESS: 955479  HIT: 326079  MISS: 629400  HIT %: 34.1273  MISS %: 65.8727  AVERAGE MISS PENALTY: 276.032
LLC3 LOAD      ACCESS: 220399  HIT: 53988  MISS: 166411  HIT %: 24.4956  MISS %: 75.5044  AVERAGE MISS PENALTY: 282.827
LLC3 RFO       ACCESS: 22907  HIT:  8831  MISS: 14076  HIT %: 38.5515  MISS %: 61.4485  AVERAGE MISS PENALTY: 277.925
LLC3 PREFETCH  ACCESS: 533207  HIT: 114796  MISS: 418411  HIT %: 21.5293  MISS %: 78.4707  AVERAGE MISS PENALTY: 293.389
LLC3 WRITEBACK ACCESS: 178966  HIT: 148464  MISS: 30502  HIT %: 82.9565  MISS %: 17.0435  AVERAGE MISS PENALTY: 0
LLC3 PREFETCH  REQUESTED:     0  ISSUED:     0  USEFUL: 99301  USELESS: 3247591
 USEFUL LOAD PREFETCHES:      99301 PREFETCH ISSUED TO LOWER LEVEL:    3352752  ACCURACY: 2.96178
 TIMELY PREFETCHES:      99301 LATE PREFETCHES: 0 DROPPED PREFETCHES: 0
LLC3 AVERAGE MISS LATENCY: 276.032 cycles
LLC4 TOTAL     ACCESS: 961387  HIT: 330730  MISS: 630657  HIT %: 34.4013  MISS %: 65.5987  AVERAGE MISS PENALTY: 269.224
LLC4 LOAD      ACCESS: 226393  HIT: 57460  MISS: 168933  HIT %: 25.3806  MISS %: 74.6194  AVERAGE MISS PENALTY: 281.234
LLC4 RFO       ACCESS: 23517  HIT:  9110  MISS: 14407  HIT %: 38.7379  MISS %: 61.2621  AVERAGE MISS PENALTY: 274.441
LLC4 PREFETCH  ACCESS: 531419  HIT: 114271  MISS: 417148  HIT %: 21.503  MISS %: 78.497  AVERAGE MISS PENALTY: 283.651
LLC4 WRITEBACK ACCESS: 180058  HIT: 149889  MISS: 30169  HIT %: 83.2448  MISS %: 16.7552  AVERAGE MISS PENALTY: 0
LLC4 PREFETCH  REQUESTED:     0  ISSUED:     0  USEFUL: 100250  USELESS: 3233942
 USEFUL LOAD PREFETCHES:     100250 PREFETCH ISSUED TO LOWER LEVEL:    3339911  ACCURACY: 3.00158
 TIMELY PREFETCHES:     100250 LATE PREFETCHES: 0 DROPPED PREFETCHES: 0
LLC4 AVERAGE MISS LATENCY: 269.224 cycles
LLC5 TOTAL     ACCESS: 962925  HIT: 331693  MISS: 631232  HIT %: 34.4464  MISS %: 65.5536  AVERAGE MISS PENALTY: 270.071
LLC5 LOAD      ACCESS: 222106  HIT: 54500  MISS: 167606  HIT %: 24.5378  MISS %: 75.4622  AVERAGE MISS PENALTY: 281.894
LLC5 RFO       ACCESS: 23414  HIT:  9054  MISS: 14360  HIT %: 38.6692  MISS %: 61.3308  AVERAGE MISS PENALTY: 275.36
LLC5 PREFETCH  ACCESS: 538794  HIT: 119307  MISS: 419487  HIT %: 22.1433  MISS %: 77.8567  AVERAGE MISS PENALTY: 284.339
LLC5 WRITEBACK ACCESS: 178611  HIT: 148832  MISS: 29779  HIT %: 83.3275  MISS %: 16.6725  AVERAGE MISS PENALTY: 0
LLC5 PREFETCH  REQUESTED:     0  ISSUED:     0  USEFUL: 98413  USELESS: 3259138
 USEFUL LOAD PREFETCHES:      98413 PREFETCH ISSUED TO LOWER LEVEL:    3363042  ACCURACY: 2.92631
 TIMELY PREFETCHES:      98413 LATE PREFETCHES: 0 DROPPED PREFETCHES: 0
LLC5 AVERAGE MISS LATENCY: 270.071 cycles
LLC6 TOTAL     ACCESS: 961067  HIT: 328752  MISS: 632315  HIT %: 34.207  MISS %: 65.793  AVERAGE MISS PENALTY: 276.561
LLC6 LOAD      ACCESS: 225229  HIT: 55871  MISS: 169358  HIT %: 24.8063  MISS %: 75.1937  AVERAGE MISS PENALTY: 283.307
LLC6 RFO       ACCESS: 23204  HIT:  8973  MISS: 14231  HIT %: 38.6701  MISS %: 61.3299  AVERAGE MISS PENALTY: 278.202
LLC6 PREFETCH  ACCESS: 532652  HIT: 115160  MISS: 417492  HIT %: 21.6201  MISS %: 78.3799  AVERAGE MISS PENALTY: 294.459
LLC6 WRITEBACK ACCESS: 179982  HIT: 148748  MISS: 31234  HIT %: 82.646  MISS %: 17.354  AVERAGE MISS PENALTY: 0
LLC6 PREFETCH  REQUESTED:     0  ISSUED:     0  USEFUL: 99006  USELESS: 3238685
 USEFUL LOAD PREFETCHES:      99006 PREFETCH ISSUED TO LOWER LEVEL:    3343451  ACCURACY: 2.96119
 TIMELY PREFETCHES:      99006 LATE PREFETCHES: 0 DROPPED PREFETCHES: 0
LLC6 AVERAGE MISS LATENCY: 276.561 cycles
LLC7 TOTAL     ACCESS: 956326  HIT: 323019  MISS: 633307  HIT %: 33.7771  MISS %: 66.2229  AVERAGE MISS PENALTY: 276.378
LLC7 LOAD      ACCESS: 221374  HIT: 52462  MISS: 168912  HIT %: 23.6984  MISS %: 76.3016  AVERAGE MISS PENALTY: 284.444
LLC7 RFO       ACCESS: 23292  HIT:  8964  MISS: 14328  HIT %: 38.4853  MISS %: 61.5147  AVERAGE MISS PENALTY: 281.444
LLC7 PREFETCH  ACCESS: 532230  HIT: 115014  MISS: 417216  HIT %: 21.6098  MISS %: 78.3902  AVERAGE MISS PENALTY: 294.701
LLC7 WRITEBACK ACCESS: 179430  HIT: 146579  MISS: 32851  HIT %: 81.6915  MISS %: 18.3085  AVERAGE MISS PENALTY: 0
LLC7 PREFETCH  REQUESTED:     0  ISSUED:     0  USEFUL: 98486  USELESS: 3238285
 USEFUL LOAD PREFETCHES:      98486 PREFETCH ISSUED TO LOWER LEVEL:    3342540  ACCURACY: 2.94644
 TIMELY PREFETCHES:      98486 LATE PREFETCHES: 0 DROPPED PREFETCHES: 0
LLC7 AVERAGE MISS LATENCY: 276.378 cycles
ROI Average ROB Stall Cycles:	13.0998
ROI Total ROB Stalls Cycles:	924576526
ROI TOTAL ROB counter      :	70579465
ROI Average Load ROB Stall Cycles:	34.6042
ROI Total Load ROB Stalls Cycle  :	313026922
ROI Total Load ROB stalls Counter:	9045914
Major fault: 0 Minor fault: 48112








Interconnect Stats 
LINK 0 BW : 0LINK 1 BW : 0LINK 2 BW : 0LINK 3 BW : 0LINK 4 BW : 0LINK 5 BW : 0LINK 6 BW : 0LINK 7 BW : 0
DRAM Statistics
 CHANNEL 0
 RQ ROW_BUFFER_HIT: 2627031  ROW_BUFFER_MISS: 16356002
 DBUS_CONGESTED: 15382701
 WQ ROW_BUFFER_HIT: 365099  ROW_BUFFER_MISS: 4149322  FULL:     0

 CHANNEL 1
 RQ ROW_BUFFER_HIT: 2608622  ROW_BUFFER_MISS: 16520841
 DBUS_CONGESTED: 15382701
 WQ ROW_BUFFER_HIT: 351196  ROW_BUFFER_MISS: 4158104  FULL:     0

 AVG_CONGESTED_CYCLE: 6
DRAM PAGES: 2097152
Allocated PAGES: 384904
L2C destructor called
L1D destructor called
L1I destructor called
STLB destructor called
DTLB destructor called
ITLB destructor called
L2C destructor called
L1D destructor called
L1I destructor called
STLB destructor called
DTLB destructor called
ITLB destructor called
L2C destructor called
L1D destructor called
L1I destructor called
STLB destructor called
DTLB destructor called
ITLB destructor called
L2C destructor called
L1D destructor called
L1I destructor called
STLB destructor called
DTLB destructor called
ITLB destructor called
L2C destructor called
L1D destructor called
L1I destructor called
STLB destructor called
DTLB destructor called
ITLB destructor called
L2C destructor called
L1D destructor called
L1I destructor called
STLB destructor called
DTLB destructor called
ITLB destructor called
L2C destructor called
L1D destructor called
L1I destructor called
STLB destructor called
DTLB destructor called
ITLB destructor called
L2C destructor called
L1D destructor called
L1I destructor called
STLB destructor called
DTLB destructor called
ITLB destructor called
