
*** ChampSim Multicore Out-of-Order Simulator ***

Warmup Instructions: 200000000
Simulation Instructions: 200000000
Number of CPUs: 8
threads:1

L1I Configuration:
L1I_SET:64
L1I_WAY:8
L1I_RQ_SIZE:64
L1I_WQ_SIZE:64
L1I_PQ_SIZE:8
L1I_MSHR_SIZE:8

L1D Configuration:
L1D_SET:64
L1D_WAY:12
L1D_RQ_SIZE:64
L1D_WQ_SIZE:64
L1D_PQ_SIZE:8
L1D_MSHR_SIZE:16

L2C Configuration:
L2C_SET:1024
L2C_WAY:8
L2C_RQ_SIZE:32
L2C_WQ_SIZE:32
L2C_PQ_SIZE:16
L2C_MSHR_SIZE:32

LLC Configuration:
LLC_SET:2048
LLC_WAY:16
LLC SLICES:8
LLC_RQ_SIZE:64
LLC_WQ_SIZE:64
LLC_PQ_SIZE:32
LLC_MSHR_SIZE:64

Interconnect OFF
Attacker deprioritize is: OFF
Off-chip DRAM Size: 8192 MB Channels: 2 Width: 64-bit Data Rate: 3200 MT/s
PAGE SIZE in KB: 4.000000 
PAGE SIZE in MB: 0.003906 
PAGE offset in bits: 12 
CEASER-S_LLC:0
MIRAGE : 0
CEASER_LATENCY:3
REMAP : OFF
Partitions : 1
Multi-Step : OFF
BFS : OFF

CPU 0 runs /home/anubhav/spec_2017/621.wrf_s-6673B.champsimtrace.xz
CPU 1 runs /home/anubhav/spec_2017/621.wrf_s-6673B.champsimtrace.xz
CPU 2 runs /home/anubhav/spec_2017/621.wrf_s-6673B.champsimtrace.xz
CPU 3 runs /home/anubhav/spec_2017/621.wrf_s-6673B.champsimtrace.xz
CPU 4 runs /home/anubhav/spec_2017/621.wrf_s-6673B.champsimtrace.xz
CPU 5 runs /home/anubhav/spec_2017/621.wrf_s-6673B.champsimtrace.xz
CPU 6 runs /home/anubhav/spec_2017/621.wrf_s-6673B.champsimtrace.xz
CPU 7 runs /home/anubhav/spec_2017/621.wrf_s-6673B.champsimtrace.xz
CPU 0 Bimodal branch predictor
Initialize Hawkeye state
Initialize Hawkeye state
Initialize Hawkeye state
Initialize Hawkeye state
Initialize Hawkeye state
Initialize Hawkeye state
Initialize Hawkeye state
Initialize Hawkeye state
CPU 1 Bimodal branch predictor
Initialize Hawkeye state
Initialize Hawkeye state
Initialize Hawkeye state
Initialize Hawkeye state
Initialize Hawkeye state
Initialize Hawkeye state
Initialize Hawkeye state
Initialize Hawkeye state
CPU 2 Bimodal branch predictor
Initialize Hawkeye state
Initialize Hawkeye state
Initialize Hawkeye state
Initialize Hawkeye state
Initialize Hawkeye state
Initialize Hawkeye state
Initialize Hawkeye state
Initialize Hawkeye state
CPU 3 Bimodal branch predictor
Initialize Hawkeye state
Initialize Hawkeye state
Initialize Hawkeye state
Initialize Hawkeye state
Initialize Hawkeye state
Initialize Hawkeye state
Initialize Hawkeye state
Initialize Hawkeye state
CPU 4 Bimodal branch predictor
Initialize Hawkeye state
Initialize Hawkeye state
Initialize Hawkeye state
Initialize Hawkeye state
Initialize Hawkeye state
Initialize Hawkeye state
Initialize Hawkeye state
Initialize Hawkeye state
CPU 5 Bimodal branch predictor
Initialize Hawkeye state
Initialize Hawkeye state
Initialize Hawkeye state
Initialize Hawkeye state
Initialize Hawkeye state
Initialize Hawkeye state
Initialize Hawkeye state
Initialize Hawkeye state
CPU 6 Bimodal branch predictor
Initialize Hawkeye state
Initialize Hawkeye state
Initialize Hawkeye state
Initialize Hawkeye state
Initialize Hawkeye state
Initialize Hawkeye state
Initialize Hawkeye state
Initialize Hawkeye state
CPU 7 Bimodal branch predictor
Initialize Hawkeye state
Initialize Hawkeye state
Initialize Hawkeye state
Initialize Hawkeye state
Initialize Hawkeye state
Initialize Hawkeye state
Initialize Hawkeye state
Initialize Hawkeye state
Heartbeat CPU 3 instructions: 10000001 cycles: 5655676 heartbeat IPC: 1.76814 cumulative IPC: 1.76814 (Simulation time: 2 hr 4 min 24 sec) 
 Total Blocks : 262144 Invalid Blocks : 24983
Heartbeat CPU 1 instructions: 10000001 cycles: 5655682 heartbeat IPC: 1.76813 cumulative IPC: 1.76813 (Simulation time: 2 hr 4 min 30 sec) 
 Total Blocks : 262144 Invalid Blocks : 24983
Heartbeat CPU 2 instructions: 10000001 cycles: 5655693 heartbeat IPC: 1.76813 cumulative IPC: 1.76813 (Simulation time: 2 hr 4 min 30 sec) 
 Total Blocks : 262144 Invalid Blocks : 24983
Heartbeat CPU 4 instructions: 10000001 cycles: 5655737 heartbeat IPC: 1.76812 cumulative IPC: 1.76812 (Simulation time: 2 hr 4 min 31 sec) 
 Total Blocks : 262144 Invalid Blocks : 24983
Heartbeat CPU 0 instructions: 10000001 cycles: 5655743 heartbeat IPC: 1.76811 cumulative IPC: 1.76811 (Simulation time: 2 hr 4 min 31 sec) 
 Total Blocks : 262144 Invalid Blocks : 24983
Heartbeat CPU 5 instructions: 10000001 cycles: 5655755 heartbeat IPC: 1.76811 cumulative IPC: 1.76811 (Simulation time: 2 hr 4 min 31 sec) 
 Total Blocks : 262144 Invalid Blocks : 24983
Heartbeat CPU 6 instructions: 10000001 cycles: 5655763 heartbeat IPC: 1.76811 cumulative IPC: 1.76811 (Simulation time: 2 hr 4 min 31 sec) 
 Total Blocks : 262144 Invalid Blocks : 24983
Heartbeat CPU 7 instructions: 10000001 cycles: 5655782 heartbeat IPC: 1.7681 cumulative IPC: 1.7681 (Simulation time: 2 hr 4 min 31 sec) 
 Total Blocks : 262144 Invalid Blocks : 24982
Heartbeat CPU 3 instructions: 20000002 cycles: 9641422 heartbeat IPC: 2.50894 cumulative IPC: 2.07438 (Simulation time: 4 hr 50 min 45 sec) 
 Total Blocks : 262144 Invalid Blocks : 289
Heartbeat CPU 1 instructions: 20000002 cycles: 9641515 heartbeat IPC: 2.50889 cumulative IPC: 2.07436 (Simulation time: 4 hr 51 min 12 sec) 
 Total Blocks : 262144 Invalid Blocks : 289
Heartbeat CPU 2 instructions: 20000002 cycles: 9641516 heartbeat IPC: 2.50889 cumulative IPC: 2.07436 (Simulation time: 4 hr 51 min 15 sec) 
 Total Blocks : 262144 Invalid Blocks : 289
Heartbeat CPU 0 instructions: 20000002 cycles: 9641531 heartbeat IPC: 2.50891 cumulative IPC: 2.07436 (Simulation time: 4 hr 51 min 15 sec) 
 Total Blocks : 262144 Invalid Blocks : 289
Heartbeat CPU 6 instructions: 20000002 cycles: 9641554 heartbeat IPC: 2.50891 cumulative IPC: 2.07435 (Simulation time: 4 hr 51 min 15 sec) 
 Total Blocks : 262144 Invalid Blocks : 289
Heartbeat CPU 4 instructions: 20000002 cycles: 9641564 heartbeat IPC: 2.50889 cumulative IPC: 2.07435 (Simulation time: 4 hr 51 min 16 sec) 
 Total Blocks : 262144 Invalid Blocks : 289
Heartbeat CPU 5 instructions: 20000002 cycles: 9641566 heartbeat IPC: 2.5089 cumulative IPC: 2.07435 (Simulation time: 4 hr 51 min 16 sec) 
 Total Blocks : 262144 Invalid Blocks : 289
Heartbeat CPU 7 instructions: 20000002 cycles: 9641595 heartbeat IPC: 2.5089 cumulative IPC: 2.07435 (Simulation time: 4 hr 51 min 16 sec) 
 Total Blocks : 262144 Invalid Blocks : 289
Heartbeat CPU 3 instructions: 30000001 cycles: 13260976 heartbeat IPC: 2.76277 cumulative IPC: 2.26228 (Simulation time: 6 hr 56 min 29 sec) 
 Total Blocks : 262144 Invalid Blocks : 11
Heartbeat CPU 0 instructions: 30000001 cycles: 13261078 heartbeat IPC: 2.76278 cumulative IPC: 2.26226 (Simulation time: 6 hr 56 min 37 sec) 
 Total Blocks : 262144 Invalid Blocks : 11
Heartbeat CPU 6 instructions: 30000001 cycles: 13261098 heartbeat IPC: 2.76278 cumulative IPC: 2.26226 (Simulation time: 6 hr 56 min 37 sec) 
 Total Blocks : 262144 Invalid Blocks : 11
Heartbeat CPU 2 instructions: 30000001 cycles: 13261100 heartbeat IPC: 2.76275 cumulative IPC: 2.26226 (Simulation time: 6 hr 56 min 37 sec) 
 Total Blocks : 262144 Invalid Blocks : 11
Heartbeat CPU 1 instructions: 30000001 cycles: 13261101 heartbeat IPC: 2.76275 cumulative IPC: 2.26226 (Simulation time: 6 hr 56 min 37 sec) 
 Total Blocks : 262144 Invalid Blocks : 11
Heartbeat CPU 4 instructions: 30000001 cycles: 13261129 heartbeat IPC: 2.76276 cumulative IPC: 2.26225 (Simulation time: 6 hr 56 min 37 sec) 
 Total Blocks : 262144 Invalid Blocks : 11
Heartbeat CPU 5 instructions: 30000001 cycles: 13261139 heartbeat IPC: 2.76276 cumulative IPC: 2.26225 (Simulation time: 6 hr 56 min 37 sec) 
 Total Blocks : 262144 Invalid Blocks : 11
Heartbeat CPU 7 instructions: 30000001 cycles: 13261141 heartbeat IPC: 2.76278 cumulative IPC: 2.26225 (Simulation time: 6 hr 56 min 37 sec) 
 Total Blocks : 262144 Invalid Blocks : 11
Heartbeat CPU 3 instructions: 40000002 cycles: 17328285 heartbeat IPC: 2.45863 cumulative IPC: 2.30836 (Simulation time: 11 hr 0 min 0 sec) 
 Total Blocks : 262144 Invalid Blocks : 0
Heartbeat CPU 0 instructions: 40000002 cycles: 17328514 heartbeat IPC: 2.45855 cumulative IPC: 2.30833 (Simulation time: 11 hr 0 min 5 sec) 
 Total Blocks : 262144 Invalid Blocks : 0
Heartbeat CPU 1 instructions: 40000002 cycles: 17328521 heartbeat IPC: 2.45856 cumulative IPC: 2.30833 (Simulation time: 11 hr 0 min 5 sec) 
 Total Blocks : 262144 Invalid Blocks : 0
Heartbeat CPU 6 instructions: 40000002 cycles: 17328532 heartbeat IPC: 2.45855 cumulative IPC: 2.30833 (Simulation time: 11 hr 0 min 5 sec) 
 Total Blocks : 262144 Invalid Blocks : 0
Heartbeat CPU 4 instructions: 40000002 cycles: 17328536 heartbeat IPC: 2.45857 cumulative IPC: 2.30833 (Simulation time: 11 hr 0 min 5 sec) 
 Total Blocks : 262144 Invalid Blocks : 0
Heartbeat CPU 2 instructions: 40000002 cycles: 17328567 heartbeat IPC: 2.45853 cumulative IPC: 2.30833 (Simulation time: 11 hr 0 min 6 sec) 
 Total Blocks : 262144 Invalid Blocks : 0
Heartbeat CPU 5 instructions: 40000002 cycles: 17328624 heartbeat IPC: 2.45852 cumulative IPC: 2.30832 (Simulation time: 11 hr 0 min 6 sec) 
 Total Blocks : 262144 Invalid Blocks : 0
Heartbeat CPU 7 instructions: 40000002 cycles: 17328631 heartbeat IPC: 2.45852 cumulative IPC: 2.30832 (Simulation time: 11 hr 0 min 6 sec) 
 Total Blocks : 262144 Invalid Blocks : 0
Heartbeat CPU 3 instructions: 50000001 cycles: 21320711 heartbeat IPC: 2.50474 cumulative IPC: 2.34514 (Simulation time: 13 hr 27 min 48 sec) 
 Total Blocks : 262144 Invalid Blocks : 0
Heartbeat CPU 1 instructions: 50000001 cycles: 21320957 heartbeat IPC: 2.50474 cumulative IPC: 2.34511 (Simulation time: 13 hr 27 min 56 sec) 
 Total Blocks : 262144 Invalid Blocks : 0
Heartbeat CPU 0 instructions: 50000001 cycles: 21320977 heartbeat IPC: 2.50472 cumulative IPC: 2.34511 (Simulation time: 13 hr 27 min 57 sec) 
 Total Blocks : 262144 Invalid Blocks : 0
Heartbeat CPU 4 instructions: 50000001 cycles: 21320987 heartbeat IPC: 2.50473 cumulative IPC: 2.34511 (Simulation time: 13 hr 27 min 57 sec) 
 Total Blocks : 262144 Invalid Blocks : 0
Heartbeat CPU 5 instructions: 50000001 cycles: 21321025 heartbeat IPC: 2.50476 cumulative IPC: 2.3451 (Simulation time: 13 hr 27 min 58 sec) 
 Total Blocks : 262144 Invalid Blocks : 0
Heartbeat CPU 2 instructions: 50000001 cycles: 21321039 heartbeat IPC: 2.50471 cumulative IPC: 2.3451 (Simulation time: 13 hr 27 min 58 sec) 
 Total Blocks : 262144 Invalid Blocks : 0
Heartbeat CPU 7 instructions: 50000001 cycles: 21321050 heartbeat IPC: 2.50475 cumulative IPC: 2.3451 (Simulation time: 13 hr 27 min 58 sec) 
 Total Blocks : 262144 Invalid Blocks : 0
Heartbeat CPU 6 instructions: 50000001 cycles: 21321082 heartbeat IPC: 2.50466 cumulative IPC: 2.3451 (Simulation time: 13 hr 27 min 58 sec) 
 Total Blocks : 262144 Invalid Blocks : 0
Heartbeat CPU 3 instructions: 60000000 cycles: 26170189 heartbeat IPC: 2.06208 cumulative IPC: 2.29269 (Simulation time: 15 hr 37 min 20 sec) 
 Total Blocks : 262144 Invalid Blocks : 0
Heartbeat CPU 1 instructions: 60000000 cycles: 26170460 heartbeat IPC: 2.06207 cumulative IPC: 2.29266 (Simulation time: 15 hr 37 min 26 sec) 
 Total Blocks : 262144 Invalid Blocks : 0
Heartbeat CPU 4 instructions: 60000000 cycles: 26170461 heartbeat IPC: 2.06208 cumulative IPC: 2.29266 (Simulation time: 15 hr 37 min 27 sec) 
 Total Blocks : 262144 Invalid Blocks : 0
Heartbeat CPU 5 instructions: 60000000 cycles: 26170461 heartbeat IPC: 2.0621 cumulative IPC: 2.29266 (Simulation time: 15 hr 37 min 27 sec) 
 Total Blocks : 262144 Invalid Blocks : 0
Heartbeat CPU 0 instructions: 60000000 cycles: 26170479 heartbeat IPC: 2.06207 cumulative IPC: 2.29266 (Simulation time: 15 hr 37 min 27 sec) 
 Total Blocks : 262144 Invalid Blocks : 0
Heartbeat CPU 2 instructions: 60000000 cycles: 26170588 heartbeat IPC: 2.06205 cumulative IPC: 2.29265 (Simulation time: 15 hr 37 min 28 sec) 
 Total Blocks : 262144 Invalid Blocks : 0
Heartbeat CPU 6 instructions: 60000000 cycles: 26170594 heartbeat IPC: 2.06206 cumulative IPC: 2.29265 (Simulation time: 15 hr 37 min 28 sec) 
 Total Blocks : 262144 Invalid Blocks : 0
Heartbeat CPU 7 instructions: 60000000 cycles: 26170688 heartbeat IPC: 2.06201 cumulative IPC: 2.29264 (Simulation time: 15 hr 37 min 28 sec) 
 Total Blocks : 262144 Invalid Blocks : 0
Heartbeat CPU 3 instructions: 70000003 cycles: 30714910 heartbeat IPC: 2.20036 cumulative IPC: 2.27902 (Simulation time: 17 hr 57 min 8 sec) 
 Total Blocks : 262144 Invalid Blocks : 0
Heartbeat CPU 1 instructions: 70000003 cycles: 30715320 heartbeat IPC: 2.20029 cumulative IPC: 2.27899 (Simulation time: 17 hr 57 min 12 sec) 
 Total Blocks : 262144 Invalid Blocks : 0
Heartbeat CPU 0 instructions: 70000003 cycles: 30715337 heartbeat IPC: 2.20029 cumulative IPC: 2.27899 (Simulation time: 17 hr 57 min 12 sec) 
 Total Blocks : 262144 Invalid Blocks : 0
Heartbeat CPU 4 instructions: 70000003 cycles: 30715378 heartbeat IPC: 2.20026 cumulative IPC: 2.27899 (Simulation time: 17 hr 57 min 12 sec) 
 Total Blocks : 262144 Invalid Blocks : 0
Heartbeat CPU 2 instructions: 70000003 cycles: 30715386 heartbeat IPC: 2.20032 cumulative IPC: 2.27899 (Simulation time: 17 hr 57 min 12 sec) 
 Total Blocks : 262144 Invalid Blocks : 0
Heartbeat CPU 5 instructions: 70000003 cycles: 30715446 heartbeat IPC: 2.20023 cumulative IPC: 2.27898 (Simulation time: 17 hr 57 min 12 sec) 
 Total Blocks : 262144 Invalid Blocks : 0
Heartbeat CPU 6 instructions: 70000003 cycles: 30715504 heartbeat IPC: 2.20026 cumulative IPC: 2.27898 (Simulation time: 17 hr 57 min 12 sec) 
 Total Blocks : 262144 Invalid Blocks : 0
Heartbeat CPU 7 instructions: 70000003 cycles: 30715826 heartbeat IPC: 2.20015 cumulative IPC: 2.27896 (Simulation time: 17 hr 57 min 13 sec) 
 Total Blocks : 262144 Invalid Blocks : 0
Heartbeat CPU 3 instructions: 80000000 cycles: 35121811 heartbeat IPC: 2.26917 cumulative IPC: 2.27779 (Simulation time: 19 hr 33 min 3 sec) 
 Total Blocks : 262144 Invalid Blocks : 0
Heartbeat CPU 1 instructions: 80000000 cycles: 35122232 heartbeat IPC: 2.26916 cumulative IPC: 2.27776 (Simulation time: 19 hr 33 min 8 sec) 
 Total Blocks : 262144 Invalid Blocks : 0
Heartbeat CPU 4 instructions: 80000000 cycles: 35122248 heartbeat IPC: 2.26918 cumulative IPC: 2.27776 (Simulation time: 19 hr 33 min 8 sec) 
 Total Blocks : 262144 Invalid Blocks : 0
Heartbeat CPU 0 instructions: 80000000 cycles: 35122294 heartbeat IPC: 2.26914 cumulative IPC: 2.27776 (Simulation time: 19 hr 33 min 8 sec) 
 Total Blocks : 262144 Invalid Blocks : 0
Heartbeat CPU 2 instructions: 80000000 cycles: 35122320 heartbeat IPC: 2.26915 cumulative IPC: 2.27775 (Simulation time: 19 hr 33 min 8 sec) 
 Total Blocks : 262144 Invalid Blocks : 0
Heartbeat CPU 5 instructions: 80000000 cycles: 35122437 heartbeat IPC: 2.26912 cumulative IPC: 2.27775 (Simulation time: 19 hr 33 min 8 sec) 
 Total Blocks : 262144 Invalid Blocks : 0
Heartbeat CPU 6 instructions: 80000000 cycles: 35122605 heartbeat IPC: 2.26906 cumulative IPC: 2.27774 (Simulation time: 19 hr 33 min 8 sec) 
 Total Blocks : 262144 Invalid Blocks : 0
Heartbeat CPU 7 instructions: 80000000 cycles: 35122905 heartbeat IPC: 2.26908 cumulative IPC: 2.27772 (Simulation time: 19 hr 33 min 10 sec) 
 Total Blocks : 262144 Invalid Blocks : 0
Heartbeat CPU 3 instructions: 90000002 cycles: 39869618 heartbeat IPC: 2.10624 cumulative IPC: 2.25736 (Simulation time: 21 hr 16 min 18 sec) 
 Total Blocks : 262144 Invalid Blocks : 0
Heartbeat CPU 4 instructions: 90000002 cycles: 39870168 heartbeat IPC: 2.10619 cumulative IPC: 2.25733 (Simulation time: 21 hr 16 min 22 sec) 
 Total Blocks : 262144 Invalid Blocks : 0
Heartbeat CPU 0 instructions: 90000002 cycles: 39870202 heartbeat IPC: 2.10619 cumulative IPC: 2.25732 (Simulation time: 21 hr 16 min 22 sec) 
 Total Blocks : 262144 Invalid Blocks : 0
Heartbeat CPU 2 instructions: 90000002 cycles: 39870224 heartbeat IPC: 2.10619 cumulative IPC: 2.25732 (Simulation time: 21 hr 16 min 22 sec) 
 Total Blocks : 262144 Invalid Blocks : 0
Heartbeat CPU 1 instructions: 90000002 cycles: 39870284 heartbeat IPC: 2.10613 cumulative IPC: 2.25732 (Simulation time: 21 hr 16 min 22 sec) 
 Total Blocks : 262144 Invalid Blocks : 0
Heartbeat CPU 5 instructions: 90000002 cycles: 39870394 heartbeat IPC: 2.10617 cumulative IPC: 2.25731 (Simulation time: 21 hr 16 min 23 sec) 
 Total Blocks : 262144 Invalid Blocks : 0
Heartbeat CPU 6 instructions: 90000002 cycles: 39870470 heartbeat IPC: 2.10621 cumulative IPC: 2.25731 (Simulation time: 21 hr 16 min 23 sec) 
 Total Blocks : 262144 Invalid Blocks : 0
Heartbeat CPU 7 instructions: 90000002 cycles: 39870970 heartbeat IPC: 2.10612 cumulative IPC: 2.25728 (Simulation time: 21 hr 16 min 23 sec) 
 Total Blocks : 262144 Invalid Blocks : 0
Heartbeat CPU 3 instructions: 100000000 cycles: 44466708 heartbeat IPC: 2.17529 cumulative IPC: 2.24887 (Simulation time: 23 hr 26 min 56 sec) 
 Total Blocks : 262144 Invalid Blocks : 0
Heartbeat CPU 4 instructions: 100000000 cycles: 44467426 heartbeat IPC: 2.17521 cumulative IPC: 2.24884 (Simulation time: 23 hr 26 min 59 sec) 
 Total Blocks : 262144 Invalid Blocks : 0
Heartbeat CPU 0 instructions: 100000000 cycles: 44467455 heartbeat IPC: 2.17521 cumulative IPC: 2.24884 (Simulation time: 23 hr 26 min 59 sec) 
 Total Blocks : 262144 Invalid Blocks : 0
Heartbeat CPU 2 instructions: 100000000 cycles: 44467530 heartbeat IPC: 2.17519 cumulative IPC: 2.24883 (Simulation time: 23 hr 26 min 59 sec) 
 Total Blocks : 262144 Invalid Blocks : 0
Heartbeat CPU 1 instructions: 100000000 cycles: 44467677 heartbeat IPC: 2.17515 cumulative IPC: 2.24882 (Simulation time: 23 hr 26 min 59 sec) 
 Total Blocks : 262144 Invalid Blocks : 0
Heartbeat CPU 5 instructions: 100000000 cycles: 44467800 heartbeat IPC: 2.17514 cumulative IPC: 2.24882 (Simulation time: 23 hr 27 min 0 sec) 
 Total Blocks : 262144 Invalid Blocks : 0
Heartbeat CPU 6 instructions: 100000000 cycles: 44467943 heartbeat IPC: 2.17511 cumulative IPC: 2.24881 (Simulation time: 23 hr 27 min 0 sec) 
 Total Blocks : 262144 Invalid Blocks : 0
Heartbeat CPU 7 instructions: 100000000 cycles: 44468394 heartbeat IPC: 2.17513 cumulative IPC: 2.24879 (Simulation time: 23 hr 27 min 1 sec) 
 Total Blocks : 262144 Invalid Blocks : 0
Heartbeat CPU 3 instructions: 110000000 cycles: 49001546 heartbeat IPC: 2.20515 cumulative IPC: 2.24483 (Simulation time: 24 hr 38 min 39 sec) 
 Total Blocks : 262144 Invalid Blocks : 0
Heartbeat CPU 4 instructions: 110000000 cycles: 49002228 heartbeat IPC: 2.20517 cumulative IPC: 2.2448 (Simulation time: 24 hr 38 min 41 sec) 
 Total Blocks : 262144 Invalid Blocks : 0
Heartbeat CPU 0 instructions: 110000000 cycles: 49002269 heartbeat IPC: 2.20516 cumulative IPC: 2.24479 (Simulation time: 24 hr 38 min 41 sec) 
 Total Blocks : 262144 Invalid Blocks : 0
Heartbeat CPU 2 instructions: 110000000 cycles: 49002324 heartbeat IPC: 2.20517 cumulative IPC: 2.24479 (Simulation time: 24 hr 38 min 41 sec) 
 Total Blocks : 262144 Invalid Blocks : 0
Heartbeat CPU 1 instructions: 110000000 cycles: 49002466 heartbeat IPC: 2.20517 cumulative IPC: 2.24479 (Simulation time: 24 hr 38 min 41 sec) 
 Total Blocks : 262144 Invalid Blocks : 0
Heartbeat CPU 5 instructions: 110000000 cycles: 49002644 heartbeat IPC: 2.20515 cumulative IPC: 2.24478 (Simulation time: 24 hr 38 min 41 sec) 
 Total Blocks : 262144 Invalid Blocks : 0
Heartbeat CPU 6 instructions: 110000000 cycles: 49002766 heartbeat IPC: 2.20516 cumulative IPC: 2.24477 (Simulation time: 24 hr 38 min 41 sec) 
 Total Blocks : 262144 Invalid Blocks : 0
Heartbeat CPU 7 instructions: 110000000 cycles: 49003239 heartbeat IPC: 2.20515 cumulative IPC: 2.24475 (Simulation time: 24 hr 38 min 42 sec) 
 Total Blocks : 262144 Invalid Blocks : 0
Heartbeat CPU 3 instructions: 120000002 cycles: 53547966 heartbeat IPC: 2.19953 cumulative IPC: 2.24098 (Simulation time: 25 hr 57 min 1 sec) 
 Total Blocks : 262144 Invalid Blocks : 0
Heartbeat CPU 4 instructions: 120000002 cycles: 53548547 heartbeat IPC: 2.19958 cumulative IPC: 2.24096 (Simulation time: 25 hr 57 min 4 sec) 
 Total Blocks : 262144 Invalid Blocks : 0
Heartbeat CPU 0 instructions: 120000002 cycles: 53548613 heartbeat IPC: 2.19957 cumulative IPC: 2.24095 (Simulation time: 25 hr 57 min 4 sec) 
 Total Blocks : 262144 Invalid Blocks : 0
Heartbeat CPU 2 instructions: 120000002 cycles: 53548648 heartbeat IPC: 2.19958 cumulative IPC: 2.24095 (Simulation time: 25 hr 57 min 4 sec) 
 Total Blocks : 262144 Invalid Blocks : 0
Heartbeat CPU 1 instructions: 120000002 cycles: 53548811 heartbeat IPC: 2.19957 cumulative IPC: 2.24095 (Simulation time: 25 hr 57 min 4 sec) 
 Total Blocks : 262144 Invalid Blocks : 0
Heartbeat CPU 5 instructions: 120000002 cycles: 53548939 heartbeat IPC: 2.19959 cumulative IPC: 2.24094 (Simulation time: 25 hr 57 min 4 sec) 
 Total Blocks : 262144 Invalid Blocks : 0
Heartbeat CPU 6 instructions: 120000002 cycles: 53549085 heartbeat IPC: 2.19958 cumulative IPC: 2.24093 (Simulation time: 25 hr 57 min 4 sec) 
 Total Blocks : 262144 Invalid Blocks : 0
Heartbeat CPU 7 instructions: 120000002 cycles: 53549741 heartbeat IPC: 2.19949 cumulative IPC: 2.24091 (Simulation time: 25 hr 57 min 5 sec) 
 Total Blocks : 262144 Invalid Blocks : 0
Heartbeat CPU 3 instructions: 130000001 cycles: 58008126 heartbeat IPC: 2.24207 cumulative IPC: 2.24107 (Simulation time: 26 hr 59 min 54 sec) 
 Total Blocks : 262144 Invalid Blocks : 0
Heartbeat CPU 4 instructions: 130000001 cycles: 58008702 heartbeat IPC: 2.24207 cumulative IPC: 2.24104 (Simulation time: 26 hr 59 min 56 sec) 
 Total Blocks : 262144 Invalid Blocks : 0
Heartbeat CPU 2 instructions: 130000001 cycles: 58008776 heartbeat IPC: 2.24209 cumulative IPC: 2.24104 (Simulation time: 26 hr 59 min 57 sec) 
 Total Blocks : 262144 Invalid Blocks : 0
Heartbeat CPU 0 instructions: 130000001 cycles: 58008789 heartbeat IPC: 2.24206 cumulative IPC: 2.24104 (Simulation time: 26 hr 59 min 57 sec) 
 Total Blocks : 262144 Invalid Blocks : 0
Heartbeat CPU 1 instructions: 130000001 cycles: 58008947 heartbeat IPC: 2.24208 cumulative IPC: 2.24103 (Simulation time: 26 hr 59 min 57 sec) 
 Total Blocks : 262144 Invalid Blocks : 0
Heartbeat CPU 5 instructions: 130000001 cycles: 58009081 heartbeat IPC: 2.24208 cumulative IPC: 2.24103 (Simulation time: 26 hr 59 min 57 sec) 
 Total Blocks : 262144 Invalid Blocks : 0
Heartbeat CPU 6 instructions: 130000001 cycles: 58009253 heartbeat IPC: 2.24207 cumulative IPC: 2.24102 (Simulation time: 26 hr 59 min 57 sec) 
 Total Blocks : 262144 Invalid Blocks : 0
Heartbeat CPU 7 instructions: 130000001 cycles: 58009915 heartbeat IPC: 2.24206 cumulative IPC: 2.241 (Simulation time: 26 hr 59 min 58 sec) 
 Total Blocks : 262144 Invalid Blocks : 0
Heartbeat CPU 3 instructions: 140000003 cycles: 62594169 heartbeat IPC: 2.18053 cumulative IPC: 2.23663 (Simulation time: 28 hr 17 min 42 sec) 
 Total Blocks : 262144 Invalid Blocks : 0
Heartbeat CPU 0 instructions: 140000003 cycles: 62594782 heartbeat IPC: 2.18055 cumulative IPC: 2.23661 (Simulation time: 28 hr 17 min 44 sec) 
 Total Blocks : 262144 Invalid Blocks : 0
Heartbeat CPU 4 instructions: 140000003 cycles: 62594809 heartbeat IPC: 2.1805 cumulative IPC: 2.23661 (Simulation time: 28 hr 17 min 44 sec) 
 Total Blocks : 262144 Invalid Blocks : 0
Heartbeat CPU 2 instructions: 140000003 cycles: 62594812 heartbeat IPC: 2.18053 cumulative IPC: 2.23661 (Simulation time: 28 hr 17 min 44 sec) 
 Total Blocks : 262144 Invalid Blocks : 0
Heartbeat CPU 1 instructions: 140000003 cycles: 62594921 heartbeat IPC: 2.18056 cumulative IPC: 2.2366 (Simulation time: 28 hr 17 min 44 sec) 
 Total Blocks : 262144 Invalid Blocks : 0
Heartbeat CPU 5 instructions: 140000003 cycles: 62595135 heartbeat IPC: 2.18052 cumulative IPC: 2.2366 (Simulation time: 28 hr 17 min 45 sec) 
 Total Blocks : 262144 Invalid Blocks : 0
Heartbeat CPU 6 instructions: 140000003 cycles: 62595443 heartbeat IPC: 2.18046 cumulative IPC: 2.23658 (Simulation time: 28 hr 17 min 45 sec) 
 Total Blocks : 262144 Invalid Blocks : 0
Heartbeat CPU 7 instructions: 140000003 cycles: 62595979 heartbeat IPC: 2.18052 cumulative IPC: 2.23657 (Simulation time: 28 hr 17 min 46 sec) 
 Total Blocks : 262144 Invalid Blocks : 0
Heartbeat CPU 3 instructions: 150000000 cycles: 67049231 heartbeat IPC: 2.24464 cumulative IPC: 2.23716 (Simulation time: 29 hr 18 min 12 sec) 
 Total Blocks : 262144 Invalid Blocks : 0
Heartbeat CPU 0 instructions: 150000000 cycles: 67049865 heartbeat IPC: 2.24463 cumulative IPC: 2.23714 (Simulation time: 29 hr 18 min 15 sec) 
 Total Blocks : 262144 Invalid Blocks : 0
Heartbeat CPU 4 instructions: 150000000 cycles: 67049877 heartbeat IPC: 2.24463 cumulative IPC: 2.23714 (Simulation time: 29 hr 18 min 15 sec) 
 Total Blocks : 262144 Invalid Blocks : 0
Heartbeat CPU 2 instructions: 150000000 cycles: 67049940 heartbeat IPC: 2.2446 cumulative IPC: 2.23714 (Simulation time: 29 hr 18 min 15 sec) 
 Total Blocks : 262144 Invalid Blocks : 0
Heartbeat CPU 1 instructions: 150000000 cycles: 67049997 heartbeat IPC: 2.24463 cumulative IPC: 2.23714 (Simulation time: 29 hr 18 min 15 sec) 
 Total Blocks : 262144 Invalid Blocks : 0
Heartbeat CPU 5 instructions: 150000000 cycles: 67050177 heartbeat IPC: 2.24465 cumulative IPC: 2.23713 (Simulation time: 29 hr 18 min 15 sec) 
 Total Blocks : 262144 Invalid Blocks : 0
Heartbeat CPU 6 instructions: 150000000 cycles: 67050501 heartbeat IPC: 2.24464 cumulative IPC: 2.23712 (Simulation time: 29 hr 18 min 15 sec) 
 Total Blocks : 262144 Invalid Blocks : 0
Heartbeat CPU 7 instructions: 150000000 cycles: 67051065 heartbeat IPC: 2.24462 cumulative IPC: 2.2371 (Simulation time: 29 hr 18 min 16 sec) 
 Total Blocks : 262144 Invalid Blocks : 0
Heartbeat CPU 3 instructions: 160000000 cycles: 71609230 heartbeat IPC: 2.19298 cumulative IPC: 2.23435 (Simulation time: 30 hr 23 min 32 sec) 
 Total Blocks : 262144 Invalid Blocks : 0
Heartbeat CPU 4 instructions: 160000000 cycles: 71609848 heartbeat IPC: 2.193 cumulative IPC: 2.23433 (Simulation time: 30 hr 23 min 35 sec) 
 Total Blocks : 262144 Invalid Blocks : 0
Heartbeat CPU 1 instructions: 160000000 cycles: 71609905 heartbeat IPC: 2.19303 cumulative IPC: 2.23433 (Simulation time: 30 hr 23 min 35 sec) 
 Total Blocks : 262144 Invalid Blocks : 0
Heartbeat CPU 0 instructions: 160000000 cycles: 71609917 heartbeat IPC: 2.19296 cumulative IPC: 2.23433 (Simulation time: 30 hr 23 min 35 sec) 
 Total Blocks : 262144 Invalid Blocks : 0
Heartbeat CPU 2 instructions: 160000000 cycles: 71609938 heartbeat IPC: 2.19298 cumulative IPC: 2.23433 (Simulation time: 30 hr 23 min 35 sec) 
 Total Blocks : 262144 Invalid Blocks : 0
Heartbeat CPU 5 instructions: 160000000 cycles: 71610204 heartbeat IPC: 2.19297 cumulative IPC: 2.23432 (Simulation time: 30 hr 23 min 35 sec) 
 Total Blocks : 262144 Invalid Blocks : 0
Heartbeat CPU 6 instructions: 160000000 cycles: 71610546 heartbeat IPC: 2.19296 cumulative IPC: 2.23431 (Simulation time: 30 hr 23 min 35 sec) 
 Total Blocks : 262144 Invalid Blocks : 0
Heartbeat CPU 7 instructions: 160000000 cycles: 71610991 heartbeat IPC: 2.19302 cumulative IPC: 2.23429 (Simulation time: 30 hr 23 min 35 sec) 
 Total Blocks : 262144 Invalid Blocks : 0
Heartbeat CPU 3 instructions: 170000000 cycles: 76145903 heartbeat IPC: 2.20426 cumulative IPC: 2.23256 (Simulation time: 31 hr 32 min 43 sec) 
 Total Blocks : 262144 Invalid Blocks : 0
Heartbeat CPU 1 instructions: 170000000 cycles: 76146440 heartbeat IPC: 2.20433 cumulative IPC: 2.23254 (Simulation time: 31 hr 32 min 45 sec) 
 Total Blocks : 262144 Invalid Blocks : 0
Heartbeat CPU 4 instructions: 170000000 cycles: 76146485 heartbeat IPC: 2.20428 cumulative IPC: 2.23254 (Simulation time: 31 hr 32 min 45 sec) 
 Total Blocks : 262144 Invalid Blocks : 0
Heartbeat CPU 2 instructions: 170000000 cycles: 76146506 heartbeat IPC: 2.20431 cumulative IPC: 2.23254 (Simulation time: 31 hr 32 min 45 sec) 
 Total Blocks : 262144 Invalid Blocks : 0
Heartbeat CPU 0 instructions: 170000000 cycles: 76146603 heartbeat IPC: 2.20425 cumulative IPC: 2.23254 (Simulation time: 31 hr 32 min 45 sec) 
 Total Blocks : 262144 Invalid Blocks : 0
Heartbeat CPU 5 instructions: 170000000 cycles: 76146871 heartbeat IPC: 2.20426 cumulative IPC: 2.23253 (Simulation time: 31 hr 32 min 45 sec) 
 Total Blocks : 262144 Invalid Blocks : 0
Heartbeat CPU 6 instructions: 170000000 cycles: 76147245 heartbeat IPC: 2.20425 cumulative IPC: 2.23252 (Simulation time: 31 hr 32 min 46 sec) 
 Total Blocks : 262144 Invalid Blocks : 0
Heartbeat CPU 7 instructions: 170000000 cycles: 76147760 heartbeat IPC: 2.20421 cumulative IPC: 2.2325 (Simulation time: 31 hr 32 min 46 sec) 
 Total Blocks : 262144 Invalid Blocks : 0
Heartbeat CPU 3 instructions: 180000001 cycles: 80615299 heartbeat IPC: 2.23744 cumulative IPC: 2.23283 (Simulation time: 32 hr 31 min 22 sec) 
 Total Blocks : 262144 Invalid Blocks : 0
Heartbeat CPU 1 instructions: 180000001 cycles: 80615794 heartbeat IPC: 2.23746 cumulative IPC: 2.23281 (Simulation time: 32 hr 31 min 25 sec) 
 Total Blocks : 262144 Invalid Blocks : 0
Heartbeat CPU 4 instructions: 180000001 cycles: 80615852 heartbeat IPC: 2.23745 cumulative IPC: 2.23281 (Simulation time: 32 hr 31 min 25 sec) 
 Total Blocks : 262144 Invalid Blocks : 0
Heartbeat CPU 2 instructions: 180000001 cycles: 80615858 heartbeat IPC: 2.23746 cumulative IPC: 2.23281 (Simulation time: 32 hr 31 min 26 sec) 
 Total Blocks : 262144 Invalid Blocks : 0
Heartbeat CPU 0 instructions: 180000001 cycles: 80615978 heartbeat IPC: 2.23745 cumulative IPC: 2.23281 (Simulation time: 32 hr 31 min 26 sec) 
 Total Blocks : 262144 Invalid Blocks : 0
Heartbeat CPU 5 instructions: 180000001 cycles: 80616218 heartbeat IPC: 2.23746 cumulative IPC: 2.2328 (Simulation time: 32 hr 31 min 26 sec) 
 Total Blocks : 262144 Invalid Blocks : 0
Heartbeat CPU 6 instructions: 180000001 cycles: 80616623 heartbeat IPC: 2.23745 cumulative IPC: 2.23279 (Simulation time: 32 hr 31 min 26 sec) 
 Total Blocks : 262144 Invalid Blocks : 0
Heartbeat CPU 7 instructions: 180000001 cycles: 80617109 heartbeat IPC: 2.23746 cumulative IPC: 2.23278 (Simulation time: 32 hr 31 min 26 sec) 
 Total Blocks : 262144 Invalid Blocks : 0
Heartbeat CPU 3 instructions: 190000002 cycles: 85286788 heartbeat IPC: 2.14065 cumulative IPC: 2.22778 (Simulation time: 33 hr 28 min 42 sec) 
 Total Blocks : 262144 Invalid Blocks : 0
Heartbeat CPU 1 instructions: 190000002 cycles: 85287198 heartbeat IPC: 2.14068 cumulative IPC: 2.22777 (Simulation time: 33 hr 28 min 45 sec) 
 Total Blocks : 262144 Invalid Blocks : 0
Heartbeat CPU 4 instructions: 190000002 cycles: 85287225 heartbeat IPC: 2.1407 cumulative IPC: 2.22777 (Simulation time: 33 hr 28 min 45 sec) 
 Total Blocks : 262144 Invalid Blocks : 0
Heartbeat CPU 2 instructions: 190000002 cycles: 85287232 heartbeat IPC: 2.1407 cumulative IPC: 2.22777 (Simulation time: 33 hr 28 min 45 sec) 
 Total Blocks : 262144 Invalid Blocks : 0
Heartbeat CPU 0 instructions: 190000002 cycles: 85287286 heartbeat IPC: 2.14073 cumulative IPC: 2.22776 (Simulation time: 33 hr 28 min 45 sec) 
 Total Blocks : 262144 Invalid Blocks : 0
Heartbeat CPU 5 instructions: 190000002 cycles: 85287604 heartbeat IPC: 2.14069 cumulative IPC: 2.22776 (Simulation time: 33 hr 28 min 45 sec) 
 Total Blocks : 262144 Invalid Blocks : 0
Heartbeat CPU 6 instructions: 190000002 cycles: 85288097 heartbeat IPC: 2.14065 cumulative IPC: 2.22774 (Simulation time: 33 hr 28 min 45 sec) 
 Total Blocks : 262144 Invalid Blocks : 0
Heartbeat CPU 7 instructions: 190000002 cycles: 85288565 heartbeat IPC: 2.14066 cumulative IPC: 2.22773 (Simulation time: 33 hr 28 min 45 sec) 
 Total Blocks : 262144 Invalid Blocks : 0
Heartbeat CPU 3 instructions: 200000002 cycles: 90218431 heartbeat IPC: 2.02772 cumulative IPC: 2.21684 (Simulation time: 34 hr 0 min 57 sec) 
 Total Blocks : 262144 Invalid Blocks : 0
Heartbeat CPU 1 instructions: 200000002 cycles: 90218841 heartbeat IPC: 2.02772 cumulative IPC: 2.21683 (Simulation time: 34 hr 0 min 59 sec) 
 Total Blocks : 262144 Invalid Blocks : 0
Heartbeat CPU 2 instructions: 200000002 cycles: 90218870 heartbeat IPC: 2.02772 cumulative IPC: 2.21683 (Simulation time: 34 hr 0 min 59 sec) 
 Total Blocks : 262144 Invalid Blocks : 0
Heartbeat CPU 4 instructions: 200000002 cycles: 90218871 heartbeat IPC: 2.02772 cumulative IPC: 2.21683 (Simulation time: 34 hr 1 min 0 sec) 
 Total Blocks : 262144 Invalid Blocks : 0
Heartbeat CPU 0 instructions: 200000002 cycles: 90218929 heartbeat IPC: 2.02772 cumulative IPC: 2.21683 (Simulation time: 34 hr 1 min 0 sec) 
 Total Blocks : 262144 Invalid Blocks : 0
Heartbeat CPU 5 instructions: 200000002 cycles: 90219247 heartbeat IPC: 2.02772 cumulative IPC: 2.21682 (Simulation time: 34 hr 1 min 0 sec) 
 Total Blocks : 262144 Invalid Blocks : 0
Heartbeat CPU 6 instructions: 200000002 cycles: 90219740 heartbeat IPC: 2.02772 cumulative IPC: 2.21681 (Simulation time: 34 hr 1 min 0 sec) 
 Total Blocks : 262144 Invalid Blocks : 0
Heartbeat CPU 7 instructions: 200000002 cycles: 90220213 heartbeat IPC: 2.02772 cumulative IPC: 2.2168 (Simulation time: 34 hr 1 min 0 sec) 
 Total Blocks : 262144 Invalid Blocks : 0

Warmup complete CPU 0 instructions: 200002683 cycles: 90220213 (Simulation time: 34 hr 1 min 0 sec) 
Warmup complete CPU 1 instructions: 200002861 cycles: 90220213 (Simulation time: 34 hr 1 min 0 sec) 
Warmup complete CPU 2 instructions: 200002819 cycles: 90220213 (Simulation time: 34 hr 1 min 0 sec) 
Warmup complete CPU 3 instructions: 200003736 cycles: 90220213 (Simulation time: 34 hr 1 min 0 sec) 
Warmup complete CPU 4 instructions: 200002819 cycles: 90220213 (Simulation time: 34 hr 1 min 0 sec) 
Warmup complete CPU 5 instructions: 200002031 cycles: 90220213 (Simulation time: 34 hr 1 min 0 sec) 
Warmup complete CPU 6 instructions: 200001021 cycles: 90220213 (Simulation time: 34 hr 1 min 0 sec) 
Warmup complete CPU 7 instructions: 200000002 cycles: 90220213 (Simulation time: 34 hr 1 min 0 sec) 

Heartbeat CPU 3 instructions: 210000003 cycles: 105354969 heartbeat IPC: 0.660653 cumulative IPC: 0.660484 (Simulation time: 34 hr 43 min 33 sec) 
 Total Blocks : 262144 Invalid Blocks : 0
Heartbeat CPU 1 instructions: 210000003 cycles: 105367231 heartbeat IPC: 0.660136 cumulative IPC: 0.660007 (Simulation time: 34 hr 43 min 54 sec) 
 Total Blocks : 262144 Invalid Blocks : 0
Heartbeat CPU 5 instructions: 210000003 cycles: 105369723 heartbeat IPC: 0.660045 cumulative IPC: 0.659953 (Simulation time: 34 hr 43 min 56 sec) 
 Total Blocks : 262144 Invalid Blocks : 0
Heartbeat CPU 4 instructions: 210000003 cycles: 105370985 heartbeat IPC: 0.659974 cumulative IPC: 0.659846 (Simulation time: 34 hr 43 min 56 sec) 
 Total Blocks : 262144 Invalid Blocks : 0
Heartbeat CPU 0 instructions: 210000003 cycles: 105372750 heartbeat IPC: 0.6599 cumulative IPC: 0.659779 (Simulation time: 34 hr 43 min 57 sec) 
 Total Blocks : 262144 Invalid Blocks : 0
Heartbeat CPU 2 instructions: 210000003 cycles: 105377384 heartbeat IPC: 0.659695 cumulative IPC: 0.659568 (Simulation time: 34 hr 43 min 58 sec) 
 Total Blocks : 262144 Invalid Blocks : 0
Heartbeat CPU 7 instructions: 210000003 cycles: 105381385 heartbeat IPC: 0.65958 cumulative IPC: 0.65958 (Simulation time: 34 hr 43 min 58 sec) 
 Total Blocks : 262144 Invalid Blocks : 0
Heartbeat CPU 6 instructions: 210000003 cycles: 105384278 heartbeat IPC: 0.659433 cumulative IPC: 0.659387 (Simulation time: 34 hr 43 min 58 sec) 
 Total Blocks : 262144 Invalid Blocks : 0
Heartbeat CPU 3 instructions: 220000000 cycles: 120928524 heartbeat IPC: 0.642114 cumulative IPC: 0.651168 (Simulation time: 35 hr 30 min 13 sec) 
 Total Blocks : 262144 Invalid Blocks : 0
Heartbeat CPU 5 instructions: 220000000 cycles: 120971678 heartbeat IPC: 0.640945 cumulative IPC: 0.650309 (Simulation time: 35 hr 30 min 26 sec) 
 Total Blocks : 262144 Invalid Blocks : 0
Heartbeat CPU 1 instructions: 220000000 cycles: 120974732 heartbeat IPC: 0.640717 cumulative IPC: 0.650218 (Simulation time: 35 hr 30 min 28 sec) 
 Total Blocks : 262144 Invalid Blocks : 0
Heartbeat CPU 2 instructions: 220000000 cycles: 120985961 heartbeat IPC: 0.640673 cumulative IPC: 0.649982 (Simulation time: 35 hr 30 min 31 sec) 
 Total Blocks : 262144 Invalid Blocks : 0
Heartbeat CPU 0 instructions: 220000000 cycles: 120989550 heartbeat IPC: 0.640336 cumulative IPC: 0.649911 (Simulation time: 35 hr 30 min 32 sec) 
 Total Blocks : 262144 Invalid Blocks : 0
Heartbeat CPU 4 instructions: 220000000 cycles: 120993598 heartbeat IPC: 0.640098 cumulative IPC: 0.649821 (Simulation time: 35 hr 30 min 32 sec) 
 Total Blocks : 262144 Invalid Blocks : 0
Heartbeat CPU 7 instructions: 220000000 cycles: 121028597 heartbeat IPC: 0.639091 cumulative IPC: 0.649174 (Simulation time: 35 hr 30 min 46 sec) 
 Total Blocks : 262144 Invalid Blocks : 0
Heartbeat CPU 6 instructions: 220000000 cycles: 121086742 heartbeat IPC: 0.636843 cumulative IPC: 0.647918 (Simulation time: 35 hr 31 min 12 sec) 
 Total Blocks : 262144 Invalid Blocks : 0
Heartbeat CPU 1 instructions: 230000002 cycles: 149662427 heartbeat IPC: 0.348582 cumulative IPC: 0.504644 (Simulation time: 37 hr 29 min 11 sec) 
 Total Blocks : 262144 Invalid Blocks : 0
Heartbeat CPU 0 instructions: 230000002 cycles: 149695275 heartbeat IPC: 0.348363 cumulative IPC: 0.504368 (Simulation time: 37 hr 29 min 18 sec) 
 Total Blocks : 262144 Invalid Blocks : 0
Heartbeat CPU 5 instructions: 230000002 cycles: 149713044 heartbeat IPC: 0.347931 cumulative IPC: 0.504228 (Simulation time: 37 hr 29 min 21 sec) 
 Total Blocks : 262144 Invalid Blocks : 0
Heartbeat CPU 4 instructions: 230000002 cycles: 149715651 heartbeat IPC: 0.348165 cumulative IPC: 0.504193 (Simulation time: 37 hr 29 min 21 sec) 
 Total Blocks : 262144 Invalid Blocks : 0
Heartbeat CPU 2 instructions: 230000002 cycles: 149755698 heartbeat IPC: 0.347588 cumulative IPC: 0.503854 (Simulation time: 37 hr 29 min 26 sec) 
 Total Blocks : 262144 Invalid Blocks : 0
Heartbeat CPU 3 instructions: 230000002 cycles: 149803746 heartbeat IPC: 0.346318 cumulative IPC: 0.503432 (Simulation time: 37 hr 29 min 31 sec) 
 Total Blocks : 262144 Invalid Blocks : 0
Heartbeat CPU 7 instructions: 230000002 cycles: 150124667 heartbeat IPC: 0.343689 cumulative IPC: 0.500798 (Simulation time: 37 hr 30 min 47 sec) 
 Total Blocks : 262144 Invalid Blocks : 0
Heartbeat CPU 6 instructions: 230000002 cycles: 150402239 heartbeat IPC: 0.341117 cumulative IPC: 0.498471 (Simulation time: 37 hr 31 min 53 sec) 
 Total Blocks : 262144 Invalid Blocks : 0
Heartbeat CPU 4 instructions: 240000000 cycles: 188564062 heartbeat IPC: 0.257411 cumulative IPC: 0.406707 (Simulation time: 40 hr 0 min 22 sec) 
 Total Blocks : 262144 Invalid Blocks : 0
Heartbeat CPU 1 instructions: 240000000 cycles: 188577725 heartbeat IPC: 0.256968 cumulative IPC: 0.406651 (Simulation time: 40 hr 0 min 29 sec) 
 Total Blocks : 262144 Invalid Blocks : 0
Heartbeat CPU 5 instructions: 240000000 cycles: 188653198 heartbeat IPC: 0.256804 cumulative IPC: 0.406347 (Simulation time: 40 hr 1 min 6 sec) 
 Total Blocks : 262144 Invalid Blocks : 0
Heartbeat CPU 0 instructions: 240000000 cycles: 188761779 heartbeat IPC: 0.255974 cumulative IPC: 0.405893 (Simulation time: 40 hr 1 min 41 sec) 
 Total Blocks : 262144 Invalid Blocks : 0
Heartbeat CPU 2 instructions: 240000000 cycles: 188859303 heartbeat IPC: 0.255731 cumulative IPC: 0.40549 (Simulation time: 40 hr 2 min 21 sec) 
 Total Blocks : 262144 Invalid Blocks : 0
Heartbeat CPU 3 instructions: 240000000 cycles: 189116814 heartbeat IPC: 0.254368 cumulative IPC: 0.404425 (Simulation time: 40 hr 4 min 0 sec) 
 Total Blocks : 262144 Invalid Blocks : 0
Heartbeat CPU 7 instructions: 240000000 cycles: 189866372 heartbeat IPC: 0.251625 cumulative IPC: 0.40142 (Simulation time: 40 hr 9 min 4 sec) 
 Total Blocks : 262144 Invalid Blocks : 0
Heartbeat CPU 6 instructions: 240000000 cycles: 190142085 heartbeat IPC: 0.251637 cumulative IPC: 0.400303 (Simulation time: 40 hr 10 min 58 sec) 
 Total Blocks : 262144 Invalid Blocks : 0
Heartbeat CPU 1 instructions: 250000003 cycles: 196466913 heartbeat IPC: 1.26756 cumulative IPC: 0.470576 (Simulation time: 41 hr 0 min 52 sec) 
 Total Blocks : 262144 Invalid Blocks : 0
Heartbeat CPU 4 instructions: 250000003 cycles: 196515545 heartbeat IPC: 1.25763 cumulative IPC: 0.470361 (Simulation time: 41 hr 1 min 14 sec) 
 Total Blocks : 262144 Invalid Blocks : 0
Heartbeat CPU 5 instructions: 250000003 cycles: 196612163 heartbeat IPC: 1.25645 cumulative IPC: 0.469941 (Simulation time: 41 hr 2 min 7 sec) 
 Total Blocks : 262144 Invalid Blocks : 0
Heartbeat CPU 0 instructions: 250000003 cycles: 196659481 heartbeat IPC: 1.26619 cumulative IPC: 0.469726 (Simulation time: 41 hr 2 min 30 sec) 
 Total Blocks : 262144 Invalid Blocks : 0
Heartbeat CPU 2 instructions: 250000003 cycles: 196764545 heartbeat IPC: 1.26498 cumulative IPC: 0.469262 (Simulation time: 41 hr 3 min 28 sec) 
 Total Blocks : 262144 Invalid Blocks : 0
Heartbeat CPU 3 instructions: 250000003 cycles: 196908094 heartbeat IPC: 1.28349 cumulative IPC: 0.468622 (Simulation time: 41 hr 4 min 37 sec) 
 Total Blocks : 262144 Invalid Blocks : 0
Heartbeat CPU 7 instructions: 250000003 cycles: 197788015 heartbeat IPC: 1.26236 cumulative IPC: 0.464823 (Simulation time: 41 hr 11 min 53 sec) 
 Total Blocks : 262144 Invalid Blocks : 0
Heartbeat CPU 6 instructions: 250000003 cycles: 197964317 heartbeat IPC: 1.27841 cumulative IPC: 0.464053 (Simulation time: 41 hr 13 min 23 sec) 
 Total Blocks : 262144 Invalid Blocks : 0
Heartbeat CPU 1 instructions: 260000000 cycles: 204146705 heartbeat IPC: 1.30212 cumulative IPC: 0.52663 (Simulation time: 42 hr 4 min 18 sec) 
 Total Blocks : 262144 Invalid Blocks : 0
Heartbeat CPU 4 instructions: 260000000 cycles: 204178811 heartbeat IPC: 1.30493 cumulative IPC: 0.526482 (Simulation time: 42 hr 4 min 31 sec) 
 Total Blocks : 262144 Invalid Blocks : 0
Heartbeat CPU 5 instructions: 260000000 cycles: 204284871 heartbeat IPC: 1.30332 cumulative IPC: 0.526 (Simulation time: 42 hr 5 min 24 sec) 
 Total Blocks : 262144 Invalid Blocks : 0
Heartbeat CPU 0 instructions: 260000000 cycles: 204353119 heartbeat IPC: 1.29977 cumulative IPC: 0.525679 (Simulation time: 42 hr 5 min 49 sec) 
 Total Blocks : 262144 Invalid Blocks : 0
Heartbeat CPU 2 instructions: 260000000 cycles: 204480410 heartbeat IPC: 1.29603 cumulative IPC: 0.525093 (Simulation time: 42 hr 6 min 51 sec) 
 Total Blocks : 262144 Invalid Blocks : 0
Heartbeat CPU 3 instructions: 260000000 cycles: 204610968 heartbeat IPC: 1.29822 cumulative IPC: 0.524485 (Simulation time: 42 hr 8 min 0 sec) 
 Total Blocks : 262144 Invalid Blocks : 0
Heartbeat CPU 7 instructions: 260000000 cycles: 205487879 heartbeat IPC: 1.29872 cumulative IPC: 0.520528 (Simulation time: 42 hr 14 min 50 sec) 
 Total Blocks : 262144 Invalid Blocks : 0
Heartbeat CPU 6 instructions: 260000000 cycles: 205658596 heartbeat IPC: 1.29967 cumulative IPC: 0.519749 (Simulation time: 42 hr 16 min 16 sec) 
 Total Blocks : 262144 Invalid Blocks : 0
Heartbeat CPU 1 instructions: 270000000 cycles: 211435895 heartbeat IPC: 1.37189 cumulative IPC: 0.577459 (Simulation time: 43 hr 5 min 10 sec) 
 Total Blocks : 262144 Invalid Blocks : 0
Heartbeat CPU 4 instructions: 270000000 cycles: 211498388 heartbeat IPC: 1.3662 cumulative IPC: 0.577162 (Simulation time: 43 hr 5 min 36 sec) 
 Total Blocks : 262144 Invalid Blocks : 0
Heartbeat CPU 5 instructions: 270000000 cycles: 211566317 heartbeat IPC: 1.37335 cumulative IPC: 0.576846 (Simulation time: 43 hr 6 min 17 sec) 
 Total Blocks : 262144 Invalid Blocks : 0
Heartbeat CPU 0 instructions: 270000000 cycles: 211673165 heartbeat IPC: 1.36611 cumulative IPC: 0.576333 (Simulation time: 43 hr 7 min 6 sec) 
 Total Blocks : 262144 Invalid Blocks : 0
Heartbeat CPU 2 instructions: 270000000 cycles: 211804749 heartbeat IPC: 1.36531 cumulative IPC: 0.575708 (Simulation time: 43 hr 8 min 17 sec) 
 Total Blocks : 262144 Invalid Blocks : 0
Heartbeat CPU 3 instructions: 270000000 cycles: 211956294 heartbeat IPC: 1.36141 cumulative IPC: 0.574984 (Simulation time: 43 hr 9 min 32 sec) 
 Total Blocks : 262144 Invalid Blocks : 0
Heartbeat CPU 7 instructions: 270000000 cycles: 212847247 heartbeat IPC: 1.35881 cumulative IPC: 0.570837 (Simulation time: 43 hr 16 min 56 sec) 
 Total Blocks : 262144 Invalid Blocks : 0
Heartbeat CPU 6 instructions: 270000000 cycles: 212997177 heartbeat IPC: 1.36266 cumulative IPC: 0.570131 (Simulation time: 43 hr 18 min 11 sec) 
 Total Blocks : 262144 Invalid Blocks : 0
Heartbeat CPU 1 instructions: 280000003 cycles: 218289284 heartbeat IPC: 1.45913 cumulative IPC: 0.624641 (Simulation time: 44 hr 1 min 23 sec) 
 Total Blocks : 262144 Invalid Blocks : 0
Heartbeat CPU 4 instructions: 280000003 cycles: 218320445 heartbeat IPC: 1.46583 cumulative IPC: 0.624489 (Simulation time: 44 hr 1 min 38 sec) 
 Total Blocks : 262144 Invalid Blocks : 0
Heartbeat CPU 5 instructions: 280000003 cycles: 218391965 heartbeat IPC: 1.46506 cumulative IPC: 0.624147 (Simulation time: 44 hr 2 min 8 sec) 
 Total Blocks : 262144 Invalid Blocks : 0
Heartbeat CPU 0 instructions: 280000003 cycles: 218541147 heartbeat IPC: 1.45603 cumulative IPC: 0.623416 (Simulation time: 44 hr 3 min 24 sec) 
 Total Blocks : 262144 Invalid Blocks : 0
Heartbeat CPU 2 instructions: 280000003 cycles: 218610635 heartbeat IPC: 1.46932 cumulative IPC: 0.623078 (Simulation time: 44 hr 3 min 59 sec) 
 Total Blocks : 262144 Invalid Blocks : 0
Heartbeat CPU 3 instructions: 280000003 cycles: 218873515 heartbeat IPC: 1.44567 cumulative IPC: 0.621797 (Simulation time: 44 hr 6 min 6 sec) 
 Total Blocks : 262144 Invalid Blocks : 0
Heartbeat CPU 7 instructions: 280000003 cycles: 219636000 heartbeat IPC: 1.47302 cumulative IPC: 0.618163 (Simulation time: 44 hr 12 min 21 sec) 
 Total Blocks : 262144 Invalid Blocks : 0
Heartbeat CPU 6 instructions: 280000003 cycles: 219800995 heartbeat IPC: 1.46976 cumulative IPC: 0.617368 (Simulation time: 44 hr 13 min 39 sec) 
 Total Blocks : 262144 Invalid Blocks : 0
Heartbeat CPU 1 instructions: 290000003 cycles: 225708415 heartbeat IPC: 1.34787 cumulative IPC: 0.664243 (Simulation time: 44 hr 59 min 58 sec) 
 Total Blocks : 262144 Invalid Blocks : 0
Heartbeat CPU 4 instructions: 290000003 cycles: 225742703 heartbeat IPC: 1.3473 cumulative IPC: 0.664076 (Simulation time: 45 hr 0 min 16 sec) 
 Total Blocks : 262144 Invalid Blocks : 0
Heartbeat CPU 5 instructions: 290000003 cycles: 225796992 heartbeat IPC: 1.35043 cumulative IPC: 0.663816 (Simulation time: 45 hr 0 min 39 sec) 
 Total Blocks : 262144 Invalid Blocks : 0
Heartbeat CPU 0 instructions: 290000003 cycles: 225986405 heartbeat IPC: 1.34314 cumulative IPC: 0.662885 (Simulation time: 45 hr 2 min 6 sec) 
 Total Blocks : 262144 Invalid Blocks : 0
Heartbeat CPU 2 instructions: 290000003 cycles: 226020727 heartbeat IPC: 1.34951 cumulative IPC: 0.662716 (Simulation time: 45 hr 2 min 34 sec) 
 Total Blocks : 262144 Invalid Blocks : 0
Heartbeat CPU 3 instructions: 290000003 cycles: 226456170 heartbeat IPC: 1.3188 cumulative IPC: 0.660591 (Simulation time: 45 hr 5 min 53 sec) 
 Total Blocks : 262144 Invalid Blocks : 0
Heartbeat CPU 7 instructions: 290000003 cycles: 227056708 heartbeat IPC: 1.34758 cumulative IPC: 0.657719 (Simulation time: 45 hr 10 min 41 sec) 
 Total Blocks : 262144 Invalid Blocks : 0
Heartbeat CPU 6 instructions: 290000003 cycles: 227287453 heartbeat IPC: 1.33575 cumulative IPC: 0.656605 (Simulation time: 45 hr 12 min 30 sec) 
 Total Blocks : 262144 Invalid Blocks : 0
Heartbeat CPU 5 instructions: 300000002 cycles: 237287760 heartbeat IPC: 0.870264 cumulative IPC: 0.679946 (Simulation time: 46 hr 5 min 56 sec) 
 Total Blocks : 262144 Invalid Blocks : 0
Heartbeat CPU 4 instructions: 300000002 cycles: 237337518 heartbeat IPC: 0.862454 cumulative IPC: 0.679711 (Simulation time: 46 hr 6 min 25 sec) 
 Total Blocks : 262144 Invalid Blocks : 0
Heartbeat CPU 1 instructions: 300000002 cycles: 237409352 heartbeat IPC: 0.854632 cumulative IPC: 0.679379 (Simulation time: 46 hr 6 min 42 sec) 
 Total Blocks : 262144 Invalid Blocks : 0
Heartbeat CPU 0 instructions: 300000002 cycles: 237693020 heartbeat IPC: 0.854218 cumulative IPC: 0.678073 (Simulation time: 46 hr 8 min 2 sec) 
 Total Blocks : 262144 Invalid Blocks : 0
Heartbeat CPU 2 instructions: 300000002 cycles: 237763081 heartbeat IPC: 0.851618 cumulative IPC: 0.67775 (Simulation time: 46 hr 8 min 18 sec) 
 Total Blocks : 262144 Invalid Blocks : 0
Heartbeat CPU 3 instructions: 300000002 cycles: 238647087 heartbeat IPC: 0.820283 cumulative IPC: 0.673707 (Simulation time: 46 hr 13 min 9 sec) 
 Total Blocks : 262144 Invalid Blocks : 0
Heartbeat CPU 7 instructions: 300000002 cycles: 239077295 heartbeat IPC: 0.831906 cumulative IPC: 0.671785 (Simulation time: 46 hr 15 min 35 sec) 
 Total Blocks : 262144 Invalid Blocks : 0
Heartbeat CPU 6 instructions: 300000002 cycles: 239634729 heartbeat IPC: 0.809895 cumulative IPC: 0.669272 (Simulation time: 46 hr 19 min 0 sec) 
 Total Blocks : 262144 Invalid Blocks : 0
Heartbeat CPU 5 instructions: 310000001 cycles: 254960905 heartbeat IPC: 0.56583 cumulative IPC: 0.667704 (Simulation time: 47 hr 29 min 43 sec) 
 Total Blocks : 262144 Invalid Blocks : 0
Heartbeat CPU 4 instructions: 310000001 cycles: 255149147 heartbeat IPC: 0.561431 cumulative IPC: 0.666937 (Simulation time: 47 hr 30 min 41 sec) 
 Total Blocks : 262144 Invalid Blocks : 0
Heartbeat CPU 1 instructions: 310000001 cycles: 255313006 heartbeat IPC: 0.558545 cumulative IPC: 0.666275 (Simulation time: 47 hr 31 min 19 sec) 
 Total Blocks : 262144 Invalid Blocks : 0
Heartbeat CPU 0 instructions: 310000001 cycles: 255467307 heartbeat IPC: 0.56261 cumulative IPC: 0.665654 (Simulation time: 47 hr 32 min 8 sec) 
 Total Blocks : 262144 Invalid Blocks : 0
Heartbeat CPU 2 instructions: 310000000 cycles: 255669923 heartbeat IPC: 0.558446 cumulative IPC: 0.664838 (Simulation time: 47 hr 33 min 1 sec) 
 Total Blocks : 262144 Invalid Blocks : 0
Heartbeat CPU 3 instructions: 310000001 cycles: 256697287 heartbeat IPC: 0.55401 cumulative IPC: 0.660729 (Simulation time: 47 hr 38 min 18 sec) 
 Total Blocks : 262144 Invalid Blocks : 0
Heartbeat CPU 7 instructions: 310000001 cycles: 257394795 heartbeat IPC: 0.545926 cumulative IPC: 0.657995 (Simulation time: 47 hr 41 min 42 sec) 
 Total Blocks : 262144 Invalid Blocks : 0
Heartbeat CPU 6 instructions: 310000001 cycles: 258365898 heartbeat IPC: 0.533869 cumulative IPC: 0.654189 (Simulation time: 47 hr 45 min 41 sec) 
 Total Blocks : 262144 Invalid Blocks : 0
Heartbeat CPU 5 instructions: 320000003 cycles: 271405001 heartbeat IPC: 0.608121 cumulative IPC: 0.662296 (Simulation time: 48 hr 34 min 38 sec) 
 Total Blocks : 262144 Invalid Blocks : 0
Heartbeat CPU 4 instructions: 320000003 cycles: 271663667 heartbeat IPC: 0.605528 cumulative IPC: 0.661348 (Simulation time: 48 hr 36 min 3 sec) 
 Total Blocks : 262144 Invalid Blocks : 0
Heartbeat CPU 1 instructions: 320000003 cycles: 271848659 heartbeat IPC: 0.604754 cumulative IPC: 0.660674 (Simulation time: 48 hr 36 min 55 sec) 
 Total Blocks : 262144 Invalid Blocks : 0
Heartbeat CPU 0 instructions: 320000003 cycles: 271967205 heartbeat IPC: 0.606064 cumulative IPC: 0.660244 (Simulation time: 48 hr 37 min 36 sec) 
 Total Blocks : 262144 Invalid Blocks : 0
Heartbeat CPU 2 instructions: 320000003 cycles: 272175507 heartbeat IPC: 0.605856 cumulative IPC: 0.659487 (Simulation time: 48 hr 38 min 36 sec) 
 Total Blocks : 262144 Invalid Blocks : 0
Heartbeat CPU 3 instructions: 320000003 cycles: 272890700 heartbeat IPC: 0.617535 cumulative IPC: 0.6569 (Simulation time: 48 hr 42 min 15 sec) 
 Total Blocks : 262144 Invalid Blocks : 0
Heartbeat CPU 7 instructions: 320000003 cycles: 273340052 heartbeat IPC: 0.627146 cumulative IPC: 0.655309 (Simulation time: 48 hr 44 min 21 sec) 
 Total Blocks : 262144 Invalid Blocks : 0
Heartbeat CPU 6 instructions: 320000003 cycles: 273799121 heartbeat IPC: 0.647953 cumulative IPC: 0.653664 (Simulation time: 48 hr 46 min 40 sec) 
 Total Blocks : 262144 Invalid Blocks : 0
Heartbeat CPU 5 instructions: 330000000 cycles: 288602695 heartbeat IPC: 0.581473 cumulative IPC: 0.65529 (Simulation time: 49 hr 48 min 5 sec) 
 Total Blocks : 262144 Invalid Blocks : 0
Heartbeat CPU 4 instructions: 330000000 cycles: 289060977 heartbeat IPC: 0.574801 cumulative IPC: 0.653775 (Simulation time: 49 hr 49 min 42 sec) 
 Total Blocks : 262144 Invalid Blocks : 0
Heartbeat CPU 1 instructions: 330000000 cycles: 289388537 heartbeat IPC: 0.570129 cumulative IPC: 0.6527 (Simulation time: 49 hr 50 min 42 sec) 
 Total Blocks : 262144 Invalid Blocks : 0
Heartbeat CPU 0 instructions: 330000000 cycles: 289673066 heartbeat IPC: 0.564785 cumulative IPC: 0.65177 (Simulation time: 49 hr 51 min 47 sec) 
 Total Blocks : 262144 Invalid Blocks : 0
Heartbeat CPU 2 instructions: 330000000 cycles: 289998614 heartbeat IPC: 0.561069 cumulative IPC: 0.650707 (Simulation time: 49 hr 52 min 54 sec) 
 Total Blocks : 262144 Invalid Blocks : 0
Heartbeat CPU 3 instructions: 330000000 cycles: 291194833 heartbeat IPC: 0.546325 cumulative IPC: 0.646829 (Simulation time: 49 hr 57 min 9 sec) 
 Total Blocks : 262144 Invalid Blocks : 0
Heartbeat CPU 7 instructions: 330000000 cycles: 291804467 heartbeat IPC: 0.541582 cumulative IPC: 0.644892 (Simulation time: 49 hr 59 min 33 sec) 
 Total Blocks : 262144 Invalid Blocks : 0
Heartbeat CPU 6 instructions: 330000000 cycles: 292596082 heartbeat IPC: 0.532001 cumulative IPC: 0.642364 (Simulation time: 50 hr 2 min 30 sec) 
 Total Blocks : 262144 Invalid Blocks : 0
Heartbeat CPU 5 instructions: 340000002 cycles: 302108793 heartbeat IPC: 0.740406 cumulative IPC: 0.660715 (Simulation time: 50 hr 46 min 12 sec) 
 Total Blocks : 262144 Invalid Blocks : 0
Heartbeat CPU 4 instructions: 340000002 cycles: 302563238 heartbeat IPC: 0.740617 cumulative IPC: 0.659297 (Simulation time: 50 hr 48 min 33 sec) 
 Total Blocks : 262144 Invalid Blocks : 0
Heartbeat CPU 1 instructions: 340000002 cycles: 302779571 heartbeat IPC: 0.746768 cumulative IPC: 0.658626 (Simulation time: 50 hr 49 min 30 sec) 
 Total Blocks : 262144 Invalid Blocks : 0
Heartbeat CPU 0 instructions: 340000002 cycles: 302950829 heartbeat IPC: 0.753139 cumulative IPC: 0.658097 (Simulation time: 50 hr 50 min 24 sec) 
 Total Blocks : 262144 Invalid Blocks : 0
Heartbeat CPU 2 instructions: 340000002 cycles: 303362548 heartbeat IPC: 0.748283 cumulative IPC: 0.656825 (Simulation time: 50 hr 52 min 24 sec) 
 Total Blocks : 262144 Invalid Blocks : 0
Heartbeat CPU 3 instructions: 340000002 cycles: 304459945 heartbeat IPC: 0.753857 cumulative IPC: 0.653456 (Simulation time: 50 hr 57 min 45 sec) 
 Total Blocks : 262144 Invalid Blocks : 0
Heartbeat CPU 7 instructions: 340000002 cycles: 305022668 heartbeat IPC: 0.756533 cumulative IPC: 0.651762 (Simulation time: 51 hr 0 min 26 sec) 
 Total Blocks : 262144 Invalid Blocks : 0
Heartbeat CPU 6 instructions: 340000002 cycles: 305843465 heartbeat IPC: 0.754866 cumulative IPC: 0.649276 (Simulation time: 51 hr 4 min 17 sec) 
 Total Blocks : 262144 Invalid Blocks : 0
Heartbeat CPU 5 instructions: 350000001 cycles: 348406875 heartbeat IPC: 0.215992 cumulative IPC: 0.580967 (Simulation time: 52 hr 50 min 6 sec) 
 Total Blocks : 262144 Invalid Blocks : 0
Heartbeat CPU 4 instructions: 350000001 cycles: 348745710 heartbeat IPC: 0.216532 cumulative IPC: 0.580203 (Simulation time: 52 hr 51 min 12 sec) 
 Total Blocks : 262144 Invalid Blocks : 0
Heartbeat CPU 1 instructions: 350000001 cycles: 349045830 heartbeat IPC: 0.21614 cumulative IPC: 0.57953 (Simulation time: 52 hr 52 min 18 sec) 
 Total Blocks : 262144 Invalid Blocks : 0
Heartbeat CPU 0 instructions: 350000001 cycles: 349394779 heartbeat IPC: 0.215313 cumulative IPC: 0.57875 (Simulation time: 52 hr 53 min 32 sec) 
 Total Blocks : 262144 Invalid Blocks : 0
Heartbeat CPU 2 instructions: 350000001 cycles: 349815902 heartbeat IPC: 0.21527 cumulative IPC: 0.577811 (Simulation time: 52 hr 55 min 5 sec) 
 Total Blocks : 262144 Invalid Blocks : 0
Heartbeat CPU 3 instructions: 350000001 cycles: 351348339 heartbeat IPC: 0.213272 cumulative IPC: 0.574416 (Simulation time: 53 hr 0 min 55 sec) 
 Total Blocks : 262144 Invalid Blocks : 0
Heartbeat CPU 7 instructions: 350000001 cycles: 352473077 heartbeat IPC: 0.210746 cumulative IPC: 0.571967 (Simulation time: 53 hr 5 min 19 sec) 
 Total Blocks : 262144 Invalid Blocks : 0
Heartbeat CPU 6 instructions: 350000001 cycles: 354082597 heartbeat IPC: 0.207301 cumulative IPC: 0.568474 (Simulation time: 53 hr 10 min 32 sec) 
 Total Blocks : 262144 Invalid Blocks : 0
Heartbeat CPU 5 instructions: 360000000 cycles: 374978769 heartbeat IPC: 0.376337 cumulative IPC: 0.561872 (Simulation time: 54 hr 19 min 18 sec) 
 Total Blocks : 262144 Invalid Blocks : 0
Heartbeat CPU 4 instructions: 360000000 cycles: 375029601 heartbeat IPC: 0.380461 cumulative IPC: 0.561769 (Simulation time: 54 hr 19 min 28 sec) 
 Total Blocks : 262144 Invalid Blocks : 0
Heartbeat CPU 1 instructions: 360000000 cycles: 375274752 heartbeat IPC: 0.381258 cumulative IPC: 0.561286 (Simulation time: 54 hr 20 min 19 sec) 
 Total Blocks : 262144 Invalid Blocks : 0
Heartbeat CPU 2 instructions: 360000000 cycles: 375314295 heartbeat IPC: 0.392182 cumulative IPC: 0.561208 (Simulation time: 54 hr 20 min 45 sec) 
 Total Blocks : 262144 Invalid Blocks : 0
Heartbeat CPU 0 instructions: 360000000 cycles: 375478803 heartbeat IPC: 0.383376 cumulative IPC: 0.560885 (Simulation time: 54 hr 21 min 17 sec) 
 Total Blocks : 262144 Invalid Blocks : 0
Heartbeat CPU 3 instructions: 360000000 cycles: 376288726 heartbeat IPC: 0.400956 cumulative IPC: 0.559294 (Simulation time: 54 hr 24 min 29 sec) 
 Total Blocks : 262144 Invalid Blocks : 0
Heartbeat CPU 7 instructions: 360000000 cycles: 376888684 heartbeat IPC: 0.409574 cumulative IPC: 0.558136 (Simulation time: 54 hr 26 min 44 sec) 
 Total Blocks : 262144 Invalid Blocks : 0
Heartbeat CPU 6 instructions: 360000000 cycles: 377554455 heartbeat IPC: 0.426042 cumulative IPC: 0.556839 (Simulation time: 54 hr 29 min 31 sec) 
 Total Blocks : 262144 Invalid Blocks : 0
Heartbeat CPU 5 instructions: 370000003 cycles: 396805663 heartbeat IPC: 0.458151 cumulative IPC: 0.554488 (Simulation time: 55 hr 38 min 59 sec) 
 Total Blocks : 262144 Invalid Blocks : 0
Heartbeat CPU 4 instructions: 370000003 cycles: 396838721 heartbeat IPC: 0.458524 cumulative IPC: 0.554426 (Simulation time: 55 hr 39 min 6 sec) 
 Total Blocks : 262144 Invalid Blocks : 0
Heartbeat CPU 1 instructions: 370000003 cycles: 397049058 heartbeat IPC: 0.459257 cumulative IPC: 0.554045 (Simulation time: 55 hr 39 min 49 sec) 
 Total Blocks : 262144 Invalid Blocks : 0
Heartbeat CPU 2 instructions: 370000003 cycles: 397050733 heartbeat IPC: 0.460057 cumulative IPC: 0.554043 (Simulation time: 55 hr 39 min 50 sec) 
 Total Blocks : 262144 Invalid Blocks : 0
Heartbeat CPU 0 instructions: 370000003 cycles: 397327493 heartbeat IPC: 0.457693 cumulative IPC: 0.553544 (Simulation time: 55 hr 40 min 58 sec) 
 Total Blocks : 262144 Invalid Blocks : 0
Heartbeat CPU 3 instructions: 370000003 cycles: 398389615 heartbeat IPC: 0.452471 cumulative IPC: 0.551633 (Simulation time: 55 hr 44 min 59 sec) 
 Total Blocks : 262144 Invalid Blocks : 0
Heartbeat CPU 7 instructions: 370000003 cycles: 399087499 heartbeat IPC: 0.450475 cumulative IPC: 0.550398 (Simulation time: 55 hr 47 min 39 sec) 
 Total Blocks : 262144 Invalid Blocks : 0
Heartbeat CPU 6 instructions: 370000003 cycles: 399879521 heartbeat IPC: 0.447927 cumulative IPC: 0.548987 (Simulation time: 55 hr 50 min 35 sec) 
 Total Blocks : 262144 Invalid Blocks : 0
Heartbeat CPU 4 instructions: 380000001 cycles: 432718550 heartbeat IPC: 0.278708 cumulative IPC: 0.525542 (Simulation time: 57 hr 19 min 45 sec) 
 Total Blocks : 262144 Invalid Blocks : 0
Heartbeat CPU 5 instructions: 380000001 cycles: 432800180 heartbeat IPC: 0.27782 cumulative IPC: 0.525419 (Simulation time: 57 hr 19 min 56 sec) 
 Total Blocks : 262144 Invalid Blocks : 0
Heartbeat CPU 2 instructions: 380000001 cycles: 433141151 heartbeat IPC: 0.277082 cumulative IPC: 0.524894 (Simulation time: 57 hr 20 min 47 sec) 
 Total Blocks : 262144 Invalid Blocks : 0
Heartbeat CPU 1 instructions: 380000001 cycles: 433852468 heartbeat IPC: 0.271714 cumulative IPC: 0.523807 (Simulation time: 57 hr 22 min 50 sec) 
 Total Blocks : 262144 Invalid Blocks : 0
Heartbeat CPU 0 instructions: 380000001 cycles: 434133358 heartbeat IPC: 0.271696 cumulative IPC: 0.52338 (Simulation time: 57 hr 23 min 43 sec) 
 Total Blocks : 262144 Invalid Blocks : 0
Heartbeat CPU 3 instructions: 380000001 cycles: 435162521 heartbeat IPC: 0.271939 cumulative IPC: 0.521816 (Simulation time: 57 hr 26 min 26 sec) 
 Total Blocks : 262144 Invalid Blocks : 0
Heartbeat CPU 7 instructions: 380000001 cycles: 435800029 heartbeat IPC: 0.272387 cumulative IPC: 0.520864 (Simulation time: 57 hr 28 min 18 sec) 
 Total Blocks : 262144 Invalid Blocks : 0
Heartbeat CPU 6 instructions: 380000001 cycles: 436768134 heartbeat IPC: 0.271086 cumulative IPC: 0.519406 (Simulation time: 57 hr 31 min 12 sec) 
 Total Blocks : 262144 Invalid Blocks : 0
Heartbeat CPU 5 instructions: 390000000 cycles: 452998334 heartbeat IPC: 0.495095 cumulative IPC: 0.523731 (Simulation time: 58 hr 26 min 24 sec) 
 Total Blocks : 262144 Invalid Blocks : 0
Heartbeat CPU 4 instructions: 390000000 cycles: 453064303 heartbeat IPC: 0.491503 cumulative IPC: 0.523633 (Simulation time: 58 hr 26 min 37 sec) 
 Total Blocks : 262144 Invalid Blocks : 0
Heartbeat CPU 2 instructions: 390000000 cycles: 453297090 heartbeat IPC: 0.496132 cumulative IPC: 0.523297 (Simulation time: 58 hr 27 min 36 sec) 
 Total Blocks : 262144 Invalid Blocks : 0
Heartbeat CPU 1 instructions: 390000000 cycles: 453744088 heartbeat IPC: 0.502724 cumulative IPC: 0.522654 (Simulation time: 58 hr 29 min 22 sec) 
 Total Blocks : 262144 Invalid Blocks : 0
Heartbeat CPU 0 instructions: 390000000 cycles: 453941159 heartbeat IPC: 0.504852 cumulative IPC: 0.522371 (Simulation time: 58 hr 30 min 10 sec) 
 Total Blocks : 262144 Invalid Blocks : 0
Heartbeat CPU 3 instructions: 390000000 cycles: 454788719 heartbeat IPC: 0.509523 cumulative IPC: 0.521154 (Simulation time: 58 hr 33 min 51 sec) 
 Total Blocks : 262144 Invalid Blocks : 0
Heartbeat CPU 7 instructions: 390000000 cycles: 455282881 heartbeat IPC: 0.513272 cumulative IPC: 0.520459 (Simulation time: 58 hr 35 min 58 sec) 
 Total Blocks : 262144 Invalid Blocks : 0
Heartbeat CPU 6 instructions: 390000000 cycles: 456208187 heartbeat IPC: 0.514402 cumulative IPC: 0.51914 (Simulation time: 58 hr 40 min 15 sec) 
 Total Blocks : 262144 Invalid Blocks : 0
Heartbeat CPU 5 instructions: 400000000 cycles: 474472799 heartbeat IPC: 0.465669 cumulative IPC: 0.520486 (Simulation time: 59 hr 36 min 7 sec) 
 Total Blocks : 262144 Invalid Blocks : 0
Finished CPU 5 instructions: 200000001 cycles: 384253933 cumulative IPC: 0.520489 (Simulation time: 59 hr 36 min 8 sec) 
Heartbeat CPU 4 instructions: 400000000 cycles: 474489349 heartbeat IPC: 0.466743 cumulative IPC: 0.520461 (Simulation time: 59 hr 36 min 10 sec) 
 Total Blocks : 262144 Invalid Blocks : 0
Finished CPU 4 instructions: 200000003 cycles: 384271015 cumulative IPC: 0.520466 (Simulation time: 59 hr 36 min 10 sec) 
Heartbeat CPU 2 instructions: 400000000 cycles: 474832341 heartbeat IPC: 0.464355 cumulative IPC: 0.519997 (Simulation time: 59 hr 37 min 25 sec) 
 Total Blocks : 262144 Invalid Blocks : 0
Finished CPU 2 instructions: 200000003 cycles: 384614007 cumulative IPC: 0.520002 (Simulation time: 59 hr 37 min 27 sec) 
Heartbeat CPU 1 instructions: 400000000 cycles: 475395274 heartbeat IPC: 0.461868 cumulative IPC: 0.519237 (Simulation time: 59 hr 39 min 17 sec) 
 Total Blocks : 262144 Invalid Blocks : 0
Finished CPU 1 instructions: 200000001 cycles: 385176986 cumulative IPC: 0.519242 (Simulation time: 59 hr 39 min 18 sec) 
Heartbeat CPU 0 instructions: 400000000 cycles: 475711231 heartbeat IPC: 0.459346 cumulative IPC: 0.518812 (Simulation time: 59 hr 40 min 15 sec) 
 Total Blocks : 262144 Invalid Blocks : 0
Finished CPU 0 instructions: 200000001 cycles: 385492802 cumulative IPC: 0.518816 (Simulation time: 59 hr 40 min 16 sec) 
Heartbeat CPU 3 instructions: 400000000 cycles: 476889405 heartbeat IPC: 0.452475 cumulative IPC: 0.517228 (Simulation time: 59 hr 44 min 25 sec) 
 Total Blocks : 262144 Invalid Blocks : 0
Finished CPU 3 instructions: 200000000 cycles: 386671677 cumulative IPC: 0.517235 (Simulation time: 59 hr 44 min 27 sec) 
Heartbeat CPU 7 instructions: 400000000 cycles: 477074912 heartbeat IPC: 0.458883 cumulative IPC: 0.51699 (Simulation time: 59 hr 44 min 59 sec) 
 Total Blocks : 262144 Invalid Blocks : 0
Finished CPU 7 instructions: 200000002 cycles: 386854700 cumulative IPC: 0.51699 (Simulation time: 59 hr 45 min 0 sec) 
Heartbeat CPU 6 instructions: 400000000 cycles: 478215483 heartbeat IPC: 0.454395 cumulative IPC: 0.515468 (Simulation time: 59 hr 49 min 2 sec) 
 Total Blocks : 262144 Invalid Blocks : 0
Finished CPU 6 instructions: 200000001 cycles: 387995940 cumulative IPC: 0.515469 (Simulation time: 59 hr 49 min 3 sec) 

CPU 0 Branch Prediction Accuracy: 96.73% MPKI: 1.73461 Average ROB Occupancy at Mispredict: 232.75

CPU 1 Branch Prediction Accuracy: 96.729% MPKI: 1.73506 Average ROB Occupancy at Mispredict: 232.774

CPU 2 Branch Prediction Accuracy: 96.7263% MPKI: 1.73629 Average ROB Occupancy at Mispredict: 232.799

CPU 3 Branch Prediction Accuracy: 96.7338% MPKI: 1.73273 Average ROB Occupancy at Mispredict: 232.774

CPU 4 Branch Prediction Accuracy: 96.7255% MPKI: 1.73673 Average ROB Occupancy at Mispredict: 232.752

CPU 5 Branch Prediction Accuracy: 96.7256% MPKI: 1.73672 Average ROB Occupancy at Mispredict: 232.75

CPU 6 Branch Prediction Accuracy: 96.7389% MPKI: 1.73013 Average ROB Occupancy at Mispredict: 232.547

CPU 7 Branch Prediction Accuracy: 96.7345% MPKI: 1.7322 Average ROB Occupancy at Mispredict: 232.721

ChampSim completed all CPUs

Total Simulation Statistics (not including warmup)

CPU 0 cumulative IPC: 0.519014 instructions: 201375260 cycles: 387995940
ITLB TOTAL     ACCESS: 34567535  HIT: 34567313  MISS:   222  HIT %: 99.9994  MISS %: 0.000642221  AVERAGE MISS PENALTY: 128.82
ITLB LOAD      ACCESS: 34567535  HIT: 34567313  MISS:   222  HIT %: 99.9994  MISS %: 0.000642221  AVERAGE MISS PENALTY: 128.82
ITLB RFO       ACCESS:     0  HIT:     0  MISS:     0  HIT %:     0  MISS %:     0  AVERAGE MISS PENALTY: 0
ITLB PREFETCH  ACCESS:     0  HIT:     0  MISS:     0  HIT %:     0  MISS %:     0  AVERAGE MISS PENALTY: 0
ITLB WRITEBACK ACCESS:     0  HIT:     0  MISS:     0  HIT %:     0  MISS %:     0  AVERAGE MISS PENALTY: 0

DTLB TOTAL     ACCESS: 50383734  HIT: 50222378  MISS: 161356  HIT %: 99.6797  MISS %: 0.320254  AVERAGE MISS PENALTY: 35.0697
DTLB LOAD      ACCESS: 44211698  HIT: 44073474  MISS: 138224  HIT %: 99.6874  MISS %: 0.312641  AVERAGE MISS PENALTY: 34.5974
DTLB RFO       ACCESS: 6172036  HIT: 6148904  MISS: 23132  HIT %: 99.6252  MISS %: 0.374787  AVERAGE MISS PENALTY: 37.8915
DTLB PREFETCH  ACCESS:     0  HIT:     0  MISS:     0  HIT %:     0  MISS %:     0  AVERAGE MISS PENALTY: 0
DTLB WRITEBACK ACCESS:     0  HIT:     0  MISS:     0  HIT %:     0  MISS %:     0  AVERAGE MISS PENALTY: 0

STLB TOTAL     ACCESS: 161578  HIT: 131389  MISS: 30189  HIT %: 81.3161  MISS %: 18.6839  AVERAGE MISS PENALTY: 100
STLB LOAD      ACCESS: 138446  HIT: 114426  MISS: 24020  HIT %: 82.6503  MISS %: 17.3497  AVERAGE MISS PENALTY: 100
STLB RFO       ACCESS: 23132  HIT: 16963  MISS:  6169  HIT %: 73.3313  MISS %: 26.6687  AVERAGE MISS PENALTY: 100
STLB PREFETCH  ACCESS:     0  HIT:     0  MISS:     0  HIT %:     0  MISS %:     0  AVERAGE MISS PENALTY: 0
STLB WRITEBACK ACCESS:     0  HIT:     0  MISS:     0  HIT %:     0  MISS %:     0  AVERAGE MISS PENALTY: 0

L1D TOTAL     ACCESS: 60223657  HIT: 56113608  MISS: 4110049  HIT %: 93.1754  MISS %: 6.82464  AVERAGE MISS PENALTY: 4.13074e+07
L1D LOAD      ACCESS: 40570799  HIT: 39561480  MISS: 1009319  HIT %: 97.5122  MISS %: 2.4878  AVERAGE MISS PENALTY: 1.67868e+08
L1D RFO       ACCESS: 8265075  HIT: 7695502  MISS: 569573  HIT %: 93.1087  MISS %: 6.89132  AVERAGE MISS PENALTY: 600720
L1D PREFETCH  ACCESS: 11387783  HIT: 8856626  MISS: 2531157  HIT %: 77.773  MISS %: 22.227  AVERAGE MISS PENALTY: 226.238
L1D WRITEBACK ACCESS:     0  HIT:     0  MISS:     0  HIT %:     0  MISS %:     0  AVERAGE MISS PENALTY: 0

L1I TOTAL     ACCESS: 45156831  HIT: 45150239  MISS:  6592  HIT %: 99.9854  MISS %: 0.014598  AVERAGE MISS PENALTY: 782.2
L1I LOAD      ACCESS: 45156831  HIT: 45150239  MISS:  6592  HIT %: 99.9854  MISS %: 0.014598  AVERAGE MISS PENALTY: 782.2
L1I RFO       ACCESS:     0  HIT:     0  MISS:     0  HIT %:     0  MISS %:     0  AVERAGE MISS PENALTY: 0
L1I PREFETCH  ACCESS:     0  HIT:     0  MISS:     0  HIT %:     0  MISS %:     0  AVERAGE MISS PENALTY: 0
L1I WRITEBACK ACCESS:     0  HIT:     0  MISS:     0  HIT %:     0  MISS %:     0  AVERAGE MISS PENALTY: 0

L2C TOTAL     ACCESS: 8512106  HIT: 5310815  MISS: 3201291  HIT %: 62.3913  MISS %: 37.6087  AVERAGE MISS PENALTY: 4.74821e+07
L2C LOAD      ACCESS: 990075  HIT: 279156  MISS: 710919  HIT %: 28.1954  MISS %: 71.8046  AVERAGE MISS PENALTY: 2.13789e+08
L2C RFO       ACCESS: 568010  HIT: 157125  MISS: 410885  HIT %: 27.6624  MISS %: 72.3376  AVERAGE MISS PENALTY: 39377.1
L2C PREFETCH  ACCESS: 5668648  HIT: 3663396  MISS: 2005252  HIT %: 64.6256  MISS %: 35.3744  AVERAGE MISS PENALTY: 643.512
L2C WRITEBACK ACCESS: 1285373  HIT: 1211138  MISS: 74235  HIT %: 94.2246  MISS %: 5.77537  AVERAGE MISS PENALTY: 0


LLC0 TOTAL     ACCESS: 517010  HIT: 169507  MISS: 347503  HIT %: 32.786  MISS %: 67.214  AVERAGE MISS PENALTY: 877.163
LLC0 LOAD      ACCESS: 61303  HIT: 13216  MISS: 48087  HIT %: 21.5585  MISS %: 78.4415  AVERAGE MISS PENALTY: 841.847
LLC0 RFO       ACCESS: 51566  HIT:  1943  MISS: 49623  HIT %: 3.76799  MISS %: 96.232  AVERAGE MISS PENALTY: 1469.1
LLC0 PREFETCH  ACCESS: 275814  HIT: 44449  MISS: 231365  HIT %: 16.1156  MISS %: 83.8844  AVERAGE MISS PENALTY: 827.41
LLC0 WRITEBACK ACCESS: 128327  HIT: 109899  MISS: 18428  HIT %: 85.6398  MISS %: 14.3602  AVERAGE MISS PENALTY: 0

LLC1 TOTAL     ACCESS: 518365  HIT: 170833  MISS: 347532  HIT %: 32.9561  MISS %: 67.0439  AVERAGE MISS PENALTY: 877.464
LLC1 LOAD      ACCESS: 33525  HIT:  9023  MISS: 24502  HIT %: 26.9142  MISS %: 73.0858  AVERAGE MISS PENALTY: 986.455
LLC1 RFO       ACCESS: 51510  HIT:  1926  MISS: 49584  HIT %: 3.73908  MISS %: 96.2609  AVERAGE MISS PENALTY: 1408.37
LLC1 PREFETCH  ACCESS: 304880  HIT: 49104  MISS: 255776  HIT %: 16.106  MISS %: 83.894  AVERAGE MISS PENALTY: 824.721
LLC1 WRITEBACK ACCESS: 128450  HIT: 110780  MISS: 17670  HIT %: 86.2437  MISS %: 13.7563  AVERAGE MISS PENALTY: 0

LLC2 TOTAL     ACCESS: 518960  HIT: 170784  MISS: 348176  HIT %: 32.9089  MISS %: 67.0911  AVERAGE MISS PENALTY: 894.823
LLC2 LOAD      ACCESS: 27949  HIT:  8138  MISS: 19811  HIT %: 29.1173  MISS %: 70.8827  AVERAGE MISS PENALTY: 993.81
LLC2 RFO       ACCESS: 51474  HIT:  1899  MISS: 49575  HIT %: 3.68924  MISS %: 96.3108  AVERAGE MISS PENALTY: 1437.2
LLC2 PREFETCH  ACCESS: 311125  HIT: 49927  MISS: 261198  HIT %: 16.0472  MISS %: 83.9528  AVERAGE MISS PENALTY: 844.641
LLC2 WRITEBACK ACCESS: 128412  HIT: 110820  MISS: 17592  HIT %: 86.3003  MISS %: 13.6997  AVERAGE MISS PENALTY: 0

LLC3 TOTAL     ACCESS: 518480  HIT: 170383  MISS: 348097  HIT %: 32.862  MISS %: 67.138  AVERAGE MISS PENALTY: 884.864
LLC3 LOAD      ACCESS: 26025  HIT:  7779  MISS: 18246  HIT %: 29.8905  MISS %: 70.1095  AVERAGE MISS PENALTY: 1037.81
LLC3 RFO       ACCESS: 51465  HIT:  1967  MISS: 49498  HIT %: 3.82201  MISS %: 96.178  AVERAGE MISS PENALTY: 1365.94
LLC3 PREFETCH  ACCESS: 312567  HIT: 49732  MISS: 262835  HIT %: 15.9108  MISS %: 84.0892  AVERAGE MISS PENALTY: 842.625
LLC3 WRITEBACK ACCESS: 128423  HIT: 110905  MISS: 17518  HIT %: 86.3591  MISS %: 13.6409  AVERAGE MISS PENALTY: 0

LLC4 TOTAL     ACCESS: 520152  HIT: 170974  MISS: 349178  HIT %: 32.87  MISS %: 67.13  AVERAGE MISS PENALTY: 912.688
LLC4 LOAD      ACCESS: 25484  HIT:  7970  MISS: 17514  HIT %: 31.2745  MISS %: 68.7255  AVERAGE MISS PENALTY: 1090.62
LLC4 RFO       ACCESS: 51434  HIT:  1970  MISS: 49464  HIT %: 3.83015  MISS %: 96.1698  AVERAGE MISS PENALTY: 1553.51
LLC4 PREFETCH  ACCESS: 314723  HIT: 50207  MISS: 264516  HIT %: 15.9528  MISS %: 84.0472  AVERAGE MISS PENALTY: 842.092
LLC4 WRITEBACK ACCESS: 128511  HIT: 110827  MISS: 17684  HIT %: 86.2393  MISS %: 13.7607  AVERAGE MISS PENALTY: 0

LLC5 TOTAL     ACCESS: 520042  HIT: 171041  MISS: 349001  HIT %: 32.8898  MISS %: 67.1102  AVERAGE MISS PENALTY: 903.433
LLC5 LOAD      ACCESS: 25537  HIT:  7755  MISS: 17782  HIT %: 30.3677  MISS %: 69.6323  AVERAGE MISS PENALTY: 1115.74
LLC5 RFO       ACCESS: 51129  HIT:  1948  MISS: 49181  HIT %: 3.80997  MISS %: 96.19  AVERAGE MISS PENALTY: 1443.34
LLC5 PREFETCH  ACCESS: 315056  HIT: 50358  MISS: 264698  HIT %: 15.9838  MISS %: 84.0162  AVERAGE MISS PENALTY: 848.039
LLC5 WRITEBACK ACCESS: 128320  HIT: 110980  MISS: 17340  HIT %: 86.4869  MISS %: 13.5131  AVERAGE MISS PENALTY: 0

LLC6 TOTAL     ACCESS: 520223  HIT: 170732  MISS: 349491  HIT %: 32.819  MISS %: 67.181  AVERAGE MISS PENALTY: 902.02
LLC6 LOAD      ACCESS: 25544  HIT:  7743  MISS: 17801  HIT %: 30.3124  MISS %: 69.6876  AVERAGE MISS PENALTY: 1061.93
LLC6 RFO       ACCESS: 51088  HIT:  1923  MISS: 49165  HIT %: 3.76409  MISS %: 96.2359  AVERAGE MISS PENALTY: 1398.75
LLC6 PREFETCH  ACCESS: 315279  HIT: 50180  MISS: 265099  HIT %: 15.9161  MISS %: 84.0839  AVERAGE MISS PENALTY: 858.452
LLC6 WRITEBACK ACCESS: 128312  HIT: 110886  MISS: 17426  HIT %: 86.419  MISS %: 13.581  AVERAGE MISS PENALTY: 0

LLC7 TOTAL     ACCESS: 521026  HIT: 171066  MISS: 349960  HIT %: 32.8325  MISS %: 67.1675  AVERAGE MISS PENALTY: 901.744
LLC7 LOAD      ACCESS: 25797  HIT:  7990  MISS: 17807  HIT %: 30.9726  MISS %: 69.0274  AVERAGE MISS PENALTY: 1069.15
LLC7 RFO       ACCESS: 51153  HIT:  1979  MISS: 49174  HIT %: 3.86879  MISS %: 96.1312  AVERAGE MISS PENALTY: 1380.24
LLC7 PREFETCH  ACCESS: 315619  HIT: 50359  MISS: 265260  HIT %: 15.9556  MISS %: 84.0444  AVERAGE MISS PENALTY: 862.037
LLC7 WRITEBACK ACCESS: 128457  HIT: 110738  MISS: 17719  HIT %: 86.2063  MISS %: 13.7937  AVERAGE MISS PENALTY: 0

Total Rob stall cycles : 	328234840
Total Load Rob Stall cycles : 	235230813
Average Rob Stall cycles : 	 14
Average Load Rob Stall cycles : 	 70

CPU 1 cumulative IPC: 0.519378 instructions: 201516504 cycles: 387995940
ITLB TOTAL     ACCESS: 34586251  HIT: 34586029  MISS:   222  HIT %: 99.9994  MISS %: 0.000641874  AVERAGE MISS PENALTY: 129.266
ITLB LOAD      ACCESS: 34586251  HIT: 34586029  MISS:   222  HIT %: 99.9994  MISS %: 0.000641874  AVERAGE MISS PENALTY: 129.266
ITLB RFO       ACCESS:     0  HIT:     0  MISS:     0  HIT %:     0  MISS %:     0  AVERAGE MISS PENALTY: 0
ITLB PREFETCH  ACCESS:     0  HIT:     0  MISS:     0  HIT %:     0  MISS %:     0  AVERAGE MISS PENALTY: 0
ITLB WRITEBACK ACCESS:     0  HIT:     0  MISS:     0  HIT %:     0  MISS %:     0  AVERAGE MISS PENALTY: 0

DTLB TOTAL     ACCESS: 50422946  HIT: 50261240  MISS: 161706  HIT %: 99.6793  MISS %: 0.320699  AVERAGE MISS PENALTY: 35.0616
DTLB LOAD      ACCESS: 44247786  HIT: 44109232  MISS: 138554  HIT %: 99.6869  MISS %: 0.313132  AVERAGE MISS PENALTY: 34.6003
DTLB RFO       ACCESS: 6175160  HIT: 6152008  MISS: 23152  HIT %: 99.6251  MISS %: 0.374921  AVERAGE MISS PENALTY: 37.8221
DTLB PREFETCH  ACCESS:     0  HIT:     0  MISS:     0  HIT %:     0  MISS %:     0  AVERAGE MISS PENALTY: 0
DTLB WRITEBACK ACCESS:     0  HIT:     0  MISS:     0  HIT %:     0  MISS %:     0  AVERAGE MISS PENALTY: 0

STLB TOTAL     ACCESS: 161928  HIT: 131700  MISS: 30228  HIT %: 81.3324  MISS %: 18.6676  AVERAGE MISS PENALTY: 100
STLB LOAD      ACCESS: 138776  HIT: 114716  MISS: 24060  HIT %: 82.6627  MISS %: 17.3373  AVERAGE MISS PENALTY: 100
STLB RFO       ACCESS: 23152  HIT: 16984  MISS:  6168  HIT %: 73.3587  MISS %: 26.6413  AVERAGE MISS PENALTY: 100
STLB PREFETCH  ACCESS:     0  HIT:     0  MISS:     0  HIT %:     0  MISS %:     0  AVERAGE MISS PENALTY: 0
STLB WRITEBACK ACCESS:     0  HIT:     0  MISS:     0  HIT %:     0  MISS %:     0  AVERAGE MISS PENALTY: 0

L1D TOTAL     ACCESS: 60279842  HIT: 56165668  MISS: 4114174  HIT %: 93.1749  MISS %: 6.82512  AVERAGE MISS PENALTY: 4.14368e+07
L1D LOAD      ACCESS: 40602557  HIT: 39592202  MISS: 1010355  HIT %: 97.5116  MISS %: 2.4884  AVERAGE MISS PENALTY: 1.68377e+08
L1D RFO       ACCESS: 8273287  HIT: 7703304  MISS: 569983  HIT %: 93.1106  MISS %: 6.88944  AVERAGE MISS PENALTY: 627119
L1D PREFETCH  ACCESS: 11403998  HIT: 8870162  MISS: 2533836  HIT %: 77.7812  MISS %: 22.2188  AVERAGE MISS PENALTY: 226.653
L1D WRITEBACK ACCESS:     0  HIT:     0  MISS:     0  HIT %:     0  MISS %:     0  AVERAGE MISS PENALTY: 0

L1I TOTAL     ACCESS: 45182293  HIT: 45175701  MISS:  6592  HIT %: 99.9854  MISS %: 0.0145898  AVERAGE MISS PENALTY: 792.492
L1I LOAD      ACCESS: 45182293  HIT: 45175701  MISS:  6592  HIT %: 99.9854  MISS %: 0.0145898  AVERAGE MISS PENALTY: 792.492
L1I RFO       ACCESS:     0  HIT:     0  MISS:     0  HIT %:     0  MISS %:     0  AVERAGE MISS PENALTY: 0
L1I PREFETCH  ACCESS:     0  HIT:     0  MISS:     0  HIT %:     0  MISS %:     0  AVERAGE MISS PENALTY: 0
L1I WRITEBACK ACCESS:     0  HIT:     0  MISS:     0  HIT %:     0  MISS %:     0  AVERAGE MISS PENALTY: 0

L2C TOTAL     ACCESS: 8525176  HIT: 5320138  MISS: 3205038  HIT %: 62.405  MISS %: 37.595  AVERAGE MISS PENALTY: 4.76456e+07
L2C LOAD      ACCESS: 991367  HIT: 278729  MISS: 712638  HIT %: 28.1156  MISS %: 71.8844  AVERAGE MISS PENALTY: 2.14252e+08
L2C RFO       ACCESS: 568389  HIT: 156383  MISS: 412006  HIT %: 27.5134  MISS %: 72.4866  AVERAGE MISS PENALTY: 50091.1
L2C PREFETCH  ACCESS: 5679086  HIT: 3663494  MISS: 2015592  HIT %: 64.5085  MISS %: 35.4915  AVERAGE MISS PENALTY: 642.968
L2C WRITEBACK ACCESS: 1286334  HIT: 1221532  MISS: 64802  HIT %: 94.9623  MISS %: 5.03773  AVERAGE MISS PENALTY: 0


LLC0 TOTAL     ACCESS: 518426  HIT: 169902  MISS: 348524  HIT %: 32.7727  MISS %: 67.2273  AVERAGE MISS PENALTY: 875.288
LLC0 LOAD      ACCESS: 61544  HIT: 13016  MISS: 48528  HIT %: 21.1491  MISS %: 78.8509  AVERAGE MISS PENALTY: 833.625
LLC0 RFO       ACCESS: 51703  HIT:  2028  MISS: 49675  HIT %: 3.9224  MISS %: 96.0776  AVERAGE MISS PENALTY: 1460.27
LLC0 PREFETCH  ACCESS: 277076  HIT: 45571  MISS: 231505  HIT %: 16.4471  MISS %: 83.5529  AVERAGE MISS PENALTY: 829.64
LLC0 WRITEBACK ACCESS: 128103  HIT: 109287  MISS: 18816  HIT %: 85.3118  MISS %: 14.6882  AVERAGE MISS PENALTY: 0

LLC1 TOTAL     ACCESS: 519574  HIT: 170497  MISS: 349077  HIT %: 32.8148  MISS %: 67.1852  AVERAGE MISS PENALTY: 875.716
LLC1 LOAD      ACCESS: 33435  HIT:  8734  MISS: 24701  HIT %: 26.1223  MISS %: 73.8777  AVERAGE MISS PENALTY: 970.787
LLC1 RFO       ACCESS: 51613  HIT:  2028  MISS: 49585  HIT %: 3.92924  MISS %: 96.0708  AVERAGE MISS PENALTY: 1407.57
LLC1 PREFETCH  ACCESS: 306329  HIT: 49831  MISS: 256498  HIT %: 16.2672  MISS %: 83.7328  AVERAGE MISS PENALTY: 826.2
LLC1 WRITEBACK ACCESS: 128197  HIT: 109904  MISS: 18293  HIT %: 85.7306  MISS %: 14.2694  AVERAGE MISS PENALTY: 0

LLC2 TOTAL     ACCESS: 520134  HIT: 170928  MISS: 349206  HIT %: 32.8623  MISS %: 67.1377  AVERAGE MISS PENALTY: 888.297
LLC2 LOAD      ACCESS: 27826  HIT:  7812  MISS: 20014  HIT %: 28.0745  MISS %: 71.9255  AVERAGE MISS PENALTY: 986.409
LLC2 RFO       ACCESS: 51567  HIT:  2031  MISS: 49536  HIT %: 3.93857  MISS %: 96.0614  AVERAGE MISS PENALTY: 1416.68
LLC2 PREFETCH  ACCESS: 312669  HIT: 50809  MISS: 261860  HIT %: 16.2501  MISS %: 83.7499  AVERAGE MISS PENALTY: 841.212
LLC2 WRITEBACK ACCESS: 128072  HIT: 110276  MISS: 17796  HIT %: 86.1047  MISS %: 13.8953  AVERAGE MISS PENALTY: 0

LLC3 TOTAL     ACCESS: 520431  HIT: 171285  MISS: 349146  HIT %: 32.9121  MISS %: 67.0879  AVERAGE MISS PENALTY: 885.721
LLC3 LOAD      ACCESS: 26147  HIT:  7705  MISS: 18442  HIT %: 29.468  MISS %: 70.532  AVERAGE MISS PENALTY: 1030.07
LLC3 RFO       ACCESS: 51653  HIT:  2145  MISS: 49508  HIT %: 4.15271  MISS %: 95.8473  AVERAGE MISS PENALTY: 1350.34
LLC3 PREFETCH  ACCESS: 314323  HIT: 50742  MISS: 263581  HIT %: 16.1433  MISS %: 83.8567  AVERAGE MISS PENALTY: 847.545
[...]
LLC1 AVERAGE MISS LATENCY: 868.919 cycles
LLC2 TOTAL     ACCESS: 527001  HIT: 177511  MISS: 349490  HIT %: 33.6832  MISS %: 66.3168  AVERAGE MISS PENALTY: 888.622
LLC2 LOAD      ACCESS: 28125  HIT:  8272  MISS: 19853  HIT %: 29.4116  MISS %: 70.5884  AVERAGE MISS PENALTY: 1023.39
LLC2 RFO       ACCESS: 52717  HIT:  2937  MISS: 49780  HIT %: 5.57126  MISS %: 94.4287  AVERAGE MISS PENALTY: 1364.54
LLC2 PREFETCH  ACCESS: 317796  HIT: 55946  MISS: 261850  HIT %: 17.6044  MISS %: 82.3956  AVERAGE MISS PENALTY: 849.038
LLC2 WRITEBACK ACCESS: 128363  HIT: 110356  MISS: 18007  HIT %: 85.9718  MISS %: 14.0282  AVERAGE MISS PENALTY: 0
LLC2 PREFETCH  REQUESTED:     0  ISSUED:     0  USEFUL: 46793  USELESS: 2044507
 USEFUL LOAD PREFETCHES:      46793 PREFETCH ISSUED TO LOWER LEVEL:   21572656  ACCURACY: 0.216909
 TIMELY PREFETCHES:      46793 LATE PREFETCHES: 0 DROPPED PREFETCHES: 0
LLC2 AVERAGE MISS LATENCY: 888.623 cycles
LLC3 TOTAL     ACCESS: 527631  HIT: 178319  MISS: 349312  HIT %: 33.7962  MISS %: 66.2038  AVERAGE MISS PENALTY: 880.901
LLC3 LOAD      ACCESS: 26679  HIT:  8197  MISS: 18482  HIT %: 30.7245  MISS %: 69.2755  AVERAGE MISS PENALTY: 1041.79
LLC3 RFO       ACCESS: 52848  HIT:  3069  MISS: 49779  HIT %: 5.80722  MISS %: 94.1928  AVERAGE MISS PENALTY: 1305.76
LLC3 PREFETCH  ACCESS: 319368  HIT: 56632  MISS: 262736  HIT %: 17.7325  MISS %: 82.2675  AVERAGE MISS PENALTY: 850.495
LLC3 WRITEBACK ACCESS: 128736  HIT: 110421  MISS: 18315  HIT %: 85.7732  MISS %: 14.2268  AVERAGE MISS PENALTY: 0
LLC3 PREFETCH  REQUESTED:     0  ISSUED:     0  USEFUL: 46347  USELESS: 2055861
 USEFUL LOAD PREFETCHES:      46347 PREFETCH ISSUED TO LOWER LEVEL:   24838037  ACCURACY: 0.186597
 TIMELY PREFETCHES:      46347 LATE PREFETCHES: 0 DROPPED PREFETCHES: 0
LLC3 AVERAGE MISS LATENCY: 880.901 cycles
LLC4 TOTAL     ACCESS: 528602  HIT: 177745  MISS: 350857  HIT %: 33.6255  MISS %: 66.3745  AVERAGE MISS PENALTY: 906.83
LLC4 LOAD      ACCESS: 25736  HIT:  7997  MISS: 17739  HIT %: 31.0732  MISS %: 68.9268  AVERAGE MISS PENALTY: 1098.52
LLC4 RFO       ACCESS: 52705  HIT:  3013  MISS: 49692  HIT %: 5.71673  MISS %: 94.2833  AVERAGE MISS PENALTY: 1480.85
LLC4 PREFETCH  ACCESS: 321579  HIT: 56628  MISS: 264951  HIT %: 17.6094  MISS %: 82.3906  AVERAGE MISS PENALTY: 849.57
LLC4 WRITEBACK ACCESS: 128582  HIT: 110107  MISS: 18475  HIT %: 85.6317  MISS %: 14.3683  AVERAGE MISS PENALTY: 0
LLC4 PREFETCH  REQUESTED:     0  ISSUED:     0  USEFUL: 46136  USELESS: 2068947
 USEFUL LOAD PREFETCHES:      46136 PREFETCH ISSUED TO LOWER LEVEL:   25278910  ACCURACY: 0.182508
 TIMELY PREFETCHES:      46136 LATE PREFETCHES: 0 DROPPED PREFETCHES: 0
LLC4 AVERAGE MISS LATENCY: 906.83 cycles
LLC5 TOTAL     ACCESS: 528728  HIT: 178307  MISS: 350421  HIT %: 33.7238  MISS %: 66.2762  AVERAGE MISS PENALTY: 896.88
LLC5 LOAD      ACCESS: 25839  HIT:  7957  MISS: 17882  HIT %: 30.7945  MISS %: 69.2055  AVERAGE MISS PENALTY: 1139.02
LLC5 RFO       ACCESS: 52478  HIT:  3037  MISS: 49441  HIT %: 5.78719  MISS %: 94.2128  AVERAGE MISS PENALTY: 1376.56
LLC5 PREFETCH  ACCESS: 321945  HIT: 56738  MISS: 265207  HIT %: 17.6235  MISS %: 82.3765  AVERAGE MISS PENALTY: 851.634
LLC5 WRITEBACK ACCESS: 128466  HIT: 110575  MISS: 17891  HIT %: 86.0734  MISS %: 13.9266  AVERAGE MISS PENALTY: 0
LLC5 PREFETCH  REQUESTED:     0  ISSUED:     0  USEFUL: 47025  USELESS: 2071926
 USEFUL LOAD PREFETCHES:      47025 PREFETCH ISSUED TO LOWER LEVEL:   29170893  ACCURACY: 0.161205
 TIMELY PREFETCHES:      47025 LATE PREFETCHES: 0 DROPPED PREFETCHES: 0
LLC5 AVERAGE MISS LATENCY: 896.88 cycles
LLC6 TOTAL     ACCESS: 529668  HIT: 179005  MISS: 350663  HIT %: 33.7957  MISS %: 66.2043  AVERAGE MISS PENALTY: 897.301
LLC6 LOAD      ACCESS: 25996  HIT:  8186  MISS: 17810  HIT %: 31.4895  MISS %: 68.5105  AVERAGE MISS PENALTY: 1062.48
LLC6 RFO       ACCESS: 52500  HIT:  3100  MISS: 49400  HIT %: 5.90476  MISS %: 94.0952  AVERAGE MISS PENALTY: 1335.31
LLC6 PREFETCH  ACCESS: 322427  HIT: 57123  MISS: 265304  HIT %: 17.7166  MISS %: 82.2834  AVERAGE MISS PENALTY: 866.038
LLC6 WRITEBACK ACCESS: 128745  HIT: 110596  MISS: 18149  HIT %: 85.9031  MISS %: 14.0969  AVERAGE MISS PENALTY: 0
LLC6 PREFETCH  REQUESTED:     0  ISSUED:     0  USEFUL: 47951  USELESS: 2072412
 USEFUL LOAD PREFETCHES:      47951 PREFETCH ISSUED TO LOWER LEVEL:   43178194  ACCURACY: 0.111054
 TIMELY PREFETCHES:      47951 LATE PREFETCHES: 0 DROPPED PREFETCHES: 0
LLC6 AVERAGE MISS LATENCY: 897.301 cycles
LLC7 TOTAL     ACCESS: 529998  HIT: 178528  MISS: 351470  HIT %: 33.6847  MISS %: 66.3153  AVERAGE MISS PENALTY: 895.46
LLC7 LOAD      ACCESS: 26071  HIT:  8136  MISS: 17935  HIT %: 31.2071  MISS %: 68.7929  AVERAGE MISS PENALTY: 1099.53
LLC7 RFO       ACCESS: 52554  HIT:  3159  MISS: 49395  HIT %: 6.01096  MISS %: 93.989  AVERAGE MISS PENALTY: 1316.98
LLC7 PREFETCH  ACCESS: 322791  HIT: 57084  MISS: 265707  HIT %: 17.6845  MISS %: 82.3155  AVERAGE MISS PENALTY: 865.446
LLC7 WRITEBACK ACCESS: 128582  HIT: 110149  MISS: 18433  HIT %: 85.6644  MISS %: 14.3356  AVERAGE MISS PENALTY: 0
LLC7 PREFETCH  REQUESTED:     0  ISSUED:     0  USEFUL: 48316  USELESS: 2074024
 USEFUL LOAD PREFETCHES:      48316 PREFETCH ISSUED TO LOWER LEVEL:   38808243  ACCURACY: 0.124499
 TIMELY PREFETCHES:      48316 LATE PREFETCHES: 0 DROPPED PREFETCHES: 0
LLC7 AVERAGE MISS LATENCY: 895.46 cycles
ROI Average ROB Stall Cycles:	14.3112
ROI Total ROB Stalls Cycles:	330819055
ROI TOTAL ROB counter      :	23116015
ROI Average Load ROB Stall Cycles:	71.8318
ROI Total Load ROB Stalls Cycle  :	238282519
ROI Total Load ROB stalls Counter:	3317228
Major fault: 0 Minor fault: 10640

CPU 7 cumulative IPC: 0.51699 instructions: 200000002 cycles: 386854700
ITLB TOTAL     ACCESS: 34396510  HIT: 34396288  MISS:   222  HIT %: 99.9994  MISS %: 0.000645414  AVERAGE MISS PENALTY: 129.266
ITLB LOAD      ACCESS: 34396510  HIT: 34396288  MISS:   222  HIT %: 99.9994  MISS %: 0.000645414  AVERAGE MISS PENALTY: 129.266
ITLB RFO       ACCESS:     0  HIT:     0  MISS:     0  HIT %:     0  MISS %:     0  AVERAGE MISS PENALTY: 0
ITLB PREFETCH  ACCESS:     0  HIT:     0  MISS:     0  HIT %:     0  MISS %:     0  AVERAGE MISS PENALTY: 0
ITLB WRITEBACK ACCESS:     0  HIT:     0  MISS:     0  HIT %:     0  MISS %:     0  AVERAGE MISS PENALTY: 0
ITLB PREFETCH  REQUESTED:     0  ISSUED:     0  USEFUL:     0  USELESS:     0
 USEFUL LOAD PREFETCHES:          0 PREFETCH ISSUED TO LOWER LEVEL:          0  ACCURACY: -nan
 TIMELY PREFETCHES:          0 LATE PREFETCHES: 0 DROPPED PREFETCHES: 0
ITLB AVERAGE MISS LATENCY: 129.266 cycles
DTLB TOTAL     ACCESS: 49985994  HIT: 49827351  MISS: 158643  HIT %: 99.6826  MISS %: 0.317375  AVERAGE MISS PENALTY: 35.2083
DTLB LOAD      ACCESS: 43867448  HIT: 43731721  MISS: 135727  HIT %: 99.6906  MISS %: 0.309403  AVERAGE MISS PENALTY: 34.7187
DTLB RFO       ACCESS: 6118546  HIT: 6095630  MISS: 22916  HIT %: 99.6255  MISS %: 0.374533  AVERAGE MISS PENALTY: 38.108
DTLB PREFETCH  ACCESS:     0  HIT:     0  MISS:     0  HIT %:     0  MISS %:     0  AVERAGE MISS PENALTY: 0
DTLB WRITEBACK ACCESS:     0  HIT:     0  MISS:     0  HIT %:     0  MISS %:     0  AVERAGE MISS PENALTY: 0
DTLB PREFETCH  REQUESTED:     0  ISSUED:     0  USEFUL:     0  USELESS:     0
 USEFUL LOAD PREFETCHES:          0 PREFETCH ISSUED TO LOWER LEVEL:          0  ACCURACY: -nan
 TIMELY PREFETCHES:          0 LATE PREFETCHES: 0 DROPPED PREFETCHES: 0
DTLB AVERAGE MISS LATENCY: 35.2083 cycles
STLB TOTAL     ACCESS: 158865  HIT: 129068  MISS: 29797  HIT %: 81.2438  MISS %: 18.7562  AVERAGE MISS PENALTY: 100
STLB LOAD      ACCESS: 135949  HIT: 112320  MISS: 23629  HIT %: 82.6192  MISS %: 17.3808  AVERAGE MISS PENALTY: 100
STLB RFO       ACCESS: 22916  HIT: 16748  MISS:  6168  HIT %: 73.0843  MISS %: 26.9157  AVERAGE MISS PENALTY: 100
STLB PREFETCH  ACCESS:     0  HIT:     0  MISS:     0  HIT %:     0  MISS %:     0  AVERAGE MISS PENALTY: 0
STLB WRITEBACK ACCESS:     0  HIT:     0  MISS:     0  HIT %:     0  MISS %:     0  AVERAGE MISS PENALTY: 0
STLB PREFETCH  REQUESTED:     0  ISSUED:     0  USEFUL:     0  USELESS:     0
 USEFUL LOAD PREFETCHES:          0 PREFETCH ISSUED TO LOWER LEVEL:          0  ACCURACY: -nan
 TIMELY PREFETCHES:          0 LATE PREFETCHES: 0 DROPPED PREFETCHES: 0
STLB AVERAGE MISS LATENCY: 100 cycles
L1D TOTAL     ACCESS: 59665848  HIT: 55590657  MISS: 4075191  HIT %: 93.17  MISS %: 6.83002  AVERAGE MISS PENALTY: 4.17946e+07
L1D LOAD      ACCESS: 40246665  HIT: 39238436  MISS: 1008229  HIT %: 97.4949  MISS %: 2.50512  AVERAGE MISS PENALTY: 1.68592e+08
L1D RFO       ACCESS: 8171269  HIT: 7605382  MISS: 565887  HIT %: 93.0747  MISS %: 6.92533  AVERAGE MISS PENALTY: 603397
L1D PREFETCH  ACCESS: 11247914  HIT: 8746839  MISS: 2501075  HIT %: 77.7641  MISS %: 22.2359  AVERAGE MISS PENALTY: 230.953
L1D WRITEBACK ACCESS:     0  HIT:     0  MISS:     0  HIT %:     0  MISS %:     0  AVERAGE MISS PENALTY: 0
L1D PREFETCH  REQUESTED: 14909394  ISSUED: 13319738  USEFUL: 2317158  USELESS: 183909
 USEFUL LOAD PREFETCHES:    2317158 PREFETCH ISSUED TO LOWER LEVEL:   30295627  ACCURACY: 7.64849
 TIMELY PREFETCHES:    2317158 LATE PREFETCHES: 705289 DROPPED PREFETCHES: 1589656
L1D AVERAGE MISS LATENCY: 84055.6 cycles
L1I TOTAL     ACCESS: 44907558  HIT: 44900967  MISS:  6591  HIT %: 99.9853  MISS %: 0.0146768  AVERAGE MISS PENALTY: 767.444
L1I LOAD      ACCESS: 44907558  HIT: 44900967  MISS:  6591  HIT %: 99.9853  MISS %: 0.0146768  AVERAGE MISS PENALTY: 767.444
L1I RFO       ACCESS:     0  HIT:     0  MISS:     0  HIT %:     0  MISS %:     0  AVERAGE MISS PENALTY: 0
L1I PREFETCH  ACCESS:     0  HIT:     0  MISS:     0  HIT %:     0  MISS %:     0  AVERAGE MISS PENALTY: 0
L1I WRITEBACK ACCESS:     0  HIT:     0  MISS:     0  HIT %:     0  MISS %:     0  AVERAGE MISS PENALTY: 0
L1I PREFETCH  REQUESTED:     0  ISSUED:     0  USEFUL:     0  USELESS:     0
 USEFUL LOAD PREFETCHES:          0 PREFETCH ISSUED TO LOWER LEVEL:          0  ACCURACY: -nan
 TIMELY PREFETCHES:          0 LATE PREFETCHES: 0 DROPPED PREFETCHES: 0
L1I AVERAGE MISS LATENCY: 767.444 cycles
L2C TOTAL     ACCESS: 8424177  HIT: 5005573  MISS: 3418604  HIT %: 59.4191  MISS %: 40.5809  AVERAGE MISS PENALTY: 4.46523e+07
L2C LOAD      ACCESS: 988793  HIT: 265448  MISS: 723345  HIT %: 26.8457  MISS %: 73.1543  AVERAGE MISS PENALTY: 2.11003e+08
L2C RFO       ACCESS: 564357  HIT: 141364  MISS: 422993  HIT %: 25.0487  MISS %: 74.9513  AVERAGE MISS PENALTY: 45057.6
L2C PREFETCH  ACCESS: 5594217  HIT: 3432822  MISS: 2161395  HIT %: 61.3638  MISS %: 38.6362  AVERAGE MISS PENALTY: 602.206
L2C WRITEBACK ACCESS: 1276810  HIT: 1165939  MISS: 110871  HIT %: 91.3166  MISS %: 8.68344  AVERAGE MISS PENALTY: 0
L2C PREFETCH  REQUESTED: 5823191  ISSUED: 5802573  USEFUL: 186079  USELESS: 1975340
 USEFUL LOAD PREFETCHES:     186079 PREFETCH ISSUED TO LOWER LEVEL:    4103726  ACCURACY: 4.53439
 TIMELY PREFETCHES:     186079 LATE PREFETCHES: 599346 DROPPED PREFETCHES: 20618
L2C AVERAGE MISS LATENCY: 698.516 cycles
LLC0 TOTAL     ACCESS: 541057  HIT: 198486  MISS: 342571  HIT %: 36.6849  MISS %: 63.3151  AVERAGE MISS PENALTY: 886.848
LLC0 LOAD      ACCESS: 64338  HIT: 16323  MISS: 48015  HIT %: 25.3707  MISS %: 74.6293  AVERAGE MISS PENALTY: 854.234
LLC0 RFO       ACCESS: 53001  HIT:  3215  MISS: 49786  HIT %: 6.06592  MISS %: 93.9341  AVERAGE MISS PENALTY: 1418.12
LLC0 PREFETCH  ACCESS: 293155  HIT: 63557  MISS: 229598  HIT %: 21.6803  MISS %: 78.3197  AVERAGE MISS PENALTY: 837.072
LLC0 WRITEBACK ACCESS: 130563  HIT: 115391  MISS: 15172  HIT %: 88.3796  MISS %: 11.6204  AVERAGE MISS PENALTY: 0
LLC0 PREFETCH  REQUESTED:     0  ISSUED:     0  USEFUL: 41575  USELESS: 1808895
 USEFUL LOAD PREFETCHES:      41575 PREFETCH ISSUED TO LOWER LEVEL:   17737292  ACCURACY: 0.234393
 TIMELY PREFETCHES:      41575 LATE PREFETCHES: 0 DROPPED PREFETCHES: 0
LLC0 AVERAGE MISS LATENCY: 886.848 cycles
Deadblocks : 345645 Deadblock percentage : 719.869

LLC1 TOTAL     ACCESS: 542817  HIT: 200399  MISS: 342418  HIT %: 36.9183  MISS %: 63.0817  AVERAGE MISS PENALTY: 886.245
LLC1 LOAD      ACCESS: 35047  HIT: 10455  MISS: 24592  HIT %: 29.8314  MISS %: 70.1686  AVERAGE MISS PENALTY: 1011.82
LLC1 RFO       ACCESS: 53013  HIT:  3303  MISS: 49710  HIT %: 6.23055  MISS %: 93.7695  AVERAGE MISS PENALTY: 1373.18
LLC1 PREFETCH  ACCESS: 323951  HIT: 70537  MISS: 253414  HIT %: 21.774  MISS %: 78.226  AVERAGE MISS PENALTY: 829.956
LLC1 WRITEBACK ACCESS: 130806  HIT: 116104  MISS: 14702  HIT %: 88.7605  MISS %: 11.2395  AVERAGE MISS PENALTY: 0
LLC1 PREFETCH  REQUESTED:     0  ISSUED:     0  USEFUL: 47356  USELESS: 1999108
 USEFUL LOAD PREFETCHES:      47356 PREFETCH ISSUED TO LOWER LEVEL:   21819089  ACCURACY: 0.217039
 TIMELY PREFETCHES:      47356 LATE PREFETCHES: 0 DROPPED PREFETCHES: 0
LLC1 AVERAGE MISS LATENCY: 886.245 cycles
LLC2 TOTAL     ACCESS: 542705  HIT: 199845  MISS: 342860  HIT %: 36.8239  MISS %: 63.1761  AVERAGE MISS PENALTY: 902.784
LLC2 LOAD      ACCESS: 28976  HIT:  9189  MISS: 19787  HIT %: 31.7125  MISS %: 68.2875  AVERAGE MISS PENALTY: 1006.39
LLC2 RFO       ACCESS: 52822  HIT:  3192  MISS: 49630  HIT %: 6.04294  MISS %: 93.9571  AVERAGE MISS PENALTY: 1391.52
LLC2 PREFETCH  ACCESS: 330497  HIT: 71414  MISS: 259083  HIT %: 21.6081  MISS %: 78.3919  AVERAGE MISS PENALTY: 851.287
LLC2 WRITEBACK ACCESS: 130410  HIT: 116050  MISS: 14360  HIT %: 88.9886  MISS %: 11.0114  AVERAGE MISS PENALTY: 0
LLC2 PREFETCH  REQUESTED:     0  ISSUED:     0  USEFUL: 46793  USELESS: 2044507
 USEFUL LOAD PREFETCHES:      46793 PREFETCH ISSUED TO LOWER LEVEL:   21572656  ACCURACY: 0.216909
 TIMELY PREFETCHES:      46793 LATE PREFETCHES: 0 DROPPED PREFETCHES: 0
LLC2 AVERAGE MISS LATENCY: 902.784 cycles
LLC3 TOTAL     ACCESS: 543241  HIT: 200376  MISS: 342865  HIT %: 36.8853  MISS %: 63.1147  AVERAGE MISS PENALTY: 897.304
LLC3 LOAD      ACCESS: 27534  HIT:  9185  MISS: 18349  HIT %: 33.3588  MISS %: 66.6412  AVERAGE MISS PENALTY: 1062.18
LLC3 RFO       ACCESS: 52975  HIT:  3290  MISS: 49685  HIT %: 6.21048  MISS %: 93.7895  AVERAGE MISS PENALTY: 1329.27
LLC3 PREFETCH  ACCESS: 332050  HIT: 71461  MISS: 260589  HIT %: 21.5212  MISS %: 78.4788  AVERAGE MISS PENALTY: 852.374
LLC3 WRITEBACK ACCESS: 130682  HIT: 116440  MISS: 14242  HIT %: 89.1018  MISS %: 10.8982  AVERAGE MISS PENALTY: 0
LLC3 PREFETCH  REQUESTED:     0  ISSUED:     0  USEFUL: 46347  USELESS: 2055861
 USEFUL LOAD PREFETCHES:      46347 PREFETCH ISSUED TO LOWER LEVEL:   24838037  ACCURACY: 0.186597
 TIMELY PREFETCHES:      46347 LATE PREFETCHES: 0 DROPPED PREFETCHES: 0
LLC3 AVERAGE MISS LATENCY: 897.304 cycles
LLC4 TOTAL     ACCESS: 544817  HIT: 200848  MISS: 343969  HIT %: 36.8652  MISS %: 63.1348  AVERAGE MISS PENALTY: 921.866
LLC4 LOAD      ACCESS: 26675  HIT:  8957  MISS: 17718  HIT %: 33.5783  MISS %: 66.4217  AVERAGE MISS PENALTY: 1105.41
LLC4 RFO       ACCESS: 52902  HIT:  3311  MISS: 49591  HIT %: 6.25874  MISS %: 93.7413  AVERAGE MISS PENALTY: 1498.55
LLC4 PREFETCH  ACCESS: 334503  HIT: 72299  MISS: 262204  HIT %: 21.6139  MISS %: 78.3861  AVERAGE MISS PENALTY: 851.219
LLC4 WRITEBACK ACCESS: 130737  HIT: 116281  MISS: 14456  HIT %: 88.9427  MISS %: 11.0573  AVERAGE MISS PENALTY: 0
LLC4 PREFETCH  REQUESTED:     0  ISSUED:     0  USEFUL: 46136  USELESS: 2068947
 USEFUL LOAD PREFETCHES:      46136 PREFETCH ISSUED TO LOWER LEVEL:   25278910  ACCURACY: 0.182508
 TIMELY PREFETCHES:      46136 LATE PREFETCHES: 0 DROPPED PREFETCHES: 0
LLC4 AVERAGE MISS LATENCY: 921.866 cycles
LLC5 TOTAL     ACCESS: 545987  HIT: 202077  MISS: 343910  HIT %: 37.0113  MISS %: 62.9887  AVERAGE MISS PENALTY: 913.129
LLC5 LOAD      ACCESS: 27122  HIT:  9404  MISS: 17718  HIT %: 34.673  MISS %: 65.327  AVERAGE MISS PENALTY: 1131.32
LLC5 RFO       ACCESS: 52720  HIT:  3368  MISS: 49352  HIT %: 6.38847  MISS %: 93.6115  AVERAGE MISS PENALTY: 1404
LLC5 PREFETCH  ACCESS: 335361  HIT: 72628  MISS: 262733  HIT %: 21.6567  MISS %: 78.3433  AVERAGE MISS PENALTY: 855.238
LLC5 WRITEBACK ACCESS: 130784  HIT: 116677  MISS: 14107  HIT %: 89.2135  MISS %: 10.7865  AVERAGE MISS PENALTY: 0
LLC5 PREFETCH  REQUESTED:     0  ISSUED:     0  USEFUL: 47025  USELESS: 2071926
 USEFUL LOAD PREFETCHES:      47025 PREFETCH ISSUED TO LOWER LEVEL:   29170893  ACCURACY: 0.161205
 TIMELY PREFETCHES:      47025 LATE PREFETCHES: 0 DROPPED PREFETCHES: 0
LLC5 AVERAGE MISS LATENCY: 913.129 cycles
LLC6 TOTAL     ACCESS: 546472  HIT: 202769  MISS: 343703  HIT %: 37.1051  MISS %: 62.8949  AVERAGE MISS PENALTY: 912.542
LLC6 LOAD      ACCESS: 26995  HIT:  9078  MISS: 17917  HIT %: 33.6284  MISS %: 66.3716  AVERAGE MISS PENALTY: 1082.18
LLC6 RFO       ACCESS: 52754  HIT:  3404  MISS: 49350  HIT %: 6.45259  MISS %: 93.5474  AVERAGE MISS PENALTY: 1357.3
LLC6 PREFETCH  ACCESS: 335669  HIT: 73201  MISS: 262468  HIT %: 21.8075  MISS %: 78.1925  AVERAGE MISS PENALTY: 865.901
LLC6 WRITEBACK ACCESS: 131054  HIT: 117086  MISS: 13968  HIT %: 89.3418  MISS %: 10.6582  AVERAGE MISS PENALTY: 0
LLC6 PREFETCH  REQUESTED:     0  ISSUED:     0  USEFUL: 47951  USELESS: 2072412
 USEFUL LOAD PREFETCHES:      47951 PREFETCH ISSUED TO LOWER LEVEL:   43178194  ACCURACY: 0.111054
 TIMELY PREFETCHES:      47951 LATE PREFETCHES: 0 DROPPED PREFETCHES: 0
LLC6 AVERAGE MISS LATENCY: 912.542 cycles
LLC7 TOTAL     ACCESS: 546540  HIT: 201812  MISS: 344728  HIT %: 36.9254  MISS %: 63.0746  AVERAGE MISS PENALTY: 913.652
LLC7 LOAD      ACCESS: 27089  HIT:  9248  MISS: 17841  HIT %: 34.1393  MISS %: 65.8607  AVERAGE MISS PENALTY: 1090.04
LLC7 RFO       ACCESS: 52724  HIT:  3400  MISS: 49324  HIT %: 6.44868  MISS %: 93.5513  AVERAGE MISS PENALTY: 1355.37
LLC7 PREFETCH  ACCESS: 335845  HIT: 72579  MISS: 263266  HIT %: 21.6109  MISS %: 78.3891  AVERAGE MISS PENALTY: 868.559
LLC7 WRITEBACK ACCESS: 130882  HIT: 116585  MISS: 14297  HIT %: 89.0764  MISS %: 10.9236  AVERAGE MISS PENALTY: 0
LLC7 PREFETCH  REQUESTED:     0  ISSUED:     0  USEFUL: 48316  USELESS: 2074024
 USEFUL LOAD PREFETCHES:      48316 PREFETCH ISSUED TO LOWER LEVEL:   38808243  ACCURACY: 0.124499
 TIMELY PREFETCHES:      48316 LATE PREFETCHES: 0 DROPPED PREFETCHES: 0
LLC7 AVERAGE MISS LATENCY: 913.652 cycles
ROI Average ROB Stall Cycles:	14.2342
ROI Total ROB Stalls Cycles:	328881977
ROI TOTAL ROB counter      :	23105041
ROI Average Load ROB Stall Cycles:	71.2842
ROI Total Load ROB Stalls Cycle  :	236291956
ROI Total Load ROB stalls Counter:	3314787
Major fault: 0 Minor fault: 10640








Interconnect Stats 
LINK 0 BW : 0LINK 1 BW : 0LINK 2 BW : 0LINK 3 BW : 0LINK 4 BW : 0LINK 5 BW : 0LINK 6 BW : 0LINK 7 BW : 0
DRAM Statistics
 CHANNEL 0
 RQ ROW_BUFFER_HIT: 2803133  ROW_BUFFER_MISS: 7807451
 DBUS_CONGESTED: 13307070
 WQ ROW_BUFFER_HIT: 244289  ROW_BUFFER_MISS: 3394189  FULL:     0

 CHANNEL 1
 RQ ROW_BUFFER_HIT: 2812461  ROW_BUFFER_MISS: 7808220
 DBUS_CONGESTED: 13307070
 WQ ROW_BUFFER_HIT: 241361  ROW_BUFFER_MISS: 3397172  FULL:     0

 AVG_CONGESTED_CYCLE: 6
DRAM PAGES: 2097152
Allocated PAGES: 85120
L2C destructor called
L1D destructor called
L1I destructor called
STLB destructor called
DTLB destructor called
ITLB destructor called
L2C destructor called
L1D destructor called
L1I destructor called
STLB destructor called
DTLB destructor called
ITLB destructor called
L2C destructor called
L1D destructor called
L1I destructor called
STLB destructor called
DTLB destructor called
ITLB destructor called
L2C destructor called
L1D destructor called
L1I destructor called
STLB destructor called
DTLB destructor called
ITLB destructor called
L2C destructor called
L1D destructor called
L1I destructor called
STLB destructor called
DTLB destructor called
ITLB destructor called
L2C destructor called
L1D destructor called
L1I destructor called
STLB destructor called
DTLB destructor called
ITLB destructor called
L2C destructor called
L1D destructor called
L1I destructor called
STLB destructor called
DTLB destructor called
ITLB destructor called
L2C destructor called
L1D destructor called
L1I destructor called
STLB destructor called
DTLB destructor called
ITLB destructor called
