
*** ChampSim Multicore Out-of-Order Simulator ***

Warmup Instructions: 200000000
Simulation Instructions: 200000000
Number of CPUs: 8
threads:1

L1I Configuration:
L1I_SET:64
L1I_WAY:8
L1I_RQ_SIZE:64
L1I_WQ_SIZE:64
L1I_PQ_SIZE:8
L1I_MSHR_SIZE:8

L1D Configuration:
L1D_SET:64
L1D_WAY:12
L1D_RQ_SIZE:64
L1D_WQ_SIZE:64
L1D_PQ_SIZE:8
L1D_MSHR_SIZE:16

L2C Configuration:
L2C_SET:1024
L2C_WAY:8
L2C_RQ_SIZE:32
L2C_WQ_SIZE:32
L2C_PQ_SIZE:16
L2C_MSHR_SIZE:32

LLC Configuration:
LLC_SET:2048
LLC_WAY:16
LLC SLICES:8
LLC_RQ_SIZE:64
LLC_WQ_SIZE:64
LLC_PQ_SIZE:32
LLC_MSHR_SIZE:64

Interconnect OFF
Attacker deprioritize is: OFF
Off-chip DRAM Size: 8192 MB Channels: 2 Width: 64-bit Data Rate: 3200 MT/s
PAGE SIZE in KB: 4.000000 
PAGE SIZE in MB: 0.003906 
PAGE offset in bits: 12 
CEASER-S_LLC:0
MIRAGE : 0
CEASER_LATENCY:3
REMAP : OFF
Partitions : 1
Multi-Step : OFF
BFS : OFF

CPU 0 runs /home/anubhav/spec_2017/625.x264_s-20B.champsimtrace.xz
CPU 1 runs /home/anubhav/spec_2017/625.x264_s-20B.champsimtrace.xz
CPU 2 runs /home/anubhav/spec_2017/625.x264_s-20B.champsimtrace.xz
CPU 3 runs /home/anubhav/spec_2017/625.x264_s-20B.champsimtrace.xz
CPU 4 runs /home/anubhav/spec_2017/625.x264_s-20B.champsimtrace.xz
CPU 5 runs /home/anubhav/spec_2017/625.x264_s-20B.champsimtrace.xz
CPU 6 runs /home/anubhav/spec_2017/625.x264_s-20B.champsimtrace.xz
CPU 7 runs /home/anubhav/spec_2017/625.x264_s-20B.champsimtrace.xz
CPU 0 Bimodal branch predictor
Initialize Hawkeye state
Initialize Hawkeye state
Initialize Hawkeye state
Initialize Hawkeye state
Initialize Hawkeye state
Initialize Hawkeye state
Initialize Hawkeye state
Initialize Hawkeye state
CPU 1 Bimodal branch predictor
Initialize Hawkeye state
Initialize Hawkeye state
Initialize Hawkeye state
Initialize Hawkeye state
Initialize Hawkeye state
Initialize Hawkeye state
Initialize Hawkeye state
Initialize Hawkeye state
CPU 2 Bimodal branch predictor
Initialize Hawkeye state
Initialize Hawkeye state
Initialize Hawkeye state
Initialize Hawkeye state
Initialize Hawkeye state
Initialize Hawkeye state
Initialize Hawkeye state
Initialize Hawkeye state
CPU 3 Bimodal branch predictor
Initialize Hawkeye state
Initialize Hawkeye state
Initialize Hawkeye state
Initialize Hawkeye state
Initialize Hawkeye state
Initialize Hawkeye state
Initialize Hawkeye state
Initialize Hawkeye state
CPU 4 Bimodal branch predictor
Initialize Hawkeye state
Initialize Hawkeye state
Initialize Hawkeye state
Initialize Hawkeye state
Initialize Hawkeye state
Initialize Hawkeye state
Initialize Hawkeye state
Initialize Hawkeye state
CPU 5 Bimodal branch predictor
Initialize Hawkeye state
Initialize Hawkeye state
Initialize Hawkeye state
Initialize Hawkeye state
Initialize Hawkeye state
Initialize Hawkeye state
Initialize Hawkeye state
Initialize Hawkeye state
CPU 6 Bimodal branch predictor
Initialize Hawkeye state
Initialize Hawkeye state
Initialize Hawkeye state
Initialize Hawkeye state
Initialize Hawkeye state
Initialize Hawkeye state
Initialize Hawkeye state
Initialize Hawkeye state
CPU 7 Bimodal branch predictor
Initialize Hawkeye state
Initialize Hawkeye state
Initialize Hawkeye state
Initialize Hawkeye state
Initialize Hawkeye state
Initialize Hawkeye state
Initialize Hawkeye state
Initialize Hawkeye state
Heartbeat CPU 0 instructions: 10000001 cycles: 3619583 heartbeat IPC: 2.76275 cumulative IPC: 2.76275 (Simulation time: 1 hr 59 min 48 sec) 
 Total Blocks : 262144 Invalid Blocks : 75386
Heartbeat CPU 2 instructions: 10000001 cycles: 3619597 heartbeat IPC: 2.76274 cumulative IPC: 2.76274 (Simulation time: 1 hr 59 min 53 sec) 
 Total Blocks : 262144 Invalid Blocks : 75386
Heartbeat CPU 7 instructions: 10000001 cycles: 3619600 heartbeat IPC: 2.76274 cumulative IPC: 2.76274 (Simulation time: 1 hr 59 min 53 sec) 
 Total Blocks : 262144 Invalid Blocks : 75386
Heartbeat CPU 5 instructions: 10000001 cycles: 3619614 heartbeat IPC: 2.76273 cumulative IPC: 2.76273 (Simulation time: 1 hr 59 min 53 sec) 
 Total Blocks : 262144 Invalid Blocks : 75386
Heartbeat CPU 6 instructions: 10000001 cycles: 3619621 heartbeat IPC: 2.76272 cumulative IPC: 2.76272 (Simulation time: 1 hr 59 min 53 sec) 
 Total Blocks : 262144 Invalid Blocks : 75386
Heartbeat CPU 1 instructions: 10000001 cycles: 3619642 heartbeat IPC: 2.7627 cumulative IPC: 2.7627 (Simulation time: 1 hr 59 min 53 sec) 
 Total Blocks : 262144 Invalid Blocks : 75386
Heartbeat CPU 4 instructions: 10000001 cycles: 3619689 heartbeat IPC: 2.76267 cumulative IPC: 2.76267 (Simulation time: 1 hr 59 min 53 sec) 
 Total Blocks : 262144 Invalid Blocks : 75386
Heartbeat CPU 3 instructions: 10000001 cycles: 3619758 heartbeat IPC: 2.76262 cumulative IPC: 2.76262 (Simulation time: 1 hr 59 min 53 sec) 
 Total Blocks : 262144 Invalid Blocks : 75386
Heartbeat CPU 2 instructions: 20000001 cycles: 7691626 heartbeat IPC: 2.45578 cumulative IPC: 2.60023 (Simulation time: 4 hr 5 min 57 sec) 
 Total Blocks : 262144 Invalid Blocks : 45629
Heartbeat CPU 0 instructions: 20000001 cycles: 7691692 heartbeat IPC: 2.45573 cumulative IPC: 2.60021 (Simulation time: 4 hr 6 min 7 sec) 
 Total Blocks : 262144 Invalid Blocks : 45629
Heartbeat CPU 7 instructions: 20000001 cycles: 7691706 heartbeat IPC: 2.45573 cumulative IPC: 2.6002 (Simulation time: 4 hr 6 min 8 sec) 
 Total Blocks : 262144 Invalid Blocks : 45629
Heartbeat CPU 5 instructions: 20000001 cycles: 7691707 heartbeat IPC: 2.45574 cumulative IPC: 2.6002 (Simulation time: 4 hr 6 min 8 sec) 
 Total Blocks : 262144 Invalid Blocks : 45629
Heartbeat CPU 6 instructions: 20000001 cycles: 7691720 heartbeat IPC: 2.45574 cumulative IPC: 2.6002 (Simulation time: 4 hr 6 min 8 sec) 
 Total Blocks : 262144 Invalid Blocks : 45629
Heartbeat CPU 1 instructions: 20000001 cycles: 7691765 heartbeat IPC: 2.45572 cumulative IPC: 2.60018 (Simulation time: 4 hr 6 min 9 sec) 
 Total Blocks : 262144 Invalid Blocks : 45629
Heartbeat CPU 4 instructions: 20000001 cycles: 7691766 heartbeat IPC: 2.45575 cumulative IPC: 2.60018 (Simulation time: 4 hr 6 min 9 sec) 
 Total Blocks : 262144 Invalid Blocks : 45629
Heartbeat CPU 3 instructions: 20000001 cycles: 7692108 heartbeat IPC: 2.45558 cumulative IPC: 2.60007 (Simulation time: 4 hr 6 min 10 sec) 
 Total Blocks : 262144 Invalid Blocks : 45629
Heartbeat CPU 2 instructions: 30000000 cycles: 11747484 heartbeat IPC: 2.46557 cumulative IPC: 2.55374 (Simulation time: 6 hr 5 min 57 sec) 
 Total Blocks : 262144 Invalid Blocks : 28065
Heartbeat CPU 0 instructions: 30000000 cycles: 11747529 heartbeat IPC: 2.46558 cumulative IPC: 2.55373 (Simulation time: 6 hr 6 min 6 sec) 
 Total Blocks : 262144 Invalid Blocks : 28065
Heartbeat CPU 5 instructions: 30000000 cycles: 11747534 heartbeat IPC: 2.46559 cumulative IPC: 2.55373 (Simulation time: 6 hr 6 min 7 sec) 
 Total Blocks : 262144 Invalid Blocks : 28065
Heartbeat CPU 6 instructions: 30000000 cycles: 11747541 heartbeat IPC: 2.46559 cumulative IPC: 2.55373 (Simulation time: 6 hr 6 min 7 sec) 
 Total Blocks : 262144 Invalid Blocks : 28065
Heartbeat CPU 7 instructions: 30000000 cycles: 11747546 heartbeat IPC: 2.46558 cumulative IPC: 2.55372 (Simulation time: 6 hr 6 min 7 sec) 
 Total Blocks : 262144 Invalid Blocks : 28065
Heartbeat CPU 4 instructions: 30000000 cycles: 11747648 heartbeat IPC: 2.46555 cumulative IPC: 2.5537 (Simulation time: 6 hr 6 min 7 sec) 
 Total Blocks : 262144 Invalid Blocks : 28065
Heartbeat CPU 1 instructions: 30000000 cycles: 11747672 heartbeat IPC: 2.46554 cumulative IPC: 2.5537 (Simulation time: 6 hr 6 min 8 sec) 
 Total Blocks : 262144 Invalid Blocks : 28065
Heartbeat CPU 3 instructions: 30000000 cycles: 11748197 heartbeat IPC: 2.46543 cumulative IPC: 2.55358 (Simulation time: 6 hr 6 min 12 sec) 
 Total Blocks : 262144 Invalid Blocks : 28065
Heartbeat CPU 2 instructions: 40000000 cycles: 15802004 heartbeat IPC: 2.46638 cumulative IPC: 2.53132 (Simulation time: 8 hr 1 min 38 sec) 
 Total Blocks : 262144 Invalid Blocks : 17282
Heartbeat CPU 0 instructions: 40000000 cycles: 15802040 heartbeat IPC: 2.46639 cumulative IPC: 2.53132 (Simulation time: 8 hr 1 min 55 sec) 
 Total Blocks : 262144 Invalid Blocks : 17282
Heartbeat CPU 7 instructions: 40000000 cycles: 15802096 heartbeat IPC: 2.46636 cumulative IPC: 2.53131 (Simulation time: 8 hr 1 min 55 sec) 
 Total Blocks : 262144 Invalid Blocks : 17282
Heartbeat CPU 6 instructions: 40000000 cycles: 15802146 heartbeat IPC: 2.46633 cumulative IPC: 2.5313 (Simulation time: 8 hr 1 min 55 sec) 
 Total Blocks : 262144 Invalid Blocks : 17282
Heartbeat CPU 5 instructions: 40000000 cycles: 15802160 heartbeat IPC: 2.46632 cumulative IPC: 2.5313 (Simulation time: 8 hr 1 min 56 sec) 
 Total Blocks : 262144 Invalid Blocks : 17282
Heartbeat CPU 4 instructions: 40000000 cycles: 15802243 heartbeat IPC: 2.46634 cumulative IPC: 2.53129 (Simulation time: 8 hr 1 min 56 sec) 
 Total Blocks : 262144 Invalid Blocks : 17282
Heartbeat CPU 1 instructions: 40000000 cycles: 15802406 heartbeat IPC: 2.46625 cumulative IPC: 2.53126 (Simulation time: 8 hr 1 min 57 sec) 
 Total Blocks : 262144 Invalid Blocks : 17281
Heartbeat CPU 3 instructions: 40000000 cycles: 15802904 heartbeat IPC: 2.46627 cumulative IPC: 2.53118 (Simulation time: 8 hr 2 min 0 sec) 
 Total Blocks : 262144 Invalid Blocks : 17281
Heartbeat CPU 2 instructions: 50000002 cycles: 19854310 heartbeat IPC: 2.46773 cumulative IPC: 2.51834 (Simulation time: 9 hr 57 min 41 sec) 
 Total Blocks : 262144 Invalid Blocks : 10813
Heartbeat CPU 0 instructions: 50000002 cycles: 19854355 heartbeat IPC: 2.46773 cumulative IPC: 2.51834 (Simulation time: 9 hr 57 min 50 sec) 
 Total Blocks : 262144 Invalid Blocks : 10813
Heartbeat CPU 5 instructions: 50000002 cycles: 19854450 heartbeat IPC: 2.46774 cumulative IPC: 2.51833 (Simulation time: 9 hr 57 min 51 sec) 
 Total Blocks : 262144 Invalid Blocks : 10813
Heartbeat CPU 7 instructions: 50000002 cycles: 19854473 heartbeat IPC: 2.46769 cumulative IPC: 2.51832 (Simulation time: 9 hr 57 min 51 sec) 
 Total Blocks : 262144 Invalid Blocks : 10813
Heartbeat CPU 6 instructions: 50000002 cycles: 19854483 heartbeat IPC: 2.46771 cumulative IPC: 2.51832 (Simulation time: 9 hr 57 min 51 sec) 
 Total Blocks : 262144 Invalid Blocks : 10813
Heartbeat CPU 4 instructions: 50000002 cycles: 19854619 heartbeat IPC: 2.46769 cumulative IPC: 2.51831 (Simulation time: 9 hr 57 min 52 sec) 
 Total Blocks : 262144 Invalid Blocks : 10812
Heartbeat CPU 1 instructions: 50000002 cycles: 19854742 heartbeat IPC: 2.46771 cumulative IPC: 2.51829 (Simulation time: 9 hr 57 min 53 sec) 
 Total Blocks : 262144 Invalid Blocks : 10812
Heartbeat CPU 3 instructions: 50000002 cycles: 19855468 heartbeat IPC: 2.46757 cumulative IPC: 2.5182 (Simulation time: 9 hr 57 min 54 sec) 
 Total Blocks : 262144 Invalid Blocks : 10812
Heartbeat CPU 2 instructions: 60000003 cycles: 23909505 heartbeat IPC: 2.46597 cumulative IPC: 2.50946 (Simulation time: 11 hr 43 min 6 sec) 
 Total Blocks : 262144 Invalid Blocks : 6781
Heartbeat CPU 0 instructions: 60000003 cycles: 23909547 heartbeat IPC: 2.46597 cumulative IPC: 2.50946 (Simulation time: 11 hr 43 min 31 sec) 
 Total Blocks : 262144 Invalid Blocks : 6781
Heartbeat CPU 5 instructions: 60000003 cycles: 23909622 heartbeat IPC: 2.46599 cumulative IPC: 2.50945 (Simulation time: 11 hr 43 min 32 sec) 
 Total Blocks : 262144 Invalid Blocks : 6781
Heartbeat CPU 7 instructions: 60000003 cycles: 23909700 heartbeat IPC: 2.46595 cumulative IPC: 2.50944 (Simulation time: 11 hr 43 min 33 sec) 
 Total Blocks : 262144 Invalid Blocks : 6781
Heartbeat CPU 6 instructions: 60000003 cycles: 23909762 heartbeat IPC: 2.46592 cumulative IPC: 2.50944 (Simulation time: 11 hr 43 min 34 sec) 
 Total Blocks : 262144 Invalid Blocks : 6781
Heartbeat CPU 4 instructions: 60000003 cycles: 23909864 heartbeat IPC: 2.46594 cumulative IPC: 2.50942 (Simulation time: 11 hr 43 min 34 sec) 
 Total Blocks : 262144 Invalid Blocks : 6781
Heartbeat CPU 1 instructions: 60000003 cycles: 23910021 heartbeat IPC: 2.46592 cumulative IPC: 2.50941 (Simulation time: 11 hr 43 min 34 sec) 
 Total Blocks : 262144 Invalid Blocks : 6781
Heartbeat CPU 3 instructions: 60000003 cycles: 23910708 heartbeat IPC: 2.46595 cumulative IPC: 2.50934 (Simulation time: 11 hr 43 min 37 sec) 
 Total Blocks : 262144 Invalid Blocks : 6781
Heartbeat CPU 2 instructions: 70000002 cycles: 27966033 heartbeat IPC: 2.46516 cumulative IPC: 2.50304 (Simulation time: 13 hr 16 min 28 sec) 
 Total Blocks : 262144 Invalid Blocks : 4252
Heartbeat CPU 0 instructions: 70000002 cycles: 27966117 heartbeat IPC: 2.46514 cumulative IPC: 2.50303 (Simulation time: 13 hr 16 min 34 sec) 
 Total Blocks : 262144 Invalid Blocks : 4252
Heartbeat CPU 5 instructions: 70000002 cycles: 27966147 heartbeat IPC: 2.46516 cumulative IPC: 2.50303 (Simulation time: 13 hr 16 min 34 sec) 
 Total Blocks : 262144 Invalid Blocks : 4252
Heartbeat CPU 6 instructions: 70000002 cycles: 27966265 heartbeat IPC: 2.46518 cumulative IPC: 2.50302 (Simulation time: 13 hr 16 min 34 sec) 
 Total Blocks : 262144 Invalid Blocks : 4252
Heartbeat CPU 7 instructions: 70000002 cycles: 27966317 heartbeat IPC: 2.46511 cumulative IPC: 2.50301 (Simulation time: 13 hr 16 min 34 sec) 
 Total Blocks : 262144 Invalid Blocks : 4252
Heartbeat CPU 4 instructions: 70000002 cycles: 27966406 heartbeat IPC: 2.46515 cumulative IPC: 2.503 (Simulation time: 13 hr 16 min 35 sec) 
 Total Blocks : 262144 Invalid Blocks : 4252
Heartbeat CPU 1 instructions: 70000002 cycles: 27966655 heartbeat IPC: 2.4651 cumulative IPC: 2.50298 (Simulation time: 13 hr 16 min 35 sec) 
 Total Blocks : 262144 Invalid Blocks : 4252
Heartbeat CPU 3 instructions: 70000002 cycles: 27967375 heartbeat IPC: 2.46508 cumulative IPC: 2.50292 (Simulation time: 13 hr 16 min 36 sec) 
 Total Blocks : 262144 Invalid Blocks : 4252
Heartbeat CPU 2 instructions: 80000003 cycles: 32025357 heartbeat IPC: 2.46346 cumulative IPC: 2.49802 (Simulation time: 14 hr 41 min 7 sec) 
 Total Blocks : 262144 Invalid Blocks : 2634
Heartbeat CPU 5 instructions: 80000003 cycles: 32025499 heartbeat IPC: 2.46345 cumulative IPC: 2.49801 (Simulation time: 14 hr 41 min 12 sec) 
 Total Blocks : 262144 Invalid Blocks : 2634
Heartbeat CPU 0 instructions: 80000003 cycles: 32025517 heartbeat IPC: 2.46342 cumulative IPC: 2.49801 (Simulation time: 14 hr 41 min 12 sec) 
 Total Blocks : 262144 Invalid Blocks : 2634
Heartbeat CPU 6 instructions: 80000003 cycles: 32025607 heartbeat IPC: 2.46345 cumulative IPC: 2.498 (Simulation time: 14 hr 41 min 12 sec) 
 Total Blocks : 262144 Invalid Blocks : 2634
Heartbeat CPU 7 instructions: 80000003 cycles: 32025667 heartbeat IPC: 2.46345 cumulative IPC: 2.498 (Simulation time: 14 hr 41 min 13 sec) 
 Total Blocks : 262144 Invalid Blocks : 2633
Heartbeat CPU 4 instructions: 80000003 cycles: 32025798 heartbeat IPC: 2.46342 cumulative IPC: 2.49799 (Simulation time: 14 hr 41 min 13 sec) 
 Total Blocks : 262144 Invalid Blocks : 2633
Heartbeat CPU 1 instructions: 80000003 cycles: 32026065 heartbeat IPC: 2.46341 cumulative IPC: 2.49797 (Simulation time: 14 hr 41 min 14 sec) 
 Total Blocks : 262144 Invalid Blocks : 2633
Heartbeat CPU 3 instructions: 80000003 cycles: 32026716 heartbeat IPC: 2.46345 cumulative IPC: 2.49791 (Simulation time: 14 hr 41 min 14 sec) 
 Total Blocks : 262144 Invalid Blocks : 2630
Heartbeat CPU 2 instructions: 90000000 cycles: 36211183 heartbeat IPC: 2.38901 cumulative IPC: 2.48542 (Simulation time: 16 hr 31 min 59 sec) 
 Total Blocks : 262144 Invalid Blocks : 145
Heartbeat CPU 5 instructions: 90000000 cycles: 36211283 heartbeat IPC: 2.38904 cumulative IPC: 2.48541 (Simulation time: 16 hr 32 min 5 sec) 
 Total Blocks : 262144 Invalid Blocks : 145
Heartbeat CPU 0 instructions: 90000000 cycles: 36211394 heartbeat IPC: 2.38898 cumulative IPC: 2.48541 (Simulation time: 16 hr 32 min 6 sec) 
 Total Blocks : 262144 Invalid Blocks : 145
Heartbeat CPU 6 instructions: 90000000 cycles: 36211439 heartbeat IPC: 2.38901 cumulative IPC: 2.4854 (Simulation time: 16 hr 32 min 6 sec) 
 Total Blocks : 262144 Invalid Blocks : 145
Heartbeat CPU 7 instructions: 90000000 cycles: 36211493 heartbeat IPC: 2.38901 cumulative IPC: 2.4854 (Simulation time: 16 hr 32 min 6 sec) 
 Total Blocks : 262144 Invalid Blocks : 145
Heartbeat CPU 4 instructions: 90000000 cycles: 36211626 heartbeat IPC: 2.38901 cumulative IPC: 2.48539 (Simulation time: 16 hr 32 min 6 sec) 
 Total Blocks : 262144 Invalid Blocks : 145
Heartbeat CPU 1 instructions: 90000000 cycles: 36212002 heartbeat IPC: 2.38895 cumulative IPC: 2.48536 (Simulation time: 16 hr 32 min 7 sec) 
 Total Blocks : 262144 Invalid Blocks : 145
Heartbeat CPU 3 instructions: 90000000 cycles: 36212601 heartbeat IPC: 2.38898 cumulative IPC: 2.48532 (Simulation time: 16 hr 32 min 8 sec) 
 Total Blocks : 262144 Invalid Blocks : 145
Heartbeat CPU 2 instructions: 100000001 cycles: 40127402 heartbeat IPC: 2.55348 cumulative IPC: 2.49206 (Simulation time: 17 hr 55 min 31 sec) 
 Total Blocks : 262144 Invalid Blocks : 85
Heartbeat CPU 5 instructions: 100000001 cycles: 40127527 heartbeat IPC: 2.55347 cumulative IPC: 2.49205 (Simulation time: 17 hr 55 min 35 sec) 
 Total Blocks : 262144 Invalid Blocks : 85
Heartbeat CPU 0 instructions: 100000001 cycles: 40127626 heartbeat IPC: 2.55348 cumulative IPC: 2.49205 (Simulation time: 17 hr 55 min 36 sec) 
 Total Blocks : 262144 Invalid Blocks : 85
Heartbeat CPU 6 instructions: 100000001 cycles: 40127701 heartbeat IPC: 2.55346 cumulative IPC: 2.49204 (Simulation time: 17 hr 55 min 36 sec) 
 Total Blocks : 262144 Invalid Blocks : 85
Heartbeat CPU 7 instructions: 100000001 cycles: 40127702 heartbeat IPC: 2.55349 cumulative IPC: 2.49204 (Simulation time: 17 hr 55 min 36 sec) 
 Total Blocks : 262144 Invalid Blocks : 85
Heartbeat CPU 4 instructions: 100000001 cycles: 40127879 heartbeat IPC: 2.55346 cumulative IPC: 2.49203 (Simulation time: 17 hr 55 min 36 sec) 
 Total Blocks : 262144 Invalid Blocks : 85
Heartbeat CPU 1 instructions: 100000001 cycles: 40128247 heartbeat IPC: 2.55347 cumulative IPC: 2.49201 (Simulation time: 17 hr 55 min 36 sec) 
 Total Blocks : 262144 Invalid Blocks : 85
Heartbeat CPU 3 instructions: 100000001 cycles: 40128856 heartbeat IPC: 2.55346 cumulative IPC: 2.49197 (Simulation time: 17 hr 55 min 37 sec) 
 Total Blocks : 262144 Invalid Blocks : 85
Heartbeat CPU 2 instructions: 110000000 cycles: 43746074 heartbeat IPC: 2.76344 cumulative IPC: 2.51451 (Simulation time: 19 hr 5 min 38 sec) 
 Total Blocks : 262144 Invalid Blocks : 37
Heartbeat CPU 5 instructions: 110000000 cycles: 43746374 heartbeat IPC: 2.76331 cumulative IPC: 2.51449 (Simulation time: 19 hr 5 min 43 sec) 
 Total Blocks : 262144 Invalid Blocks : 37
Heartbeat CPU 0 instructions: 110000000 cycles: 43746473 heartbeat IPC: 2.76331 cumulative IPC: 2.51449 (Simulation time: 19 hr 5 min 43 sec) 
 Total Blocks : 262144 Invalid Blocks : 37
Heartbeat CPU 7 instructions: 110000000 cycles: 43746485 heartbeat IPC: 2.76336 cumulative IPC: 2.51449 (Simulation time: 19 hr 5 min 43 sec) 
 Total Blocks : 262144 Invalid Blocks : 37
Heartbeat CPU 6 instructions: 110000000 cycles: 43746494 heartbeat IPC: 2.76335 cumulative IPC: 2.51449 (Simulation time: 19 hr 5 min 43 sec) 
 Total Blocks : 262144 Invalid Blocks : 37
Heartbeat CPU 4 instructions: 110000000 cycles: 43746755 heartbeat IPC: 2.76329 cumulative IPC: 2.51447 (Simulation time: 19 hr 5 min 44 sec) 
 Total Blocks : 262144 Invalid Blocks : 37
Heartbeat CPU 1 instructions: 110000000 cycles: 43747163 heartbeat IPC: 2.76326 cumulative IPC: 2.51445 (Simulation time: 19 hr 5 min 44 sec) 
 Total Blocks : 262144 Invalid Blocks : 37
Heartbeat CPU 3 instructions: 110000000 cycles: 43747708 heartbeat IPC: 2.76331 cumulative IPC: 2.51442 (Simulation time: 19 hr 5 min 45 sec) 
 Total Blocks : 262144 Invalid Blocks : 37
Heartbeat CPU 2 instructions: 120000001 cycles: 47908441 heartbeat IPC: 2.40248 cumulative IPC: 2.50478 (Simulation time: 19 hr 49 min 3 sec) 
 Total Blocks : 262144 Invalid Blocks : 34
Heartbeat CPU 5 instructions: 120000001 cycles: 47908737 heartbeat IPC: 2.40248 cumulative IPC: 2.50476 (Simulation time: 19 hr 49 min 7 sec) 
 Total Blocks : 262144 Invalid Blocks : 34
Heartbeat CPU 0 instructions: 120000001 cycles: 47908839 heartbeat IPC: 2.40248 cumulative IPC: 2.50476 (Simulation time: 19 hr 49 min 7 sec) 
 Total Blocks : 262144 Invalid Blocks : 34
Heartbeat CPU 7 instructions: 120000001 cycles: 47908847 heartbeat IPC: 2.40248 cumulative IPC: 2.50476 (Simulation time: 19 hr 49 min 7 sec) 
 Total Blocks : 262144 Invalid Blocks : 34
Heartbeat CPU 6 instructions: 120000001 cycles: 47908856 heartbeat IPC: 2.40248 cumulative IPC: 2.50476 (Simulation time: 19 hr 49 min 7 sec) 
 Total Blocks : 262144 Invalid Blocks : 34
Heartbeat CPU 4 instructions: 120000001 cycles: 47909117 heartbeat IPC: 2.40248 cumulative IPC: 2.50474 (Simulation time: 19 hr 49 min 8 sec) 
 Total Blocks : 262144 Invalid Blocks : 34
Heartbeat CPU 1 instructions: 120000001 cycles: 47909530 heartbeat IPC: 2.40248 cumulative IPC: 2.50472 (Simulation time: 19 hr 49 min 8 sec) 
 Total Blocks : 262144 Invalid Blocks : 34
Heartbeat CPU 3 instructions: 120000001 cycles: 47910075 heartbeat IPC: 2.40248 cumulative IPC: 2.50469 (Simulation time: 19 hr 49 min 8 sec) 
 Total Blocks : 262144 Invalid Blocks : 34
Heartbeat CPU 2 instructions: 130000003 cycles: 52088171 heartbeat IPC: 2.3925 cumulative IPC: 2.49577 (Simulation time: 20 hr 32 min 51 sec) 
 Total Blocks : 262144 Invalid Blocks : 31
Heartbeat CPU 5 instructions: 130000003 cycles: 52088467 heartbeat IPC: 2.3925 cumulative IPC: 2.49575 (Simulation time: 20 hr 32 min 56 sec) 
 Total Blocks : 262144 Invalid Blocks : 31
Heartbeat CPU 0 instructions: 130000003 cycles: 52088569 heartbeat IPC: 2.3925 cumulative IPC: 2.49575 (Simulation time: 20 hr 32 min 56 sec) 
 Total Blocks : 262144 Invalid Blocks : 31
Heartbeat CPU 7 instructions: 130000003 cycles: 52088577 heartbeat IPC: 2.3925 cumulative IPC: 2.49575 (Simulation time: 20 hr 32 min 56 sec) 
 Total Blocks : 262144 Invalid Blocks : 31
Heartbeat CPU 6 instructions: 130000003 cycles: 52088586 heartbeat IPC: 2.3925 cumulative IPC: 2.49575 (Simulation time: 20 hr 32 min 56 sec) 
 Total Blocks : 262144 Invalid Blocks : 31
Heartbeat CPU 4 instructions: 130000003 cycles: 52088847 heartbeat IPC: 2.3925 cumulative IPC: 2.49574 (Simulation time: 20 hr 32 min 57 sec) 
 Total Blocks : 262144 Invalid Blocks : 31
Heartbeat CPU 1 instructions: 130000003 cycles: 52089260 heartbeat IPC: 2.3925 cumulative IPC: 2.49572 (Simulation time: 20 hr 32 min 57 sec) 
 Total Blocks : 262144 Invalid Blocks : 31
Heartbeat CPU 3 instructions: 130000003 cycles: 52089805 heartbeat IPC: 2.3925 cumulative IPC: 2.49569 (Simulation time: 20 hr 32 min 57 sec) 
 Total Blocks : 262144 Invalid Blocks : 31
Heartbeat CPU 2 instructions: 140000001 cycles: 56267935 heartbeat IPC: 2.39248 cumulative IPC: 2.4881 (Simulation time: 21 hr 15 min 18 sec) 
 Total Blocks : 262144 Invalid Blocks : 30
Heartbeat CPU 5 instructions: 140000001 cycles: 56268231 heartbeat IPC: 2.39248 cumulative IPC: 2.48808 (Simulation time: 21 hr 15 min 23 sec) 
 Total Blocks : 262144 Invalid Blocks : 30
Heartbeat CPU 0 instructions: 140000001 cycles: 56268333 heartbeat IPC: 2.39248 cumulative IPC: 2.48808 (Simulation time: 21 hr 15 min 23 sec) 
 Total Blocks : 262144 Invalid Blocks : 30
Heartbeat CPU 7 instructions: 140000001 cycles: 56268342 heartbeat IPC: 2.39248 cumulative IPC: 2.48808 (Simulation time: 21 hr 15 min 23 sec) 
 Total Blocks : 262144 Invalid Blocks : 30
Heartbeat CPU 6 instructions: 140000001 cycles: 56268350 heartbeat IPC: 2.39248 cumulative IPC: 2.48808 (Simulation time: 21 hr 15 min 23 sec) 
 Total Blocks : 262144 Invalid Blocks : 30
Heartbeat CPU 4 instructions: 140000001 cycles: 56268611 heartbeat IPC: 2.39248 cumulative IPC: 2.48807 (Simulation time: 21 hr 15 min 23 sec) 
 Total Blocks : 262144 Invalid Blocks : 30
Heartbeat CPU 1 instructions: 140000001 cycles: 56269024 heartbeat IPC: 2.39248 cumulative IPC: 2.48805 (Simulation time: 21 hr 15 min 24 sec) 
 Total Blocks : 262144 Invalid Blocks : 30
Heartbeat CPU 3 instructions: 140000001 cycles: 56269569 heartbeat IPC: 2.39248 cumulative IPC: 2.48802 (Simulation time: 21 hr 15 min 24 sec) 
 Total Blocks : 262144 Invalid Blocks : 30
Heartbeat CPU 2 instructions: 150000002 cycles: 60466216 heartbeat IPC: 2.38193 cumulative IPC: 2.48072 (Simulation time: 21 hr 56 min 3 sec) 
 Total Blocks : 262144 Invalid Blocks : 28
Heartbeat CPU 5 instructions: 150000002 cycles: 60466512 heartbeat IPC: 2.38193 cumulative IPC: 2.48071 (Simulation time: 21 hr 56 min 7 sec) 
 Total Blocks : 262144 Invalid Blocks : 28
Heartbeat CPU 0 instructions: 150000002 cycles: 60466614 heartbeat IPC: 2.38193 cumulative IPC: 2.48071 (Simulation time: 21 hr 56 min 7 sec) 
 Total Blocks : 262144 Invalid Blocks : 28
Heartbeat CPU 7 instructions: 150000002 cycles: 60466623 heartbeat IPC: 2.38193 cumulative IPC: 2.48071 (Simulation time: 21 hr 56 min 7 sec) 
 Total Blocks : 262144 Invalid Blocks : 28
Heartbeat CPU 6 instructions: 150000002 cycles: 60466632 heartbeat IPC: 2.38193 cumulative IPC: 2.48071 (Simulation time: 21 hr 56 min 7 sec) 
 Total Blocks : 262144 Invalid Blocks : 28
Heartbeat CPU 4 instructions: 150000002 cycles: 60466892 heartbeat IPC: 2.38193 cumulative IPC: 2.4807 (Simulation time: 21 hr 56 min 7 sec) 
 Total Blocks : 262144 Invalid Blocks : 28
Heartbeat CPU 1 instructions: 150000002 cycles: 60467305 heartbeat IPC: 2.38193 cumulative IPC: 2.48068 (Simulation time: 21 hr 56 min 7 sec) 
 Total Blocks : 262144 Invalid Blocks : 28
Heartbeat CPU 3 instructions: 150000002 cycles: 60467850 heartbeat IPC: 2.38193 cumulative IPC: 2.48066 (Simulation time: 21 hr 56 min 8 sec) 
 Total Blocks : 262144 Invalid Blocks : 28
Heartbeat CPU 2 instructions: 160000000 cycles: 64642702 heartbeat IPC: 2.39436 cumulative IPC: 2.47514 (Simulation time: 22 hr 33 min 53 sec) 
 Total Blocks : 262144 Invalid Blocks : 26
Heartbeat CPU 5 instructions: 160000000 cycles: 64642998 heartbeat IPC: 2.39436 cumulative IPC: 2.47513 (Simulation time: 22 hr 34 min 0 sec) 
 Total Blocks : 262144 Invalid Blocks : 26
Heartbeat CPU 0 instructions: 160000000 cycles: 64643100 heartbeat IPC: 2.39436 cumulative IPC: 2.47513 (Simulation time: 22 hr 34 min 0 sec) 
 Total Blocks : 262144 Invalid Blocks : 26
Heartbeat CPU 7 instructions: 160000000 cycles: 64643109 heartbeat IPC: 2.39436 cumulative IPC: 2.47513 (Simulation time: 22 hr 34 min 0 sec) 
 Total Blocks : 262144 Invalid Blocks : 26
Heartbeat CPU 6 instructions: 160000000 cycles: 64643118 heartbeat IPC: 2.39436 cumulative IPC: 2.47513 (Simulation time: 22 hr 34 min 0 sec) 
 Total Blocks : 262144 Invalid Blocks : 26
Heartbeat CPU 4 instructions: 160000000 cycles: 64643378 heartbeat IPC: 2.39436 cumulative IPC: 2.47512 (Simulation time: 22 hr 34 min 0 sec) 
 Total Blocks : 262144 Invalid Blocks : 26
Heartbeat CPU 1 instructions: 160000000 cycles: 64643791 heartbeat IPC: 2.39436 cumulative IPC: 2.4751 (Simulation time: 22 hr 34 min 1 sec) 
 Total Blocks : 262144 Invalid Blocks : 26
Heartbeat CPU 3 instructions: 160000000 cycles: 64644336 heartbeat IPC: 2.39436 cumulative IPC: 2.47508 (Simulation time: 22 hr 34 min 1 sec) 
 Total Blocks : 262144 Invalid Blocks : 26
Heartbeat CPU 2 instructions: 170000000 cycles: 68829767 heartbeat IPC: 2.38831 cumulative IPC: 2.46986 (Simulation time: 23 hr 10 min 54 sec) 
 Total Blocks : 262144 Invalid Blocks : 25
Heartbeat CPU 5 instructions: 170000000 cycles: 68830063 heartbeat IPC: 2.38831 cumulative IPC: 2.46985 (Simulation time: 23 hr 10 min 58 sec) 
 Total Blocks : 262144 Invalid Blocks : 25
Heartbeat CPU 0 instructions: 170000000 cycles: 68830165 heartbeat IPC: 2.38831 cumulative IPC: 2.46985 (Simulation time: 23 hr 10 min 58 sec) 
 Total Blocks : 262144 Invalid Blocks : 25
Heartbeat CPU 7 instructions: 170000000 cycles: 68830174 heartbeat IPC: 2.38831 cumulative IPC: 2.46985 (Simulation time: 23 hr 10 min 58 sec) 
 Total Blocks : 262144 Invalid Blocks : 25
Heartbeat CPU 6 instructions: 170000000 cycles: 68830183 heartbeat IPC: 2.38831 cumulative IPC: 2.46985 (Simulation time: 23 hr 10 min 58 sec) 
 Total Blocks : 262144 Invalid Blocks : 25
Heartbeat CPU 4 instructions: 170000000 cycles: 68830443 heartbeat IPC: 2.38831 cumulative IPC: 2.46984 (Simulation time: 23 hr 10 min 58 sec) 
 Total Blocks : 262144 Invalid Blocks : 25
Heartbeat CPU 1 instructions: 170000000 cycles: 68830856 heartbeat IPC: 2.38831 cumulative IPC: 2.46982 (Simulation time: 23 hr 10 min 58 sec) 
 Total Blocks : 262144 Invalid Blocks : 25
Heartbeat CPU 3 instructions: 170000000 cycles: 68831401 heartbeat IPC: 2.38831 cumulative IPC: 2.4698 (Simulation time: 23 hr 10 min 58 sec) 
 Total Blocks : 262144 Invalid Blocks : 25
Heartbeat CPU 2 instructions: 180000003 cycles: 72965007 heartbeat IPC: 2.41824 cumulative IPC: 2.46694 (Simulation time: 23 hr 47 min 52 sec) 
 Total Blocks : 262144 Invalid Blocks : 25
Heartbeat CPU 5 instructions: 180000003 cycles: 72965305 heartbeat IPC: 2.41824 cumulative IPC: 2.46693 (Simulation time: 23 hr 47 min 57 sec) 
 Total Blocks : 262144 Invalid Blocks : 25
Heartbeat CPU 0 instructions: 180000003 cycles: 72965405 heartbeat IPC: 2.41824 cumulative IPC: 2.46692 (Simulation time: 23 hr 47 min 57 sec) 
 Total Blocks : 262144 Invalid Blocks : 25
Heartbeat CPU 7 instructions: 180000003 cycles: 72965414 heartbeat IPC: 2.41824 cumulative IPC: 2.46692 (Simulation time: 23 hr 47 min 57 sec) 
 Total Blocks : 262144 Invalid Blocks : 25
Heartbeat CPU 6 instructions: 180000003 cycles: 72965423 heartbeat IPC: 2.41824 cumulative IPC: 2.46692 (Simulation time: 23 hr 47 min 57 sec) 
 Total Blocks : 262144 Invalid Blocks : 25
Heartbeat CPU 4 instructions: 180000003 cycles: 72965683 heartbeat IPC: 2.41824 cumulative IPC: 2.46691 (Simulation time: 23 hr 47 min 57 sec) 
 Total Blocks : 262144 Invalid Blocks : 25
Heartbeat CPU 1 instructions: 180000003 cycles: 72966098 heartbeat IPC: 2.41824 cumulative IPC: 2.4669 (Simulation time: 23 hr 47 min 58 sec) 
 Total Blocks : 262144 Invalid Blocks : 25
Heartbeat CPU 3 instructions: 180000003 cycles: 72966643 heartbeat IPC: 2.41824 cumulative IPC: 2.46688 (Simulation time: 23 hr 47 min 58 sec) 
 Total Blocks : 262144 Invalid Blocks : 25
Heartbeat CPU 2 instructions: 190000003 cycles: 77088241 heartbeat IPC: 2.42528 cumulative IPC: 2.46471 (Simulation time: 24 hr 22 min 42 sec) 
 Total Blocks : 262144 Invalid Blocks : 24
Heartbeat CPU 5 instructions: 190000003 cycles: 77088539 heartbeat IPC: 2.42528 cumulative IPC: 2.4647 (Simulation time: 24 hr 22 min 46 sec) 
 Total Blocks : 262144 Invalid Blocks : 24
Heartbeat CPU 0 instructions: 190000003 cycles: 77088639 heartbeat IPC: 2.42528 cumulative IPC: 2.4647 (Simulation time: 24 hr 22 min 46 sec) 
 Total Blocks : 262144 Invalid Blocks : 24
Heartbeat CPU 7 instructions: 190000003 cycles: 77088648 heartbeat IPC: 2.42528 cumulative IPC: 2.46469 (Simulation time: 24 hr 22 min 46 sec) 
 Total Blocks : 262144 Invalid Blocks : 24
Heartbeat CPU 6 instructions: 190000003 cycles: 77088657 heartbeat IPC: 2.42528 cumulative IPC: 2.46469 (Simulation time: 24 hr 22 min 46 sec) 
 Total Blocks : 262144 Invalid Blocks : 24
Heartbeat CPU 4 instructions: 190000003 cycles: 77088917 heartbeat IPC: 2.42528 cumulative IPC: 2.46469 (Simulation time: 24 hr 22 min 46 sec) 
 Total Blocks : 262144 Invalid Blocks : 24
Heartbeat CPU 1 instructions: 190000003 cycles: 77089332 heartbeat IPC: 2.42528 cumulative IPC: 2.46467 (Simulation time: 24 hr 22 min 47 sec) 
 Total Blocks : 262144 Invalid Blocks : 24
Heartbeat CPU 3 instructions: 190000003 cycles: 77089877 heartbeat IPC: 2.42528 cumulative IPC: 2.46466 (Simulation time: 24 hr 22 min 47 sec) 
 Total Blocks : 262144 Invalid Blocks : 24
Heartbeat CPU 2 instructions: 200000001 cycles: 81232114 heartbeat IPC: 2.4132 cumulative IPC: 2.46208 (Simulation time: 24 hr 56 min 48 sec) 
 Total Blocks : 262144 Invalid Blocks : 23
Heartbeat CPU 5 instructions: 200000001 cycles: 81232412 heartbeat IPC: 2.4132 cumulative IPC: 2.46207 (Simulation time: 24 hr 56 min 50 sec) 
 Total Blocks : 262144 Invalid Blocks : 23
Heartbeat CPU 0 instructions: 200000001 cycles: 81232509 heartbeat IPC: 2.4132 cumulative IPC: 2.46207 (Simulation time: 24 hr 56 min 50 sec) 
 Total Blocks : 262144 Invalid Blocks : 23
Heartbeat CPU 7 instructions: 200000001 cycles: 81232512 heartbeat IPC: 2.41321 cumulative IPC: 2.46207 (Simulation time: 24 hr 56 min 50 sec) 
 Total Blocks : 262144 Invalid Blocks : 23
Heartbeat CPU 6 instructions: 200000001 cycles: 81232530 heartbeat IPC: 2.4132 cumulative IPC: 2.46207 (Simulation time: 24 hr 56 min 51 sec) 
 Total Blocks : 262144 Invalid Blocks : 23
Heartbeat CPU 4 instructions: 200000001 cycles: 81232794 heartbeat IPC: 2.4132 cumulative IPC: 2.46206 (Simulation time: 24 hr 56 min 51 sec) 
 Total Blocks : 262144 Invalid Blocks : 23
Heartbeat CPU 1 instructions: 200000001 cycles: 81233208 heartbeat IPC: 2.4132 cumulative IPC: 2.46205 (Simulation time: 24 hr 56 min 51 sec) 
 Total Blocks : 262144 Invalid Blocks : 23
Heartbeat CPU 3 instructions: 200000001 cycles: 81233753 heartbeat IPC: 2.4132 cumulative IPC: 2.46203 (Simulation time: 24 hr 56 min 51 sec) 
 Total Blocks : 262144 Invalid Blocks : 23

Warmup complete CPU 0 instructions: 200002739 cycles: 81233753 (Simulation time: 24 hr 56 min 51 sec) 
Warmup complete CPU 1 instructions: 200000882 cycles: 81233753 (Simulation time: 24 hr 56 min 51 sec) 
Warmup complete CPU 2 instructions: 200003684 cycles: 81233753 (Simulation time: 24 hr 56 min 51 sec) 
Warmup complete CPU 3 instructions: 200000001 cycles: 81233753 (Simulation time: 24 hr 56 min 51 sec) 
Warmup complete CPU 4 instructions: 200001918 cycles: 81233752 (Simulation time: 24 hr 56 min 51 sec) 
Warmup complete CPU 5 instructions: 200002908 cycles: 81233752 (Simulation time: 24 hr 56 min 51 sec) 
Warmup complete CPU 6 instructions: 200002721 cycles: 81233752 (Simulation time: 24 hr 56 min 51 sec) 
Warmup complete CPU 7 instructions: 200002739 cycles: 81233752 (Simulation time: 24 hr 56 min 51 sec) 

Heartbeat CPU 6 instructions: 210000003 cycles: 89272908 heartbeat IPC: 1.24372 cumulative IPC: 1.24357 (Simulation time: 25 hr 38 min 2 sec) 
 Total Blocks : 262144 Invalid Blocks : 22
Heartbeat CPU 4 instructions: 210000003 cycles: 89273352 heartbeat IPC: 1.2437 cumulative IPC: 1.2436 (Simulation time: 25 hr 38 min 5 sec) 
 Total Blocks : 262144 Invalid Blocks : 22
Heartbeat CPU 7 instructions: 210000003 cycles: 89273739 heartbeat IPC: 1.24359 cumulative IPC: 1.24344 (Simulation time: 25 hr 38 min 5 sec) 
 Total Blocks : 262144 Invalid Blocks : 22
Heartbeat CPU 0 instructions: 210000003 cycles: 89274419 heartbeat IPC: 1.24349 cumulative IPC: 1.24334 (Simulation time: 25 hr 38 min 5 sec) 
 Total Blocks : 262144 Invalid Blocks : 22
Heartbeat CPU 1 instructions: 210000003 cycles: 89274584 heartbeat IPC: 1.24357 cumulative IPC: 1.24354 (Simulation time: 25 hr 38 min 5 sec) 
 Total Blocks : 262144 Invalid Blocks : 22
Heartbeat CPU 5 instructions: 210000003 cycles: 89275307 heartbeat IPC: 1.24333 cumulative IPC: 1.24318 (Simulation time: 25 hr 38 min 5 sec) 
 Total Blocks : 262144 Invalid Blocks : 22
Heartbeat CPU 2 instructions: 210000003 cycles: 89275332 heartbeat IPC: 1.24328 cumulative IPC: 1.24308 (Simulation time: 25 hr 38 min 5 sec) 
 Total Blocks : 262144 Invalid Blocks : 22
Heartbeat CPU 3 instructions: 210000003 cycles: 89275631 heartbeat IPC: 1.24349 cumulative IPC: 1.24349 (Simulation time: 25 hr 38 min 5 sec) 
 Total Blocks : 262144 Invalid Blocks : 22
Heartbeat CPU 6 instructions: 220000000 cycles: 97342332 heartbeat IPC: 1.23925 cumulative IPC: 1.24141 (Simulation time: 26 hr 19 min 14 sec) 
 Total Blocks : 262144 Invalid Blocks : 22
Heartbeat CPU 3 instructions: 220000000 cycles: 97342483 heartbeat IPC: 1.23964 cumulative IPC: 1.24156 (Simulation time: 26 hr 19 min 16 sec) 
 Total Blocks : 262144 Invalid Blocks : 22
Heartbeat CPU 4 instructions: 220000000 cycles: 97342578 heartbeat IPC: 1.23928 cumulative IPC: 1.24144 (Simulation time: 26 hr 19 min 16 sec) 
 Total Blocks : 262144 Invalid Blocks : 22
Heartbeat CPU 5 instructions: 220000000 cycles: 97342839 heartbeat IPC: 1.23954 cumulative IPC: 1.24135 (Simulation time: 26 hr 19 min 16 sec) 
 Total Blocks : 262144 Invalid Blocks : 22
Heartbeat CPU 0 instructions: 220000000 cycles: 97342990 heartbeat IPC: 1.23938 cumulative IPC: 1.24135 (Simulation time: 26 hr 19 min 16 sec) 
 Total Blocks : 262144 Invalid Blocks : 22
Heartbeat CPU 7 instructions: 220000000 cycles: 97343041 heartbeat IPC: 1.23926 cumulative IPC: 1.24135 (Simulation time: 26 hr 19 min 16 sec) 
 Total Blocks : 262144 Invalid Blocks : 22
Heartbeat CPU 1 instructions: 220000000 cycles: 97344034 heartbeat IPC: 1.23924 cumulative IPC: 1.24139 (Simulation time: 26 hr 19 min 17 sec) 
 Total Blocks : 262144 Invalid Blocks : 22
Heartbeat CPU 2 instructions: 220000000 cycles: 97344085 heartbeat IPC: 1.23935 cumulative IPC: 1.24121 (Simulation time: 26 hr 19 min 17 sec) 
 Total Blocks : 262144 Invalid Blocks : 22
Heartbeat CPU 7 instructions: 230000000 cycles: 105405453 heartbeat IPC: 1.24032 cumulative IPC: 1.24101 (Simulation time: 27 hr 1 min 23 sec) 
 Total Blocks : 262144 Invalid Blocks : 22
Heartbeat CPU 3 instructions: 230000000 cycles: 105405476 heartbeat IPC: 1.24023 cumulative IPC: 1.24112 (Simulation time: 27 hr 1 min 25 sec) 
 Total Blocks : 262144 Invalid Blocks : 22
Heartbeat CPU 5 instructions: 230000000 cycles: 105405700 heartbeat IPC: 1.24025 cumulative IPC: 1.24099 (Simulation time: 27 hr 1 min 26 sec) 
 Total Blocks : 262144 Invalid Blocks : 22
Heartbeat CPU 4 instructions: 230000000 cycles: 105405832 heartbeat IPC: 1.24019 cumulative IPC: 1.24102 (Simulation time: 27 hr 1 min 26 sec) 
 Total Blocks : 262144 Invalid Blocks : 22
Heartbeat CPU 1 instructions: 230000000 cycles: 105405980 heartbeat IPC: 1.2404 cumulative IPC: 1.24106 (Simulation time: 27 hr 1 min 26 sec) 
 Total Blocks : 262144 Invalid Blocks : 22
Heartbeat CPU 6 instructions: 230000000 cycles: 105406055 heartbeat IPC: 1.24012 cumulative IPC: 1.24098 (Simulation time: 27 hr 1 min 26 sec) 
 Total Blocks : 262144 Invalid Blocks : 22
Heartbeat CPU 0 instructions: 230000000 cycles: 105406241 heartbeat IPC: 1.24019 cumulative IPC: 1.24097 (Simulation time: 27 hr 1 min 26 sec) 
 Total Blocks : 262144 Invalid Blocks : 22
Heartbeat CPU 2 instructions: 230000000 cycles: 105406462 heartbeat IPC: 1.24033 cumulative IPC: 1.24092 (Simulation time: 27 hr 1 min 26 sec) 
 Total Blocks : 262144 Invalid Blocks : 22
Heartbeat CPU 4 instructions: 240000000 cycles: 113449962 heartbeat IPC: 1.24314 cumulative IPC: 1.24155 (Simulation time: 27 hr 41 min 42 sec) 
 Total Blocks : 262144 Invalid Blocks : 22
Heartbeat CPU 5 instructions: 240000000 cycles: 113450727 heartbeat IPC: 1.243 cumulative IPC: 1.24149 (Simulation time: 27 hr 41 min 45 sec) 
 Total Blocks : 262144 Invalid Blocks : 22
Heartbeat CPU 6 instructions: 240000000 cycles: 113450778 heartbeat IPC: 1.24305 cumulative IPC: 1.2415 (Simulation time: 27 hr 41 min 45 sec) 
 Total Blocks : 262144 Invalid Blocks : 22
Heartbeat CPU 1 instructions: 240000000 cycles: 113450829 heartbeat IPC: 1.24303 cumulative IPC: 1.24155 (Simulation time: 27 hr 41 min 45 sec) 
 Total Blocks : 262144 Invalid Blocks : 22
Heartbeat CPU 3 instructions: 240000000 cycles: 113450880 heartbeat IPC: 1.24295 cumulative IPC: 1.24158 (Simulation time: 27 hr 41 min 45 sec) 
 Total Blocks : 262144 Invalid Blocks : 22
Heartbeat CPU 7 instructions: 240000000 cycles: 113451198 heartbeat IPC: 1.24289 cumulative IPC: 1.24148 (Simulation time: 27 hr 41 min 46 sec) 
 Total Blocks : 262144 Invalid Blocks : 22
Heartbeat CPU 0 instructions: 240000000 cycles: 113451429 heartbeat IPC: 1.24298 cumulative IPC: 1.24147 (Simulation time: 27 hr 41 min 46 sec) 
 Total Blocks : 262144 Invalid Blocks : 22
Heartbeat CPU 2 instructions: 240000000 cycles: 113453380 heartbeat IPC: 1.24271 cumulative IPC: 1.24136 (Simulation time: 27 hr 41 min 46 sec) 
 Total Blocks : 262144 Invalid Blocks : 22
Heartbeat CPU 7 instructions: 250000003 cycles: 121507136 heartbeat IPC: 1.24132 cumulative IPC: 1.24145 (Simulation time: 28 hr 20 min 36 sec) 
 Total Blocks : 262144 Invalid Blocks : 21
Heartbeat CPU 0 instructions: 250000003 cycles: 121507187 heartbeat IPC: 1.24135 cumulative IPC: 1.24145 (Simulation time: 28 hr 20 min 38 sec) 
 Total Blocks : 262144 Invalid Blocks : 21
Heartbeat CPU 4 instructions: 250000003 cycles: 121507238 heartbeat IPC: 1.24111 cumulative IPC: 1.24146 (Simulation time: 28 hr 20 min 38 sec) 
 Total Blocks : 262144 Invalid Blocks : 21
Heartbeat CPU 1 instructions: 250000003 cycles: 121507438 heartbeat IPC: 1.24122 cumulative IPC: 1.24148 (Simulation time: 28 hr 20 min 39 sec) 
 Total Blocks : 262144 Invalid Blocks : 21
Heartbeat CPU 6 instructions: 250000003 cycles: 121507510 heartbeat IPC: 1.2412 cumulative IPC: 1.24144 (Simulation time: 28 hr 20 min 39 sec) 
 Total Blocks : 262144 Invalid Blocks : 21
Heartbeat CPU 3 instructions: 250000003 cycles: 121507561 heartbeat IPC: 1.24121 cumulative IPC: 1.2415 (Simulation time: 28 hr 20 min 39 sec) 
 Total Blocks : 262144 Invalid Blocks : 21
Heartbeat CPU 5 instructions: 250000003 cycles: 121507612 heartbeat IPC: 1.24117 cumulative IPC: 1.24143 (Simulation time: 28 hr 20 min 39 sec) 
 Total Blocks : 262144 Invalid Blocks : 21
Heartbeat CPU 2 instructions: 250000003 cycles: 121508517 heartbeat IPC: 1.24144 cumulative IPC: 1.24138 (Simulation time: 28 hr 20 min 39 sec) 
 Total Blocks : 262144 Invalid Blocks : 21
Heartbeat CPU 0 instructions: 260000000 cycles: 129579568 heartbeat IPC: 1.23879 cumulative IPC: 1.241 (Simulation time: 28 hr 59 min 53 sec) 
 Total Blocks : 262144 Invalid Blocks : 20
Heartbeat CPU 6 instructions: 260000000 cycles: 129579871 heartbeat IPC: 1.23879 cumulative IPC: 1.24099 (Simulation time: 28 hr 59 min 56 sec) 
 Total Blocks : 262144 Invalid Blocks : 20
Heartbeat CPU 7 instructions: 260000000 cycles: 129579922 heartbeat IPC: 1.23873 cumulative IPC: 1.24099 (Simulation time: 28 hr 59 min 56 sec) 
 Total Blocks : 262144 Invalid Blocks : 20
Heartbeat CPU 4 instructions: 260000000 cycles: 129579973 heartbeat IPC: 1.23874 cumulative IPC: 1.24101 (Simulation time: 28 hr 59 min 56 sec) 
 Total Blocks : 262144 Invalid Blocks : 20
Heartbeat CPU 2 instructions: 260000000 cycles: 129580623 heartbeat IPC: 1.23883 cumulative IPC: 1.24096 (Simulation time: 28 hr 59 min 56 sec) 
 Total Blocks : 262144 Invalid Blocks : 20
Heartbeat CPU 1 instructions: 260000000 cycles: 129580693 heartbeat IPC: 1.23866 cumulative IPC: 1.24101 (Simulation time: 28 hr 59 min 56 sec) 
 Total Blocks : 262144 Invalid Blocks : 20
Heartbeat CPU 5 instructions: 260000000 cycles: 129580722 heartbeat IPC: 1.23868 cumulative IPC: 1.24097 (Simulation time: 28 hr 59 min 56 sec) 
 Total Blocks : 262144 Invalid Blocks : 20
Heartbeat CPU 3 instructions: 260000000 cycles: 129581617 heartbeat IPC: 1.23853 cumulative IPC: 1.24101 (Simulation time: 28 hr 59 min 57 sec) 
 Total Blocks : 262144 Invalid Blocks : 20
Heartbeat CPU 2 instructions: 270000002 cycles: 137651014 heartbeat IPC: 1.2391 cumulative IPC: 1.24069 (Simulation time: 29 hr 40 min 44 sec) 
 Total Blocks : 262144 Invalid Blocks : 19
Heartbeat CPU 3 instructions: 270000002 cycles: 137651065 heartbeat IPC: 1.23924 cumulative IPC: 1.24075 (Simulation time: 29 hr 40 min 46 sec) 
 Total Blocks : 262144 Invalid Blocks : 19
Heartbeat CPU 1 instructions: 270000002 cycles: 137651290 heartbeat IPC: 1.23907 cumulative IPC: 1.24073 (Simulation time: 29 hr 40 min 46 sec) 
 Total Blocks : 262144 Invalid Blocks : 19
Heartbeat CPU 4 instructions: 270000002 cycles: 137651341 heartbeat IPC: 1.23895 cumulative IPC: 1.24071 (Simulation time: 29 hr 40 min 46 sec) 
 Total Blocks : 262144 Invalid Blocks : 19
Heartbeat CPU 5 instructions: 270000002 cycles: 137651392 heartbeat IPC: 1.23905 cumulative IPC: 1.2407 (Simulation time: 29 hr 40 min 46 sec) 
 Total Blocks : 262144 Invalid Blocks : 19
Heartbeat CPU 7 instructions: 270000002 cycles: 137651549 heartbeat IPC: 1.23891 cumulative IPC: 1.24069 (Simulation time: 29 hr 40 min 46 sec) 
 Total Blocks : 262144 Invalid Blocks : 19
Heartbeat CPU 6 instructions: 270000002 cycles: 137651723 heartbeat IPC: 1.23887 cumulative IPC: 1.24069 (Simulation time: 29 hr 40 min 46 sec) 
 Total Blocks : 262144 Invalid Blocks : 19
Heartbeat CPU 0 instructions: 270000002 cycles: 137651774 heartbeat IPC: 1.23882 cumulative IPC: 1.24069 (Simulation time: 29 hr 40 min 46 sec) 
 Total Blocks : 262144 Invalid Blocks : 19
Heartbeat CPU 0 instructions: 280000003 cycles: 145723919 heartbeat IPC: 1.23883 cumulative IPC: 1.24046 (Simulation time: 30 hr 20 min 20 sec) 
 Total Blocks : 262144 Invalid Blocks : 17
Heartbeat CPU 1 instructions: 280000003 cycles: 145723968 heartbeat IPC: 1.23875 cumulative IPC: 1.24048 (Simulation time: 30 hr 20 min 22 sec) 
 Total Blocks : 262144 Invalid Blocks : 17
Heartbeat CPU 6 instructions: 280000003 cycles: 145724019 heartbeat IPC: 1.23881 cumulative IPC: 1.24046 (Simulation time: 30 hr 20 min 22 sec) 
 Total Blocks : 262144 Invalid Blocks : 17
Heartbeat CPU 5 instructions: 280000003 cycles: 145724159 heartbeat IPC: 1.23873 cumulative IPC: 1.24045 (Simulation time: 30 hr 20 min 22 sec) 
 Total Blocks : 262144 Invalid Blocks : 17
Heartbeat CPU 2 instructions: 280000003 cycles: 145724187 heartbeat IPC: 1.23867 cumulative IPC: 1.24044 (Simulation time: 30 hr 20 min 23 sec) 
 Total Blocks : 262144 Invalid Blocks : 17
Heartbeat CPU 4 instructions: 280000003 cycles: 145724371 heartbeat IPC: 1.23869 cumulative IPC: 1.24046 (Simulation time: 30 hr 20 min 23 sec) 
 Total Blocks : 262144 Invalid Blocks : 17
Heartbeat CPU 3 instructions: 280000003 cycles: 145724422 heartbeat IPC: 1.23864 cumulative IPC: 1.24049 (Simulation time: 30 hr 20 min 23 sec) 
 Total Blocks : 262144 Invalid Blocks : 17
Heartbeat CPU 7 instructions: 280000003 cycles: 145726123 heartbeat IPC: 1.23846 cumulative IPC: 1.24041 (Simulation time: 30 hr 20 min 23 sec) 
 Total Blocks : 262144 Invalid Blocks : 17
Heartbeat CPU 0 instructions: 290000000 cycles: 153784707 heartbeat IPC: 1.24057 cumulative IPC: 1.24047 (Simulation time: 30 hr 59 min 40 sec) 
 Total Blocks : 262144 Invalid Blocks : 17
Heartbeat CPU 5 instructions: 290000000 cycles: 153784837 heartbeat IPC: 1.24059 cumulative IPC: 1.24047 (Simulation time: 30 hr 59 min 42 sec) 
 Total Blocks : 262144 Invalid Blocks : 17
Heartbeat CPU 7 instructions: 290000000 cycles: 153785029 heartbeat IPC: 1.24086 cumulative IPC: 1.24046 (Simulation time: 30 hr 59 min 43 sec) 
 Total Blocks : 262144 Invalid Blocks : 17
Heartbeat CPU 1 instructions: 290000000 cycles: 153785162 heartbeat IPC: 1.24051 cumulative IPC: 1.24049 (Simulation time: 30 hr 59 min 43 sec) 
 Total Blocks : 262144 Invalid Blocks : 17
Heartbeat CPU 4 instructions: 290000000 cycles: 153785213 heartbeat IPC: 1.24056 cumulative IPC: 1.24047 (Simulation time: 30 hr 59 min 43 sec) 
 Total Blocks : 262144 Invalid Blocks : 17
Heartbeat CPU 6 instructions: 290000000 cycles: 153785914 heartbeat IPC: 1.2404 cumulative IPC: 1.24045 (Simulation time: 30 hr 59 min 43 sec) 
 Total Blocks : 262144 Invalid Blocks : 17
Heartbeat CPU 2 instructions: 290000000 cycles: 153786004 heartbeat IPC: 1.24041 cumulative IPC: 1.24043 (Simulation time: 30 hr 59 min 43 sec) 
 Total Blocks : 262144 Invalid Blocks : 17
Heartbeat CPU 3 instructions: 290000000 cycles: 153786281 heartbeat IPC: 1.24041 cumulative IPC: 1.24048 (Simulation time: 30 hr 59 min 43 sec) 
 Total Blocks : 262144 Invalid Blocks : 17
Heartbeat CPU 7 instructions: 300000003 cycles: 161841143 heartbeat IPC: 1.24129 cumulative IPC: 1.24055 (Simulation time: 31 hr 38 min 54 sec) 
 Total Blocks : 262144 Invalid Blocks : 16
Heartbeat CPU 4 instructions: 300000003 cycles: 161841217 heartbeat IPC: 1.24131 cumulative IPC: 1.24056 (Simulation time: 31 hr 39 min 3 sec) 
 Total Blocks : 262144 Invalid Blocks : 16
Heartbeat CPU 1 instructions: 300000003 cycles: 161841480 heartbeat IPC: 1.24126 cumulative IPC: 1.24056 (Simulation time: 31 hr 39 min 4 sec) 
 Total Blocks : 262144 Invalid Blocks : 16
Heartbeat CPU 0 instructions: 300000003 cycles: 161842167 heartbeat IPC: 1.24109 cumulative IPC: 1.24053 (Simulation time: 31 hr 39 min 4 sec) 
 Total Blocks : 262144 Invalid Blocks : 16
Heartbeat CPU 5 instructions: 300000003 cycles: 161842397 heartbeat IPC: 1.24107 cumulative IPC: 1.24053 (Simulation time: 31 hr 39 min 4 sec) 
 Total Blocks : 262144 Invalid Blocks : 16
Heartbeat CPU 6 instructions: 300000003 cycles: 161842561 heartbeat IPC: 1.24121 cumulative IPC: 1.24053 (Simulation time: 31 hr 39 min 4 sec) 
 Total Blocks : 262144 Invalid Blocks : 16
Heartbeat CPU 3 instructions: 300000003 cycles: 161842629 heartbeat IPC: 1.24126 cumulative IPC: 1.24056 (Simulation time: 31 hr 39 min 4 sec) 
 Total Blocks : 262144 Invalid Blocks : 16
Heartbeat CPU 2 instructions: 300000003 cycles: 161842754 heartbeat IPC: 1.2412 cumulative IPC: 1.24051 (Simulation time: 31 hr 39 min 4 sec) 
 Total Blocks : 262144 Invalid Blocks : 16
Heartbeat CPU 4 instructions: 310000002 cycles: 169864546 heartbeat IPC: 1.24637 cumulative IPC: 1.24108 (Simulation time: 32 hr 17 min 22 sec) 
 Total Blocks : 262144 Invalid Blocks : 16
Heartbeat CPU 6 instructions: 310000002 cycles: 169864647 heartbeat IPC: 1.24656 cumulative IPC: 1.24107 (Simulation time: 32 hr 17 min 24 sec) 
 Total Blocks : 262144 Invalid Blocks : 16
Heartbeat CPU 0 instructions: 310000002 cycles: 169864754 heartbeat IPC: 1.24648 cumulative IPC: 1.24107 (Simulation time: 32 hr 17 min 24 sec) 
 Total Blocks : 262144 Invalid Blocks : 16
Heartbeat CPU 7 instructions: 310000002 cycles: 169864768 heartbeat IPC: 1.24632 cumulative IPC: 1.24107 (Simulation time: 32 hr 17 min 24 sec) 
 Total Blocks : 262144 Invalid Blocks : 16
Heartbeat CPU 5 instructions: 310000002 cycles: 169864804 heartbeat IPC: 1.24651 cumulative IPC: 1.24107 (Simulation time: 32 hr 17 min 24 sec) 
 Total Blocks : 262144 Invalid Blocks : 16
Heartbeat CPU 3 instructions: 310000002 cycles: 169864982 heartbeat IPC: 1.24652 cumulative IPC: 1.2411 (Simulation time: 32 hr 17 min 24 sec) 
 Total Blocks : 262144 Invalid Blocks : 16
Heartbeat CPU 1 instructions: 310000002 cycles: 169865735 heartbeat IPC: 1.24622 cumulative IPC: 1.24108 (Simulation time: 32 hr 17 min 25 sec) 
 Total Blocks : 262144 Invalid Blocks : 16
Heartbeat CPU 2 instructions: 310000002 cycles: 169865880 heartbeat IPC: 1.2464 cumulative IPC: 1.24104 (Simulation time: 32 hr 17 min 25 sec) 
 Total Blocks : 262144 Invalid Blocks : 16
Heartbeat CPU 6 instructions: 320000000 cycles: 177883368 heartbeat IPC: 1.24708 cumulative IPC: 1.24157 (Simulation time: 32 hr 54 min 9 sec) 
 Total Blocks : 262144 Invalid Blocks : 14
Heartbeat CPU 5 instructions: 320000000 cycles: 177883470 heartbeat IPC: 1.24709 cumulative IPC: 1.24157 (Simulation time: 32 hr 54 min 11 sec) 
 Total Blocks : 262144 Invalid Blocks : 14
Heartbeat CPU 0 instructions: 320000000 cycles: 177883610 heartbeat IPC: 1.24706 cumulative IPC: 1.24157 (Simulation time: 32 hr 54 min 11 sec) 
 Total Blocks : 262144 Invalid Blocks : 14
Heartbeat CPU 1 instructions: 320000000 cycles: 177883820 heartbeat IPC: 1.24718 cumulative IPC: 1.24158 (Simulation time: 32 hr 54 min 11 sec) 
 Total Blocks : 262144 Invalid Blocks : 14
Heartbeat CPU 2 instructions: 320000000 cycles: 177884338 heartbeat IPC: 1.24712 cumulative IPC: 1.24155 (Simulation time: 32 hr 54 min 11 sec) 
 Total Blocks : 262144 Invalid Blocks : 14
Heartbeat CPU 4 instructions: 320000000 cycles: 177884588 heartbeat IPC: 1.24688 cumulative IPC: 1.24156 (Simulation time: 32 hr 54 min 11 sec) 
 Total Blocks : 262144 Invalid Blocks : 14
Heartbeat CPU 3 instructions: 320000000 cycles: 177884677 heartbeat IPC: 1.24693 cumulative IPC: 1.24158 (Simulation time: 32 hr 54 min 12 sec) 
 Total Blocks : 262144 Invalid Blocks : 14
Heartbeat CPU 7 instructions: 320000000 cycles: 177884790 heartbeat IPC: 1.24688 cumulative IPC: 1.24155 (Simulation time: 32 hr 54 min 12 sec) 
 Total Blocks : 262144 Invalid Blocks : 14
Heartbeat CPU 6 instructions: 330000000 cycles: 185901309 heartbeat IPC: 1.2472 cumulative IPC: 1.242 (Simulation time: 33 hr 31 min 22 sec) 
 Total Blocks : 262144 Invalid Blocks : 14
Heartbeat CPU 7 instructions: 330000000 cycles: 185901360 heartbeat IPC: 1.24742 cumulative IPC: 1.242 (Simulation time: 33 hr 31 min 24 sec) 
 Total Blocks : 262144 Invalid Blocks : 14
Heartbeat CPU 5 instructions: 330000000 cycles: 185901411 heartbeat IPC: 1.2472 cumulative IPC: 1.242 (Simulation time: 33 hr 31 min 24 sec) 
 Total Blocks : 262144 Invalid Blocks : 14
Heartbeat CPU 0 instructions: 330000000 cycles: 185901648 heartbeat IPC: 1.24719 cumulative IPC: 1.242 (Simulation time: 33 hr 31 min 24 sec) 
 Total Blocks : 262144 Invalid Blocks : 14
Heartbeat CPU 3 instructions: 330000000 cycles: 185901776 heartbeat IPC: 1.24733 cumulative IPC: 1.24202 (Simulation time: 33 hr 31 min 24 sec) 
 Total Blocks : 262144 Invalid Blocks : 14
Heartbeat CPU 2 instructions: 330000000 cycles: 185902016 heartbeat IPC: 1.24724 cumulative IPC: 1.24198 (Simulation time: 33 hr 31 min 25 sec) 
 Total Blocks : 262144 Invalid Blocks : 14
Heartbeat CPU 1 instructions: 330000000 cycles: 185902322 heartbeat IPC: 1.24712 cumulative IPC: 1.24201 (Simulation time: 33 hr 31 min 25 sec) 
 Total Blocks : 262144 Invalid Blocks : 14
Heartbeat CPU 4 instructions: 330000000 cycles: 185902499 heartbeat IPC: 1.24721 cumulative IPC: 1.242 (Simulation time: 33 hr 31 min 25 sec) 
 Total Blocks : 262144 Invalid Blocks : 14
Heartbeat CPU 1 instructions: 340000000 cycles: 193932274 heartbeat IPC: 1.24534 cumulative IPC: 1.24224 (Simulation time: 34 hr 9 min 26 sec) 
 Total Blocks : 262144 Invalid Blocks : 12
Heartbeat CPU 6 instructions: 340000000 cycles: 193932325 heartbeat IPC: 1.24517 cumulative IPC: 1.24223 (Simulation time: 34 hr 9 min 29 sec) 
 Total Blocks : 262144 Invalid Blocks : 12
Heartbeat CPU 5 instructions: 340000000 cycles: 193932376 heartbeat IPC: 1.24518 cumulative IPC: 1.24223 (Simulation time: 34 hr 9 min 29 sec) 
 Total Blocks : 262144 Invalid Blocks : 12
Heartbeat CPU 2 instructions: 340000000 cycles: 193932832 heartbeat IPC: 1.2452 cumulative IPC: 1.24221 (Simulation time: 34 hr 9 min 29 sec) 
 Total Blocks : 262144 Invalid Blocks : 12
Heartbeat CPU 4 instructions: 340000000 cycles: 193932883 heartbeat IPC: 1.24527 cumulative IPC: 1.24223 (Simulation time: 34 hr 9 min 29 sec) 
 Total Blocks : 262144 Invalid Blocks : 12
Heartbeat CPU 0 instructions: 340000000 cycles: 193932934 heartbeat IPC: 1.24513 cumulative IPC: 1.24222 (Simulation time: 34 hr 9 min 29 sec) 
 Total Blocks : 262144 Invalid Blocks : 12
Heartbeat CPU 7 instructions: 340000000 cycles: 193933380 heartbeat IPC: 1.24502 cumulative IPC: 1.24222 (Simulation time: 34 hr 9 min 29 sec) 
 Total Blocks : 262144 Invalid Blocks : 12
Heartbeat CPU 3 instructions: 340000000 cycles: 193933930 heartbeat IPC: 1.245 cumulative IPC: 1.24223 (Simulation time: 34 hr 9 min 29 sec) 
 Total Blocks : 262144 Invalid Blocks : 12
Heartbeat CPU 1 instructions: 350000002 cycles: 201394467 heartbeat IPC: 1.34009 cumulative IPC: 1.24832 (Simulation time: 34 hr 43 min 25 sec) 
 Total Blocks : 262144 Invalid Blocks : 12
Heartbeat CPU 6 instructions: 350000002 cycles: 201395094 heartbeat IPC: 1.33999 cumulative IPC: 1.2483 (Simulation time: 34 hr 43 min 45 sec) 
 Total Blocks : 262144 Invalid Blocks : 12
Heartbeat CPU 7 instructions: 350000002 cycles: 201395145 heartbeat IPC: 1.34017 cumulative IPC: 1.2483 (Simulation time: 34 hr 43 min 45 sec) 
 Total Blocks : 262144 Invalid Blocks : 12
Heartbeat CPU 5 instructions: 350000002 cycles: 201395235 heartbeat IPC: 1.33997 cumulative IPC: 1.2483 (Simulation time: 34 hr 43 min 45 sec) 
 Total Blocks : 262144 Invalid Blocks : 12
Heartbeat CPU 3 instructions: 350000002 cycles: 201395347 heartbeat IPC: 1.34023 cumulative IPC: 1.24832 (Simulation time: 34 hr 43 min 45 sec) 
 Total Blocks : 262144 Invalid Blocks : 12
Heartbeat CPU 4 instructions: 350000002 cycles: 201395354 heartbeat IPC: 1.34004 cumulative IPC: 1.2483 (Simulation time: 34 hr 43 min 45 sec) 
 Total Blocks : 262144 Invalid Blocks : 12
Heartbeat CPU 0 instructions: 350000002 cycles: 201396155 heartbeat IPC: 1.3399 cumulative IPC: 1.24829 (Simulation time: 34 hr 43 min 46 sec) 
 Total Blocks : 262144 Invalid Blocks : 12
Heartbeat CPU 2 instructions: 350000002 cycles: 201396924 heartbeat IPC: 1.33975 cumulative IPC: 1.24827 (Simulation time: 34 hr 43 min 47 sec) 
 Total Blocks : 262144 Invalid Blocks : 12
Heartbeat CPU 1 instructions: 360000000 cycles: 208639934 heartbeat IPC: 1.38017 cumulative IPC: 1.25582 (Simulation time: 35 hr 15 min 9 sec) 
 Total Blocks : 262144 Invalid Blocks : 11
Heartbeat CPU 6 instructions: 360000000 cycles: 208640509 heartbeat IPC: 1.38018 cumulative IPC: 1.2558 (Simulation time: 35 hr 15 min 11 sec) 
 Total Blocks : 262144 Invalid Blocks : 11
Heartbeat CPU 5 instructions: 360000000 cycles: 208640693 heartbeat IPC: 1.38017 cumulative IPC: 1.2558 (Simulation time: 35 hr 15 min 11 sec) 
 Total Blocks : 262144 Invalid Blocks : 11
Heartbeat CPU 3 instructions: 360000000 cycles: 208640904 heartbeat IPC: 1.38016 cumulative IPC: 1.25582 (Simulation time: 35 hr 15 min 11 sec) 
 Total Blocks : 262144 Invalid Blocks : 11
Heartbeat CPU 7 instructions: 360000000 cycles: 208641086 heartbeat IPC: 1.38008 cumulative IPC: 1.25579 (Simulation time: 35 hr 15 min 11 sec) 
 Total Blocks : 262144 Invalid Blocks : 11
Heartbeat CPU 0 instructions: 360000000 cycles: 208641285 heartbeat IPC: 1.38024 cumulative IPC: 1.25579 (Simulation time: 35 hr 15 min 12 sec) 
 Total Blocks : 262144 Invalid Blocks : 11
Heartbeat CPU 2 instructions: 360000000 cycles: 208641689 heartbeat IPC: 1.38031 cumulative IPC: 1.25578 (Simulation time: 35 hr 15 min 12 sec) 
 Total Blocks : 262144 Invalid Blocks : 11
Heartbeat CPU 4 instructions: 360000000 cycles: 208642370 heartbeat IPC: 1.37988 cumulative IPC: 1.25579 (Simulation time: 35 hr 15 min 12 sec) 
 Total Blocks : 262144 Invalid Blocks : 11
Heartbeat CPU 1 instructions: 370000000 cycles: 215882353 heartbeat IPC: 1.38075 cumulative IPC: 1.26254 (Simulation time: 35 hr 45 min 43 sec) 
 Total Blocks : 262144 Invalid Blocks : 11
Heartbeat CPU 6 instructions: 370000000 cycles: 215882423 heartbeat IPC: 1.38085 cumulative IPC: 1.26252 (Simulation time: 35 hr 45 min 45 sec) 
 Total Blocks : 262144 Invalid Blocks : 11
Heartbeat CPU 7 instructions: 370000000 cycles: 215883831 heartbeat IPC: 1.38069 cumulative IPC: 1.26251 (Simulation time: 35 hr 45 min 45 sec) 
 Total Blocks : 262144 Invalid Blocks : 11
Heartbeat CPU 0 instructions: 370000000 cycles: 215884301 heartbeat IPC: 1.38064 cumulative IPC: 1.26251 (Simulation time: 35 hr 45 min 45 sec) 
 Total Blocks : 262144 Invalid Blocks : 11
Heartbeat CPU 3 instructions: 370000000 cycles: 215884572 heartbeat IPC: 1.38052 cumulative IPC: 1.26252 (Simulation time: 35 hr 45 min 45 sec) 
 Total Blocks : 262144 Invalid Blocks : 11
Heartbeat CPU 5 instructions: 370000000 cycles: 215884934 heartbeat IPC: 1.38041 cumulative IPC: 1.2625 (Simulation time: 35 hr 45 min 45 sec) 
 Total Blocks : 262144 Invalid Blocks : 11
Heartbeat CPU 4 instructions: 370000000 cycles: 215885174 heartbeat IPC: 1.38068 cumulative IPC: 1.2625 (Simulation time: 35 hr 45 min 45 sec) 
 Total Blocks : 262144 Invalid Blocks : 11
Heartbeat CPU 2 instructions: 370000000 cycles: 215885499 heartbeat IPC: 1.38049 cumulative IPC: 1.26249 (Simulation time: 35 hr 45 min 45 sec) 
 Total Blocks : 262144 Invalid Blocks : 11
Heartbeat CPU 1 instructions: 380000002 cycles: 223122285 heartbeat IPC: 1.38123 cumulative IPC: 1.2686 (Simulation time: 36 hr 16 min 23 sec) 
 Total Blocks : 262144 Invalid Blocks : 11
Heartbeat CPU 6 instructions: 380000002 cycles: 223122683 heartbeat IPC: 1.38117 cumulative IPC: 1.26858 (Simulation time: 36 hr 16 min 26 sec) 
 Total Blocks : 262144 Invalid Blocks : 11
Heartbeat CPU 7 instructions: 380000002 cycles: 223124500 heartbeat IPC: 1.38109 cumulative IPC: 1.26856 (Simulation time: 36 hr 16 min 28 sec) 
 Total Blocks : 262144 Invalid Blocks : 11
Heartbeat CPU 0 instructions: 380000002 cycles: 223124752 heartbeat IPC: 1.38113 cumulative IPC: 1.26856 (Simulation time: 36 hr 16 min 30 sec) 
 Total Blocks : 262144 Invalid Blocks : 11
Heartbeat CPU 3 instructions: 380000002 cycles: 223124916 heartbeat IPC: 1.38115 cumulative IPC: 1.26858 (Simulation time: 36 hr 16 min 30 sec) 
 Total Blocks : 262144 Invalid Blocks : 11
Heartbeat CPU 5 instructions: 380000002 cycles: 223125992 heartbeat IPC: 1.38101 cumulative IPC: 1.26855 (Simulation time: 36 hr 16 min 32 sec) 
 Total Blocks : 262144 Invalid Blocks : 11
Heartbeat CPU 4 instructions: 380000002 cycles: 223126079 heartbeat IPC: 1.38104 cumulative IPC: 1.26855 (Simulation time: 36 hr 16 min 32 sec) 
 Total Blocks : 262144 Invalid Blocks : 11
Heartbeat CPU 2 instructions: 380000002 cycles: 223126973 heartbeat IPC: 1.38093 cumulative IPC: 1.26853 (Simulation time: 36 hr 16 min 33 sec) 
 Total Blocks : 262144 Invalid Blocks : 11
Heartbeat CPU 1 instructions: 390000003 cycles: 231379794 heartbeat IPC: 1.21102 cumulative IPC: 1.26543 (Simulation time: 36 hr 51 min 45 sec) 
 Total Blocks : 262144 Invalid Blocks : 9
Heartbeat CPU 7 instructions: 390000003 cycles: 231379888 heartbeat IPC: 1.21133 cumulative IPC: 1.26542 (Simulation time: 36 hr 51 min 47 sec) 
 Total Blocks : 262144 Invalid Blocks : 9
Heartbeat CPU 0 instructions: 390000003 cycles: 231380081 heartbeat IPC: 1.21134 cumulative IPC: 1.26541 (Simulation time: 36 hr 51 min 47 sec) 
 Total Blocks : 262144 Invalid Blocks : 9
Heartbeat CPU 5 instructions: 390000003 cycles: 231380132 heartbeat IPC: 1.21151 cumulative IPC: 1.26541 (Simulation time: 36 hr 51 min 47 sec) 
 Total Blocks : 262144 Invalid Blocks : 9
Heartbeat CPU 2 instructions: 390000003 cycles: 231380183 heartbeat IPC: 1.21165 cumulative IPC: 1.26541 (Simulation time: 36 hr 51 min 47 sec) 
 Total Blocks : 262144 Invalid Blocks : 9
Heartbeat CPU 6 instructions: 390000003 cycles: 231380234 heartbeat IPC: 1.21101 cumulative IPC: 1.26541 (Simulation time: 36 hr 51 min 47 sec) 
 Total Blocks : 262144 Invalid Blocks : 9
Heartbeat CPU 4 instructions: 390000003 cycles: 231382022 heartbeat IPC: 1.21125 cumulative IPC: 1.2654 (Simulation time: 36 hr 51 min 48 sec) 
 Total Blocks : 262144 Invalid Blocks : 9
Heartbeat CPU 3 instructions: 390000003 cycles: 231382073 heartbeat IPC: 1.21107 cumulative IPC: 1.26542 (Simulation time: 36 hr 51 min 48 sec) 
 Total Blocks : 262144 Invalid Blocks : 9
Heartbeat CPU 5 instructions: 400000000 cycles: 239758742 heartbeat IPC: 1.19352 cumulative IPC: 1.26161 (Simulation time: 37 hr 28 min 18 sec) 
 Total Blocks : 262144 Invalid Blocks : 8
Heartbeat CPU 6 instructions: 400000000 cycles: 239758904 heartbeat IPC: 1.19351 cumulative IPC: 1.26161 (Simulation time: 37 hr 28 min 22 sec) 
 Total Blocks : 262144 Invalid Blocks : 8
Heartbeat CPU 3 instructions: 400000000 cycles: 239758955 heartbeat IPC: 1.19376 cumulative IPC: 1.26163 (Simulation time: 37 hr 28 min 23 sec) 
 Total Blocks : 262144 Invalid Blocks : 8
Finished CPU 3 instructions: 200000003 cycles: 158525204 cumulative IPC: 1.26163 (Simulation time: 37 hr 28 min 23 sec) 
Heartbeat CPU 1 instructions: 400000000 cycles: 239759106 heartbeat IPC: 1.19342 cumulative IPC: 1.26162 (Simulation time: 37 hr 28 min 23 sec) 
 Total Blocks : 262144 Invalid Blocks : 8
Heartbeat CPU 7 instructions: 400000000 cycles: 239759284 heartbeat IPC: 1.1934 cumulative IPC: 1.26161 (Simulation time: 37 hr 28 min 23 sec) 
 Total Blocks : 262144 Invalid Blocks : 8
Heartbeat CPU 2 instructions: 400000000 cycles: 239759474 heartbeat IPC: 1.19342 cumulative IPC: 1.2616 (Simulation time: 37 hr 28 min 23 sec) 
 Total Blocks : 262144 Invalid Blocks : 8
Heartbeat CPU 4 instructions: 400000000 cycles: 239759625 heartbeat IPC: 1.19366 cumulative IPC: 1.26161 (Simulation time: 37 hr 28 min 23 sec) 
 Total Blocks : 262144 Invalid Blocks : 8
Heartbeat CPU 0 instructions: 400000000 cycles: 239759925 heartbeat IPC: 1.19334 cumulative IPC: 1.2616 (Simulation time: 37 hr 28 min 23 sec) 
 Total Blocks : 262144 Invalid Blocks : 8
Finished CPU 1 instructions: 200000003 cycles: 158526224 cumulative IPC: 1.26162 (Simulation time: 37 hr 28 min 23 sec) 
Finished CPU 5 instructions: 200000002 cycles: 158527543 cumulative IPC: 1.26161 (Simulation time: 37 hr 28 min 23 sec) 
Finished CPU 6 instructions: 200000000 cycles: 158527598 cumulative IPC: 1.26161 (Simulation time: 37 hr 28 min 23 sec) 
Finished CPU 4 instructions: 200000000 cycles: 158527609 cumulative IPC: 1.26161 (Simulation time: 37 hr 28 min 23 sec) 
Finished CPU 7 instructions: 200000002 cycles: 158527983 cumulative IPC: 1.26161 (Simulation time: 37 hr 28 min 24 sec) 
Finished CPU 0 instructions: 200000002 cycles: 158528623 cumulative IPC: 1.2616 (Simulation time: 37 hr 28 min 24 sec) 
Finished CPU 2 instructions: 200000000 cycles: 158529003 cumulative IPC: 1.2616 (Simulation time: 37 hr 28 min 24 sec) 

CPU 0 Branch Prediction Accuracy: 86.0118% MPKI: 3.73732 Average ROB Occupancy at Mispredict: 188.384

CPU 1 Branch Prediction Accuracy: 86.0118% MPKI: 3.73737 Average ROB Occupancy at Mispredict: 188.386

CPU 2 Branch Prediction Accuracy: 86.0119% MPKI: 3.73732 Average ROB Occupancy at Mispredict: 188.394

CPU 3 Branch Prediction Accuracy: 86.0119% MPKI: 3.73742 Average ROB Occupancy at Mispredict: 188.385

CPU 4 Branch Prediction Accuracy: 86.0118% MPKI: 3.73733 Average ROB Occupancy at Mispredict: 188.389

CPU 5 Branch Prediction Accuracy: 86.0118% MPKI: 3.73734 Average ROB Occupancy at Mispredict: 188.387

CPU 6 Branch Prediction Accuracy: 86.0118% MPKI: 3.73735 Average ROB Occupancy at Mispredict: 188.391

CPU 7 Branch Prediction Accuracy: 86.0118% MPKI: 3.73735 Average ROB Occupancy at Mispredict: 188.388

ChampSim completed all CPUs

Total Simulation Statistics (not including warmup)

CPU 0 cumulative IPC: 1.2616 instructions: 200000477 cycles: 158529003
ITLB TOTAL     ACCESS: 22279313  HIT: 22279313  MISS:     0  HIT %:   100  MISS %:     0  AVERAGE MISS PENALTY: 0
ITLB LOAD      ACCESS: 22279313  HIT: 22279313  MISS:     0  HIT %:   100  MISS %:     0  AVERAGE MISS PENALTY: 0
ITLB RFO       ACCESS:     0  HIT:     0  MISS:     0  HIT %:     0  MISS %:     0  AVERAGE MISS PENALTY: 0
ITLB PREFETCH  ACCESS:     0  HIT:     0  MISS:     0  HIT %:     0  MISS %:     0  AVERAGE MISS PENALTY: 0
ITLB WRITEBACK ACCESS:     0  HIT:     0  MISS:     0  HIT %:     0  MISS %:     0  AVERAGE MISS PENALTY: 0

DTLB TOTAL     ACCESS: 26799831  HIT: 26776877  MISS: 22954  HIT %: 99.9144  MISS %: 0.0856498  AVERAGE MISS PENALTY: 10.4546
DTLB LOAD      ACCESS: 19114632  HIT: 19097649  MISS: 16983  HIT %: 99.9112  MISS %: 0.0888482  AVERAGE MISS PENALTY: 10.8364
DTLB RFO       ACCESS: 7685199  HIT: 7679228  MISS:  5971  HIT %: 99.9223  MISS %: 0.0776948  AVERAGE MISS PENALTY: 9.36895
DTLB PREFETCH  ACCESS:     0  HIT:     0  MISS:     0  HIT %:     0  MISS %:     0  AVERAGE MISS PENALTY: 0
DTLB WRITEBACK ACCESS:     0  HIT:     0  MISS:     0  HIT %:     0  MISS %:     0  AVERAGE MISS PENALTY: 0

STLB TOTAL     ACCESS: 22954  HIT: 22630  MISS:   324  HIT %: 98.5885  MISS %: 1.41152  AVERAGE MISS PENALTY: 100
STLB LOAD      ACCESS: 16983  HIT: 16681  MISS:   302  HIT %: 98.2218  MISS %: 1.77825  AVERAGE MISS PENALTY: 100
STLB RFO       ACCESS:  5971  HIT:  5949  MISS:    22  HIT %: 99.6316  MISS %: 0.368447  AVERAGE MISS PENALTY: 100
STLB PREFETCH  ACCESS:     0  HIT:     0  MISS:     0  HIT %:     0  MISS %:     0  AVERAGE MISS PENALTY: 0
STLB WRITEBACK ACCESS:     0  HIT:     0  MISS:     0  HIT %:     0  MISS %:     0  AVERAGE MISS PENALTY: 0

L1D TOTAL     ACCESS: 41227795  HIT: 41166266  MISS: 61529  HIT %: 99.8508  MISS %: 0.149242  AVERAGE MISS PENALTY: 9.70715e+06
L1D LOAD      ACCESS: 15257774  HIT: 15243585  MISS: 14189  HIT %: 99.907  MISS %: 0.0929952  AVERAGE MISS PENALTY: 4.20937e+07
L1D RFO       ACCESS: 15190687  HIT: 15189286  MISS:  1401  HIT %: 99.9908  MISS %: 0.00922276  AVERAGE MISS PENALTY: 169.979
L1D PREFETCH  ACCESS: 10779334  HIT: 10733395  MISS: 45939  HIT %: 99.5738  MISS %: 0.426177  AVERAGE MISS PENALTY: 69.7509
L1D WRITEBACK ACCESS:     0  HIT:     0  MISS:     0  HIT %:     0  MISS %:     0  AVERAGE MISS PENALTY: 0

L1I TOTAL     ACCESS: 30606197  HIT: 30606196  MISS:     1  HIT %:   100  MISS %: 3.26731e-06  AVERAGE MISS PENALTY: 362
L1I LOAD      ACCESS: 30606197  HIT: 30606196  MISS:     1  HIT %:   100  MISS %: 3.26731e-06  AVERAGE MISS PENALTY: 362
L1I RFO       ACCESS:     0  HIT:     0  MISS:     0  HIT %:     0  MISS %:     0  AVERAGE MISS PENALTY: 0
L1I PREFETCH  ACCESS:     0  HIT:     0  MISS:     0  HIT %:     0  MISS %:     0  AVERAGE MISS PENALTY: 0
L1I WRITEBACK ACCESS:     0  HIT:     0  MISS:     0  HIT %:     0  MISS %:     0  AVERAGE MISS PENALTY: 0

L2C TOTAL     ACCESS: 98767  HIT: 57208  MISS: 41559  HIT %: 57.9222  MISS %: 42.0778  AVERAGE MISS PENALTY: 1.14942e+07
L2C LOAD      ACCESS: 13849  HIT:  3632  MISS: 10217  HIT %: 26.2257  MISS %: 73.7743  AVERAGE MISS PENALTY: 4.6754e+07
L2C RFO       ACCESS:  1401  HIT:   149  MISS:  1252  HIT %: 10.6353  MISS %: 89.3647  AVERAGE MISS PENALTY: 173.423
L2C PREFETCH  ACCESS: 81832  HIT: 51780  MISS: 30052  HIT %: 63.276  MISS %: 36.724  AVERAGE MISS PENALTY: 130.144
L2C WRITEBACK ACCESS:  1685  HIT:  1647  MISS:    38  HIT %: 97.7448  MISS %: 2.25519  AVERAGE MISS PENALTY: 0


LLC0 TOTAL     ACCESS:  5389  HIT:  1805  MISS:  3584  HIT %: 33.4942  MISS %: 66.5058  AVERAGE MISS PENALTY: 147.35
LLC0 LOAD      ACCESS:  1163  HIT:   338  MISS:   825  HIT %: 29.0628  MISS %: 70.9372  AVERAGE MISS PENALTY: 155.539
LLC0 RFO       ACCESS:   149  HIT:     5  MISS:   144  HIT %: 3.3557  MISS %: 96.6443  AVERAGE MISS PENALTY: 148.778
LLC0 PREFETCH  ACCESS:  3886  HIT:  1295  MISS:  2591  HIT %: 33.3248  MISS %: 66.6752  AVERAGE MISS PENALTY: 146.028
LLC0 WRITEBACK ACCESS:   191  HIT:   167  MISS:    24  HIT %: 87.4346  MISS %: 12.5654  AVERAGE MISS PENALTY: 0

LLC1 TOTAL     ACCESS:  5376  HIT:  1847  MISS:  3529  HIT %: 34.3564  MISS %: 65.6436  AVERAGE MISS PENALTY: 150.051
LLC1 LOAD      ACCESS:  1052  HIT:   333  MISS:   719  HIT %: 31.654  MISS %: 68.346  AVERAGE MISS PENALTY: 151.47
LLC1 RFO       ACCESS:   155  HIT:     6  MISS:   149  HIT %: 3.87097  MISS %: 96.129  AVERAGE MISS PENALTY: 139.423
LLC1 PREFETCH  ACCESS:  3978  HIT:  1339  MISS:  2639  HIT %: 33.6601  MISS %: 66.3399  AVERAGE MISS PENALTY: 151.516
LLC1 WRITEBACK ACCESS:   191  HIT:   169  MISS:    22  HIT %: 88.4817  MISS %: 11.5183  AVERAGE MISS PENALTY: 0

LLC2 TOTAL     ACCESS:  5369  HIT:  1870  MISS:  3499  HIT %: 34.8296  MISS %: 65.1704  AVERAGE MISS PENALTY: 152.452
LLC2 LOAD      ACCESS:  1132  HIT:   358  MISS:   774  HIT %: 31.6254  MISS %: 68.3746  AVERAGE MISS PENALTY: 155.477
LLC2 RFO       ACCESS:   158  HIT:     4  MISS:   154  HIT %: 2.53165  MISS %: 97.4684  AVERAGE MISS PENALTY: 144.779
LLC2 PREFETCH  ACCESS:  3889  HIT:  1350  MISS:  2539  HIT %: 34.7133  MISS %: 65.2867  AVERAGE MISS PENALTY: 153.917
LLC2 WRITEBACK ACCESS:   190  HIT:   158  MISS:    32  HIT %: 83.1579  MISS %: 16.8421  AVERAGE MISS PENALTY: 0

LLC3 TOTAL     ACCESS:  5381  HIT:  1843  MISS:  3538  HIT %: 34.2501  MISS %: 65.7499  AVERAGE MISS PENALTY: 151.832
LLC3 LOAD      ACCESS:   850  HIT:   260  MISS:   590  HIT %: 30.5882  MISS %: 69.4118  AVERAGE MISS PENALTY: 159.088
LLC3 RFO       ACCESS:   150  HIT:     5  MISS:   145  HIT %: 3.33333  MISS %: 96.6667  AVERAGE MISS PENALTY: 139.834
LLC3 PREFETCH  ACCESS:  4187  HIT:  1420  MISS:  2767  HIT %: 33.9145  MISS %: 66.0855  AVERAGE MISS PENALTY: 152.889
LLC3 WRITEBACK ACCESS:   194  HIT:   158  MISS:    36  HIT %: 81.4433  MISS %: 18.5567  AVERAGE MISS PENALTY: 0

LLC4 TOTAL     ACCESS:  5389  HIT:  1891  MISS:  3498  HIT %: 35.09  MISS %: 64.91  AVERAGE MISS PENALTY: 153.727
LLC4 LOAD      ACCESS:   738  HIT:   231  MISS:   507  HIT %: 31.3008  MISS %: 68.6992  AVERAGE MISS PENALTY: 149.6
LLC4 RFO       ACCESS:   156  HIT:     2  MISS:   154  HIT %: 1.28205  MISS %: 98.7179  AVERAGE MISS PENALTY: 138.948
LLC4 PREFETCH  ACCESS:  4305  HIT:  1497  MISS:  2808  HIT %: 34.7735  MISS %: 65.2265  AVERAGE MISS PENALTY: 156.87
LLC4 WRITEBACK ACCESS:   190  HIT:   161  MISS:    29  HIT %: 84.7368  MISS %: 15.2632  AVERAGE MISS PENALTY: 0

LLC5 TOTAL     ACCESS:  5389  HIT:  1873  MISS:  3516  HIT %: 34.756  MISS %: 65.244  AVERAGE MISS PENALTY: 153.332
LLC5 LOAD      ACCESS:   869  HIT:   289  MISS:   580  HIT %: 33.2566  MISS %: 66.7434  AVERAGE MISS PENALTY: 165.341
LLC5 RFO       ACCESS:   160  HIT:     3  MISS:   157  HIT %: 1.875  MISS %: 98.125  AVERAGE MISS PENALTY: 139.847
LLC5 PREFETCH  ACCESS:  4163  HIT:  1412  MISS:  2751  HIT %: 33.9178  MISS %: 66.0822  AVERAGE MISS PENALTY: 153.13
LLC5 WRITEBACK ACCESS:   197  HIT:   169  MISS:    28  HIT %: 85.7868  MISS %: 14.2132  AVERAGE MISS PENALTY: 0

LLC6 TOTAL     ACCESS:  5365  HIT:  1847  MISS:  3518  HIT %: 34.4268  MISS %: 65.5732  AVERAGE MISS PENALTY: 151.662
LLC6 LOAD      ACCESS:   906  HIT:   305  MISS:   601  HIT %: 33.6645  MISS %: 66.3355  AVERAGE MISS PENALTY: 153.953
LLC6 RFO       ACCESS:   161  HIT:     4  MISS:   157  HIT %: 2.48447  MISS %: 97.5155  AVERAGE MISS PENALTY: 144.573
LLC6 PREFETCH  ACCESS:  4108  HIT:  1369  MISS:  2739  HIT %: 33.3252  MISS %: 66.6748  AVERAGE MISS PENALTY: 152.729
LLC6 WRITEBACK ACCESS:   190  HIT:   169  MISS:    21  HIT %: 88.9474  MISS %: 11.0526  AVERAGE MISS PENALTY: 0

LLC7 TOTAL     ACCESS:  5401  HIT:  1829  MISS:  3572  HIT %: 33.8641  MISS %: 66.1359  AVERAGE MISS PENALTY: 151.811
LLC7 LOAD      ACCESS:  1066  HIT:   354  MISS:   712  HIT %: 33.2083  MISS %: 66.7917  AVERAGE MISS PENALTY: 148.749
LLC7 RFO       ACCESS:   163  HIT:     5  MISS:   158  HIT %: 3.06748  MISS %: 96.9325  AVERAGE MISS PENALTY: 150.222
LLC7 PREFETCH  ACCESS:  3977  HIT:  1311  MISS:  2666  HIT %: 32.9645  MISS %: 67.0355  AVERAGE MISS PENALTY: 154.773
LLC7 WRITEBACK ACCESS:   195  HIT:   159  MISS:    36  HIT %: 81.5385  MISS %: 18.4615  AVERAGE MISS PENALTY: 0

Total Rob stall cycles : 	111447058
Total Load Rob Stall cycles : 	20086951
Average Rob Stall cycles : 	 4
Average Load Rob Stall cycles : 	 5

CPU 1 cumulative IPC: 1.26162 instructions: 200003048 cycles: 158529003
ITLB TOTAL     ACCESS: 22279979  HIT: 22279979  MISS:     0  HIT %:   100  MISS %:     0  AVERAGE MISS PENALTY: 0
ITLB LOAD      ACCESS: 22279979  HIT: 22279979  MISS:     0  HIT %:   100  MISS %:     0  AVERAGE MISS PENALTY: 0
ITLB RFO       ACCESS:     0  HIT:     0  MISS:     0  HIT %:     0  MISS %:     0  AVERAGE MISS PENALTY: 0
ITLB PREFETCH  ACCESS:     0  HIT:     0  MISS:     0  HIT %:     0  MISS %:     0  AVERAGE MISS PENALTY: 0
ITLB WRITEBACK ACCESS:     0  HIT:     0  MISS:     0  HIT %:     0  MISS %:     0  AVERAGE MISS PENALTY: 0

DTLB TOTAL     ACCESS: 26800189  HIT: 26777235  MISS: 22954  HIT %: 99.9144  MISS %: 0.0856486  AVERAGE MISS PENALTY: 10.4546
DTLB LOAD      ACCESS: 19114884  HIT: 19097901  MISS: 16983  HIT %: 99.9112  MISS %: 0.088847  AVERAGE MISS PENALTY: 10.8364
DTLB RFO       ACCESS: 7685305  HIT: 7679334  MISS:  5971  HIT %: 99.9223  MISS %: 0.0776937  AVERAGE MISS PENALTY: 9.36895
DTLB PREFETCH  ACCESS:     0  HIT:     0  MISS:     0  HIT %:     0  MISS %:     0  AVERAGE MISS PENALTY: 0
DTLB WRITEBACK ACCESS:     0  HIT:     0  MISS:     0  HIT %:     0  MISS %:     0  AVERAGE MISS PENALTY: 0

STLB TOTAL     ACCESS: 22954  HIT: 22630  MISS:   324  HIT %: 98.5885  MISS %: 1.41152  AVERAGE MISS PENALTY: 100
STLB LOAD      ACCESS: 16983  HIT: 16681  MISS:   302  HIT %: 98.2218  MISS %: 1.77825  AVERAGE MISS PENALTY: 100
STLB RFO       ACCESS:  5971  HIT:  5949  MISS:    22  HIT %: 99.6316  MISS %: 0.368447  AVERAGE MISS PENALTY: 100
STLB PREFETCH  ACCESS:     0  HIT:     0  MISS:     0  HIT %:     0  MISS %:     0  AVERAGE MISS PENALTY: 0
STLB WRITEBACK ACCESS:     0  HIT:     0  MISS:     0  HIT %:     0  MISS %:     0  AVERAGE MISS PENALTY: 0

L1D TOTAL     ACCESS: 41228350  HIT: 41166849  MISS: 61501  HIT %: 99.8508  MISS %: 0.149172  AVERAGE MISS PENALTY: 9.7991e+06
L1D LOAD      ACCESS: 15258073  HIT: 15243846  MISS: 14227  HIT %: 99.9068  MISS %: 0.0932424  AVERAGE MISS PENALTY: 4.23597e+07
L1D RFO       ACCESS: 15190881  HIT: 15189477  MISS:  1404  HIT %: 99.9908  MISS %: 0.00924239  AVERAGE MISS PENALTY: 168.189
L1D PREFETCH  ACCESS: 10779396  HIT: 10733526  MISS: 45870  HIT %: 99.5745  MISS %: 0.425534  AVERAGE MISS PENALTY: 69.4391
L1D WRITEBACK ACCESS:     0  HIT:     0  MISS:     0  HIT %:     0  MISS %:     0  AVERAGE MISS PENALTY: 0

L1I TOTAL     ACCESS: 30606977  HIT: 30606976  MISS:     1  HIT %:   100  MISS %: 3.26723e-06  AVERAGE MISS PENALTY: 780
L1I LOAD      ACCESS: 30606977  HIT: 30606976  MISS:     1  HIT %:   100  MISS %: 3.26723e-06  AVERAGE MISS PENALTY: 780
L1I RFO       ACCESS:     0  HIT:     0  MISS:     0  HIT %:     0  MISS %:     0  AVERAGE MISS PENALTY: 0
L1I PREFETCH  ACCESS:     0  HIT:     0  MISS:     0  HIT %:     0  MISS %:     0  AVERAGE MISS PENALTY: 0
L1I WRITEBACK ACCESS:     0  HIT:     0  MISS:     0  HIT %:     0  MISS %:     0  AVERAGE MISS PENALTY: 0

L2C TOTAL     ACCESS: 98619  HIT: 57500  MISS: 41119  HIT %: 58.3052  MISS %: 41.6948  AVERAGE MISS PENALTY: 1.18721e+07
L2C LOAD      ACCESS: 13918  HIT:  3701  MISS: 10217  HIT %: 26.5915  MISS %: 73.4085  AVERAGE MISS PENALTY: 4.77796e+07
L2C RFO       ACCESS:  1404  HIT:   139  MISS:  1265  HIT %: 9.90028  MISS %: 90.0997  AVERAGE MISS PENALTY: 170.021
L2C PREFETCH  ACCESS: 81606  HIT: 52014  MISS: 29592  HIT %: 63.738  MISS %: 36.262  AVERAGE MISS PENALTY: 131.63
L2C WRITEBACK ACCESS:  1691  HIT:  1646  MISS:    45  HIT %: 97.3389  MISS %: 2.66115  AVERAGE MISS PENALTY: 0


LLC0 TOTAL     ACCESS:  5316  HIT:  1791  MISS:  3525  HIT %: 33.6907  MISS %: 66.3093  AVERAGE MISS PENALTY: 147.335
LLC0 LOAD      ACCESS:  1153  HIT:   338  MISS:   815  HIT %: 29.3148  MISS %: 70.6852  AVERAGE MISS PENALTY: 152.557
LLC0 RFO       ACCESS:   150  HIT:     5  MISS:   145  HIT %: 3.33333  MISS %: 96.6667  AVERAGE MISS PENALTY: 140.469
LLC0 PREFETCH  ACCESS:  3833  HIT:  1286  MISS:  2547  HIT %: 33.5507  MISS %: 66.4493  AVERAGE MISS PENALTY: 147.097
LLC0 WRITEBACK ACCESS:   180  HIT:   162  MISS:    18  HIT %:    90  MISS %:    10  AVERAGE MISS PENALTY: 0

LLC1 TOTAL     ACCESS:  5306  HIT:  1752  MISS:  3554  HIT %: 33.0192  MISS %: 66.9808  AVERAGE MISS PENALTY: 149.791
LLC1 LOAD      ACCESS:  1054  HIT:   332  MISS:   722  HIT %: 31.4991  MISS %: 68.5009  AVERAGE MISS PENALTY: 150.694
LLC1 RFO       ACCESS:   159  HIT:    10  MISS:   149  HIT %: 6.28931  MISS %: 93.7107  AVERAGE MISS PENALTY: 135.94
LLC1 PREFETCH  ACCESS:  3917  HIT:  1269  MISS:  2648  HIT %: 32.3972  MISS %: 67.6028  AVERAGE MISS PENALTY: 152.304
LLC1 WRITEBACK ACCESS:   176  HIT:   141  MISS:    35  HIT %: 80.1136  MISS %: 19.8864  AVERAGE MISS PENALTY: 0

LLC2 TOTAL     ACCESS:  5297  HIT:  1795  MISS:  3502  HIT %: 33.8871  MISS %: 66.1129  AVERAGE MISS PENALTY: 150.49
LLC2 LOAD      ACCESS:  1117  HIT:   347  MISS:   770  HIT %: 31.0654  MISS %: 68.9346  AVERAGE MISS PENALTY: 154.643
LLC2 RFO       ACCESS:   161  HIT:     5  MISS:   156  HIT %: 3.10559  MISS %: 96.8944  AVERAGE MISS PENALTY: 139.013
LLC2 PREFETCH  ACCESS:  3844  HIT:  1295  MISS:  2549  HIT %: 33.6889  MISS %: 66.3111  AVERAGE MISS PENALTY: 151.532
LLC2 WRITEBACK ACCESS:   175  HIT:   148  MISS:    27  HIT %: 84.5714  MISS %: 15.4286  AVERAGE MISS PENALTY: 0

LLC3 TOTAL     ACCESS:  5307  HIT:  1758  MISS:  3549  HIT %: 33.1261  MISS %: 66.8739  AVERAGE MISS PENALTY: 150.731
LLC3 LOAD      ACCESS:   850  HIT:   258  MISS:   592  HIT %: 30.3529  MISS %: 69.6471  AVERAGE MISS PENALTY: 151.59
LLC3 RFO       ACCESS:   153  HIT:     6  MISS:   147  HIT %: 3.92157  MISS %: 96.0784  AVERAGE MISS PENALTY: 143.483
LLC3 PREFETCH  ACCESS:  4128  HIT:  1343  MISS:  2785  HIT %: 32.5339  MISS %: 67.4661  AVERAGE MISS PENALTY: 152.284
LLC3 WRITEBACK ACCESS:   176  HIT:   151  MISS:    25  HIT %: 85.7955  MISS %: 14.2045  AVERAGE MISS PENALTY: 0

[...]
LLC1 PREFETCH  REQUESTED:     0  ISSUED:     0  USEFUL:  1595  USELESS: 17742
 USEFUL LOAD PREFETCHES:       1595 PREFETCH ISSUED TO LOWER LEVEL:      21114  ACCURACY: 7.55423
 TIMELY PREFETCHES:       1595 LATE PREFETCHES: 0 DROPPED PREFETCHES: 0
LLC1 AVERAGE MISS LATENCY: 151.356 cycles
LLC2 TOTAL     ACCESS:  5363  HIT:  1829  MISS:  3534  HIT %: 34.104  MISS %: 65.896  AVERAGE MISS PENALTY: 154.108
LLC2 LOAD      ACCESS:  1110  HIT:   345  MISS:   765  HIT %: 31.0811  MISS %: 68.9189  AVERAGE MISS PENALTY: 164.401
LLC2 RFO       ACCESS:   164  HIT:     9  MISS:   155  HIT %: 5.4878  MISS %: 94.5122  AVERAGE MISS PENALTY: 143.29
LLC2 PREFETCH  ACCESS:  3903  HIT:  1318  MISS:  2585  HIT %: 33.7689  MISS %: 66.2311  AVERAGE MISS PENALTY: 153.439
LLC2 WRITEBACK ACCESS:   186  HIT:   157  MISS:    29  HIT %: 84.4086  MISS %: 15.5914  AVERAGE MISS PENALTY: 0
LLC2 PREFETCH  REQUESTED:     0  ISSUED:     0  USEFUL:  1346  USELESS: 17697
 USEFUL LOAD PREFETCHES:       1346 PREFETCH ISSUED TO LOWER LEVEL:      21156  ACCURACY: 6.36226
 TIMELY PREFETCHES:       1346 LATE PREFETCHES: 0 DROPPED PREFETCHES: 0
LLC2 AVERAGE MISS LATENCY: 154.108 cycles
LLC3 TOTAL     ACCESS:  5350  HIT:  1841  MISS:  3509  HIT %: 34.4112  MISS %: 65.5888  AVERAGE MISS PENALTY: 153.038
LLC3 LOAD      ACCESS:   852  HIT:   266  MISS:   586  HIT %: 31.2207  MISS %: 68.7793  AVERAGE MISS PENALTY: 156.038
LLC3 RFO       ACCESS:   155  HIT:     7  MISS:   148  HIT %: 4.51613  MISS %: 95.4839  AVERAGE MISS PENALTY: 144.48
LLC3 PREFETCH  ACCESS:  4159  HIT:  1414  MISS:  2745  HIT %: 33.9986  MISS %: 66.0014  AVERAGE MISS PENALTY: 154.532
LLC3 WRITEBACK ACCESS:   184  HIT:   154  MISS:    30  HIT %: 83.6957  MISS %: 16.3043  AVERAGE MISS PENALTY: 0
LLC3 PREFETCH  REQUESTED:     0  ISSUED:     0  USEFUL:  1351  USELESS: 18783
 USEFUL LOAD PREFETCHES:       1351 PREFETCH ISSUED TO LOWER LEVEL:      22098  ACCURACY: 6.11368
 TIMELY PREFETCHES:       1351 LATE PREFETCHES: 0 DROPPED PREFETCHES: 0
LLC3 AVERAGE MISS LATENCY: 153.038 cycles
LLC4 TOTAL     ACCESS:  5345  HIT:  1807  MISS:  3538  HIT %: 33.8073  MISS %: 66.1927  AVERAGE MISS PENALTY: 152.031
LLC4 LOAD      ACCESS:   737  HIT:   238  MISS:   499  HIT %: 32.2931  MISS %: 67.7069  AVERAGE MISS PENALTY: 153.034
LLC4 RFO       ACCESS:   158  HIT:     5  MISS:   153  HIT %: 3.16456  MISS %: 96.8354  AVERAGE MISS PENALTY: 137.163
LLC4 PREFETCH  ACCESS:  4269  HIT:  1415  MISS:  2854  HIT %: 33.1459  MISS %: 66.8541  AVERAGE MISS PENALTY: 154.357
LLC4 WRITEBACK ACCESS:   181  HIT:   149  MISS:    32  HIT %: 82.3204  MISS %: 17.6796  AVERAGE MISS PENALTY: 0
LLC4 PREFETCH  REQUESTED:     0  ISSUED:     0  USEFUL:  1537  USELESS: 19176
 USEFUL LOAD PREFETCHES:       1537 PREFETCH ISSUED TO LOWER LEVEL:      23880  ACCURACY: 6.43635
 TIMELY PREFETCHES:       1537 LATE PREFETCHES: 0 DROPPED PREFETCHES: 0
LLC4 AVERAGE MISS LATENCY: 152.031 cycles
LLC5 TOTAL     ACCESS:  5360  HIT:  1822  MISS:  3538  HIT %: 33.9925  MISS %: 66.0075  AVERAGE MISS PENALTY: 153.242
LLC5 LOAD      ACCESS:   868  HIT:   287  MISS:   581  HIT %: 33.0645  MISS %: 66.9355  AVERAGE MISS PENALTY: 159.272
LLC5 RFO       ACCESS:   161  HIT:     5  MISS:   156  HIT %: 3.10559  MISS %: 96.8944  AVERAGE MISS PENALTY: 144.821
LLC5 PREFETCH  ACCESS:  4139  HIT:  1372  MISS:  2767  HIT %: 33.1481  MISS %: 66.8519  AVERAGE MISS PENALTY: 154.334
LLC5 WRITEBACK ACCESS:   192  HIT:   158  MISS:    34  HIT %: 82.2917  MISS %: 17.7083  AVERAGE MISS PENALTY: 0
LLC5 PREFETCH  REQUESTED:     0  ISSUED:     0  USEFUL:  1510  USELESS: 19038
 USEFUL LOAD PREFETCHES:       1510 PREFETCH ISSUED TO LOWER LEVEL:      22110  ACCURACY: 6.82949
 TIMELY PREFETCHES:       1510 LATE PREFETCHES: 0 DROPPED PREFETCHES: 0
LLC5 AVERAGE MISS LATENCY: 153.242 cycles
LLC6 TOTAL     ACCESS:  5349  HIT:  1788  MISS:  3561  HIT %: 33.4268  MISS %: 66.5732  AVERAGE MISS PENALTY: 152.334
LLC6 LOAD      ACCESS:   910  HIT:   296  MISS:   614  HIT %: 32.5275  MISS %: 67.4725  AVERAGE MISS PENALTY: 151.156
LLC6 RFO       ACCESS:   164  HIT:     8  MISS:   156  HIT %: 4.87805  MISS %: 95.122  AVERAGE MISS PENALTY: 138.583
LLC6 PREFETCH  ACCESS:  4090  HIT:  1338  MISS:  2752  HIT %: 32.7139  MISS %: 67.2861  AVERAGE MISS PENALTY: 155.535
LLC6 WRITEBACK ACCESS:   185  HIT:   146  MISS:    39  HIT %: 78.9189  MISS %: 21.0811  AVERAGE MISS PENALTY: 0
LLC6 PREFETCH  REQUESTED:     0  ISSUED:     0  USEFUL:  1429  USELESS: 18811
 USEFUL LOAD PREFETCHES:       1429 PREFETCH ISSUED TO LOWER LEVEL:      23284  ACCURACY: 6.13726
 TIMELY PREFETCHES:       1429 LATE PREFETCHES: 0 DROPPED PREFETCHES: 0
LLC6 AVERAGE MISS LATENCY: 152.334 cycles
LLC7 TOTAL     ACCESS:  5353  HIT:  1785  MISS:  3568  HIT %: 33.3458  MISS %: 66.6542  AVERAGE MISS PENALTY: 153.947
LLC7 LOAD      ACCESS:  1055  HIT:   348  MISS:   707  HIT %: 32.9858  MISS %: 67.0142  AVERAGE MISS PENALTY: 151.46
LLC7 RFO       ACCESS:   160  HIT:     2  MISS:   158  HIT %:  1.25  MISS %: 98.75  AVERAGE MISS PENALTY: 147.842
LLC7 PREFETCH  ACCESS:  3952  HIT:  1294  MISS:  2658  HIT %: 32.7429  MISS %: 67.2571  AVERAGE MISS PENALTY: 157.578
LLC7 WRITEBACK ACCESS:   186  HIT:   141  MISS:    45  HIT %: 75.8065  MISS %: 24.1935  AVERAGE MISS PENALTY: 0
LLC7 PREFETCH  REQUESTED:     0  ISSUED:     0  USEFUL:  1158  USELESS: 18503
 USEFUL LOAD PREFETCHES:       1158 PREFETCH ISSUED TO LOWER LEVEL:      21310  ACCURACY: 5.43407
 TIMELY PREFETCHES:       1158 LATE PREFETCHES: 0 DROPPED PREFETCHES: 0
LLC7 AVERAGE MISS LATENCY: 153.947 cycles
ROI Average ROB Stall Cycles:	4.80908
ROI Total ROB Stalls Cycles:	111446029
ROI TOTAL ROB counter      :	23174097
ROI Average Load ROB Stall Cycles:	5.81044
ROI Total Load ROB Stalls Cycle  :	20088077
ROI Total Load ROB stalls Counter:	3457239
Major fault: 0 Minor fault: 4882

CPU 7 cumulative IPC: 1.26161 instructions: 200000002 cycles: 158527983
ITLB TOTAL     ACCESS: 22279254  HIT: 22279254  MISS:     0  HIT %:   100  MISS %:     0  AVERAGE MISS PENALTY: 0
ITLB LOAD      ACCESS: 22279254  HIT: 22279254  MISS:     0  HIT %:   100  MISS %:     0  AVERAGE MISS PENALTY: 0
ITLB RFO       ACCESS:     0  HIT:     0  MISS:     0  HIT %:     0  MISS %:     0  AVERAGE MISS PENALTY: 0
ITLB PREFETCH  ACCESS:     0  HIT:     0  MISS:     0  HIT %:     0  MISS %:     0  AVERAGE MISS PENALTY: 0
ITLB WRITEBACK ACCESS:     0  HIT:     0  MISS:     0  HIT %:     0  MISS %:     0  AVERAGE MISS PENALTY: 0
ITLB PREFETCH  REQUESTED:     0  ISSUED:     0  USEFUL:     0  USELESS:     0
 USEFUL LOAD PREFETCHES:          0 PREFETCH ISSUED TO LOWER LEVEL:          0  ACCURACY: -nan
 TIMELY PREFETCHES:          0 LATE PREFETCHES: 0 DROPPED PREFETCHES: 0
ITLB AVERAGE MISS LATENCY: -nan cycles
DTLB TOTAL     ACCESS: 26799695  HIT: 26776741  MISS: 22954  HIT %: 99.9143  MISS %: 0.0856502  AVERAGE MISS PENALTY: 10.4546
DTLB LOAD      ACCESS: 19114504  HIT: 19097521  MISS: 16983  HIT %: 99.9112  MISS %: 0.0888488  AVERAGE MISS PENALTY: 10.8364
DTLB RFO       ACCESS: 7685191  HIT: 7679220  MISS:  5971  HIT %: 99.9223  MISS %: 0.0776949  AVERAGE MISS PENALTY: 9.36895
DTLB PREFETCH  ACCESS:     0  HIT:     0  MISS:     0  HIT %:     0  MISS %:     0  AVERAGE MISS PENALTY: 0
DTLB WRITEBACK ACCESS:     0  HIT:     0  MISS:     0  HIT %:     0  MISS %:     0  AVERAGE MISS PENALTY: 0
DTLB PREFETCH  REQUESTED:     0  ISSUED:     0  USEFUL:     0  USELESS:     0
 USEFUL LOAD PREFETCHES:          0 PREFETCH ISSUED TO LOWER LEVEL:          0  ACCURACY: -nan
 TIMELY PREFETCHES:          0 LATE PREFETCHES: 0 DROPPED PREFETCHES: 0
DTLB AVERAGE MISS LATENCY: 10.4546 cycles
STLB TOTAL     ACCESS: 22954  HIT: 22630  MISS:   324  HIT %: 98.5885  MISS %: 1.41152  AVERAGE MISS PENALTY: 100
STLB LOAD      ACCESS: 16983  HIT: 16681  MISS:   302  HIT %: 98.2218  MISS %: 1.77825  AVERAGE MISS PENALTY: 100
STLB RFO       ACCESS:  5971  HIT:  5949  MISS:    22  HIT %: 99.6316  MISS %: 0.368447  AVERAGE MISS PENALTY: 100
STLB PREFETCH  ACCESS:     0  HIT:     0  MISS:     0  HIT %:     0  MISS %:     0  AVERAGE MISS PENALTY: 0
STLB WRITEBACK ACCESS:     0  HIT:     0  MISS:     0  HIT %:     0  MISS %:     0  AVERAGE MISS PENALTY: 0
STLB PREFETCH  REQUESTED:     0  ISSUED:     0  USEFUL:     0  USELESS:     0
 USEFUL LOAD PREFETCHES:          0 PREFETCH ISSUED TO LOWER LEVEL:          0  ACCURACY: -nan
 TIMELY PREFETCHES:          0 LATE PREFETCHES: 0 DROPPED PREFETCHES: 0
STLB AVERAGE MISS LATENCY: 100 cycles
L1D TOTAL     ACCESS: 41227257  HIT: 41165788  MISS: 61469  HIT %: 99.8509  MISS %: 0.149098  AVERAGE MISS PENALTY: 9.81514e+06
L1D LOAD      ACCESS: 15257726  HIT: 15243512  MISS: 14214  HIT %: 99.9068  MISS %: 0.0931594  AVERAGE MISS PENALTY: 4.24457e+07
L1D RFO       ACCESS: 15190645  HIT: 15189238  MISS:  1407  HIT %: 99.9907  MISS %: 0.00926228  AVERAGE MISS PENALTY: 163.662
L1D PREFETCH  ACCESS: 10778886  HIT: 10733038  MISS: 45848  HIT %: 99.5746  MISS %: 0.42535  AVERAGE MISS PENALTY: 69.344
L1D WRITEBACK ACCESS:     0  HIT:     0  MISS:     0  HIT %:     0  MISS %:     0  AVERAGE MISS PENALTY: 0
L1D PREFETCH  REQUESTED: 11190356  ISSUED: 11149911  USEFUL: 30181  USELESS: 15780
 USEFUL LOAD PREFETCHES:      30181 PREFETCH ISSUED TO LOWER LEVEL:      58046  ACCURACY: 51.995
 TIMELY PREFETCHES:      30181 LATE PREFETCHES: 4357 DROPPED PREFETCHES: 40445
L1D AVERAGE MISS LATENCY: 80.8674 cycles
L1I TOTAL     ACCESS: 30606138  HIT: 30606137  MISS:     1  HIT %:   100  MISS %: 3.26732e-06  AVERAGE MISS PENALTY: 303
L1I LOAD      ACCESS: 30606138  HIT: 30606137  MISS:     1  HIT %:   100  MISS %: 3.26732e-06  AVERAGE MISS PENALTY: 303
L1I RFO       ACCESS:     0  HIT:     0  MISS:     0  HIT %:     0  MISS %:     0  AVERAGE MISS PENALTY: 0
L1I PREFETCH  ACCESS:     0  HIT:     0  MISS:     0  HIT %:     0  MISS %:     0  AVERAGE MISS PENALTY: 0
L1I WRITEBACK ACCESS:     0  HIT:     0  MISS:     0  HIT %:     0  MISS %:     0  AVERAGE MISS PENALTY: 0
L1I PREFETCH  REQUESTED:     0  ISSUED:     0  USEFUL:     0  USELESS:     0
 USEFUL LOAD PREFETCHES:          0 PREFETCH ISSUED TO LOWER LEVEL:          0  ACCURACY: -nan
 TIMELY PREFETCHES:          0 LATE PREFETCHES: 0 DROPPED PREFETCHES: 0
L1I AVERAGE MISS LATENCY: 303 cycles
L2C TOTAL     ACCESS: 98600  HIT: 57076  MISS: 41524  HIT %: 57.8864  MISS %: 42.1136  AVERAGE MISS PENALTY: 1.16377e+07
L2C LOAD      ACCESS: 13883  HIT:  3666  MISS: 10217  HIT %: 26.4064  MISS %: 73.5936  AVERAGE MISS PENALTY: 4.72975e+07
L2C RFO       ACCESS:  1407  HIT:   145  MISS:  1262  HIT %: 10.3056  MISS %: 89.6944  AVERAGE MISS PENALTY: 165.743
L2C PREFETCH  ACCESS: 81618  HIT: 51613  MISS: 30005  HIT %: 63.2373  MISS %: 36.7627  AVERAGE MISS PENALTY: 129.728
L2C WRITEBACK ACCESS:  1692  HIT:  1652  MISS:    40  HIT %: 97.6359  MISS %: 2.36407  AVERAGE MISS PENALTY: 0
L2C PREFETCH  REQUESTED: 52823  ISSUED: 52605  USEFUL:  2623  USELESS: 28422
 USEFUL LOAD PREFETCHES:       2623 PREFETCH ISSUED TO LOWER LEVEL:      35811  ACCURACY: 7.32457
 TIMELY PREFETCHES:       2623 LATE PREFETCHES: 3585 DROPPED PREFETCHES: 218
L2C AVERAGE MISS LATENCY: 131.565 cycles
LLC0 TOTAL     ACCESS:  5372  HIT:  1807  MISS:  3565  HIT %: 33.6374  MISS %: 66.3626  AVERAGE MISS PENALTY: 144.989
LLC0 LOAD      ACCESS:  1159  HIT:   349  MISS:   810  HIT %: 30.1122  MISS %: 69.8878  AVERAGE MISS PENALTY: 151.754
LLC0 RFO       ACCESS:   149  HIT:     5  MISS:   144  HIT %: 3.3557  MISS %: 96.6443  AVERAGE MISS PENALTY: 135.569
LLC0 PREFETCH  ACCESS:  3888  HIT:  1307  MISS:  2581  HIT %: 33.6163  MISS %: 66.3837  AVERAGE MISS PENALTY: 145.077
LLC0 WRITEBACK ACCESS:   176  HIT:   146  MISS:    30  HIT %: 82.9545  MISS %: 17.0455  AVERAGE MISS PENALTY: 0
LLC0 PREFETCH  REQUESTED:     0  ISSUED:     0  USEFUL:  1501  USELESS: 17878
 USEFUL LOAD PREFETCHES:       1501 PREFETCH ISSUED TO LOWER LEVEL:      20789  ACCURACY: 7.22016
 TIMELY PREFETCHES:       1501 LATE PREFETCHES: 0 DROPPED PREFETCHES: 0
LLC0 AVERAGE MISS LATENCY: 144.989 cycles
Deadblocks : 5918 Deadblock percentage : 730.617

LLC1 TOTAL     ACCESS:  5348  HIT:  1774  MISS:  3574  HIT %: 33.1713  MISS %: 66.8287  AVERAGE MISS PENALTY: 150.32
LLC1 LOAD      ACCESS:  1036  HIT:   301  MISS:   735  HIT %: 29.0541  MISS %: 70.9459  AVERAGE MISS PENALTY: 152.305
LLC1 RFO       ACCESS:   158  HIT:    11  MISS:   147  HIT %: 6.96203  MISS %: 93.038  AVERAGE MISS PENALTY: 134.864
LLC1 PREFETCH  ACCESS:  3979  HIT:  1316  MISS:  2663  HIT %: 33.0736  MISS %: 66.9264  AVERAGE MISS PENALTY: 152.262
LLC1 WRITEBACK ACCESS:   175  HIT:   146  MISS:    29  HIT %: 83.4286  MISS %: 16.5714  AVERAGE MISS PENALTY: 0
LLC1 PREFETCH  REQUESTED:     0  ISSUED:     0  USEFUL:  1595  USELESS: 17742
 USEFUL LOAD PREFETCHES:       1595 PREFETCH ISSUED TO LOWER LEVEL:      21114  ACCURACY: 7.55423
 TIMELY PREFETCHES:       1595 LATE PREFETCHES: 0 DROPPED PREFETCHES: 0
LLC1 AVERAGE MISS LATENCY: 150.32 cycles
LLC2 TOTAL     ACCESS:  5346  HIT:  1765  MISS:  3581  HIT %: 33.0153  MISS %: 66.9847  AVERAGE MISS PENALTY: 149.282
LLC2 LOAD      ACCESS:  1134  HIT:   331  MISS:   803  HIT %: 29.1887  MISS %: 70.8113  AVERAGE MISS PENALTY: 150.75
LLC2 RFO       ACCESS:   158  HIT:     4  MISS:   154  HIT %: 2.53165  MISS %: 97.4684  AVERAGE MISS PENALTY: 138.188
LLC2 PREFETCH  ACCESS:  3881  HIT:  1283  MISS:  2598  HIT %: 33.0585  MISS %: 66.9415  AVERAGE MISS PENALTY: 150.98
LLC2 WRITEBACK ACCESS:   173  HIT:   147  MISS:    26  HIT %: 84.9711  MISS %: 15.0289  AVERAGE MISS PENALTY: 0
LLC2 PREFETCH  REQUESTED:     0  ISSUED:     0  USEFUL:  1346  USELESS: 17697
 USEFUL LOAD PREFETCHES:       1346 PREFETCH ISSUED TO LOWER LEVEL:      21156  ACCURACY: 6.36226
 TIMELY PREFETCHES:       1346 LATE PREFETCHES: 0 DROPPED PREFETCHES: 0
LLC2 AVERAGE MISS LATENCY: 149.282 cycles
LLC3 TOTAL     ACCESS:  5367  HIT:  1811  MISS:  3556  HIT %: 33.7432  MISS %: 66.2568  AVERAGE MISS PENALTY: 147.767
LLC3 LOAD      ACCESS:   850  HIT:   259  MISS:   591  HIT %: 30.4706  MISS %: 69.5294  AVERAGE MISS PENALTY: 154.834
LLC3 RFO       ACCESS:   152  HIT:     6  MISS:   146  HIT %: 3.94737  MISS %: 96.0526  AVERAGE MISS PENALTY: 130.637
LLC3 PREFETCH  ACCESS:  4189  HIT:  1401  MISS:  2788  HIT %: 33.4447  MISS %: 66.5553  AVERAGE MISS PENALTY: 148.809
LLC3 WRITEBACK ACCESS:   176  HIT:   145  MISS:    31  HIT %: 82.3864  MISS %: 17.6136  AVERAGE MISS PENALTY: 0
LLC3 PREFETCH  REQUESTED:     0  ISSUED:     0  USEFUL:  1351  USELESS: 18783
 USEFUL LOAD PREFETCHES:       1351 PREFETCH ISSUED TO LOWER LEVEL:      22098  ACCURACY: 6.11368
 TIMELY PREFETCHES:       1351 LATE PREFETCHES: 0 DROPPED PREFETCHES: 0
LLC3 AVERAGE MISS LATENCY: 147.767 cycles
LLC4 TOTAL     ACCESS:  5371  HIT:  1814  MISS:  3557  HIT %: 33.774  MISS %: 66.226  AVERAGE MISS PENALTY: 148.845
LLC4 LOAD      ACCESS:   731  HIT:   241  MISS:   490  HIT %: 32.9685  MISS %: 67.0315  AVERAGE MISS PENALTY: 149.302
LLC4 RFO       ACCESS:   156  HIT:     3  MISS:   153  HIT %: 1.92308  MISS %: 98.0769  AVERAGE MISS PENALTY: 134.072
LLC4 PREFETCH  ACCESS:  4309  HIT:  1425  MISS:  2884  HIT %: 33.0703  MISS %: 66.9297  AVERAGE MISS PENALTY: 151.1
LLC4 WRITEBACK ACCESS:   175  HIT:   145  MISS:    30  HIT %: 82.8571  MISS %: 17.1429  AVERAGE MISS PENALTY: 0
LLC4 PREFETCH  REQUESTED:     0  ISSUED:     0  USEFUL:  1537  USELESS: 19176
 USEFUL LOAD PREFETCHES:       1537 PREFETCH ISSUED TO LOWER LEVEL:      23880  ACCURACY: 6.43635
 TIMELY PREFETCHES:       1537 LATE PREFETCHES: 0 DROPPED PREFETCHES: 0
LLC4 AVERAGE MISS LATENCY: 148.845 cycles
LLC5 TOTAL     ACCESS:  5374  HIT:  1856  MISS:  3518  HIT %: 34.5367  MISS %: 65.4633  AVERAGE MISS PENALTY: 149.825
LLC5 LOAD      ACCESS:   869  HIT:   294  MISS:   575  HIT %: 33.832  MISS %: 66.168  AVERAGE MISS PENALTY: 157.323
LLC5 RFO       ACCESS:   161  HIT:     5  MISS:   156  HIT %: 3.10559  MISS %: 96.8944  AVERAGE MISS PENALTY: 135.641
LLC5 PREFETCH  ACCESS:  4162  HIT:  1405  MISS:  2757  HIT %: 33.7578  MISS %: 66.2422  AVERAGE MISS PENALTY: 150.694
LLC5 WRITEBACK ACCESS:   182  HIT:   152  MISS:    30  HIT %: 83.5165  MISS %: 16.4835  AVERAGE MISS PENALTY: 0
LLC5 PREFETCH  REQUESTED:     0  ISSUED:     0  USEFUL:  1510  USELESS: 19038
 USEFUL LOAD PREFETCHES:       1510 PREFETCH ISSUED TO LOWER LEVEL:      22110  ACCURACY: 6.82949
 TIMELY PREFETCHES:       1510 LATE PREFETCHES: 0 DROPPED PREFETCHES: 0
LLC5 AVERAGE MISS LATENCY: 149.825 cycles
LLC6 TOTAL     ACCESS:  5352  HIT:  1809  MISS:  3543  HIT %: 33.8004  MISS %: 66.1996  AVERAGE MISS PENALTY: 149.708
LLC6 LOAD      ACCESS:   901  HIT:   276  MISS:   625  HIT %: 30.6326  MISS %: 69.3674  AVERAGE MISS PENALTY: 152.293
LLC6 RFO       ACCESS:   163  HIT:     5  MISS:   158  HIT %: 3.06748  MISS %: 96.9325  AVERAGE MISS PENALTY: 136.994
LLC6 PREFETCH  ACCESS:  4111  HIT:  1381  MISS:  2730  HIT %: 33.5928  MISS %: 66.4072  AVERAGE MISS PENALTY: 151.497
LLC6 WRITEBACK ACCESS:   177  HIT:   147  MISS:    30  HIT %: 83.0508  MISS %: 16.9492  AVERAGE MISS PENALTY: 0
LLC6 PREFETCH  REQUESTED:     0  ISSUED:     0  USEFUL:  1429  USELESS: 18811
 USEFUL LOAD PREFETCHES:       1429 PREFETCH ISSUED TO LOWER LEVEL:      23284  ACCURACY: 6.13726
 TIMELY PREFETCHES:       1429 LATE PREFETCHES: 0 DROPPED PREFETCHES: 0
LLC6 AVERAGE MISS LATENCY: 149.708 cycles
LLC7 TOTAL     ACCESS:  5362  HIT:  1779  MISS:  3583  HIT %: 33.1779  MISS %: 66.8221  AVERAGE MISS PENALTY: 151.047
LLC7 LOAD      ACCESS:  1067  HIT:   351  MISS:   716  HIT %: 32.896  MISS %: 67.104  AVERAGE MISS PENALTY: 147.236
LLC7 RFO       ACCESS:   165  HIT:     7  MISS:   158  HIT %: 4.24242  MISS %: 95.7576  AVERAGE MISS PENALTY: 147.095
LLC7 PREFETCH  ACCESS:  3956  HIT:  1279  MISS:  2677  HIT %: 32.3306  MISS %: 67.6694  AVERAGE MISS PENALTY: 154.105
LLC7 WRITEBACK ACCESS:   174  HIT:   142  MISS:    32  HIT %: 81.6092  MISS %: 18.3908  AVERAGE MISS PENALTY: 0
LLC7 PREFETCH  REQUESTED:     0  ISSUED:     0  USEFUL:  1158  USELESS: 18503
 USEFUL LOAD PREFETCHES:       1158 PREFETCH ISSUED TO LOWER LEVEL:      21310  ACCURACY: 5.43407
 TIMELY PREFETCHES:       1158 LATE PREFETCHES: 0 DROPPED PREFETCHES: 0
LLC7 AVERAGE MISS LATENCY: 151.047 cycles
ROI Average ROB Stall Cycles:	4.80904
ROI Total ROB Stalls Cycles:	111446325
ROI TOTAL ROB counter      :	23174354
ROI Average Load ROB Stall Cycles:	5.81003
ROI Total Load ROB Stalls Cycle  :	20087603
ROI Total Load ROB stalls Counter:	3457403
Major fault: 0 Minor fault: 4882








Interconnect Stats 
LINK 0 BW : 0LINK 1 BW : 0LINK 2 BW : 0LINK 3 BW : 0LINK 4 BW : 0LINK 5 BW : 0LINK 6 BW : 0LINK 7 BW : 0
DRAM Statistics
 CHANNEL 0
 RQ ROW_BUFFER_HIT: 73851  ROW_BUFFER_MISS: 39099
 DBUS_CONGESTED: 26493
 WQ ROW_BUFFER_HIT:  1837  ROW_BUFFER_MISS: 19404  FULL:     0

 CHANNEL 1
 RQ ROW_BUFFER_HIT: 73810  ROW_BUFFER_MISS: 38749
 DBUS_CONGESTED: 26493
 WQ ROW_BUFFER_HIT:  1773  ROW_BUFFER_MISS: 19461  FULL:     0

 AVG_CONGESTED_CYCLE: 5
DRAM PAGES: 2097152
Allocated PAGES: 39056
L2C destructor called
L1D destructor called
L1I destructor called
STLB destructor called
DTLB destructor called
ITLB destructor called
L2C destructor called
L1D destructor called
L1I destructor called
STLB destructor called
DTLB destructor called
ITLB destructor called
L2C destructor called
L1D destructor called
L1I destructor called
STLB destructor called
DTLB destructor called
ITLB destructor called
L2C destructor called
L1D destructor called
L1I destructor called
STLB destructor called
DTLB destructor called
ITLB destructor called
L2C destructor called
L1D destructor called
L1I destructor called
STLB destructor called
DTLB destructor called
ITLB destructor called
L2C destructor called
L1D destructor called
L1I destructor called
STLB destructor called
DTLB destructor called
ITLB destructor called
L2C destructor called
L1D destructor called
L1I destructor called
STLB destructor called
DTLB destructor called
ITLB destructor called
L2C destructor called
L1D destructor called
L1I destructor called
STLB destructor called
DTLB destructor called
ITLB destructor called
