
*** ChampSim Multicore Out-of-Order Simulator ***

Warmup Instructions: 200000000
Simulation Instructions: 200000000
Number of CPUs: 8
threads:1

L1I Configuration:
L1I_SET:64
L1I_WAY:8
L1I_RQ_SIZE:64
L1I_WQ_SIZE:64
L1I_PQ_SIZE:8
L1I_MSHR_SIZE:8

L1D Configuration:
L1D_SET:64
L1D_WAY:12
L1D_RQ_SIZE:64
L1D_WQ_SIZE:64
L1D_PQ_SIZE:8
L1D_MSHR_SIZE:16

L2C Configuration:
L2C_SET:1024
L2C_WAY:8
L2C_RQ_SIZE:32
L2C_WQ_SIZE:32
L2C_PQ_SIZE:16
L2C_MSHR_SIZE:32

LLC Configuration:
LLC_SET:2048
LLC_WAY:16
LLC SLICES:8
LLC_RQ_SIZE:64
LLC_WQ_SIZE:64
LLC_PQ_SIZE:32
LLC_MSHR_SIZE:64

Interconnect OFF
Attacker deprioritize is: OFF
Off-chip DRAM Size: 8192 MB Channels: 2 Width: 64-bit Data Rate: 3200 MT/s
PAGE SIZE in KB: 4.000000 
PAGE SIZE in MB: 0.003906 
PAGE offset in bits: 12 
CEASER-S_LLC:0
MIRAGE : 0
CEASER_LATENCY:3
REMAP : OFF
Partitions : 1
Multi-Step : OFF
BFS : OFF

CPU 0 runs /home/anubhav/spec_2017/649.fotonik3d_s-10881B.champsimtrace.xz
CPU 1 runs /home/anubhav/spec_2017/649.fotonik3d_s-10881B.champsimtrace.xz
CPU 2 runs /home/anubhav/spec_2017/649.fotonik3d_s-10881B.champsimtrace.xz
CPU 3 runs /home/anubhav/spec_2017/649.fotonik3d_s-10881B.champsimtrace.xz
CPU 4 runs /home/anubhav/spec_2017/649.fotonik3d_s-10881B.champsimtrace.xz
CPU 5 runs /home/anubhav/spec_2017/649.fotonik3d_s-10881B.champsimtrace.xz
CPU 6 runs /home/anubhav/spec_2017/649.fotonik3d_s-10881B.champsimtrace.xz
CPU 7 runs /home/anubhav/spec_2017/649.fotonik3d_s-10881B.champsimtrace.xz
CPU 0 Bimodal branch predictor
Initialize Hawkeye state
Initialize Hawkeye state
Initialize Hawkeye state
Initialize Hawkeye state
Initialize Hawkeye state
Initialize Hawkeye state
Initialize Hawkeye state
Initialize Hawkeye state
CPU 1 Bimodal branch predictor
Initialize Hawkeye state
Initialize Hawkeye state
Initialize Hawkeye state
Initialize Hawkeye state
Initialize Hawkeye state
Initialize Hawkeye state
Initialize Hawkeye state
Initialize Hawkeye state
CPU 2 Bimodal branch predictor
Initialize Hawkeye state
Initialize Hawkeye state
Initialize Hawkeye state
Initialize Hawkeye state
Initialize Hawkeye state
Initialize Hawkeye state
Initialize Hawkeye state
Initialize Hawkeye state
CPU 3 Bimodal branch predictor
Initialize Hawkeye state
Initialize Hawkeye state
Initialize Hawkeye state
Initialize Hawkeye state
Initialize Hawkeye state
Initialize Hawkeye state
Initialize Hawkeye state
Initialize Hawkeye state
CPU 4 Bimodal branch predictor
Initialize Hawkeye state
Initialize Hawkeye state
Initialize Hawkeye state
Initialize Hawkeye state
Initialize Hawkeye state
Initialize Hawkeye state
Initialize Hawkeye state
Initialize Hawkeye state
CPU 5 Bimodal branch predictor
Initialize Hawkeye state
Initialize Hawkeye state
Initialize Hawkeye state
Initialize Hawkeye state
Initialize Hawkeye state
Initialize Hawkeye state
Initialize Hawkeye state
Initialize Hawkeye state
CPU 6 Bimodal branch predictor
Initialize Hawkeye state
Initialize Hawkeye state
Initialize Hawkeye state
Initialize Hawkeye state
Initialize Hawkeye state
Initialize Hawkeye state
Initialize Hawkeye state
Initialize Hawkeye state
CPU 7 Bimodal branch predictor
Initialize Hawkeye state
Initialize Hawkeye state
Initialize Hawkeye state
Initialize Hawkeye state
Initialize Hawkeye state
Initialize Hawkeye state
Initialize Hawkeye state
Initialize Hawkeye state
Heartbeat CPU 0 instructions: 10000003 cycles: 8000819 heartbeat IPC: 1.24987 cumulative IPC: 1.24987 (Simulation time: 14 hr 3 min 29 sec) 
 Total Blocks : 262144 Invalid Blocks : 701
Heartbeat CPU 4 instructions: 10000003 cycles: 8000876 heartbeat IPC: 1.24986 cumulative IPC: 1.24986 (Simulation time: 14 hr 3 min 54 sec) 
 Total Blocks : 262144 Invalid Blocks : 701
Heartbeat CPU 1 instructions: 10000003 cycles: 8000948 heartbeat IPC: 1.24985 cumulative IPC: 1.24985 (Simulation time: 14 hr 4 min 3 sec) 
 Total Blocks : 262144 Invalid Blocks : 701
Heartbeat CPU 6 instructions: 10000003 cycles: 8000949 heartbeat IPC: 1.24985 cumulative IPC: 1.24985 (Simulation time: 14 hr 4 min 6 sec) 
 Total Blocks : 262144 Invalid Blocks : 701
Heartbeat CPU 3 instructions: 10000003 cycles: 8000950 heartbeat IPC: 1.24985 cumulative IPC: 1.24985 (Simulation time: 14 hr 4 min 6 sec) 
 Total Blocks : 262144 Invalid Blocks : 701
Heartbeat CPU 7 instructions: 10000003 cycles: 8000952 heartbeat IPC: 1.24985 cumulative IPC: 1.24985 (Simulation time: 14 hr 4 min 6 sec) 
 Total Blocks : 262144 Invalid Blocks : 701
Heartbeat CPU 5 instructions: 10000003 cycles: 8000988 heartbeat IPC: 1.24985 cumulative IPC: 1.24985 (Simulation time: 14 hr 4 min 8 sec) 
 Total Blocks : 262144 Invalid Blocks : 701
Heartbeat CPU 2 instructions: 10000003 cycles: 8001000 heartbeat IPC: 1.24984 cumulative IPC: 1.24984 (Simulation time: 14 hr 4 min 8 sec) 
 Total Blocks : 262144 Invalid Blocks : 701
Heartbeat CPU 0 instructions: 20000000 cycles: 15983023 heartbeat IPC: 1.25279 cumulative IPC: 1.25133 (Simulation time: 37 hr 14 min 32 sec) 
 Total Blocks : 262144 Invalid Blocks : 1
Heartbeat CPU 3 instructions: 20000000 cycles: 15983060 heartbeat IPC: 1.2528 cumulative IPC: 1.25132 (Simulation time: 37 hr 14 min 39 sec) 
 Total Blocks : 262144 Invalid Blocks : 1
Heartbeat CPU 4 instructions: 20000000 cycles: 15983101 heartbeat IPC: 1.25278 cumulative IPC: 1.25132 (Simulation time: 37 hr 14 min 41 sec) 
 Total Blocks : 262144 Invalid Blocks : 1
Heartbeat CPU 5 instructions: 20000000 cycles: 15983116 heartbeat IPC: 1.2528 cumulative IPC: 1.25132 (Simulation time: 37 hr 14 min 41 sec) 
 Total Blocks : 262144 Invalid Blocks : 1
Heartbeat CPU 7 instructions: 20000000 cycles: 15983173 heartbeat IPC: 1.25278 cumulative IPC: 1.25132 (Simulation time: 37 hr 14 min 43 sec) 
 Total Blocks : 262144 Invalid Blocks : 1
Heartbeat CPU 2 instructions: 20000000 cycles: 15983211 heartbeat IPC: 1.25279 cumulative IPC: 1.25131 (Simulation time: 37 hr 14 min 45 sec) 
 Total Blocks : 262144 Invalid Blocks : 1
Heartbeat CPU 6 instructions: 20000000 cycles: 15983213 heartbeat IPC: 1.25278 cumulative IPC: 1.25131 (Simulation time: 37 hr 14 min 45 sec) 
 Total Blocks : 262144 Invalid Blocks : 1
Heartbeat CPU 1 instructions: 20000000 cycles: 15983220 heartbeat IPC: 1.25278 cumulative IPC: 1.25131 (Simulation time: 37 hr 14 min 45 sec) 
 Total Blocks : 262144 Invalid Blocks : 1
Heartbeat CPU 4 instructions: 30000000 cycles: 23956081 heartbeat IPC: 1.25424 cumulative IPC: 1.25229 (Simulation time: 69 hr 53 min 59 sec) 
 Total Blocks : 262144 Invalid Blocks : 0
Heartbeat CPU 0 instructions: 30000000 cycles: 23956097 heartbeat IPC: 1.25422 cumulative IPC: 1.25229 (Simulation time: 69 hr 54 min 9 sec) 
 Total Blocks : 262144 Invalid Blocks : 0
Heartbeat CPU 3 instructions: 30000000 cycles: 23956146 heartbeat IPC: 1.25422 cumulative IPC: 1.25229 (Simulation time: 69 hr 54 min 9 sec) 
 Total Blocks : 262144 Invalid Blocks : 0
Heartbeat CPU 1 instructions: 30000000 cycles: 23956215 heartbeat IPC: 1.25423 cumulative IPC: 1.25228 (Simulation time: 69 hr 54 min 9 sec) 
 Total Blocks : 262144 Invalid Blocks : 0
Heartbeat CPU 5 instructions: 30000000 cycles: 23956234 heartbeat IPC: 1.25421 cumulative IPC: 1.25228 (Simulation time: 69 hr 54 min 9 sec) 
 Total Blocks : 262144 Invalid Blocks : 0
Heartbeat CPU 2 instructions: 30000000 cycles: 23956289 heartbeat IPC: 1.25422 cumulative IPC: 1.25228 (Simulation time: 69 hr 54 min 9 sec) 
 Total Blocks : 262144 Invalid Blocks : 0
Heartbeat CPU 6 instructions: 30000000 cycles: 23956310 heartbeat IPC: 1.25422 cumulative IPC: 1.25228 (Simulation time: 69 hr 54 min 9 sec) 
 Total Blocks : 262144 Invalid Blocks : 0
Heartbeat CPU 7 instructions: 30000000 cycles: 23956333 heartbeat IPC: 1.25421 cumulative IPC: 1.25228 (Simulation time: 69 hr 54 min 9 sec) 
 Total Blocks : 262144 Invalid Blocks : 0
Heartbeat CPU 0 instructions: 40000002 cycles: 31934168 heartbeat IPC: 1.25344 cumulative IPC: 1.25258 (Simulation time: 107 hr 47 min 3 sec) 
 Total Blocks : 262144 Invalid Blocks : 0
Heartbeat CPU 4 instructions: 40000002 cycles: 31934192 heartbeat IPC: 1.25343 cumulative IPC: 1.25258 (Simulation time: 107 hr 47 min 4 sec) 
 Total Blocks : 262144 Invalid Blocks : 0
Heartbeat CPU 3 instructions: 40000002 cycles: 31934242 heartbeat IPC: 1.25343 cumulative IPC: 1.25257 (Simulation time: 107 hr 47 min 4 sec) 
 Total Blocks : 262144 Invalid Blocks : 0
Heartbeat CPU 1 instructions: 40000002 cycles: 31934320 heartbeat IPC: 1.25343 cumulative IPC: 1.25257 (Simulation time: 107 hr 47 min 5 sec) 
 Total Blocks : 262144 Invalid Blocks : 0
Heartbeat CPU 5 instructions: 40000002 cycles: 31934351 heartbeat IPC: 1.25343 cumulative IPC: 1.25257 (Simulation time: 107 hr 47 min 8 sec) 
 Total Blocks : 262144 Invalid Blocks : 0
Heartbeat CPU 6 instructions: 40000002 cycles: 31934383 heartbeat IPC: 1.25344 cumulative IPC: 1.25257 (Simulation time: 107 hr 47 min 8 sec) 
 Total Blocks : 262144 Invalid Blocks : 0
Heartbeat CPU 2 instructions: 40000002 cycles: 31934427 heartbeat IPC: 1.25343 cumulative IPC: 1.25257 (Simulation time: 107 hr 47 min 12 sec) 
 Total Blocks : 262144 Invalid Blocks : 0
Heartbeat CPU 7 instructions: 40000002 cycles: 31934505 heartbeat IPC: 1.25342 cumulative IPC: 1.25256 (Simulation time: 107 hr 47 min 16 sec) 
 Total Blocks : 262144 Invalid Blocks : 0
