
*** ChampSim Multicore Out-of-Order Simulator ***

Warmup Instructions: 200000000
Simulation Instructions: 200000000
Number of CPUs: 8
threads:1

L1I Configuration:
L1I_SET:64
L1I_WAY:8
L1I_RQ_SIZE:64
L1I_WQ_SIZE:64
L1I_PQ_SIZE:8
L1I_MSHR_SIZE:8

L1D Configuration:
L1D_SET:64
L1D_WAY:12
L1D_RQ_SIZE:64
L1D_WQ_SIZE:64
L1D_PQ_SIZE:8
L1D_MSHR_SIZE:16

L2C Configuration:
L2C_SET:1024
L2C_WAY:8
L2C_RQ_SIZE:32
L2C_WQ_SIZE:32
L2C_PQ_SIZE:16
L2C_MSHR_SIZE:32

LLC Configuration:
LLC_SET:2048
LLC_WAY:16
LLC SLICES:8
LLC_RQ_SIZE:64
LLC_WQ_SIZE:64
LLC_PQ_SIZE:32
LLC_MSHR_SIZE:64

Interconnect OFF
Attacker deprioritize is: OFF
Off-chip DRAM Size: 8192 MB Channels: 2 Width: 64-bit Data Rate: 3200 MT/s
PAGE SIZE in KB: 4.000000 
PAGE SIZE in MB: 0.003906 
PAGE offset in bits: 12 
CEASER-S_LLC:0
MIRAGE : 0
CEASER_LATENCY:3
REMAP : OFF
Partitions : 1
Multi-Step : OFF
BFS : OFF

CPU 0 runs /home/anubhav/spec_2017/649.fotonik3d_s-1176B.champsimtrace.xz
CPU 1 runs /home/anubhav/spec_2017/649.fotonik3d_s-1176B.champsimtrace.xz
CPU 2 runs /home/anubhav/spec_2017/649.fotonik3d_s-1176B.champsimtrace.xz
CPU 3 runs /home/anubhav/spec_2017/649.fotonik3d_s-1176B.champsimtrace.xz
CPU 4 runs /home/anubhav/spec_2017/649.fotonik3d_s-1176B.champsimtrace.xz
CPU 5 runs /home/anubhav/spec_2017/649.fotonik3d_s-1176B.champsimtrace.xz
CPU 6 runs /home/anubhav/spec_2017/649.fotonik3d_s-1176B.champsimtrace.xz
CPU 7 runs /home/anubhav/spec_2017/649.fotonik3d_s-1176B.champsimtrace.xz
CPU 0 Bimodal branch predictor
Initialize Hawkeye state
Initialize Hawkeye state
Initialize Hawkeye state
Initialize Hawkeye state
Initialize Hawkeye state
Initialize Hawkeye state
Initialize Hawkeye state
Initialize Hawkeye state
CPU 1 Bimodal branch predictor
Initialize Hawkeye state
Initialize Hawkeye state
Initialize Hawkeye state
Initialize Hawkeye state
Initialize Hawkeye state
Initialize Hawkeye state
Initialize Hawkeye state
Initialize Hawkeye state
CPU 2 Bimodal branch predictor
Initialize Hawkeye state
Initialize Hawkeye state
Initialize Hawkeye state
Initialize Hawkeye state
Initialize Hawkeye state
Initialize Hawkeye state
Initialize Hawkeye state
Initialize Hawkeye state
CPU 3 Bimodal branch predictor
Initialize Hawkeye state
Initialize Hawkeye state
Initialize Hawkeye state
Initialize Hawkeye state
Initialize Hawkeye state
Initialize Hawkeye state
Initialize Hawkeye state
Initialize Hawkeye state
CPU 4 Bimodal branch predictor
Initialize Hawkeye state
Initialize Hawkeye state
Initialize Hawkeye state
Initialize Hawkeye state
Initialize Hawkeye state
Initialize Hawkeye state
Initialize Hawkeye state
Initialize Hawkeye state
CPU 5 Bimodal branch predictor
Initialize Hawkeye state
Initialize Hawkeye state
Initialize Hawkeye state
Initialize Hawkeye state
Initialize Hawkeye state
Initialize Hawkeye state
Initialize Hawkeye state
Initialize Hawkeye state
CPU 6 Bimodal branch predictor
Initialize Hawkeye state
Initialize Hawkeye state
Initialize Hawkeye state
Initialize Hawkeye state
Initialize Hawkeye state
Initialize Hawkeye state
Initialize Hawkeye state
Initialize Hawkeye state
CPU 7 Bimodal branch predictor
Initialize Hawkeye state
Initialize Hawkeye state
Initialize Hawkeye state
Initialize Hawkeye state
Initialize Hawkeye state
Initialize Hawkeye state
Initialize Hawkeye state
Initialize Hawkeye state
Heartbeat CPU 6 instructions: 10000003 cycles: 4250756 heartbeat IPC: 2.35252 cumulative IPC: 2.35252 (Simulation time: 3 hr 33 min 1 sec) 
 Total Blocks : 262144 Invalid Blocks : 41636
Heartbeat CPU 5 instructions: 10000003 cycles: 4250760 heartbeat IPC: 2.35252 cumulative IPC: 2.35252 (Simulation time: 3 hr 33 min 7 sec) 
 Total Blocks : 262144 Invalid Blocks : 41636
Heartbeat CPU 7 instructions: 10000003 cycles: 4250789 heartbeat IPC: 2.35251 cumulative IPC: 2.35251 (Simulation time: 3 hr 33 min 8 sec) 
 Total Blocks : 262144 Invalid Blocks : 41635
Heartbeat CPU 1 instructions: 10000003 cycles: 4250880 heartbeat IPC: 2.35245 cumulative IPC: 2.35245 (Simulation time: 3 hr 33 min 9 sec) 
 Total Blocks : 262144 Invalid Blocks : 41634
Heartbeat CPU 0 instructions: 10000003 cycles: 4251050 heartbeat IPC: 2.35236 cumulative IPC: 2.35236 (Simulation time: 3 hr 33 min 9 sec) 
 Total Blocks : 262144 Invalid Blocks : 41634
Heartbeat CPU 4 instructions: 10000003 cycles: 4251305 heartbeat IPC: 2.35222 cumulative IPC: 2.35222 (Simulation time: 3 hr 33 min 13 sec) 
 Total Blocks : 262144 Invalid Blocks : 41633
Heartbeat CPU 2 instructions: 10000003 cycles: 4251324 heartbeat IPC: 2.35221 cumulative IPC: 2.35221 (Simulation time: 3 hr 33 min 13 sec) 
 Total Blocks : 262144 Invalid Blocks : 41632
Heartbeat CPU 3 instructions: 10000003 cycles: 4251345 heartbeat IPC: 2.3522 cumulative IPC: 2.3522 (Simulation time: 3 hr 33 min 13 sec) 
 Total Blocks : 262144 Invalid Blocks : 41631
Heartbeat CPU 6 instructions: 20000002 cycles: 8501210 heartbeat IPC: 2.35269 cumulative IPC: 2.35261 (Simulation time: 6 hr 49 min 50 sec) 
 Total Blocks : 262144 Invalid Blocks : 17306
Heartbeat CPU 5 instructions: 20000002 cycles: 8501224 heartbeat IPC: 2.35268 cumulative IPC: 2.3526 (Simulation time: 6 hr 49 min 57 sec) 
 Total Blocks : 262144 Invalid Blocks : 17306
Heartbeat CPU 7 instructions: 20000002 cycles: 8501259 heartbeat IPC: 2.35268 cumulative IPC: 2.35259 (Simulation time: 6 hr 49 min 58 sec) 
 Total Blocks : 262144 Invalid Blocks : 17306
Heartbeat CPU 1 instructions: 20000002 cycles: 8501430 heartbeat IPC: 2.35264 cumulative IPC: 2.35255 (Simulation time: 6 hr 49 min 58 sec) 
 Total Blocks : 262144 Invalid Blocks : 17306
Heartbeat CPU 0 instructions: 20000002 cycles: 8501853 heartbeat IPC: 2.3525 cumulative IPC: 2.35243 (Simulation time: 6 hr 50 min 0 sec) 
 Total Blocks : 262144 Invalid Blocks : 17305
Heartbeat CPU 4 instructions: 20000002 cycles: 8502389 heartbeat IPC: 2.35234 cumulative IPC: 2.35228 (Simulation time: 6 hr 50 min 2 sec) 
 Total Blocks : 262144 Invalid Blocks : 17305
Heartbeat CPU 2 instructions: 20000002 cycles: 8502399 heartbeat IPC: 2.35235 cumulative IPC: 2.35228 (Simulation time: 6 hr 50 min 2 sec) 
 Total Blocks : 262144 Invalid Blocks : 17305
Heartbeat CPU 3 instructions: 20000002 cycles: 8502435 heartbeat IPC: 2.35234 cumulative IPC: 2.35227 (Simulation time: 6 hr 50 min 2 sec) 
 Total Blocks : 262144 Invalid Blocks : 17305
Heartbeat CPU 6 instructions: 30000000 cycles: 12751645 heartbeat IPC: 2.3527 cumulative IPC: 2.35264 (Simulation time: 9 hr 54 min 12 sec) 
 Total Blocks : 262144 Invalid Blocks : 9895
Heartbeat CPU 5 instructions: 30000000 cycles: 12751656 heartbeat IPC: 2.3527 cumulative IPC: 2.35264 (Simulation time: 9 hr 54 min 18 sec) 
 Total Blocks : 262144 Invalid Blocks : 9895
Heartbeat CPU 7 instructions: 30000000 cycles: 12751705 heartbeat IPC: 2.35269 cumulative IPC: 2.35263 (Simulation time: 9 hr 54 min 18 sec) 
 Total Blocks : 262144 Invalid Blocks : 9895
Heartbeat CPU 1 instructions: 30000000 cycles: 12751977 heartbeat IPC: 2.35264 cumulative IPC: 2.35258 (Simulation time: 9 hr 54 min 19 sec) 
 Total Blocks : 262144 Invalid Blocks : 9895
Heartbeat CPU 0 instructions: 30000000 cycles: 12752612 heartbeat IPC: 2.35252 cumulative IPC: 2.35246 (Simulation time: 9 hr 54 min 22 sec) 
 Total Blocks : 262144 Invalid Blocks : 9895
Heartbeat CPU 4 instructions: 30000000 cycles: 12753517 heartbeat IPC: 2.35232 cumulative IPC: 2.35229 (Simulation time: 9 hr 54 min 30 sec) 
 Total Blocks : 262144 Invalid Blocks : 9895
Heartbeat CPU 2 instructions: 30000000 cycles: 12753525 heartbeat IPC: 2.35232 cumulative IPC: 2.35229 (Simulation time: 9 hr 54 min 30 sec) 
 Total Blocks : 262144 Invalid Blocks : 9895
Heartbeat CPU 3 instructions: 30000000 cycles: 12753584 heartbeat IPC: 2.3523 cumulative IPC: 2.35228 (Simulation time: 9 hr 54 min 30 sec) 
 Total Blocks : 262144 Invalid Blocks : 9895
Heartbeat CPU 6 instructions: 40000003 cycles: 17002321 heartbeat IPC: 2.35257 cumulative IPC: 2.35262 (Simulation time: 12 hr 42 min 52 sec) 
 Total Blocks : 262144 Invalid Blocks : 7188
Heartbeat CPU 5 instructions: 40000003 cycles: 17002380 heartbeat IPC: 2.35254 cumulative IPC: 2.35261 (Simulation time: 12 hr 42 min 56 sec) 
 Total Blocks : 262144 Invalid Blocks : 7188
Heartbeat CPU 7 instructions: 40000003 cycles: 17002408 heartbeat IPC: 2.35255 cumulative IPC: 2.35261 (Simulation time: 12 hr 42 min 56 sec) 
 Total Blocks : 262144 Invalid Blocks : 7188
Heartbeat CPU 1 instructions: 40000003 cycles: 17002758 heartbeat IPC: 2.35251 cumulative IPC: 2.35256 (Simulation time: 12 hr 42 min 57 sec) 
 Total Blocks : 262144 Invalid Blocks : 7188
Heartbeat CPU 0 instructions: 40000003 cycles: 17003618 heartbeat IPC: 2.35239 cumulative IPC: 2.35244 (Simulation time: 12 hr 42 min 59 sec) 
 Total Blocks : 262144 Invalid Blocks : 7188
Heartbeat CPU 4 instructions: 40000003 cycles: 17004871 heartbeat IPC: 2.35219 cumulative IPC: 2.35227 (Simulation time: 12 hr 43 min 1 sec) 
 Total Blocks : 262144 Invalid Blocks : 7187
Heartbeat CPU 2 instructions: 40000003 cycles: 17004875 heartbeat IPC: 2.35219 cumulative IPC: 2.35227 (Simulation time: 12 hr 43 min 1 sec) 
 Total Blocks : 262144 Invalid Blocks : 7187
Heartbeat CPU 3 instructions: 40000003 cycles: 17004947 heartbeat IPC: 2.35219 cumulative IPC: 2.35226 (Simulation time: 12 hr 43 min 1 sec) 
 Total Blocks : 262144 Invalid Blocks : 7187
Heartbeat CPU 6 instructions: 50000001 cycles: 21252712 heartbeat IPC: 2.35272 cumulative IPC: 2.35264 (Simulation time: 15 hr 13 min 15 sec) 
 Total Blocks : 262144 Invalid Blocks : 5459
Heartbeat CPU 5 instructions: 50000001 cycles: 21252768 heartbeat IPC: 2.35273 cumulative IPC: 2.35263 (Simulation time: 15 hr 13 min 20 sec) 
 Total Blocks : 262144 Invalid Blocks : 5459
Heartbeat CPU 7 instructions: 50000001 cycles: 21252797 heartbeat IPC: 2.35273 cumulative IPC: 2.35263 (Simulation time: 15 hr 13 min 20 sec) 
 Total Blocks : 262144 Invalid Blocks : 5459
Heartbeat CPU 1 instructions: 50000001 cycles: 21253245 heartbeat IPC: 2.35267 cumulative IPC: 2.35258 (Simulation time: 15 hr 13 min 26 sec) 
 Total Blocks : 262144 Invalid Blocks : 5456
Heartbeat CPU 0 instructions: 50000001 cycles: 21254338 heartbeat IPC: 2.35254 cumulative IPC: 2.35246 (Simulation time: 15 hr 13 min 30 sec) 
 Total Blocks : 262144 Invalid Blocks : 5453
Heartbeat CPU 4 instructions: 50000001 cycles: 21255901 heartbeat IPC: 2.35237 cumulative IPC: 2.35229 (Simulation time: 15 hr 13 min 36 sec) 
 Total Blocks : 262144 Invalid Blocks : 5446
Heartbeat CPU 2 instructions: 50000001 cycles: 21255915 heartbeat IPC: 2.35237 cumulative IPC: 2.35229 (Simulation time: 15 hr 13 min 36 sec) 
 Total Blocks : 262144 Invalid Blocks : 5446
Heartbeat CPU 3 instructions: 50000001 cycles: 21256000 heartbeat IPC: 2.35236 cumulative IPC: 2.35228 (Simulation time: 15 hr 13 min 36 sec) 
 Total Blocks : 262144 Invalid Blocks : 5446
Heartbeat CPU 6 instructions: 60000000 cycles: 25503185 heartbeat IPC: 2.35268 cumulative IPC: 2.35265 (Simulation time: 17 hr 32 min 37 sec) 
 Total Blocks : 262144 Invalid Blocks : 3931
Heartbeat CPU 5 instructions: 60000000 cycles: 25503232 heartbeat IPC: 2.35268 cumulative IPC: 2.35264 (Simulation time: 17 hr 32 min 40 sec) 
 Total Blocks : 262144 Invalid Blocks : 3931
Heartbeat CPU 7 instructions: 60000000 cycles: 25503303 heartbeat IPC: 2.35266 cumulative IPC: 2.35264 (Simulation time: 17 hr 32 min 40 sec) 
 Total Blocks : 262144 Invalid Blocks : 3931
Heartbeat CPU 1 instructions: 60000000 cycles: 25503819 heartbeat IPC: 2.35262 cumulative IPC: 2.35259 (Simulation time: 17 hr 32 min 41 sec) 
 Total Blocks : 262144 Invalid Blocks : 3931
Heartbeat CPU 0 instructions: 60000000 cycles: 25505187 heartbeat IPC: 2.35247 cumulative IPC: 2.35246 (Simulation time: 17 hr 32 min 43 sec) 
 Total Blocks : 262144 Invalid Blocks : 3931
Heartbeat CPU 2 instructions: 60000000 cycles: 25506677 heartbeat IPC: 2.35252 cumulative IPC: 2.35233 (Simulation time: 17 hr 32 min 45 sec) 
 Total Blocks : 262144 Invalid Blocks : 3931
Heartbeat CPU 4 instructions: 60000000 cycles: 25506786 heartbeat IPC: 2.35245 cumulative IPC: 2.35232 (Simulation time: 17 hr 32 min 45 sec) 
 Total Blocks : 262144 Invalid Blocks : 3931
Heartbeat CPU 3 instructions: 60000000 cycles: 25506998 heartbeat IPC: 2.35239 cumulative IPC: 2.3523 (Simulation time: 17 hr 32 min 45 sec) 
 Total Blocks : 262144 Invalid Blocks : 3931
Heartbeat CPU 6 instructions: 70000001 cycles: 29753733 heartbeat IPC: 2.35264 cumulative IPC: 2.35265 (Simulation time: 19 hr 40 min 1 sec) 
 Total Blocks : 262144 Invalid Blocks : 3037
Heartbeat CPU 5 instructions: 70000001 cycles: 29753781 heartbeat IPC: 2.35264 cumulative IPC: 2.35264 (Simulation time: 19 hr 40 min 5 sec) 
 Total Blocks : 262144 Invalid Blocks : 3037
Heartbeat CPU 7 instructions: 70000001 cycles: 29753875 heartbeat IPC: 2.35262 cumulative IPC: 2.35263 (Simulation time: 19 hr 40 min 5 sec) 
 Total Blocks : 262144 Invalid Blocks : 3037
Heartbeat CPU 1 instructions: 70000001 cycles: 29754583 heartbeat IPC: 2.35252 cumulative IPC: 2.35258 (Simulation time: 19 hr 40 min 8 sec) 
 Total Blocks : 262144 Invalid Blocks : 3037
Heartbeat CPU 0 instructions: 70000001 cycles: 29756074 heartbeat IPC: 2.35245 cumulative IPC: 2.35246 (Simulation time: 19 hr 40 min 9 sec) 
 Total Blocks : 262144 Invalid Blocks : 3037
Heartbeat CPU 2 instructions: 70000001 cycles: 29757588 heartbeat IPC: 2.35244 cumulative IPC: 2.35234 (Simulation time: 19 hr 40 min 11 sec) 
 Total Blocks : 262144 Invalid Blocks : 3037
Heartbeat CPU 4 instructions: 70000001 cycles: 29757803 heartbeat IPC: 2.35238 cumulative IPC: 2.35232 (Simulation time: 19 hr 40 min 11 sec) 
 Total Blocks : 262144 Invalid Blocks : 3037
Heartbeat CPU 3 instructions: 70000001 cycles: 29757995 heartbeat IPC: 2.35239 cumulative IPC: 2.35231 (Simulation time: 19 hr 40 min 11 sec) 
 Total Blocks : 262144 Invalid Blocks : 3037
Heartbeat CPU 6 instructions: 80000001 cycles: 34004288 heartbeat IPC: 2.35263 cumulative IPC: 2.35264 (Simulation time: 21 hr 48 min 5 sec) 
 Total Blocks : 262144 Invalid Blocks : 2586
Heartbeat CPU 5 instructions: 80000001 cycles: 34004329 heartbeat IPC: 2.35264 cumulative IPC: 2.35264 (Simulation time: 21 hr 48 min 7 sec) 
 Total Blocks : 262144 Invalid Blocks : 2586
Heartbeat CPU 7 instructions: 80000001 cycles: 34004405 heartbeat IPC: 2.35265 cumulative IPC: 2.35264 (Simulation time: 21 hr 48 min 7 sec) 
 Total Blocks : 262144 Invalid Blocks : 2586
Heartbeat CPU 1 instructions: 80000001 cycles: 34005423 heartbeat IPC: 2.35248 cumulative IPC: 2.35257 (Simulation time: 21 hr 48 min 8 sec) 
 Total Blocks : 262144 Invalid Blocks : 2586
Heartbeat CPU 0 instructions: 80000001 cycles: 34006927 heartbeat IPC: 2.35247 cumulative IPC: 2.35246 (Simulation time: 21 hr 48 min 11 sec) 
 Total Blocks : 262144 Invalid Blocks : 2586
Heartbeat CPU 2 instructions: 80000001 cycles: 34008480 heartbeat IPC: 2.35245 cumulative IPC: 2.35235 (Simulation time: 21 hr 48 min 13 sec) 
 Total Blocks : 262144 Invalid Blocks : 2586
Heartbeat CPU 4 instructions: 80000001 cycles: 34008865 heartbeat IPC: 2.35235 cumulative IPC: 2.35233 (Simulation time: 21 hr 48 min 14 sec) 
 Total Blocks : 262144 Invalid Blocks : 2586
Heartbeat CPU 3 instructions: 80000001 cycles: 34008935 heartbeat IPC: 2.35242 cumulative IPC: 2.35232 (Simulation time: 21 hr 48 min 14 sec) 
 Total Blocks : 262144 Invalid Blocks : 2586
Heartbeat CPU 6 instructions: 90000003 cycles: 38254741 heartbeat IPC: 2.35269 cumulative IPC: 2.35265 (Simulation time: 23 hr 50 min 28 sec) 
 Total Blocks : 262144 Invalid Blocks : 2259
Heartbeat CPU 5 instructions: 90000003 cycles: 38254772 heartbeat IPC: 2.3527 cumulative IPC: 2.35265 (Simulation time: 23 hr 50 min 30 sec) 
 Total Blocks : 262144 Invalid Blocks : 2259
Heartbeat CPU 7 instructions: 90000003 cycles: 38254845 heartbeat IPC: 2.3527 cumulative IPC: 2.35264 (Simulation time: 23 hr 50 min 30 sec) 
 Total Blocks : 262144 Invalid Blocks : 2259
Heartbeat CPU 1 instructions: 90000003 cycles: 38256150 heartbeat IPC: 2.35254 cumulative IPC: 2.35256 (Simulation time: 23 hr 50 min 33 sec) 
 Total Blocks : 262144 Invalid Blocks : 2259
Heartbeat CPU 0 instructions: 90000003 cycles: 38257708 heartbeat IPC: 2.35251 cumulative IPC: 2.35247 (Simulation time: 23 hr 50 min 35 sec) 
 Total Blocks : 262144 Invalid Blocks : 2259
Heartbeat CPU 2 instructions: 90000003 cycles: 38259239 heartbeat IPC: 2.35252 cumulative IPC: 2.35237 (Simulation time: 23 hr 50 min 36 sec) 
 Total Blocks : 262144 Invalid Blocks : 2259
Heartbeat CPU 4 instructions: 90000003 cycles: 38259817 heartbeat IPC: 2.35241 cumulative IPC: 2.35234 (Simulation time: 23 hr 50 min 36 sec) 
 Total Blocks : 262144 Invalid Blocks : 2259
Heartbeat CPU 3 instructions: 90000003 cycles: 38259829 heartbeat IPC: 2.35245 cumulative IPC: 2.35234 (Simulation time: 23 hr 50 min 36 sec) 
 Total Blocks : 262144 Invalid Blocks : 2259
Heartbeat CPU 6 instructions: 100000002 cycles: 42505375 heartbeat IPC: 2.35259 cumulative IPC: 2.35264 (Simulation time: 25 hr 51 min 47 sec) 
 Total Blocks : 262144 Invalid Blocks : 1753
Heartbeat CPU 5 instructions: 100000002 cycles: 42505406 heartbeat IPC: 2.35259 cumulative IPC: 2.35264 (Simulation time: 25 hr 51 min 50 sec) 
 Total Blocks : 262144 Invalid Blocks : 1753
Heartbeat CPU 7 instructions: 100000002 cycles: 42505485 heartbeat IPC: 2.35259 cumulative IPC: 2.35264 (Simulation time: 25 hr 51 min 50 sec) 
 Total Blocks : 262144 Invalid Blocks : 1753
Heartbeat CPU 1 instructions: 100000002 cycles: 42507070 heartbeat IPC: 2.35243 cumulative IPC: 2.35255 (Simulation time: 25 hr 51 min 52 sec) 
 Total Blocks : 262144 Invalid Blocks : 1753
Heartbeat CPU 0 instructions: 100000002 cycles: 42508643 heartbeat IPC: 2.35242 cumulative IPC: 2.35246 (Simulation time: 25 hr 51 min 54 sec) 
 Total Blocks : 262144 Invalid Blocks : 1753
Heartbeat CPU 2 instructions: 100000002 cycles: 42510144 heartbeat IPC: 2.35244 cumulative IPC: 2.35238 (Simulation time: 25 hr 52 min 3 sec) 
 Total Blocks : 262144 Invalid Blocks : 1753
Heartbeat CPU 4 instructions: 100000002 cycles: 42510891 heartbeat IPC: 2.35235 cumulative IPC: 2.35234 (Simulation time: 25 hr 52 min 5 sec) 
 Total Blocks : 262144 Invalid Blocks : 1753
Heartbeat CPU 3 instructions: 100000002 cycles: 42510907 heartbeat IPC: 2.35234 cumulative IPC: 2.35234 (Simulation time: 25 hr 52 min 5 sec) 
 Total Blocks : 262144 Invalid Blocks : 1753
Heartbeat CPU 6 instructions: 110000000 cycles: 46755814 heartbeat IPC: 2.3527 cumulative IPC: 2.35265 (Simulation time: 27 hr 55 min 40 sec) 
 Total Blocks : 262144 Invalid Blocks : 1494
Heartbeat CPU 5 instructions: 110000000 cycles: 46755815 heartbeat IPC: 2.35271 cumulative IPC: 2.35265 (Simulation time: 27 hr 55 min 42 sec) 
 Total Blocks : 262144 Invalid Blocks : 1494
Heartbeat CPU 7 instructions: 110000000 cycles: 46755928 heartbeat IPC: 2.3527 cumulative IPC: 2.35264 (Simulation time: 27 hr 55 min 42 sec) 
 Total Blocks : 262144 Invalid Blocks : 1494
Heartbeat CPU 1 instructions: 110000000 cycles: 46757778 heartbeat IPC: 2.35255 cumulative IPC: 2.35255 (Simulation time: 27 hr 55 min 44 sec) 
 Total Blocks : 262144 Invalid Blocks : 1494
Heartbeat CPU 0 instructions: 110000000 cycles: 46759371 heartbeat IPC: 2.35254 cumulative IPC: 2.35247 (Simulation time: 27 hr 55 min 46 sec) 
 Total Blocks : 262144 Invalid Blocks : 1494
Heartbeat CPU 2 instructions: 110000000 cycles: 46760852 heartbeat IPC: 2.35255 cumulative IPC: 2.3524 (Simulation time: 27 hr 55 min 47 sec) 
 Total Blocks : 262144 Invalid Blocks : 1494
Heartbeat CPU 4 instructions: 110000000 cycles: 46761799 heartbeat IPC: 2.35244 cumulative IPC: 2.35235 (Simulation time: 27 hr 55 min 48 sec) 
 Total Blocks : 262144 Invalid Blocks : 1494
Heartbeat CPU 3 instructions: 110000000 cycles: 46761813 heartbeat IPC: 2.35244 cumulative IPC: 2.35235 (Simulation time: 27 hr 55 min 48 sec) 
 Total Blocks : 262144 Invalid Blocks : 1494
Heartbeat CPU 5 instructions: 120000001 cycles: 51006353 heartbeat IPC: 2.35264 cumulative IPC: 2.35265 (Simulation time: 29 hr 57 min 58 sec) 
 Total Blocks : 262144 Invalid Blocks : 1206
Heartbeat CPU 6 instructions: 120000001 cycles: 51006364 heartbeat IPC: 2.35264 cumulative IPC: 2.35265 (Simulation time: 29 hr 58 min 0 sec) 
 Total Blocks : 262144 Invalid Blocks : 1206
Heartbeat CPU 7 instructions: 120000001 cycles: 51006494 heartbeat IPC: 2.35263 cumulative IPC: 2.35264 (Simulation time: 29 hr 58 min 0 sec) 
 Total Blocks : 262144 Invalid Blocks : 1206
Heartbeat CPU 1 instructions: 120000001 cycles: 51008612 heartbeat IPC: 2.35248 cumulative IPC: 2.35254 (Simulation time: 29 hr 58 min 3 sec) 
 Total Blocks : 262144 Invalid Blocks : 1206
Heartbeat CPU 0 instructions: 120000001 cycles: 51010231 heartbeat IPC: 2.35247 cumulative IPC: 2.35247 (Simulation time: 29 hr 58 min 4 sec) 
 Total Blocks : 262144 Invalid Blocks : 1206
Heartbeat CPU 2 instructions: 120000001 cycles: 51011720 heartbeat IPC: 2.35246 cumulative IPC: 2.3524 (Simulation time: 29 hr 58 min 6 sec) 
 Total Blocks : 262144 Invalid Blocks : 1206
Heartbeat CPU 3 instructions: 120000001 cycles: 51012589 heartbeat IPC: 2.35251 cumulative IPC: 2.35236 (Simulation time: 29 hr 58 min 7 sec) 
 Total Blocks : 262144 Invalid Blocks : 1206
Heartbeat CPU 4 instructions: 120000001 cycles: 51012847 heartbeat IPC: 2.35236 cumulative IPC: 2.35235 (Simulation time: 29 hr 58 min 7 sec) 
 Total Blocks : 262144 Invalid Blocks : 1206
Heartbeat CPU 6 instructions: 130000002 cycles: 55257019 heartbeat IPC: 2.35258 cumulative IPC: 2.35264 (Simulation time: 32 hr 0 min 20 sec) 
 Total Blocks : 262144 Invalid Blocks : 1024
Heartbeat CPU 5 instructions: 130000002 cycles: 55257025 heartbeat IPC: 2.35257 cumulative IPC: 2.35264 (Simulation time: 32 hr 0 min 22 sec) 
 Total Blocks : 262144 Invalid Blocks : 1024
Heartbeat CPU 7 instructions: 130000002 cycles: 55257115 heartbeat IPC: 2.3526 cumulative IPC: 2.35264 (Simulation time: 32 hr 0 min 22 sec) 
 Total Blocks : 262144 Invalid Blocks : 1024
Heartbeat CPU 1 instructions: 130000002 cycles: 55259503 heartbeat IPC: 2.35245 cumulative IPC: 2.35254 (Simulation time: 32 hr 0 min 25 sec) 
 Total Blocks : 262144 Invalid Blocks : 1024
Heartbeat CPU 0 instructions: 130000002 cycles: 55261168 heartbeat IPC: 2.35242 cumulative IPC: 2.35247 (Simulation time: 32 hr 0 min 27 sec) 
 Total Blocks : 262144 Invalid Blocks : 1024
Heartbeat CPU 2 instructions: 130000002 cycles: 55262802 heartbeat IPC: 2.35234 cumulative IPC: 2.3524 (Simulation time: 32 hr 0 min 29 sec) 
 Total Blocks : 262144 Invalid Blocks : 1024
Heartbeat CPU 3 instructions: 130000002 cycles: 55263745 heartbeat IPC: 2.3523 cumulative IPC: 2.35236 (Simulation time: 32 hr 0 min 30 sec) 
 Total Blocks : 262144 Invalid Blocks : 1024
Heartbeat CPU 4 instructions: 130000002 cycles: 55264108 heartbeat IPC: 2.35224 cumulative IPC: 2.35234 (Simulation time: 32 hr 0 min 30 sec) 
 Total Blocks : 262144 Invalid Blocks : 1024
Heartbeat CPU 6 instructions: 140000003 cycles: 59507577 heartbeat IPC: 2.35263 cumulative IPC: 2.35264 (Simulation time: 34 hr 0 min 58 sec) 
 Total Blocks : 262144 Invalid Blocks : 861
Heartbeat CPU 5 instructions: 140000003 cycles: 59507584 heartbeat IPC: 2.35263 cumulative IPC: 2.35264 (Simulation time: 34 hr 1 min 0 sec) 
 Total Blocks : 262144 Invalid Blocks : 861
Heartbeat CPU 7 instructions: 140000003 cycles: 59507679 heartbeat IPC: 2.35263 cumulative IPC: 2.35264 (Simulation time: 34 hr 1 min 1 sec) 
 Total Blocks : 262144 Invalid Blocks : 861
Heartbeat CPU 1 instructions: 140000003 cycles: 59510313 heartbeat IPC: 2.35249 cumulative IPC: 2.35253 (Simulation time: 34 hr 1 min 4 sec) 
 Total Blocks : 262144 Invalid Blocks : 861
Heartbeat CPU 0 instructions: 140000003 cycles: 59512008 heartbeat IPC: 2.35248 cumulative IPC: 2.35247 (Simulation time: 34 hr 1 min 8 sec) 
 Total Blocks : 262144 Invalid Blocks : 861
Heartbeat CPU 2 instructions: 140000003 cycles: 59513834 heartbeat IPC: 2.35237 cumulative IPC: 2.35239 (Simulation time: 34 hr 1 min 10 sec) 
 Total Blocks : 262144 Invalid Blocks : 861
Heartbeat CPU 3 instructions: 140000003 cycles: 59514841 heartbeat IPC: 2.35233 cumulative IPC: 2.35235 (Simulation time: 34 hr 1 min 11 sec) 
 Total Blocks : 262144 Invalid Blocks : 861
Heartbeat CPU 4 instructions: 140000003 cycles: 59515165 heartbeat IPC: 2.35236 cumulative IPC: 2.35234 (Simulation time: 34 hr 1 min 11 sec) 
 Total Blocks : 262144 Invalid Blocks : 861
Heartbeat CPU 6 instructions: 150000002 cycles: 63757926 heartbeat IPC: 2.35275 cumulative IPC: 2.35265 (Simulation time: 36 hr 0 min 26 sec) 
 Total Blocks : 262144 Invalid Blocks : 763
Heartbeat CPU 5 instructions: 150000002 cycles: 63757966 heartbeat IPC: 2.35273 cumulative IPC: 2.35265 (Simulation time: 36 hr 0 min 28 sec) 
 Total Blocks : 262144 Invalid Blocks : 763
Heartbeat CPU 7 instructions: 150000002 cycles: 63758049 heartbeat IPC: 2.35274 cumulative IPC: 2.35264 (Simulation time: 36 hr 0 min 28 sec) 
 Total Blocks : 262144 Invalid Blocks : 763
Heartbeat CPU 1 instructions: 150000002 cycles: 63760952 heartbeat IPC: 2.35259 cumulative IPC: 2.35254 (Simulation time: 36 hr 0 min 31 sec) 
 Total Blocks : 262144 Invalid Blocks : 763
Heartbeat CPU 0 instructions: 150000002 cycles: 63762699 heartbeat IPC: 2.35256 cumulative IPC: 2.35247 (Simulation time: 36 hr 0 min 33 sec) 
 Total Blocks : 262144 Invalid Blocks : 763
Heartbeat CPU 2 instructions: 150000002 cycles: 63764859 heartbeat IPC: 2.35237 cumulative IPC: 2.35239 (Simulation time: 36 hr 0 min 35 sec) 
 Total Blocks : 262144 Invalid Blocks : 763
Heartbeat CPU 3 instructions: 150000002 cycles: 63765899 heartbeat IPC: 2.35236 cumulative IPC: 2.35235 (Simulation time: 36 hr 0 min 36 sec) 
 Total Blocks : 262144 Invalid Blocks : 763
Heartbeat CPU 4 instructions: 150000002 cycles: 63766216 heartbeat IPC: 2.35236 cumulative IPC: 2.35234 (Simulation time: 36 hr 0 min 36 sec) 
 Total Blocks : 262144 Invalid Blocks : 763
Heartbeat CPU 6 instructions: 160000003 cycles: 68008526 heartbeat IPC: 2.35261 cumulative IPC: 2.35265 (Simulation time: 37 hr 59 min 59 sec) 
 Total Blocks : 262144 Invalid Blocks : 681
Heartbeat CPU 5 instructions: 160000003 cycles: 68008589 heartbeat IPC: 2.3526 cumulative IPC: 2.35264 (Simulation time: 38 hr 0 min 22 sec) 
 Total Blocks : 262144 Invalid Blocks : 681
Heartbeat CPU 7 instructions: 160000003 cycles: 68008660 heartbeat IPC: 2.3526 cumulative IPC: 2.35264 (Simulation time: 38 hr 0 min 28 sec) 
 Total Blocks : 262144 Invalid Blocks : 681
Heartbeat CPU 1 instructions: 160000003 cycles: 68011749 heartbeat IPC: 2.3525 cumulative IPC: 2.35253 (Simulation time: 38 hr 0 min 38 sec) 
 Total Blocks : 262144 Invalid Blocks : 681
Heartbeat CPU 0 instructions: 160000003 cycles: 68013626 heartbeat IPC: 2.35243 cumulative IPC: 2.35247 (Simulation time: 38 hr 0 min 43 sec) 
 Total Blocks : 262144 Invalid Blocks : 679
Heartbeat CPU 2 instructions: 160000003 cycles: 68016156 heartbeat IPC: 2.35222 cumulative IPC: 2.35238 (Simulation time: 38 hr 0 min 46 sec) 
 Total Blocks : 262144 Invalid Blocks : 676
Heartbeat CPU 3 instructions: 160000003 cycles: 68017166 heartbeat IPC: 2.35224 cumulative IPC: 2.35235 (Simulation time: 38 hr 0 min 47 sec) 
 Total Blocks : 262144 Invalid Blocks : 676
Heartbeat CPU 4 instructions: 160000003 cycles: 68017478 heartbeat IPC: 2.35224 cumulative IPC: 2.35234 (Simulation time: 38 hr 0 min 47 sec) 
 Total Blocks : 262144 Invalid Blocks : 676
Heartbeat CPU 6 instructions: 170000001 cycles: 72259058 heartbeat IPC: 2.35265 cumulative IPC: 2.35265 (Simulation time: 39 hr 58 min 57 sec) 
 Total Blocks : 262144 Invalid Blocks : 590
Heartbeat CPU 5 instructions: 170000001 cycles: 72259116 heartbeat IPC: 2.35265 cumulative IPC: 2.35264 (Simulation time: 39 hr 58 min 59 sec) 
 Total Blocks : 262144 Invalid Blocks : 590
Heartbeat CPU 7 instructions: 170000001 cycles: 72259192 heartbeat IPC: 2.35265 cumulative IPC: 2.35264 (Simulation time: 39 hr 58 min 59 sec) 
 Total Blocks : 262144 Invalid Blocks : 590
Heartbeat CPU 1 instructions: 170000001 cycles: 72262306 heartbeat IPC: 2.35263 cumulative IPC: 2.35254 (Simulation time: 39 hr 59 min 3 sec) 
 Total Blocks : 262144 Invalid Blocks : 590
Heartbeat CPU 0 instructions: 170000001 cycles: 72264496 heartbeat IPC: 2.35246 cumulative IPC: 2.35247 (Simulation time: 39 hr 59 min 6 sec) 
 Total Blocks : 262144 Invalid Blocks : 589
Heartbeat CPU 2 instructions: 170000001 cycles: 72267332 heartbeat IPC: 2.35229 cumulative IPC: 2.35238 (Simulation time: 39 hr 59 min 9 sec) 
 Total Blocks : 262144 Invalid Blocks : 589
Heartbeat CPU 3 instructions: 170000001 cycles: 72268440 heartbeat IPC: 2.35224 cumulative IPC: 2.35234 (Simulation time: 39 hr 59 min 10 sec) 
 Total Blocks : 262144 Invalid Blocks : 589
Heartbeat CPU 4 instructions: 170000001 cycles: 72268548 heartbeat IPC: 2.35235 cumulative IPC: 2.35234 (Simulation time: 39 hr 59 min 10 sec) 
 Total Blocks : 262144 Invalid Blocks : 589
Heartbeat CPU 6 instructions: 180000000 cycles: 76509487 heartbeat IPC: 2.3527 cumulative IPC: 2.35265 (Simulation time: 42 hr 1 min 35 sec) 
 Total Blocks : 262144 Invalid Blocks : 535
Heartbeat CPU 5 instructions: 180000000 cycles: 76509521 heartbeat IPC: 2.35272 cumulative IPC: 2.35265 (Simulation time: 42 hr 1 min 38 sec) 
 Total Blocks : 262144 Invalid Blocks : 535
Heartbeat CPU 7 instructions: 180000000 cycles: 76509655 heartbeat IPC: 2.35268 cumulative IPC: 2.35264 (Simulation time: 42 hr 1 min 38 sec) 
 Total Blocks : 262144 Invalid Blocks : 535
Heartbeat CPU 1 instructions: 180000000 cycles: 76513005 heartbeat IPC: 2.35255 cumulative IPC: 2.35254 (Simulation time: 42 hr 1 min 43 sec) 
 Total Blocks : 262144 Invalid Blocks : 535
Heartbeat CPU 0 instructions: 180000000 cycles: 76515252 heartbeat IPC: 2.35252 cumulative IPC: 2.35247 (Simulation time: 42 hr 1 min 51 sec) 
 Total Blocks : 262144 Invalid Blocks : 535
Heartbeat CPU 2 instructions: 180000000 cycles: 76518393 heartbeat IPC: 2.35235 cumulative IPC: 2.35238 (Simulation time: 42 hr 2 min 0 sec) 
 Total Blocks : 262144 Invalid Blocks : 535
Heartbeat CPU 3 instructions: 180000000 cycles: 76519382 heartbeat IPC: 2.35242 cumulative IPC: 2.35235 (Simulation time: 42 hr 2 min 5 sec) 
 Total Blocks : 262144 Invalid Blocks : 535
Heartbeat CPU 4 instructions: 180000000 cycles: 76519461 heartbeat IPC: 2.35244 cumulative IPC: 2.35234 (Simulation time: 42 hr 2 min 5 sec) 
 Total Blocks : 262144 Invalid Blocks : 535
Heartbeat CPU 6 instructions: 190000003 cycles: 80760094 heartbeat IPC: 2.35261 cumulative IPC: 2.35265 (Simulation time: 44 hr 3 min 37 sec) 
 Total Blocks : 262144 Invalid Blocks : 464
Heartbeat CPU 5 instructions: 190000003 cycles: 80760126 heartbeat IPC: 2.35261 cumulative IPC: 2.35265 (Simulation time: 44 hr 3 min 56 sec) 
 Total Blocks : 262144 Invalid Blocks : 464
Heartbeat CPU 7 instructions: 190000003 cycles: 80760276 heartbeat IPC: 2.3526 cumulative IPC: 2.35264 (Simulation time: 44 hr 3 min 56 sec) 
 Total Blocks : 262144 Invalid Blocks : 464
Heartbeat CPU 1 instructions: 190000003 cycles: 80763875 heartbeat IPC: 2.35246 cumulative IPC: 2.35254 (Simulation time: 44 hr 4 min 3 sec) 
 Total Blocks : 262144 Invalid Blocks : 464
Heartbeat CPU 0 instructions: 190000003 cycles: 80766156 heartbeat IPC: 2.35244 cumulative IPC: 2.35247 (Simulation time: 44 hr 4 min 8 sec) 
 Total Blocks : 262144 Invalid Blocks : 464
Heartbeat CPU 2 instructions: 190000003 cycles: 80769621 heartbeat IPC: 2.35226 cumulative IPC: 2.35237 (Simulation time: 44 hr 4 min 13 sec) 
 Total Blocks : 262144 Invalid Blocks : 464
Heartbeat CPU 4 instructions: 190000003 cycles: 80770507 heartbeat IPC: 2.35236 cumulative IPC: 2.35234 (Simulation time: 44 hr 4 min 14 sec) 
 Total Blocks : 262144 Invalid Blocks : 464
Heartbeat CPU 3 instructions: 190000003 cycles: 80770526 heartbeat IPC: 2.35231 cumulative IPC: 2.35234 (Simulation time: 44 hr 4 min 14 sec) 
 Total Blocks : 262144 Invalid Blocks : 464
Heartbeat CPU 6 instructions: 200000001 cycles: 85010653 heartbeat IPC: 2.35263 cumulative IPC: 2.35265 (Simulation time: 46 hr 2 min 39 sec) 
 Total Blocks : 262144 Invalid Blocks : 423
Heartbeat CPU 5 instructions: 200000001 cycles: 85010670 heartbeat IPC: 2.35264 cumulative IPC: 2.35265 (Simulation time: 46 hr 2 min 49 sec) 
 Total Blocks : 262144 Invalid Blocks : 423
Heartbeat CPU 7 instructions: 200000001 cycles: 85010828 heartbeat IPC: 2.35264 cumulative IPC: 2.35264 (Simulation time: 46 hr 2 min 49 sec) 
 Total Blocks : 262144 Invalid Blocks : 423
Heartbeat CPU 1 instructions: 200000001 cycles: 85014732 heartbeat IPC: 2.35247 cumulative IPC: 2.35253 (Simulation time: 46 hr 2 min 56 sec) 
 Total Blocks : 262144 Invalid Blocks : 423
Heartbeat CPU 0 instructions: 200000001 cycles: 85017022 heartbeat IPC: 2.35246 cumulative IPC: 2.35247 (Simulation time: 46 hr 3 min 0 sec) 
 Total Blocks : 262144 Invalid Blocks : 423
Heartbeat CPU 2 instructions: 200000001 cycles: 85020514 heartbeat IPC: 2.35245 cumulative IPC: 2.35237 (Simulation time: 46 hr 3 min 5 sec) 
 Total Blocks : 262144 Invalid Blocks : 423
Heartbeat CPU 3 instructions: 200000001 cycles: 85021612 heartbeat IPC: 2.35234 cumulative IPC: 2.35234 (Simulation time: 46 hr 3 min 6 sec) 
 Total Blocks : 262144 Invalid Blocks : 423
Heartbeat CPU 4 instructions: 200000001 cycles: 85021614 heartbeat IPC: 2.35233 cumulative IPC: 2.35234 (Simulation time: 46 hr 3 min 6 sec) 
 Total Blocks : 262144 Invalid Blocks : 423

Warmup complete CPU 0 instructions: 200010782 cycles: 85021614 (Simulation time: 46 hr 3 min 6 sec) 
Warmup complete CPU 1 instructions: 200016176 cycles: 85021614 (Simulation time: 46 hr 3 min 6 sec) 
Warmup complete CPU 2 instructions: 200002551 cycles: 85021614 (Simulation time: 46 hr 3 min 6 sec) 
Warmup complete CPU 3 instructions: 200000009 cycles: 85021614 (Simulation time: 46 hr 3 min 6 sec) 
Warmup complete CPU 4 instructions: 200000001 cycles: 85021614 (Simulation time: 46 hr 3 min 6 sec) 
Warmup complete CPU 5 instructions: 200025748 cycles: 85021613 (Simulation time: 46 hr 3 min 6 sec) 
Warmup complete CPU 6 instructions: 200025762 cycles: 85021613 (Simulation time: 46 hr 3 min 6 sec) 
Warmup complete CPU 7 instructions: 200025375 cycles: 85021613 (Simulation time: 46 hr 3 min 6 sec) 

Heartbeat CPU 5 instructions: 210000003 cycles: 102842083 heartbeat IPC: 0.560808 cumulative IPC: 0.559708 (Simulation time: 48 hr 13 min 42 sec) 
 Total Blocks : 262144 Invalid Blocks : 123
Heartbeat CPU 0 instructions: 210000003 cycles: 102888977 heartbeat IPC: 0.559536 cumulative IPC: 0.559076 (Simulation time: 48 hr 14 min 4 sec) 
 Total Blocks : 262144 Invalid Blocks : 123
Heartbeat CPU 7 instructions: 210000003 cycles: 102919150 heartbeat IPC: 0.5584 cumulative IPC: 0.557318 (Simulation time: 48 hr 14 min 17 sec) 
 Total Blocks : 262144 Invalid Blocks : 123
Heartbeat CPU 6 instructions: 210000003 cycles: 102927628 heartbeat IPC: 0.55813 cumulative IPC: 0.557033 (Simulation time: 48 hr 14 min 21 sec) 
 Total Blocks : 262144 Invalid Blocks : 123
Heartbeat CPU 2 instructions: 210000002 cycles: 103025507 heartbeat IPC: 0.555402 cumulative IPC: 0.555294 (Simulation time: 48 hr 15 min 7 sec) 
 Total Blocks : 262144 Invalid Blocks : 121
Heartbeat CPU 1 instructions: 210000002 cycles: 103040172 heartbeat IPC: 0.554772 cumulative IPC: 0.554086 (Simulation time: 48 hr 15 min 14 sec) 
 Total Blocks : 262144 Invalid Blocks : 121
Heartbeat CPU 4 instructions: 210000003 cycles: 103105734 heartbeat IPC: 0.552971 cumulative IPC: 0.552971 (Simulation time: 48 hr 15 min 43 sec) 
 Total Blocks : 262144 Invalid Blocks : 121
Heartbeat CPU 3 instructions: 210000003 cycles: 103127025 heartbeat IPC: 0.552321 cumulative IPC: 0.552321 (Simulation time: 48 hr 15 min 52 sec) 
 Total Blocks : 262144 Invalid Blocks : 121
Heartbeat CPU 5 instructions: 220000000 cycles: 120466142 heartbeat IPC: 0.567406 cumulative IPC: 0.563536 (Simulation time: 50 hr 26 min 21 sec) 
 Total Blocks : 262144 Invalid Blocks : 59
Heartbeat CPU 0 instructions: 220000000 cycles: 120481488 heartbeat IPC: 0.568424 cumulative IPC: 0.563714 (Simulation time: 50 hr 26 min 29 sec) 
 Total Blocks : 262144 Invalid Blocks : 59
Heartbeat CPU 7 instructions: 220000000 cycles: 120540823 heartbeat IPC: 0.567483 cumulative IPC: 0.562361 (Simulation time: 50 hr 27 min 4 sec) 
 Total Blocks : 262144 Invalid Blocks : 59
Heartbeat CPU 6 instructions: 220000000 cycles: 120606546 heartbeat IPC: 0.565645 cumulative IPC: 0.561312 (Simulation time: 50 hr 27 min 29 sec) 
 Total Blocks : 262144 Invalid Blocks : 58
Heartbeat CPU 1 instructions: 220000000 cycles: 120608082 heartbeat IPC: 0.56922 cumulative IPC: 0.561557 (Simulation time: 50 hr 27 min 30 sec) 
 Total Blocks : 262144 Invalid Blocks : 58
Heartbeat CPU 2 instructions: 220000000 cycles: 120708569 heartbeat IPC: 0.565513 cumulative IPC: 0.560357 (Simulation time: 50 hr 28 min 10 sec) 
 Total Blocks : 262144 Invalid Blocks : 58
Heartbeat CPU 4 instructions: 220000000 cycles: 120714581 heartbeat IPC: 0.567896 cumulative IPC: 0.560334 (Simulation time: 50 hr 28 min 13 sec) 
 Total Blocks : 262144 Invalid Blocks : 58
Heartbeat CPU 3 instructions: 220000000 cycles: 120776841 heartbeat IPC: 0.566578 cumulative IPC: 0.559359 (Simulation time: 50 hr 28 min 45 sec) 
 Total Blocks : 262144 Invalid Blocks : 58
Heartbeat CPU 0 instructions: 230000001 cycles: 137984045 heartbeat IPC: 0.571345 cumulative IPC: 0.566236 (Simulation time: 52 hr 37 min 18 sec) 
 Total Blocks : 262144 Invalid Blocks : 33
Heartbeat CPU 5 instructions: 230000000 cycles: 137998265 heartbeat IPC: 0.570382 cumulative IPC: 0.565801 (Simulation time: 52 hr 37 min 28 sec) 
 Total Blocks : 262144 Invalid Blocks : 33
Heartbeat CPU 7 instructions: 230000000 cycles: 138089698 heartbeat IPC: 0.569837 cumulative IPC: 0.564833 (Simulation time: 52 hr 38 min 4 sec) 
 Total Blocks : 262144 Invalid Blocks : 33
Heartbeat CPU 1 instructions: 230000000 cycles: 138148202 heartbeat IPC: 0.570122 cumulative IPC: 0.564385 (Simulation time: 52 hr 38 min 38 sec) 
 Total Blocks : 262144 Invalid Blocks : 33
Heartbeat CPU 6 instructions: 230000000 cycles: 138252393 heartbeat IPC: 0.566706 cumulative IPC: 0.5631 (Simulation time: 52 hr 39 min 30 sec) 
 Total Blocks : 262144 Invalid Blocks : 33
Heartbeat CPU 2 instructions: 230000000 cycles: 138287647 heartbeat IPC: 0.568858 cumulative IPC: 0.563163 (Simulation time: 52 hr 39 min 44 sec) 
 Total Blocks : 262144 Invalid Blocks : 33
Heartbeat CPU 4 instructions: 230000000 cycles: 138290595 heartbeat IPC: 0.568957 cumulative IPC: 0.563179 (Simulation time: 52 hr 39 min 47 sec) 
 Total Blocks : 262144 Invalid Blocks : 33
Heartbeat CPU 3 instructions: 230000001 cycles: 138294797 heartbeat IPC: 0.570843 cumulative IPC: 0.563135 (Simulation time: 52 hr 39 min 49 sec) 
 Total Blocks : 262144 Invalid Blocks : 33
Heartbeat CPU 0 instructions: 240000001 cycles: 155628492 heartbeat IPC: 0.566751 cumulative IPC: 0.566364 (Simulation time: 54 hr 48 min 23 sec) 
 Total Blocks : 262144 Invalid Blocks : 22
Heartbeat CPU 7 instructions: 240000001 cycles: 155681502 heartbeat IPC: 0.568447 cumulative IPC: 0.565733 (Simulation time: 54 hr 48 min 54 sec) 
 Total Blocks : 262144 Invalid Blocks : 22
Heartbeat CPU 1 instructions: 240000001 cycles: 155702092 heartbeat IPC: 0.569674 cumulative IPC: 0.565698 (Simulation time: 54 hr 49 min 3 sec) 
 Total Blocks : 262144 Invalid Blocks : 22
Heartbeat CPU 5 instructions: 240000001 cycles: 155708238 heartbeat IPC: 0.564654 cumulative IPC: 0.565514 (Simulation time: 54 hr 49 min 6 sec) 
 Total Blocks : 262144 Invalid Blocks : 22
Heartbeat CPU 2 instructions: 240000001 cycles: 155836889 heartbeat IPC: 0.569825 cumulative IPC: 0.564814 (Simulation time: 54 hr 49 min 59 sec) 
 Total Blocks : 262144 Invalid Blocks : 22
Heartbeat CPU 6 instructions: 240000001 cycles: 155916272 heartbeat IPC: 0.566127 cumulative IPC: 0.563854 (Simulation time: 54 hr 50 min 48 sec) 
 Total Blocks : 262144 Invalid Blocks : 22
Heartbeat CPU 4 instructions: 240000001 cycles: 155953841 heartbeat IPC: 0.566147 cumulative IPC: 0.563919 (Simulation time: 54 hr 51 min 4 sec) 
 Total Blocks : 262144 Invalid Blocks : 22
Heartbeat CPU 3 instructions: 240000001 cycles: 156036509 heartbeat IPC: 0.563643 cumulative IPC: 0.563262 (Simulation time: 54 hr 51 min 39 sec) 
 Total Blocks : 262144 Invalid Blocks : 22
Heartbeat CPU 0 instructions: 250000002 cycles: 173165486 heartbeat IPC: 0.570223 cumulative IPC: 0.567132 (Simulation time: 56 hr 56 min 29 sec) 
 Total Blocks : 262144 Invalid Blocks : 18
Heartbeat CPU 7 instructions: 250000002 cycles: 173203177 heartbeat IPC: 0.570722 cumulative IPC: 0.566724 (Simulation time: 56 hr 56 min 43 sec) 
 Total Blocks : 262144 Invalid Blocks : 18
Heartbeat CPU 5 instructions: 250000002 cycles: 173253857 heartbeat IPC: 0.569943 cumulative IPC: 0.566394 (Simulation time: 56 hr 57 min 2 sec) 
 Total Blocks : 262144 Invalid Blocks : 18
Heartbeat CPU 1 instructions: 250000002 cycles: 173389963 heartbeat IPC: 0.565359 cumulative IPC: 0.56563 (Simulation time: 56 hr 58 min 12 sec) 
 Total Blocks : 262144 Invalid Blocks : 18
Heartbeat CPU 2 instructions: 250000002 cycles: 173411711 heartbeat IPC: 0.568996 cumulative IPC: 0.565645 (Simulation time: 56 hr 58 min 22 sec) 
 Total Blocks : 262144 Invalid Blocks : 18
Heartbeat CPU 6 instructions: 250000002 cycles: 173447191 heartbeat IPC: 0.570421 cumulative IPC: 0.565156 (Simulation time: 56 hr 58 min 36 sec) 
 Total Blocks : 262144 Invalid Blocks : 18
Heartbeat CPU 4 instructions: 250000002 cycles: 173491025 heartbeat IPC: 0.570217 cumulative IPC: 0.565167 (Simulation time: 56 hr 58 min 53 sec) 
 Total Blocks : 262144 Invalid Blocks : 18
Heartbeat CPU 3 instructions: 250000002 cycles: 173622407 heartbeat IPC: 0.568637 cumulative IPC: 0.564329 (Simulation time: 56 hr 59 min 43 sec) 
 Total Blocks : 262144 Invalid Blocks : 17
Heartbeat CPU 0 instructions: 260000002 cycles: 190783170 heartbeat IPC: 0.567612 cumulative IPC: 0.567212 (Simulation time: 59 hr 0 min 59 sec) 
 Total Blocks : 262144 Invalid Blocks : 11
Heartbeat CPU 7 instructions: 260000002 cycles: 190802972 heartbeat IPC: 0.568188 cumulative IPC: 0.566968 (Simulation time: 59 hr 1 min 7 sec) 
 Total Blocks : 262144 Invalid Blocks : 11
Heartbeat CPU 5 instructions: 260000002 cycles: 190877132 heartbeat IPC: 0.567431 cumulative IPC: 0.566567 (Simulation time: 59 hr 1 min 35 sec) 
 Total Blocks : 262144 Invalid Blocks : 11
Heartbeat CPU 2 instructions: 260000002 cycles: 190987650 heartbeat IPC: 0.56896 cumulative IPC: 0.566195 (Simulation time: 59 hr 2 min 38 sec) 
 Total Blocks : 262144 Invalid Blocks : 11
Heartbeat CPU 1 instructions: 260000002 cycles: 191031417 heartbeat IPC: 0.566847 cumulative IPC: 0.565833 (Simulation time: 59 hr 2 min 55 sec) 
 Total Blocks : 262144 Invalid Blocks : 11
Heartbeat CPU 4 instructions: 260000003 cycles: 191057225 heartbeat IPC: 0.569275 cumulative IPC: 0.565848 (Simulation time: 59 hr 3 min 4 sec) 
 Total Blocks : 262144 Invalid Blocks : 11
Heartbeat CPU 3 instructions: 260000002 cycles: 191158167 heartbeat IPC: 0.570263 cumulative IPC: 0.565309 (Simulation time: 59 hr 3 min 49 sec) 
 Total Blocks : 262144 Invalid Blocks : 11
Heartbeat CPU 6 instructions: 260000002 cycles: 191160398 heartbeat IPC: 0.564551 cumulative IPC: 0.565055 (Simulation time: 59 hr 4 min 2 sec) 
 Total Blocks : 262144 Invalid Blocks : 11
Heartbeat CPU 7 instructions: 270000000 cycles: 208613263 heartbeat IPC: 0.561473 cumulative IPC: 0.566176 (Simulation time: 60 hr 53 min 39 sec) 
 Total Blocks : 262144 Invalid Blocks : 7
Heartbeat CPU 2 instructions: 270000000 cycles: 208664271 heartbeat IPC: 0.565719 cumulative IPC: 0.566127 (Simulation time: 60 hr 54 min 1 sec) 
 Total Blocks : 262144 Invalid Blocks : 7
Heartbeat CPU 0 instructions: 270000000 cycles: 208678735 heartbeat IPC: 0.558798 cumulative IPC: 0.565994 (Simulation time: 60 hr 54 min 4 sec) 
 Total Blocks : 262144 Invalid Blocks : 7
Heartbeat CPU 5 instructions: 270000000 cycles: 208706842 heartbeat IPC: 0.560862 cumulative IPC: 0.565745 (Simulation time: 60 hr 54 min 8 sec) 
 Total Blocks : 262144 Invalid Blocks : 7
Heartbeat CPU 1 instructions: 270000000 cycles: 208805399 heartbeat IPC: 0.56262 cumulative IPC: 0.565372 (Simulation time: 60 hr 54 min 18 sec) 
 Total Blocks : 262144 Invalid Blocks : 7
Heartbeat CPU 4 instructions: 270000000 cycles: 208807031 heartbeat IPC: 0.563386 cumulative IPC: 0.565495 (Simulation time: 60 hr 54 min 19 sec) 
 Total Blocks : 262144 Invalid Blocks : 7
Heartbeat CPU 6 instructions: 270000000 cycles: 208842181 heartbeat IPC: 0.565554 cumulative IPC: 0.565126 (Simulation time: 60 hr 54 min 22 sec) 
 Total Blocks : 262144 Invalid Blocks : 7
Heartbeat CPU 3 instructions: 270000000 cycles: 208897578 heartbeat IPC: 0.563716 cumulative IPC: 0.565081 (Simulation time: 60 hr 54 min 27 sec) 
 Total Blocks : 262144 Invalid Blocks : 7
Heartbeat CPU 7 instructions: 280000003 cycles: 226266432 heartbeat IPC: 0.566471 cumulative IPC: 0.566213 (Simulation time: 62 hr 32 min 16 sec) 
 Total Blocks : 262144 Invalid Blocks : 7
Heartbeat CPU 0 instructions: 280000000 cycles: 226397732 heartbeat IPC: 0.564366 cumulative IPC: 0.56579 (Simulation time: 62 hr 33 min 7 sec) 
 Total Blocks : 262144 Invalid Blocks : 7
Heartbeat CPU 2 instructions: 280000003 cycles: 226400467 heartbeat IPC: 0.563819 cumulative IPC: 0.565837 (Simulation time: 62 hr 33 min 8 sec) 
 Total Blocks : 262144 Invalid Blocks : 7
Heartbeat CPU 5 instructions: 280000000 cycles: 226522327 heartbeat IPC: 0.561309 cumulative IPC: 0.565186 (Simulation time: 62 hr 33 min 52 sec) 
 Total Blocks : 262144 Invalid Blocks : 7
Heartbeat CPU 4 instructions: 280000000 cycles: 226620680 heartbeat IPC: 0.561367 cumulative IPC: 0.564976 (Simulation time: 62 hr 34 min 39 sec) 
 Total Blocks : 262144 Invalid Blocks : 7
Heartbeat CPU 1 instructions: 280000000 cycles: 226652030 heartbeat IPC: 0.56033 cumulative IPC: 0.564736 (Simulation time: 62 hr 34 min 49 sec) 
 Total Blocks : 262144 Invalid Blocks : 7
Heartbeat CPU 6 instructions: 280000000 cycles: 226703784 heartbeat IPC: 0.55986 cumulative IPC: 0.564462 (Simulation time: 62 hr 35 min 10 sec) 
 Total Blocks : 262144 Invalid Blocks : 7
Heartbeat CPU 3 instructions: 280000000 cycles: 226851443 heartbeat IPC: 0.556983 cumulative IPC: 0.564056 (Simulation time: 62 hr 36 min 8 sec) 
 Total Blocks : 262144 Invalid Blocks : 7
Heartbeat CPU 7 instructions: 290000003 cycles: 243808662 heartbeat IPC: 0.570053 cumulative IPC: 0.566637 (Simulation time: 64 hr 28 min 20 sec) 
 Total Blocks : 262144 Invalid Blocks : 5
Heartbeat CPU 2 instructions: 290000001 cycles: 243955977 heartbeat IPC: 0.569622 cumulative IPC: 0.566255 (Simulation time: 64 hr 29 min 19 sec) 
 Total Blocks : 262144 Invalid Blocks : 5
Heartbeat CPU 0 instructions: 290000003 cycles: 244067344 heartbeat IPC: 0.565944 cumulative IPC: 0.565807 (Simulation time: 64 hr 30 min 10 sec) 
 Total Blocks : 262144 Invalid Blocks : 5
Heartbeat CPU 5 instructions: 290000003 cycles: 244197341 heartbeat IPC: 0.565771 cumulative IPC: 0.565251 (Simulation time: 64 hr 30 min 56 sec) 
 Total Blocks : 262144 Invalid Blocks : 5
Heartbeat CPU 1 instructions: 290000001 cycles: 244233916 heartbeat IPC: 0.568767 cumulative IPC: 0.565181 (Simulation time: 64 hr 31 min 11 sec) 
 Total Blocks : 262144 Invalid Blocks : 5
Heartbeat CPU 6 instructions: 290000003 cycles: 244283943 heartbeat IPC: 0.568823 cumulative IPC: 0.564944 (Simulation time: 64 hr 31 min 36 sec) 
 Total Blocks : 262144 Invalid Blocks : 5
Heartbeat CPU 4 instructions: 290000003 cycles: 244332012 heartbeat IPC: 0.56461 cumulative IPC: 0.564935 (Simulation time: 64 hr 31 min 57 sec) 
 Total Blocks : 262144 Invalid Blocks : 5
Heartbeat CPU 3 instructions: 290000001 cycles: 244445172 heartbeat IPC: 0.568384 cumulative IPC: 0.564534 (Simulation time: 64 hr 32 min 38 sec) 
 Total Blocks : 262144 Invalid Blocks : 5
Heartbeat CPU 7 instructions: 300000000 cycles: 261447455 heartbeat IPC: 0.566932 cumulative IPC: 0.566667 (Simulation time: 66 hr 20 min 14 sec) 
 Total Blocks : 262144 Invalid Blocks : 4
Heartbeat CPU 2 instructions: 300000001 cycles: 261530151 heartbeat IPC: 0.569017 cumulative IPC: 0.56653 (Simulation time: 66 hr 20 min 43 sec) 
 Total Blocks : 262144 Invalid Blocks : 4
Heartbeat CPU 0 instructions: 300000000 cycles: 261585882 heartbeat IPC: 0.570824 cumulative IPC: 0.566305 (Simulation time: 66 hr 21 min 6 sec) 
 Total Blocks : 262144 Invalid Blocks : 4
Heartbeat CPU 5 instructions: 300000000 cycles: 261761683 heartbeat IPC: 0.569335 cumulative IPC: 0.565657 (Simulation time: 66 hr 22 min 26 sec) 
 Total Blocks : 262144 Invalid Blocks : 4
Heartbeat CPU 4 instructions: 300000001 cycles: 261887913 heartbeat IPC: 0.569609 cumulative IPC: 0.565399 (Simulation time: 66 hr 23 min 12 sec) 
 Total Blocks : 262144 Invalid Blocks : 4
Heartbeat CPU 1 instructions: 300000000 cycles: 261889787 heartbeat IPC: 0.566384 cumulative IPC: 0.565301 (Simulation time: 66 hr 23 min 14 sec) 
 Total Blocks : 262144 Invalid Blocks : 4
Heartbeat CPU 6 instructions: 300000001 cycles: 261905662 heartbeat IPC: 0.567481 cumulative IPC: 0.565196 (Simulation time: 66 hr 23 min 18 sec) 
 Total Blocks : 262144 Invalid Blocks : 4
Heartbeat CPU 3 instructions: 300000001 cycles: 262062178 heartbeat IPC: 0.567633 cumulative IPC: 0.564842 (Simulation time: 66 hr 24 min 26 sec) 
 Total Blocks : 262144 Invalid Blocks : 4
Heartbeat CPU 7 instructions: 310000000 cycles: 279095730 heartbeat IPC: 0.566628 cumulative IPC: 0.566663 (Simulation time: 68 hr 12 min 48 sec) 
 Total Blocks : 262144 Invalid Blocks : 3
Heartbeat CPU 2 instructions: 310000003 cycles: 279181995 heartbeat IPC: 0.566513 cumulative IPC: 0.566529 (Simulation time: 68 hr 13 min 20 sec) 
 Total Blocks : 262144 Invalid Blocks : 3
Heartbeat CPU 0 instructions: 310000003 cycles: 279248552 heartbeat IPC: 0.566166 cumulative IPC: 0.566292 (Simulation time: 68 hr 13 min 42 sec) 
 Total Blocks : 262144 Invalid Blocks : 3
Heartbeat CPU 5 instructions: 310000000 cycles: 279345395 heartbeat IPC: 0.568708 cumulative IPC: 0.565933 (Simulation time: 68 hr 14 min 23 sec) 
 Total Blocks : 262144 Invalid Blocks : 3
Heartbeat CPU 1 instructions: 310000001 cycles: 279413016 heartbeat IPC: 0.570671 cumulative IPC: 0.565785 (Simulation time: 68 hr 14 min 49 sec) 
 Total Blocks : 262144 Invalid Blocks : 3
Heartbeat CPU 4 instructions: 310000003 cycles: 279439623 heartbeat IPC: 0.569745 cumulative IPC: 0.565791 (Simulation time: 68 hr 15 min 0 sec) 
 Total Blocks : 262144 Invalid Blocks : 3
Heartbeat CPU 6 instructions: 310000003 cycles: 279491057 heartbeat IPC: 0.568654 cumulative IPC: 0.565509 (Simulation time: 68 hr 15 min 19 sec) 
 Total Blocks : 262144 Invalid Blocks : 3
Heartbeat CPU 3 instructions: 310000003 cycles: 279550941 heartbeat IPC: 0.571796 cumulative IPC: 0.565467 (Simulation time: 68 hr 15 min 39 sec) 
 Total Blocks : 262144 Invalid Blocks : 3
Heartbeat CPU 7 instructions: 320000000 cycles: 296638880 heartbeat IPC: 0.570023 cumulative IPC: 0.566942 (Simulation time: 70 hr 1 min 15 sec) 
 Total Blocks : 262144 Invalid Blocks : 3
Heartbeat CPU 2 instructions: 320000000 cycles: 296719975 heartbeat IPC: 0.570191 cumulative IPC: 0.566832 (Simulation time: 70 hr 1 min 47 sec) 
 Total Blocks : 262144 Invalid Blocks : 3
Heartbeat CPU 5 instructions: 320000000 cycles: 296835465 heartbeat IPC: 0.571753 cumulative IPC: 0.566414 (Simulation time: 70 hr 2 min 27 sec) 
 Total Blocks : 262144 Invalid Blocks : 3
Heartbeat CPU 0 instructions: 320000003 cycles: 296837596 heartbeat IPC: 0.568536 cumulative IPC: 0.566479 (Simulation time: 70 hr 2 min 28 sec) 
 Total Blocks : 262144 Invalid Blocks : 3
Heartbeat CPU 4 instructions: 320000000 cycles: 296961081 heartbeat IPC: 0.570729 cumulative IPC: 0.566199 (Simulation time: 70 hr 3 min 10 sec) 
 Total Blocks : 262144 Invalid Blocks : 3
Heartbeat CPU 1 instructions: 320000000 cycles: 297002802 heartbeat IPC: 0.568512 cumulative IPC: 0.566012 (Simulation time: 70 hr 3 min 23 sec) 
 Total Blocks : 262144 Invalid Blocks : 3
Heartbeat CPU 6 instructions: 320000003 cycles: 297056737 heartbeat IPC: 0.569292 cumulative IPC: 0.565822 (Simulation time: 70 hr 3 min 42 sec) 
 Total Blocks : 262144 Invalid Blocks : 3
Heartbeat CPU 3 instructions: 320000003 cycles: 297098923 heartbeat IPC: 0.569866 cumulative IPC: 0.565831 (Simulation time: 70 hr 3 min 56 sec) 
 Total Blocks : 262144 Invalid Blocks : 3
Heartbeat CPU 7 instructions: 330000000 cycles: 314280441 heartbeat IPC: 0.566843 cumulative IPC: 0.566934 (Simulation time: 71 hr 44 min 34 sec) 
 Total Blocks : 262144 Invalid Blocks : 3
Heartbeat CPU 0 instructions: 330000000 cycles: 314332170 heartbeat IPC: 0.571606 cumulative IPC: 0.56687 (Simulation time: 71 hr 44 min 53 sec) 
 Total Blocks : 262144 Invalid Blocks : 3
Heartbeat CPU 2 instructions: 330000000 cycles: 314352486 heartbeat IPC: 0.567134 cumulative IPC: 0.566855 (Simulation time: 71 hr 45 min 0 sec) 
 Total Blocks : 262144 Invalid Blocks : 3
Heartbeat CPU 5 instructions: 330000000 cycles: 314448576 heartbeat IPC: 0.567759 cumulative IPC: 0.566517 (Simulation time: 71 hr 45 min 33 sec) 
 Total Blocks : 262144 Invalid Blocks : 3
Heartbeat CPU 4 instructions: 330000000 cycles: 314517267 heartbeat IPC: 0.5696 cumulative IPC: 0.56646 (Simulation time: 71 hr 45 min 57 sec) 
 Total Blocks : 262144 Invalid Blocks : 3
Heartbeat CPU 6 instructions: 330000000 cycles: 314605074 heartbeat IPC: 0.569854 cumulative IPC: 0.566131 (Simulation time: 71 hr 46 min 35 sec) 
 Total Blocks : 262144 Invalid Blocks : 3
Heartbeat CPU 1 instructions: 330000000 cycles: 314640943 heartbeat IPC: 0.566953 cumulative IPC: 0.566084 (Simulation time: 71 hr 46 min 47 sec) 
 Total Blocks : 262144 Invalid Blocks : 3
Heartbeat CPU 3 instructions: 330000000 cycles: 314795535 heartbeat IPC: 0.56508 cumulative IPC: 0.565773 (Simulation time: 71 hr 47 min 41 sec) 
 Total Blocks : 262144 Invalid Blocks : 3
Heartbeat CPU 0 instructions: 340000001 cycles: 331823525 heartbeat IPC: 0.571711 cumulative IPC: 0.567213 (Simulation time: 73 hr 28 min 51 sec) 
 Total Blocks : 262144 Invalid Blocks : 3
Heartbeat CPU 7 instructions: 340000001 cycles: 331936971 heartbeat IPC: 0.566363 cumulative IPC: 0.566893 (Simulation time: 73 hr 29 min 30 sec) 
 Total Blocks : 262144 Invalid Blocks : 3
Heartbeat CPU 4 instructions: 340000001 cycles: 331943230 heartbeat IPC: 0.573856 cumulative IPC: 0.566982 (Simulation time: 73 hr 29 min 32 sec) 
 Total Blocks : 262144 Invalid Blocks : 3
Heartbeat CPU 2 instructions: 340000001 cycles: 331960230 heartbeat IPC: 0.567932 cumulative IPC: 0.566932 (Simulation time: 73 hr 29 min 38 sec) 
 Total Blocks : 262144 Invalid Blocks : 3
Heartbeat CPU 5 instructions: 340000001 cycles: 332139269 heartbeat IPC: 0.565269 cumulative IPC: 0.566428 (Simulation time: 73 hr 30 min 40 sec) 
 Total Blocks : 262144 Invalid Blocks : 3
Heartbeat CPU 1 instructions: 340000001 cycles: 332156172 heartbeat IPC: 0.570932 cumulative IPC: 0.566428 (Simulation time: 73 hr 30 min 47 sec) 
 Total Blocks : 262144 Invalid Blocks : 3
Heartbeat CPU 6 instructions: 340000001 cycles: 332163512 heartbeat IPC: 0.569527 cumulative IPC: 0.566372 (Simulation time: 73 hr 30 min 50 sec) 
 Total Blocks : 262144 Invalid Blocks : 3
Heartbeat CPU 3 instructions: 340000001 cycles: 332514280 heartbeat IPC: 0.564374 cumulative IPC: 0.565673 (Simulation time: 73 hr 32 min 45 sec) 
 Total Blocks : 262144 Invalid Blocks : 3
Heartbeat CPU 0 instructions: 350000002 cycles: 349459932 heartbeat IPC: 0.567009 cumulative IPC: 0.567199 (Simulation time: 75 hr 13 min 21 sec) 
 Total Blocks : 262144 Invalid Blocks : 3
Heartbeat CPU 7 instructions: 350000002 cycles: 349473677 heartbeat IPC: 0.570233 cumulative IPC: 0.567115 (Simulation time: 75 hr 13 min 26 sec) 
 Total Blocks : 262144 Invalid Blocks : 3
Heartbeat CPU 4 instructions: 350000002 cycles: 349567784 heartbeat IPC: 0.56739 cumulative IPC: 0.567009 (Simulation time: 75 hr 13 min 58 sec) 
 Total Blocks : 262144 Invalid Blocks : 3
Heartbeat CPU 2 instructions: 350000002 cycles: 349598151 heartbeat IPC: 0.56696 cumulative IPC: 0.566934 (Simulation time: 75 hr 14 min 9 sec) 
 Total Blocks : 262144 Invalid Blocks : 3
Heartbeat CPU 5 instructions: 350000002 cycles: 349632269 heartbeat IPC: 0.571657 cumulative IPC: 0.566773 (Simulation time: 75 hr 14 min 21 sec) 
 Total Blocks : 262144 Invalid Blocks : 3
Heartbeat CPU 1 instructions: 350000002 cycles: 349670997 heartbeat IPC: 0.570945 cumulative IPC: 0.566727 (Simulation time: 75 hr 14 min 37 sec) 
 Total Blocks : 262144 Invalid Blocks : 3
Heartbeat CPU 6 instructions: 350000002 cycles: 349695977 heartbeat IPC: 0.57037 cumulative IPC: 0.566637 (Simulation time: 75 hr 14 min 52 sec) 
 Total Blocks : 262144 Invalid Blocks : 3
Heartbeat CPU 3 instructions: 350000002 cycles: 350156984 heartbeat IPC: 0.566807 cumulative IPC: 0.565749 (Simulation time: 75 hr 17 min 34 sec) 
 Total Blocks : 262144 Invalid Blocks : 3
Heartbeat CPU 0 instructions: 360000002 cycles: 367041600 heartbeat IPC: 0.568774 cumulative IPC: 0.567297 (Simulation time: 76 hr 57 min 55 sec) 
 Total Blocks : 262144 Invalid Blocks : 3
Heartbeat CPU 7 instructions: 360000002 cycles: 367052858 heartbeat IPC: 0.568855 cumulative IPC: 0.567223 (Simulation time: 76 hr 57 min 59 sec) 
 Total Blocks : 262144 Invalid Blocks : 3
Heartbeat CPU 4 instructions: 360000002 cycles: 367084296 heartbeat IPC: 0.57089 cumulative IPC: 0.56725 (Simulation time: 76 hr 58 min 11 sec) 
 Total Blocks : 262144 Invalid Blocks : 3
Heartbeat CPU 5 instructions: 360000000 cycles: 367165698 heartbeat IPC: 0.570339 cumulative IPC: 0.566995 (Simulation time: 76 hr 58 min 41 sec) 
 Total Blocks : 262144 Invalid Blocks : 3
Heartbeat CPU 2 instructions: 360000002 cycles: 367180307 heartbeat IPC: 0.568758 cumulative IPC: 0.567048 (Simulation time: 76 hr 58 min 47 sec) 
 Total Blocks : 262144 Invalid Blocks : 3
Heartbeat CPU 1 instructions: 360000002 cycles: 367230562 heartbeat IPC: 0.56949 cumulative IPC: 0.566898 (Simulation time: 76 hr 59 min 3 sec) 
 Total Blocks : 262144 Invalid Blocks : 3
Heartbeat CPU 6 instructions: 360000002 cycles: 367271408 heartbeat IPC: 0.568976 cumulative IPC: 0.566782 (Simulation time: 76 hr 59 min 18 sec) 
 Total Blocks : 262144 Invalid Blocks : 3
Heartbeat CPU 3 instructions: 360000002 cycles: 367756294 heartbeat IPC: 0.568204 cumulative IPC: 0.565902 (Simulation time: 77 hr 2 min 18 sec) 
 Total Blocks : 262144 Invalid Blocks : 3
Heartbeat CPU 7 instructions: 370000003 cycles: 384629870 heartbeat IPC: 0.568925 cumulative IPC: 0.567323 (Simulation time: 78 hr 44 min 21 sec) 
 Total Blocks : 262144 Invalid Blocks : 3
Heartbeat CPU 0 instructions: 370000003 cycles: 384654296 heartbeat IPC: 0.567772 cumulative IPC: 0.567325 (Simulation time: 78 hr 44 min 31 sec) 
 Total Blocks : 262144 Invalid Blocks : 3
Heartbeat CPU 4 instructions: 370000003 cycles: 384733361 heartbeat IPC: 0.566602 cumulative IPC: 0.567212 (Simulation time: 78 hr 45 min 0 sec) 
 Total Blocks : 262144 Invalid Blocks : 3
Heartbeat CPU 1 instructions: 370000003 cycles: 384767908 heartbeat IPC: 0.570212 cumulative IPC: 0.567092 (Simulation time: 78 hr 45 min 16 sec) 
 Total Blocks : 262144 Invalid Blocks : 3
Heartbeat CPU 5 instructions: 370000003 cycles: 384807839 heartbeat IPC: 0.566825 cumulative IPC: 0.566985 (Simulation time: 78 hr 45 min 31 sec) 
 Total Blocks : 262144 Invalid Blocks : 3
Heartbeat CPU 2 instructions: 370000003 cycles: 384824798 heartbeat IPC: 0.566749 cumulative IPC: 0.56703 (Simulation time: 78 hr 45 min 39 sec) 
 Total Blocks : 262144 Invalid Blocks : 3
Heartbeat CPU 6 instructions: 370000003 cycles: 384912779 heartbeat IPC: 0.566849 cumulative IPC: 0.566786 (Simulation time: 78 hr 46 min 10 sec) 
 Total Blocks : 262144 Invalid Blocks : 3
Heartbeat CPU 3 instructions: 370000003 cycles: 385408537 heartbeat IPC: 0.5665 cumulative IPC: 0.565937 (Simulation time: 78 hr 49 min 15 sec) 
 Total Blocks : 262144 Invalid Blocks : 3
Heartbeat CPU 0 instructions: 380000001 cycles: 402185089 heartbeat IPC: 0.570425 cumulative IPC: 0.567497 (Simulation time: 80 hr 31 min 22 sec) 
 Total Blocks : 262144 Invalid Blocks : 3
Heartbeat CPU 7 instructions: 380000001 cycles: 402187177 heartbeat IPC: 0.569563 cumulative IPC: 0.567447 (Simulation time: 80 hr 31 min 24 sec) 
 Total Blocks : 262144 Invalid Blocks : 3
Heartbeat CPU 4 instructions: 380000000 cycles: 402212149 heartbeat IPC: 0.572122 cumulative IPC: 0.567482 (Simulation time: 80 hr 31 min 33 sec) 
 Total Blocks : 262144 Invalid Blocks : 3
Heartbeat CPU 1 instructions: 380000002 cycles: 402322906 heartbeat IPC: 0.569638 cumulative IPC: 0.567233 (Simulation time: 80 hr 32 min 14 sec) 
 Total Blocks : 262144 Invalid Blocks : 3
Heartbeat CPU 6 instructions: 380000000 cycles: 402325355 heartbeat IPC: 0.574297 cumulative IPC: 0.567199 (Simulation time: 80 hr 32 min 15 sec) 
 Total Blocks : 262144 Invalid Blocks : 3
Heartbeat CPU 5 instructions: 380000000 cycles: 402360071 heartbeat IPC: 0.569728 cumulative IPC: 0.567137 (Simulation time: 80 hr 32 min 28 sec) 
 Total Blocks : 262144 Invalid Blocks : 3
Heartbeat CPU 2 instructions: 380000000 cycles: 402391563 heartbeat IPC: 0.569257 cumulative IPC: 0.567153 (Simulation time: 80 hr 32 min 40 sec) 
 Total Blocks : 262144 Invalid Blocks : 3
Heartbeat CPU 3 instructions: 380000000 cycles: 403097598 heartbeat IPC: 0.565321 cumulative IPC: 0.565902 (Simulation time: 80 hr 36 min 55 sec) 
 Total Blocks : 262144 Invalid Blocks : 3
Heartbeat CPU 0 instructions: 390000002 cycles: 419724782 heartbeat IPC: 0.570135 cumulative IPC: 0.567635 (Simulation time: 82 hr 17 min 30 sec) 
 Total Blocks : 262144 Invalid Blocks : 3
Heartbeat CPU 7 instructions: 390000002 cycles: 419725994 heartbeat IPC: 0.570164 cumulative IPC: 0.567589 (Simulation time: 82 hr 17 min 32 sec) 
 Total Blocks : 262144 Invalid Blocks : 3
Heartbeat CPU 2 instructions: 390000002 cycles: 419799464 heartbeat IPC: 0.574452 cumulative IPC: 0.567533 (Simulation time: 82 hr 17 min 58 sec) 
 Total Blocks : 262144 Invalid Blocks : 3
Heartbeat CPU 4 instructions: 390000002 cycles: 419814912 heartbeat IPC: 0.568093 cumulative IPC: 0.567514 (Simulation time: 82 hr 18 min 4 sec) 
 Total Blocks : 262144 Invalid Blocks : 3
Heartbeat CPU 1 instructions: 390000002 cycles: 419853860 heartbeat IPC: 0.57042 cumulative IPC: 0.5674 (Simulation time: 82 hr 18 min 18 sec) 
 Total Blocks : 262144 Invalid Blocks : 3
Heartbeat CPU 6 instructions: 390000002 cycles: 419982496 heartbeat IPC: 0.566343 cumulative IPC: 0.567154 (Simulation time: 82 hr 19 min 6 sec) 
 Total Blocks : 262144 Invalid Blocks : 3
Heartbeat CPU 5 instructions: 390000002 cycles: 420024132 heartbeat IPC: 0.566121 cumulative IPC: 0.567083 (Simulation time: 82 hr 19 min 22 sec) 
 Total Blocks : 262144 Invalid Blocks : 3
Heartbeat CPU 3 instructions: 390000002 cycles: 420722802 heartbeat IPC: 0.567369 cumulative IPC: 0.565979 (Simulation time: 82 hr 23 min 40 sec) 
 Total Blocks : 262144 Invalid Blocks : 3
Heartbeat CPU 0 instructions: 400000003 cycles: 437305015 heartbeat IPC: 0.568821 cumulative IPC: 0.567694 (Simulation time: 84 hr 4 min 36 sec) 
 Total Blocks : 262144 Invalid Blocks : 3
Finished CPU 0 instructions: 200000002 cycles: 352301458 cumulative IPC: 0.567696 (Simulation time: 84 hr 4 min 43 sec) 
Heartbeat CPU 7 instructions: 400000003 cycles: 437369432 heartbeat IPC: 0.566783 cumulative IPC: 0.567549 (Simulation time: 84 hr 5 min 1 sec) 
 Total Blocks : 262144 Invalid Blocks : 3
Heartbeat CPU 1 instructions: 400000003 cycles: 437376104 heartbeat IPC: 0.570703 cumulative IPC: 0.567564 (Simulation time: 84 hr 5 min 4 sec) 
 Total Blocks : 262144 Invalid Blocks : 3
Heartbeat CPU 2 instructions: 400000003 cycles: 437381707 heartbeat IPC: 0.568756 cumulative IPC: 0.567594 (Simulation time: 84 hr 5 min 7 sec) 
 Total Blocks : 262144 Invalid Blocks : 3
Finished CPU 2 instructions: 200000001 cycles: 352363497 cumulative IPC: 0.567596 (Simulation time: 84 hr 5 min 7 sec) 
Finished CPU 1 instructions: 200000000 cycles: 352382398 cumulative IPC: 0.567565 (Simulation time: 84 hr 5 min 13 sec) 
Finished CPU 7 instructions: 200000001 cycles: 352388545 cumulative IPC: 0.567555 (Simulation time: 84 hr 5 min 16 sec) 
Heartbeat CPU 4 instructions: 400000000 cycles: 437473554 heartbeat IPC: 0.566295 cumulative IPC: 0.567453 (Simulation time: 84 hr 5 min 38 sec) 
 Total Blocks : 262144 Invalid Blocks : 3
Finished CPU 4 instructions: 200000003 cycles: 352451941 cumulative IPC: 0.567453 (Simulation time: 84 hr 5 min 40 sec) 
Heartbeat CPU 6 instructions: 400000003 cycles: 437488230 heartbeat IPC: 0.571241 cumulative IPC: 0.567357 (Simulation time: 84 hr 5 min 46 sec) 
 Total Blocks : 262144 Invalid Blocks : 3
Finished CPU 6 instructions: 200000000 cycles: 352508468 cumulative IPC: 0.567362 (Simulation time: 84 hr 6 min 2 sec) 
Heartbeat CPU 5 instructions: 400000003 cycles: 437566703 heartbeat IPC: 0.570042 cumulative IPC: 0.56723 (Simulation time: 84 hr 6 min 16 sec) 
 Total Blocks : 262144 Invalid Blocks : 3
Finished CPU 5 instructions: 200000002 cycles: 352590931 cumulative IPC: 0.56723 (Simulation time: 84 hr 6 min 33 sec) 
Heartbeat CPU 3 instructions: 400000003 cycles: 438297344 heartbeat IPC: 0.569005 cumulative IPC: 0.56613 (Simulation time: 84 hr 10 min 45 sec) 
 Total Blocks : 262144 Invalid Blocks : 3
Finished CPU 3 instructions: 200000002 cycles: 353275732 cumulative IPC: 0.56613 (Simulation time: 84 hr 10 min 45 sec) 

CPU 0 Branch Prediction Accuracy: 99.5704% MPKI: 0.0830586 Average ROB Occupancy at Mispredict: 209.031

CPU 1 Branch Prediction Accuracy: 99.5704% MPKI: 0.0830706 Average ROB Occupancy at Mispredict: 209.032

CPU 2 Branch Prediction Accuracy: 99.5704% MPKI: 0.0830762 Average ROB Occupancy at Mispredict: 209.031

CPU 3 Branch Prediction Accuracy: 99.5695% MPKI: 0.083275 Average ROB Occupancy at Mispredict: 209.008

CPU 4 Branch Prediction Accuracy: 99.5703% MPKI: 0.083093 Average ROB Occupancy at Mispredict: 209.036

CPU 5 Branch Prediction Accuracy: 99.5702% MPKI: 0.0831121 Average ROB Occupancy at Mispredict: 209.022

CPU 6 Branch Prediction Accuracy: 99.5702% MPKI: 0.0830977 Average ROB Occupancy at Mispredict: 209.03

CPU 7 Branch Prediction Accuracy: 99.5704% MPKI: 0.0830665 Average ROB Occupancy at Mispredict: 209.036

ChampSim completed all CPUs

Total Simulation Statistics (not including warmup)

CPU 0 cumulative IPC: 0.567677 instructions: 200546461 cycles: 353275732
ITLB TOTAL     ACCESS: 32370062  HIT: 32370051  MISS:    11  HIT %:   100  MISS %: 3.3982e-05  AVERAGE MISS PENALTY: 127
ITLB LOAD      ACCESS: 32370062  HIT: 32370051  MISS:    11  HIT %:   100  MISS %: 3.3982e-05  AVERAGE MISS PENALTY: 127
ITLB RFO       ACCESS:     0  HIT:     0  MISS:     0  HIT %:     0  MISS %:     0  AVERAGE MISS PENALTY: 0
ITLB PREFETCH  ACCESS:     0  HIT:     0  MISS:     0  HIT %:     0  MISS %:     0  AVERAGE MISS PENALTY: 0
ITLB WRITEBACK ACCESS:     0  HIT:     0  MISS:     0  HIT %:     0  MISS %:     0  AVERAGE MISS PENALTY: 0

DTLB TOTAL     ACCESS: 33821307  HIT: 33775073  MISS: 46234  HIT %: 99.8633  MISS %: 0.136701  AVERAGE MISS PENALTY: 67.6615
DTLB LOAD      ACCESS: 28381983  HIT: 28336202  MISS: 45781  HIT %: 99.8387  MISS %: 0.161303  AVERAGE MISS PENALTY: 68.2419
DTLB RFO       ACCESS: 5439324  HIT: 5438871  MISS:   453  HIT %: 99.9917  MISS %: 0.00832824  AVERAGE MISS PENALTY: 9
DTLB PREFETCH  ACCESS:     0  HIT:     0  MISS:     0  HIT %:     0  MISS %:     0  AVERAGE MISS PENALTY: 0
DTLB WRITEBACK ACCESS:     0  HIT:     0  MISS:     0  HIT %:     0  MISS %:     0  AVERAGE MISS PENALTY: 0

STLB TOTAL     ACCESS: 46245  HIT: 19158  MISS: 27087  HIT %: 41.4272  MISS %: 58.5728  AVERAGE MISS PENALTY: 100
STLB LOAD      ACCESS: 45792  HIT: 18705  MISS: 27087  HIT %: 40.8477  MISS %: 59.1523  AVERAGE MISS PENALTY: 100
STLB RFO       ACCESS:   453  HIT:   453  MISS:     0  HIT %:   100  MISS %:     0  AVERAGE MISS PENALTY: 0
STLB PREFETCH  ACCESS:     0  HIT:     0  MISS:     0  HIT %:     0  MISS %:     0  AVERAGE MISS PENALTY: 0
STLB WRITEBACK ACCESS:     0  HIT:     0  MISS:     0  HIT %:     0  MISS %:     0  AVERAGE MISS PENALTY: 0

L1D TOTAL     ACCESS: 50219376  HIT: 47601438  MISS: 2617938  HIT %: 94.787  MISS %: 5.213  AVERAGE MISS PENALTY: 6.20176e+07
L1D LOAD      ACCESS: 26760021  HIT: 26086846  MISS: 673175  HIT %: 97.4844  MISS %: 2.5156  AVERAGE MISS PENALTY: 2.41182e+08
L1D RFO       ACCESS: 14178257  HIT: 14175192  MISS:  3065  HIT %: 99.9784  MISS %: 0.0216176  AVERAGE MISS PENALTY: 45.8134
L1D PREFETCH  ACCESS: 9281098  HIT: 7339400  MISS: 1941698  HIT %: 79.079  MISS %: 20.921  AVERAGE MISS PENALTY: 260.864
L1D WRITEBACK ACCESS:     0  HIT:     0  MISS:     0  HIT %:     0  MISS %:     0  AVERAGE MISS PENALTY: 0

L1I TOTAL     ACCESS: 44240492  HIT: 44240215  MISS:   277  HIT %: 99.9994  MISS %: 0.000626123  AVERAGE MISS PENALTY: 313.455
L1I LOAD      ACCESS: 44240492  HIT: 44240215  MISS:   277  HIT %: 99.9994  MISS %: 0.000626123  AVERAGE MISS PENALTY: 313.455
L1I RFO       ACCESS:     0  HIT:     0  MISS:     0  HIT %:     0  MISS %:     0  AVERAGE MISS PENALTY: 0
L1I PREFETCH  ACCESS:     0  HIT:     0  MISS:     0  HIT %:     0  MISS %:     0  AVERAGE MISS PENALTY: 0
L1I WRITEBACK ACCESS:     0  HIT:     0  MISS:     0  HIT %:     0  MISS %:     0  AVERAGE MISS PENALTY: 0

L2C TOTAL     ACCESS: 6166163  HIT: 3793208  MISS: 2372955  HIT %: 61.5165  MISS %: 38.4835  AVERAGE MISS PENALTY: 6.69367e+07
L2C LOAD      ACCESS: 661150  HIT: 11270  MISS: 649880  HIT %: 1.70461  MISS %: 98.2954  AVERAGE MISS PENALTY: 2.4441e+08
L2C RFO       ACCESS:  3065  HIT:  2044  MISS:  1021  HIT %: 66.6884  MISS %: 33.3116  AVERAGE MISS PENALTY: 92.5005
L2C PREFETCH  ACCESS: 3768486  HIT: 2046508  MISS: 1721978  HIT %: 54.3058  MISS %: 45.6942  AVERAGE MISS PENALTY: 412.908
L2C WRITEBACK ACCESS: 1733462  HIT: 1733386  MISS:    76  HIT %: 99.9956  MISS %: 0.00438429  AVERAGE MISS PENALTY: 0


LLC0 TOTAL     ACCESS: 512435  HIT: 236529  MISS: 275906  HIT %: 46.1579  MISS %: 53.8421  AVERAGE MISS PENALTY: 506.006
LLC0 LOAD      ACCESS: 37757  HIT:  9605  MISS: 28152  HIT %: 25.439  MISS %: 74.561  AVERAGE MISS PENALTY: 583.227
LLC0 RFO       ACCESS:    55  HIT:    44  MISS:    11  HIT %:    80  MISS %:    20  AVERAGE MISS PENALTY: 374
LLC0 PREFETCH  ACCESS: 258460  HIT: 60293  MISS: 198167  HIT %: 23.3278  MISS %: 76.6722  AVERAGE MISS PENALTY: 621.632
LLC0 WRITEBACK ACCESS: 216163  HIT: 166587  MISS: 49576  HIT %: 77.0655  MISS %: 22.9345  AVERAGE MISS PENALTY: 0

LLC1 TOTAL     ACCESS: 512710  HIT: 239136  MISS: 273574  HIT %: 46.6416  MISS %: 53.3584  AVERAGE MISS PENALTY: 514.284
LLC1 LOAD      ACCESS:  3342  HIT:   901  MISS:  2441  HIT %: 26.9599  MISS %: 73.0401  AVERAGE MISS PENALTY: 660.807
LLC1 RFO       ACCESS:    64  HIT:    53  MISS:    11  HIT %: 82.8125  MISS %: 17.1875  AVERAGE MISS PENALTY: 647.455
LLC1 PREFETCH  ACCESS: 293105  HIT: 68704  MISS: 224401  HIT %: 23.4401  MISS %: 76.5599  AVERAGE MISS PENALTY: 619.759
LLC1 WRITEBACK ACCESS: 216199  HIT: 169478  MISS: 46721  HIT %: 78.3898  MISS %: 21.6102  AVERAGE MISS PENALTY: 0

LLC2 TOTAL     ACCESS: 512579  HIT: 241801  MISS: 270778  HIT %: 47.1734  MISS %: 52.8266  AVERAGE MISS PENALTY: 600.225
LLC2 LOAD      ACCESS:   666  HIT:   492  MISS:   174  HIT %: 73.8739  MISS %: 26.1261  AVERAGE MISS PENALTY: 601.121
LLC2 RFO       ACCESS:    32  HIT:    29  MISS:     3  HIT %: 90.625  MISS %: 9.375  AVERAGE MISS PENALTY: 722.333
LLC2 PREFETCH  ACCESS: 295717  HIT: 68106  MISS: 227611  HIT %: 23.0308  MISS %: 76.9692  AVERAGE MISS PENALTY: 713.591
LLC2 WRITEBACK ACCESS: 216164  HIT: 173174  MISS: 42990  HIT %: 80.1123  MISS %: 19.8877  AVERAGE MISS PENALTY: 0

LLC3 TOTAL     ACCESS: 513926  HIT: 245893  MISS: 268033  HIT %: 47.846  MISS %: 52.154  AVERAGE MISS PENALTY: 599.17
LLC3 LOAD      ACCESS:  1020  HIT:   845  MISS:   175  HIT %: 82.8431  MISS %: 17.1569  AVERAGE MISS PENALTY: 709.989
LLC3 RFO       ACCESS:   434  HIT:   403  MISS:    31  HIT %: 92.8571  MISS %: 7.14286  AVERAGE MISS PENALTY: 668.032
LLC3 PREFETCH  ACCESS: 295909  HIT: 68164  MISS: 227745  HIT %: 23.0355  MISS %: 76.9645  AVERAGE MISS PENALTY: 704.527
LLC3 WRITEBACK ACCESS: 216563  HIT: 176481  MISS: 40082  HIT %: 81.4918  MISS %: 18.5082  AVERAGE MISS PENALTY: 0

LLC4 TOTAL     ACCESS: 513802  HIT: 246302  MISS: 267500  HIT %: 47.9371  MISS %: 52.0629  AVERAGE MISS PENALTY: 532.167
LLC4 LOAD      ACCESS:  1201  HIT:  1024  MISS:   177  HIT %: 85.2623  MISS %: 14.7377  AVERAGE MISS PENALTY: 726.35
LLC4 RFO       ACCESS:   433  HIT:   405  MISS:    28  HIT %: 93.5335  MISS %: 6.46651  AVERAGE MISS PENALTY: 789.357
LLC4 PREFETCH  ACCESS: 295603  HIT: 67799  MISS: 227804  HIT %: 22.9358  MISS %: 77.0642  AVERAGE MISS PENALTY: 624.238
LLC4 WRITEBACK ACCESS: 216565  HIT: 177074  MISS: 39491  HIT %: 81.7648  MISS %: 18.2352  AVERAGE MISS PENALTY: 0

LLC5 TOTAL     ACCESS: 512829  HIT: 245170  MISS: 267659  HIT %: 47.8074  MISS %: 52.1926  AVERAGE MISS PENALTY: 542.674
LLC5 LOAD      ACCESS:   646  HIT:   530  MISS:   116  HIT %: 82.0433  MISS %: 17.9567  AVERAGE MISS PENALTY: 631.276
LLC5 RFO       ACCESS:     1  HIT:     0  MISS:     1  HIT %:     0  MISS %:   100  AVERAGE MISS PENALTY: 851
LLC5 PREFETCH  ACCESS: 296046  HIT: 67421  MISS: 228625  HIT %: 22.7738  MISS %: 77.2262  AVERAGE MISS PENALTY: 635.003
LLC5 WRITEBACK ACCESS: 216136  HIT: 177219  MISS: 38917  HIT %: 81.9942  MISS %: 18.0058  AVERAGE MISS PENALTY: 0

LLC6 TOTAL     ACCESS: 512335  HIT: 241904  MISS: 270431  HIT %: 47.216  MISS %: 52.784  AVERAGE MISS PENALTY: 598.497
LLC6 LOAD      ACCESS:  1059  HIT:   905  MISS:   154  HIT %: 85.458  MISS %: 14.542  AVERAGE MISS PENALTY: 712.513
LLC6 RFO       ACCESS:     1  HIT:     0  MISS:     1  HIT %:     0  MISS %:   100  AVERAGE MISS PENALTY: 566
LLC6 PREFETCH  ACCESS: 295146  HIT: 66230  MISS: 228916  HIT %: 22.4397  MISS %: 77.5603  AVERAGE MISS PENALTY: 706.555
LLC6 WRITEBACK ACCESS: 216129  HIT: 174769  MISS: 41360  HIT %: 80.8633  MISS %: 19.1367  AVERAGE MISS PENALTY: 0

LLC7 TOTAL     ACCESS: 512313  HIT: 237812  MISS: 274501  HIT %: 46.4193  MISS %: 53.5807  AVERAGE MISS PENALTY: 603.707
LLC7 LOAD      ACCESS:  1050  HIT:   929  MISS:   121  HIT %: 88.4762  MISS %: 11.5238  AVERAGE MISS PENALTY: 679.669
LLC7 RFO       ACCESS:     1  HIT:     0  MISS:     1  HIT %:     0  MISS %:   100  AVERAGE MISS PENALTY: 922
LLC7 PREFETCH  ACCESS: 295132  HIT: 65582  MISS: 229550  HIT %: 22.2212  MISS %: 77.7788  AVERAGE MISS PENALTY: 721.564
LLC7 WRITEBACK ACCESS: 216130  HIT: 171301  MISS: 44829  HIT %: 79.2583  MISS %: 20.7417  AVERAGE MISS PENALTY: 0

Total Rob stall cycles : 	306978469
Total Load Rob Stall cycles : 	241163290
Average Rob Stall cycles : 	 24
Average Load Rob Stall cycles : 	 78

CPU 1 cumulative IPC: 0.567579 instructions: 200511997 cycles: 353275732
ITLB TOTAL     ACCESS: 32363812  HIT: 32363801  MISS:    11  HIT %:   100  MISS %: 3.39886e-05  AVERAGE MISS PENALTY: 127
ITLB LOAD      ACCESS: 32363812  HIT: 32363801  MISS:    11  HIT %:   100  MISS %: 3.39886e-05  AVERAGE MISS PENALTY: 127
ITLB RFO       ACCESS:     0  HIT:     0  MISS:     0  HIT %:     0  MISS %:     0  AVERAGE MISS PENALTY: 0
ITLB PREFETCH  ACCESS:     0  HIT:     0  MISS:     0  HIT %:     0  MISS %:     0  AVERAGE MISS PENALTY: 0
ITLB WRITEBACK ACCESS:     0  HIT:     0  MISS:     0  HIT %:     0  MISS %:     0  AVERAGE MISS PENALTY: 0

DTLB TOTAL     ACCESS: 33813909  HIT: 33767676  MISS: 46233  HIT %: 99.8633  MISS %: 0.136728  AVERAGE MISS PENALTY: 67.6325
DTLB LOAD      ACCESS: 28375865  HIT: 28330085  MISS: 45780  HIT %: 99.8387  MISS %: 0.161334  AVERAGE MISS PENALTY: 68.2127
DTLB RFO       ACCESS: 5438044  HIT: 5437591  MISS:   453  HIT %: 99.9917  MISS %: 0.0083302  AVERAGE MISS PENALTY: 9
DTLB PREFETCH  ACCESS:     0  HIT:     0  MISS:     0  HIT %:     0  MISS %:     0  AVERAGE MISS PENALTY: 0
DTLB WRITEBACK ACCESS:     0  HIT:     0  MISS:     0  HIT %:     0  MISS %:     0  AVERAGE MISS PENALTY: 0

STLB TOTAL     ACCESS: 46244  HIT: 19163  MISS: 27081  HIT %: 41.4389  MISS %: 58.5611  AVERAGE MISS PENALTY: 100
STLB LOAD      ACCESS: 45791  HIT: 18710  MISS: 27081  HIT %: 40.8596  MISS %: 59.1404  AVERAGE MISS PENALTY: 100
STLB RFO       ACCESS:   453  HIT:   453  MISS:     0  HIT %:   100  MISS %:     0  AVERAGE MISS PENALTY: 0
STLB PREFETCH  ACCESS:     0  HIT:     0  MISS:     0  HIT %:     0  MISS %:     0  AVERAGE MISS PENALTY: 0
STLB WRITEBACK ACCESS:     0  HIT:     0  MISS:     0  HIT %:     0  MISS %:     0  AVERAGE MISS PENALTY: 0

L1D TOTAL     ACCESS: 50211455  HIT: 47593996  MISS: 2617459  HIT %: 94.7871  MISS %: 5.21287  AVERAGE MISS PENALTY: 6.20186e+07
L1D LOAD      ACCESS: 26751844  HIT: 26078911  MISS: 672933  HIT %: 97.4845  MISS %: 2.51546  AVERAGE MISS PENALTY: 2.41229e+08
L1D RFO       ACCESS: 14175042  HIT: 14171977  MISS:  3065  HIT %: 99.9784  MISS %: 0.0216225  AVERAGE MISS PENALTY: 53.5553
L1D PREFETCH  ACCESS: 9284569  HIT: 7343108  MISS: 1941461  HIT %: 79.0894  MISS %: 20.9106  AVERAGE MISS PENALTY: 260.617
L1D WRITEBACK ACCESS:     0  HIT:     0  MISS:     0  HIT %:     0  MISS %:     0  AVERAGE MISS PENALTY: 0

L1I TOTAL     ACCESS: 44232496  HIT: 44232219  MISS:   277  HIT %: 99.9994  MISS %: 0.000626236  AVERAGE MISS PENALTY: 217.881
L1I LOAD      ACCESS: 44232496  HIT: 44232219  MISS:   277  HIT %: 99.9994  MISS %: 0.000626236  AVERAGE MISS PENALTY: 217.881
L1I RFO       ACCESS:     0  HIT:     0  MISS:     0  HIT %:     0  MISS %:     0  AVERAGE MISS PENALTY: 0
L1I PREFETCH  ACCESS:     0  HIT:     0  MISS:     0  HIT %:     0  MISS %:     0  AVERAGE MISS PENALTY: 0
L1I WRITEBACK ACCESS:     0  HIT:     0  MISS:     0  HIT %:     0  MISS %:     0  AVERAGE MISS PENALTY: 0

L2C TOTAL     ACCESS: 6165157  HIT: 3769486  MISS: 2395671  HIT %: 61.1418  MISS %: 38.8582  AVERAGE MISS PENALTY: 6.62369e+07
L2C LOAD      ACCESS: 660475  HIT: 10761  MISS: 649714  HIT %: 1.62928  MISS %: 98.3707  AVERAGE MISS PENALTY: 2.44232e+08
L2C RFO       ACCESS:  3065  HIT:  1532  MISS:  1533  HIT %: 49.9837  MISS %: 50.0163  AVERAGE MISS PENALTY: 77.0842
L2C PREFETCH  ACCESS: 3768455  HIT: 2024031  MISS: 1744424  HIT %: 53.7098  MISS %: 46.2902  AVERAGE MISS PENALTY: 407.949
L2C WRITEBACK ACCESS: 1733162  HIT: 1733162  MISS:     0  HIT %:   100  MISS %:     0  AVERAGE MISS PENALTY: 0


LLC0 TOTAL     ACCESS: 515743  HIT: 240403  MISS: 275340  HIT %: 46.6129  MISS %: 53.3871  AVERAGE MISS PENALTY: 506.337
LLC0 LOAD      ACCESS: 38286  HIT: 10058  MISS: 28228  HIT %: 26.2707  MISS %: 73.7293  AVERAGE MISS PENALTY: 585.727
LLC0 RFO       ACCESS:   184  HIT:   174  MISS:    10  HIT %: 94.5652  MISS %: 5.43478  AVERAGE MISS PENALTY: 412
LLC0 PREFETCH  ACCESS: 260924  HIT: 62985  MISS: 197939  HIT %: 24.1392  MISS %: 75.8608  AVERAGE MISS PENALTY: 620.782
LLC0 WRITEBACK ACCESS: 216349  HIT: 167186  MISS: 49163  HIT %: 77.2761  MISS %: 22.7239  AVERAGE MISS PENALTY: 0

LLC1 TOTAL     ACCESS: 516103  HIT: 242692  MISS: 273411  HIT %: 47.0239  MISS %: 52.9761  AVERAGE MISS PENALTY: 512.326
LLC1 LOAD      ACCESS:  3002  HIT:   573  MISS:  2429  HIT %: 19.0873  MISS %: 80.9127  AVERAGE MISS PENALTY: 656.97
LLC1 RFO       ACCESS:   319  HIT:   301  MISS:    18  HIT %: 94.3574  MISS %: 5.64263  AVERAGE MISS PENALTY: 767.111
LLC1 PREFETCH  ACCESS: 296277  HIT: 72000  MISS: 224277  HIT %: 24.3016  MISS %: 75.6984  AVERAGE MISS PENALTY: 617.388
LLC1 WRITEBACK ACCESS: 216505  HIT: 169818  MISS: 46687  HIT %: 78.4361  MISS %: 21.5639  AVERAGE MISS PENALTY: 0

LLC2 TOTAL     ACCESS: 515951  HIT: 245464  MISS: 270487  HIT %: 47.5751  MISS %: 52.4249  AVERAGE MISS PENALTY: 600.104
LLC2 LOAD      ACCESS:   874  HIT:   719  MISS:   155  HIT %: 82.2654  MISS %: 17.7346  AVERAGE MISS PENALTY: 633.148
LLC2 RFO       ACCESS:   159  HIT:   151  MISS:     8  HIT %: 94.9686  MISS %: 5.03145  AVERAGE MISS PENALTY: 536.375
LLC2 PREFETCH  ACCESS: 298569  HIT: 70984  MISS: 227585  HIT %: 23.7747  MISS %: 76.2253  AVERAGE MISS PENALTY: 712.779
LLC2 WRITEBACK ACCESS: 216349  HIT: 173610  MISS: 42739  HIT %: 80.2453  MISS %: 19.7547  AVERAGE MISS PENALTY: 0

[...]
 TIMELY PREFETCHES:        386 LATE PREFETCHES: 0 DROPPED PREFETCHES: 0
LLC1 AVERAGE MISS LATENCY: 507.092 cycles
LLC2 TOTAL     ACCESS: 540356  HIT: 265729  MISS: 274627  HIT %: 49.1767  MISS %: 50.8233  AVERAGE MISS PENALTY: 592.373
LLC2 LOAD      ACCESS:   296  HIT:   131  MISS:   165  HIT %: 44.2568  MISS %: 55.7432  AVERAGE MISS PENALTY: 623.139
LLC2 RFO       ACCESS:    46  HIT:    43  MISS:     3  HIT %: 93.4783  MISS %: 6.52174  AVERAGE MISS PENALTY: 809
LLC2 PREFETCH  ACCESS: 324419  HIT: 96459  MISS: 227960  HIT %: 29.7328  MISS %: 70.2672  AVERAGE MISS PENALTY: 713.179
LLC2 WRITEBACK ACCESS: 215595  HIT: 169096  MISS: 46499  HIT %: 78.4322  MISS %: 21.5678  AVERAGE MISS PENALTY: 0
LLC2 PREFETCH  REQUESTED:     0  ISSUED:     0  USEFUL:   390  USELESS: 1825163
 USEFUL LOAD PREFETCHES:        390 PREFETCH ISSUED TO LOWER LEVEL:    1823317  ACCURACY: 0.0213896
 TIMELY PREFETCHES:        390 LATE PREFETCHES: 0 DROPPED PREFETCHES: 0
LLC2 AVERAGE MISS LATENCY: 592.373 cycles
LLC3 TOTAL     ACCESS: 541837  HIT: 269498  MISS: 272339  HIT %: 49.7378  MISS %: 50.2622  AVERAGE MISS PENALTY: 590.564
LLC3 LOAD      ACCESS:  1035  HIT:   904  MISS:   131  HIT %: 87.343  MISS %: 12.657  AVERAGE MISS PENALTY: 656.748
LLC3 RFO       ACCESS:   432  HIT:   408  MISS:    24  HIT %: 94.4444  MISS %: 5.55556  AVERAGE MISS PENALTY: 767.833
LLC3 PREFETCH  ACCESS: 324380  HIT: 95942  MISS: 228438  HIT %: 29.577  MISS %: 70.423  AVERAGE MISS PENALTY: 703.601
LLC3 WRITEBACK ACCESS: 215990  HIT: 172244  MISS: 43746  HIT %: 79.7463  MISS %: 20.2537  AVERAGE MISS PENALTY: 0
LLC3 PREFETCH  REQUESTED:     0  ISSUED:     0  USEFUL:   360  USELESS: 1828103
 USEFUL LOAD PREFETCHES:        360 PREFETCH ISSUED TO LOWER LEVEL:    1826329  ACCURACY: 0.0197117
 TIMELY PREFETCHES:        360 LATE PREFETCHES: 0 DROPPED PREFETCHES: 0
LLC3 AVERAGE MISS LATENCY: 590.564 cycles
LLC4 TOTAL     ACCESS: 541779  HIT: 270108  MISS: 271671  HIT %: 49.8558  MISS %: 50.1442  AVERAGE MISS PENALTY: 527.481
LLC4 LOAD      ACCESS:  1051  HIT:   856  MISS:   195  HIT %: 81.4462  MISS %: 18.5538  AVERAGE MISS PENALTY: 697.2
LLC4 RFO       ACCESS:   433  HIT:   407  MISS:    26  HIT %: 93.9954  MISS %: 6.00462  AVERAGE MISS PENALTY: 742.731
LLC4 PREFETCH  ACCESS: 324305  HIT: 95871  MISS: 228434  HIT %: 29.562  MISS %: 70.438  AVERAGE MISS PENALTY: 626.64
LLC4 WRITEBACK ACCESS: 215990  HIT: 172974  MISS: 43016  HIT %: 80.0843  MISS %: 19.9157  AVERAGE MISS PENALTY: 0
LLC4 PREFETCH  REQUESTED:     0  ISSUED:     0  USEFUL:   389  USELESS: 1827698
 USEFUL LOAD PREFETCHES:        389 PREFETCH ISSUED TO LOWER LEVEL:    1826067  ACCURACY: 0.0213026
 TIMELY PREFETCHES:        389 LATE PREFETCHES: 0 DROPPED PREFETCHES: 0
LLC4 AVERAGE MISS LATENCY: 527.481 cycles
LLC5 TOTAL     ACCESS: 540853  HIT: 268507  MISS: 272346  HIT %: 49.6451  MISS %: 50.3549  AVERAGE MISS PENALTY: 536.243
LLC5 LOAD      ACCESS:   628  HIT:   540  MISS:    88  HIT %: 85.9873  MISS %: 14.0127  AVERAGE MISS PENALTY: 560.909
LLC5 RFO       ACCESS:     1  HIT:     0  MISS:     1  HIT %:     0  MISS %:   100  AVERAGE MISS PENALTY: 174
LLC5 PREFETCH  ACCESS: 324666  HIT: 95098  MISS: 229568  HIT %: 29.291  MISS %: 70.709  AVERAGE MISS PENALTY: 635.951
LLC5 WRITEBACK ACCESS: 215558  HIT: 172869  MISS: 42689  HIT %: 80.196  MISS %: 19.804  AVERAGE MISS PENALTY: 0
LLC5 PREFETCH  REQUESTED:     0  ISSUED:     0  USEFUL:   331  USELESS: 1834427
 USEFUL LOAD PREFETCHES:        331 PREFETCH ISSUED TO LOWER LEVEL:    1832810  ACCURACY: 0.0180597
 TIMELY PREFETCHES:        331 LATE PREFETCHES: 0 DROPPED PREFETCHES: 0
LLC5 AVERAGE MISS LATENCY: 536.243 cycles
LLC6 TOTAL     ACCESS: 540548  HIT: 265238  MISS: 275310  HIT %: 49.0684  MISS %: 50.9316  AVERAGE MISS PENALTY: 592.495
LLC6 LOAD      ACCESS:  1011  HIT:   871  MISS:   140  HIT %: 86.1523  MISS %: 13.8477  AVERAGE MISS PENALTY: 681.764
LLC6 RFO       ACCESS:     1  HIT:     0  MISS:     1  HIT %:     0  MISS %:   100  AVERAGE MISS PENALTY: 201
LLC6 PREFETCH  ACCESS: 323981  HIT: 94106  MISS: 229875  HIT %: 29.0468  MISS %: 70.9532  AVERAGE MISS PENALTY: 709.187
LLC6 WRITEBACK ACCESS: 215555  HIT: 170261  MISS: 45294  HIT %: 78.9873  MISS %: 21.0127  AVERAGE MISS PENALTY: 0
LLC6 PREFETCH  REQUESTED:     0  ISSUED:     0  USEFUL:   332  USELESS: 1837980
 USEFUL LOAD PREFETCHES:        332 PREFETCH ISSUED TO LOWER LEVEL:    1836177  ACCURACY: 0.018081
 TIMELY PREFETCHES:        332 LATE PREFETCHES: 0 DROPPED PREFETCHES: 0
LLC6 AVERAGE MISS LATENCY: 592.495 cycles
LLC7 TOTAL     ACCESS: 540505  HIT: 260946  MISS: 279559  HIT %: 48.2782  MISS %: 51.7218  AVERAGE MISS PENALTY: 597.514
LLC7 LOAD      ACCESS:  1052  HIT:   865  MISS:   187  HIT %: 82.2243  MISS %: 17.7757  AVERAGE MISS PENALTY: 668.545
LLC7 RFO       ACCESS:     1  HIT:     0  MISS:     1  HIT %:     0  MISS %:   100  AVERAGE MISS PENALTY: 174
LLC7 PREFETCH  ACCESS: 323897  HIT: 92806  MISS: 231091  HIT %: 28.6529  MISS %: 71.3471  AVERAGE MISS PENALTY: 722.292
LLC7 WRITEBACK ACCESS: 215555  HIT: 167275  MISS: 48280  HIT %: 77.602  MISS %: 22.398  AVERAGE MISS PENALTY: 0
LLC7 PREFETCH  REQUESTED:     0  ISSUED:     0  USEFUL:   331  USELESS: 1845055
 USEFUL LOAD PREFETCHES:        331 PREFETCH ISSUED TO LOWER LEVEL:    1843147  ACCURACY: 0.0179584
 TIMELY PREFETCHES:        331 LATE PREFETCHES: 0 DROPPED PREFETCHES: 0
LLC7 AVERAGE MISS LATENCY: 597.514 cycles
ROI Average ROB Stall Cycles:	24.6444
ROI Total ROB Stalls Cycles:	306347489
ROI TOTAL ROB counter      :	12430729
ROI Average Load ROB Stall Cycles:	78.1638
ROI Total Load ROB Stalls Cycle  :	240634163
ROI Total Load ROB stalls Counter:	3078587
Major fault: 0 Minor fault: 54555

CPU 7 cumulative IPC: 0.567555 instructions: 200000001 cycles: 352388545
ITLB TOTAL     ACCESS: 32285713  HIT: 32285702  MISS:    11  HIT %:   100  MISS %: 3.40708e-05  AVERAGE MISS PENALTY: 127
ITLB LOAD      ACCESS: 32285713  HIT: 32285702  MISS:    11  HIT %:   100  MISS %: 3.40708e-05  AVERAGE MISS PENALTY: 127
ITLB RFO       ACCESS:     0  HIT:     0  MISS:     0  HIT %:     0  MISS %:     0  AVERAGE MISS PENALTY: 0
ITLB PREFETCH  ACCESS:     0  HIT:     0  MISS:     0  HIT %:     0  MISS %:     0  AVERAGE MISS PENALTY: 0
ITLB WRITEBACK ACCESS:     0  HIT:     0  MISS:     0  HIT %:     0  MISS %:     0  AVERAGE MISS PENALTY: 0
ITLB PREFETCH  REQUESTED:     0  ISSUED:     0  USEFUL:     0  USELESS:     0
 USEFUL LOAD PREFETCHES:          0 PREFETCH ISSUED TO LOWER LEVEL:          0  ACCURACY: -nan
 TIMELY PREFETCHES:          0 LATE PREFETCHES: 0 DROPPED PREFETCHES: 0
ITLB AVERAGE MISS LATENCY: 127 cycles
DTLB TOTAL     ACCESS: 33724824  HIT: 33678709  MISS: 46115  HIT %: 99.8633  MISS %: 0.136739  AVERAGE MISS PENALTY: 67.6265
DTLB LOAD      ACCESS: 28300919  HIT: 28255256  MISS: 45663  HIT %: 99.8387  MISS %: 0.161348  AVERAGE MISS PENALTY: 68.2069
DTLB RFO       ACCESS: 5423905  HIT: 5423453  MISS:   452  HIT %: 99.9917  MISS %: 0.00833348  AVERAGE MISS PENALTY: 9
DTLB PREFETCH  ACCESS:     0  HIT:     0  MISS:     0  HIT %:     0  MISS %:     0  AVERAGE MISS PENALTY: 0
DTLB WRITEBACK ACCESS:     0  HIT:     0  MISS:     0  HIT %:     0  MISS %:     0  AVERAGE MISS PENALTY: 0
DTLB PREFETCH  REQUESTED:     0  ISSUED:     0  USEFUL:     0  USELESS:     0
 USEFUL LOAD PREFETCHES:          0 PREFETCH ISSUED TO LOWER LEVEL:          0  ACCURACY: -nan
 TIMELY PREFETCHES:          0 LATE PREFETCHES: 0 DROPPED PREFETCHES: 0
DTLB AVERAGE MISS LATENCY: 67.6265 cycles
STLB TOTAL     ACCESS: 46126  HIT: 19114  MISS: 27012  HIT %: 41.4387  MISS %: 58.5613  AVERAGE MISS PENALTY: 100
STLB LOAD      ACCESS: 45674  HIT: 18662  MISS: 27012  HIT %: 40.8591  MISS %: 59.1409  AVERAGE MISS PENALTY: 100
STLB RFO       ACCESS:   452  HIT:   452  MISS:     0  HIT %:   100  MISS %:     0  AVERAGE MISS PENALTY: 0
STLB PREFETCH  ACCESS:     0  HIT:     0  MISS:     0  HIT %:     0  MISS %:     0  AVERAGE MISS PENALTY: 0
STLB WRITEBACK ACCESS:     0  HIT:     0  MISS:     0  HIT %:     0  MISS %:     0  AVERAGE MISS PENALTY: 0
STLB PREFETCH  REQUESTED:     0  ISSUED:     0  USEFUL:     0  USELESS:     0
 USEFUL LOAD PREFETCHES:          0 PREFETCH ISSUED TO LOWER LEVEL:          0  ACCURACY: -nan
 TIMELY PREFETCHES:          0 LATE PREFETCHES: 0 DROPPED PREFETCHES: 0
STLB AVERAGE MISS LATENCY: 100 cycles
L1D TOTAL     ACCESS: 50072121  HIT: 47461438  MISS: 2610683  HIT %: 94.7862  MISS %: 5.21385  AVERAGE MISS PENALTY: 6.19279e+07
L1D LOAD      ACCESS: 26682929  HIT: 26011237  MISS: 671692  HIT %: 97.4827  MISS %: 2.51731  AVERAGE MISS PENALTY: 2.40696e+08
L1D RFO       ACCESS: 14137636  HIT: 14134577  MISS:  3059  HIT %: 99.9784  MISS %: 0.0216373  AVERAGE MISS PENALTY: 93.1451
L1D PREFETCH  ACCESS: 9251556  HIT: 7315624  MISS: 1935932  HIT %: 79.0745  MISS %: 20.9255  AVERAGE MISS PENALTY: 261.503
L1D WRITEBACK ACCESS:     0  HIT:     0  MISS:     0  HIT %:     0  MISS %:     0  AVERAGE MISS PENALTY: 0
L1D PREFETCH  REQUESTED: 19431798  ISSUED: 19370895  USEFUL: 1929433  USELESS:  6490
 USEFUL LOAD PREFETCHES:    1929433 PREFETCH ISSUED TO LOWER LEVEL:   10644867  ACCURACY: 18.1255
 TIMELY PREFETCHES:    1929433 LATE PREFETCHES: 768470 DROPPED PREFETCHES: 60903
L1D AVERAGE MISS LATENCY: 303.03 cycles
L1I TOTAL     ACCESS: 44124939  HIT: 44124662  MISS:   277  HIT %: 99.9994  MISS %: 0.000627763  AVERAGE MISS PENALTY: 335.531
L1I LOAD      ACCESS: 44124939  HIT: 44124662  MISS:   277  HIT %: 99.9994  MISS %: 0.000627763  AVERAGE MISS PENALTY: 335.531
L1I RFO       ACCESS:     0  HIT:     0  MISS:     0  HIT %:     0  MISS %:     0  AVERAGE MISS PENALTY: 0
L1I PREFETCH  ACCESS:     0  HIT:     0  MISS:     0  HIT %:     0  MISS %:     0  AVERAGE MISS PENALTY: 0
L1I WRITEBACK ACCESS:     0  HIT:     0  MISS:     0  HIT %:     0  MISS %:     0  AVERAGE MISS PENALTY: 0
L1I PREFETCH  REQUESTED:     0  ISSUED:     0  USEFUL:     0  USELESS:     0
 USEFUL LOAD PREFETCHES:          0 PREFETCH ISSUED TO LOWER LEVEL:          0  ACCURACY: -nan
 TIMELY PREFETCHES:          0 LATE PREFETCHES: 0 DROPPED PREFETCHES: 0
L1I AVERAGE MISS LATENCY: 335.531 cycles
L2C TOTAL     ACCESS: 6121756  HIT: 3515994  MISS: 2605762  HIT %: 57.4344  MISS %: 42.5656  AVERAGE MISS PENALTY: 6.06709e+07
L2C LOAD      ACCESS: 659330  HIT:  6561  MISS: 652769  HIT %: 0.995101  MISS %: 99.0049  AVERAGE MISS PENALTY: 2.42188e+08
L2C RFO       ACCESS:  3059  HIT:   307  MISS:  2752  HIT %: 10.036  MISS %: 89.964  AVERAGE MISS PENALTY: 31092.7
L2C PREFETCH  ACCESS: 3730680  HIT: 1780446  MISS: 1950234  HIT %: 47.7244  MISS %: 52.2756  AVERAGE MISS PENALTY: 370.877
L2C WRITEBACK ACCESS: 1728687  HIT: 1728680  MISS:     7  HIT %: 99.9996  MISS %: 0.000404932  AVERAGE MISS PENALTY: 0
L2C PREFETCH  REQUESTED: 3979151  ISSUED: 3979142  USEFUL:  2215  USELESS: 1950491
 USEFUL LOAD PREFETCHES:       2215 PREFETCH ISSUED TO LOWER LEVEL:    4416277  ACCURACY: 0.0501554
 TIMELY PREFETCHES:       2215 LATE PREFETCHES: 604789 DROPPED PREFETCHES: 9
L2C AVERAGE MISS LATENCY: 384.205 cycles
LLC0 TOTAL     ACCESS: 541347  HIT: 261364  MISS: 279983  HIT %: 48.2803  MISS %: 51.7197  AVERAGE MISS PENALTY: 497.149
LLC0 LOAD      ACCESS: 41288  HIT: 13151  MISS: 28137  HIT %: 31.8519  MISS %: 68.1481  AVERAGE MISS PENALTY: 577.286
LLC0 RFO       ACCESS:   461  HIT:   432  MISS:    29  HIT %: 93.7093  MISS %: 6.29067  AVERAGE MISS PENALTY: 709.448
LLC0 PREFETCH  ACCESS: 283528  HIT: 85489  MISS: 198039  HIT %: 30.1519  MISS %: 69.8481  AVERAGE MISS PENALTY: 620.734
LLC0 WRITEBACK ACCESS: 216070  HIT: 162292  MISS: 53778  HIT %: 75.1108  MISS %: 24.8892  AVERAGE MISS PENALTY: 0
LLC0 PREFETCH  REQUESTED:     0  ISSUED:     0  USEFUL:   307  USELESS: 1588490
 USEFUL LOAD PREFETCHES:        307 PREFETCH ISSUED TO LOWER LEVEL:    1586127  ACCURACY: 0.0193553
 TIMELY PREFETCHES:        307 LATE PREFETCHES: 0 DROPPED PREFETCHES: 0
LLC0 AVERAGE MISS LATENCY: 497.149 cycles
Deadblocks : 220450 Deadblock percentage : 783.488

LLC1 TOTAL     ACCESS: 542419  HIT: 264411  MISS: 278008  HIT %: 48.7466  MISS %: 51.2534  AVERAGE MISS PENALTY: 503.983
LLC1 LOAD      ACCESS:  3321  HIT:   873  MISS:  2448  HIT %: 26.2873  MISS %: 73.7127  AVERAGE MISS PENALTY: 662.366
LLC1 RFO       ACCESS:   864  HIT:   788  MISS:    76  HIT %: 91.2037  MISS %: 8.7963  AVERAGE MISS PENALTY: 590.539
LLC1 PREFETCH  ACCESS: 321724  HIT: 97273  MISS: 224451  HIT %: 30.2349  MISS %: 69.7651  AVERAGE MISS PENALTY: 616.815
LLC1 WRITEBACK ACCESS: 216510  HIT: 165477  MISS: 51033  HIT %: 76.4293  MISS %: 23.5707  AVERAGE MISS PENALTY: 0
LLC1 PREFETCH  REQUESTED:     0  ISSUED:     0  USEFUL:   386  USELESS: 1797527
 USEFUL LOAD PREFETCHES:        386 PREFETCH ISSUED TO LOWER LEVEL:    1795617  ACCURACY: 0.0214968
 TIMELY PREFETCHES:        386 LATE PREFETCHES: 0 DROPPED PREFETCHES: 0
LLC1 AVERAGE MISS LATENCY: 503.983 cycles
LLC2 TOTAL     ACCESS: 541581  HIT: 266086  MISS: 275495  HIT %: 49.1313  MISS %: 50.8687  AVERAGE MISS PENALTY: 589.458
LLC2 LOAD      ACCESS:   682  HIT:   536  MISS:   146  HIT %: 78.5924  MISS %: 21.4076  AVERAGE MISS PENALTY: 565.863
LLC2 RFO       ACCESS:   432  HIT:   398  MISS:    34  HIT %: 92.1296  MISS %: 7.87037  AVERAGE MISS PENALTY: 654.853
LLC2 PREFETCH  ACCESS: 324386  HIT: 96461  MISS: 227925  HIT %: 29.7365  MISS %: 70.2635  AVERAGE MISS PENALTY: 712.024
LLC2 WRITEBACK ACCESS: 216081  HIT: 168691  MISS: 47390  HIT %: 78.0684  MISS %: 21.9316  AVERAGE MISS PENALTY: 0
LLC2 PREFETCH  REQUESTED:     0  ISSUED:     0  USEFUL:   390  USELESS: 1825163
 USEFUL LOAD PREFETCHES:        390 PREFETCH ISSUED TO LOWER LEVEL:    1823317  ACCURACY: 0.0213896
 TIMELY PREFETCHES:        390 LATE PREFETCHES: 0 DROPPED PREFETCHES: 0
LLC2 AVERAGE MISS LATENCY: 589.458 cycles
LLC3 TOTAL     ACCESS: 543211  HIT: 269958  MISS: 273253  HIT %: 49.6967  MISS %: 50.3033  AVERAGE MISS PENALTY: 588.852
LLC3 LOAD      ACCESS:  1465  HIT:  1329  MISS:   136  HIT %: 90.7167  MISS %: 9.28328  AVERAGE MISS PENALTY: 729.162
LLC3 RFO       ACCESS:   559  HIT:   535  MISS:    24  HIT %: 95.7066  MISS %: 4.29338  AVERAGE MISS PENALTY: 783
LLC3 PREFETCH  ACCESS: 324675  HIT: 96072  MISS: 228603  HIT %: 29.5902  MISS %: 70.4098  AVERAGE MISS PENALTY: 703.349
LLC3 WRITEBACK ACCESS: 216512  HIT: 172022  MISS: 44490  HIT %: 79.4515  MISS %: 20.5485  AVERAGE MISS PENALTY: 0
LLC3 PREFETCH  REQUESTED:     0  ISSUED:     0  USEFUL:   360  USELESS: 1828103
 USEFUL LOAD PREFETCHES:        360 PREFETCH ISSUED TO LOWER LEVEL:    1826329  ACCURACY: 0.0197117
 TIMELY PREFETCHES:        360 LATE PREFETCHES: 0 DROPPED PREFETCHES: 0
LLC3 AVERAGE MISS LATENCY: 588.852 cycles
LLC4 TOTAL     ACCESS: 542544  HIT: 269955  MISS: 272589  HIT %: 49.7573  MISS %: 50.2427  AVERAGE MISS PENALTY: 523.745
LLC4 LOAD      ACCESS:  1460  HIT:  1291  MISS:   169  HIT %: 88.4247  MISS %: 11.5753  AVERAGE MISS PENALTY: 748.675
LLC4 RFO       ACCESS:   432  HIT:   395  MISS:    37  HIT %: 91.4352  MISS %: 8.56481  AVERAGE MISS PENALTY: 925.432
LLC4 PREFETCH  ACCESS: 324577  HIT: 96177  MISS: 228400  HIT %: 29.6315  MISS %: 70.3685  AVERAGE MISS PENALTY: 624.371
LLC4 WRITEBACK ACCESS: 216075  HIT: 172092  MISS: 43983  HIT %: 79.6446  MISS %: 20.3554  AVERAGE MISS PENALTY: 0
LLC4 PREFETCH  REQUESTED:     0  ISSUED:     0  USEFUL:   389  USELESS: 1827698
 USEFUL LOAD PREFETCHES:        389 PREFETCH ISSUED TO LOWER LEVEL:    1826067  ACCURACY: 0.0213026
 TIMELY PREFETCHES:        389 LATE PREFETCHES: 0 DROPPED PREFETCHES: 0
LLC4 AVERAGE MISS LATENCY: 523.745 cycles
LLC5 TOTAL     ACCESS: 541338  HIT: 268782  MISS: 272556  HIT %: 49.6514  MISS %: 50.3486  AVERAGE MISS PENALTY: 535.714
LLC5 LOAD      ACCESS:  1020  HIT:   923  MISS:    97  HIT %: 90.4902  MISS %: 9.5098  AVERAGE MISS PENALTY: 668.557
LLC5 RFO       ACCESS:     1  HIT:     0  MISS:     1  HIT %:     0  MISS %:   100  AVERAGE MISS PENALTY: 619
LLC5 PREFETCH  ACCESS: 324674  HIT: 95386  MISS: 229288  HIT %: 29.379  MISS %: 70.621  AVERAGE MISS PENALTY: 636.521
LLC5 WRITEBACK ACCESS: 215643  HIT: 172473  MISS: 43170  HIT %: 79.9808  MISS %: 20.0192  AVERAGE MISS PENALTY: 0
LLC5 PREFETCH  REQUESTED:     0  ISSUED:     0  USEFUL:   331  USELESS: 1834427
 USEFUL LOAD PREFETCHES:        331 PREFETCH ISSUED TO LOWER LEVEL:    1832810  ACCURACY: 0.0180597
 TIMELY PREFETCHES:        331 LATE PREFETCHES: 0 DROPPED PREFETCHES: 0
LLC5 AVERAGE MISS LATENCY: 535.714 cycles
LLC6 TOTAL     ACCESS: 540896  HIT: 264734  MISS: 276162  HIT %: 48.9436  MISS %: 51.0564  AVERAGE MISS PENALTY: 591.478
LLC6 LOAD      ACCESS:  1027  HIT:   893  MISS:   134  HIT %: 86.9523  MISS %: 13.0477  AVERAGE MISS PENALTY: 684.291
LLC6 RFO       ACCESS:     1  HIT:     0  MISS:     1  HIT %:     0  MISS %:   100  AVERAGE MISS PENALTY: 723
LLC6 PREFETCH  ACCESS: 324223  HIT: 94425  MISS: 229798  HIT %: 29.1235  MISS %: 70.8765  AVERAGE MISS PENALTY: 710.412
LLC6 WRITEBACK ACCESS: 215645  HIT: 169416  MISS: 46229  HIT %: 78.5625  MISS %: 21.4375  AVERAGE MISS PENALTY: 0
LLC6 PREFETCH  REQUESTED:     0  ISSUED:     0  USEFUL:   332  USELESS: 1837980
 USEFUL LOAD PREFETCHES:        332 PREFETCH ISSUED TO LOWER LEVEL:    1836177  ACCURACY: 0.018081
 TIMELY PREFETCHES:        332 LATE PREFETCHES: 0 DROPPED PREFETCHES: 0
LLC6 AVERAGE MISS LATENCY: 591.478 cycles
LLC7 TOTAL     ACCESS: 540598  HIT: 260364  MISS: 280234  HIT %: 48.1622  MISS %: 51.8378  AVERAGE MISS PENALTY: 595.419
LLC7 LOAD      ACCESS:  1052  HIT:   902  MISS:   150  HIT %: 85.7414  MISS %: 14.2586  AVERAGE MISS PENALTY: 722.927
LLC7 RFO       ACCESS:     1  HIT:     0  MISS:     1  HIT %:     0  MISS %:   100  AVERAGE MISS PENALTY: 1616
LLC7 PREFETCH  ACCESS: 323902  HIT: 93071  MISS: 230831  HIT %: 28.7343  MISS %: 71.2657  AVERAGE MISS PENALTY: 722.375
LLC7 WRITEBACK ACCESS: 215643  HIT: 166391  MISS: 49252  HIT %: 77.1604  MISS %: 22.8396  AVERAGE MISS PENALTY: 0
LLC7 PREFETCH  REQUESTED:     0  ISSUED:     0  USEFUL:   331  USELESS: 1845055
 USEFUL LOAD PREFETCHES:        331 PREFETCH ISSUED TO LOWER LEVEL:    1843147  ACCURACY: 0.0179584
 TIMELY PREFETCHES:        331 LATE PREFETCHES: 0 DROPPED PREFETCHES: 0
LLC7 AVERAGE MISS LATENCY: 595.418 cycles
ROI Average ROB Stall Cycles:	24.6296
ROI Total ROB Stalls Cycles:	306224643
ROI TOTAL ROB counter      :	12433211
ROI Average Load ROB Stall Cycles:	78.0933
ROI Total Load ROB Stalls Cycle  :	240470776
ROI Total Load ROB stalls Counter:	3079274
Major fault: 0 Minor fault: 54567








Interconnect Stats 
LINK 0 BW : 0LINK 1 BW : 0LINK 2 BW : 0LINK 3 BW : 0LINK 4 BW : 0LINK 5 BW : 0LINK 6 BW : 0LINK 7 BW : 0
DRAM Statistics
 CHANNEL 0
 RQ ROW_BUFFER_HIT: 3041423  ROW_BUFFER_MISS: 4260170
 DBUS_CONGESTED: 18634167
 WQ ROW_BUFFER_HIT: 956372  ROW_BUFFER_MISS: 5974598  FULL:  6648

 CHANNEL 1
 RQ ROW_BUFFER_HIT: 3050856  ROW_BUFFER_MISS: 4270225
 DBUS_CONGESTED: 18634167
 WQ ROW_BUFFER_HIT: 951249  ROW_BUFFER_MISS: 5979884  FULL:  5363

 AVG_CONGESTED_CYCLE: 6
DRAM PAGES: 2097152
Allocated PAGES: 436424
L2C destructor called
L1D destructor called
L1I destructor called
STLB destructor called
DTLB destructor called
ITLB destructor called
L2C destructor called
L1D destructor called
L1I destructor called
STLB destructor called
DTLB destructor called
ITLB destructor called
L2C destructor called
L1D destructor called
L1I destructor called
STLB destructor called
DTLB destructor called
ITLB destructor called
L2C destructor called
L1D destructor called
L1I destructor called
STLB destructor called
DTLB destructor called
ITLB destructor called
L2C destructor called
L1D destructor called
L1I destructor called
STLB destructor called
DTLB destructor called
ITLB destructor called
L2C destructor called
L1D destructor called
L1I destructor called
STLB destructor called
DTLB destructor called
ITLB destructor called
L2C destructor called
L1D destructor called
L1I destructor called
STLB destructor called
DTLB destructor called
ITLB destructor called
L2C destructor called
L1D destructor called
L1I destructor called
STLB destructor called
DTLB destructor called
ITLB destructor called
