
*** ChampSim Multicore Out-of-Order Simulator ***

Warmup Instructions: 200000000
Simulation Instructions: 200000000
Number of CPUs: 8
threads:1

L1I Configuration:
L1I_SET:64
L1I_WAY:8
L1I_RQ_SIZE:64
L1I_WQ_SIZE:64
L1I_PQ_SIZE:8
L1I_MSHR_SIZE:8

L1D Configuration:
L1D_SET:64
L1D_WAY:12
L1D_RQ_SIZE:64
L1D_WQ_SIZE:64
L1D_PQ_SIZE:8
L1D_MSHR_SIZE:16

L2C Configuration:
L2C_SET:1024
L2C_WAY:8
L2C_RQ_SIZE:32
L2C_WQ_SIZE:32
L2C_PQ_SIZE:16
L2C_MSHR_SIZE:32

LLC Configuration:
LLC_SET:2048
LLC_WAY:16
LLC SLICES:8
LLC_RQ_SIZE:64
LLC_WQ_SIZE:64
LLC_PQ_SIZE:32
LLC_MSHR_SIZE:64

Interconnect OFF
Attacker deprioritize is: OFF
Off-chip DRAM Size: 8192 MB Channels: 2 Width: 64-bit Data Rate: 3200 MT/s
PAGE SIZE in KB: 4.000000 
PAGE SIZE in MB: 0.003906 
PAGE offset in bits: 12 
CEASER-S_LLC:0
MIRAGE : 0
CEASER_LATENCY:3
REMAP : OFF
Partitions : 1
Multi-Step : OFF
BFS : OFF

CPU 0 runs /home/anubhav/spec_2017/649.fotonik3d_s-7084B.champsimtrace.xz
CPU 1 runs /home/anubhav/spec_2017/649.fotonik3d_s-7084B.champsimtrace.xz
CPU 2 runs /home/anubhav/spec_2017/649.fotonik3d_s-7084B.champsimtrace.xz
CPU 3 runs /home/anubhav/spec_2017/649.fotonik3d_s-7084B.champsimtrace.xz
CPU 4 runs /home/anubhav/spec_2017/649.fotonik3d_s-7084B.champsimtrace.xz
CPU 5 runs /home/anubhav/spec_2017/649.fotonik3d_s-7084B.champsimtrace.xz
CPU 6 runs /home/anubhav/spec_2017/649.fotonik3d_s-7084B.champsimtrace.xz
CPU 7 runs /home/anubhav/spec_2017/649.fotonik3d_s-7084B.champsimtrace.xz
CPU 0 Bimodal branch predictor
Initialize Hawkeye state
Initialize Hawkeye state
Initialize Hawkeye state
Initialize Hawkeye state
Initialize Hawkeye state
Initialize Hawkeye state
Initialize Hawkeye state
Initialize Hawkeye state
CPU 1 Bimodal branch predictor
Initialize Hawkeye state
Initialize Hawkeye state
Initialize Hawkeye state
Initialize Hawkeye state
Initialize Hawkeye state
Initialize Hawkeye state
Initialize Hawkeye state
Initialize Hawkeye state
CPU 2 Bimodal branch predictor
Initialize Hawkeye state
Initialize Hawkeye state
Initialize Hawkeye state
Initialize Hawkeye state
Initialize Hawkeye state
Initialize Hawkeye state
Initialize Hawkeye state
Initialize Hawkeye state
CPU 3 Bimodal branch predictor
Initialize Hawkeye state
Initialize Hawkeye state
Initialize Hawkeye state
Initialize Hawkeye state
Initialize Hawkeye state
Initialize Hawkeye state
Initialize Hawkeye state
Initialize Hawkeye state
CPU 4 Bimodal branch predictor
Initialize Hawkeye state
Initialize Hawkeye state
Initialize Hawkeye state
Initialize Hawkeye state
Initialize Hawkeye state
Initialize Hawkeye state
Initialize Hawkeye state
Initialize Hawkeye state
CPU 5 Bimodal branch predictor
Initialize Hawkeye state
Initialize Hawkeye state
Initialize Hawkeye state
Initialize Hawkeye state
Initialize Hawkeye state
Initialize Hawkeye state
Initialize Hawkeye state
Initialize Hawkeye state
CPU 6 Bimodal branch predictor
Initialize Hawkeye state
Initialize Hawkeye state
Initialize Hawkeye state
Initialize Hawkeye state
Initialize Hawkeye state
Initialize Hawkeye state
Initialize Hawkeye state
Initialize Hawkeye state
CPU 7 Bimodal branch predictor
Initialize Hawkeye state
Initialize Hawkeye state
Initialize Hawkeye state
Initialize Hawkeye state
Initialize Hawkeye state
Initialize Hawkeye state
Initialize Hawkeye state
Initialize Hawkeye state
Heartbeat CPU 1 instructions: 10000000 cycles: 4056937 heartbeat IPC: 2.46491 cumulative IPC: 2.46491 (Simulation time: 4 hr 5 min 9 sec) 
 Total Blocks : 262144 Invalid Blocks : 14334
Heartbeat CPU 4 instructions: 10000000 cycles: 4056964 heartbeat IPC: 2.4649 cumulative IPC: 2.4649 (Simulation time: 4 hr 5 min 37 sec) 
 Total Blocks : 262144 Invalid Blocks : 14334
Heartbeat CPU 0 instructions: 10000000 cycles: 4056972 heartbeat IPC: 2.46489 cumulative IPC: 2.46489 (Simulation time: 4 hr 5 min 41 sec) 
 Total Blocks : 262144 Invalid Blocks : 14334
Heartbeat CPU 3 instructions: 10000000 cycles: 4056993 heartbeat IPC: 2.46488 cumulative IPC: 2.46488 (Simulation time: 4 hr 5 min 42 sec) 
 Total Blocks : 262144 Invalid Blocks : 14334
Heartbeat CPU 2 instructions: 10000000 cycles: 4056995 heartbeat IPC: 2.46488 cumulative IPC: 2.46488 (Simulation time: 4 hr 5 min 42 sec) 
 Total Blocks : 262144 Invalid Blocks : 14334
Heartbeat CPU 5 instructions: 10000000 cycles: 4057002 heartbeat IPC: 2.46487 cumulative IPC: 2.46487 (Simulation time: 4 hr 5 min 42 sec) 
 Total Blocks : 262144 Invalid Blocks : 14334
Heartbeat CPU 6 instructions: 10000000 cycles: 4057010 heartbeat IPC: 2.46487 cumulative IPC: 2.46487 (Simulation time: 4 hr 5 min 43 sec) 
 Total Blocks : 262144 Invalid Blocks : 14333
Heartbeat CPU 7 instructions: 10000000 cycles: 4057021 heartbeat IPC: 2.46486 cumulative IPC: 2.46486 (Simulation time: 4 hr 5 min 43 sec) 
 Total Blocks : 262144 Invalid Blocks : 14333
Heartbeat CPU 1 instructions: 20000000 cycles: 8114139 heartbeat IPC: 2.46475 cumulative IPC: 2.46483 (Simulation time: 8 hr 7 min 10 sec) 
 Total Blocks : 262144 Invalid Blocks : 2913
Heartbeat CPU 4 instructions: 20000000 cycles: 8114188 heartbeat IPC: 2.46474 cumulative IPC: 2.46482 (Simulation time: 8 hr 7 min 18 sec) 
 Total Blocks : 262144 Invalid Blocks : 2913
Heartbeat CPU 0 instructions: 20000000 cycles: 8114192 heartbeat IPC: 2.46474 cumulative IPC: 2.46482 (Simulation time: 8 hr 7 min 18 sec) 
 Total Blocks : 262144 Invalid Blocks : 2913
Heartbeat CPU 2 instructions: 20000000 cycles: 8114209 heartbeat IPC: 2.46475 cumulative IPC: 2.46481 (Simulation time: 8 hr 7 min 18 sec) 
 Total Blocks : 262144 Invalid Blocks : 2913
Heartbeat CPU 3 instructions: 20000000 cycles: 8114215 heartbeat IPC: 2.46474 cumulative IPC: 2.46481 (Simulation time: 8 hr 7 min 18 sec) 
 Total Blocks : 262144 Invalid Blocks : 2913
Heartbeat CPU 6 instructions: 20000000 cycles: 8114243 heartbeat IPC: 2.46473 cumulative IPC: 2.4648 (Simulation time: 8 hr 7 min 18 sec) 
 Total Blocks : 262144 Invalid Blocks : 2913
Heartbeat CPU 5 instructions: 20000000 cycles: 8114250 heartbeat IPC: 2.46472 cumulative IPC: 2.4648 (Simulation time: 8 hr 7 min 19 sec) 
 Total Blocks : 262144 Invalid Blocks : 2913
Heartbeat CPU 7 instructions: 20000000 cycles: 8114254 heartbeat IPC: 2.46473 cumulative IPC: 2.4648 (Simulation time: 8 hr 7 min 19 sec) 
 Total Blocks : 262144 Invalid Blocks : 2913
Heartbeat CPU 1 instructions: 30000001 cycles: 12165521 heartbeat IPC: 2.46829 cumulative IPC: 2.46599 (Simulation time: 12 hr 4 min 51 sec) 
 Total Blocks : 262144 Invalid Blocks : 743
Heartbeat CPU 4 instructions: 30000001 cycles: 12165567 heartbeat IPC: 2.4683 cumulative IPC: 2.46598 (Simulation time: 12 hr 5 min 0 sec) 
 Total Blocks : 262144 Invalid Blocks : 743
Heartbeat CPU 0 instructions: 30000001 cycles: 12165573 heartbeat IPC: 2.46829 cumulative IPC: 2.46598 (Simulation time: 12 hr 5 min 1 sec) 
 Total Blocks : 262144 Invalid Blocks : 743
Heartbeat CPU 2 instructions: 30000001 cycles: 12165603 heartbeat IPC: 2.46829 cumulative IPC: 2.46597 (Simulation time: 12 hr 5 min 1 sec) 
 Total Blocks : 262144 Invalid Blocks : 743
Heartbeat CPU 3 instructions: 30000001 cycles: 12165616 heartbeat IPC: 2.46828 cumulative IPC: 2.46597 (Simulation time: 12 hr 5 min 1 sec) 
 Total Blocks : 262144 Invalid Blocks : 743
Heartbeat CPU 6 instructions: 30000001 cycles: 12165629 heartbeat IPC: 2.46829 cumulative IPC: 2.46596 (Simulation time: 12 hr 5 min 1 sec) 
 Total Blocks : 262144 Invalid Blocks : 743
Heartbeat CPU 5 instructions: 30000001 cycles: 12165653 heartbeat IPC: 2.46828 cumulative IPC: 2.46596 (Simulation time: 12 hr 5 min 1 sec) 
 Total Blocks : 262144 Invalid Blocks : 743
Heartbeat CPU 7 instructions: 30000001 cycles: 12165655 heartbeat IPC: 2.46828 cumulative IPC: 2.46596 (Simulation time: 12 hr 5 min 1 sec) 
 Total Blocks : 262144 Invalid Blocks : 743
Heartbeat CPU 1 instructions: 40000001 cycles: 16214942 heartbeat IPC: 2.46949 cumulative IPC: 2.46686 (Simulation time: 15 hr 34 min 40 sec) 
 Total Blocks : 262144 Invalid Blocks : 193
Heartbeat CPU 0 instructions: 40000001 cycles: 16214995 heartbeat IPC: 2.46949 cumulative IPC: 2.46685 (Simulation time: 15 hr 34 min 46 sec) 
 Total Blocks : 262144 Invalid Blocks : 193
Heartbeat CPU 4 instructions: 40000001 cycles: 16215001 heartbeat IPC: 2.46948 cumulative IPC: 2.46685 (Simulation time: 15 hr 34 min 46 sec) 
 Total Blocks : 262144 Invalid Blocks : 193
Heartbeat CPU 2 instructions: 40000001 cycles: 16215028 heartbeat IPC: 2.46949 cumulative IPC: 2.46685 (Simulation time: 15 hr 34 min 46 sec) 
 Total Blocks : 262144 Invalid Blocks : 193
Heartbeat CPU 3 instructions: 40000001 cycles: 16215063 heartbeat IPC: 2.46947 cumulative IPC: 2.46684 (Simulation time: 15 hr 34 min 46 sec) 
 Total Blocks : 262144 Invalid Blocks : 193
Heartbeat CPU 6 instructions: 40000001 cycles: 16215068 heartbeat IPC: 2.46948 cumulative IPC: 2.46684 (Simulation time: 15 hr 34 min 46 sec) 
 Total Blocks : 262144 Invalid Blocks : 193
Heartbeat CPU 5 instructions: 40000001 cycles: 16215107 heartbeat IPC: 2.46947 cumulative IPC: 2.46684 (Simulation time: 15 hr 34 min 47 sec) 
 Total Blocks : 262144 Invalid Blocks : 193
Heartbeat CPU 7 instructions: 40000001 cycles: 16215110 heartbeat IPC: 2.46947 cumulative IPC: 2.46684 (Simulation time: 15 hr 34 min 47 sec) 
 Total Blocks : 262144 Invalid Blocks : 193
Heartbeat CPU 1 instructions: 50000001 cycles: 20264130 heartbeat IPC: 2.46963 cumulative IPC: 2.46741 (Simulation time: 18 hr 40 min 56 sec) 
 Total Blocks : 262144 Invalid Blocks : 45
Heartbeat CPU 0 instructions: 50000001 cycles: 20264182 heartbeat IPC: 2.46963 cumulative IPC: 2.46741 (Simulation time: 18 hr 40 min 58 sec) 
 Total Blocks : 262144 Invalid Blocks : 45
Heartbeat CPU 4 instructions: 50000001 cycles: 20264201 heartbeat IPC: 2.46962 cumulative IPC: 2.46741 (Simulation time: 18 hr 40 min 58 sec) 
 Total Blocks : 262144 Invalid Blocks : 45
Heartbeat CPU 2 instructions: 50000001 cycles: 20264235 heartbeat IPC: 2.46962 cumulative IPC: 2.4674 (Simulation time: 18 hr 40 min 58 sec) 
 Total Blocks : 262144 Invalid Blocks : 45
Heartbeat CPU 3 instructions: 50000001 cycles: 20264253 heartbeat IPC: 2.46963 cumulative IPC: 2.4674 (Simulation time: 18 hr 40 min 58 sec) 
 Total Blocks : 262144 Invalid Blocks : 45
Heartbeat CPU 6 instructions: 50000001 cycles: 20264279 heartbeat IPC: 2.46962 cumulative IPC: 2.4674 (Simulation time: 18 hr 40 min 58 sec) 
 Total Blocks : 262144 Invalid Blocks : 45
Heartbeat CPU 7 instructions: 50000001 cycles: 20264304 heartbeat IPC: 2.46963 cumulative IPC: 2.46739 (Simulation time: 18 hr 40 min 58 sec) 
 Total Blocks : 262144 Invalid Blocks : 45
Heartbeat CPU 5 instructions: 50000001 cycles: 20264313 heartbeat IPC: 2.46962 cumulative IPC: 2.46739 (Simulation time: 18 hr 40 min 58 sec) 
 Total Blocks : 262144 Invalid Blocks : 45
Heartbeat CPU 1 instructions: 60000001 cycles: 24311603 heartbeat IPC: 2.47068 cumulative IPC: 2.46796 (Simulation time: 21 hr 49 min 17 sec) 
 Total Blocks : 262144 Invalid Blocks : 16
Heartbeat CPU 0 instructions: 60000001 cycles: 24311660 heartbeat IPC: 2.47067 cumulative IPC: 2.46795 (Simulation time: 21 hr 49 min 20 sec) 
 Total Blocks : 262144 Invalid Blocks : 16
Heartbeat CPU 4 instructions: 60000001 cycles: 24311691 heartbeat IPC: 2.47067 cumulative IPC: 2.46795 (Simulation time: 21 hr 49 min 20 sec) 
 Total Blocks : 262144 Invalid Blocks : 16
Heartbeat CPU 2 instructions: 60000001 cycles: 24311713 heartbeat IPC: 2.47067 cumulative IPC: 2.46795 (Simulation time: 21 hr 49 min 20 sec) 
 Total Blocks : 262144 Invalid Blocks : 16
Heartbeat CPU 3 instructions: 60000001 cycles: 24311750 heartbeat IPC: 2.47066 cumulative IPC: 2.46794 (Simulation time: 21 hr 49 min 20 sec) 
 Total Blocks : 262144 Invalid Blocks : 16
Heartbeat CPU 6 instructions: 60000001 cycles: 24311755 heartbeat IPC: 2.47068 cumulative IPC: 2.46794 (Simulation time: 21 hr 49 min 20 sec) 
 Total Blocks : 262144 Invalid Blocks : 16
Heartbeat CPU 5 instructions: 60000001 cycles: 24311790 heartbeat IPC: 2.47067 cumulative IPC: 2.46794 (Simulation time: 21 hr 49 min 20 sec) 
 Total Blocks : 262144 Invalid Blocks : 16
Heartbeat CPU 7 instructions: 60000001 cycles: 24311808 heartbeat IPC: 2.47066 cumulative IPC: 2.46794 (Simulation time: 21 hr 49 min 20 sec) 
 Total Blocks : 262144 Invalid Blocks : 16
Heartbeat CPU 1 instructions: 70000003 cycles: 28358404 heartbeat IPC: 2.47109 cumulative IPC: 2.4684 (Simulation time: 24 hr 48 min 50 sec) 
 Total Blocks : 262144 Invalid Blocks : 7
Heartbeat CPU 0 instructions: 70000003 cycles: 28358461 heartbeat IPC: 2.47109 cumulative IPC: 2.4684 (Simulation time: 24 hr 48 min 52 sec) 
 Total Blocks : 262144 Invalid Blocks : 7
Heartbeat CPU 4 instructions: 70000003 cycles: 28358500 heartbeat IPC: 2.47108 cumulative IPC: 2.4684 (Simulation time: 24 hr 48 min 52 sec) 
 Total Blocks : 262144 Invalid Blocks : 7
Heartbeat CPU 2 instructions: 70000003 cycles: 28358512 heartbeat IPC: 2.47109 cumulative IPC: 2.46839 (Simulation time: 24 hr 48 min 52 sec) 
 Total Blocks : 262144 Invalid Blocks : 7
Heartbeat CPU 3 instructions: 70000003 cycles: 28358560 heartbeat IPC: 2.47108 cumulative IPC: 2.46839 (Simulation time: 24 hr 48 min 52 sec) 
 Total Blocks : 262144 Invalid Blocks : 7
Heartbeat CPU 6 instructions: 70000003 cycles: 28358569 heartbeat IPC: 2.47108 cumulative IPC: 2.46839 (Simulation time: 24 hr 48 min 52 sec) 
 Total Blocks : 262144 Invalid Blocks : 7
Heartbeat CPU 5 instructions: 70000003 cycles: 28358599 heartbeat IPC: 2.47108 cumulative IPC: 2.46839 (Simulation time: 24 hr 48 min 52 sec) 
 Total Blocks : 262144 Invalid Blocks : 7
Heartbeat CPU 7 instructions: 70000003 cycles: 28358627 heartbeat IPC: 2.47108 cumulative IPC: 2.46838 (Simulation time: 24 hr 48 min 52 sec) 
 Total Blocks : 262144 Invalid Blocks : 7
Heartbeat CPU 1 instructions: 80000002 cycles: 32414896 heartbeat IPC: 2.46518 cumulative IPC: 2.468 (Simulation time: 27 hr 48 min 5 sec) 
 Total Blocks : 262144 Invalid Blocks : 2
Heartbeat CPU 0 instructions: 80000002 cycles: 32414954 heartbeat IPC: 2.46518 cumulative IPC: 2.468 (Simulation time: 27 hr 48 min 7 sec) 
 Total Blocks : 262144 Invalid Blocks : 2
Heartbeat CPU 4 instructions: 80000002 cycles: 32414994 heartbeat IPC: 2.46518 cumulative IPC: 2.46799 (Simulation time: 27 hr 48 min 7 sec) 
 Total Blocks : 262144 Invalid Blocks : 2
Heartbeat CPU 2 instructions: 80000002 cycles: 32415007 heartbeat IPC: 2.46518 cumulative IPC: 2.46799 (Simulation time: 27 hr 48 min 8 sec) 
 Total Blocks : 262144 Invalid Blocks : 2
Heartbeat CPU 3 instructions: 80000002 cycles: 32415057 heartbeat IPC: 2.46518 cumulative IPC: 2.46799 (Simulation time: 27 hr 48 min 8 sec) 
 Total Blocks : 262144 Invalid Blocks : 2
Heartbeat CPU 6 instructions: 80000002 cycles: 32415097 heartbeat IPC: 2.46516 cumulative IPC: 2.46799 (Simulation time: 27 hr 48 min 8 sec) 
 Total Blocks : 262144 Invalid Blocks : 2
Heartbeat CPU 5 instructions: 80000002 cycles: 32415105 heartbeat IPC: 2.46518 cumulative IPC: 2.46799 (Simulation time: 27 hr 48 min 8 sec) 
 Total Blocks : 262144 Invalid Blocks : 2
Heartbeat CPU 7 instructions: 80000002 cycles: 32415149 heartbeat IPC: 2.46517 cumulative IPC: 2.46798 (Simulation time: 27 hr 48 min 8 sec) 
 Total Blocks : 262144 Invalid Blocks : 2
Heartbeat CPU 1 instructions: 90000002 cycles: 36465556 heartbeat IPC: 2.46873 cumulative IPC: 2.46808 (Simulation time: 30 hr 46 min 42 sec) 
 Total Blocks : 262144 Invalid Blocks : 0
Heartbeat CPU 0 instructions: 90000002 cycles: 36465614 heartbeat IPC: 2.46873 cumulative IPC: 2.46808 (Simulation time: 30 hr 46 min 44 sec) 
 Total Blocks : 262144 Invalid Blocks : 0
Heartbeat CPU 4 instructions: 90000002 cycles: 36465662 heartbeat IPC: 2.46873 cumulative IPC: 2.46808 (Simulation time: 30 hr 46 min 44 sec) 
 Total Blocks : 262144 Invalid Blocks : 0
Heartbeat CPU 2 instructions: 90000002 cycles: 36465667 heartbeat IPC: 2.46873 cumulative IPC: 2.46808 (Simulation time: 30 hr 46 min 44 sec) 
 Total Blocks : 262144 Invalid Blocks : 0
Heartbeat CPU 3 instructions: 90000002 cycles: 36465715 heartbeat IPC: 2.46873 cumulative IPC: 2.46807 (Simulation time: 30 hr 46 min 44 sec) 
 Total Blocks : 262144 Invalid Blocks : 0
Heartbeat CPU 6 instructions: 90000002 cycles: 36465770 heartbeat IPC: 2.46873 cumulative IPC: 2.46807 (Simulation time: 30 hr 46 min 44 sec) 
 Total Blocks : 262144 Invalid Blocks : 0
Heartbeat CPU 5 instructions: 90000002 cycles: 36465776 heartbeat IPC: 2.46873 cumulative IPC: 2.46807 (Simulation time: 30 hr 46 min 44 sec) 
 Total Blocks : 262144 Invalid Blocks : 0
Heartbeat CPU 7 instructions: 90000002 cycles: 36465824 heartbeat IPC: 2.46872 cumulative IPC: 2.46806 (Simulation time: 30 hr 46 min 44 sec) 
 Total Blocks : 262144 Invalid Blocks : 0
Heartbeat CPU 1 instructions: 100000000 cycles: 40512018 heartbeat IPC: 2.47129 cumulative IPC: 2.4684 (Simulation time: 33 hr 49 min 49 sec) 
 Total Blocks : 262144 Invalid Blocks : 0
Heartbeat CPU 0 instructions: 100000000 cycles: 40512080 heartbeat IPC: 2.47129 cumulative IPC: 2.4684 (Simulation time: 33 hr 49 min 51 sec) 
 Total Blocks : 262144 Invalid Blocks : 0
Heartbeat CPU 2 instructions: 100000000 cycles: 40512125 heartbeat IPC: 2.4713 cumulative IPC: 2.4684 (Simulation time: 33 hr 49 min 51 sec) 
 Total Blocks : 262144 Invalid Blocks : 0
Heartbeat CPU 4 instructions: 100000000 cycles: 40512127 heartbeat IPC: 2.47129 cumulative IPC: 2.4684 (Simulation time: 33 hr 49 min 51 sec) 
 Total Blocks : 262144 Invalid Blocks : 0
Heartbeat CPU 3 instructions: 100000000 cycles: 40512177 heartbeat IPC: 2.47129 cumulative IPC: 2.46839 (Simulation time: 33 hr 49 min 51 sec) 
 Total Blocks : 262144 Invalid Blocks : 0
Heartbeat CPU 5 instructions: 100000000 cycles: 40512240 heartbeat IPC: 2.47129 cumulative IPC: 2.46839 (Simulation time: 33 hr 49 min 51 sec) 
 Total Blocks : 262144 Invalid Blocks : 0
Heartbeat CPU 6 instructions: 100000000 cycles: 40512265 heartbeat IPC: 2.47127 cumulative IPC: 2.46839 (Simulation time: 33 hr 49 min 51 sec) 
 Total Blocks : 262144 Invalid Blocks : 0
Heartbeat CPU 7 instructions: 100000000 cycles: 40512305 heartbeat IPC: 2.47128 cumulative IPC: 2.46839 (Simulation time: 33 hr 49 min 54 sec) 
 Total Blocks : 262144 Invalid Blocks : 0
Heartbeat CPU 1 instructions: 110000000 cycles: 44558560 heartbeat IPC: 2.47125 cumulative IPC: 2.46866 (Simulation time: 36 hr 54 min 13 sec) 
 Total Blocks : 262144 Invalid Blocks : 0
Heartbeat CPU 0 instructions: 110000000 cycles: 44558627 heartbeat IPC: 2.47124 cumulative IPC: 2.46866 (Simulation time: 36 hr 54 min 15 sec) 
 Total Blocks : 262144 Invalid Blocks : 0
Heartbeat CPU 4 instructions: 110000000 cycles: 44558674 heartbeat IPC: 2.47124 cumulative IPC: 2.46866 (Simulation time: 36 hr 54 min 15 sec) 
 Total Blocks : 262144 Invalid Blocks : 0
Heartbeat CPU 2 instructions: 110000000 cycles: 44558679 heartbeat IPC: 2.47124 cumulative IPC: 2.46865 (Simulation time: 36 hr 54 min 15 sec) 
 Total Blocks : 262144 Invalid Blocks : 0
Heartbeat CPU 3 instructions: 110000000 cycles: 44558731 heartbeat IPC: 2.47124 cumulative IPC: 2.46865 (Simulation time: 36 hr 54 min 15 sec) 
 Total Blocks : 262144 Invalid Blocks : 0
Heartbeat CPU 5 instructions: 110000000 cycles: 44558790 heartbeat IPC: 2.47124 cumulative IPC: 2.46865 (Simulation time: 36 hr 54 min 15 sec) 
 Total Blocks : 262144 Invalid Blocks : 0
Heartbeat CPU 6 instructions: 110000000 cycles: 44558839 heartbeat IPC: 2.47123 cumulative IPC: 2.46865 (Simulation time: 36 hr 54 min 15 sec) 
 Total Blocks : 262144 Invalid Blocks : 0
Heartbeat CPU 7 instructions: 110000000 cycles: 44558870 heartbeat IPC: 2.47123 cumulative IPC: 2.46864 (Simulation time: 36 hr 54 min 15 sec) 
 Total Blocks : 262144 Invalid Blocks : 0
Heartbeat CPU 1 instructions: 120000003 cycles: 48604864 heartbeat IPC: 2.47139 cumulative IPC: 2.46889 (Simulation time: 39 hr 56 min 3 sec) 
 Total Blocks : 262144 Invalid Blocks : 0
Heartbeat CPU 0 instructions: 120000003 cycles: 48604924 heartbeat IPC: 2.4714 cumulative IPC: 2.46889 (Simulation time: 39 hr 56 min 5 sec) 
 Total Blocks : 262144 Invalid Blocks : 0
Heartbeat CPU 2 instructions: 120000003 cycles: 48604984 heartbeat IPC: 2.47139 cumulative IPC: 2.46888 (Simulation time: 39 hr 56 min 5 sec) 
 Total Blocks : 262144 Invalid Blocks : 0
Heartbeat CPU 4 instructions: 120000003 cycles: 48604985 heartbeat IPC: 2.47139 cumulative IPC: 2.46888 (Simulation time: 39 hr 56 min 5 sec) 
 Total Blocks : 262144 Invalid Blocks : 0
Heartbeat CPU 3 instructions: 120000003 cycles: 48605042 heartbeat IPC: 2.47139 cumulative IPC: 2.46888 (Simulation time: 39 hr 56 min 5 sec) 
 Total Blocks : 262144 Invalid Blocks : 0
Heartbeat CPU 5 instructions: 120000003 cycles: 48605101 heartbeat IPC: 2.47139 cumulative IPC: 2.46888 (Simulation time: 39 hr 56 min 5 sec) 
 Total Blocks : 262144 Invalid Blocks : 0
Heartbeat CPU 6 instructions: 120000003 cycles: 48605149 heartbeat IPC: 2.47139 cumulative IPC: 2.46887 (Simulation time: 39 hr 56 min 5 sec) 
 Total Blocks : 262144 Invalid Blocks : 0
Heartbeat CPU 7 instructions: 120000003 cycles: 48605201 heartbeat IPC: 2.47138 cumulative IPC: 2.46887 (Simulation time: 39 hr 56 min 5 sec) 
 Total Blocks : 262144 Invalid Blocks : 0
Heartbeat CPU 1 instructions: 130000002 cycles: 52650912 heartbeat IPC: 2.47155 cumulative IPC: 2.46909 (Simulation time: 43 hr 0 min 46 sec) 
 Total Blocks : 262144 Invalid Blocks : 0
Heartbeat CPU 0 instructions: 130000002 cycles: 52650960 heartbeat IPC: 2.47155 cumulative IPC: 2.46909 (Simulation time: 43 hr 0 min 48 sec) 
 Total Blocks : 262144 Invalid Blocks : 0
Heartbeat CPU 4 instructions: 130000002 cycles: 52651036 heartbeat IPC: 2.47155 cumulative IPC: 2.46909 (Simulation time: 43 hr 0 min 48 sec) 
 Total Blocks : 262144 Invalid Blocks : 0
Heartbeat CPU 2 instructions: 130000002 cycles: 52651043 heartbeat IPC: 2.47154 cumulative IPC: 2.46909 (Simulation time: 43 hr 0 min 48 sec) 
 Total Blocks : 262144 Invalid Blocks : 0
Heartbeat CPU 3 instructions: 130000002 cycles: 52651081 heartbeat IPC: 2.47155 cumulative IPC: 2.46909 (Simulation time: 43 hr 0 min 48 sec) 
 Total Blocks : 262144 Invalid Blocks : 0
Heartbeat CPU 5 instructions: 130000002 cycles: 52651134 heartbeat IPC: 2.47156 cumulative IPC: 2.46908 (Simulation time: 43 hr 0 min 49 sec) 
 Total Blocks : 262144 Invalid Blocks : 0
Heartbeat CPU 6 instructions: 130000002 cycles: 52651203 heartbeat IPC: 2.47154 cumulative IPC: 2.46908 (Simulation time: 43 hr 0 min 49 sec) 
 Total Blocks : 262144 Invalid Blocks : 0
Heartbeat CPU 7 instructions: 130000002 cycles: 52651249 heartbeat IPC: 2.47155 cumulative IPC: 2.46908 (Simulation time: 43 hr 0 min 49 sec) 
 Total Blocks : 262144 Invalid Blocks : 0
Heartbeat CPU 1 instructions: 140000000 cycles: 56702530 heartbeat IPC: 2.46815 cumulative IPC: 2.46903 (Simulation time: 46 hr 9 min 23 sec) 
 Total Blocks : 262144 Invalid Blocks : 0
Heartbeat CPU 0 instructions: 140000000 cycles: 56702568 heartbeat IPC: 2.46816 cumulative IPC: 2.46902 (Simulation time: 46 hr 9 min 30 sec) 
 Total Blocks : 262144 Invalid Blocks : 0
Heartbeat CPU 2 instructions: 140000000 cycles: 56702658 heartbeat IPC: 2.46815 cumulative IPC: 2.46902 (Simulation time: 46 hr 9 min 30 sec) 
 Total Blocks : 262144 Invalid Blocks : 0
Heartbeat CPU 4 instructions: 140000000 cycles: 56702661 heartbeat IPC: 2.46814 cumulative IPC: 2.46902 (Simulation time: 46 hr 9 min 30 sec) 
 Total Blocks : 262144 Invalid Blocks : 0
Heartbeat CPU 3 instructions: 140000000 cycles: 56702693 heartbeat IPC: 2.46815 cumulative IPC: 2.46902 (Simulation time: 46 hr 9 min 30 sec) 
 Total Blocks : 262144 Invalid Blocks : 0
Heartbeat CPU 5 instructions: 140000000 cycles: 56702757 heartbeat IPC: 2.46815 cumulative IPC: 2.46902 (Simulation time: 46 hr 9 min 30 sec) 
 Total Blocks : 262144 Invalid Blocks : 0
Heartbeat CPU 6 instructions: 140000000 cycles: 56702826 heartbeat IPC: 2.46815 cumulative IPC: 2.46901 (Simulation time: 46 hr 9 min 31 sec) 
 Total Blocks : 262144 Invalid Blocks : 0
Heartbeat CPU 7 instructions: 140000000 cycles: 56702872 heartbeat IPC: 2.46815 cumulative IPC: 2.46901 (Simulation time: 46 hr 9 min 31 sec) 
 Total Blocks : 262144 Invalid Blocks : 0
Heartbeat CPU 1 instructions: 150000000 cycles: 60761627 heartbeat IPC: 2.4636 cumulative IPC: 2.46866 (Simulation time: 49 hr 13 min 14 sec) 
 Total Blocks : 262144 Invalid Blocks : 0
Heartbeat CPU 0 instructions: 150000000 cycles: 60761665 heartbeat IPC: 2.4636 cumulative IPC: 2.46866 (Simulation time: 49 hr 13 min 15 sec) 
 Total Blocks : 262144 Invalid Blocks : 0
Heartbeat CPU 2 instructions: 150000000 cycles: 60761762 heartbeat IPC: 2.4636 cumulative IPC: 2.46866 (Simulation time: 49 hr 13 min 15 sec) 
 Total Blocks : 262144 Invalid Blocks : 0
Heartbeat CPU 4 instructions: 150000000 cycles: 60761792 heartbeat IPC: 2.46358 cumulative IPC: 2.46866 (Simulation time: 49 hr 13 min 15 sec) 
 Total Blocks : 262144 Invalid Blocks : 0
Heartbeat CPU 3 instructions: 150000000 cycles: 60761796 heartbeat IPC: 2.4636 cumulative IPC: 2.46866 (Simulation time: 49 hr 13 min 15 sec) 
 Total Blocks : 262144 Invalid Blocks : 0
Heartbeat CPU 5 instructions: 150000000 cycles: 60761857 heartbeat IPC: 2.4636 cumulative IPC: 2.46865 (Simulation time: 49 hr 13 min 16 sec) 
 Total Blocks : 262144 Invalid Blocks : 0
Heartbeat CPU 6 instructions: 150000000 cycles: 60761935 heartbeat IPC: 2.46359 cumulative IPC: 2.46865 (Simulation time: 49 hr 13 min 16 sec) 
 Total Blocks : 262144 Invalid Blocks : 0
Heartbeat CPU 7 instructions: 150000000 cycles: 60761966 heartbeat IPC: 2.4636 cumulative IPC: 2.46865 (Simulation time: 49 hr 13 min 16 sec) 
 Total Blocks : 262144 Invalid Blocks : 0
Heartbeat CPU 1 instructions: 160000001 cycles: 64813196 heartbeat IPC: 2.46818 cumulative IPC: 2.46863 (Simulation time: 52 hr 14 min 54 sec) 
 Total Blocks : 262144 Invalid Blocks : 0
Heartbeat CPU 0 instructions: 160000001 cycles: 64813231 heartbeat IPC: 2.46818 cumulative IPC: 2.46863 (Simulation time: 52 hr 14 min 55 sec) 
 Total Blocks : 262144 Invalid Blocks : 0
Heartbeat CPU 2 instructions: 160000001 cycles: 64813335 heartbeat IPC: 2.46818 cumulative IPC: 2.46863 (Simulation time: 52 hr 14 min 56 sec) 
 Total Blocks : 262144 Invalid Blocks : 0
Heartbeat CPU 3 instructions: 160000001 cycles: 64813370 heartbeat IPC: 2.46818 cumulative IPC: 2.46863 (Simulation time: 52 hr 14 min 56 sec) 
 Total Blocks : 262144 Invalid Blocks : 0
Heartbeat CPU 4 instructions: 160000001 cycles: 64813378 heartbeat IPC: 2.46817 cumulative IPC: 2.46863 (Simulation time: 52 hr 14 min 56 sec) 
 Total Blocks : 262144 Invalid Blocks : 0
Heartbeat CPU 5 instructions: 160000001 cycles: 64813407 heartbeat IPC: 2.46819 cumulative IPC: 2.46863 (Simulation time: 52 hr 14 min 56 sec) 
 Total Blocks : 262144 Invalid Blocks : 0
Heartbeat CPU 6 instructions: 160000001 cycles: 64813496 heartbeat IPC: 2.46818 cumulative IPC: 2.46862 (Simulation time: 52 hr 14 min 56 sec) 
 Total Blocks : 262144 Invalid Blocks : 0
Heartbeat CPU 7 instructions: 160000001 cycles: 64813533 heartbeat IPC: 2.46818 cumulative IPC: 2.46862 (Simulation time: 52 hr 14 min 56 sec) 
 Total Blocks : 262144 Invalid Blocks : 0
Heartbeat CPU 1 instructions: 170000002 cycles: 68862924 heartbeat IPC: 2.4693 cumulative IPC: 2.46867 (Simulation time: 55 hr 14 min 57 sec) 
 Total Blocks : 262144 Invalid Blocks : 0
Heartbeat CPU 0 instructions: 170000002 cycles: 68862966 heartbeat IPC: 2.4693 cumulative IPC: 2.46867 (Simulation time: 55 hr 14 min 59 sec) 
 Total Blocks : 262144 Invalid Blocks : 0
Heartbeat CPU 2 instructions: 170000002 cycles: 68863069 heartbeat IPC: 2.4693 cumulative IPC: 2.46867 (Simulation time: 55 hr 14 min 59 sec) 
 Total Blocks : 262144 Invalid Blocks : 0
Heartbeat CPU 3 instructions: 170000002 cycles: 68863114 heartbeat IPC: 2.46929 cumulative IPC: 2.46867 (Simulation time: 55 hr 14 min 59 sec) 
 Total Blocks : 262144 Invalid Blocks : 0
Heartbeat CPU 4 instructions: 170000002 cycles: 68863135 heartbeat IPC: 2.46928 cumulative IPC: 2.46866 (Simulation time: 55 hr 15 min 0 sec) 
 Total Blocks : 262144 Invalid Blocks : 0
Heartbeat CPU 5 instructions: 170000002 cycles: 68863156 heartbeat IPC: 2.46929 cumulative IPC: 2.46866 (Simulation time: 55 hr 15 min 0 sec) 
 Total Blocks : 262144 Invalid Blocks : 0
Heartbeat CPU 6 instructions: 170000002 cycles: 68863237 heartbeat IPC: 2.46929 cumulative IPC: 2.46866 (Simulation time: 55 hr 15 min 0 sec) 
 Total Blocks : 262144 Invalid Blocks : 0
Heartbeat CPU 7 instructions: 170000002 cycles: 68863276 heartbeat IPC: 2.46929 cumulative IPC: 2.46866 (Simulation time: 55 hr 15 min 0 sec) 
 Total Blocks : 262144 Invalid Blocks : 0
Heartbeat CPU 1 instructions: 180000000 cycles: 72911441 heartbeat IPC: 2.47004 cumulative IPC: 2.46875 (Simulation time: 58 hr 5 min 43 sec) 
 Total Blocks : 262144 Invalid Blocks : 0
Heartbeat CPU 0 instructions: 180000000 cycles: 72911483 heartbeat IPC: 2.47004 cumulative IPC: 2.46875 (Simulation time: 58 hr 5 min 44 sec) 
 Total Blocks : 262144 Invalid Blocks : 0
Heartbeat CPU 2 instructions: 180000000 cycles: 72911585 heartbeat IPC: 2.47004 cumulative IPC: 2.46874 (Simulation time: 58 hr 5 min 44 sec) 
 Total Blocks : 262144 Invalid Blocks : 0
Heartbeat CPU 3 instructions: 180000000 cycles: 72911629 heartbeat IPC: 2.47004 cumulative IPC: 2.46874 (Simulation time: 58 hr 5 min 44 sec) 
 Total Blocks : 262144 Invalid Blocks : 0
Heartbeat CPU 4 instructions: 180000000 cycles: 72911665 heartbeat IPC: 2.47003 cumulative IPC: 2.46874 (Simulation time: 58 hr 5 min 44 sec) 
 Total Blocks : 262144 Invalid Blocks : 0
Heartbeat CPU 5 instructions: 180000000 cycles: 72911698 heartbeat IPC: 2.47002 cumulative IPC: 2.46874 (Simulation time: 58 hr 5 min 44 sec) 
 Total Blocks : 262144 Invalid Blocks : 0
Heartbeat CPU 6 instructions: 180000000 cycles: 72911769 heartbeat IPC: 2.47003 cumulative IPC: 2.46874 (Simulation time: 58 hr 5 min 44 sec) 
 Total Blocks : 262144 Invalid Blocks : 0
Heartbeat CPU 7 instructions: 180000000 cycles: 72911813 heartbeat IPC: 2.47003 cumulative IPC: 2.46874 (Simulation time: 58 hr 5 min 44 sec) 
 Total Blocks : 262144 Invalid Blocks : 0
Heartbeat CPU 1 instructions: 190000003 cycles: 76957274 heartbeat IPC: 2.47168 cumulative IPC: 2.4689 (Simulation time: 60 hr 54 min 35 sec) 
 Total Blocks : 262144 Invalid Blocks : 0
Heartbeat CPU 0 instructions: 190000003 cycles: 76957316 heartbeat IPC: 2.47168 cumulative IPC: 2.4689 (Simulation time: 60 hr 54 min 36 sec) 
 Total Blocks : 262144 Invalid Blocks : 0
Heartbeat CPU 2 instructions: 190000003 cycles: 76957427 heartbeat IPC: 2.47167 cumulative IPC: 2.4689 (Simulation time: 60 hr 54 min 36 sec) 
 Total Blocks : 262144 Invalid Blocks : 0
Heartbeat CPU 3 instructions: 190000003 cycles: 76957468 heartbeat IPC: 2.47168 cumulative IPC: 2.4689 (Simulation time: 60 hr 54 min 36 sec) 
 Total Blocks : 262144 Invalid Blocks : 0
Heartbeat CPU 4 instructions: 190000003 cycles: 76957505 heartbeat IPC: 2.47168 cumulative IPC: 2.46889 (Simulation time: 60 hr 54 min 36 sec) 
 Total Blocks : 262144 Invalid Blocks : 0
Heartbeat CPU 5 instructions: 190000003 cycles: 76957547 heartbeat IPC: 2.47167 cumulative IPC: 2.46889 (Simulation time: 60 hr 54 min 36 sec) 
 Total Blocks : 262144 Invalid Blocks : 0
Heartbeat CPU 6 instructions: 190000003 cycles: 76957604 heartbeat IPC: 2.47168 cumulative IPC: 2.46889 (Simulation time: 60 hr 54 min 36 sec) 
 Total Blocks : 262144 Invalid Blocks : 0
Heartbeat CPU 7 instructions: 190000003 cycles: 76957653 heartbeat IPC: 2.47168 cumulative IPC: 2.46889 (Simulation time: 60 hr 54 min 36 sec) 
 Total Blocks : 262144 Invalid Blocks : 0
Heartbeat CPU 1 instructions: 200000002 cycles: 81002445 heartbeat IPC: 2.47208 cumulative IPC: 2.46906 (Simulation time: 63 hr 30 min 40 sec) 
 Total Blocks : 262144 Invalid Blocks : 0
Heartbeat CPU 0 instructions: 200000002 cycles: 81002492 heartbeat IPC: 2.47208 cumulative IPC: 2.46906 (Simulation time: 63 hr 30 min 41 sec) 
 Total Blocks : 262144 Invalid Blocks : 0
Heartbeat CPU 2 instructions: 200000002 cycles: 81002598 heartbeat IPC: 2.47208 cumulative IPC: 2.46906 (Simulation time: 63 hr 30 min 41 sec) 
 Total Blocks : 262144 Invalid Blocks : 0
Heartbeat CPU 3 instructions: 200000002 cycles: 81002642 heartbeat IPC: 2.47208 cumulative IPC: 2.46906 (Simulation time: 63 hr 30 min 41 sec) 
 Total Blocks : 262144 Invalid Blocks : 0
Heartbeat CPU 4 instructions: 200000002 cycles: 81002683 heartbeat IPC: 2.47208 cumulative IPC: 2.46905 (Simulation time: 63 hr 30 min 41 sec) 
 Total Blocks : 262144 Invalid Blocks : 0
Heartbeat CPU 5 instructions: 200000002 cycles: 81002734 heartbeat IPC: 2.47207 cumulative IPC: 2.46905 (Simulation time: 63 hr 30 min 41 sec) 
 Total Blocks : 262144 Invalid Blocks : 0
Heartbeat CPU 6 instructions: 200000002 cycles: 81002786 heartbeat IPC: 2.47208 cumulative IPC: 2.46905 (Simulation time: 63 hr 30 min 41 sec) 
 Total Blocks : 262144 Invalid Blocks : 0
Heartbeat CPU 7 instructions: 200000002 cycles: 81002837 heartbeat IPC: 2.47208 cumulative IPC: 2.46905 (Simulation time: 63 hr 30 min 41 sec) 
 Total Blocks : 262144 Invalid Blocks : 0

Warmup complete CPU 0 instructions: 200000796 cycles: 81002837 (Simulation time: 63 hr 30 min 41 sec) 
Warmup complete CPU 1 instructions: 200000933 cycles: 81002837 (Simulation time: 63 hr 30 min 41 sec) 
Warmup complete CPU 2 instructions: 200000563 cycles: 81002837 (Simulation time: 63 hr 30 min 41 sec) 
Warmup complete CPU 3 instructions: 200000460 cycles: 81002837 (Simulation time: 63 hr 30 min 41 sec) 
Warmup complete CPU 4 instructions: 200000415 cycles: 81002837 (Simulation time: 63 hr 30 min 41 sec) 
Warmup complete CPU 5 instructions: 200000239 cycles: 81002837 (Simulation time: 63 hr 30 min 41 sec) 
Warmup complete CPU 6 instructions: 200000069 cycles: 81002837 (Simulation time: 63 hr 30 min 41 sec) 
Warmup complete CPU 7 instructions: 200000002 cycles: 81002837 (Simulation time: 63 hr 30 min 41 sec) 

Heartbeat CPU 5 instructions: 210000003 cycles: 96666159 heartbeat IPC: 0.63843 cumulative IPC: 0.638419 (Simulation time: 66 hr 12 min 38 sec) 
 Total Blocks : 262144 Invalid Blocks : 0
Heartbeat CPU 0 instructions: 210000003 cycles: 96691069 heartbeat IPC: 0.637407 cumulative IPC: 0.63737 (Simulation time: 66 hr 12 min 53 sec) 
 Total Blocks : 262144 Invalid Blocks : 0
Heartbeat CPU 2 instructions: 210000003 cycles: 96727892 heartbeat IPC: 0.635918 cumulative IPC: 0.635892 (Simulation time: 66 hr 13 min 13 sec) 
 Total Blocks : 262144 Invalid Blocks : 0
Heartbeat CPU 4 instructions: 210000003 cycles: 96815930 heartbeat IPC: 0.632381 cumulative IPC: 0.632361 (Simulation time: 66 hr 14 min 9 sec) 
 Total Blocks : 262144 Invalid Blocks : 0
Heartbeat CPU 7 instructions: 210000003 cycles: 96846849 heartbeat IPC: 0.631153 cumulative IPC: 0.631153 (Simulation time: 66 hr 14 min 25 sec) 
 Total Blocks : 262144 Invalid Blocks : 0
Heartbeat CPU 6 instructions: 210000003 cycles: 96907246 heartbeat IPC: 0.628754 cumulative IPC: 0.628752 (Simulation time: 66 hr 14 min 59 sec) 
 Total Blocks : 262144 Invalid Blocks : 0
Heartbeat CPU 3 instructions: 210000003 cycles: 96999961 heartbeat IPC: 0.625105 cumulative IPC: 0.625084 (Simulation time: 66 hr 15 min 52 sec) 
 Total Blocks : 262144 Invalid Blocks : 0
Heartbeat CPU 1 instructions: 210000003 cycles: 97281091 heartbeat IPC: 0.614302 cumulative IPC: 0.614259 (Simulation time: 66 hr 18 min 43 sec) 
 Total Blocks : 262144 Invalid Blocks : 0
Heartbeat CPU 2 instructions: 220000000 cycles: 112902108 heartbeat IPC: 0.618268 cumulative IPC: 0.626956 (Simulation time: 68 hr 55 min 52 sec) 
 Total Blocks : 262144 Invalid Blocks : 0
Heartbeat CPU 0 instructions: 220000000 cycles: 112907079 heartbeat IPC: 0.616674 cumulative IPC: 0.626851 (Simulation time: 68 hr 55 min 56 sec) 
 Total Blocks : 262144 Invalid Blocks : 0
Heartbeat CPU 5 instructions: 220000000 cycles: 113047697 heartbeat IPC: 0.610443 cumulative IPC: 0.624118 (Simulation time: 68 hr 57 min 22 sec) 
 Total Blocks : 262144 Invalid Blocks : 0
Heartbeat CPU 4 instructions: 220000000 cycles: 113140934 heartbeat IPC: 0.612557 cumulative IPC: 0.622301 (Simulation time: 68 hr 58 min 15 sec) 
 Total Blocks : 262144 Invalid Blocks : 0
Heartbeat CPU 6 instructions: 220000000 cycles: 113190692 heartbeat IPC: 0.61412 cumulative IPC: 0.62135 (Simulation time: 68 hr 58 min 47 sec) 
 Total Blocks : 262144 Invalid Blocks : 0
Heartbeat CPU 7 instructions: 220000000 cycles: 113278479 heartbeat IPC: 0.608582 cumulative IPC: 0.619662 (Simulation time: 68 hr 59 min 36 sec) 
 Total Blocks : 262144 Invalid Blocks : 0
Heartbeat CPU 3 instructions: 220000000 cycles: 113444830 heartbeat IPC: 0.608092 cumulative IPC: 0.616471 (Simulation time: 69 hr 1 min 17 sec) 
 Total Blocks : 262144 Invalid Blocks : 0
Heartbeat CPU 1 instructions: 220000000 cycles: 113819002 heartbeat IPC: 0.604671 cumulative IPC: 0.609427 (Simulation time: 69 hr 5 min 1 sec) 
 Total Blocks : 262144 Invalid Blocks : 0
Heartbeat CPU 5 instructions: 230000000 cycles: 128990001 heartbeat IPC: 0.627262 cumulative IPC: 0.625162 (Simulation time: 71 hr 34 min 13 sec) 
 Total Blocks : 262144 Invalid Blocks : 0
Heartbeat CPU 0 instructions: 230000000 cycles: 129083505 heartbeat IPC: 0.618183 cumulative IPC: 0.623935 (Simulation time: 71 hr 35 min 13 sec) 
 Total Blocks : 262144 Invalid Blocks : 0
Heartbeat CPU 2 instructions: 230000000 cycles: 129113320 heartbeat IPC: 0.616857 cumulative IPC: 0.623553 (Simulation time: 71 hr 35 min 27 sec) 
 Total Blocks : 262144 Invalid Blocks : 0
Heartbeat CPU 6 instructions: 230000000 cycles: 129274280 heartbeat IPC: 0.621752 cumulative IPC: 0.621484 (Simulation time: 71 hr 37 min 6 sec) 
 Total Blocks : 262144 Invalid Blocks : 0
Heartbeat CPU 4 instructions: 230000000 cycles: 129311170 heartbeat IPC: 0.61842 cumulative IPC: 0.621002 (Simulation time: 71 hr 37 min 28 sec) 
 Total Blocks : 262144 Invalid Blocks : 0
Heartbeat CPU 7 instructions: 230000000 cycles: 129646852 heartbeat IPC: 0.610934 cumulative IPC: 0.616725 (Simulation time: 71 hr 40 min 46 sec) 
 Total Blocks : 262144 Invalid Blocks : 0
Heartbeat CPU 3 instructions: 230000000 cycles: 129747036 heartbeat IPC: 0.613414 cumulative IPC: 0.615448 (Simulation time: 71 hr 41 min 51 sec) 
 Total Blocks : 262144 Invalid Blocks : 0
Heartbeat CPU 1 instructions: 230000000 cycles: 130219173 heartbeat IPC: 0.60975 cumulative IPC: 0.609535 (Simulation time: 71 hr 46 min 40 sec) 
 Total Blocks : 262144 Invalid Blocks : 0
Heartbeat CPU 0 instructions: 240000001 cycles: 145144738 heartbeat IPC: 0.622617 cumulative IPC: 0.623605 (Simulation time: 74 hr 13 min 45 sec) 
 Total Blocks : 262144 Invalid Blocks : 0
Heartbeat CPU 5 instructions: 240000001 cycles: 145190589 heartbeat IPC: 0.617262 cumulative IPC: 0.623168 (Simulation time: 74 hr 14 min 8 sec) 
 Total Blocks : 262144 Invalid Blocks : 0
Heartbeat CPU 6 instructions: 240000001 cycles: 145401237 heartbeat IPC: 0.62008 cumulative IPC: 0.621132 (Simulation time: 74 hr 16 min 16 sec) 
 Total Blocks : 262144 Invalid Blocks : 0
Heartbeat CPU 2 instructions: 240000001 cycles: 145418033 heartbeat IPC: 0.61332 cumulative IPC: 0.620963 (Simulation time: 74 hr 16 min 26 sec) 
 Total Blocks : 262144 Invalid Blocks : 0
Heartbeat CPU 4 instructions: 240000001 cycles: 145690902 heartbeat IPC: 0.610511 cumulative IPC: 0.618346 (Simulation time: 74 hr 19 min 11 sec) 
 Total Blocks : 262144 Invalid Blocks : 0
Heartbeat CPU 7 instructions: 240000001 cycles: 145912017 heartbeat IPC: 0.614811 cumulative IPC: 0.616246 (Simulation time: 74 hr 21 min 19 sec) 
 Total Blocks : 262144 Invalid Blocks : 0
Heartbeat CPU 3 instructions: 240000001 cycles: 145979275 heartbeat IPC: 0.616058 cumulative IPC: 0.615601 (Simulation time: 74 hr 22 min 1 sec) 
 Total Blocks : 262144 Invalid Blocks : 0
Heartbeat CPU 1 instructions: 240000001 cycles: 146680034 heartbeat IPC: 0.607502 cumulative IPC: 0.609025 (Simulation time: 74 hr 28 min 54 sec) 
 Total Blocks : 262144 Invalid Blocks : 0
Heartbeat CPU 5 instructions: 250000000 cycles: 161308250 heartbeat IPC: 0.620437 cumulative IPC: 0.62262 (Simulation time: 76 hr 53 min 51 sec) 
 Total Blocks : 262144 Invalid Blocks : 0
Heartbeat CPU 0 instructions: 250000000 cycles: 161385503 heartbeat IPC: 0.615734 cumulative IPC: 0.622015 (Simulation time: 76 hr 54 min 35 sec) 
 Total Blocks : 262144 Invalid Blocks : 0
Heartbeat CPU 6 instructions: 250000000 cycles: 161551264 heartbeat IPC: 0.619194 cumulative IPC: 0.620744 (Simulation time: 76 hr 56 min 26 sec) 
 Total Blocks : 262144 Invalid Blocks : 0
Heartbeat CPU 2 instructions: 250000000 cycles: 161773284 heartbeat IPC: 0.611424 cumulative IPC: 0.619031 (Simulation time: 76 hr 58 min 42 sec) 
 Total Blocks : 262144 Invalid Blocks : 0
Heartbeat CPU 4 instructions: 250000000 cycles: 161973854 heartbeat IPC: 0.614139 cumulative IPC: 0.6175 (Simulation time: 77 hr 0 min 41 sec) 
 Total Blocks : 262144 Invalid Blocks : 0
Heartbeat CPU 7 instructions: 250000000 cycles: 162024400 heartbeat IPC: 0.620641 cumulative IPC: 0.61712 (Simulation time: 77 hr 1 min 14 sec) 
 Total Blocks : 262144 Invalid Blocks : 0
Heartbeat CPU 3 instructions: 250000000 cycles: 162076211 heartbeat IPC: 0.621236 cumulative IPC: 0.61672 (Simulation time: 77 hr 1 min 45 sec) 
 Total Blocks : 262144 Invalid Blocks : 0
Heartbeat CPU 1 instructions: 250000000 cycles: 163139793 heartbeat IPC: 0.607542 cumulative IPC: 0.608728 (Simulation time: 77 hr 12 min 45 sec) 
 Total Blocks : 262144 Invalid Blocks : 0
Heartbeat CPU 5 instructions: 260000001 cycles: 177351733 heartbeat IPC: 0.623306 cumulative IPC: 0.622734 (Simulation time: 79 hr 37 min 7 sec) 
 Total Blocks : 262144 Invalid Blocks : 0
Heartbeat CPU 0 instructions: 260000001 cycles: 177560458 heartbeat IPC: 0.61824 cumulative IPC: 0.621382 (Simulation time: 79 hr 39 min 8 sec) 
 Total Blocks : 262144 Invalid Blocks : 0
Heartbeat CPU 6 instructions: 260000001 cycles: 177568440 heartbeat IPC: 0.62433 cumulative IPC: 0.621339 (Simulation time: 79 hr 39 min 16 sec) 
 Total Blocks : 262144 Invalid Blocks : 0
Heartbeat CPU 2 instructions: 260000001 cycles: 178035362 heartbeat IPC: 0.614928 cumulative IPC: 0.618344 (Simulation time: 79 hr 44 min 1 sec) 
 Total Blocks : 262144 Invalid Blocks : 0
Heartbeat CPU 4 instructions: 260000001 cycles: 178186953 heartbeat IPC: 0.616785 cumulative IPC: 0.617381 (Simulation time: 79 hr 45 min 33 sec) 
 Total Blocks : 262144 Invalid Blocks : 0
Heartbeat CPU 7 instructions: 260000001 cycles: 178223111 heartbeat IPC: 0.617333 cumulative IPC: 0.617155 (Simulation time: 79 hr 45 min 59 sec) 
 Total Blocks : 262144 Invalid Blocks : 0
Heartbeat CPU 3 instructions: 260000003 cycles: 178443472 heartbeat IPC: 0.610976 cumulative IPC: 0.615755 (Simulation time: 79 hr 48 min 16 sec) 
 Total Blocks : 262144 Invalid Blocks : 0
Heartbeat CPU 1 instructions: 260000001 cycles: 179615221 heartbeat IPC: 0.606965 cumulative IPC: 0.608433 (Simulation time: 80 hr 0 min 21 sec) 
 Total Blocks : 262144 Invalid Blocks : 0
Heartbeat CPU 5 instructions: 270000000 cycles: 193516462 heartbeat IPC: 0.618631 cumulative IPC: 0.622145 (Simulation time: 82 hr 21 min 31 sec) 
 Total Blocks : 262144 Invalid Blocks : 0
Heartbeat CPU 0 instructions: 270000000 cycles: 193671235 heartbeat IPC: 0.620702 cumulative IPC: 0.621285 (Simulation time: 82 hr 23 min 0 sec) 
 Total Blocks : 262144 Invalid Blocks : 0
Heartbeat CPU 6 instructions: 270000000 cycles: 193768069 heartbeat IPC: 0.617298 cumulative IPC: 0.620758 (Simulation time: 82 hr 24 min 0 sec) 
 Total Blocks : 262144 Invalid Blocks : 0
Heartbeat CPU 2 instructions: 270000000 cycles: 194174875 heartbeat IPC: 0.619597 cumulative IPC: 0.618522 (Simulation time: 82 hr 28 min 7 sec) 
 Total Blocks : 262144 Invalid Blocks : 0
Heartbeat CPU 7 instructions: 270000000 cycles: 194313698 heartbeat IPC: 0.621481 cumulative IPC: 0.61777 (Simulation time: 82 hr 29 min 32 sec) 
 Total Blocks : 262144 Invalid Blocks : 0
Heartbeat CPU 4 instructions: 270000000 cycles: 194314573 heartbeat IPC: 0.620054 cumulative IPC: 0.617761 (Simulation time: 82 hr 29 min 36 sec) 
 Total Blocks : 262144 Invalid Blocks : 0
Heartbeat CPU 3 instructions: 270000000 cycles: 194614000 heartbeat IPC: 0.618409 cumulative IPC: 0.616133 (Simulation time: 82 hr 32 min 41 sec) 
 Total Blocks : 262144 Invalid Blocks : 0
Heartbeat CPU 1 instructions: 270000000 cycles: 195939540 heartbeat IPC: 0.612583 cumulative IPC: 0.609023 (Simulation time: 82 hr 46 min 15 sec) 
 Total Blocks : 262144 Invalid Blocks : 0
Heartbeat CPU 5 instructions: 280000000 cycles: 209453931 heartbeat IPC: 0.627452 cumulative IPC: 0.622803 (Simulation time: 85 hr 4 min 47 sec) 
 Total Blocks : 262144 Invalid Blocks : 0
Heartbeat CPU 0 instructions: 280000000 cycles: 209651854 heartbeat IPC: 0.625758 cumulative IPC: 0.621841 (Simulation time: 85 hr 6 min 47 sec) 
 Total Blocks : 262144 Invalid Blocks : 0
Heartbeat CPU 6 instructions: 280000000 cycles: 209794116 heartbeat IPC: 0.623984 cumulative IPC: 0.62116 (Simulation time: 85 hr 8 min 21 sec) 
 Total Blocks : 262144 Invalid Blocks : 0
Heartbeat CPU 2 instructions: 280000000 cycles: 210037885 heartbeat IPC: 0.630397 cumulative IPC: 0.619982 (Simulation time: 85 hr 10 min 53 sec) 
 Total Blocks : 262144 Invalid Blocks : 0
Heartbeat CPU 7 instructions: 280000000 cycles: 210320113 heartbeat IPC: 0.62475 cumulative IPC: 0.618634 (Simulation time: 85 hr 13 min 52 sec) 
 Total Blocks : 262144 Invalid Blocks : 0
Heartbeat CPU 4 instructions: 280000000 cycles: 210426378 heartbeat IPC: 0.620663 cumulative IPC: 0.618122 (Simulation time: 85 hr 15 min 1 sec) 
 Total Blocks : 262144 Invalid Blocks : 0
Heartbeat CPU 3 instructions: 280000000 cycles: 210789666 heartbeat IPC: 0.618213 cumulative IPC: 0.616392 (Simulation time: 85 hr 18 min 56 sec) 
 Total Blocks : 262144 Invalid Blocks : 0
Heartbeat CPU 1 instructions: 280000000 cycles: 212425572 heartbeat IPC: 0.606574 cumulative IPC: 0.608716 (Simulation time: 85 hr 36 min 27 sec) 
 Total Blocks : 262144 Invalid Blocks : 0
Heartbeat CPU 5 instructions: 290000001 cycles: 225522331 heartbeat IPC: 0.62234 cumulative IPC: 0.622752 (Simulation time: 87 hr 58 min 43 sec) 
 Total Blocks : 262144 Invalid Blocks : 0
Heartbeat CPU 0 instructions: 290000001 cycles: 225691901 heartbeat IPC: 0.62344 cumulative IPC: 0.622018 (Simulation time: 88 hr 0 min 29 sec) 
 Total Blocks : 262144 Invalid Blocks : 0
Heartbeat CPU 6 instructions: 290000001 cycles: 225968196 heartbeat IPC: 0.618273 cumulative IPC: 0.620838 (Simulation time: 88 hr 3 min 33 sec) 
 Total Blocks : 262144 Invalid Blocks : 0
Heartbeat CPU 2 instructions: 290000001 cycles: 226192521 heartbeat IPC: 0.619017 cumulative IPC: 0.619875 (Simulation time: 88 hr 5 min 50 sec) 
 Total Blocks : 262144 Invalid Blocks : 0
Heartbeat CPU 7 instructions: 290000001 cycles: 226550223 heartbeat IPC: 0.616139 cumulative IPC: 0.618355 (Simulation time: 88 hr 9 min 44 sec) 
 Total Blocks : 262144 Invalid Blocks : 0
Heartbeat CPU 4 instructions: 290000001 cycles: 226711130 heartbeat IPC: 0.614071 cumulative IPC: 0.61767 (Simulation time: 88 hr 11 min 30 sec) 
 Total Blocks : 262144 Invalid Blocks : 0
Heartbeat CPU 3 instructions: 290000001 cycles: 227090860 heartbeat IPC: 0.613452 cumulative IPC: 0.616064 (Simulation time: 88 hr 15 min 30 sec) 
 Total Blocks : 262144 Invalid Blocks : 0
Heartbeat CPU 1 instructions: 290000001 cycles: 228719468 heartbeat IPC: 0.613727 cumulative IPC: 0.609268 (Simulation time: 88 hr 33 min 7 sec) 
 Total Blocks : 262144 Invalid Blocks : 0
Heartbeat CPU 5 instructions: 300000000 cycles: 241811854 heartbeat IPC: 0.613891 cumulative IPC: 0.621854 (Simulation time: 90 hr 55 min 25 sec) 
 Total Blocks : 262144 Invalid Blocks : 0
Heartbeat CPU 0 instructions: 300000001 cycles: 241881063 heartbeat IPC: 0.617697 cumulative IPC: 0.621583 (Simulation time: 90 hr 56 min 12 sec) 
 Total Blocks : 262144 Invalid Blocks : 0
Heartbeat CPU 6 instructions: 300000000 cycles: 242256256 heartbeat IPC: 0.613947 cumulative IPC: 0.620141 (Simulation time: 91 hr 0 min 19 sec) 
 Total Blocks : 262144 Invalid Blocks : 0
Heartbeat CPU 2 instructions: 300000000 cycles: 242364769 heartbeat IPC: 0.618343 cumulative IPC: 0.619721 (Simulation time: 91 hr 1 min 31 sec) 
 Total Blocks : 262144 Invalid Blocks : 0
Heartbeat CPU 7 instructions: 300000000 cycles: 242746026 heartbeat IPC: 0.617444 cumulative IPC: 0.618264 (Simulation time: 91 hr 5 min 48 sec) 
 Total Blocks : 262144 Invalid Blocks : 0
Heartbeat CPU 4 instructions: 300000000 cycles: 242852548 heartbeat IPC: 0.619524 cumulative IPC: 0.617855 (Simulation time: 91 hr 6 min 55 sec) 
 Total Blocks : 262144 Invalid Blocks : 0
Heartbeat CPU 3 instructions: 300000000 cycles: 243342417 heartbeat IPC: 0.615326 cumulative IPC: 0.61599 (Simulation time: 91 hr 12 min 25 sec) 
 Total Blocks : 262144 Invalid Blocks : 0
Heartbeat CPU 1 instructions: 300000001 cycles: 244964383 heartbeat IPC: 0.615577 cumulative IPC: 0.609893 (Simulation time: 91 hr 30 min 18 sec) 
 Total Blocks : 262144 Invalid Blocks : 0
Heartbeat CPU 5 instructions: 310000001 cycles: 257919605 heartbeat IPC: 0.620819 cumulative IPC: 0.62176 (Simulation time: 93 hr 55 min 22 sec) 
 Total Blocks : 262144 Invalid Blocks : 0
Heartbeat CPU 0 instructions: 310000001 cycles: 257941404 heartbeat IPC: 0.622652 cumulative IPC: 0.62168 (Simulation time: 93 hr 55 min 41 sec) 
 Total Blocks : 262144 Invalid Blocks : 0
Heartbeat CPU 6 instructions: 310000001 cycles: 258356075 heartbeat IPC: 0.621125 cumulative IPC: 0.620231 (Simulation time: 94 hr 0 min 17 sec) 
 Total Blocks : 262144 Invalid Blocks : 0
Heartbeat CPU 2 instructions: 310000001 cycles: 258407834 heartbeat IPC: 0.623322 cumulative IPC: 0.620047 (Simulation time: 94 hr 0 min 53 sec) 
 Total Blocks : 262144 Invalid Blocks : 0
Heartbeat CPU 7 instructions: 310000001 cycles: 258731053 heartbeat IPC: 0.625585 cumulative IPC: 0.618923 (Simulation time: 94 hr 4 min 36 sec) 
 Total Blocks : 262144 Invalid Blocks : 0
Heartbeat CPU 4 instructions: 310000001 cycles: 258909453 heartbeat IPC: 0.622785 cumulative IPC: 0.6183 (Simulation time: 94 hr 6 min 41 sec) 
 Total Blocks : 262144 Invalid Blocks : 0
Heartbeat CPU 3 instructions: 310000002 cycles: 259396436 heartbeat IPC: 0.622897 cumulative IPC: 0.616611 (Simulation time: 94 hr 12 min 12 sec) 
 Total Blocks : 262144 Invalid Blocks : 0
Heartbeat CPU 1 instructions: 310000001 cycles: 261342661 heartbeat IPC: 0.610565 cumulative IPC: 0.609954 (Simulation time: 94 hr 34 min 8 sec) 
 Total Blocks : 262144 Invalid Blocks : 0
Heartbeat CPU 0 instructions: 320000001 cycles: 274150750 heartbeat IPC: 0.616928 cumulative IPC: 0.621281 (Simulation time: 96 hr 54 min 39 sec) 
 Total Blocks : 262144 Invalid Blocks : 0
Heartbeat CPU 5 instructions: 320000001 cycles: 274179440 heartbeat IPC: 0.615012 cumulative IPC: 0.621192 (Simulation time: 96 hr 54 min 57 sec) 
 Total Blocks : 262144 Invalid Blocks : 0
Heartbeat CPU 2 instructions: 320000001 cycles: 274558463 heartbeat IPC: 0.619171 cumulative IPC: 0.619974 (Simulation time: 96 hr 59 min 19 sec) 
 Total Blocks : 262144 Invalid Blocks : 0
Heartbeat CPU 6 instructions: 320000001 cycles: 274589254 heartbeat IPC: 0.616022 cumulative IPC: 0.619878 (Simulation time: 96 hr 59 min 38 sec) 
 Total Blocks : 262144 Invalid Blocks : 0
Heartbeat CPU 7 instructions: 320000001 cycles: 274802466 heartbeat IPC: 0.622223 cumulative IPC: 0.619196 (Simulation time: 97 hr 2 min 0 sec) 
 Total Blocks : 262144 Invalid Blocks : 0
Heartbeat CPU 4 instructions: 320000001 cycles: 274987030 heartbeat IPC: 0.621984 cumulative IPC: 0.618605 (Simulation time: 97 hr 3 min 58 sec) 
 Total Blocks : 262144 Invalid Blocks : 0
Heartbeat CPU 3 instructions: 320000001 cycles: 275611253 heartbeat IPC: 0.61672 cumulative IPC: 0.616621 (Simulation time: 97 hr 10 min 50 sec) 
 Total Blocks : 262144 Invalid Blocks : 0
Heartbeat CPU 1 instructions: 320000001 cycles: 277696066 heartbeat IPC: 0.611493 cumulative IPC: 0.610082 (Simulation time: 97 hr 33 min 12 sec) 
 Total Blocks : 262144 Invalid Blocks : 0
Heartbeat CPU 0 instructions: 330000000 cycles: 290379119 heartbeat IPC: 0.616205 cumulative IPC: 0.620888 (Simulation time: 99 hr 51 min 28 sec) 
 Total Blocks : 262144 Invalid Blocks : 0
Heartbeat CPU 5 instructions: 330000000 cycles: 290560381 heartbeat IPC: 0.610465 cumulative IPC: 0.620354 (Simulation time: 99 hr 53 min 31 sec) 
 Total Blocks : 262144 Invalid Blocks : 0
Heartbeat CPU 6 instructions: 330000000 cycles: 290606371 heartbeat IPC: 0.624332 cumulative IPC: 0.620218 (Simulation time: 99 hr 53 min 59 sec) 
 Total Blocks : 262144 Invalid Blocks : 0
Heartbeat CPU 2 instructions: 330000000 cycles: 290804326 heartbeat IPC: 0.615541 cumulative IPC: 0.619631 (Simulation time: 99 hr 56 min 8 sec) 
 Total Blocks : 262144 Invalid Blocks : 0
Heartbeat CPU 7 instructions: 330000000 cycles: 290872223 heartbeat IPC: 0.622287 cumulative IPC: 0.619433 (Simulation time: 99 hr 56 min 48 sec) 
 Total Blocks : 262144 Invalid Blocks : 0
Heartbeat CPU 4 instructions: 330000000 cycles: 291107341 heartbeat IPC: 0.620335 cumulative IPC: 0.618738 (Simulation time: 99 hr 59 min 24 sec) 
 Total Blocks : 262144 Invalid Blocks : 0
Heartbeat CPU 3 instructions: 330000000 cycles: 291599445 heartbeat IPC: 0.625462 cumulative IPC: 0.617292 (Simulation time: 100 hr 4 min 44 sec) 
 Total Blocks : 262144 Invalid Blocks : 0
Heartbeat CPU 1 instructions: 330000000 cycles: 294148178 heartbeat IPC: 0.607825 cumulative IPC: 0.609908 (Simulation time: 100 hr 32 min 51 sec) 
 Total Blocks : 262144 Invalid Blocks : 0
Heartbeat CPU 0 instructions: 340000002 cycles: 306732909 heartbeat IPC: 0.611479 cumulative IPC: 0.620206 (Simulation time: 102 hr 54 min 14 sec) 
 Total Blocks : 262144 Invalid Blocks : 0
Heartbeat CPU 5 instructions: 340000002 cycles: 306813019 heartbeat IPC: 0.615285 cumulative IPC: 0.619989 (Simulation time: 102 hr 55 min 8 sec) 
 Total Blocks : 262144 Invalid Blocks : 0
Heartbeat CPU 6 instructions: 340000002 cycles: 306837737 heartbeat IPC: 0.616091 cumulative IPC: 0.619922 (Simulation time: 102 hr 55 min 21 sec) 
 Total Blocks : 262144 Invalid Blocks : 0
Heartbeat CPU 7 instructions: 340000002 cycles: 307014908 heartbeat IPC: 0.619476 cumulative IPC: 0.619436 (Simulation time: 102 hr 57 min 19 sec) 
 Total Blocks : 262144 Invalid Blocks : 0
Heartbeat CPU 2 instructions: 340000002 cycles: 307124581 heartbeat IPC: 0.612736 cumulative IPC: 0.619133 (Simulation time: 102 hr 58 min 28 sec) 
 Total Blocks : 262144 Invalid Blocks : 0
Heartbeat CPU 4 instructions: 340000002 cycles: 307261688 heartbeat IPC: 0.619029 cumulative IPC: 0.618758 (Simulation time: 103 hr 0 min 1 sec) 
 Total Blocks : 262144 Invalid Blocks : 0
Heartbeat CPU 3 instructions: 340000002 cycles: 307874061 heartbeat IPC: 0.614454 cumulative IPC: 0.617088 (Simulation time: 103 hr 6 min 56 sec) 
 Total Blocks : 262144 Invalid Blocks : 0
Heartbeat CPU 1 instructions: 340000002 cycles: 310347028 heartbeat IPC: 0.617328 cumulative IPC: 0.610432 (Simulation time: 103 hr 34 min 39 sec) 
 Total Blocks : 262144 Invalid Blocks : 0
Heartbeat CPU 5 instructions: 350000000 cycles: 322947151 heartbeat IPC: 0.619804 cumulative IPC: 0.619976 (Simulation time: 105 hr 54 min 13 sec) 
 Total Blocks : 262144 Invalid Blocks : 0
Heartbeat CPU 0 instructions: 350000000 cycles: 322975804 heartbeat IPC: 0.615654 cumulative IPC: 0.619901 (Simulation time: 105 hr 54 min 33 sec) 
 Total Blocks : 262144 Invalid Blocks : 0
Heartbeat CPU 6 instructions: 350000000 cycles: 323076074 heartbeat IPC: 0.615826 cumulative IPC: 0.619647 (Simulation time: 105 hr 55 min 39 sec) 
 Total Blocks : 262144 Invalid Blocks : 0
Heartbeat CPU 7 instructions: 350000000 cycles: 323192666 heartbeat IPC: 0.618132 cumulative IPC: 0.619349 (Simulation time: 105 hr 57 min 2 sec) 
 Total Blocks : 262144 Invalid Blocks : 0
Heartbeat CPU 2 instructions: 350000000 cycles: 323355426 heartbeat IPC: 0.616111 cumulative IPC: 0.618931 (Simulation time: 105 hr 58 min 57 sec) 
 Total Blocks : 262144 Invalid Blocks : 0
Heartbeat CPU 4 instructions: 350000000 cycles: 323392263 heartbeat IPC: 0.619941 cumulative IPC: 0.618837 (Simulation time: 105 hr 59 min 17 sec) 
 Total Blocks : 262144 Invalid Blocks : 0
Heartbeat CPU 3 instructions: 350000000 cycles: 324001301 heartbeat IPC: 0.620069 cumulative IPC: 0.617286 (Simulation time: 106 hr 6 min 11 sec) 
 Total Blocks : 262144 Invalid Blocks : 0
Heartbeat CPU 1 instructions: 350000000 cycles: 326504241 heartbeat IPC: 0.618918 cumulative IPC: 0.610991 (Simulation time: 106 hr 34 min 21 sec) 
 Total Blocks : 262144 Invalid Blocks : 0
Heartbeat CPU 5 instructions: 360000003 cycles: 338981393 heartbeat IPC: 0.623665 cumulative IPC: 0.620206 (Simulation time: 108 hr 56 min 10 sec) 
 Total Blocks : 262144 Invalid Blocks : 0
Heartbeat CPU 0 instructions: 360000003 cycles: 339045047 heartbeat IPC: 0.622307 cumulative IPC: 0.620051 (Simulation time: 108 hr 56 min 50 sec) 
 Total Blocks : 262144 Invalid Blocks : 0
Heartbeat CPU 7 instructions: 360000003 cycles: 339261961 heartbeat IPC: 0.622305 cumulative IPC: 0.619533 (Simulation time: 108 hr 59 min 1 sec) 
 Total Blocks : 262144 Invalid Blocks : 0
Heartbeat CPU 6 instructions: 360000003 cycles: 339419031 heartbeat IPC: 0.611885 cumulative IPC: 0.619156 (Simulation time: 109 hr 0 min 42 sec) 
 Total Blocks : 262144 Invalid Blocks : 0
Heartbeat CPU 4 instructions: 360000003 cycles: 339465604 heartbeat IPC: 0.622148 cumulative IPC: 0.619043 (Simulation time: 109 hr 1 min 10 sec) 
 Total Blocks : 262144 Invalid Blocks : 0
Heartbeat CPU 2 instructions: 360000003 cycles: 339538443 heartbeat IPC: 0.617932 cumulative IPC: 0.618868 (Simulation time: 109 hr 1 min 56 sec) 
 Total Blocks : 262144 Invalid Blocks : 0
Heartbeat CPU 3 instructions: 360000003 cycles: 340272055 heartbeat IPC: 0.6146 cumulative IPC: 0.617117 (Simulation time: 109 hr 9 min 21 sec) 
 Total Blocks : 262144 Invalid Blocks : 0
Heartbeat CPU 1 instructions: 360000003 cycles: 342669205 heartbeat IPC: 0.618622 cumulative IPC: 0.611462 (Simulation time: 109 hr 33 min 16 sec) 
 Total Blocks : 262144 Invalid Blocks : 0
Heartbeat CPU 0 instructions: 370000002 cycles: 355147532 heartbeat IPC: 0.621022 cumulative IPC: 0.620108 (Simulation time: 111 hr 41 min 9 sec) 
 Total Blocks : 262144 Invalid Blocks : 0
Heartbeat CPU 5 instructions: 370000002 cycles: 355153845 heartbeat IPC: 0.618335 cumulative IPC: 0.620095 (Simulation time: 111 hr 41 min 15 sec) 
 Total Blocks : 262144 Invalid Blocks : 0
Heartbeat CPU 7 instructions: 370000002 cycles: 355366482 heartbeat IPC: 0.620944 cumulative IPC: 0.619616 (Simulation time: 111 hr 43 min 21 sec) 
 Total Blocks : 262144 Invalid Blocks : 0
Heartbeat CPU 4 instructions: 370000002 cycles: 355574533 heartbeat IPC: 0.620774 cumulative IPC: 0.619145 (Simulation time: 111 hr 45 min 28 sec) 
 Total Blocks : 262144 Invalid Blocks : 0
Heartbeat CPU 2 instructions: 370000002 cycles: 355817247 heartbeat IPC: 0.614296 cumulative IPC: 0.618597 (Simulation time: 111 hr 48 min 1 sec) 
 Total Blocks : 262144 Invalid Blocks : 0
Heartbeat CPU 6 instructions: 370000002 cycles: 355900233 heartbeat IPC: 0.606752 cumulative IPC: 0.618412 (Simulation time: 111 hr 48 min 53 sec) 
 Total Blocks : 262144 Invalid Blocks : 0
Heartbeat CPU 3 instructions: 370000002 cycles: 356520967 heartbeat IPC: 0.615426 cumulative IPC: 0.617018 (Simulation time: 111 hr 55 min 14 sec) 
 Total Blocks : 262144 Invalid Blocks : 0
Heartbeat CPU 1 instructions: 370000002 cycles: 359004828 heartbeat IPC: 0.612159 cumulative IPC: 0.611503 (Simulation time: 112 hr 20 min 47 sec) 
 Total Blocks : 262144 Invalid Blocks : 0
Heartbeat CPU 5 instructions: 380000000 cycles: 371175434 heartbeat IPC: 0.624158 cumulative IPC: 0.62032 (Simulation time: 114 hr 24 min 52 sec) 
 Total Blocks : 262144 Invalid Blocks : 0
Heartbeat CPU 0 instructions: 380000000 cycles: 371391507 heartbeat IPC: 0.615613 cumulative IPC: 0.619856 (Simulation time: 114 hr 27 min 13 sec) 
 Total Blocks : 262144 Invalid Blocks : 0
Heartbeat CPU 7 instructions: 380000000 cycles: 371429020 heartbeat IPC: 0.622567 cumulative IPC: 0.619779 (Simulation time: 114 hr 27 min 35 sec) 
 Total Blocks : 262144 Invalid Blocks : 0
Heartbeat CPU 4 instructions: 380000000 cycles: 371708831 heartbeat IPC: 0.619798 cumulative IPC: 0.619181 (Simulation time: 114 hr 30 min 25 sec) 
 Total Blocks : 262144 Invalid Blocks : 0
Heartbeat CPU 2 instructions: 380000000 cycles: 372243666 heartbeat IPC: 0.608775 cumulative IPC: 0.618043 (Simulation time: 114 hr 35 min 51 sec) 
 Total Blocks : 262144 Invalid Blocks : 0
Heartbeat CPU 6 instructions: 380000000 cycles: 372326814 heartbeat IPC: 0.608769 cumulative IPC: 0.617869 (Simulation time: 114 hr 36 min 40 sec) 
 Total Blocks : 262144 Invalid Blocks : 0
Heartbeat CPU 3 instructions: 380000000 cycles: 372784454 heartbeat IPC: 0.614874 cumulative IPC: 0.616898 (Simulation time: 114 hr 41 min 15 sec) 
 Total Blocks : 262144 Invalid Blocks : 0
Heartbeat CPU 1 instructions: 380000000 cycles: 375166786 heartbeat IPC: 0.618737 cumulative IPC: 0.611901 (Simulation time: 115 hr 5 min 22 sec) 
 Total Blocks : 262144 Invalid Blocks : 0
Heartbeat CPU 5 instructions: 390000003 cycles: 387331869 heartbeat IPC: 0.618949 cumulative IPC: 0.620247 (Simulation time: 117 hr 7 min 42 sec) 
 Total Blocks : 262144 Invalid Blocks : 0
Heartbeat CPU 0 instructions: 390000003 cycles: 387544645 heartbeat IPC: 0.619075 cumulative IPC: 0.619815 (Simulation time: 117 hr 9 min 47 sec) 
 Total Blocks : 262144 Invalid Blocks : 0
Heartbeat CPU 7 instructions: 390000003 cycles: 387647757 heartbeat IPC: 0.616571 cumulative IPC: 0.619609 (Simulation time: 117 hr 10 min 47 sec) 
 Total Blocks : 262144 Invalid Blocks : 0
Heartbeat CPU 4 instructions: 390000001 cycles: 387848025 heartbeat IPC: 0.61961 cumulative IPC: 0.619203 (Simulation time: 117 hr 12 min 51 sec) 
 Total Blocks : 262144 Invalid Blocks : 0
Heartbeat CPU 2 instructions: 390000003 cycles: 388334066 heartbeat IPC: 0.621489 cumulative IPC: 0.618224 (Simulation time: 117 hr 17 min 38 sec) 
 Total Blocks : 262144 Invalid Blocks : 0
Heartbeat CPU 6 instructions: 390000003 cycles: 388497079 heartbeat IPC: 0.618419 cumulative IPC: 0.617898 (Simulation time: 117 hr 19 min 16 sec) 
 Total Blocks : 262144 Invalid Blocks : 0
Heartbeat CPU 3 instructions: 390000003 cycles: 389053015 heartbeat IPC: 0.614683 cumulative IPC: 0.616781 (Simulation time: 117 hr 24 min 50 sec) 
 Total Blocks : 262144 Invalid Blocks : 0
Heartbeat CPU 1 instructions: 390000003 cycles: 391377353 heartbeat IPC: 0.616882 cumulative IPC: 0.612161 (Simulation time: 117 hr 48 min 20 sec) 
 Total Blocks : 262144 Invalid Blocks : 0
Heartbeat CPU 5 instructions: 400000002 cycles: 403553278 heartbeat IPC: 0.616469 cumulative IPC: 0.620057 (Simulation time: 119 hr 51 min 15 sec) 
 Total Blocks : 262144 Invalid Blocks : 0
Finished CPU 5 instructions: 200000002 cycles: 322550581 cumulative IPC: 0.620058 (Simulation time: 119 hr 51 min 16 sec) 
Heartbeat CPU 7 instructions: 400000002 cycles: 403724739 heartbeat IPC: 0.622007 cumulative IPC: 0.619729 (Simulation time: 119 hr 52 min 57 sec) 
 Total Blocks : 262144 Invalid Blocks : 0
Finished CPU 7 instructions: 200000000 cycles: 322721902 cumulative IPC: 0.619729 (Simulation time: 119 hr 52 min 57 sec) 
Heartbeat CPU 0 instructions: 400000002 cycles: 403818497 heartbeat IPC: 0.614483 cumulative IPC: 0.619546 (Simulation time: 119 hr 53 min 50 sec) 
 Total Blocks : 262144 Invalid Blocks : 0
Finished CPU 0 instructions: 200000001 cycles: 322819381 cumulative IPC: 0.619541 (Simulation time: 119 hr 53 min 54 sec) 
Heartbeat CPU 4 instructions: 400000002 cycles: 403988716 heartbeat IPC: 0.619552 cumulative IPC: 0.619221 (Simulation time: 119 hr 55 min 39 sec) 
 Total Blocks : 262144 Invalid Blocks : 0
Finished CPU 4 instructions: 200000002 cycles: 322986088 cumulative IPC: 0.619222 (Simulation time: 119 hr 55 min 40 sec) 
Heartbeat CPU 2 instructions: 400000002 cycles: 404431215 heartbeat IPC: 0.621228 cumulative IPC: 0.618373 (Simulation time: 119 hr 59 min 53 sec) 
 Total Blocks : 262144 Invalid Blocks : 0
Finished CPU 2 instructions: 200000002 cycles: 323428682 cumulative IPC: 0.618374 (Simulation time: 119 hr 59 min 54 sec) 
Heartbeat CPU 6 instructions: 400000002 cycles: 404972907 heartbeat IPC: 0.60695 cumulative IPC: 0.617341 (Simulation time: 120 hr 5 min 33 sec) 
 Total Blocks : 262144 Invalid Blocks : 0
Finished CPU 6 instructions: 200000000 cycles: 323970087 cumulative IPC: 0.617341 (Simulation time: 120 hr 5 min 33 sec) 
Heartbeat CPU 3 instructions: 400000002 cycles: 405283325 heartbeat IPC: 0.616131 cumulative IPC: 0.616749 (Simulation time: 120 hr 8 min 36 sec) 
 Total Blocks : 262144 Invalid Blocks : 0
Finished CPU 3 instructions: 200000001 cycles: 324280708 cumulative IPC: 0.61675 (Simulation time: 120 hr 8 min 37 sec) 
Heartbeat CPU 1 instructions: 400000002 cycles: 407419205 heartbeat IPC: 0.623369 cumulative IPC: 0.612712 (Simulation time: 120 hr 30 min 22 sec) 
 Total Blocks : 262144 Invalid Blocks : 0
Finished CPU 1 instructions: 200000001 cycles: 326417976 cumulative IPC: 0.612711 (Simulation time: 120 hr 30 min 23 sec) 

CPU 0 Branch Prediction Accuracy: 99.1861% MPKI: 0.0561909 Average ROB Occupancy at Mispredict: 350.575

CPU 1 Branch Prediction Accuracy: 99.1861% MPKI: 0.0561897 Average ROB Occupancy at Mispredict: 350.565

CPU 2 Branch Prediction Accuracy: 99.1861% MPKI: 0.0561914 Average ROB Occupancy at Mispredict: 350.57

CPU 3 Branch Prediction Accuracy: 99.1861% MPKI: 0.056191 Average ROB Occupancy at Mispredict: 350.572

CPU 4 Branch Prediction Accuracy: 99.1861% MPKI: 0.0561911 Average ROB Occupancy at Mispredict: 350.566

CPU 5 Branch Prediction Accuracy: 99.1861% MPKI: 0.0561914 Average ROB Occupancy at Mispredict: 350.571

CPU 6 Branch Prediction Accuracy: 99.1861% MPKI: 0.0561925 Average ROB Occupancy at Mispredict: 350.58

CPU 7 Branch Prediction Accuracy: 99.1861% MPKI: 0.0561905 Average ROB Occupancy at Mispredict: 350.577

ChampSim completed all CPUs

Total Simulation Statistics (not including warmup)

CPU 0 cumulative IPC: 0.61946 instructions: 202202713 cycles: 326417976
ITLB TOTAL     ACCESS: 32508246  HIT: 32508246  MISS:     0  HIT %:   100  MISS %:     0  AVERAGE MISS PENALTY: 0
ITLB LOAD      ACCESS: 32508246  HIT: 32508246  MISS:     0  HIT %:   100  MISS %:     0  AVERAGE MISS PENALTY: 0
ITLB RFO       ACCESS:     0  HIT:     0  MISS:     0  HIT %:     0  MISS %:     0  AVERAGE MISS PENALTY: 0
ITLB PREFETCH  ACCESS:     0  HIT:     0  MISS:     0  HIT %:     0  MISS %:     0  AVERAGE MISS PENALTY: 0
ITLB WRITEBACK ACCESS:     0  HIT:     0  MISS:     0  HIT %:     0  MISS %:     0  AVERAGE MISS PENALTY: 0

DTLB TOTAL     ACCESS: 54306866  HIT: 54232427  MISS: 74439  HIT %: 99.8629  MISS %: 0.137071  AVERAGE MISS PENALTY: 89.4999
DTLB LOAD      ACCESS: 47373676  HIT: 47301882  MISS: 71794  HIT %: 99.8485  MISS %: 0.151548  AVERAGE MISS PENALTY: 92.4523
DTLB RFO       ACCESS: 6933190  HIT: 6930545  MISS:  2645  HIT %: 99.9619  MISS %: 0.0381498  AVERAGE MISS PENALTY: 9.36219
DTLB PREFETCH  ACCESS:     0  HIT:     0  MISS:     0  HIT %:     0  MISS %:     0  AVERAGE MISS PENALTY: 0
DTLB WRITEBACK ACCESS:     0  HIT:     0  MISS:     0  HIT %:     0  MISS %:     0  AVERAGE MISS PENALTY: 0

STLB TOTAL     ACCESS: 74439  HIT: 19228  MISS: 55211  HIT %: 25.8305  MISS %: 74.1695  AVERAGE MISS PENALTY: 100
STLB LOAD      ACCESS: 71794  HIT: 16583  MISS: 55211  HIT %: 23.098  MISS %: 76.902  AVERAGE MISS PENALTY: 100
STLB RFO       ACCESS:  2645  HIT:  2645  MISS:     0  HIT %:   100  MISS %:     0  AVERAGE MISS PENALTY: 0
STLB PREFETCH  ACCESS:     0  HIT:     0  MISS:     0  HIT %:     0  MISS %:     0  AVERAGE MISS PENALTY: 0
STLB WRITEBACK ACCESS:     0  HIT:     0  MISS:     0  HIT %:     0  MISS %:     0  AVERAGE MISS PENALTY: 0

L1D TOTAL     ACCESS: 67304138  HIT: 63834970  MISS: 3469168  HIT %: 94.8455  MISS %: 5.15446  AVERAGE MISS PENALTY: 1.70315e+07
L1D LOAD      ACCESS: 45574805  HIT: 45174768  MISS: 400037  HIT %: 99.1222  MISS %: 0.877759  AVERAGE MISS PENALTY: 1.47696e+08
L1D RFO       ACCESS: 9942758  HIT: 9942758  MISS:     0  HIT %:   100  MISS %:     0  AVERAGE MISS PENALTY: 0
L1D PREFETCH  ACCESS: 11786575  HIT: 8717444  MISS: 3069131  HIT %: 73.9608  MISS %: 26.0392  AVERAGE MISS PENALTY: 363.962
L1D WRITEBACK ACCESS:     0  HIT:     0  MISS:     0  HIT %:     0  MISS %:     0  AVERAGE MISS PENALTY: 0

L1I TOTAL     ACCESS: 42162702  HIT: 42162702  MISS:     0  HIT %:   100  MISS %:     0  AVERAGE MISS PENALTY: 0
L1I LOAD      ACCESS: 42162702  HIT: 42162702  MISS:     0  HIT %:   100  MISS %:     0  AVERAGE MISS PENALTY: 0
L1I RFO       ACCESS:     0  HIT:     0  MISS:     0  HIT %:     0  MISS %:     0  AVERAGE MISS PENALTY: 0
L1I PREFETCH  ACCESS:     0  HIT:     0  MISS:     0  HIT %:     0  MISS %:     0  AVERAGE MISS PENALTY: 0
L1I WRITEBACK ACCESS:     0  HIT:     0  MISS:     0  HIT %:     0  MISS %:     0  AVERAGE MISS PENALTY: 0

L2C TOTAL     ACCESS: 7229988  HIT: 3714168  MISS: 3515820  HIT %: 51.3717  MISS %: 48.6283  AVERAGE MISS PENALTY: 1.86529e+07
L2C LOAD      ACCESS: 394806  HIT: 45230  MISS: 349576  HIT %: 11.4563  MISS %: 88.5437  AVERAGE MISS PENALTY: 1.8759e+08
L2C RFO       ACCESS:     0  HIT:     0  MISS:     0  HIT %:     0  MISS %:     0  AVERAGE MISS PENALTY: 0
L2C PREFETCH  ACCESS: 5785294  HIT: 2619072  MISS: 3166222  HIT %: 45.2712  MISS %: 54.7288  AVERAGE MISS PENALTY: 1105.15
L2C WRITEBACK ACCESS: 1049888  HIT: 1049866  MISS:    22  HIT %: 99.9979  MISS %: 0.00209546  AVERAGE MISS PENALTY: 0


LLC0 TOTAL     ACCESS: 568234  HIT: 85747  MISS: 482487  HIT %: 15.0901  MISS %: 84.9099  AVERAGE MISS PENALTY: 976.887
LLC0 LOAD      ACCESS: 54718  HIT:     7  MISS: 54711  HIT %: 0.0127929  MISS %: 99.9872  AVERAGE MISS PENALTY: 948.728
LLC0 RFO       ACCESS:     0  HIT:     0  MISS:     0  HIT %:     0  MISS %:     0  AVERAGE MISS PENALTY: 0
LLC0 PREFETCH  ACCESS: 382361  HIT:   327  MISS: 382034  HIT %: 0.0855213  MISS %: 99.9145  AVERAGE MISS PENALTY: 1097.89
LLC0 WRITEBACK ACCESS: 131155  HIT: 85413  MISS: 45742  HIT %: 65.1237  MISS %: 34.8763  AVERAGE MISS PENALTY: 0

LLC1 TOTAL     ACCESS: 569176  HIT: 89840  MISS: 479336  HIT %: 15.7842  MISS %: 84.2158  AVERAGE MISS PENALTY: 994.98
LLC1 LOAD      ACCESS:  4522  HIT:     2  MISS:  4520  HIT %: 0.0442282  MISS %: 99.9558  AVERAGE MISS PENALTY: 1130.75
LLC1 RFO       ACCESS:     0  HIT:     0  MISS:     0  HIT %:     0  MISS %:     0  AVERAGE MISS PENALTY: 0
LLC1 PREFETCH  ACCESS: 433497  HIT:   108  MISS: 433389  HIT %: 0.0249137  MISS %: 99.9751  AVERAGE MISS PENALTY: 1088.67
LLC1 WRITEBACK ACCESS: 131157  HIT: 89730  MISS: 41427  HIT %: 68.4142  MISS %: 31.5858  AVERAGE MISS PENALTY: 0

LLC2 TOTAL     ACCESS: 570609  HIT: 95602  MISS: 475007  HIT %: 16.7544  MISS %: 83.2456  AVERAGE MISS PENALTY: 1040.05
LLC2 LOAD      ACCESS:  4402  HIT:     1  MISS:  4401  HIT %: 0.0227169  MISS %: 99.9773  AVERAGE MISS PENALTY: 1161.22
LLC2 RFO       ACCESS:     0  HIT:     0  MISS:     0  HIT %:     0  MISS %:     0  AVERAGE MISS PENALTY: 0
LLC2 PREFETCH  ACCESS: 435042  HIT:    44  MISS: 434998  HIT %: 0.010114  MISS %: 99.9899  AVERAGE MISS PENALTY: 1123.96
LLC2 WRITEBACK ACCESS: 131165  HIT: 95557  MISS: 35608  HIT %: 72.8525  MISS %: 27.1475  AVERAGE MISS PENALTY: 0

LLC3 TOTAL     ACCESS: 571283  HIT: 99834  MISS: 471449  HIT %: 17.4754  MISS %: 82.5246  AVERAGE MISS PENALTY: 1066.2
LLC3 LOAD      ACCESS:  3897  HIT:     0  MISS:  3897  HIT %:     0  MISS %:   100  AVERAGE MISS PENALTY: 1210.3
LLC3 RFO       ACCESS:     0  HIT:     0  MISS:     0  HIT %:     0  MISS %:     0  AVERAGE MISS PENALTY: 0
LLC3 PREFETCH  ACCESS: 436231  HIT:    25  MISS: 436206  HIT %: 0.00573091  MISS %: 99.9943  AVERAGE MISS PENALTY: 1141.53
LLC3 WRITEBACK ACCESS: 131155  HIT: 99809  MISS: 31346  HIT %:  76.1  MISS %:  23.9  AVERAGE MISS PENALTY: 0

LLC4 TOTAL     ACCESS: 571417  HIT: 101137  MISS: 470280  HIT %: 17.6993  MISS %: 82.3007  AVERAGE MISS PENALTY: 1049.12
LLC4 LOAD      ACCESS:  3197  HIT:     0  MISS:  3197  HIT %:     0  MISS %:   100  AVERAGE MISS PENALTY: 1217.61
LLC4 RFO       ACCESS:     0  HIT:     0  MISS:     0  HIT %:     0  MISS %:     0  AVERAGE MISS PENALTY: 0
LLC4 PREFETCH  ACCESS: 437062  HIT:    24  MISS: 437038  HIT %: 0.00549121  MISS %: 99.9945  AVERAGE MISS PENALTY: 1120.01
LLC4 WRITEBACK ACCESS: 131158  HIT: 101113  MISS: 30045  HIT %: 77.0925  MISS %: 22.9075  AVERAGE MISS PENALTY: 0

LLC5 TOTAL     ACCESS: 571396  HIT: 100978  MISS: 470418  HIT %: 17.6722  MISS %: 82.3278  AVERAGE MISS PENALTY: 1054.29
LLC5 LOAD      ACCESS:  3458  HIT:    20  MISS:  3438  HIT %: 0.578369  MISS %: 99.4216  AVERAGE MISS PENALTY: 1226.39
LLC5 RFO       ACCESS:     0  HIT:     0  MISS:     0  HIT %:     0  MISS %:     0  AVERAGE MISS PENALTY: 0
LLC5 PREFETCH  ACCESS: 436779  HIT:    39  MISS: 436740  HIT %: 0.008929  MISS %: 99.9911  AVERAGE MISS PENALTY: 1125.94
LLC5 WRITEBACK ACCESS: 131159  HIT: 100919  MISS: 30240  HIT %: 76.944  MISS %: 23.056  AVERAGE MISS PENALTY: 0

LLC6 TOTAL     ACCESS: 571436  HIT: 97202  MISS: 474234  HIT %: 17.0101  MISS %: 82.9899  AVERAGE MISS PENALTY: 1072.42
LLC6 LOAD      ACCESS:  3455  HIT:    21  MISS:  3434  HIT %: 0.607815  MISS %: 99.3922  AVERAGE MISS PENALTY: 1256
LLC6 RFO       ACCESS:     0  HIT:     0  MISS:     0  HIT %:     0  MISS %:     0  AVERAGE MISS PENALTY: 0
LLC6 PREFETCH  ACCESS: 436830  HIT:    48  MISS: 436782  HIT %: 0.0109883  MISS %: 99.989  AVERAGE MISS PENALTY: 1154.5
LLC6 WRITEBACK ACCESS: 131151  HIT: 97133  MISS: 34018  HIT %: 74.062  MISS %: 25.938  AVERAGE MISS PENALTY: 0

LLC7 TOTAL     ACCESS: 571497  HIT: 93035  MISS: 478462  HIT %: 16.2792  MISS %: 83.7208  AVERAGE MISS PENALTY: 1072.68
LLC7 LOAD      ACCESS:  4016  HIT:     2  MISS:  4014  HIT %: 0.0498008  MISS %: 99.9502  AVERAGE MISS PENALTY: 1283.76
LLC7 RFO       ACCESS:     0  HIT:     0  MISS:     0  HIT %:     0  MISS %:     0  AVERAGE MISS PENALTY: 0
LLC7 PREFETCH  ACCESS: 436331  HIT:   247  MISS: 436084  HIT %: 0.0566084  MISS %: 99.9434  AVERAGE MISS PENALTY: 1165.11
LLC7 WRITEBACK ACCESS: 131150  HIT: 92786  MISS: 38364  HIT %: 70.748  MISS %: 29.252  AVERAGE MISS PENALTY: 0

Total Rob stall cycles : 	278409866
Total Load Rob Stall cycles : 	226039919
Average Rob Stall cycles : 	 22
Average Load Rob Stall cycles : 	 96

CPU 1 cumulative IPC: 0.612711 instructions: 200000001 cycles: 326417976
ITLB TOTAL     ACCESS: 32155312  HIT: 32155312  MISS:     0  HIT %:   100  MISS %:     0  AVERAGE MISS PENALTY: 0
ITLB LOAD      ACCESS: 32155312  HIT: 32155312  MISS:     0  HIT %:   100  MISS %:     0  AVERAGE MISS PENALTY: 0
ITLB RFO       ACCESS:     0  HIT:     0  MISS:     0  HIT %:     0  MISS %:     0  AVERAGE MISS PENALTY: 0
ITLB PREFETCH  ACCESS:     0  HIT:     0  MISS:     0  HIT %:     0  MISS %:     0  AVERAGE MISS PENALTY: 0
ITLB WRITEBACK ACCESS:     0  HIT:     0  MISS:     0  HIT %:     0  MISS %:     0  AVERAGE MISS PENALTY: 0

DTLB TOTAL     ACCESS: 53715667  HIT: 53641815  MISS: 73852  HIT %: 99.8625  MISS %: 0.137487  AVERAGE MISS PENALTY: 89.2535
DTLB LOAD      ACCESS: 46861168  HIT: 46789960  MISS: 71208  HIT %: 99.848  MISS %: 0.151955  AVERAGE MISS PENALTY: 92.2198
DTLB RFO       ACCESS: 6854499  HIT: 6851855  MISS:  2644  HIT %: 99.9614  MISS %: 0.0385732  AVERAGE MISS PENALTY: 9.3646
DTLB PREFETCH  ACCESS:     0  HIT:     0  MISS:     0  HIT %:     0  MISS %:     0  AVERAGE MISS PENALTY: 0
DTLB WRITEBACK ACCESS:     0  HIT:     0  MISS:     0  HIT %:     0  MISS %:     0  AVERAGE MISS PENALTY: 0

STLB TOTAL     ACCESS: 73852  HIT: 19241  MISS: 54611  HIT %: 26.0535  MISS %: 73.9465  AVERAGE MISS PENALTY: 100
STLB LOAD      ACCESS: 71208  HIT: 16597  MISS: 54611  HIT %: 23.3078  MISS %: 76.6922  AVERAGE MISS PENALTY: 100
STLB RFO       ACCESS:  2644  HIT:  2644  MISS:     0  HIT %:   100  MISS %:     0  AVERAGE MISS PENALTY: 0
STLB PREFETCH  ACCESS:     0  HIT:     0  MISS:     0  HIT %:     0  MISS %:     0  AVERAGE MISS PENALTY: 0
STLB WRITEBACK ACCESS:     0  HIT:     0  MISS:     0  HIT %:     0  MISS %:     0  AVERAGE MISS PENALTY: 0

L1D TOTAL     ACCESS: 66596272  HIT: 63164872  MISS: 3431400  HIT %: 94.8475  MISS %: 5.15254  AVERAGE MISS PENALTY: 1.72194e+07
L1D LOAD      ACCESS: 45083977  HIT: 44686110  MISS: 397867  HIT %: 99.1175  MISS %: 0.882502  AVERAGE MISS PENALTY: 1.48505e+08
L1D RFO       ACCESS: 9834439  HIT: 9834439  MISS:     0  HIT %:   100  MISS %:     0  AVERAGE MISS PENALTY: 0
L1D PREFETCH  ACCESS: 11677856  HIT: 8644323  MISS: 3033533  HIT %: 74.0232  MISS %: 25.9768  AVERAGE MISS PENALTY: 367.307
L1D WRITEBACK ACCESS:     0  HIT:     0  MISS:     0  HIT %:     0  MISS %:     0  AVERAGE MISS PENALTY: 0

L1I TOTAL     ACCESS: 41709472  HIT: 41709472  MISS:     0  HIT %:   100  MISS %:     0  AVERAGE MISS PENALTY: 0
L1I LOAD      ACCESS: 41709472  HIT: 41709472  MISS:     0  HIT %:   100  MISS %:     0  AVERAGE MISS PENALTY: 0
L1I RFO       ACCESS:     0  HIT:     0  MISS:     0  HIT %:     0  MISS %:     0  AVERAGE MISS PENALTY: 0
L1I PREFETCH  ACCESS:     0  HIT:     0  MISS:     0  HIT %:     0  MISS %:     0  AVERAGE MISS PENALTY: 0
L1I WRITEBACK ACCESS:     0  HIT:     0  MISS:     0  HIT %:     0  MISS %:     0  AVERAGE MISS PENALTY: 0

L2C TOTAL     ACCESS: 7153533  HIT: 3676134  MISS: 3477399  HIT %: 51.3891  MISS %: 48.6109  AVERAGE MISS PENALTY: 1.88543e+07
L2C LOAD      ACCESS: 392706  HIT: 44755  MISS: 347951  HIT %: 11.3966  MISS %: 88.6034  AVERAGE MISS PENALTY: 1.88419e+08
L2C RFO       ACCESS:     0  HIT:     0  MISS:     0  HIT %:     0  MISS %:     0  AVERAGE MISS PENALTY: 0
L2C PREFETCH  ACCESS: 5722387  HIT: 2592967  MISS: 3129420  HIT %: 45.3127  MISS %: 54.6873  AVERAGE MISS PENALTY: 1115
L2C WRITEBACK ACCESS: 1038440  HIT: 1038412  MISS:    28  HIT %: 99.9973  MISS %: 0.00269635  AVERAGE MISS PENALTY: 0


LLC0 TOTAL     ACCESS: 561996  HIT: 84693  MISS: 477303  HIT %: 15.07  MISS %: 84.93  AVERAGE MISS PENALTY: 987.098
LLC0 LOAD      ACCESS: 54202  HIT:     4  MISS: 54198  HIT %: 0.0073798  MISS %: 99.9926  AVERAGE MISS PENALTY: 950.224
LLC0 RFO       ACCESS:     0  HIT:     0  MISS:     0  HIT %:     0  MISS %:     0  AVERAGE MISS PENALTY: 0
LLC0 PREFETCH  ACCESS: 378055  HIT:   298  MISS: 377757  HIT %: 0.0788245  MISS %: 99.9212  AVERAGE MISS PENALTY: 1110.89
LLC0 WRITEBACK ACCESS: 129739  HIT: 84391  MISS: 45348  HIT %: 65.0467  MISS %: 34.9533  AVERAGE MISS PENALTY: 0

LLC1 TOTAL     ACCESS: 562945  HIT: 89127  MISS: 473818  HIT %: 15.8323  MISS %: 84.1677  AVERAGE MISS PENALTY: 1006.16
LLC1 LOAD      ACCESS:  4523  HIT:     2  MISS:  4521  HIT %: 0.0442184  MISS %: 99.9558  AVERAGE MISS PENALTY: 1137.15
LLC1 RFO       ACCESS:     0  HIT:     0  MISS:     0  HIT %:     0  MISS %:     0  AVERAGE MISS PENALTY: 0
LLC1 PREFETCH  ACCESS: 428688  HIT:   113  MISS: 428575  HIT %: 0.0263595  MISS %: 99.9736  AVERAGE MISS PENALTY: 1100.38
LLC1 WRITEBACK ACCESS: 129734  HIT: 89012  MISS: 40722  HIT %: 68.6112  MISS %: 31.3888  AVERAGE MISS PENALTY: 0

LLC2 TOTAL     ACCESS: 564412  HIT: 94578  MISS: 469834  HIT %: 16.7569  MISS %: 83.2431  AVERAGE MISS PENALTY: 1052.71
LLC2 LOAD      ACCESS:  4366  HIT:     0  MISS:  4366  HIT %:     0  MISS %:   100  AVERAGE MISS PENALTY: 1175.28
LLC2 RFO       ACCESS:     0  HIT:     0  MISS:     0  HIT %:     0  MISS %:     0  AVERAGE MISS PENALTY: 0
LLC2 PREFETCH  ACCESS: 430290  HIT:    55  MISS: 430235  HIT %: 0.0127821  MISS %: 99.9872  AVERAGE MISS PENALTY: 1137.68
LLC2 WRITEBACK ACCESS: 129756  HIT: 94523  MISS: 35233  HIT %: 72.8467  MISS %: 27.1533  AVERAGE MISS PENALTY: 0

LLC3 TOTAL     ACCESS: 565143  HIT: 98819  MISS: 466324  HIT %: 17.4857  MISS %: 82.5143  AVERAGE MISS PENALTY: 1075.37
LLC3 LOAD      ACCESS:  3838  HIT:     0  MISS:  3838  HIT %:     0  MISS %:   100  AVERAGE MISS PENALTY: 1219.53
LLC3 RFO       ACCESS:     0  HIT:     0  MISS:     0  HIT %:     0  MISS %:     0  AVERAGE MISS PENALTY: 0
LLC3 PREFETCH  ACCESS: 431558  HIT:    23  MISS: 431535  HIT %: 0.00532953  MISS %: 99.9947  AVERAGE MISS PENALTY: 1151.22
[...]
 USEFUL LOAD PREFETCHES:          4 PREFETCH ISSUED TO LOWER LEVEL:  217035760  ACCURACY: 1.84301e-06
 TIMELY PREFETCHES:          4 LATE PREFETCHES: 0 DROPPED PREFETCHES: 0
LLC1 AVERAGE MISS LATENCY: 997.078 cycles
LLC2 TOTAL     ACCESS: 564383  HIT: 94649  MISS: 469734  HIT %: 16.7703  MISS %: 83.2297  AVERAGE MISS PENALTY: 1045.96
LLC2 LOAD      ACCESS:  4336  HIT:     1  MISS:  4335  HIT %: 0.0230627  MISS %: 99.9769  AVERAGE MISS PENALTY: 1163.59
LLC2 RFO       ACCESS:     0  HIT:     0  MISS:     0  HIT %:     0  MISS %:     0  AVERAGE MISS PENALTY: 0
LLC2 PREFETCH  ACCESS: 430304  HIT:    50  MISS: 430254  HIT %: 0.0116197  MISS %: 99.9884  AVERAGE MISS PENALTY: 1130.22
LLC2 WRITEBACK ACCESS: 129743  HIT: 94598  MISS: 35145  HIT %: 72.9118  MISS %: 27.0882  AVERAGE MISS PENALTY: 0
LLC2 PREFETCH  REQUESTED:     0  ISSUED:     0  USEFUL:     3  USELESS: 3472907
 USEFUL LOAD PREFETCHES:          3 PREFETCH ISSUED TO LOWER LEVEL:  220708826  ACCURACY: 1.35926e-06
 TIMELY PREFETCHES:          3 LATE PREFETCHES: 0 DROPPED PREFETCHES: 0
LLC2 AVERAGE MISS LATENCY: 1045.96 cycles
LLC3 TOTAL     ACCESS: 565078  HIT: 98771  MISS: 466307  HIT %: 17.4792  MISS %: 82.5208  AVERAGE MISS PENALTY: 1069.07
LLC3 LOAD      ACCESS:  3919  HIT:     0  MISS:  3919  HIT %:     0  MISS %:   100  AVERAGE MISS PENALTY: 1215.34
LLC3 RFO       ACCESS:     0  HIT:     0  MISS:     0  HIT %:     0  MISS %:     0  AVERAGE MISS PENALTY: 0
LLC3 PREFETCH  ACCESS: 431428  HIT:    27  MISS: 431401  HIT %: 0.00625829  MISS %: 99.9937  AVERAGE MISS PENALTY: 1144.53
LLC3 WRITEBACK ACCESS: 129731  HIT: 98744  MISS: 30987  HIT %: 76.1144  MISS %: 23.8856  AVERAGE MISS PENALTY: 0
LLC3 PREFETCH  REQUESTED:     0  ISSUED:     0  USEFUL:     3  USELESS: 3482546
 USEFUL LOAD PREFETCHES:          3 PREFETCH ISSUED TO LOWER LEVEL:  251948891  ACCURACY: 1.19072e-06
 TIMELY PREFETCHES:          3 LATE PREFETCHES: 0 DROPPED PREFETCHES: 0
LLC3 AVERAGE MISS LATENCY: 1069.07 cycles
LLC4 TOTAL     ACCESS: 565185  HIT: 99560  MISS: 465625  HIT %: 17.6155  MISS %: 82.3845  AVERAGE MISS PENALTY: 1052.18
LLC4 LOAD      ACCESS:  3075  HIT:     0  MISS:  3075  HIT %:     0  MISS %:   100  AVERAGE MISS PENALTY: 1211.15
LLC4 RFO       ACCESS:     0  HIT:     0  MISS:     0  HIT %:     0  MISS %:     0  AVERAGE MISS PENALTY: 0
LLC4 PREFETCH  ACCESS: 432379  HIT:    30  MISS: 432349  HIT %: 0.00693836  MISS %: 99.9931  AVERAGE MISS PENALTY: 1124.54
LLC4 WRITEBACK ACCESS: 129731  HIT: 99530  MISS: 30201  HIT %: 76.7203  MISS %: 23.2797  AVERAGE MISS PENALTY: 0
LLC4 PREFETCH  REQUESTED:     0  ISSUED:     0  USEFUL:     0  USELESS: 3489446
 USEFUL LOAD PREFETCHES:          0 PREFETCH ISSUED TO LOWER LEVEL:  257366667  ACCURACY: 0
 TIMELY PREFETCHES:          0 LATE PREFETCHES: 0 DROPPED PREFETCHES: 0
LLC4 AVERAGE MISS LATENCY: 1052.18 cycles
LLC5 TOTAL     ACCESS: 565191  HIT: 99917  MISS: 465274  HIT %: 17.6784  MISS %: 82.3216  AVERAGE MISS PENALTY: 1058.51
LLC5 LOAD      ACCESS:  3441  HIT:    20  MISS:  3421  HIT %: 0.581226  MISS %: 99.4188  AVERAGE MISS PENALTY: 1234.77
LLC5 RFO       ACCESS:     0  HIT:     0  MISS:     0  HIT %:     0  MISS %:     0  AVERAGE MISS PENALTY: 0
LLC5 PREFETCH  ACCESS: 432016  HIT:    22  MISS: 431994  HIT %: 0.0050924  MISS %: 99.9949  AVERAGE MISS PENALTY: 1130.28
LLC5 WRITEBACK ACCESS: 129734  HIT: 99875  MISS: 29859  HIT %: 76.9844  MISS %: 23.0156  AVERAGE MISS PENALTY: 0
LLC5 PREFETCH  REQUESTED:     0  ISSUED:     0  USEFUL:     3  USELESS: 3486269
 USEFUL LOAD PREFETCHES:          3 PREFETCH ISSUED TO LOWER LEVEL:  283696889  ACCURACY: 1.05747e-06
 TIMELY PREFETCHES:          3 LATE PREFETCHES: 0 DROPPED PREFETCHES: 0
LLC5 AVERAGE MISS LATENCY: 1058.51 cycles
LLC6 TOTAL     ACCESS: 565187  HIT: 95988  MISS: 469199  HIT %: 16.9834  MISS %: 83.0166  AVERAGE MISS PENALTY: 1074.74
LLC6 LOAD      ACCESS:  3457  HIT:    23  MISS:  3434  HIT %: 0.665317  MISS %: 99.3347  AVERAGE MISS PENALTY: 1285.11
LLC6 RFO       ACCESS:     0  HIT:     0  MISS:     0  HIT %:     0  MISS %:     0  AVERAGE MISS PENALTY: 0
LLC6 PREFETCH  ACCESS: 432004  HIT:    57  MISS: 431947  HIT %: 0.0131943  MISS %: 99.9868  AVERAGE MISS PENALTY: 1157.21
LLC6 WRITEBACK ACCESS: 129726  HIT: 95908  MISS: 33818  HIT %: 73.9312  MISS %: 26.0688  AVERAGE MISS PENALTY: 0
LLC6 PREFETCH  REQUESTED:     0  ISSUED:     0  USEFUL:     6  USELESS: 3486485
 USEFUL LOAD PREFETCHES:          6 PREFETCH ISSUED TO LOWER LEVEL:  293306925  ACCURACY: 2.04564e-06
 TIMELY PREFETCHES:          6 LATE PREFETCHES: 0 DROPPED PREFETCHES: 0
LLC6 AVERAGE MISS LATENCY: 1074.74 cycles
LLC7 TOTAL     ACCESS: 565207  HIT: 91858  MISS: 473349  HIT %: 16.2521  MISS %: 83.7479  AVERAGE MISS PENALTY: 1075.38
LLC7 LOAD      ACCESS:  3898  HIT:     3  MISS:  3895  HIT %: 0.0769625  MISS %: 99.923  AVERAGE MISS PENALTY: 1284.04
LLC7 RFO       ACCESS:     0  HIT:     0  MISS:     0  HIT %:     0  MISS %:     0  AVERAGE MISS PENALTY: 0
LLC7 PREFETCH  ACCESS: 431584  HIT:   211  MISS: 431373  HIT %: 0.0488897  MISS %: 99.9511  AVERAGE MISS PENALTY: 1168.43
LLC7 WRITEBACK ACCESS: 129725  HIT: 91644  MISS: 38081  HIT %: 70.6448  MISS %: 29.3552  AVERAGE MISS PENALTY: 0
LLC7 PREFETCH  REQUESTED:     0  ISSUED:     0  USEFUL:    11  USELESS: 3481980
 USEFUL LOAD PREFETCHES:         11 PREFETCH ISSUED TO LOWER LEVEL:  334532259  ACCURACY: 3.28817e-06
 TIMELY PREFETCHES:         11 LATE PREFETCHES: 0 DROPPED PREFETCHES: 0
LLC7 AVERAGE MISS LATENCY: 1075.38 cycles
ROI Average ROB Stall Cycles:	22.9222
ROI Total ROB Stalls Cycles:	276487911
ROI TOTAL ROB counter      :	12062007
ROI Average Load ROB Stall Cycles:	97.1452
ROI Total Load ROB Stalls Cycle  :	224566837
ROI Total Load ROB stalls Counter:	2311661
Major fault: 0 Minor fault: 87124

CPU 7 cumulative IPC: 0.619729 instructions: 200000000 cycles: 322721902
ITLB TOTAL     ACCESS: 32153206  HIT: 32153206  MISS:     0  HIT %:   100  MISS %:     0  AVERAGE MISS PENALTY: 0
ITLB LOAD      ACCESS: 32153206  HIT: 32153206  MISS:     0  HIT %:   100  MISS %:     0  AVERAGE MISS PENALTY: 0
ITLB RFO       ACCESS:     0  HIT:     0  MISS:     0  HIT %:     0  MISS %:     0  AVERAGE MISS PENALTY: 0
ITLB PREFETCH  ACCESS:     0  HIT:     0  MISS:     0  HIT %:     0  MISS %:     0  AVERAGE MISS PENALTY: 0
ITLB WRITEBACK ACCESS:     0  HIT:     0  MISS:     0  HIT %:     0  MISS %:     0  AVERAGE MISS PENALTY: 0
ITLB PREFETCH  REQUESTED:     0  ISSUED:     0  USEFUL:     0  USELESS:     0
 USEFUL LOAD PREFETCHES:          0 PREFETCH ISSUED TO LOWER LEVEL:          0  ACCURACY: -nan
 TIMELY PREFETCHES:          0 LATE PREFETCHES: 0 DROPPED PREFETCHES: 0
ITLB AVERAGE MISS LATENCY: -nan cycles
DTLB TOTAL     ACCESS: 53715365  HIT: 53641462  MISS: 73903  HIT %: 99.8624  MISS %: 0.137583  AVERAGE MISS PENALTY: 89.2247
DTLB LOAD      ACCESS: 46859206  HIT: 46787937  MISS: 71269  HIT %: 99.8479  MISS %: 0.152092  AVERAGE MISS PENALTY: 92.1709
DTLB RFO       ACCESS: 6856159  HIT: 6853525  MISS:  2634  HIT %: 99.9616  MISS %: 0.038418  AVERAGE MISS PENALTY: 9.50911
DTLB PREFETCH  ACCESS:     0  HIT:     0  MISS:     0  HIT %:     0  MISS %:     0  AVERAGE MISS PENALTY: 0
DTLB WRITEBACK ACCESS:     0  HIT:     0  MISS:     0  HIT %:     0  MISS %:     0  AVERAGE MISS PENALTY: 0
DTLB PREFETCH  REQUESTED:     0  ISSUED:     0  USEFUL:     0  USELESS:     0
 USEFUL LOAD PREFETCHES:          0 PREFETCH ISSUED TO LOWER LEVEL:          0  ACCURACY: -nan
 TIMELY PREFETCHES:          0 LATE PREFETCHES: 0 DROPPED PREFETCHES: 0
DTLB AVERAGE MISS LATENCY: 89.2247 cycles
STLB TOTAL     ACCESS: 73903  HIT: 19293  MISS: 54610  HIT %: 26.1058  MISS %: 73.8942  AVERAGE MISS PENALTY: 100
STLB LOAD      ACCESS: 71269  HIT: 16659  MISS: 54610  HIT %: 23.3748  MISS %: 76.6252  AVERAGE MISS PENALTY: 100
STLB RFO       ACCESS:  2634  HIT:  2634  MISS:     0  HIT %:   100  MISS %:     0  AVERAGE MISS PENALTY: 0
STLB PREFETCH  ACCESS:     0  HIT:     0  MISS:     0  HIT %:     0  MISS %:     0  AVERAGE MISS PENALTY: 0
STLB WRITEBACK ACCESS:     0  HIT:     0  MISS:     0  HIT %:     0  MISS %:     0  AVERAGE MISS PENALTY: 0
STLB PREFETCH  REQUESTED:     0  ISSUED:     0  USEFUL:     0  USELESS:     0
 USEFUL LOAD PREFETCHES:          0 PREFETCH ISSUED TO LOWER LEVEL:          0  ACCURACY: -nan
 TIMELY PREFETCHES:          0 LATE PREFETCHES: 0 DROPPED PREFETCHES: 0
STLB AVERAGE MISS LATENCY: 100 cycles
L1D TOTAL     ACCESS: 66589597  HIT: 63158194  MISS: 3431403  HIT %: 94.8469  MISS %: 5.15306  AVERAGE MISS PENALTY: 1.69323e+07
L1D LOAD      ACCESS: 45080984  HIT: 44684970  MISS: 396014  HIT %: 99.1215  MISS %: 0.87845  AVERAGE MISS PENALTY: 1.46713e+08
L1D RFO       ACCESS: 9834439  HIT: 9834439  MISS:     0  HIT %:   100  MISS %:     0  AVERAGE MISS PENALTY: 0
L1D PREFETCH  ACCESS: 11674174  HIT: 8638785  MISS: 3035389  HIT %: 73.9991  MISS %: 26.0009  AVERAGE MISS PENALTY: 363.284
L1D WRITEBACK ACCESS:     0  HIT:     0  MISS:     0  HIT %:     0  MISS %:     0  AVERAGE MISS PENALTY: 0
L1D PREFETCH  REQUESTED: 14154893  ISSUED: 13886211  USEFUL: 2879149  USELESS: 156247
 USEFUL LOAD PREFETCHES:    2879149 PREFETCH ISSUED TO LOWER LEVEL:   21190724  ACCURACY: 13.5868
 TIMELY PREFETCHES:    2879149 LATE PREFETCHES: 242130 DROPPED PREFETCHES: 268682
L1D AVERAGE MISS LATENCY: 405.571 cycles
L1I TOTAL     ACCESS: 41703324  HIT: 41703324  MISS:     0  HIT %:   100  MISS %:     0  AVERAGE MISS PENALTY: 0
L1I LOAD      ACCESS: 41703324  HIT: 41703324  MISS:     0  HIT %:   100  MISS %:     0  AVERAGE MISS PENALTY: 0
L1I RFO       ACCESS:     0  HIT:     0  MISS:     0  HIT %:     0  MISS %:     0  AVERAGE MISS PENALTY: 0
L1I PREFETCH  ACCESS:     0  HIT:     0  MISS:     0  HIT %:     0  MISS %:     0  AVERAGE MISS PENALTY: 0
L1I WRITEBACK ACCESS:     0  HIT:     0  MISS:     0  HIT %:     0  MISS %:     0  AVERAGE MISS PENALTY: 0
L1I PREFETCH  REQUESTED:     0  ISSUED:     0  USEFUL:     0  USELESS:     0
 USEFUL LOAD PREFETCHES:          0 PREFETCH ISSUED TO LOWER LEVEL:          0  ACCURACY: -nan
 TIMELY PREFETCHES:          0 LATE PREFETCHES: 0 DROPPED PREFETCHES: 0
L1I AVERAGE MISS LATENCY: -nan cycles
L2C TOTAL     ACCESS: 7152145  HIT: 3674607  MISS: 3477538  HIT %: 51.3777  MISS %: 48.6223  AVERAGE MISS PENALTY: 1.85733e+07
L2C LOAD      ACCESS: 390845  HIT: 44452  MISS: 346393  HIT %: 11.3733  MISS %: 88.6267  AVERAGE MISS PENALTY: 1.86452e+08
L2C RFO       ACCESS:     0  HIT:     0  MISS:     0  HIT %:     0  MISS %:     0  AVERAGE MISS PENALTY: 0
L2C PREFETCH  ACCESS: 5722857  HIT: 2591741  MISS: 3131116  HIT %: 45.2875  MISS %: 54.7125  AVERAGE MISS PENALTY: 1130.13
L2C WRITEBACK ACCESS: 1038443  HIT: 1038414  MISS:    29  HIT %: 99.9972  MISS %: 0.00279264  AVERAGE MISS PENALTY: 0
L2C PREFETCH  REQUESTED: 5016158  ISSUED: 5015792  USEFUL: 44279  USELESS: 3087435
 USEFUL LOAD PREFETCHES:      44279 PREFETCH ISSUED TO LOWER LEVEL:    6895321  ACCURACY: 0.64216
 TIMELY PREFETCHES:      44279 LATE PREFETCHES: 268058 DROPPED PREFETCHES: 366
L2C AVERAGE MISS LATENCY: 1075.85 cycles
LLC0 TOTAL     ACCESS: 562084  HIT: 85115  MISS: 476969  HIT %: 15.1428  MISS %: 84.8572  AVERAGE MISS PENALTY: 976.568
LLC0 LOAD      ACCESS: 54171  HIT:     6  MISS: 54165  HIT %: 0.011076  MISS %: 99.9889  AVERAGE MISS PENALTY: 945.025
LLC0 RFO       ACCESS:     0  HIT:     0  MISS:     0  HIT %:     0  MISS %:     0  AVERAGE MISS PENALTY: 0
LLC0 PREFETCH  ACCESS: 378098  HIT:   358  MISS: 377740  HIT %: 0.0946844  MISS %: 99.9053  AVERAGE MISS PENALTY: 1097.59
LLC0 WRITEBACK ACCESS: 129815  HIT: 84751  MISS: 45064  HIT %: 65.286  MISS %: 34.714  AVERAGE MISS PENALTY: 0
LLC0 PREFETCH  REQUESTED:     0  ISSUED:     0  USEFUL:    11  USELESS: 3049239
 USEFUL LOAD PREFETCHES:         11 PREFETCH ISSUED TO LOWER LEVEL:  180529351  ACCURACY: 6.09319e-06
 TIMELY PREFETCHES:         11 LATE PREFETCHES: 0 DROPPED PREFETCHES: 0
LLC0 AVERAGE MISS LATENCY: 976.568 cycles
Deadblocks : 436932 Deadblock percentage : 806.669

LLC1 TOTAL     ACCESS: 563046  HIT: 89085  MISS: 473961  HIT %: 15.822  MISS %: 84.178  AVERAGE MISS PENALTY: 993.788
LLC1 LOAD      ACCESS:  4534  HIT:     4  MISS:  4530  HIT %: 0.0882223  MISS %: 99.9118  AVERAGE MISS PENALTY: 1146.03
LLC1 RFO       ACCESS:     0  HIT:     0  MISS:     0  HIT %:     0  MISS %:     0  AVERAGE MISS PENALTY: 0
LLC1 PREFETCH  ACCESS: 428704  HIT:   105  MISS: 428599  HIT %: 0.0244924  MISS %: 99.9755  AVERAGE MISS PENALTY: 1086.86
LLC1 WRITEBACK ACCESS: 129808  HIT: 88976  MISS: 40832  HIT %: 68.5443  MISS %: 31.4557  AVERAGE MISS PENALTY: 0
LLC1 PREFETCH  REQUESTED:     0  ISSUED:     0  USEFUL:     4  USELESS: 3459809
 USEFUL LOAD PREFETCHES:          4 PREFETCH ISSUED TO LOWER LEVEL:  217035760  ACCURACY: 1.84301e-06
 TIMELY PREFETCHES:          4 LATE PREFETCHES: 0 DROPPED PREFETCHES: 0
LLC1 AVERAGE MISS LATENCY: 993.788 cycles
LLC2 TOTAL     ACCESS: 564489  HIT: 94871  MISS: 469618  HIT %: 16.8065  MISS %: 83.1935  AVERAGE MISS PENALTY: 1042.78
LLC2 LOAD      ACCESS:  4326  HIT:     1  MISS:  4325  HIT %: 0.023116  MISS %: 99.9769  AVERAGE MISS PENALTY: 1151.27
LLC2 RFO       ACCESS:     0  HIT:     0  MISS:     0  HIT %:     0  MISS %:     0  AVERAGE MISS PENALTY: 0
LLC2 PREFETCH  ACCESS: 430342  HIT:    44  MISS: 430298  HIT %: 0.0102244  MISS %: 99.9898  AVERAGE MISS PENALTY: 1126.5
LLC2 WRITEBACK ACCESS: 129821  HIT: 94826  MISS: 34995  HIT %: 73.0437  MISS %: 26.9563  AVERAGE MISS PENALTY: 0
LLC2 PREFETCH  REQUESTED:     0  ISSUED:     0  USEFUL:     3  USELESS: 3472907
 USEFUL LOAD PREFETCHES:          3 PREFETCH ISSUED TO LOWER LEVEL:  220708826  ACCURACY: 1.35926e-06
 TIMELY PREFETCHES:          3 LATE PREFETCHES: 0 DROPPED PREFETCHES: 0
LLC2 AVERAGE MISS LATENCY: 1042.78 cycles
LLC3 TOTAL     ACCESS: 565170  HIT: 99290  MISS: 465880  HIT %: 17.5682  MISS %: 82.4318  AVERAGE MISS PENALTY: 1066.95
LLC3 LOAD      ACCESS:  3886  HIT:     2  MISS:  3884  HIT %: 0.0514668  MISS %: 99.9485  AVERAGE MISS PENALTY: 1171.54
LLC3 RFO       ACCESS:     0  HIT:     0  MISS:     0  HIT %:     0  MISS %:     0  AVERAGE MISS PENALTY: 0
LLC3 PREFETCH  ACCESS: 431471  HIT:    21  MISS: 431450  HIT %: 0.00486707  MISS %: 99.9951  AVERAGE MISS PENALTY: 1141.55
LLC3 WRITEBACK ACCESS: 129813  HIT: 99267  MISS: 30546  HIT %: 76.4692  MISS %: 23.5308  AVERAGE MISS PENALTY: 0
LLC3 PREFETCH  REQUESTED:     0  ISSUED:     0  USEFUL:     3  USELESS: 3482546
 USEFUL LOAD PREFETCHES:          3 PREFETCH ISSUED TO LOWER LEVEL:  251948891  ACCURACY: 1.19072e-06
 TIMELY PREFETCHES:          3 LATE PREFETCHES: 0 DROPPED PREFETCHES: 0
LLC3 AVERAGE MISS LATENCY: 1066.95 cycles
LLC4 TOTAL     ACCESS: 565270  HIT: 100093  MISS: 465177  HIT %: 17.7071  MISS %: 82.2929  AVERAGE MISS PENALTY: 1048.31
LLC4 LOAD      ACCESS:  3092  HIT:     0  MISS:  3092  HIT %:     0  MISS %:   100  AVERAGE MISS PENALTY: 1202.8
LLC4 RFO       ACCESS:     0  HIT:     0  MISS:     0  HIT %:     0  MISS %:     0  AVERAGE MISS PENALTY: 0
LLC4 PREFETCH  ACCESS: 432362  HIT:    24  MISS: 432338  HIT %: 0.0055509  MISS %: 99.9944  AVERAGE MISS PENALTY: 1119.34
LLC4 WRITEBACK ACCESS: 129816  HIT: 100069  MISS: 29747  HIT %: 77.0853  MISS %: 22.9147  AVERAGE MISS PENALTY: 0
LLC4 PREFETCH  REQUESTED:     0  ISSUED:     0  USEFUL:     0  USELESS: 3489446
 USEFUL LOAD PREFETCHES:          0 PREFETCH ISSUED TO LOWER LEVEL:  257366667  ACCURACY: 0
 TIMELY PREFETCHES:          0 LATE PREFETCHES: 0 DROPPED PREFETCHES: 0
LLC4 AVERAGE MISS LATENCY: 1048.31 cycles
LLC5 TOTAL     ACCESS: 565264  HIT: 100110  MISS: 465154  HIT %: 17.7103  MISS %: 82.2897  AVERAGE MISS PENALTY: 1054.07
LLC5 LOAD      ACCESS:  3491  HIT:    19  MISS:  3472  HIT %: 0.544257  MISS %: 99.4557  AVERAGE MISS PENALTY: 1225.35
LLC5 RFO       ACCESS:     0  HIT:     0  MISS:     0  HIT %:     0  MISS %:     0  AVERAGE MISS PENALTY: 0
LLC5 PREFETCH  ACCESS: 431956  HIT:    29  MISS: 431927  HIT %: 0.00671365  MISS %: 99.9933  AVERAGE MISS PENALTY: 1125.31
LLC5 WRITEBACK ACCESS: 129817  HIT: 100062  MISS: 29755  HIT %: 77.0793  MISS %: 22.9207  AVERAGE MISS PENALTY: 0
LLC5 PREFETCH  REQUESTED:     0  ISSUED:     0  USEFUL:     3  USELESS: 3486269
 USEFUL LOAD PREFETCHES:          3 PREFETCH ISSUED TO LOWER LEVEL:  283696889  ACCURACY: 1.05747e-06
 TIMELY PREFETCHES:          3 LATE PREFETCHES: 0 DROPPED PREFETCHES: 0
LLC5 AVERAGE MISS LATENCY: 1054.07 cycles
LLC6 TOTAL     ACCESS: 565349  HIT: 96192  MISS: 469157  HIT %: 17.0146  MISS %: 82.9854  AVERAGE MISS PENALTY: 1070.52
LLC6 LOAD      ACCESS:  3520  HIT:    27  MISS:  3493  HIT %: 0.767045  MISS %: 99.233  AVERAGE MISS PENALTY: 1260.36
LLC6 RFO       ACCESS:     0  HIT:     0  MISS:     0  HIT %:     0  MISS %:     0  AVERAGE MISS PENALTY: 0
LLC6 PREFETCH  ACCESS: 432021  HIT:    44  MISS: 431977  HIT %: 0.0101847  MISS %: 99.9898  AVERAGE MISS PENALTY: 1152.47
LLC6 WRITEBACK ACCESS: 129808  HIT: 96121  MISS: 33687  HIT %: 74.0486  MISS %: 25.9514  AVERAGE MISS PENALTY: 0
LLC6 PREFETCH  REQUESTED:     0  ISSUED:     0  USEFUL:     6  USELESS: 3486485
 USEFUL LOAD PREFETCHES:          6 PREFETCH ISSUED TO LOWER LEVEL:  293306925  ACCURACY: 2.04564e-06
 TIMELY PREFETCHES:          6 LATE PREFETCHES: 0 DROPPED PREFETCHES: 0
LLC6 AVERAGE MISS LATENCY: 1070.52 cycles
LLC7 TOTAL     ACCESS: 565350  HIT: 92150  MISS: 473200  HIT %: 16.2996  MISS %: 83.7004  AVERAGE MISS PENALTY: 1071.43
LLC7 LOAD      ACCESS:  3852  HIT:     2  MISS:  3850  HIT %: 0.0519211  MISS %: 99.9481  AVERAGE MISS PENALTY: 1267.61
LLC7 RFO       ACCESS:     0  HIT:     0  MISS:     0  HIT %:     0  MISS %:     0  AVERAGE MISS PENALTY: 0
LLC7 PREFETCH  ACCESS: 431683  HIT:   253  MISS: 431430  HIT %: 0.0586078  MISS %: 99.9414  AVERAGE MISS PENALTY: 1163.86
LLC7 WRITEBACK ACCESS: 129815  HIT: 91895  MISS: 37920  HIT %: 70.7892  MISS %: 29.2108  AVERAGE MISS PENALTY: 0
LLC7 PREFETCH  REQUESTED:     0  ISSUED:     0  USEFUL:    11  USELESS: 3481980
 USEFUL LOAD PREFETCHES:         11 PREFETCH ISSUED TO LOWER LEVEL:  334532259  ACCURACY: 3.28817e-06
 TIMELY PREFETCHES:         11 LATE PREFETCHES: 0 DROPPED PREFETCHES: 0
LLC7 AVERAGE MISS LATENCY: 1071.43 cycles
ROI Average ROB Stall Cycles:	22.8138
ROI Total ROB Stalls Cycles:	275224422
ROI TOTAL ROB counter      :	12063927
ROI Average Load ROB Stall Cycles:	96.6492
ROI Total Load ROB Stalls Cycle  :	223350321
ROI Total Load ROB stalls Counter:	2310937
Major fault: 0 Minor fault: 87310








Interconnect Stats 
LINK 0 BW : 0LINK 1 BW : 0LINK 2 BW : 0LINK 3 BW : 0LINK 4 BW : 0LINK 5 BW : 0LINK 6 BW : 0LINK 7 BW : 0
DRAM Statistics
 CHANNEL 0
 RQ ROW_BUFFER_HIT: 8338357  ROW_BUFFER_MISS: 5679567
 DBUS_CONGESTED: 22266709
 WQ ROW_BUFFER_HIT: 373911  ROW_BUFFER_MISS: 3813535  FULL:     0

 CHANNEL 1
 RQ ROW_BUFFER_HIT: 8369656  ROW_BUFFER_MISS: 5662699
 DBUS_CONGESTED: 22266709
 WQ ROW_BUFFER_HIT: 364735  ROW_BUFFER_MISS: 3821956  FULL:     0

 AVG_CONGESTED_CYCLE: 6
DRAM PAGES: 2097152
Allocated PAGES: 697415
L2C destructor called
L1D destructor called
L1I destructor called
STLB destructor called
DTLB destructor called
ITLB destructor called
L2C destructor called
L1D destructor called
L1I destructor called
STLB destructor called
DTLB destructor called
ITLB destructor called
L2C destructor called
L1D destructor called
L1I destructor called
STLB destructor called
DTLB destructor called
ITLB destructor called
L2C destructor called
L1D destructor called
L1I destructor called
STLB destructor called
DTLB destructor called
ITLB destructor called
L2C destructor called
L1D destructor called
L1I destructor called
STLB destructor called
DTLB destructor called
ITLB destructor called
L2C destructor called
L1D destructor called
L1I destructor called
STLB destructor called
DTLB destructor called
ITLB destructor called
L2C destructor called
L1D destructor called
L1I destructor called
STLB destructor called
DTLB destructor called
ITLB destructor called
L2C destructor called
L1D destructor called
L1I destructor called
STLB destructor called
DTLB destructor called
ITLB destructor called
