
*** ChampSim Multicore Out-of-Order Simulator ***

Warmup Instructions: 200000000
Simulation Instructions: 200000000
Number of CPUs: 8
threads:1

L1I Configuration:
L1I_SET:64
L1I_WAY:8
L1I_RQ_SIZE:64
L1I_WQ_SIZE:64
L1I_PQ_SIZE:8
L1I_MSHR_SIZE:8

L1D Configuration:
L1D_SET:64
L1D_WAY:12
L1D_RQ_SIZE:64
L1D_WQ_SIZE:64
L1D_PQ_SIZE:8
L1D_MSHR_SIZE:16

L2C Configuration:
L2C_SET:1024
L2C_WAY:8
L2C_RQ_SIZE:32
L2C_WQ_SIZE:32
L2C_PQ_SIZE:16
L2C_MSHR_SIZE:32

LLC Configuration:
LLC_SET:2048
LLC_WAY:16
LLC SLICES:8
LLC_RQ_SIZE:64
LLC_WQ_SIZE:64
LLC_PQ_SIZE:32
LLC_MSHR_SIZE:64

Interconnect OFF
Attacker deprioritize is: OFF
Off-chip DRAM Size: 8192 MB Channels: 2 Width: 64-bit Data Rate: 3200 MT/s
PAGE SIZE in KB: 4.000000 
PAGE SIZE in MB: 0.003906 
PAGE offset in bits: 12 
CEASER-S_LLC:0
MIRAGE : 0
CEASER_LATENCY:3
REMAP : OFF
Partitions : 1
Multi-Step : OFF
BFS : OFF

CPU 0 runs /home/anubhav/spec_2017/654.roms_s-523B.champsimtrace.xz
CPU 1 runs /home/anubhav/spec_2017/654.roms_s-523B.champsimtrace.xz
CPU 2 runs /home/anubhav/spec_2017/654.roms_s-523B.champsimtrace.xz
CPU 3 runs /home/anubhav/spec_2017/654.roms_s-523B.champsimtrace.xz
CPU 4 runs /home/anubhav/spec_2017/654.roms_s-523B.champsimtrace.xz
CPU 5 runs /home/anubhav/spec_2017/654.roms_s-523B.champsimtrace.xz
CPU 6 runs /home/anubhav/spec_2017/654.roms_s-523B.champsimtrace.xz
CPU 7 runs /home/anubhav/spec_2017/654.roms_s-523B.champsimtrace.xz
CPU 0 Bimodal branch predictor
Initialize Hawkeye state
Initialize Hawkeye state
Initialize Hawkeye state
Initialize Hawkeye state
Initialize Hawkeye state
Initialize Hawkeye state
Initialize Hawkeye state
Initialize Hawkeye state
CPU 1 Bimodal branch predictor
Initialize Hawkeye state
Initialize Hawkeye state
Initialize Hawkeye state
Initialize Hawkeye state
Initialize Hawkeye state
Initialize Hawkeye state
Initialize Hawkeye state
Initialize Hawkeye state
CPU 2 Bimodal branch predictor
Initialize Hawkeye state
Initialize Hawkeye state
Initialize Hawkeye state
Initialize Hawkeye state
Initialize Hawkeye state
Initialize Hawkeye state
Initialize Hawkeye state
Initialize Hawkeye state
CPU 3 Bimodal branch predictor
Initialize Hawkeye state
Initialize Hawkeye state
Initialize Hawkeye state
Initialize Hawkeye state
Initialize Hawkeye state
Initialize Hawkeye state
Initialize Hawkeye state
Initialize Hawkeye state
CPU 4 Bimodal branch predictor
Initialize Hawkeye state
Initialize Hawkeye state
Initialize Hawkeye state
Initialize Hawkeye state
Initialize Hawkeye state
Initialize Hawkeye state
Initialize Hawkeye state
Initialize Hawkeye state
CPU 5 Bimodal branch predictor
Initialize Hawkeye state
Initialize Hawkeye state
Initialize Hawkeye state
Initialize Hawkeye state
Initialize Hawkeye state
Initialize Hawkeye state
Initialize Hawkeye state
Initialize Hawkeye state
CPU 6 Bimodal branch predictor
Initialize Hawkeye state
Initialize Hawkeye state
Initialize Hawkeye state
Initialize Hawkeye state
Initialize Hawkeye state
Initialize Hawkeye state
Initialize Hawkeye state
Initialize Hawkeye state
CPU 7 Bimodal branch predictor
Initialize Hawkeye state
Initialize Hawkeye state
Initialize Hawkeye state
Initialize Hawkeye state
Initialize Hawkeye state
Initialize Hawkeye state
Initialize Hawkeye state
Initialize Hawkeye state
Heartbeat CPU 3 instructions: 10000001 cycles: 4579806 heartbeat IPC: 2.1835 cumulative IPC: 2.1835 (Simulation time: 4 hr 1 min 54 sec) 
 Total Blocks : 262144 Invalid Blocks : 8814
Heartbeat CPU 7 instructions: 10000001 cycles: 4579883 heartbeat IPC: 2.18346 cumulative IPC: 2.18346 (Simulation time: 4 hr 2 min 4 sec) 
 Total Blocks : 262144 Invalid Blocks : 8813
Heartbeat CPU 6 instructions: 10000001 cycles: 4579893 heartbeat IPC: 2.18346 cumulative IPC: 2.18346 (Simulation time: 4 hr 2 min 6 sec) 
 Total Blocks : 262144 Invalid Blocks : 8813
Heartbeat CPU 1 instructions: 10000001 cycles: 4579901 heartbeat IPC: 2.18345 cumulative IPC: 2.18345 (Simulation time: 4 hr 2 min 6 sec) 
 Total Blocks : 262144 Invalid Blocks : 8813
Heartbeat CPU 5 instructions: 10000001 cycles: 4579944 heartbeat IPC: 2.18343 cumulative IPC: 2.18343 (Simulation time: 4 hr 2 min 13 sec) 
 Total Blocks : 262144 Invalid Blocks : 8813
Heartbeat CPU 2 instructions: 10000001 cycles: 4579965 heartbeat IPC: 2.18342 cumulative IPC: 2.18342 (Simulation time: 4 hr 2 min 13 sec) 
 Total Blocks : 262144 Invalid Blocks : 8813
Heartbeat CPU 0 instructions: 10000001 cycles: 4580039 heartbeat IPC: 2.18339 cumulative IPC: 2.18339 (Simulation time: 4 hr 2 min 13 sec) 
 Total Blocks : 262144 Invalid Blocks : 8813
Heartbeat CPU 4 instructions: 10000001 cycles: 4580059 heartbeat IPC: 2.18338 cumulative IPC: 2.18338 (Simulation time: 4 hr 2 min 13 sec) 
 Total Blocks : 262144 Invalid Blocks : 8813
Heartbeat CPU 3 instructions: 20000003 cycles: 9026241 heartbeat IPC: 2.24899 cumulative IPC: 2.21576 (Simulation time: 7 hr 24 min 19 sec) 
 Total Blocks : 262144 Invalid Blocks : 821
Heartbeat CPU 5 instructions: 20000003 cycles: 9026245 heartbeat IPC: 2.24906 cumulative IPC: 2.21576 (Simulation time: 7 hr 24 min 24 sec) 
 Total Blocks : 262144 Invalid Blocks : 821
Heartbeat CPU 1 instructions: 20000003 cycles: 9026283 heartbeat IPC: 2.24902 cumulative IPC: 2.21575 (Simulation time: 7 hr 24 min 24 sec) 
 Total Blocks : 262144 Invalid Blocks : 821
Heartbeat CPU 2 instructions: 20000003 cycles: 9026308 heartbeat IPC: 2.24904 cumulative IPC: 2.21575 (Simulation time: 7 hr 24 min 24 sec) 
 Total Blocks : 262144 Invalid Blocks : 821
Heartbeat CPU 7 instructions: 20000003 cycles: 9026310 heartbeat IPC: 2.249 cumulative IPC: 2.21575 (Simulation time: 7 hr 24 min 24 sec) 
 Total Blocks : 262144 Invalid Blocks : 821
Heartbeat CPU 6 instructions: 20000003 cycles: 9026344 heartbeat IPC: 2.24899 cumulative IPC: 2.21574 (Simulation time: 7 hr 24 min 24 sec) 
 Total Blocks : 262144 Invalid Blocks : 821
Heartbeat CPU 4 instructions: 20000003 cycles: 9026360 heartbeat IPC: 2.24906 cumulative IPC: 2.21573 (Simulation time: 7 hr 24 min 24 sec) 
 Total Blocks : 262144 Invalid Blocks : 821
Heartbeat CPU 0 instructions: 20000003 cycles: 9026383 heartbeat IPC: 2.24904 cumulative IPC: 2.21573 (Simulation time: 7 hr 24 min 25 sec) 
 Total Blocks : 262144 Invalid Blocks : 821
Heartbeat CPU 1 instructions: 30000001 cycles: 14180756 heartbeat IPC: 1.94006 cumulative IPC: 2.11554 (Simulation time: 13 hr 53 min 55 sec) 
 Total Blocks : 262144 Invalid Blocks : 16
Heartbeat CPU 5 instructions: 30000001 cycles: 14180771 heartbeat IPC: 1.94004 cumulative IPC: 2.11554 (Simulation time: 13 hr 54 min 0 sec) 
 Total Blocks : 262144 Invalid Blocks : 16
Heartbeat CPU 3 instructions: 30000001 cycles: 14180779 heartbeat IPC: 1.94004 cumulative IPC: 2.11554 (Simulation time: 13 hr 54 min 0 sec) 
 Total Blocks : 262144 Invalid Blocks : 16
Heartbeat CPU 2 instructions: 30000001 cycles: 14180812 heartbeat IPC: 1.94005 cumulative IPC: 2.11553 (Simulation time: 13 hr 54 min 0 sec) 
 Total Blocks : 262144 Invalid Blocks : 16
Heartbeat CPU 0 instructions: 30000001 cycles: 14180847 heartbeat IPC: 1.94007 cumulative IPC: 2.11553 (Simulation time: 13 hr 54 min 0 sec) 
 Total Blocks : 262144 Invalid Blocks : 16
Heartbeat CPU 4 instructions: 30000001 cycles: 14180863 heartbeat IPC: 1.94005 cumulative IPC: 2.11553 (Simulation time: 13 hr 54 min 0 sec) 
 Total Blocks : 262144 Invalid Blocks : 16
Heartbeat CPU 6 instructions: 30000001 cycles: 14180876 heartbeat IPC: 1.94004 cumulative IPC: 2.11553 (Simulation time: 13 hr 54 min 0 sec) 
 Total Blocks : 262144 Invalid Blocks : 16
Heartbeat CPU 7 instructions: 30000001 cycles: 14180887 heartbeat IPC: 1.94002 cumulative IPC: 2.11552 (Simulation time: 13 hr 54 min 0 sec) 
 Total Blocks : 262144 Invalid Blocks : 16
Heartbeat CPU 1 instructions: 40000003 cycles: 18581177 heartbeat IPC: 2.27251 cumulative IPC: 2.15272 (Simulation time: 18 hr 32 min 39 sec) 
 Total Blocks : 262144 Invalid Blocks : 1
Heartbeat CPU 2 instructions: 40000003 cycles: 18581217 heartbeat IPC: 2.27252 cumulative IPC: 2.15271 (Simulation time: 18 hr 32 min 44 sec) 
 Total Blocks : 262144 Invalid Blocks : 1
Heartbeat CPU 5 instructions: 40000003 cycles: 18581239 heartbeat IPC: 2.27249 cumulative IPC: 2.15271 (Simulation time: 18 hr 32 min 44 sec) 
 Total Blocks : 262144 Invalid Blocks : 1
Heartbeat CPU 3 instructions: 40000003 cycles: 18581247 heartbeat IPC: 2.27249 cumulative IPC: 2.15271 (Simulation time: 18 hr 32 min 44 sec) 
 Total Blocks : 262144 Invalid Blocks : 1
Heartbeat CPU 0 instructions: 40000003 cycles: 18581256 heartbeat IPC: 2.27252 cumulative IPC: 2.15271 (Simulation time: 18 hr 32 min 44 sec) 
 Total Blocks : 262144 Invalid Blocks : 1
Heartbeat CPU 4 instructions: 40000003 cycles: 18581305 heartbeat IPC: 2.2725 cumulative IPC: 2.1527 (Simulation time: 18 hr 32 min 44 sec) 
 Total Blocks : 262144 Invalid Blocks : 1
Heartbeat CPU 6 instructions: 40000003 cycles: 18581322 heartbeat IPC: 2.2725 cumulative IPC: 2.1527 (Simulation time: 18 hr 32 min 44 sec) 
 Total Blocks : 262144 Invalid Blocks : 1
Heartbeat CPU 7 instructions: 40000003 cycles: 18581357 heartbeat IPC: 2.27249 cumulative IPC: 2.1527 (Simulation time: 18 hr 32 min 45 sec) 
 Total Blocks : 262144 Invalid Blocks : 1
Heartbeat CPU 1 instructions: 50000002 cycles: 23686023 heartbeat IPC: 1.95892 cumulative IPC: 2.11095 (Simulation time: 21 hr 3 min 57 sec) 
 Total Blocks : 262144 Invalid Blocks : 0
Heartbeat CPU 2 instructions: 50000002 cycles: 23686054 heartbeat IPC: 1.95893 cumulative IPC: 2.11095 (Simulation time: 21 hr 4 min 0 sec) 
 Total Blocks : 262144 Invalid Blocks : 0
Heartbeat CPU 5 instructions: 50000002 cycles: 23686078 heartbeat IPC: 1.95893 cumulative IPC: 2.11094 (Simulation time: 21 hr 4 min 0 sec) 
 Total Blocks : 262144 Invalid Blocks : 0
Heartbeat CPU 0 instructions: 50000002 cycles: 23686084 heartbeat IPC: 1.95893 cumulative IPC: 2.11094 (Simulation time: 21 hr 4 min 0 sec) 
 Total Blocks : 262144 Invalid Blocks : 0
Heartbeat CPU 3 instructions: 50000002 cycles: 23686086 heartbeat IPC: 1.95893 cumulative IPC: 2.11094 (Simulation time: 21 hr 4 min 0 sec) 
 Total Blocks : 262144 Invalid Blocks : 0
Heartbeat CPU 4 instructions: 50000002 cycles: 23686188 heartbeat IPC: 1.95891 cumulative IPC: 2.11093 (Simulation time: 21 hr 4 min 0 sec) 
 Total Blocks : 262144 Invalid Blocks : 0
Heartbeat CPU 6 instructions: 50000002 cycles: 23686194 heartbeat IPC: 1.95891 cumulative IPC: 2.11093 (Simulation time: 21 hr 4 min 0 sec) 
 Total Blocks : 262144 Invalid Blocks : 0
Heartbeat CPU 7 instructions: 50000002 cycles: 23686201 heartbeat IPC: 1.95892 cumulative IPC: 2.11093 (Simulation time: 21 hr 4 min 0 sec) 
 Total Blocks : 262144 Invalid Blocks : 0
Heartbeat CPU 1 instructions: 60000000 cycles: 28765895 heartbeat IPC: 1.96855 cumulative IPC: 2.0858 (Simulation time: 24 hr 3 min 54 sec) 
 Total Blocks : 262144 Invalid Blocks : 0
Heartbeat CPU 3 instructions: 60000000 cycles: 28765964 heartbeat IPC: 1.96855 cumulative IPC: 2.0858 (Simulation time: 24 hr 3 min 55 sec) 
 Total Blocks : 262144 Invalid Blocks : 0
Heartbeat CPU 5 instructions: 60000000 cycles: 28765971 heartbeat IPC: 1.96854 cumulative IPC: 2.0858 (Simulation time: 24 hr 3 min 55 sec) 
 Total Blocks : 262144 Invalid Blocks : 0
Heartbeat CPU 2 instructions: 60000000 cycles: 28765983 heartbeat IPC: 1.96853 cumulative IPC: 2.0858 (Simulation time: 24 hr 3 min 55 sec) 
 Total Blocks : 262144 Invalid Blocks : 0
Heartbeat CPU 0 instructions: 60000000 cycles: 28765990 heartbeat IPC: 1.96854 cumulative IPC: 2.0858 (Simulation time: 24 hr 3 min 55 sec) 
 Total Blocks : 262144 Invalid Blocks : 0
Heartbeat CPU 4 instructions: 60000000 cycles: 28766022 heartbeat IPC: 1.96857 cumulative IPC: 2.08579 (Simulation time: 24 hr 3 min 55 sec) 
 Total Blocks : 262144 Invalid Blocks : 0
Heartbeat CPU 7 instructions: 60000000 cycles: 28766072 heartbeat IPC: 1.96855 cumulative IPC: 2.08579 (Simulation time: 24 hr 3 min 56 sec) 
 Total Blocks : 262144 Invalid Blocks : 0
Heartbeat CPU 6 instructions: 60000000 cycles: 28766097 heartbeat IPC: 1.96854 cumulative IPC: 2.08579 (Simulation time: 24 hr 3 min 56 sec) 
 Total Blocks : 262144 Invalid Blocks : 0
Heartbeat CPU 1 instructions: 70000000 cycles: 33682468 heartbeat IPC: 2.03394 cumulative IPC: 2.07823 (Simulation time: 26 hr 36 min 28 sec) 
 Total Blocks : 262144 Invalid Blocks : 0
Heartbeat CPU 3 instructions: 70000000 cycles: 33682535 heartbeat IPC: 2.03394 cumulative IPC: 2.07823 (Simulation time: 26 hr 36 min 30 sec) 
 Total Blocks : 262144 Invalid Blocks : 0
Heartbeat CPU 5 instructions: 70000000 cycles: 33682588 heartbeat IPC: 2.03392 cumulative IPC: 2.07823 (Simulation time: 26 hr 36 min 30 sec) 
 Total Blocks : 262144 Invalid Blocks : 0
Heartbeat CPU 0 instructions: 70000000 cycles: 33682598 heartbeat IPC: 2.03392 cumulative IPC: 2.07822 (Simulation time: 26 hr 36 min 30 sec) 
 Total Blocks : 262144 Invalid Blocks : 0
Heartbeat CPU 2 instructions: 70000000 cycles: 33682608 heartbeat IPC: 2.03392 cumulative IPC: 2.07822 (Simulation time: 26 hr 36 min 30 sec) 
 Total Blocks : 262144 Invalid Blocks : 0
Heartbeat CPU 4 instructions: 70000000 cycles: 33682618 heartbeat IPC: 2.03393 cumulative IPC: 2.07822 (Simulation time: 26 hr 36 min 30 sec) 
 Total Blocks : 262144 Invalid Blocks : 0
Heartbeat CPU 7 instructions: 70000000 cycles: 33682632 heartbeat IPC: 2.03394 cumulative IPC: 2.07822 (Simulation time: 26 hr 36 min 30 sec) 
 Total Blocks : 262144 Invalid Blocks : 0
Heartbeat CPU 6 instructions: 70000000 cycles: 33682644 heartbeat IPC: 2.03395 cumulative IPC: 2.07822 (Simulation time: 26 hr 36 min 30 sec) 
 Total Blocks : 262144 Invalid Blocks : 0
Heartbeat CPU 1 instructions: 80000001 cycles: 38632282 heartbeat IPC: 2.02028 cumulative IPC: 2.07081 (Simulation time: 28 hr 32 min 13 sec) 
 Total Blocks : 262144 Invalid Blocks : 0
Heartbeat CPU 3 instructions: 80000001 cycles: 38632329 heartbeat IPC: 2.02029 cumulative IPC: 2.0708 (Simulation time: 28 hr 32 min 16 sec) 
 Total Blocks : 262144 Invalid Blocks : 0
Heartbeat CPU 0 instructions: 80000001 cycles: 38632404 heartbeat IPC: 2.02028 cumulative IPC: 2.0708 (Simulation time: 28 hr 32 min 16 sec) 
 Total Blocks : 262144 Invalid Blocks : 0
Heartbeat CPU 5 instructions: 80000001 cycles: 38632408 heartbeat IPC: 2.02028 cumulative IPC: 2.0708 (Simulation time: 28 hr 32 min 16 sec) 
 Total Blocks : 262144 Invalid Blocks : 0
Heartbeat CPU 2 instructions: 80000001 cycles: 38632419 heartbeat IPC: 2.02028 cumulative IPC: 2.0708 (Simulation time: 28 hr 32 min 16 sec) 
 Total Blocks : 262144 Invalid Blocks : 0
Heartbeat CPU 7 instructions: 80000001 cycles: 38632431 heartbeat IPC: 2.02028 cumulative IPC: 2.0708 (Simulation time: 28 hr 32 min 16 sec) 
 Total Blocks : 262144 Invalid Blocks : 0
Heartbeat CPU 6 instructions: 80000001 cycles: 38632453 heartbeat IPC: 2.02028 cumulative IPC: 2.0708 (Simulation time: 28 hr 32 min 16 sec) 
 Total Blocks : 262144 Invalid Blocks : 0
Heartbeat CPU 4 instructions: 80000001 cycles: 38632455 heartbeat IPC: 2.02027 cumulative IPC: 2.0708 (Simulation time: 28 hr 32 min 16 sec) 
 Total Blocks : 262144 Invalid Blocks : 0
Heartbeat CPU 1 instructions: 90000002 cycles: 43234904 heartbeat IPC: 2.17267 cumulative IPC: 2.08165 (Simulation time: 30 hr 8 min 41 sec) 
 Total Blocks : 262144 Invalid Blocks : 0
Heartbeat CPU 3 instructions: 90000002 cycles: 43234931 heartbeat IPC: 2.17268 cumulative IPC: 2.08165 (Simulation time: 30 hr 8 min 43 sec) 
 Total Blocks : 262144 Invalid Blocks : 0
Heartbeat CPU 7 instructions: 90000002 cycles: 43235050 heartbeat IPC: 2.17268 cumulative IPC: 2.08164 (Simulation time: 30 hr 8 min 43 sec) 
 Total Blocks : 262144 Invalid Blocks : 0
Heartbeat CPU 0 instructions: 90000002 cycles: 43235053 heartbeat IPC: 2.17266 cumulative IPC: 2.08164 (Simulation time: 30 hr 8 min 43 sec) 
 Total Blocks : 262144 Invalid Blocks : 0
Heartbeat CPU 6 instructions: 90000002 cycles: 43235071 heartbeat IPC: 2.17268 cumulative IPC: 2.08164 (Simulation time: 30 hr 8 min 43 sec) 
 Total Blocks : 262144 Invalid Blocks : 0
Heartbeat CPU 5 instructions: 90000002 cycles: 43235089 heartbeat IPC: 2.17265 cumulative IPC: 2.08164 (Simulation time: 30 hr 8 min 43 sec) 
 Total Blocks : 262144 Invalid Blocks : 0
Heartbeat CPU 4 instructions: 90000002 cycles: 43235107 heartbeat IPC: 2.17266 cumulative IPC: 2.08164 (Simulation time: 30 hr 8 min 44 sec) 
 Total Blocks : 262144 Invalid Blocks : 0
Heartbeat CPU 2 instructions: 90000002 cycles: 43235129 heartbeat IPC: 2.17263 cumulative IPC: 2.08164 (Simulation time: 30 hr 8 min 44 sec) 
 Total Blocks : 262144 Invalid Blocks : 0
Heartbeat CPU 3 instructions: 100000000 cycles: 47651564 heartbeat IPC: 2.26417 cumulative IPC: 2.09857 (Simulation time: 31 hr 31 min 18 sec) 
 Total Blocks : 262144 Invalid Blocks : 0
Heartbeat CPU 1 instructions: 100000000 cycles: 47651593 heartbeat IPC: 2.26414 cumulative IPC: 2.09857 (Simulation time: 31 hr 31 min 19 sec) 
 Total Blocks : 262144 Invalid Blocks : 0
Heartbeat CPU 7 instructions: 100000000 cycles: 47651690 heartbeat IPC: 2.26416 cumulative IPC: 2.09856 (Simulation time: 31 hr 31 min 19 sec) 
 Total Blocks : 262144 Invalid Blocks : 0
Heartbeat CPU 6 instructions: 100000000 cycles: 47651792 heartbeat IPC: 2.26412 cumulative IPC: 2.09856 (Simulation time: 31 hr 31 min 19 sec) 
 Total Blocks : 262144 Invalid Blocks : 0
Heartbeat CPU 2 instructions: 100000000 cycles: 47651821 heartbeat IPC: 2.26414 cumulative IPC: 2.09856 (Simulation time: 31 hr 31 min 19 sec) 
 Total Blocks : 262144 Invalid Blocks : 0
Heartbeat CPU 0 instructions: 100000000 cycles: 47651857 heartbeat IPC: 2.26408 cumulative IPC: 2.09855 (Simulation time: 31 hr 31 min 19 sec) 
 Total Blocks : 262144 Invalid Blocks : 0
Heartbeat CPU 4 instructions: 100000000 cycles: 47651863 heartbeat IPC: 2.2641 cumulative IPC: 2.09855 (Simulation time: 31 hr 31 min 19 sec) 
 Total Blocks : 262144 Invalid Blocks : 0
Heartbeat CPU 5 instructions: 100000000 cycles: 47651892 heartbeat IPC: 2.26408 cumulative IPC: 2.09855 (Simulation time: 31 hr 31 min 19 sec) 
 Total Blocks : 262144 Invalid Blocks : 0
Heartbeat CPU 1 instructions: 110000000 cycles: 52800307 heartbeat IPC: 1.94223 cumulative IPC: 2.08332 (Simulation time: 35 hr 9 min 6 sec) 
 Total Blocks : 262144 Invalid Blocks : 0
Heartbeat CPU 3 instructions: 110000000 cycles: 52800322 heartbeat IPC: 1.94222 cumulative IPC: 2.08332 (Simulation time: 35 hr 9 min 7 sec) 
 Total Blocks : 262144 Invalid Blocks : 0
Heartbeat CPU 7 instructions: 110000000 cycles: 52800397 heartbeat IPC: 1.94224 cumulative IPC: 2.08332 (Simulation time: 35 hr 9 min 7 sec) 
 Total Blocks : 262144 Invalid Blocks : 0
Heartbeat CPU 6 instructions: 110000000 cycles: 52800475 heartbeat IPC: 1.94224 cumulative IPC: 2.08331 (Simulation time: 35 hr 9 min 7 sec) 
 Total Blocks : 262144 Invalid Blocks : 0
Heartbeat CPU 2 instructions: 110000000 cycles: 52800556 heartbeat IPC: 1.94222 cumulative IPC: 2.08331 (Simulation time: 35 hr 9 min 8 sec) 
 Total Blocks : 262144 Invalid Blocks : 0
Heartbeat CPU 0 instructions: 110000000 cycles: 52800563 heartbeat IPC: 1.94224 cumulative IPC: 2.08331 (Simulation time: 35 hr 9 min 8 sec) 
 Total Blocks : 262144 Invalid Blocks : 0
Heartbeat CPU 4 instructions: 110000000 cycles: 52800591 heartbeat IPC: 1.94223 cumulative IPC: 2.08331 (Simulation time: 35 hr 9 min 8 sec) 
 Total Blocks : 262144 Invalid Blocks : 0
Heartbeat CPU 5 instructions: 110000000 cycles: 52800607 heartbeat IPC: 1.94223 cumulative IPC: 2.08331 (Simulation time: 35 hr 9 min 8 sec) 
 Total Blocks : 262144 Invalid Blocks : 0
Heartbeat CPU 3 instructions: 120000002 cycles: 57221511 heartbeat IPC: 2.26184 cumulative IPC: 2.09711 (Simulation time: 39 hr 0 min 4 sec) 
 Total Blocks : 262144 Invalid Blocks : 0
Heartbeat CPU 1 instructions: 120000002 cycles: 57221515 heartbeat IPC: 2.26183 cumulative IPC: 2.09711 (Simulation time: 39 hr 0 min 7 sec) 
 Total Blocks : 262144 Invalid Blocks : 0
Heartbeat CPU 6 instructions: 120000002 cycles: 57221647 heartbeat IPC: 2.26184 cumulative IPC: 2.09711 (Simulation time: 39 hr 0 min 8 sec) 
 Total Blocks : 262144 Invalid Blocks : 0
Heartbeat CPU 7 instructions: 120000002 cycles: 57221649 heartbeat IPC: 2.2618 cumulative IPC: 2.09711 (Simulation time: 39 hr 0 min 8 sec) 
 Total Blocks : 262144 Invalid Blocks : 0
Heartbeat CPU 0 instructions: 120000002 cycles: 57221738 heartbeat IPC: 2.26184 cumulative IPC: 2.09711 (Simulation time: 39 hr 0 min 8 sec) 
 Total Blocks : 262144 Invalid Blocks : 0
Heartbeat CPU 4 instructions: 120000002 cycles: 57221765 heartbeat IPC: 2.26184 cumulative IPC: 2.0971 (Simulation time: 39 hr 0 min 8 sec) 
 Total Blocks : 262144 Invalid Blocks : 0
Heartbeat CPU 5 instructions: 120000002 cycles: 57221769 heartbeat IPC: 2.26185 cumulative IPC: 2.0971 (Simulation time: 39 hr 0 min 8 sec) 
 Total Blocks : 262144 Invalid Blocks : 0
Heartbeat CPU 2 instructions: 120000002 cycles: 57221772 heartbeat IPC: 2.26182 cumulative IPC: 2.0971 (Simulation time: 39 hr 0 min 8 sec) 
 Total Blocks : 262144 Invalid Blocks : 0
Heartbeat CPU 3 instructions: 130000000 cycles: 62304509 heartbeat IPC: 1.96734 cumulative IPC: 2.08653 (Simulation time: 40 hr 55 min 24 sec) 
 Total Blocks : 262144 Invalid Blocks : 0
Heartbeat CPU 1 instructions: 130000000 cycles: 62304564 heartbeat IPC: 1.96732 cumulative IPC: 2.08652 (Simulation time: 40 hr 55 min 25 sec) 
 Total Blocks : 262144 Invalid Blocks : 0
Heartbeat CPU 6 instructions: 130000000 cycles: 62304690 heartbeat IPC: 1.96733 cumulative IPC: 2.08652 (Simulation time: 40 hr 55 min 26 sec) 
 Total Blocks : 262144 Invalid Blocks : 0
Heartbeat CPU 7 instructions: 130000000 cycles: 62304700 heartbeat IPC: 1.96732 cumulative IPC: 2.08652 (Simulation time: 40 hr 55 min 26 sec) 
 Total Blocks : 262144 Invalid Blocks : 0
Heartbeat CPU 0 instructions: 130000000 cycles: 62304783 heartbeat IPC: 1.96732 cumulative IPC: 2.08652 (Simulation time: 40 hr 55 min 26 sec) 
 Total Blocks : 262144 Invalid Blocks : 0
Heartbeat CPU 5 instructions: 130000000 cycles: 62304810 heartbeat IPC: 1.96733 cumulative IPC: 2.08652 (Simulation time: 40 hr 55 min 26 sec) 
 Total Blocks : 262144 Invalid Blocks : 0
Heartbeat CPU 2 instructions: 130000000 cycles: 62304816 heartbeat IPC: 1.96732 cumulative IPC: 2.08652 (Simulation time: 40 hr 55 min 26 sec) 
 Total Blocks : 262144 Invalid Blocks : 0
Heartbeat CPU 4 instructions: 130000000 cycles: 62304863 heartbeat IPC: 1.9673 cumulative IPC: 2.08651 (Simulation time: 40 hr 55 min 26 sec) 
 Total Blocks : 262144 Invalid Blocks : 0
Heartbeat CPU 3 instructions: 140000002 cycles: 67350658 heartbeat IPC: 1.98171 cumulative IPC: 2.07867 (Simulation time: 43 hr 6 min 32 sec) 
 Total Blocks : 262144 Invalid Blocks : 0
Heartbeat CPU 1 instructions: 140000002 cycles: 67350744 heartbeat IPC: 1.9817 cumulative IPC: 2.07867 (Simulation time: 43 hr 6 min 34 sec) 
 Total Blocks : 262144 Invalid Blocks : 0
Heartbeat CPU 6 instructions: 140000002 cycles: 67350799 heartbeat IPC: 1.98173 cumulative IPC: 2.07867 (Simulation time: 43 hr 6 min 34 sec) 
 Total Blocks : 262144 Invalid Blocks : 0
Heartbeat CPU 7 instructions: 140000002 cycles: 67350916 heartbeat IPC: 1.98168 cumulative IPC: 2.07867 (Simulation time: 43 hr 6 min 34 sec) 
 Total Blocks : 262144 Invalid Blocks : 0
Heartbeat CPU 0 instructions: 140000002 cycles: 67350940 heartbeat IPC: 1.98171 cumulative IPC: 2.07866 (Simulation time: 43 hr 6 min 34 sec) 
 Total Blocks : 262144 Invalid Blocks : 0
Heartbeat CPU 5 instructions: 140000002 cycles: 67350986 heartbeat IPC: 1.9817 cumulative IPC: 2.07866 (Simulation time: 43 hr 6 min 34 sec) 
 Total Blocks : 262144 Invalid Blocks : 0
Heartbeat CPU 2 instructions: 140000002 cycles: 67351011 heartbeat IPC: 1.98169 cumulative IPC: 2.07866 (Simulation time: 43 hr 6 min 34 sec) 
 Total Blocks : 262144 Invalid Blocks : 0
Heartbeat CPU 4 instructions: 140000002 cycles: 67351016 heartbeat IPC: 1.98171 cumulative IPC: 2.07866 (Simulation time: 43 hr 6 min 34 sec) 
 Total Blocks : 262144 Invalid Blocks : 0
Heartbeat CPU 3 instructions: 150000003 cycles: 72295390 heartbeat IPC: 2.02235 cumulative IPC: 2.07482 (Simulation time: 44 hr 41 min 50 sec) 
 Total Blocks : 262144 Invalid Blocks : 0
Heartbeat CPU 1 instructions: 150000003 cycles: 72295490 heartbeat IPC: 2.02235 cumulative IPC: 2.07482 (Simulation time: 44 hr 41 min 52 sec) 
 Total Blocks : 262144 Invalid Blocks : 0
Heartbeat CPU 6 instructions: 150000003 cycles: 72295500 heartbeat IPC: 2.02237 cumulative IPC: 2.07482 (Simulation time: 44 hr 41 min 52 sec) 
 Total Blocks : 262144 Invalid Blocks : 0
Heartbeat CPU 7 instructions: 150000003 cycles: 72295651 heartbeat IPC: 2.02235 cumulative IPC: 2.07481 (Simulation time: 44 hr 41 min 52 sec) 
 Total Blocks : 262144 Invalid Blocks : 0
Heartbeat CPU 0 instructions: 150000003 cycles: 72295684 heartbeat IPC: 2.02235 cumulative IPC: 2.07481 (Simulation time: 44 hr 41 min 52 sec) 
 Total Blocks : 262144 Invalid Blocks : 0
Heartbeat CPU 4 instructions: 150000003 cycles: 72295728 heartbeat IPC: 2.02236 cumulative IPC: 2.07481 (Simulation time: 44 hr 41 min 52 sec) 
 Total Blocks : 262144 Invalid Blocks : 0
Heartbeat CPU 5 instructions: 150000003 cycles: 72295740 heartbeat IPC: 2.02235 cumulative IPC: 2.07481 (Simulation time: 44 hr 41 min 52 sec) 
 Total Blocks : 262144 Invalid Blocks : 0
Heartbeat CPU 2 instructions: 150000003 cycles: 72295796 heartbeat IPC: 2.02233 cumulative IPC: 2.07481 (Simulation time: 44 hr 41 min 52 sec) 
 Total Blocks : 262144 Invalid Blocks : 0
Heartbeat CPU 3 instructions: 160000001 cycles: 77237227 heartbeat IPC: 2.02354 cumulative IPC: 2.07154 (Simulation time: 46 hr 8 min 45 sec) 
 Total Blocks : 262144 Invalid Blocks : 0
Heartbeat CPU 1 instructions: 160000001 cycles: 77237321 heartbeat IPC: 2.02354 cumulative IPC: 2.07154 (Simulation time: 46 hr 8 min 46 sec) 
 Total Blocks : 262144 Invalid Blocks : 0
Heartbeat CPU 6 instructions: 160000001 cycles: 77237339 heartbeat IPC: 2.02354 cumulative IPC: 2.07154 (Simulation time: 46 hr 8 min 47 sec) 
 Total Blocks : 262144 Invalid Blocks : 0
Heartbeat CPU 7 instructions: 160000001 cycles: 77237462 heartbeat IPC: 2.02355 cumulative IPC: 2.07153 (Simulation time: 46 hr 8 min 47 sec) 
 Total Blocks : 262144 Invalid Blocks : 0
Heartbeat CPU 0 instructions: 160000001 cycles: 77237510 heartbeat IPC: 2.02354 cumulative IPC: 2.07153 (Simulation time: 46 hr 8 min 47 sec) 
 Total Blocks : 262144 Invalid Blocks : 0
Heartbeat CPU 4 instructions: 160000001 cycles: 77237543 heartbeat IPC: 2.02355 cumulative IPC: 2.07153 (Simulation time: 46 hr 8 min 47 sec) 
 Total Blocks : 262144 Invalid Blocks : 0
Heartbeat CPU 5 instructions: 160000001 cycles: 77237573 heartbeat IPC: 2.02354 cumulative IPC: 2.07153 (Simulation time: 46 hr 8 min 47 sec) 
 Total Blocks : 262144 Invalid Blocks : 0
Heartbeat CPU 2 instructions: 160000001 cycles: 77237616 heartbeat IPC: 2.02355 cumulative IPC: 2.07153 (Simulation time: 46 hr 8 min 47 sec) 
 Total Blocks : 262144 Invalid Blocks : 0
Heartbeat CPU 3 instructions: 170000002 cycles: 81861050 heartbeat IPC: 2.16271 cumulative IPC: 2.07669 (Simulation time: 47 hr 12 min 33 sec) 
 Total Blocks : 262144 Invalid Blocks : 0
Heartbeat CPU 1 instructions: 170000002 cycles: 81861075 heartbeat IPC: 2.16274 cumulative IPC: 2.07669 (Simulation time: 47 hr 12 min 34 sec) 
 Total Blocks : 262144 Invalid Blocks : 0
Heartbeat CPU 6 instructions: 170000002 cycles: 81861188 heartbeat IPC: 2.1627 cumulative IPC: 2.07669 (Simulation time: 47 hr 12 min 34 sec) 
 Total Blocks : 262144 Invalid Blocks : 0
Heartbeat CPU 5 instructions: 170000002 cycles: 81861293 heartbeat IPC: 2.16276 cumulative IPC: 2.07668 (Simulation time: 47 hr 12 min 34 sec) 
 Total Blocks : 262144 Invalid Blocks : 0
Heartbeat CPU 0 instructions: 170000002 cycles: 81861302 heartbeat IPC: 2.16273 cumulative IPC: 2.07668 (Simulation time: 47 hr 12 min 34 sec) 
 Total Blocks : 262144 Invalid Blocks : 0
Heartbeat CPU 7 instructions: 170000002 cycles: 81861319 heartbeat IPC: 2.1627 cumulative IPC: 2.07668 (Simulation time: 47 hr 12 min 34 sec) 
 Total Blocks : 262144 Invalid Blocks : 0
Heartbeat CPU 2 instructions: 170000002 cycles: 81861383 heartbeat IPC: 2.16274 cumulative IPC: 2.07668 (Simulation time: 47 hr 12 min 34 sec) 
 Total Blocks : 262144 Invalid Blocks : 0
Heartbeat CPU 4 instructions: 170000002 cycles: 81861463 heartbeat IPC: 2.16267 cumulative IPC: 2.07668 (Simulation time: 47 hr 12 min 34 sec) 
 Total Blocks : 262144 Invalid Blocks : 0
Heartbeat CPU 1 instructions: 180000002 cycles: 86244337 heartbeat IPC: 2.28141 cumulative IPC: 2.08709 (Simulation time: 48 hr 9 min 25 sec) 
 Total Blocks : 262144 Invalid Blocks : 0
Heartbeat CPU 3 instructions: 180000002 cycles: 86244365 heartbeat IPC: 2.28138 cumulative IPC: 2.08709 (Simulation time: 48 hr 9 min 26 sec) 
 Total Blocks : 262144 Invalid Blocks : 0
Heartbeat CPU 6 instructions: 180000002 cycles: 86244465 heartbeat IPC: 2.2814 cumulative IPC: 2.08709 (Simulation time: 48 hr 9 min 26 sec) 
 Total Blocks : 262144 Invalid Blocks : 0
Heartbeat CPU 5 instructions: 180000002 cycles: 86244582 heartbeat IPC: 2.28139 cumulative IPC: 2.08709 (Simulation time: 48 hr 9 min 27 sec) 
 Total Blocks : 262144 Invalid Blocks : 0
Heartbeat CPU 0 instructions: 180000002 cycles: 86244584 heartbeat IPC: 2.2814 cumulative IPC: 2.08709 (Simulation time: 48 hr 9 min 27 sec) 
 Total Blocks : 262144 Invalid Blocks : 0
Heartbeat CPU 7 instructions: 180000002 cycles: 86244611 heartbeat IPC: 2.28139 cumulative IPC: 2.08709 (Simulation time: 48 hr 9 min 27 sec) 
 Total Blocks : 262144 Invalid Blocks : 0
Heartbeat CPU 2 instructions: 180000002 cycles: 86244684 heartbeat IPC: 2.28139 cumulative IPC: 2.08709 (Simulation time: 48 hr 9 min 27 sec) 
 Total Blocks : 262144 Invalid Blocks : 0
Heartbeat CPU 4 instructions: 180000002 cycles: 86244712 heartbeat IPC: 2.28141 cumulative IPC: 2.08708 (Simulation time: 48 hr 9 min 27 sec) 
 Total Blocks : 262144 Invalid Blocks : 0
Heartbeat CPU 1 instructions: 190000001 cycles: 91399603 heartbeat IPC: 1.93976 cumulative IPC: 2.07878 (Simulation time: 51 hr 18 min 16 sec) 
 Total Blocks : 262144 Invalid Blocks : 0
Heartbeat CPU 3 instructions: 190000001 cycles: 91399679 heartbeat IPC: 1.93975 cumulative IPC: 2.07878 (Simulation time: 51 hr 18 min 17 sec) 
 Total Blocks : 262144 Invalid Blocks : 0
Heartbeat CPU 6 instructions: 190000001 cycles: 91399726 heartbeat IPC: 1.93977 cumulative IPC: 2.07878 (Simulation time: 51 hr 18 min 17 sec) 
 Total Blocks : 262144 Invalid Blocks : 0
Heartbeat CPU 5 instructions: 190000001 cycles: 91399797 heartbeat IPC: 1.93978 cumulative IPC: 2.07878 (Simulation time: 51 hr 18 min 17 sec) 
 Total Blocks : 262144 Invalid Blocks : 0
Heartbeat CPU 0 instructions: 190000001 cycles: 91399837 heartbeat IPC: 1.93977 cumulative IPC: 2.07878 (Simulation time: 51 hr 18 min 17 sec) 
 Total Blocks : 262144 Invalid Blocks : 0
Heartbeat CPU 7 instructions: 190000001 cycles: 91399878 heartbeat IPC: 1.93976 cumulative IPC: 2.07878 (Simulation time: 51 hr 18 min 17 sec) 
 Total Blocks : 262144 Invalid Blocks : 0
Heartbeat CPU 2 instructions: 190000001 cycles: 91399932 heartbeat IPC: 1.93977 cumulative IPC: 2.07878 (Simulation time: 51 hr 18 min 17 sec) 
 Total Blocks : 262144 Invalid Blocks : 0
Heartbeat CPU 4 instructions: 190000001 cycles: 91399972 heartbeat IPC: 1.93977 cumulative IPC: 2.07878 (Simulation time: 51 hr 18 min 17 sec) 
 Total Blocks : 262144 Invalid Blocks : 0
Heartbeat CPU 1 instructions: 200000000 cycles: 95843802 heartbeat IPC: 2.25012 cumulative IPC: 2.08673 (Simulation time: 55 hr 7 min 42 sec) 
 Total Blocks : 262144 Invalid Blocks : 0
Heartbeat CPU 3 instructions: 200000000 cycles: 95843872 heartbeat IPC: 2.25013 cumulative IPC: 2.08673 (Simulation time: 55 hr 7 min 43 sec) 
 Total Blocks : 262144 Invalid Blocks : 0
Heartbeat CPU 6 instructions: 200000000 cycles: 95843926 heartbeat IPC: 2.25012 cumulative IPC: 2.08673 (Simulation time: 55 hr 7 min 43 sec) 
 Total Blocks : 262144 Invalid Blocks : 0
Heartbeat CPU 0 instructions: 200000000 cycles: 95844026 heartbeat IPC: 2.25013 cumulative IPC: 2.08672 (Simulation time: 55 hr 7 min 43 sec) 
 Total Blocks : 262144 Invalid Blocks : 0
Heartbeat CPU 5 instructions: 200000000 cycles: 95844049 heartbeat IPC: 2.2501 cumulative IPC: 2.08672 (Simulation time: 55 hr 7 min 44 sec) 
 Total Blocks : 262144 Invalid Blocks : 0
Heartbeat CPU 7 instructions: 200000000 cycles: 95844076 heartbeat IPC: 2.25012 cumulative IPC: 2.08672 (Simulation time: 55 hr 7 min 44 sec) 
 Total Blocks : 262144 Invalid Blocks : 0
Heartbeat CPU 2 instructions: 200000000 cycles: 95844077 heartbeat IPC: 2.25015 cumulative IPC: 2.08672 (Simulation time: 55 hr 7 min 44 sec) 
 Total Blocks : 262144 Invalid Blocks : 0
Heartbeat CPU 4 instructions: 200000000 cycles: 95844131 heartbeat IPC: 2.25014 cumulative IPC: 2.08672 (Simulation time: 55 hr 7 min 44 sec) 
 Total Blocks : 262144 Invalid Blocks : 0

Warmup complete CPU 0 instructions: 200000227 cycles: 95844132 (Simulation time: 55 hr 7 min 44 sec) 
Warmup complete CPU 1 instructions: 200000676 cycles: 95844132 (Simulation time: 55 hr 7 min 44 sec) 
Warmup complete CPU 2 instructions: 200000078 cycles: 95844132 (Simulation time: 55 hr 7 min 44 sec) 
Warmup complete CPU 3 instructions: 200000568 cycles: 95844132 (Simulation time: 55 hr 7 min 44 sec) 
Warmup complete CPU 4 instructions: 200000004 cycles: 95844132 (Simulation time: 55 hr 7 min 44 sec) 
Warmup complete CPU 5 instructions: 200000153 cycles: 95844131 (Simulation time: 55 hr 7 min 44 sec) 
Warmup complete CPU 6 instructions: 200000419 cycles: 95844131 (Simulation time: 55 hr 7 min 44 sec) 
Warmup complete CPU 7 instructions: 200000078 cycles: 95844131 (Simulation time: 55 hr 7 min 44 sec) 

Heartbeat CPU 5 instructions: 210000002 cycles: 119799515 heartbeat IPC: 0.417441 cumulative IPC: 0.417436 (Simulation time: 56 hr 52 min 29 sec) 
 Total Blocks : 262144 Invalid Blocks : 0
Heartbeat CPU 6 instructions: 210000002 cycles: 119815804 heartbeat IPC: 0.417156 cumulative IPC: 0.417142 (Simulation time: 56 hr 52 min 32 sec) 
 Total Blocks : 262144 Invalid Blocks : 0
Heartbeat CPU 4 instructions: 210000002 cycles: 119826734 heartbeat IPC: 0.416969 cumulative IPC: 0.416969 (Simulation time: 56 hr 52 min 34 sec) 
 Total Blocks : 262144 Invalid Blocks : 0
Heartbeat CPU 0 instructions: 210000002 cycles: 120074661 heartbeat IPC: 0.412701 cumulative IPC: 0.412693 (Simulation time: 56 hr 53 min 25 sec) 
 Total Blocks : 262144 Invalid Blocks : 0
Heartbeat CPU 1 instructions: 210000002 cycles: 120122907 heartbeat IPC: 0.411877 cumulative IPC: 0.411855 (Simulation time: 56 hr 53 min 34 sec) 
 Total Blocks : 262144 Invalid Blocks : 0
Heartbeat CPU 2 instructions: 210000002 cycles: 120130017 heartbeat IPC: 0.411761 cumulative IPC: 0.411759 (Simulation time: 56 hr 53 min 36 sec) 
 Total Blocks : 262144 Invalid Blocks : 0
Heartbeat CPU 3 instructions: 210000002 cycles: 120292349 heartbeat IPC: 0.409024 cumulative IPC: 0.409005 (Simulation time: 56 hr 54 min 21 sec) 
 Total Blocks : 262144 Invalid Blocks : 0
Heartbeat CPU 7 instructions: 210000002 cycles: 120317774 heartbeat IPC: 0.408602 cumulative IPC: 0.4086 (Simulation time: 56 hr 54 min 27 sec) 
 Total Blocks : 262144 Invalid Blocks : 0
Heartbeat CPU 5 instructions: 220000000 cycles: 148922406 heartbeat IPC: 0.343372 cumulative IPC: 0.376799 (Simulation time: 59 hr 1 min 45 sec) 
 Total Blocks : 262144 Invalid Blocks : 0
Heartbeat CPU 1 instructions: 220000000 cycles: 148928052 heartbeat IPC: 0.34716 cumulative IPC: 0.376749 (Simulation time: 59 hr 1 min 56 sec) 
 Total Blocks : 262144 Invalid Blocks : 0
Heartbeat CPU 0 instructions: 220000000 cycles: 149026925 heartbeat IPC: 0.345396 cumulative IPC: 0.376057 (Simulation time: 59 hr 2 min 27 sec) 
 Total Blocks : 262144 Invalid Blocks : 0
Heartbeat CPU 6 instructions: 220000000 cycles: 149031427 heartbeat IPC: 0.342283 cumulative IPC: 0.376022 (Simulation time: 59 hr 2 min 29 sec) 
 Total Blocks : 262144 Invalid Blocks : 0
Heartbeat CPU 4 instructions: 220000000 cycles: 149092882 heartbeat IPC: 0.341692 cumulative IPC: 0.375596 (Simulation time: 59 hr 2 min 38 sec) 
 Total Blocks : 262144 Invalid Blocks : 0
Heartbeat CPU 2 instructions: 220000000 cycles: 149116862 heartbeat IPC: 0.344984 cumulative IPC: 0.375425 (Simulation time: 59 hr 2 min 43 sec) 
 Total Blocks : 262144 Invalid Blocks : 0
Heartbeat CPU 3 instructions: 220000000 cycles: 149191689 heartbeat IPC: 0.346029 cumulative IPC: 0.374889 (Simulation time: 59 hr 2 min 56 sec) 
 Total Blocks : 262144 Invalid Blocks : 0
Heartbeat CPU 7 instructions: 220000000 cycles: 149600985 heartbeat IPC: 0.341493 cumulative IPC: 0.372044 (Simulation time: 59 hr 4 min 33 sec) 
 Total Blocks : 262144 Invalid Blocks : 0
Heartbeat CPU 0 instructions: 230000003 cycles: 175944673 heartbeat IPC: 0.371502 cumulative IPC: 0.374527 (Simulation time: 60 hr 23 min 40 sec) 
 Total Blocks : 262144 Invalid Blocks : 0
Heartbeat CPU 1 instructions: 230000003 cycles: 175983252 heartbeat IPC: 0.369615 cumulative IPC: 0.374341 (Simulation time: 60 hr 23 min 45 sec) 
 Total Blocks : 262144 Invalid Blocks : 0
Heartbeat CPU 5 instructions: 230000003 cycles: 175998683 heartbeat IPC: 0.369327 cumulative IPC: 0.374275 (Simulation time: 60 hr 23 min 47 sec) 
 Total Blocks : 262144 Invalid Blocks : 0
Heartbeat CPU 6 instructions: 230000001 cycles: 176269702 heartbeat IPC: 0.36713 cumulative IPC: 0.37301 (Simulation time: 60 hr 24 min 40 sec) 
 Total Blocks : 262144 Invalid Blocks : 0
Heartbeat CPU 2 instructions: 230000001 cycles: 176276284 heartbeat IPC: 0.368196 cumulative IPC: 0.372984 (Simulation time: 60 hr 24 min 42 sec) 
 Total Blocks : 262144 Invalid Blocks : 0
Heartbeat CPU 4 instructions: 230000001 cycles: 176303139 heartbeat IPC: 0.367509 cumulative IPC: 0.372861 (Simulation time: 60 hr 24 min 45 sec) 
 Total Blocks : 262144 Invalid Blocks : 0
Heartbeat CPU 3 instructions: 230000001 cycles: 177337189 heartbeat IPC: 0.355297 cumulative IPC: 0.368123 (Simulation time: 60 hr 27 min 40 sec) 
 Total Blocks : 262144 Invalid Blocks : 0
Heartbeat CPU 7 instructions: 230000003 cycles: 177804525 heartbeat IPC: 0.354566 cumulative IPC: 0.36603 (Simulation time: 60 hr 29 min 2 sec) 
 Total Blocks : 262144 Invalid Blocks : 0
Heartbeat CPU 1 instructions: 240000003 cycles: 196245421 heartbeat IPC: 0.493531 cumulative IPC: 0.398395 (Simulation time: 61 hr 30 min 18 sec) 
 Total Blocks : 262144 Invalid Blocks : 0
Heartbeat CPU 0 instructions: 240000003 cycles: 196393268 heartbeat IPC: 0.489031 cumulative IPC: 0.397813 (Simulation time: 61 hr 30 min 39 sec) 
 Total Blocks : 262144 Invalid Blocks : 0
Heartbeat CPU 5 instructions: 240000003 cycles: 196535360 heartbeat IPC: 0.486934 cumulative IPC: 0.397253 (Simulation time: 61 hr 31 min 0 sec) 
 Total Blocks : 262144 Invalid Blocks : 0
Heartbeat CPU 2 instructions: 240000003 cycles: 196650675 heartbeat IPC: 0.490812 cumulative IPC: 0.396799 (Simulation time: 61 hr 31 min 14 sec) 
 Total Blocks : 262144 Invalid Blocks : 0
Heartbeat CPU 4 instructions: 240000003 cycles: 196756300 heartbeat IPC: 0.488922 cumulative IPC: 0.396384 (Simulation time: 61 hr 31 min 40 sec) 
 Total Blocks : 262144 Invalid Blocks : 0
Heartbeat CPU 6 instructions: 240000003 cycles: 197066847 heartbeat IPC: 0.480835 cumulative IPC: 0.395164 (Simulation time: 61 hr 32 min 28 sec) 
 Total Blocks : 262144 Invalid Blocks : 0
Heartbeat CPU 3 instructions: 240000003 cycles: 198370494 heartbeat IPC: 0.475437 cumulative IPC: 0.390138 (Simulation time: 61 hr 36 min 2 sec) 
 Total Blocks : 262144 Invalid Blocks : 0
Heartbeat CPU 7 instructions: 240000003 cycles: 198770148 heartbeat IPC: 0.476971 cumulative IPC: 0.388628 (Simulation time: 61 hr 37 min 9 sec) 
 Total Blocks : 262144 Invalid Blocks : 0
Heartbeat CPU 1 instructions: 250000000 cycles: 219197762 heartbeat IPC: 0.435685 cumulative IPC: 0.405333 (Simulation time: 62 hr 33 min 13 sec) 
 Total Blocks : 262144 Invalid Blocks : 0
Heartbeat CPU 0 instructions: 250000000 cycles: 219272228 heartbeat IPC: 0.437083 cumulative IPC: 0.405092 (Simulation time: 62 hr 33 min 26 sec) 
 Total Blocks : 262144 Invalid Blocks : 0
Heartbeat CPU 5 instructions: 250000000 cycles: 219446848 heartbeat IPC: 0.436462 cumulative IPC: 0.404521 (Simulation time: 62 hr 34 min 0 sec) 
 Total Blocks : 262144 Invalid Blocks : 0
Heartbeat CPU 2 instructions: 250000000 cycles: 219650595 heartbeat IPC: 0.434784 cumulative IPC: 0.403856 (Simulation time: 62 hr 34 min 56 sec) 
 Total Blocks : 262144 Invalid Blocks : 0
Heartbeat CPU 4 instructions: 250000000 cycles: 219755495 heartbeat IPC: 0.434798 cumulative IPC: 0.403514 (Simulation time: 62 hr 35 min 15 sec) 
 Total Blocks : 262144 Invalid Blocks : 0
Heartbeat CPU 6 instructions: 250000000 cycles: 220015068 heartbeat IPC: 0.435764 cumulative IPC: 0.402667 (Simulation time: 62 hr 36 min 5 sec) 
 Total Blocks : 262144 Invalid Blocks : 0
Heartbeat CPU 3 instructions: 250000000 cycles: 221045490 heartbeat IPC: 0.441014 cumulative IPC: 0.399352 (Simulation time: 62 hr 39 min 50 sec) 
 Total Blocks : 262144 Invalid Blocks : 0
Heartbeat CPU 7 instructions: 250000000 cycles: 221454487 heartbeat IPC: 0.440833 cumulative IPC: 0.398056 (Simulation time: 62 hr 41 min 24 sec) 
 Total Blocks : 262144 Invalid Blocks : 0
Heartbeat CPU 1 instructions: 260000003 cycles: 234849132 heartbeat IPC: 0.638922 cumulative IPC: 0.431634 (Simulation time: 63 hr 24 min 54 sec) 
 Total Blocks : 262144 Invalid Blocks : 0
Heartbeat CPU 0 instructions: 260000001 cycles: 234878778 heartbeat IPC: 0.640757 cumulative IPC: 0.431545 (Simulation time: 63 hr 24 min 57 sec) 
 Total Blocks : 262144 Invalid Blocks : 0
Heartbeat CPU 5 instructions: 260000003 cycles: 235100777 heartbeat IPC: 0.638817 cumulative IPC: 0.430858 (Simulation time: 63 hr 25 min 30 sec) 
 Total Blocks : 262144 Invalid Blocks : 0
Heartbeat CPU 2 instructions: 260000003 cycles: 235280915 heartbeat IPC: 0.639782 cumulative IPC: 0.430302 (Simulation time: 63 hr 26 min 0 sec) 
 Total Blocks : 262144 Invalid Blocks : 0
Heartbeat CPU 4 instructions: 260000001 cycles: 235450364 heartbeat IPC: 0.637151 cumulative IPC: 0.42978 (Simulation time: 63 hr 26 min 19 sec) 
 Total Blocks : 262144 Invalid Blocks : 0
Heartbeat CPU 6 instructions: 260000001 cycles: 235644483 heartbeat IPC: 0.639819 cumulative IPC: 0.42918 (Simulation time: 63 hr 26 min 40 sec) 
 Total Blocks : 262144 Invalid Blocks : 0
Heartbeat CPU 3 instructions: 260000001 cycles: 236650258 heartbeat IPC: 0.64083 cumulative IPC: 0.426114 (Simulation time: 63 hr 28 min 50 sec) 
 Total Blocks : 262144 Invalid Blocks : 0
Heartbeat CPU 7 instructions: 260000003 cycles: 237138714 heartbeat IPC: 0.637583 cumulative IPC: 0.424644 (Simulation time: 63 hr 29 min 50 sec) 
 Total Blocks : 262144 Invalid Blocks : 0
Heartbeat CPU 1 instructions: 270000000 cycles: 269862467 heartbeat IPC: 0.285605 cumulative IPC: 0.402253 (Simulation time: 65 hr 57 min 15 sec) 
 Total Blocks : 262144 Invalid Blocks : 0
Heartbeat CPU 0 instructions: 270000000 cycles: 269877271 heartbeat IPC: 0.285727 cumulative IPC: 0.402221 (Simulation time: 65 hr 57 min 22 sec) 
 Total Blocks : 262144 Invalid Blocks : 0
Heartbeat CPU 5 instructions: 270000000 cycles: 270614448 heartbeat IPC: 0.281582 cumulative IPC: 0.400525 (Simulation time: 66 hr 3 min 8 sec) 
 Total Blocks : 262144 Invalid Blocks : 0
Heartbeat CPU 2 instructions: 270000000 cycles: 270733928 heartbeat IPC: 0.282063 cumulative IPC: 0.400252 (Simulation time: 66 hr 4 min 9 sec) 
 Total Blocks : 262144 Invalid Blocks : 0
Heartbeat CPU 4 instructions: 270000000 cycles: 271312729 heartbeat IPC: 0.278844 cumulative IPC: 0.398932 (Simulation time: 66 hr 8 min 43 sec) 
 Total Blocks : 262144 Invalid Blocks : 0
Heartbeat CPU 6 instructions: 270000000 cycles: 271376787 heartbeat IPC: 0.279859 cumulative IPC: 0.398784 (Simulation time: 66 hr 9 min 16 sec) 
 Total Blocks : 262144 Invalid Blocks : 0
Heartbeat CPU 3 instructions: 270000000 cycles: 273010655 heartbeat IPC: 0.275024 cumulative IPC: 0.395105 (Simulation time: 66 hr 22 min 5 sec) 
 Total Blocks : 262144 Invalid Blocks : 0
Heartbeat CPU 7 instructions: 270000000 cycles: 273923698 heartbeat IPC: 0.27185 cumulative IPC: 0.393082 (Simulation time: 66 hr 29 min 30 sec) 
 Total Blocks : 262144 Invalid Blocks : 0
Heartbeat CPU 0 instructions: 280000003 cycles: 304838337 heartbeat IPC: 0.286033 cumulative IPC: 0.382785 (Simulation time: 69 hr 51 min 25 sec) 
 Total Blocks : 262144 Invalid Blocks : 0
Heartbeat CPU 1 instructions: 280000001 cycles: 305038679 heartbeat IPC: 0.284283 cumulative IPC: 0.382416 (Simulation time: 69 hr 52 min 13 sec) 
 Total Blocks : 262144 Invalid Blocks : 0
Heartbeat CPU 5 instructions: 280000001 cycles: 305602752 heartbeat IPC: 0.28581 cumulative IPC: 0.38139 (Simulation time: 69 hr 54 min 42 sec) 
 Total Blocks : 262144 Invalid Blocks : 0
Heartbeat CPU 2 instructions: 280000001 cycles: 305655134 heartbeat IPC: 0.286359 cumulative IPC: 0.381295 (Simulation time: 69 hr 54 min 56 sec) 
 Total Blocks : 262144 Invalid Blocks : 0
Heartbeat CPU 6 instructions: 280000001 cycles: 306513958 heartbeat IPC: 0.284599 cumulative IPC: 0.379739 (Simulation time: 69 hr 58 min 30 sec) 
 Total Blocks : 262144 Invalid Blocks : 0
Heartbeat CPU 4 instructions: 280000002 cycles: 306515039 heartbeat IPC: 0.284072 cumulative IPC: 0.379739 (Simulation time: 69 hr 58 min 31 sec) 
 Total Blocks : 262144 Invalid Blocks : 0
Heartbeat CPU 3 instructions: 280000002 cycles: 308220993 heartbeat IPC: 0.284008 cumulative IPC: 0.376686 (Simulation time: 70 hr 5 min 14 sec) 
 Total Blocks : 262144 Invalid Blocks : 0
Heartbeat CPU 7 instructions: 280000001 cycles: 309365043 heartbeat IPC: 0.282156 cumulative IPC: 0.37467 (Simulation time: 70 hr 9 min 59 sec) 
 Total Blocks : 262144 Invalid Blocks : 0
Heartbeat CPU 0 instructions: 290000002 cycles: 331146759 heartbeat IPC: 0.380106 cumulative IPC: 0.382485 (Simulation time: 71 hr 12 min 31 sec) 
 Total Blocks : 262144 Invalid Blocks : 0
Heartbeat CPU 1 instructions: 290000002 cycles: 331313022 heartbeat IPC: 0.380599 cumulative IPC: 0.382213 (Simulation time: 71 hr 12 min 54 sec) 
 Total Blocks : 262144 Invalid Blocks : 0
Heartbeat CPU 5 instructions: 290000002 cycles: 331660049 heartbeat IPC: 0.38377 cumulative IPC: 0.381653 (Simulation time: 71 hr 13 min 42 sec) 
 Total Blocks : 262144 Invalid Blocks : 0
Heartbeat CPU 2 instructions: 290000000 cycles: 331756987 heartbeat IPC: 0.383115 cumulative IPC: 0.381496 (Simulation time: 71 hr 13 min 56 sec) 
 Total Blocks : 262144 Invalid Blocks : 0
Heartbeat CPU 4 instructions: 290000002 cycles: 332260143 heartbeat IPC: 0.388423 cumulative IPC: 0.380685 (Simulation time: 71 hr 15 min 6 sec) 
 Total Blocks : 262144 Invalid Blocks : 0
Heartbeat CPU 6 instructions: 290000000 cycles: 332343583 heartbeat IPC: 0.387152 cumulative IPC: 0.380549 (Simulation time: 71 hr 15 min 18 sec) 
 Total Blocks : 262144 Invalid Blocks : 0
Heartbeat CPU 3 instructions: 290000000 cycles: 333461514 heartbeat IPC: 0.396188 cumulative IPC: 0.378758 (Simulation time: 71 hr 18 min 3 sec) 
 Total Blocks : 262144 Invalid Blocks : 0
Heartbeat CPU 7 instructions: 290000000 cycles: 334292548 heartbeat IPC: 0.401163 cumulative IPC: 0.37744 (Simulation time: 71 hr 20 min 7 sec) 
 Total Blocks : 262144 Invalid Blocks : 0
Heartbeat CPU 1 instructions: 300000000 cycles: 360862927 heartbeat IPC: 0.33841 cumulative IPC: 0.377329 (Simulation time: 72 hr 52 min 13 sec) 
 Total Blocks : 262144 Invalid Blocks : 0
Heartbeat CPU 0 instructions: 300000000 cycles: 360868980 heartbeat IPC: 0.336449 cumulative IPC: 0.377322 (Simulation time: 72 hr 52 min 18 sec) 
 Total Blocks : 262144 Invalid Blocks : 0
Heartbeat CPU 2 instructions: 300000000 cycles: 361333983 heartbeat IPC: 0.338101 cumulative IPC: 0.376662 (Simulation time: 72 hr 53 min 20 sec) 
 Total Blocks : 262144 Invalid Blocks : 0
Heartbeat CPU 5 instructions: 300000000 cycles: 361451050 heartbeat IPC: 0.335672 cumulative IPC: 0.376496 (Simulation time: 72 hr 53 min 36 sec) 
 Total Blocks : 262144 Invalid Blocks : 0
Heartbeat CPU 4 instructions: 300000000 cycles: 362068502 heartbeat IPC: 0.335476 cumulative IPC: 0.375623 (Simulation time: 72 hr 54 min 57 sec) 
 Total Blocks : 262144 Invalid Blocks : 0
Heartbeat CPU 6 instructions: 300000000 cycles: 362286704 heartbeat IPC: 0.333967 cumulative IPC: 0.375314 (Simulation time: 72 hr 55 min 26 sec) 
 Total Blocks : 262144 Invalid Blocks : 0
Heartbeat CPU 3 instructions: 300000000 cycles: 363117357 heartbeat IPC: 0.337202 cumulative IPC: 0.374147 (Simulation time: 72 hr 57 min 30 sec) 
 Total Blocks : 262144 Invalid Blocks : 0
Heartbeat CPU 7 instructions: 300000000 cycles: 363675069 heartbeat IPC: 0.340338 cumulative IPC: 0.37337 (Simulation time: 72 hr 58 min 43 sec) 
 Total Blocks : 262144 Invalid Blocks : 0
Heartbeat CPU 1 instructions: 310000003 cycles: 388640160 heartbeat IPC: 0.360007 cumulative IPC: 0.375686 (Simulation time: 73 hr 47 min 31 sec) 
 Total Blocks : 262144 Invalid Blocks : 0
Heartbeat CPU 0 instructions: 310000003 cycles: 388677342 heartbeat IPC: 0.359604 cumulative IPC: 0.37564 (Simulation time: 73 hr 47 min 34 sec) 
 Total Blocks : 262144 Invalid Blocks : 0
Heartbeat CPU 2 instructions: 310000003 cycles: 389068854 heartbeat IPC: 0.360557 cumulative IPC: 0.375139 (Simulation time: 73 hr 48 min 5 sec) 
 Total Blocks : 262144 Invalid Blocks : 0
Heartbeat CPU 5 instructions: 310000003 cycles: 389355192 heartbeat IPC: 0.35837 cumulative IPC: 0.374772 (Simulation time: 73 hr 48 min 29 sec) 
 Total Blocks : 262144 Invalid Blocks : 0
Heartbeat CPU 4 instructions: 310000000 cycles: 390326053 heartbeat IPC: 0.353888 cumulative IPC: 0.373537 (Simulation time: 73 hr 50 min 28 sec) 
 Total Blocks : 262144 Invalid Blocks : 0
Heartbeat CPU 6 instructions: 310000003 cycles: 390376221 heartbeat IPC: 0.356005 cumulative IPC: 0.373472 (Simulation time: 73 hr 50 min 36 sec) 
 Total Blocks : 262144 Invalid Blocks : 0
Heartbeat CPU 3 instructions: 310000003 cycles: 391537309 heartbeat IPC: 0.351866 cumulative IPC: 0.372005 (Simulation time: 73 hr 52 min 37 sec) 
 Total Blocks : 262144 Invalid Blocks : 0
Heartbeat CPU 7 instructions: 310000003 cycles: 392053070 heartbeat IPC: 0.352386 cumulative IPC: 0.371359 (Simulation time: 73 hr 53 min 37 sec) 
 Total Blocks : 262144 Invalid Blocks : 0
Heartbeat CPU 0 instructions: 320000000 cycles: 409246080 heartbeat IPC: 0.486175 cumulative IPC: 0.382894 (Simulation time: 74 hr 32 min 32 sec) 
 Total Blocks : 262144 Invalid Blocks : 0
Heartbeat CPU 1 instructions: 320000001 cycles: 409353681 heartbeat IPC: 0.482776 cumulative IPC: 0.382761 (Simulation time: 74 hr 32 min 44 sec) 
 Total Blocks : 262144 Invalid Blocks : 0
Heartbeat CPU 2 instructions: 320000003 cycles: 409862430 heartbeat IPC: 0.480918 cumulative IPC: 0.382143 (Simulation time: 74 hr 33 min 49 sec) 
 Total Blocks : 262144 Invalid Blocks : 0
Heartbeat CPU 5 instructions: 320000003 cycles: 410126349 heartbeat IPC: 0.481437 cumulative IPC: 0.381822 (Simulation time: 74 hr 34 min 19 sec) 
 Total Blocks : 262144 Invalid Blocks : 0
Heartbeat CPU 4 instructions: 320000003 cycles: 411037073 heartbeat IPC: 0.482835 cumulative IPC: 0.380719 (Simulation time: 74 hr 36 min 19 sec) 
 Total Blocks : 262144 Invalid Blocks : 0
Heartbeat CPU 6 instructions: 320000003 cycles: 411312805 heartbeat IPC: 0.477633 cumulative IPC: 0.380385 (Simulation time: 74 hr 36 min 50 sec) 
 Total Blocks : 262144 Invalid Blocks : 0
Heartbeat CPU 3 instructions: 320000003 cycles: 412341632 heartbeat IPC: 0.480669 cumulative IPC: 0.379148 (Simulation time: 74 hr 38 min 45 sec) 
 Total Blocks : 262144 Invalid Blocks : 0
Heartbeat CPU 7 instructions: 320000003 cycles: 412979953 heartbeat IPC: 0.477854 cumulative IPC: 0.378387 (Simulation time: 74 hr 39 min 57 sec) 
 Total Blocks : 262144 Invalid Blocks : 0
Heartbeat CPU 0 instructions: 330000000 cycles: 432184862 heartbeat IPC: 0.435943 cumulative IPC: 0.386512 (Simulation time: 75 hr 16 min 19 sec) 
 Total Blocks : 262144 Invalid Blocks : 0
Heartbeat CPU 1 instructions: 330000000 cycles: 432442364 heartbeat IPC: 0.433113 cumulative IPC: 0.386215 (Simulation time: 75 hr 16 min 53 sec) 
 Total Blocks : 262144 Invalid Blocks : 0
Heartbeat CPU 2 instructions: 330000000 cycles: 432788058 heartbeat IPC: 0.436193 cumulative IPC: 0.385821 (Simulation time: 75 hr 17 min 38 sec) 
 Total Blocks : 262144 Invalid Blocks : 0
Heartbeat CPU 5 instructions: 330000000 cycles: 433046265 heartbeat IPC: 0.436302 cumulative IPC: 0.385525 (Simulation time: 75 hr 18 min 12 sec) 
 Total Blocks : 262144 Invalid Blocks : 0
Heartbeat CPU 4 instructions: 330000000 cycles: 433926779 heartbeat IPC: 0.436877 cumulative IPC: 0.384521 (Simulation time: 75 hr 20 min 27 sec) 
 Total Blocks : 262144 Invalid Blocks : 0
Heartbeat CPU 6 instructions: 330000000 cycles: 434310631 heartbeat IPC: 0.434824 cumulative IPC: 0.384084 (Simulation time: 75 hr 21 min 21 sec) 
 Total Blocks : 262144 Invalid Blocks : 0
Heartbeat CPU 3 instructions: 330000000 cycles: 435058265 heartbeat IPC: 0.440206 cumulative IPC: 0.383237 (Simulation time: 75 hr 23 min 7 sec) 
 Total Blocks : 262144 Invalid Blocks : 0
Heartbeat CPU 7 instructions: 330000000 cycles: 435545753 heartbeat IPC: 0.443148 cumulative IPC: 0.382689 (Simulation time: 75 hr 24 min 20 sec) 
 Total Blocks : 262144 Invalid Blocks : 0
Heartbeat CPU 0 instructions: 340000002 cycles: 446964396 heartbeat IPC: 0.676611 cumulative IPC: 0.398723 (Simulation time: 75 hr 51 min 42 sec) 
 Total Blocks : 262144 Invalid Blocks : 0
Heartbeat CPU 1 instructions: 340000003 cycles: 447115362 heartbeat IPC: 0.681524 cumulative IPC: 0.398551 (Simulation time: 75 hr 51 min 58 sec) 
 Total Blocks : 262144 Invalid Blocks : 0
Heartbeat CPU 2 instructions: 340000003 cycles: 447422922 heartbeat IPC: 0.6833 cumulative IPC: 0.398204 (Simulation time: 75 hr 52 min 37 sec) 
 Total Blocks : 262144 Invalid Blocks : 0
Heartbeat CPU 5 instructions: 340000003 cycles: 447600467 heartbeat IPC: 0.687087 cumulative IPC: 0.398002 (Simulation time: 75 hr 52 min 54 sec) 
 Total Blocks : 262144 Invalid Blocks : 0
Heartbeat CPU 4 instructions: 340000002 cycles: 448361347 heartbeat IPC: 0.692782 cumulative IPC: 0.397144 (Simulation time: 75 hr 54 min 11 sec) 
 Total Blocks : 262144 Invalid Blocks : 0
Heartbeat CPU 6 instructions: 340000003 cycles: 448670260 heartbeat IPC: 0.696397 cumulative IPC: 0.396795 (Simulation time: 75 hr 54 min 40 sec) 
 Total Blocks : 262144 Invalid Blocks : 0
Heartbeat CPU 3 instructions: 340000002 cycles: 449399274 heartbeat IPC: 0.697301 cumulative IPC: 0.395976 (Simulation time: 75 hr 55 min 53 sec) 
 Total Blocks : 262144 Invalid Blocks : 0
Heartbeat CPU 7 instructions: 340000002 cycles: 449795014 heartbeat IPC: 0.701791 cumulative IPC: 0.395535 (Simulation time: 75 hr 56 min 31 sec) 
 Total Blocks : 262144 Invalid Blocks : 0
Heartbeat CPU 0 instructions: 350000001 cycles: 481977456 heartbeat IPC: 0.285608 cumulative IPC: 0.388466 (Simulation time: 77 hr 58 min 51 sec) 
 Total Blocks : 262144 Invalid Blocks : 0
Heartbeat CPU 1 instructions: 350000001 cycles: 482258102 heartbeat IPC: 0.284554 cumulative IPC: 0.388183 (Simulation time: 78 hr 1 min 0 sec) 
 Total Blocks : 262144 Invalid Blocks : 0
Heartbeat CPU 2 instructions: 350000001 cycles: 482647281 heartbeat IPC: 0.283894 cumulative IPC: 0.387794 (Simulation time: 78 hr 3 min 57 sec) 
 Total Blocks : 262144 Invalid Blocks : 0
Heartbeat CPU 5 instructions: 350000001 cycles: 483237348 heartbeat IPC: 0.280608 cumulative IPC: 0.387203 (Simulation time: 78 hr 8 min 28 sec) 
 Total Blocks : 262144 Invalid Blocks : 0
Heartbeat CPU 4 instructions: 350000001 cycles: 484910449 heartbeat IPC: 0.273605 cumulative IPC: 0.385538 (Simulation time: 78 hr 21 min 19 sec) 
 Total Blocks : 262144 Invalid Blocks : 0
Heartbeat CPU 6 instructions: 350000001 cycles: 485051532 heartbeat IPC: 0.274867 cumulative IPC: 0.385398 (Simulation time: 78 hr 22 min 23 sec) 
 Total Blocks : 262144 Invalid Blocks : 0
Heartbeat CPU 3 instructions: 350000001 cycles: 486934445 heartbeat IPC: 0.266417 cumulative IPC: 0.383542 (Simulation time: 78 hr 36 min 40 sec) 
 Total Blocks : 262144 Invalid Blocks : 0
Heartbeat CPU 7 instructions: 350000001 cycles: 487471690 heartbeat IPC: 0.265416 cumulative IPC: 0.383017 (Simulation time: 78 hr 40 min 52 sec) 
 Total Blocks : 262144 Invalid Blocks : 0
Heartbeat CPU 0 instructions: 360000003 cycles: 515921489 heartbeat IPC: 0.294603 cumulative IPC: 0.380882 (Simulation time: 81 hr 51 min 57 sec) 
 Total Blocks : 262144 Invalid Blocks : 0
Heartbeat CPU 1 instructions: 360000003 cycles: 516457771 heartbeat IPC: 0.292401 cumulative IPC: 0.380395 (Simulation time: 81 hr 53 min 58 sec) 
 Total Blocks : 262144 Invalid Blocks : 0
Heartbeat CPU 2 instructions: 360000003 cycles: 516645184 heartbeat IPC: 0.294136 cumulative IPC: 0.380227 (Simulation time: 81 hr 54 min 40 sec) 
 Total Blocks : 262144 Invalid Blocks : 0
Heartbeat CPU 5 instructions: 360000003 cycles: 517458264 heartbeat IPC: 0.292219 cumulative IPC: 0.379494 (Simulation time: 81 hr 57 min 50 sec) 
 Total Blocks : 262144 Invalid Blocks : 0
Heartbeat CPU 4 instructions: 360000000 cycles: 519590663 heartbeat IPC: 0.288349 cumulative IPC: 0.377584 (Simulation time: 82 hr 6 min 14 sec) 
 Total Blocks : 262144 Invalid Blocks : 0
Heartbeat CPU 6 instructions: 360000003 cycles: 519719060 heartbeat IPC: 0.288454 cumulative IPC: 0.377469 (Simulation time: 82 hr 6 min 45 sec) 
 Total Blocks : 262144 Invalid Blocks : 0
Heartbeat CPU 3 instructions: 360000003 cycles: 521808536 heartbeat IPC: 0.286746 cumulative IPC: 0.375617 (Simulation time: 82 hr 14 min 57 sec) 
 Total Blocks : 262144 Invalid Blocks : 0
Heartbeat CPU 7 instructions: 360000003 cycles: 522541058 heartbeat IPC: 0.285149 cumulative IPC: 0.374973 (Simulation time: 82 hr 17 min 46 sec) 
 Total Blocks : 262144 Invalid Blocks : 0
Heartbeat CPU 0 instructions: 370000000 cycles: 543494074 heartbeat IPC: 0.362679 cumulative IPC: 0.379761 (Simulation time: 83 hr 16 min 7 sec) 
 Total Blocks : 262144 Invalid Blocks : 0
Heartbeat CPU 2 instructions: 370000000 cycles: 543819666 heartbeat IPC: 0.367992 cumulative IPC: 0.379485 (Simulation time: 83 hr 16 min 46 sec) 
 Total Blocks : 262144 Invalid Blocks : 0
Heartbeat CPU 1 instructions: 370000000 cycles: 543846091 heartbeat IPC: 0.365119 cumulative IPC: 0.379461 (Simulation time: 83 hr 16 min 50 sec) 
 Total Blocks : 262144 Invalid Blocks : 0
Heartbeat CPU 5 instructions: 370000000 cycles: 544607546 heartbeat IPC: 0.368334 cumulative IPC: 0.378818 (Simulation time: 83 hr 18 min 23 sec) 
 Total Blocks : 262144 Invalid Blocks : 0
Heartbeat CPU 4 instructions: 370000000 cycles: 545932218 heartbeat IPC: 0.379628 cumulative IPC: 0.377704 (Simulation time: 83 hr 21 min 13 sec) 
 Total Blocks : 262144 Invalid Blocks : 0
Heartbeat CPU 6 instructions: 370000000 cycles: 545976310 heartbeat IPC: 0.380847 cumulative IPC: 0.377666 (Simulation time: 83 hr 21 min 19 sec) 
 Total Blocks : 262144 Invalid Blocks : 0
Heartbeat CPU 3 instructions: 370000000 cycles: 547282926 heartbeat IPC: 0.392551 cumulative IPC: 0.376572 (Simulation time: 83 hr 24 min 27 sec) 
 Total Blocks : 262144 Invalid Blocks : 0
Heartbeat CPU 7 instructions: 370000000 cycles: 547833917 heartbeat IPC: 0.395368 cumulative IPC: 0.376115 (Simulation time: 83 hr 25 min 39 sec) 
 Total Blocks : 262144 Invalid Blocks : 0
Heartbeat CPU 0 instructions: 380000000 cycles: 572482085 heartbeat IPC: 0.34497 cumulative IPC: 0.377645 (Simulation time: 84 hr 53 min 5 sec) 
 Total Blocks : 262144 Invalid Blocks : 0
Heartbeat CPU 1 instructions: 380000000 cycles: 572873681 heartbeat IPC: 0.3445 cumulative IPC: 0.377334 (Simulation time: 84 hr 53 min 55 sec) 
 Total Blocks : 262144 Invalid Blocks : 0
Heartbeat CPU 2 instructions: 380000000 cycles: 572874427 heartbeat IPC: 0.344178 cumulative IPC: 0.377334 (Simulation time: 84 hr 53 min 56 sec) 
 Total Blocks : 262144 Invalid Blocks : 0
Heartbeat CPU 5 instructions: 380000000 cycles: 574014817 heartbeat IPC: 0.340052 cumulative IPC: 0.376434 (Simulation time: 84 hr 56 min 4 sec) 
 Total Blocks : 262144 Invalid Blocks : 0
Heartbeat CPU 4 instructions: 380000000 cycles: 574958843 heartbeat IPC: 0.344511 cumulative IPC: 0.375693 (Simulation time: 84 hr 57 min 54 sec) 
 Total Blocks : 262144 Invalid Blocks : 0
Heartbeat CPU 6 instructions: 380000000 cycles: 574969306 heartbeat IPC: 0.344911 cumulative IPC: 0.375684 (Simulation time: 84 hr 57 min 58 sec) 
 Total Blocks : 262144 Invalid Blocks : 0
Heartbeat CPU 3 instructions: 380000000 cycles: 576501342 heartbeat IPC: 0.34225 cumulative IPC: 0.374486 (Simulation time: 85 hr 1 min 6 sec) 
 Total Blocks : 262144 Invalid Blocks : 0
Heartbeat CPU 7 instructions: 380000002 cycles: 576949001 heartbeat IPC: 0.343465 cumulative IPC: 0.374139 (Simulation time: 85 hr 1 min 59 sec) 
 Total Blocks : 262144 Invalid Blocks : 0
Heartbeat CPU 0 instructions: 390000001 cycles: 599782027 heartbeat IPC: 0.366301 cumulative IPC: 0.37703 (Simulation time: 85 hr 43 min 57 sec) 
 Total Blocks : 262144 Invalid Blocks : 0
Heartbeat CPU 2 instructions: 390000003 cycles: 600111152 heartbeat IPC: 0.367151 cumulative IPC: 0.376784 (Simulation time: 85 hr 44 min 24 sec) 
 Total Blocks : 262144 Invalid Blocks : 0
Heartbeat CPU 1 instructions: 390000001 cycles: 600277470 heartbeat IPC: 0.364913 cumulative IPC: 0.376659 (Simulation time: 85 hr 44 min 37 sec) 
 Total Blocks : 262144 Invalid Blocks : 0
Heartbeat CPU 5 instructions: 390000000 cycles: 601697894 heartbeat IPC: 0.361232 cumulative IPC: 0.375602 (Simulation time: 85 hr 46 min 33 sec) 
 Total Blocks : 262144 Invalid Blocks : 0
Heartbeat CPU 6 instructions: 390000003 cycles: 602502644 heartbeat IPC: 0.363196 cumulative IPC: 0.375005 (Simulation time: 85 hr 47 min 51 sec) 
 Total Blocks : 262144 Invalid Blocks : 0
Heartbeat CPU 4 instructions: 390000001 cycles: 602553845 heartbeat IPC: 0.362384 cumulative IPC: 0.374968 (Simulation time: 85 hr 47 min 55 sec) 
 Total Blocks : 262144 Invalid Blocks : 0
Heartbeat CPU 3 instructions: 390000000 cycles: 604654440 heartbeat IPC: 0.355201 cumulative IPC: 0.373419 (Simulation time: 85 hr 51 min 35 sec) 
 Total Blocks : 262144 Invalid Blocks : 0
Heartbeat CPU 7 instructions: 390000001 cycles: 605206420 heartbeat IPC: 0.353889 cumulative IPC: 0.373015 (Simulation time: 85 hr 52 min 41 sec) 
 Total Blocks : 262144 Invalid Blocks : 0
Heartbeat CPU 0 instructions: 400000001 cycles: 621021015 heartbeat IPC: 0.470832 cumulative IPC: 0.380824 (Simulation time: 86 hr 26 min 31 sec) 
 Total Blocks : 262144 Invalid Blocks : 0
Finished CPU 0 instructions: 200000002 cycles: 525178291 cumulative IPC: 0.380823 (Simulation time: 86 hr 26 min 32 sec) 
Heartbeat CPU 2 instructions: 400000001 cycles: 621293743 heartbeat IPC: 0.472086 cumulative IPC: 0.380626 (Simulation time: 86 hr 27 min 4 sec) 
 Total Blocks : 262144 Invalid Blocks : 0
Finished CPU 2 instructions: 200000001 cycles: 525450200 cumulative IPC: 0.380626 (Simulation time: 86 hr 27 min 5 sec) 
Heartbeat CPU 1 instructions: 400000001 cycles: 621458422 heartbeat IPC: 0.472122 cumulative IPC: 0.380506 (Simulation time: 86 hr 27 min 24 sec) 
 Total Blocks : 262144 Invalid Blocks : 0
Finished CPU 1 instructions: 200000003 cycles: 525617215 cumulative IPC: 0.380505 (Simulation time: 86 hr 27 min 24 sec) 
Heartbeat CPU 5 instructions: 400000001 cycles: 622899429 heartbeat IPC: 0.471664 cumulative IPC: 0.379467 (Simulation time: 86 hr 30 min 21 sec) 
 Total Blocks : 262144 Invalid Blocks : 0
Finished CPU 5 instructions: 200000002 cycles: 527055411 cumulative IPC: 0.379467 (Simulation time: 86 hr 30 min 22 sec) 
Heartbeat CPU 6 instructions: 400000001 cycles: 623499902 heartbeat IPC: 0.476253 cumulative IPC: 0.379034 (Simulation time: 86 hr 31 min 31 sec) 
 Total Blocks : 262144 Invalid Blocks : 0
Finished CPU 6 instructions: 200000002 cycles: 527657395 cumulative IPC: 0.379034 (Simulation time: 86 hr 31 min 31 sec) 
Heartbeat CPU 4 instructions: 400000001 cycles: 623718216 heartbeat IPC: 0.472492 cumulative IPC: 0.378878 (Simulation time: 86 hr 31 min 54 sec) 
 Total Blocks : 262144 Invalid Blocks : 0
Finished CPU 4 instructions: 200000001 cycles: 527874085 cumulative IPC: 0.378878 (Simulation time: 86 hr 31 min 54 sec) 
Heartbeat CPU 3 instructions: 400000001 cycles: 626048792 heartbeat IPC: 0.467413 cumulative IPC: 0.377212 (Simulation time: 86 hr 36 min 3 sec) 
 Total Blocks : 262144 Invalid Blocks : 0
Finished CPU 3 instructions: 200000001 cycles: 530206553 cumulative IPC: 0.377211 (Simulation time: 86 hr 36 min 4 sec) 
Heartbeat CPU 7 instructions: 400000001 cycles: 626574596 heartbeat IPC: 0.467986 cumulative IPC: 0.376839 (Simulation time: 86 hr 36 min 54 sec) 
 Total Blocks : 262144 Invalid Blocks : 0
Finished CPU 7 instructions: 200000003 cycles: 530733258 cumulative IPC: 0.376837 (Simulation time: 86 hr 36 min 55 sec) 

CPU 0 Branch Prediction Accuracy: 99.8568% MPKI: 0.0967953 Average ROB Occupancy at Mispredict: 348.184

CPU 1 Branch Prediction Accuracy: 99.8569% MPKI: 0.096802 Average ROB Occupancy at Mispredict: 348.161

CPU 2 Branch Prediction Accuracy: 99.8568% MPKI: 0.0968074 Average ROB Occupancy at Mispredict: 348.184

CPU 3 Branch Prediction Accuracy: 99.8572% MPKI: 0.0968792 Average ROB Occupancy at Mispredict: 348.155

CPU 4 Branch Prediction Accuracy: 99.857% MPKI: 0.0968472 Average ROB Occupancy at Mispredict: 348.168

CPU 5 Branch Prediction Accuracy: 99.857% MPKI: 0.0968362 Average ROB Occupancy at Mispredict: 348.158

CPU 6 Branch Prediction Accuracy: 99.857% MPKI: 0.0968413 Average ROB Occupancy at Mispredict: 348.165

CPU 7 Branch Prediction Accuracy: 99.8572% MPKI: 0.09689 Average ROB Occupancy at Mispredict: 348.163

ChampSim completed all CPUs

Total Simulation Statistics (not including warmup)

CPU 0 cumulative IPC: 0.380904 instructions: 202158297 cycles: 530733257
ITLB TOTAL     ACCESS: 35396267  HIT: 35396267  MISS:     0  HIT %:   100  MISS %:     0  AVERAGE MISS PENALTY: 0
ITLB LOAD      ACCESS: 35396267  HIT: 35396267  MISS:     0  HIT %:   100  MISS %:     0  AVERAGE MISS PENALTY: 0
ITLB RFO       ACCESS:     0  HIT:     0  MISS:     0  HIT %:     0  MISS %:     0  AVERAGE MISS PENALTY: 0
ITLB PREFETCH  ACCESS:     0  HIT:     0  MISS:     0  HIT %:     0  MISS %:     0  AVERAGE MISS PENALTY: 0
ITLB WRITEBACK ACCESS:     0  HIT:     0  MISS:     0  HIT %:     0  MISS %:     0  AVERAGE MISS PENALTY: 0

DTLB TOTAL     ACCESS: 55094745  HIT: 54992255  MISS: 102490  HIT %: 99.814  MISS %: 0.186025  AVERAGE MISS PENALTY: 118.843
DTLB LOAD      ACCESS: 48229769  HIT: 48146418  MISS: 83351  HIT %: 99.8272  MISS %: 0.172821  AVERAGE MISS PENALTY: 120.992
DTLB RFO       ACCESS: 6864976  HIT: 6845837  MISS: 19139  HIT %: 99.7212  MISS %: 0.278792  AVERAGE MISS PENALTY: 109.483
DTLB PREFETCH  ACCESS:     0  HIT:     0  MISS:     0  HIT %:     0  MISS %:     0  AVERAGE MISS PENALTY: 0
DTLB WRITEBACK ACCESS:     0  HIT:     0  MISS:     0  HIT %:     0  MISS %:     0  AVERAGE MISS PENALTY: 0

STLB TOTAL     ACCESS: 102490  HIT:   730  MISS: 101760  HIT %: 0.712265  MISS %: 99.2877  AVERAGE MISS PENALTY: 100
STLB LOAD      ACCESS: 83351  HIT:   728  MISS: 82623  HIT %: 0.873415  MISS %: 99.1266  AVERAGE MISS PENALTY: 100
STLB RFO       ACCESS: 19139  HIT:     2  MISS: 19137  HIT %: 0.0104499  MISS %: 99.9896  AVERAGE MISS PENALTY: 100
STLB PREFETCH  ACCESS:     0  HIT:     0  MISS:     0  HIT %:     0  MISS %:     0  AVERAGE MISS PENALTY: 0
STLB WRITEBACK ACCESS:     0  HIT:     0  MISS:     0  HIT %:     0  MISS %:     0  AVERAGE MISS PENALTY: 0

L1D TOTAL     ACCESS: 57311441  HIT: 52747095  MISS: 4564346  HIT %: 92.0359  MISS %: 7.96411  AVERAGE MISS PENALTY: 6.11296e+07
L1D LOAD      ACCESS: 43520603  HIT: 42647728  MISS: 872875  HIT %: 97.9943  MISS %: 2.00566  AVERAGE MISS PENALTY: 3.19649e+08
L1D RFO       ACCESS: 4094557  HIT: 2872106  MISS: 1222451  HIT %: 70.1445  MISS %: 29.8555  AVERAGE MISS PENALTY: 1403.78
L1D PREFETCH  ACCESS: 9696281  HIT: 7227261  MISS: 2469020  HIT %: 74.5364  MISS %: 25.4636  AVERAGE MISS PENALTY: 414.374
L1D WRITEBACK ACCESS:     0  HIT:     0  MISS:     0  HIT %:     0  MISS %:     0  AVERAGE MISS PENALTY: 0

L1I TOTAL     ACCESS: 48714600  HIT: 48714600  MISS:     0  HIT %:   100  MISS %:     0  AVERAGE MISS PENALTY: 0
L1I LOAD      ACCESS: 48714600  HIT: 48714600  MISS:     0  HIT %:   100  MISS %:     0  AVERAGE MISS PENALTY: 0
L1I RFO       ACCESS:     0  HIT:     0  MISS:     0  HIT %:     0  MISS %:     0  AVERAGE MISS PENALTY: 0
L1I PREFETCH  ACCESS:     0  HIT:     0  MISS:     0  HIT %:     0  MISS %:     0  AVERAGE MISS PENALTY: 0
L1I WRITEBACK ACCESS:     0  HIT:     0  MISS:     0  HIT %:     0  MISS %:     0  AVERAGE MISS PENALTY: 0

L2C TOTAL     ACCESS: 7439109  HIT: 2801809  MISS: 4637300  HIT %: 37.6632  MISS %: 62.3368  AVERAGE MISS PENALTY: 5.8688e+07
L2C LOAD      ACCESS: 855103  HIT:  2437  MISS: 852666  HIT %: 0.284995  MISS %: 99.715  AVERAGE MISS PENALTY: 3.19175e+08
L2C RFO       ACCESS: 1222449  HIT:     6  MISS: 1222443  HIT %: 0.000490818  MISS %: 99.9995  AVERAGE MISS PENALTY: 1755.74
L2C PREFETCH  ACCESS: 3872737  HIT: 1343381  MISS: 2529356  HIT %: 34.6882  MISS %: 65.3118  AVERAGE MISS PENALTY: 843.82
L2C WRITEBACK ACCESS: 1488820  HIT: 1455985  MISS: 32835  HIT %: 97.7946  MISS %: 2.20544  AVERAGE MISS PENALTY: 0


LLC0 TOTAL     ACCESS: 760436  HIT: 151608  MISS: 608828  HIT %: 19.937  MISS %: 80.063  AVERAGE MISS PENALTY: 874.013
LLC0 LOAD      ACCESS: 56499  HIT:   750  MISS: 55749  HIT %: 1.32746  MISS %: 98.6725  AVERAGE MISS PENALTY: 771.446
LLC0 RFO       ACCESS: 152804  HIT:   148  MISS: 152656  HIT %: 0.0968561  MISS %: 99.9031  AVERAGE MISS PENALTY: 983.388
LLC0 PREFETCH  ACCESS: 365071  HIT:  5420  MISS: 359651  HIT %: 1.48464  MISS %: 98.5154  AVERAGE MISS PENALTY: 942.569
LLC0 WRITEBACK ACCESS: 186062  HIT: 145290  MISS: 40772  HIT %: 78.0869  MISS %: 21.9131  AVERAGE MISS PENALTY: 0

LLC1 TOTAL     ACCESS: 760986  HIT: 156417  MISS: 604569  HIT %: 20.5545  MISS %: 79.4455  AVERAGE MISS PENALTY: 881.202
LLC1 LOAD      ACCESS: 11275  HIT:   107  MISS: 11168  HIT %: 0.949002  MISS %: 99.051  AVERAGE MISS PENALTY: 830.278
LLC1 RFO       ACCESS: 152802  HIT:   117  MISS: 152685  HIT %: 0.0765697  MISS %: 99.9234  AVERAGE MISS PENALTY: 984.952
LLC1 PREFETCH  ACCESS: 410856  HIT:  5037  MISS: 405819  HIT %: 1.22598  MISS %: 98.774  AVERAGE MISS PENALTY: 919.344
LLC1 WRITEBACK ACCESS: 186053  HIT: 151156  MISS: 34897  HIT %: 81.2435  MISS %: 18.7565  AVERAGE MISS PENALTY: 0

LLC2 TOTAL     ACCESS: 761394  HIT: 160820  MISS: 600574  HIT %: 21.1218  MISS %: 78.8782  AVERAGE MISS PENALTY: 876.568
LLC2 LOAD      ACCESS:  6382  HIT:    60  MISS:  6322  HIT %: 0.940144  MISS %: 99.0599  AVERAGE MISS PENALTY: 1013.65
LLC2 RFO       ACCESS: 152811  HIT:    83  MISS: 152728  HIT %: 0.0543155  MISS %: 99.9457  AVERAGE MISS PENALTY: 932.291
LLC2 PREFETCH  ACCESS: 416107  HIT:  4441  MISS: 411666  HIT %: 1.06727  MISS %: 98.9327  AVERAGE MISS PENALTY: 917.367
LLC2 WRITEBACK ACCESS: 186094  HIT: 156236  MISS: 29858  HIT %: 83.9554  MISS %: 16.0446  AVERAGE MISS PENALTY: 0

LLC3 TOTAL     ACCESS: 761831  HIT: 162983  MISS: 598848  HIT %: 21.3936  MISS %: 78.6064  AVERAGE MISS PENALTY: 880.611
LLC3 LOAD      ACCESS:  6343  HIT:    67  MISS:  6276  HIT %: 1.05628  MISS %: 98.9437  AVERAGE MISS PENALTY: 1020.22
LLC3 RFO       ACCESS: 152802  HIT:    77  MISS: 152725  HIT %: 0.050392  MISS %: 99.9496  AVERAGE MISS PENALTY: 931.892
LLC3 PREFETCH  ACCESS: 416632  HIT:  4099  MISS: 412533  HIT %: 0.983842  MISS %: 99.0162  AVERAGE MISS PENALTY: 917.808
LLC3 WRITEBACK ACCESS: 186054  HIT: 158740  MISS: 27314  HIT %: 85.3193  MISS %: 14.6807  AVERAGE MISS PENALTY: 0

LLC4 TOTAL     ACCESS: 762363  HIT: 163284  MISS: 599079  HIT %: 21.4181  MISS %: 78.5819  AVERAGE MISS PENALTY: 945.982
LLC4 LOAD      ACCESS:  6409  HIT:    56  MISS:  6353  HIT %: 0.873771  MISS %: 99.1262  AVERAGE MISS PENALTY: 960.43
LLC4 RFO       ACCESS: 152804  HIT:    99  MISS: 152705  HIT %: 0.0647889  MISS %: 99.9352  AVERAGE MISS PENALTY: 1025.68
LLC4 PREFETCH  ACCESS: 417085  HIT:  4028  MISS: 413057  HIT %: 0.96575  MISS %: 99.0342  AVERAGE MISS PENALTY: 978.05
LLC4 WRITEBACK ACCESS: 186065  HIT: 159101  MISS: 26964  HIT %: 85.5083  MISS %: 14.4917  AVERAGE MISS PENALTY: 0

LLC5 TOTAL     ACCESS: 761983  HIT: 163370  MISS: 598613  HIT %: 21.4401  MISS %: 78.5599  AVERAGE MISS PENALTY: 915.796
LLC5 LOAD      ACCESS:  6428  HIT:    48  MISS:  6380  HIT %: 0.746733  MISS %: 99.2533  AVERAGE MISS PENALTY: 929.592
LLC5 RFO       ACCESS: 152803  HIT:   104  MISS: 152699  HIT %: 0.0680615  MISS %: 99.9319  AVERAGE MISS PENALTY: 1001.79
LLC5 PREFETCH  ACCESS: 416688  HIT:  4114  MISS: 412574  HIT %: 0.987309  MISS %: 99.0127  AVERAGE MISS PENALTY: 943.599
LLC5 WRITEBACK ACCESS: 186064  HIT: 159104  MISS: 26960  HIT %: 85.5104  MISS %: 14.4896  AVERAGE MISS PENALTY: 0

LLC6 TOTAL     ACCESS: 762013  HIT: 163109  MISS: 598904  HIT %: 21.405  MISS %: 78.595  AVERAGE MISS PENALTY: 913.046
LLC6 LOAD      ACCESS:  6429  HIT:    54  MISS:  6375  HIT %: 0.839944  MISS %: 99.1601  AVERAGE MISS PENALTY: 1066.77
LLC6 RFO       ACCESS: 152806  HIT:   106  MISS: 152700  HIT %: 0.069369  MISS %: 99.9306  AVERAGE MISS PENALTY: 962.647
LLC6 PREFETCH  ACCESS: 416719  HIT:  4426  MISS: 412293  HIT %: 1.06211  MISS %: 98.9379  AVERAGE MISS PENALTY: 953.279
LLC6 WRITEBACK ACCESS: 186059  HIT: 158523  MISS: 27536  HIT %: 85.2004  MISS %: 14.7996  AVERAGE MISS PENALTY: 0

LLC7 TOTAL     ACCESS: 761968  HIT: 161758  MISS: 600210  HIT %: 21.229  MISS %: 78.771  AVERAGE MISS PENALTY: 891.818
LLC7 LOAD      ACCESS:  6445  HIT:    52  MISS:  6393  HIT %: 0.806827  MISS %: 99.1932  AVERAGE MISS PENALTY: 1043.24
LLC7 RFO       ACCESS: 152809  HIT:   103  MISS: 152706  HIT %: 0.0674044  MISS %: 99.9326  AVERAGE MISS PENALTY: 948.795
LLC7 PREFETCH  ACCESS: 416656  HIT:  4788  MISS: 411868  HIT %: 1.14915  MISS %: 98.8509  AVERAGE MISS PENALTY: 931.663
LLC7 WRITEBACK ACCESS: 186058  HIT: 156815  MISS: 29243  HIT %: 84.2829  MISS %: 15.7171  AVERAGE MISS PENALTY: 0

Total Rob stall cycles : 	483890876
Total Load Rob Stall cycles : 	385479551
Average Rob Stall cycles : 	 30
Average Load Rob Stall cycles : 	 126

CPU 1 cumulative IPC: 0.380604 instructions: 201999326 cycles: 530733257
ITLB TOTAL     ACCESS: 35374299  HIT: 35374299  MISS:     0  HIT %:   100  MISS %:     0  AVERAGE MISS PENALTY: 0
ITLB LOAD      ACCESS: 35374299  HIT: 35374299  MISS:     0  HIT %:   100  MISS %:     0  AVERAGE MISS PENALTY: 0
ITLB RFO       ACCESS:     0  HIT:     0  MISS:     0  HIT %:     0  MISS %:     0  AVERAGE MISS PENALTY: 0
ITLB PREFETCH  ACCESS:     0  HIT:     0  MISS:     0  HIT %:     0  MISS %:     0  AVERAGE MISS PENALTY: 0
ITLB WRITEBACK ACCESS:     0  HIT:     0  MISS:     0  HIT %:     0  MISS %:     0  AVERAGE MISS PENALTY: 0

DTLB TOTAL     ACCESS: 55046477  HIT: 54944076  MISS: 102401  HIT %: 99.814  MISS %: 0.186026  AVERAGE MISS PENALTY: 118.809
DTLB LOAD      ACCESS: 48189151  HIT: 48105861  MISS: 83290  HIT %: 99.8272  MISS %: 0.17284  AVERAGE MISS PENALTY: 120.949
DTLB RFO       ACCESS: 6857326  HIT: 6838215  MISS: 19111  HIT %: 99.7213  MISS %: 0.278695  AVERAGE MISS PENALTY: 109.479
DTLB PREFETCH  ACCESS:     0  HIT:     0  MISS:     0  HIT %:     0  MISS %:     0  AVERAGE MISS PENALTY: 0
DTLB WRITEBACK ACCESS:     0  HIT:     0  MISS:     0  HIT %:     0  MISS %:     0  AVERAGE MISS PENALTY: 0

STLB TOTAL     ACCESS: 102401  HIT:   728  MISS: 101673  HIT %: 0.710931  MISS %: 99.2891  AVERAGE MISS PENALTY: 100
STLB LOAD      ACCESS: 83290  HIT:   726  MISS: 82564  HIT %: 0.871653  MISS %: 99.1283  AVERAGE MISS PENALTY: 100
STLB RFO       ACCESS: 19111  HIT:     2  MISS: 19109  HIT %: 0.0104652  MISS %: 99.9895  AVERAGE MISS PENALTY: 100
STLB PREFETCH  ACCESS:     0  HIT:     0  MISS:     0  HIT %:     0  MISS %:     0  AVERAGE MISS PENALTY: 0
STLB WRITEBACK ACCESS:     0  HIT:     0  MISS:     0  HIT %:     0  MISS %:     0  AVERAGE MISS PENALTY: 0

L1D TOTAL     ACCESS: 57264239  HIT: 52703593  MISS: 4560646  HIT %: 92.0358  MISS %: 7.96421  AVERAGE MISS PENALTY: 6.11403e+07
L1D LOAD      ACCESS: 43483557  HIT: 42611736  MISS: 871821  HIT %: 97.9951  MISS %: 2.00494  AVERAGE MISS PENALTY: 3.19833e+08
L1D RFO       ACCESS: 4092884  HIT: 2872250  MISS: 1220634  HIT %: 70.1767  MISS %: 29.8233  AVERAGE MISS PENALTY: 1232.41
L1D PREFETCH  ACCESS: 9687798  HIT: 7219607  MISS: 2468191  HIT %: 74.5227  MISS %: 25.4773  AVERAGE MISS PENALTY: 413.447
L1D WRITEBACK ACCESS:     0  HIT:     0  MISS:     0  HIT %:     0  MISS %:     0  AVERAGE MISS PENALTY: 0

L1I TOTAL     ACCESS: 48685240  HIT: 48685240  MISS:     0  HIT %:   100  MISS %:     0  AVERAGE MISS PENALTY: 0
L1I LOAD      ACCESS: 48685240  HIT: 48685240  MISS:     0  HIT %:   100  MISS %:     0  AVERAGE MISS PENALTY: 0
L1I RFO       ACCESS:     0  HIT:     0  MISS:     0  HIT %:     0  MISS %:     0  AVERAGE MISS PENALTY: 0
L1I PREFETCH  ACCESS:     0  HIT:     0  MISS:     0  HIT %:     0  MISS %:     0  AVERAGE MISS PENALTY: 0
L1I WRITEBACK ACCESS:     0  HIT:     0  MISS:     0  HIT %:     0  MISS %:     0  AVERAGE MISS PENALTY: 0

L2C TOTAL     ACCESS: 7437202  HIT: 2808335  MISS: 4628867  HIT %: 37.7606  MISS %: 62.2394  AVERAGE MISS PENALTY: 5.8742e+07
L2C LOAD      ACCESS: 853932  HIT:  2504  MISS: 851428  HIT %: 0.293232  MISS %: 99.7068  AVERAGE MISS PENALTY: 3.19352e+08
L2C RFO       ACCESS: 1220633  HIT:     7  MISS: 1220626  HIT %: 0.000573473  MISS %: 99.9994  AVERAGE MISS PENALTY: 1296.52
L2C PREFETCH  ACCESS: 3875629  HIT: 1346931  MISS: 2528698  HIT %: 34.7539  MISS %: 65.2461  AVERAGE MISS PENALTY: 843.132
L2C WRITEBACK ACCESS: 1487008  HIT: 1458893  MISS: 28115  HIT %: 98.1093  MISS %: 1.89071  AVERAGE MISS PENALTY: 0


LLC0 TOTAL     ACCESS: 759704  HIT: 152777  MISS: 606927  HIT %: 20.1101  MISS %: 79.8899  AVERAGE MISS PENALTY: 875.66
LLC0 LOAD      ACCESS: 56449  HIT:   736  MISS: 55713  HIT %: 1.30383  MISS %: 98.6962  AVERAGE MISS PENALTY: 773.888
LLC0 RFO       ACCESS: 152576  HIT:   174  MISS: 152402  HIT %: 0.114042  MISS %: 99.886  AVERAGE MISS PENALTY: 985.097
LLC0 PREFETCH  ACCESS: 364822  HIT:  5513  MISS: 359309  HIT %: 1.51115  MISS %: 98.4889  AVERAGE MISS PENALTY: 941.293
LLC0 WRITEBACK ACCESS: 185857  HIT: 146354  MISS: 39503  HIT %: 78.7455  MISS %: 21.2545  AVERAGE MISS PENALTY: 0

LLC1 TOTAL     ACCESS: 760364  HIT: 156771  MISS: 603593  HIT %: 20.6179  MISS %: 79.3821  AVERAGE MISS PENALTY: 881.218
LLC1 LOAD      ACCESS: 11304  HIT:    95  MISS: 11209  HIT %: 0.84041  MISS %: 99.1596  AVERAGE MISS PENALTY: 836.171
LLC1 RFO       ACCESS: 152576  HIT:   140  MISS: 152436  HIT %: 0.0917576  MISS %: 99.9082  AVERAGE MISS PENALTY: 983.092
LLC1 PREFETCH  ACCESS: 410628  HIT:  5110  MISS: 405518  HIT %: 1.24444  MISS %: 98.7556  AVERAGE MISS PENALTY: 918.987
LLC1 WRITEBACK ACCESS: 185856  HIT: 151426  MISS: 34430  HIT %: 81.4749  MISS %: 18.5251  AVERAGE MISS PENALTY: 0

LLC2 TOTAL     ACCESS: 760750  HIT: 161153  MISS: 599597  HIT %: 21.1834  MISS %: 78.8166  AVERAGE MISS PENALTY: 879.021
LLC2 LOAD      ACCESS:  6355  HIT:    63  MISS:  6292  HIT %: 0.991345  MISS %: 99.0087  AVERAGE MISS PENALTY: 1023.64
LLC2 RFO       ACCESS: 152584  HIT:   104  MISS: 152480  HIT %: 0.0681592  MISS %: 99.9318  AVERAGE MISS PENALTY: 937.656
LLC2 PREFETCH  ACCESS: 415912  HIT:  4463  MISS: 411449  HIT %: 1.07306  MISS %: 98.9269  AVERAGE MISS PENALTY: 917.839
LLC2 WRITEBACK ACCESS: 185899  HIT: 156523  MISS: 29376  HIT %: 84.1979  MISS %: 15.8021  AVERAGE MISS PENALTY: 0

LLC3 TOTAL     ACCESS: 761162  HIT: 163029  MISS: 598133  HIT %: 21.4184  MISS %: 78.5816  AVERAGE MISS PENALTY: 880.785
LLC3 LOAD      ACCESS:  6300  HIT:    69  MISS:  6231  HIT %: 1.09524  MISS %: 98.9048  AVERAGE MISS PENALTY: 1002.16
LLC3 RFO       ACCESS: 152574  HIT:    84  MISS: 152490  HIT %: 0.0550553  MISS %: 99.9449  AVERAGE MISS PENALTY: 933.588
LLC3 PREFETCH  ACCESS: 416434  HIT:  4080  MISS: 412354  HIT %: 0.979747  MISS %: 99.0203  AVERAGE MISS PENALTY: 917.22
[...]
LLC2 TOTAL     ACCESS: 752080  HIT: 158025  MISS: 594055  HIT %: 21.0117  MISS %: 78.9883  AVERAGE MISS PENALTY: 877.711
LLC2 LOAD      ACCESS:  6316  HIT:    47  MISS:  6269  HIT %: 0.744142  MISS %: 99.2559  AVERAGE MISS PENALTY: 1031.15
LLC2 RFO       ACCESS: 149724  HIT:    77  MISS: 149647  HIT %: 0.051428  MISS %: 99.9486  AVERAGE MISS PENALTY: 936.772
LLC2 PREFETCH  ACCESS: 412994  HIT:  4604  MISS: 408390  HIT %: 1.11479  MISS %: 98.8852  AVERAGE MISS PENALTY: 917.65
LLC2 WRITEBACK ACCESS: 183046  HIT: 153297  MISS: 29749  HIT %: 83.7478  MISS %: 16.2522  AVERAGE MISS PENALTY: 0
LLC2 PREFETCH  REQUESTED:     0  ISSUED:     0  USEFUL:   687  USELESS: 3281985
 USEFUL LOAD PREFETCHES:        687 PREFETCH ISSUED TO LOWER LEVEL:   26918163  ACCURACY: 0.00255218
 TIMELY PREFETCHES:        687 LATE PREFETCHES: 0 DROPPED PREFETCHES: 0
LLC2 AVERAGE MISS LATENCY: 877.711 cycles
LLC3 TOTAL     ACCESS: 752485  HIT: 159832  MISS: 592653  HIT %: 21.2406  MISS %: 78.7594  AVERAGE MISS PENALTY: 882.205
LLC3 LOAD      ACCESS:  6296  HIT:    83  MISS:  6213  HIT %: 1.3183  MISS %: 98.6817  AVERAGE MISS PENALTY: 1030.44
LLC3 RFO       ACCESS: 149716  HIT:    71  MISS: 149645  HIT %: 0.0474231  MISS %: 99.9526  AVERAGE MISS PENALTY: 938.237
LLC3 PREFETCH  ACCESS: 413469  HIT:  3993  MISS: 409476  HIT %: 0.965731  MISS %: 99.0343  AVERAGE MISS PENALTY: 918.337
LLC3 WRITEBACK ACCESS: 183004  HIT: 155685  MISS: 27319  HIT %: 85.0719  MISS %: 14.9281  AVERAGE MISS PENALTY: 0
LLC3 PREFETCH  REQUESTED:     0  ISSUED:     0  USEFUL:   648  USELESS: 3288916
 USEFUL LOAD PREFETCHES:        648 PREFETCH ISSUED TO LOWER LEVEL:   25668151  ACCURACY: 0.00252453
 TIMELY PREFETCHES:        648 LATE PREFETCHES: 0 DROPPED PREFETCHES: 0
LLC3 AVERAGE MISS LATENCY: 882.205 cycles
LLC4 TOTAL     ACCESS: 752965  HIT: 159784  MISS: 593181  HIT %: 21.2206  MISS %: 78.7794  AVERAGE MISS PENALTY: 943.965
LLC4 LOAD      ACCESS:  6356  HIT:    54  MISS:  6302  HIT %: 0.849591  MISS %: 99.1504  AVERAGE MISS PENALTY: 969.423
LLC4 RFO       ACCESS: 149718  HIT:    66  MISS: 149652  HIT %: 0.0440829  MISS %: 99.9559  AVERAGE MISS PENALTY: 1026.86
LLC4 PREFETCH  ACCESS: 413865  HIT:  3950  MISS: 409915  HIT %: 0.954418  MISS %: 99.0456  AVERAGE MISS PENALTY: 976.207
LLC4 WRITEBACK ACCESS: 183026  HIT: 155714  MISS: 27312  HIT %: 85.0775  MISS %: 14.9225  AVERAGE MISS PENALTY: 0
LLC4 PREFETCH  REQUESTED:     0  ISSUED:     0  USEFUL:   635  USELESS: 3292277
 USEFUL LOAD PREFETCHES:        635 PREFETCH ISSUED TO LOWER LEVEL:   31006148  ACCURACY: 0.00204798
 TIMELY PREFETCHES:        635 LATE PREFETCHES: 0 DROPPED PREFETCHES: 0
LLC4 AVERAGE MISS LATENCY: 943.965 cycles
LLC5 TOTAL     ACCESS: 752682  HIT: 160234  MISS: 592448  HIT %: 21.2884  MISS %: 78.7116  AVERAGE MISS PENALTY: 914.339
LLC5 LOAD      ACCESS:  6359  HIT:    55  MISS:  6304  HIT %: 0.864916  MISS %: 99.1351  AVERAGE MISS PENALTY: 955.43
LLC5 RFO       ACCESS: 149716  HIT:    67  MISS: 149649  HIT %: 0.0447514  MISS %: 99.9552  AVERAGE MISS PENALTY: 1002.54
LLC5 PREFETCH  ACCESS: 413576  HIT:  3977  MISS: 409599  HIT %: 0.961613  MISS %: 99.0384  AVERAGE MISS PENALTY: 941.522
LLC5 WRITEBACK ACCESS: 183031  HIT: 156135  MISS: 26896  HIT %: 85.3052  MISS %: 14.6948  AVERAGE MISS PENALTY: 0
LLC5 PREFETCH  REQUESTED:     0  ISSUED:     0  USEFUL:   678  USELESS: 3289514
 USEFUL LOAD PREFETCHES:        678 PREFETCH ISSUED TO LOWER LEVEL:   28295657  ACCURACY: 0.00239613
 TIMELY PREFETCHES:        678 LATE PREFETCHES: 0 DROPPED PREFETCHES: 0
LLC5 AVERAGE MISS LATENCY: 914.339 cycles
LLC6 TOTAL     ACCESS: 752691  HIT: 159538  MISS: 593153  HIT %: 21.1957  MISS %: 78.8043  AVERAGE MISS PENALTY: 913.538
LLC6 LOAD      ACCESS:  6359  HIT:    83  MISS:  6276  HIT %: 1.30524  MISS %: 98.6948  AVERAGE MISS PENALTY: 1075.91
LLC6 RFO       ACCESS: 149719  HIT:    77  MISS: 149642  HIT %: 0.0514297  MISS %: 99.9486  AVERAGE MISS PENALTY: 968.316
LLC6 PREFETCH  ACCESS: 413598  HIT:  4265  MISS: 409333  HIT %: 1.03119  MISS %: 98.9688  AVERAGE MISS PENALTY: 953.294
LLC6 WRITEBACK ACCESS: 183015  HIT: 155113  MISS: 27902  HIT %: 84.7543  MISS %: 15.2457  AVERAGE MISS PENALTY: 0
LLC6 PREFETCH  REQUESTED:     0  ISSUED:     0  USEFUL:   683  USELESS: 3287163
 USEFUL LOAD PREFETCHES:        683 PREFETCH ISSUED TO LOWER LEVEL:   35060703  ACCURACY: 0.00194805
 TIMELY PREFETCHES:        683 LATE PREFETCHES: 0 DROPPED PREFETCHES: 0
LLC6 AVERAGE MISS LATENCY: 913.538 cycles
LLC7 TOTAL     ACCESS: 752541  HIT: 158124  MISS: 594417  HIT %: 21.012  MISS %: 78.988  AVERAGE MISS PENALTY: 891.484
LLC7 LOAD      ACCESS:  6341  HIT:    59  MISS:  6282  HIT %: 0.930453  MISS %: 99.0695  AVERAGE MISS PENALTY: 1043.97
LLC7 RFO       ACCESS: 149723  HIT:    94  MISS: 149629  HIT %: 0.0627826  MISS %: 99.9372  AVERAGE MISS PENALTY: 952.014
LLC7 PREFETCH  ACCESS: 413462  HIT:  4554  MISS: 408908  HIT %: 1.10143  MISS %: 98.8986  AVERAGE MISS PENALTY: 931.52
LLC7 WRITEBACK ACCESS: 183015  HIT: 153417  MISS: 29598  HIT %: 83.8276  MISS %: 16.1724  AVERAGE MISS PENALTY: 0
LLC7 PREFETCH  REQUESTED:     0  ISSUED:     0  USEFUL:   752  USELESS: 3283497
 USEFUL LOAD PREFETCHES:        752 PREFETCH ISSUED TO LOWER LEVEL:   33509430  ACCURACY: 0.00224414
 TIMELY PREFETCHES:        752 LATE PREFETCHES: 0 DROPPED PREFETCHES: 0
LLC7 AVERAGE MISS LATENCY: 891.484 cycles
ROI Average ROB Stall Cycles:	30.0633
ROI Total ROB Stalls Cycles:	481341736
ROI TOTAL ROB counter      :	16010923
ROI Average Load ROB Stall Cycles:	126.877
ROI Total Load ROB Stalls Cycle  :	383617360
ROI Total Load ROB stalls Counter:	3023539
Major fault: 0 Minor fault: 49369

CPU 7 cumulative IPC: 0.376837 instructions: 200000003 cycles: 530733258
ITLB TOTAL     ACCESS: 35063521  HIT: 35063521  MISS:     0  HIT %:   100  MISS %:     0  AVERAGE MISS PENALTY: 0
ITLB LOAD      ACCESS: 35063521  HIT: 35063521  MISS:     0  HIT %:   100  MISS %:     0  AVERAGE MISS PENALTY: 0
ITLB RFO       ACCESS:     0  HIT:     0  MISS:     0  HIT %:     0  MISS %:     0  AVERAGE MISS PENALTY: 0
ITLB PREFETCH  ACCESS:     0  HIT:     0  MISS:     0  HIT %:     0  MISS %:     0  AVERAGE MISS PENALTY: 0
ITLB WRITEBACK ACCESS:     0  HIT:     0  MISS:     0  HIT %:     0  MISS %:     0  AVERAGE MISS PENALTY: 0
ITLB PREFETCH  REQUESTED:     0  ISSUED:     0  USEFUL:     0  USELESS:     0
 USEFUL LOAD PREFETCHES:          0 PREFETCH ISSUED TO LOWER LEVEL:          0  ACCURACY: -nan
 TIMELY PREFETCHES:          0 LATE PREFETCHES: 0 DROPPED PREFETCHES: 0
ITLB AVERAGE MISS LATENCY: -nan cycles
DTLB TOTAL     ACCESS: 54387927  HIT: 54286584  MISS: 101343  HIT %: 99.8137  MISS %: 0.186334  AVERAGE MISS PENALTY: 118.681
DTLB LOAD      ACCESS: 47649324  HIT: 47566734  MISS: 82590  HIT %: 99.8267  MISS %: 0.173329  AVERAGE MISS PENALTY: 120.775
DTLB RFO       ACCESS: 6738603  HIT: 6719850  MISS: 18753  HIT %: 99.7217  MISS %: 0.278292  AVERAGE MISS PENALTY: 109.461
DTLB PREFETCH  ACCESS:     0  HIT:     0  MISS:     0  HIT %:     0  MISS %:     0  AVERAGE MISS PENALTY: 0
DTLB WRITEBACK ACCESS:     0  HIT:     0  MISS:     0  HIT %:     0  MISS %:     0  AVERAGE MISS PENALTY: 0
DTLB PREFETCH  REQUESTED:     0  ISSUED:     0  USEFUL:     0  USELESS:     0
 USEFUL LOAD PREFETCHES:          0 PREFETCH ISSUED TO LOWER LEVEL:          0  ACCURACY: -nan
 TIMELY PREFETCHES:          0 LATE PREFETCHES: 0 DROPPED PREFETCHES: 0
DTLB AVERAGE MISS LATENCY: 118.681 cycles
STLB TOTAL     ACCESS: 101343  HIT:   733  MISS: 100610  HIT %: 0.723286  MISS %: 99.2767  AVERAGE MISS PENALTY: 100
STLB LOAD      ACCESS: 82590  HIT:   731  MISS: 81859  HIT %: 0.885095  MISS %: 99.1149  AVERAGE MISS PENALTY: 100
STLB RFO       ACCESS: 18753  HIT:     2  MISS: 18751  HIT %: 0.010665  MISS %: 99.9893  AVERAGE MISS PENALTY: 100
STLB PREFETCH  ACCESS:     0  HIT:     0  MISS:     0  HIT %:     0  MISS %:     0  AVERAGE MISS PENALTY: 0
STLB WRITEBACK ACCESS:     0  HIT:     0  MISS:     0  HIT %:     0  MISS %:     0  AVERAGE MISS PENALTY: 0
STLB PREFETCH  REQUESTED:     0  ISSUED:     0  USEFUL:     0  USELESS:     0
 USEFUL LOAD PREFETCHES:          0 PREFETCH ISSUED TO LOWER LEVEL:          0  ACCURACY: -nan
 TIMELY PREFETCHES:          0 LATE PREFETCHES: 0 DROPPED PREFETCHES: 0
STLB AVERAGE MISS LATENCY: 100 cycles
L1D TOTAL     ACCESS: 56650359  HIT: 52136268  MISS: 4514091  HIT %: 92.0317  MISS %: 7.96834  AVERAGE MISS PENALTY: 6.08863e+07
L1D LOAD      ACCESS: 43014708  HIT: 42154804  MISS: 859904  HIT %: 98.0009  MISS %: 1.99909  AVERAGE MISS PENALTY: 3.19621e+08
L1D RFO       ACCESS: 4049513  HIT: 2851751  MISS: 1197762  HIT %: 70.4221  MISS %: 29.5779  AVERAGE MISS PENALTY: 1564.81
L1D PREFETCH  ACCESS: 9586138  HIT: 7129713  MISS: 2456425  HIT %: 74.3752  MISS %: 25.6248  AVERAGE MISS PENALTY: 414.865
L1D WRITEBACK ACCESS:     0  HIT:     0  MISS:     0  HIT %:     0  MISS %:     0  AVERAGE MISS PENALTY: 0
L1D PREFETCH  REQUESTED: 14973318  ISSUED: 14888607  USEFUL: 2375000  USELESS: 81421
 USEFUL LOAD PREFETCHES:    2375000 PREFETCH ISSUED TO LOWER LEVEL:   17275344  ACCURACY: 13.7479
 TIMELY PREFETCHES:    2375000 LATE PREFETCHES: 867004 DROPPED PREFETCHES: 84711
L1D AVERAGE MISS LATENCY: 767.13 cycles
L1I TOTAL     ACCESS: 48268608  HIT: 48268608  MISS:     0  HIT %:   100  MISS %:     0  AVERAGE MISS PENALTY: 0
L1I LOAD      ACCESS: 48268608  HIT: 48268608  MISS:     0  HIT %:   100  MISS %:     0  AVERAGE MISS PENALTY: 0
L1I RFO       ACCESS:     0  HIT:     0  MISS:     0  HIT %:     0  MISS %:     0  AVERAGE MISS PENALTY: 0
L1I PREFETCH  ACCESS:     0  HIT:     0  MISS:     0  HIT %:     0  MISS %:     0  AVERAGE MISS PENALTY: 0
L1I WRITEBACK ACCESS:     0  HIT:     0  MISS:     0  HIT %:     0  MISS %:     0  AVERAGE MISS PENALTY: 0
L1I PREFETCH  REQUESTED:     0  ISSUED:     0  USEFUL:     0  USELESS:     0
 USEFUL LOAD PREFETCHES:          0 PREFETCH ISSUED TO LOWER LEVEL:          0  ACCURACY: -nan
 TIMELY PREFETCHES:          0 LATE PREFETCHES: 0 DROPPED PREFETCHES: 0
L1I AVERAGE MISS LATENCY: -nan cycles
L2C TOTAL     ACCESS: 7357725  HIT: 2783131  MISS: 4574594  HIT %: 37.826  MISS %: 62.174  AVERAGE MISS PENALTY: 5.85841e+07
L2C LOAD      ACCESS: 842510  HIT:  2436  MISS: 840074  HIT %: 0.289136  MISS %: 99.7109  AVERAGE MISS PENALTY: 3.19014e+08
L2C RFO       ACCESS: 1197760  HIT:    11  MISS: 1197749  HIT %: 0.000918381  MISS %: 99.9991  AVERAGE MISS PENALTY: 1012.25
L2C PREFETCH  ACCESS: 3853322  HIT: 1337160  MISS: 2516162  HIT %: 34.7015  MISS %: 65.2985  AVERAGE MISS PENALTY: 842.359
L2C WRITEBACK ACCESS: 1464133  HIT: 1443524  MISS: 20609  HIT %: 98.5924  MISS %: 1.40759  AVERAGE MISS PENALTY: 0
L2C PREFETCH  REQUESTED: 4857170  ISSUED: 4857170  USEFUL:  1558  USELESS: 2516456
 USEFUL LOAD PREFETCHES:       1558 PREFETCH ISSUED TO LOWER LEVEL:    5657448  ACCURACY: 0.0275389
 TIMELY PREFETCHES:       1558 LATE PREFETCHES: 758249 DROPPED PREFETCHES: 0
L2C AVERAGE MISS LATENCY: 850.715 cycles
LLC0 TOTAL     ACCESS: 750914  HIT: 144406  MISS: 606508  HIT %: 19.2307  MISS %: 80.7693  AVERAGE MISS PENALTY: 871.522
LLC0 LOAD      ACCESS: 56010  HIT:   715  MISS: 55295  HIT %: 1.27656  MISS %: 98.7234  AVERAGE MISS PENALTY: 773.902
LLC0 RFO       ACCESS: 149717  HIT:    86  MISS: 149631  HIT %: 0.0574417  MISS %: 99.9426  AVERAGE MISS PENALTY: 988.883
LLC0 PREFETCH  ACCESS: 362278  HIT:  5271  MISS: 357007  HIT %: 1.45496  MISS %: 98.545  AVERAGE MISS PENALTY: 946.27
LLC0 WRITEBACK ACCESS: 182909  HIT: 138334  MISS: 44575  HIT %: 75.63  MISS %: 24.37  AVERAGE MISS PENALTY: 0
LLC0 PREFETCH  REQUESTED:     0  ISSUED:     0  USEFUL:  1008  USELESS: 2866887
 USEFUL LOAD PREFETCHES:       1008 PREFETCH ISSUED TO LOWER LEVEL:   21741850  ACCURACY: 0.00463622
 TIMELY PREFETCHES:       1008 LATE PREFETCHES: 0 DROPPED PREFETCHES: 0
LLC0 AVERAGE MISS LATENCY: 871.522 cycles
Deadblocks : 440562 Deadblock percentage : 796.748

LLC1 TOTAL     ACCESS: 751620  HIT: 150165  MISS: 601455  HIT %: 19.9788  MISS %: 80.0212  AVERAGE MISS PENALTY: 879.244
LLC1 LOAD      ACCESS: 11217  HIT:   102  MISS: 11115  HIT %: 0.909334  MISS %: 99.0907  AVERAGE MISS PENALTY: 850.249
LLC1 RFO       ACCESS: 149717  HIT:    60  MISS: 149657  HIT %: 0.0400756  MISS %: 99.9599  AVERAGE MISS PENALTY: 990.35
LLC1 PREFETCH  ACCESS: 407783  HIT:  4938  MISS: 402845  HIT %: 1.21094  MISS %: 98.7891  AVERAGE MISS PENALTY: 921.353
LLC1 WRITEBACK ACCESS: 182903  HIT: 145065  MISS: 37838  HIT %: 79.3125  MISS %: 20.6875  AVERAGE MISS PENALTY: 0
LLC1 PREFETCH  REQUESTED:     0  ISSUED:     0  USEFUL:  1102  USELESS: 3233379
 USEFUL LOAD PREFETCHES:       1102 PREFETCH ISSUED TO LOWER LEVEL:   22319993  ACCURACY: 0.00493728
 TIMELY PREFETCHES:       1102 LATE PREFETCHES: 0 DROPPED PREFETCHES: 0
LLC1 AVERAGE MISS LATENCY: 879.244 cycles
LLC2 TOTAL     ACCESS: 751953  HIT: 155625  MISS: 596328  HIT %: 20.6961  MISS %: 79.3039  AVERAGE MISS PENALTY: 876.151
LLC2 LOAD      ACCESS:  6282  HIT:    62  MISS:  6220  HIT %: 0.986947  MISS %: 99.0131  AVERAGE MISS PENALTY: 1032.81
LLC2 RFO       ACCESS: 149725  HIT:    36  MISS: 149689  HIT %: 0.0240441  MISS %: 99.976  AVERAGE MISS PENALTY: 934.491
LLC2 PREFETCH  ACCESS: 412995  HIT:  4126  MISS: 408869  HIT %: 0.999044  MISS %: 99.001  AVERAGE MISS PENALTY: 920.017
LLC2 WRITEBACK ACCESS: 182951  HIT: 151401  MISS: 31550  HIT %: 82.7549  MISS %: 17.2451  AVERAGE MISS PENALTY: 0
LLC2 PREFETCH  REQUESTED:     0  ISSUED:     0  USEFUL:   687  USELESS: 3281985
 USEFUL LOAD PREFETCHES:        687 PREFETCH ISSUED TO LOWER LEVEL:   26918163  ACCURACY: 0.00255218
 TIMELY PREFETCHES:        687 LATE PREFETCHES: 0 DROPPED PREFETCHES: 0
LLC2 AVERAGE MISS LATENCY: 876.151 cycles
LLC3 TOTAL     ACCESS: 752440  HIT: 157964  MISS: 594476  HIT %: 20.9936  MISS %: 79.0064  AVERAGE MISS PENALTY: 880.23
LLC3 LOAD      ACCESS:  6275  HIT:    83  MISS:  6192  HIT %: 1.32271  MISS %: 98.6773  AVERAGE MISS PENALTY: 1036.36
LLC3 RFO       ACCESS: 149715  HIT:    43  MISS: 149672  HIT %: 0.0287212  MISS %: 99.9713  AVERAGE MISS PENALTY: 938.025
LLC3 PREFETCH  ACCESS: 413543  HIT:  3942  MISS: 409601  HIT %: 0.953226  MISS %: 99.0468  AVERAGE MISS PENALTY: 919.095
LLC3 WRITEBACK ACCESS: 182907  HIT: 153896  MISS: 29011  HIT %: 84.1389  MISS %: 15.8611  AVERAGE MISS PENALTY: 0
LLC3 PREFETCH  REQUESTED:     0  ISSUED:     0  USEFUL:   648  USELESS: 3288916
 USEFUL LOAD PREFETCHES:        648 PREFETCH ISSUED TO LOWER LEVEL:   25668151  ACCURACY: 0.00252453
 TIMELY PREFETCHES:        648 LATE PREFETCHES: 0 DROPPED PREFETCHES: 0
LLC3 AVERAGE MISS LATENCY: 880.23 cycles
LLC4 TOTAL     ACCESS: 752934  HIT: 157802  MISS: 595132  HIT %: 20.9583  MISS %: 79.0417  AVERAGE MISS PENALTY: 945.586
LLC4 LOAD      ACCESS:  6343  HIT:    51  MISS:  6292  HIT %: 0.804036  MISS %: 99.196  AVERAGE MISS PENALTY: 958.329
LLC4 RFO       ACCESS: 149717  HIT:    50  MISS: 149667  HIT %: 0.0333963  MISS %: 99.9666  AVERAGE MISS PENALTY: 1029.53
LLC4 PREFETCH  ACCESS: 413951  HIT:  3772  MISS: 410179  HIT %: 0.911219  MISS %: 99.0888  AVERAGE MISS PENALTY: 981.599
LLC4 WRITEBACK ACCESS: 182923  HIT: 153929  MISS: 28994  HIT %: 84.1496  MISS %: 15.8504  AVERAGE MISS PENALTY: 0
LLC4 PREFETCH  REQUESTED:     0  ISSUED:     0  USEFUL:   635  USELESS: 3292277
 USEFUL LOAD PREFETCHES:        635 PREFETCH ISSUED TO LOWER LEVEL:   31006148  ACCURACY: 0.00204798
 TIMELY PREFETCHES:        635 LATE PREFETCHES: 0 DROPPED PREFETCHES: 0
LLC4 AVERAGE MISS LATENCY: 945.586 cycles
LLC5 TOTAL     ACCESS: 752589  HIT: 158233  MISS: 594356  HIT %: 21.0252  MISS %: 78.9748  AVERAGE MISS PENALTY: 914.28
LLC5 LOAD      ACCESS:  6363  HIT:    70  MISS:  6293  HIT %: 1.10011  MISS %: 98.8999  AVERAGE MISS PENALTY: 944.558
LLC5 RFO       ACCESS: 149716  HIT:    42  MISS: 149674  HIT %: 0.0280531  MISS %: 99.9719  AVERAGE MISS PENALTY: 1005.41
LLC5 PREFETCH  ACCESS: 413587  HIT:  3796  MISS: 409791  HIT %: 0.917824  MISS %: 99.0822  AVERAGE MISS PENALTY: 944.335
LLC5 WRITEBACK ACCESS: 182923  HIT: 154325  MISS: 28598  HIT %: 84.3661  MISS %: 15.6339  AVERAGE MISS PENALTY: 0
LLC5 PREFETCH  REQUESTED:     0  ISSUED:     0  USEFUL:   678  USELESS: 3289514
 USEFUL LOAD PREFETCHES:        678 PREFETCH ISSUED TO LOWER LEVEL:   28295657  ACCURACY: 0.00239613
 TIMELY PREFETCHES:        678 LATE PREFETCHES: 0 DROPPED PREFETCHES: 0
LLC5 AVERAGE MISS LATENCY: 914.28 cycles
LLC6 TOTAL     ACCESS: 752498  HIT: 157744  MISS: 594754  HIT %: 20.9627  MISS %: 79.0373  AVERAGE MISS PENALTY: 912.988
LLC6 LOAD      ACCESS:  6355  HIT:    68  MISS:  6287  HIT %: 1.07002  MISS %: 98.93  AVERAGE MISS PENALTY: 1092.05
LLC6 RFO       ACCESS: 149720  HIT:    44  MISS: 149676  HIT %: 0.0293882  MISS %: 99.9706  AVERAGE MISS PENALTY: 970.894
LLC6 PREFETCH  ACCESS: 413511  HIT:  4083  MISS: 409428  HIT %: 0.987398  MISS %: 99.0126  AVERAGE MISS PENALTY: 954.546
LLC6 WRITEBACK ACCESS: 182912  HIT: 153549  MISS: 29363  HIT %: 83.9469  MISS %: 16.0531  AVERAGE MISS PENALTY: 0
LLC6 PREFETCH  REQUESTED:     0  ISSUED:     0  USEFUL:   683  USELESS: 3287163
 USEFUL LOAD PREFETCHES:        683 PREFETCH ISSUED TO LOWER LEVEL:   35060703  ACCURACY: 0.00194805
 TIMELY PREFETCHES:        683 LATE PREFETCHES: 0 DROPPED PREFETCHES: 0
LLC6 AVERAGE MISS LATENCY: 912.988 cycles
LLC7 TOTAL     ACCESS: 752378  HIT: 156049  MISS: 596329  HIT %: 20.7408  MISS %: 79.2592  AVERAGE MISS PENALTY: 890.042
LLC7 LOAD      ACCESS:  6337  HIT:    65  MISS:  6272  HIT %: 1.02572  MISS %: 98.9743  AVERAGE MISS PENALTY: 1052.62
LLC7 RFO       ACCESS: 149722  HIT:    51  MISS: 149671  HIT %: 0.0340631  MISS %: 99.9659  AVERAGE MISS PENALTY: 951.33
LLC7 PREFETCH  ACCESS: 413406  HIT:  4497  MISS: 408909  HIT %: 1.08779  MISS %: 98.9122  AVERAGE MISS PENALTY: 933.628
LLC7 WRITEBACK ACCESS: 182913  HIT: 151436  MISS: 31477  HIT %: 82.7913  MISS %: 17.2087  AVERAGE MISS PENALTY: 0
LLC7 PREFETCH  REQUESTED:     0  ISSUED:     0  USEFUL:   752  USELESS: 3283497
 USEFUL LOAD PREFETCHES:        752 PREFETCH ISSUED TO LOWER LEVEL:   33509430  ACCURACY: 0.00224414
 TIMELY PREFETCHES:        752 LATE PREFETCHES: 0 DROPPED PREFETCHES: 0
LLC7 AVERAGE MISS LATENCY: 890.042 cycles
ROI Average ROB Stall Cycles:	30.2445
ROI Total ROB Stalls Cycles:	484422844
ROI TOTAL ROB counter      :	16016878
ROI Average Load ROB Stall Cycles:	127.867
ROI Total Load ROB Stalls Cycle  :	386500864
ROI Total Load ROB stalls Counter:	3022683
Major fault: 0 Minor fault: 49369








Interconnect Stats 
LINK 0 BW : 0LINK 1 BW : 0LINK 2 BW : 0LINK 3 BW : 0LINK 4 BW : 0LINK 5 BW : 0LINK 6 BW : 0LINK 7 BW : 0
DRAM Statistics
 CHANNEL 0
 RQ ROW_BUFFER_HIT: 5795223  ROW_BUFFER_MISS: 12380674
 DBUS_CONGESTED: 24191442
 WQ ROW_BUFFER_HIT: 472892  ROW_BUFFER_MISS: 5453815  FULL:     0

 CHANNEL 1
 RQ ROW_BUFFER_HIT: 5847038  ROW_BUFFER_MISS: 12341420
 DBUS_CONGESTED: 24191442
 WQ ROW_BUFFER_HIT: 477411  ROW_BUFFER_MISS: 5448942  FULL:     0

 AVG_CONGESTED_CYCLE: 6
DRAM PAGES: 2097152
Allocated PAGES: 394952
L2C destructor called
L1D destructor called
L1I destructor called
STLB destructor called
DTLB destructor called
ITLB destructor called
L2C destructor called
L1D destructor called
L1I destructor called
STLB destructor called
DTLB destructor called
ITLB destructor called
L2C destructor called
L1D destructor called
L1I destructor called
STLB destructor called
DTLB destructor called
ITLB destructor called
L2C destructor called
L1D destructor called
L1I destructor called
STLB destructor called
DTLB destructor called
ITLB destructor called
L2C destructor called
L1D destructor called
L1I destructor called
STLB destructor called
DTLB destructor called
ITLB destructor called
L2C destructor called
L1D destructor called
L1I destructor called
STLB destructor called
DTLB destructor called
ITLB destructor called
L2C destructor called
L1D destructor called
L1I destructor called
STLB destructor called
DTLB destructor called
ITLB destructor called
L2C destructor called
L1D destructor called
L1I destructor called
STLB destructor called
DTLB destructor called
ITLB destructor called
