
*** ChampSim Multicore Out-of-Order Simulator ***

Warmup Instructions: 200000000
Simulation Instructions: 200000000
Number of CPUs: 8
threads:1

L1I Configuration:
L1I_SET:64
L1I_WAY:8
L1I_RQ_SIZE:64
L1I_WQ_SIZE:64
L1I_PQ_SIZE:8
L1I_MSHR_SIZE:8

L1D Configuration:
L1D_SET:64
L1D_WAY:12
L1D_RQ_SIZE:64
L1D_WQ_SIZE:64
L1D_PQ_SIZE:8
L1D_MSHR_SIZE:16

L2C Configuration:
L2C_SET:1024
L2C_WAY:8
L2C_RQ_SIZE:32
L2C_WQ_SIZE:32
L2C_PQ_SIZE:16
L2C_MSHR_SIZE:32

LLC Configuration:
LLC_SET:2048
LLC_WAY:16
LLC SLICES:8
LLC_RQ_SIZE:64
LLC_WQ_SIZE:64
LLC_PQ_SIZE:32
LLC_MSHR_SIZE:64

Interconnect OFF
Attacker deprioritize is: OFF
Off-chip DRAM Size: 8192 MB Channels: 2 Width: 64-bit Data Rate: 3200 MT/s
PAGE SIZE in KB: 4.000000 
PAGE SIZE in MB: 0.003906 
PAGE offset in bits: 12 
CEASER-S_LLC:0
MIRAGE : 1
CEASER_LATENCY:3
REMAP : OFF
Partitions : 1
Multi-Step : OFF
BFS : OFF

CPU 0 runs /home/anubhav/gap/bc-3.trace.gz
CPU 1 runs /home/anubhav/gap/bc-3.trace.gz
CPU 2 runs /home/anubhav/gap/bc-3.trace.gz
CPU 3 runs /home/anubhav/gap/bc-3.trace.gz
CPU 4 runs /home/anubhav/gap/bc-3.trace.gz
CPU 5 runs /home/anubhav/gap/bc-3.trace.gz
CPU 6 runs /home/anubhav/gap/bc-3.trace.gz
CPU 7 runs /home/anubhav/gap/bc-3.trace.gz
CPU 0 Bimodal branch predictor
Initialize Hawkeye state
Initialize Hawkeye state
Initialize Hawkeye state
Initialize Hawkeye state
Initialize Hawkeye state
Initialize Hawkeye state
Initialize Hawkeye state
Initialize Hawkeye state
CPU 1 Bimodal branch predictor
Initialize Hawkeye state
Initialize Hawkeye state
Initialize Hawkeye state
Initialize Hawkeye state
Initialize Hawkeye state
Initialize Hawkeye state
Initialize Hawkeye state
Initialize Hawkeye state
CPU 2 Bimodal branch predictor
Initialize Hawkeye state
Initialize Hawkeye state
Initialize Hawkeye state
Initialize Hawkeye state
Initialize Hawkeye state
Initialize Hawkeye state
Initialize Hawkeye state
Initialize Hawkeye state
CPU 3 Bimodal branch predictor
Initialize Hawkeye state
Initialize Hawkeye state
Initialize Hawkeye state
Initialize Hawkeye state
Initialize Hawkeye state
Initialize Hawkeye state
Initialize Hawkeye state
Initialize Hawkeye state
CPU 4 Bimodal branch predictor
Initialize Hawkeye state
Initialize Hawkeye state
Initialize Hawkeye state
Initialize Hawkeye state
Initialize Hawkeye state
Initialize Hawkeye state
Initialize Hawkeye state
Initialize Hawkeye state
CPU 5 Bimodal branch predictor
Initialize Hawkeye state
Initialize Hawkeye state
Initialize Hawkeye state
Initialize Hawkeye state
Initialize Hawkeye state
Initialize Hawkeye state
Initialize Hawkeye state
Initialize Hawkeye state
CPU 6 Bimodal branch predictor
Initialize Hawkeye state
Initialize Hawkeye state
Initialize Hawkeye state
Initialize Hawkeye state
Initialize Hawkeye state
Initialize Hawkeye state
Initialize Hawkeye state
Initialize Hawkeye state
CPU 7 Bimodal branch predictor
Initialize Hawkeye state
Initialize Hawkeye state
Initialize Hawkeye state
Initialize Hawkeye state
Initialize Hawkeye state
Initialize Hawkeye state
Initialize Hawkeye state
Initialize Hawkeye state
Heartbeat CPU 0 instructions: 10000001 cycles: 7913948 heartbeat IPC: 1.26359 cumulative IPC: 1.26359 (Simulation time: 0 hr 30 min 31 sec) 
 Total Blocks : 262144 Invalid Blocks : 0
Heartbeat CPU 1 instructions: 10000001 cycles: 7914517 heartbeat IPC: 1.2635 cumulative IPC: 1.2635 (Simulation time: 0 hr 30 min 31 sec) 
 Total Blocks : 262144 Invalid Blocks : 0
Heartbeat CPU 2 instructions: 10000001 cycles: 7915005 heartbeat IPC: 1.26342 cumulative IPC: 1.26342 (Simulation time: 0 hr 30 min 31 sec) 
 Total Blocks : 262144 Invalid Blocks : 0
Heartbeat CPU 3 instructions: 10000001 cycles: 7916015 heartbeat IPC: 1.26326 cumulative IPC: 1.26326 (Simulation time: 0 hr 30 min 31 sec) 
 Total Blocks : 262144 Invalid Blocks : 0
Heartbeat CPU 4 instructions: 10000001 cycles: 7916681 heartbeat IPC: 1.26316 cumulative IPC: 1.26316 (Simulation time: 0 hr 30 min 31 sec) 
 Total Blocks : 262144 Invalid Blocks : 0
Heartbeat CPU 5 instructions: 10000001 cycles: 7916939 heartbeat IPC: 1.26311 cumulative IPC: 1.26311 (Simulation time: 0 hr 30 min 31 sec) 
 Total Blocks : 262144 Invalid Blocks : 0
Heartbeat CPU 6 instructions: 10000001 cycles: 7917120 heartbeat IPC: 1.26309 cumulative IPC: 1.26309 (Simulation time: 0 hr 30 min 31 sec) 
 Total Blocks : 262144 Invalid Blocks : 0
Heartbeat CPU 7 instructions: 10000001 cycles: 7917584 heartbeat IPC: 1.26301 cumulative IPC: 1.26301 (Simulation time: 0 hr 30 min 31 sec) 
 Total Blocks : 262144 Invalid Blocks : 0
Heartbeat CPU 0 instructions: 20000002 cycles: 19882945 heartbeat IPC: 0.835492 cumulative IPC: 1.00589 (Simulation time: 0 hr 59 min 20 sec) 
 Total Blocks : 262144 Invalid Blocks : 0
Heartbeat CPU 1 instructions: 20000000 cycles: 19885436 heartbeat IPC: 0.835358 cumulative IPC: 1.00576 (Simulation time: 0 hr 59 min 20 sec) 
 Total Blocks : 262144 Invalid Blocks : 0
Heartbeat CPU 2 instructions: 20000002 cycles: 19888025 heartbeat IPC: 0.835211 cumulative IPC: 1.00563 (Simulation time: 0 hr 59 min 20 sec) 
 Total Blocks : 262144 Invalid Blocks : 0
Heartbeat CPU 3 instructions: 20000002 cycles: 19891155 heartbeat IPC: 0.835063 cumulative IPC: 1.00547 (Simulation time: 0 hr 59 min 21 sec) 
 Total Blocks : 262144 Invalid Blocks : 0
Heartbeat CPU 4 instructions: 20000000 cycles: 19893297 heartbeat IPC: 0.83496 cumulative IPC: 1.00536 (Simulation time: 0 hr 59 min 21 sec) 
 Total Blocks : 262144 Invalid Blocks : 0
Heartbeat CPU 5 instructions: 20000000 cycles: 19895112 heartbeat IPC: 0.834852 cumulative IPC: 1.00527 (Simulation time: 0 hr 59 min 22 sec) 
 Total Blocks : 262144 Invalid Blocks : 0
Heartbeat CPU 6 instructions: 20000000 cycles: 19896910 heartbeat IPC: 0.834739 cumulative IPC: 1.00518 (Simulation time: 0 hr 59 min 22 sec) 
 Total Blocks : 262144 Invalid Blocks : 0
Heartbeat CPU 7 instructions: 20000002 cycles: 19898693 heartbeat IPC: 0.834647 cumulative IPC: 1.00509 (Simulation time: 0 hr 59 min 22 sec) 
 Total Blocks : 262144 Invalid Blocks : 0
Heartbeat CPU 0 instructions: 30000001 cycles: 30353775 heartbeat IPC: 0.955034 cumulative IPC: 0.988345 (Simulation time: 1 hr 34 min 7 sec) 
 Total Blocks : 262144 Invalid Blocks : 0
Heartbeat CPU 1 instructions: 30000001 cycles: 30359845 heartbeat IPC: 0.954708 cumulative IPC: 0.988147 (Simulation time: 1 hr 34 min 9 sec) 
 Total Blocks : 262144 Invalid Blocks : 0
Heartbeat CPU 2 instructions: 30000001 cycles: 30365096 heartbeat IPC: 0.954465 cumulative IPC: 0.987976 (Simulation time: 1 hr 34 min 10 sec) 
 Total Blocks : 262144 Invalid Blocks : 0
Heartbeat CPU 3 instructions: 30000001 cycles: 30371463 heartbeat IPC: 0.95417 cumulative IPC: 0.987769 (Simulation time: 1 hr 34 min 12 sec) 
 Total Blocks : 262144 Invalid Blocks : 0
Heartbeat CPU 4 instructions: 30000001 cycles: 30376216 heartbeat IPC: 0.953933 cumulative IPC: 0.987615 (Simulation time: 1 hr 34 min 13 sec) 
 Total Blocks : 262144 Invalid Blocks : 0
Heartbeat CPU 5 instructions: 30000001 cycles: 30380732 heartbeat IPC: 0.953687 cumulative IPC: 0.987468 (Simulation time: 1 hr 34 min 14 sec) 
 Total Blocks : 262144 Invalid Blocks : 0
Heartbeat CPU 6 instructions: 30000001 cycles: 30385124 heartbeat IPC: 0.953451 cumulative IPC: 0.987325 (Simulation time: 1 hr 34 min 16 sec) 
 Total Blocks : 262144 Invalid Blocks : 0
Heartbeat CPU 7 instructions: 30000001 cycles: 30389377 heartbeat IPC: 0.953227 cumulative IPC: 0.987187 (Simulation time: 1 hr 34 min 17 sec) 
 Total Blocks : 262144 Invalid Blocks : 0
Heartbeat CPU 0 instructions: 40000003 cycles: 40383568 heartbeat IPC: 0.99703 cumulative IPC: 0.990502 (Simulation time: 2 hr 12 min 9 sec) 
 Total Blocks : 262144 Invalid Blocks : 0
Heartbeat CPU 1 instructions: 40000003 cycles: 40393617 heartbeat IPC: 0.996634 cumulative IPC: 0.990256 (Simulation time: 2 hr 12 min 12 sec) 
 Total Blocks : 262144 Invalid Blocks : 0
Heartbeat CPU 2 instructions: 40000003 cycles: 40402868 heartbeat IPC: 0.996237 cumulative IPC: 0.990029 (Simulation time: 2 hr 12 min 14 sec) 
 Total Blocks : 262144 Invalid Blocks : 0
Heartbeat CPU 3 instructions: 40000003 cycles: 40412078 heartbeat IPC: 0.995955 cumulative IPC: 0.989803 (Simulation time: 2 hr 12 min 16 sec) 
 Total Blocks : 262144 Invalid Blocks : 0
Heartbeat CPU 4 instructions: 40000003 cycles: 40419519 heartbeat IPC: 0.995689 cumulative IPC: 0.989621 (Simulation time: 2 hr 12 min 18 sec) 
 Total Blocks : 262144 Invalid Blocks : 0
Heartbeat CPU 5 instructions: 40000003 cycles: 40426806 heartbeat IPC: 0.995414 cumulative IPC: 0.989443 (Simulation time: 2 hr 12 min 19 sec) 
 Total Blocks : 262144 Invalid Blocks : 0
Heartbeat CPU 6 instructions: 40000003 cycles: 40434491 heartbeat IPC: 0.995088 cumulative IPC: 0.989255 (Simulation time: 2 hr 12 min 21 sec) 
 Total Blocks : 262144 Invalid Blocks : 0
Heartbeat CPU 7 instructions: 40000003 cycles: 40440341 heartbeat IPC: 0.99493 cumulative IPC: 0.989111 (Simulation time: 2 hr 12 min 22 sec) 
 Total Blocks : 262144 Invalid Blocks : 0
Heartbeat CPU 0 instructions: 50000000 cycles: 50376686 heartbeat IPC: 1.00069 cumulative IPC: 0.992523 (Simulation time: 2 hr 50 min 54 sec) 
 Total Blocks : 262144 Invalid Blocks : 0
Heartbeat CPU 1 instructions: 50000000 cycles: 50390135 heartbeat IPC: 1.00035 cumulative IPC: 0.992258 (Simulation time: 2 hr 50 min 59 sec) 
 Total Blocks : 262144 Invalid Blocks : 0
Heartbeat CPU 2 instructions: 50000000 cycles: 50403057 heartbeat IPC: 0.999981 cumulative IPC: 0.992003 (Simulation time: 2 hr 51 min 3 sec) 
 Total Blocks : 262144 Invalid Blocks : 0
Heartbeat CPU 3 instructions: 50000000 cycles: 50415265 heartbeat IPC: 0.999681 cumulative IPC: 0.991763 (Simulation time: 2 hr 51 min 7 sec) 
 Total Blocks : 262144 Invalid Blocks : 0
Heartbeat CPU 4 instructions: 50000000 cycles: 50425701 heartbeat IPC: 0.999382 cumulative IPC: 0.991558 (Simulation time: 2 hr 51 min 9 sec) 
 Total Blocks : 262144 Invalid Blocks : 0
Heartbeat CPU 5 instructions: 50000000 cycles: 50435837 heartbeat IPC: 0.999097 cumulative IPC: 0.991359 (Simulation time: 2 hr 51 min 12 sec) 
 Total Blocks : 262144 Invalid Blocks : 0
Heartbeat CPU 6 instructions: 50000000 cycles: 50446874 heartbeat IPC: 0.998763 cumulative IPC: 0.991142 (Simulation time: 2 hr 51 min 15 sec) 
 Total Blocks : 262144 Invalid Blocks : 0
Heartbeat CPU 7 instructions: 50000000 cycles: 50454432 heartbeat IPC: 0.998593 cumulative IPC: 0.990993 (Simulation time: 2 hr 51 min 18 sec) 
 Total Blocks : 262144 Invalid Blocks : 0
Heartbeat CPU 0 instructions: 60000000 cycles: 60352680 heartbeat IPC: 1.00241 cumulative IPC: 0.994156 (Simulation time: 3 hr 30 min 23 sec) 
 Total Blocks : 262144 Invalid Blocks : 0
Heartbeat CPU 1 instructions: 60000000 cycles: 60370167 heartbeat IPC: 1.002 cumulative IPC: 0.993868 (Simulation time: 3 hr 30 min 27 sec) 
 Total Blocks : 262144 Invalid Blocks : 0
Heartbeat CPU 2 instructions: 60000000 cycles: 60386161 heartbeat IPC: 1.00169 cumulative IPC: 0.993605 (Simulation time: 3 hr 30 min 31 sec) 
 Total Blocks : 262144 Invalid Blocks : 0
Heartbeat CPU 3 instructions: 60000000 cycles: 60402259 heartbeat IPC: 1.0013 cumulative IPC: 0.99334 (Simulation time: 3 hr 30 min 35 sec) 
 Total Blocks : 262144 Invalid Blocks : 0
Heartbeat CPU 4 instructions: 60000000 cycles: 60415002 heartbeat IPC: 1.00107 cumulative IPC: 0.993131 (Simulation time: 3 hr 30 min 38 sec) 
 Total Blocks : 262144 Invalid Blocks : 0
Heartbeat CPU 5 instructions: 60000000 cycles: 60427882 heartbeat IPC: 1.0008 cumulative IPC: 0.992919 (Simulation time: 3 hr 30 min 41 sec) 
 Total Blocks : 262144 Invalid Blocks : 0
Heartbeat CPU 6 instructions: 60000000 cycles: 60441836 heartbeat IPC: 1.0005 cumulative IPC: 0.99269 (Simulation time: 3 hr 30 min 44 sec) 
 Total Blocks : 262144 Invalid Blocks : 0
Heartbeat CPU 7 instructions: 60000000 cycles: 60451605 heartbeat IPC: 1.00028 cumulative IPC: 0.992529 (Simulation time: 3 hr 30 min 47 sec) 
 Total Blocks : 262144 Invalid Blocks : 0
Heartbeat CPU 0 instructions: 70000002 cycles: 70239673 heartbeat IPC: 1.01143 cumulative IPC: 0.996588 (Simulation time: 4 hr 10 min 36 sec) 
 Total Blocks : 262144 Invalid Blocks : 0
Heartbeat CPU 1 instructions: 70000002 cycles: 70261324 heartbeat IPC: 1.011 cumulative IPC: 0.996281 (Simulation time: 4 hr 10 min 42 sec) 
 Total Blocks : 262144 Invalid Blocks : 0
Heartbeat CPU 2 instructions: 70000002 cycles: 70280401 heartbeat IPC: 1.01069 cumulative IPC: 0.99601 (Simulation time: 4 hr 10 min 48 sec) 
 Total Blocks : 262144 Invalid Blocks : 0
Heartbeat CPU 3 instructions: 70000002 cycles: 70299391 heartbeat IPC: 1.01039 cumulative IPC: 0.995741 (Simulation time: 4 hr 10 min 53 sec) 
 Total Blocks : 262144 Invalid Blocks : 0
Heartbeat CPU 4 instructions: 70000002 cycles: 70315674 heartbeat IPC: 1.01003 cumulative IPC: 0.995511 (Simulation time: 4 hr 10 min 58 sec) 
 Total Blocks : 262144 Invalid Blocks : 0
Heartbeat CPU 5 instructions: 70000002 cycles: 70330755 heartbeat IPC: 1.00981 cumulative IPC: 0.995297 (Simulation time: 4 hr 11 min 2 sec) 
 Total Blocks : 262144 Invalid Blocks : 0
Heartbeat CPU 6 instructions: 70000002 cycles: 70347346 heartbeat IPC: 1.00954 cumulative IPC: 0.995062 (Simulation time: 4 hr 11 min 7 sec) 
 Total Blocks : 262144 Invalid Blocks : 0
Heartbeat CPU 7 instructions: 70000002 cycles: 70359725 heartbeat IPC: 1.00927 cumulative IPC: 0.994887 (Simulation time: 4 hr 11 min 11 sec) 
 Total Blocks : 262144 Invalid Blocks : 0
Heartbeat CPU 0 instructions: 80000003 cycles: 80063263 heartbeat IPC: 1.01796 cumulative IPC: 0.99921 (Simulation time: 4 hr 54 min 2 sec) 
 Total Blocks : 262144 Invalid Blocks : 0
Heartbeat CPU 1 instructions: 80000003 cycles: 80088871 heartbeat IPC: 1.01755 cumulative IPC: 0.99889 (Simulation time: 4 hr 54 min 9 sec) 
 Total Blocks : 262144 Invalid Blocks : 0
Heartbeat CPU 2 instructions: 80000003 cycles: 80111968 heartbeat IPC: 1.01713 cumulative IPC: 0.998602 (Simulation time: 4 hr 54 min 15 sec) 
 Total Blocks : 262144 Invalid Blocks : 0
Heartbeat CPU 3 instructions: 80000003 cycles: 80133417 heartbeat IPC: 1.01688 cumulative IPC: 0.998335 (Simulation time: 4 hr 54 min 21 sec) 
 Total Blocks : 262144 Invalid Blocks : 0
Heartbeat CPU 4 instructions: 80000003 cycles: 80153085 heartbeat IPC: 1.01653 cumulative IPC: 0.99809 (Simulation time: 4 hr 54 min 26 sec) 
 Total Blocks : 262144 Invalid Blocks : 0
Heartbeat CPU 5 instructions: 80000003 cycles: 80170546 heartbeat IPC: 1.01628 cumulative IPC: 0.997873 (Simulation time: 4 hr 54 min 30 sec) 
 Total Blocks : 262144 Invalid Blocks : 0
Heartbeat CPU 6 instructions: 80000003 cycles: 80189653 heartbeat IPC: 1.01602 cumulative IPC: 0.997635 (Simulation time: 4 hr 54 min 33 sec) 
 Total Blocks : 262144 Invalid Blocks : 0
Heartbeat CPU 7 instructions: 80000003 cycles: 80204044 heartbeat IPC: 1.01581 cumulative IPC: 0.997456 (Simulation time: 4 hr 54 min 37 sec) 
 Total Blocks : 262144 Invalid Blocks : 0
Heartbeat CPU 0 instructions: 90000000 cycles: 89832426 heartbeat IPC: 1.02363 cumulative IPC: 1.00187 (Simulation time: 5 hr 36 min 37 sec) 
 Total Blocks : 262144 Invalid Blocks : 0
Heartbeat CPU 1 instructions: 90000000 cycles: 89861759 heartbeat IPC: 1.02324 cumulative IPC: 1.00154 (Simulation time: 5 hr 36 min 45 sec) 
 Total Blocks : 262144 Invalid Blocks : 0
Heartbeat CPU 2 instructions: 90000000 cycles: 89888185 heartbeat IPC: 1.02289 cumulative IPC: 1.00124 (Simulation time: 5 hr 36 min 51 sec) 
 Total Blocks : 262144 Invalid Blocks : 0
Heartbeat CPU 3 instructions: 90000000 cycles: 89912906 heartbeat IPC: 1.02255 cumulative IPC: 1.00097 (Simulation time: 5 hr 36 min 56 sec) 
 Total Blocks : 262144 Invalid Blocks : 0
Heartbeat CPU 4 instructions: 90000000 cycles: 89935307 heartbeat IPC: 1.02226 cumulative IPC: 1.00072 (Simulation time: 5 hr 37 min 0 sec) 
 Total Blocks : 262144 Invalid Blocks : 0
Heartbeat CPU 5 instructions: 90000000 cycles: 89955408 heartbeat IPC: 1.02199 cumulative IPC: 1.0005 (Simulation time: 5 hr 37 min 5 sec) 
 Total Blocks : 262144 Invalid Blocks : 0
Heartbeat CPU 6 instructions: 90000000 cycles: 89977888 heartbeat IPC: 1.02163 cumulative IPC: 1.00025 (Simulation time: 5 hr 37 min 13 sec) 
 Total Blocks : 262144 Invalid Blocks : 0
Heartbeat CPU 7 instructions: 90000000 cycles: 89994243 heartbeat IPC: 1.02143 cumulative IPC: 1.00006 (Simulation time: 5 hr 37 min 16 sec) 
 Total Blocks : 262144 Invalid Blocks : 0
Heartbeat CPU 0 instructions: 100000002 cycles: 99498932 heartbeat IPC: 1.0345 cumulative IPC: 1.00504 (Simulation time: 6 hr 21 min 27 sec) 
 Total Blocks : 262144 Invalid Blocks : 0
Heartbeat CPU 1 instructions: 100000002 cycles: 99532259 heartbeat IPC: 1.03407 cumulative IPC: 1.0047 (Simulation time: 6 hr 21 min 37 sec) 
 Total Blocks : 262144 Invalid Blocks : 0
Heartbeat CPU 2 instructions: 100000002 cycles: 99562428 heartbeat IPC: 1.03367 cumulative IPC: 1.0044 (Simulation time: 6 hr 21 min 45 sec) 
 Total Blocks : 262144 Invalid Blocks : 0
Heartbeat CPU 3 instructions: 100000002 cycles: 99590592 heartbeat IPC: 1.03331 cumulative IPC: 1.00411 (Simulation time: 6 hr 21 min 53 sec) 
 Total Blocks : 262144 Invalid Blocks : 0
Heartbeat CPU 4 instructions: 100000002 cycles: 99615756 heartbeat IPC: 1.03301 cumulative IPC: 1.00386 (Simulation time: 6 hr 22 min 0 sec) 
 Total Blocks : 262144 Invalid Blocks : 0
Heartbeat CPU 5 instructions: 100000002 cycles: 99639162 heartbeat IPC: 1.03266 cumulative IPC: 1.00362 (Simulation time: 6 hr 22 min 6 sec) 
 Total Blocks : 262144 Invalid Blocks : 0
Heartbeat CPU 6 instructions: 100000002 cycles: 99663871 heartbeat IPC: 1.03242 cumulative IPC: 1.00337 (Simulation time: 6 hr 22 min 13 sec) 
 Total Blocks : 262144 Invalid Blocks : 0
Heartbeat CPU 7 instructions: 100000002 cycles: 99682642 heartbeat IPC: 1.03216 cumulative IPC: 1.00318 (Simulation time: 6 hr 22 min 18 sec) 
 Total Blocks : 262144 Invalid Blocks : 0
Heartbeat CPU 0 instructions: 110000000 cycles: 109192316 heartbeat IPC: 1.03163 cumulative IPC: 1.0074 (Simulation time: 7 hr 7 min 48 sec) 
 Total Blocks : 262144 Invalid Blocks : 0
Heartbeat CPU 1 instructions: 110000000 cycles: 109229594 heartbeat IPC: 1.03121 cumulative IPC: 1.00705 (Simulation time: 7 hr 7 min 59 sec) 
 Total Blocks : 262144 Invalid Blocks : 0
Heartbeat CPU 2 instructions: 110000000 cycles: 109263059 heartbeat IPC: 1.03086 cumulative IPC: 1.00674 (Simulation time: 7 hr 8 min 9 sec) 
 Total Blocks : 262144 Invalid Blocks : 0
Heartbeat CPU 3 instructions: 110000000 cycles: 109294445 heartbeat IPC: 1.03052 cumulative IPC: 1.00646 (Simulation time: 7 hr 8 min 18 sec) 
 Total Blocks : 262144 Invalid Blocks : 0
Heartbeat CPU 4 instructions: 110000000 cycles: 109322922 heartbeat IPC: 1.03017 cumulative IPC: 1.00619 (Simulation time: 7 hr 8 min 26 sec) 
 Total Blocks : 262144 Invalid Blocks : 0
Heartbeat CPU 5 instructions: 110000000 cycles: 109348744 heartbeat IPC: 1.02991 cumulative IPC: 1.00596 (Simulation time: 7 hr 8 min 33 sec) 
 Total Blocks : 262144 Invalid Blocks : 0
Heartbeat CPU 6 instructions: 110000000 cycles: 109376417 heartbeat IPC: 1.0296 cumulative IPC: 1.0057 (Simulation time: 7 hr 8 min 42 sec) 
 Total Blocks : 262144 Invalid Blocks : 0
Heartbeat CPU 7 instructions: 110000000 cycles: 109398175 heartbeat IPC: 1.02928 cumulative IPC: 1.0055 (Simulation time: 7 hr 8 min 47 sec) 
 Total Blocks : 262144 Invalid Blocks : 0
Heartbeat CPU 0 instructions: 120000000 cycles: 118715009 heartbeat IPC: 1.05012 cumulative IPC: 1.01082 (Simulation time: 7 hr 58 min 1 sec) 
 Total Blocks : 262144 Invalid Blocks : 0
Heartbeat CPU 1 instructions: 120000000 cycles: 118756476 heartbeat IPC: 1.04966 cumulative IPC: 1.01047 (Simulation time: 7 hr 58 min 14 sec) 
 Total Blocks : 262144 Invalid Blocks : 0
Heartbeat CPU 2 instructions: 120000000 cycles: 118793824 heartbeat IPC: 1.04923 cumulative IPC: 1.01015 (Simulation time: 7 hr 58 min 26 sec) 
 Total Blocks : 262144 Invalid Blocks : 0
Heartbeat CPU 3 instructions: 120000000 cycles: 118828159 heartbeat IPC: 1.04891 cumulative IPC: 1.00986 (Simulation time: 7 hr 58 min 37 sec) 
 Total Blocks : 262144 Invalid Blocks : 0
Heartbeat CPU 4 instructions: 120000000 cycles: 118860336 heartbeat IPC: 1.0485 cumulative IPC: 1.00959 (Simulation time: 7 hr 58 min 47 sec) 
 Total Blocks : 262144 Invalid Blocks : 0
Heartbeat CPU 5 instructions: 120000000 cycles: 118889379 heartbeat IPC: 1.04815 cumulative IPC: 1.00934 (Simulation time: 7 hr 58 min 56 sec) 
 Total Blocks : 262144 Invalid Blocks : 0
Heartbeat CPU 6 instructions: 120000000 cycles: 118919401 heartbeat IPC: 1.04789 cumulative IPC: 1.00909 (Simulation time: 7 hr 59 min 5 sec) 
 Total Blocks : 262144 Invalid Blocks : 0
Heartbeat CPU 7 instructions: 120000000 cycles: 118943967 heartbeat IPC: 1.04758 cumulative IPC: 1.00888 (Simulation time: 7 hr 59 min 12 sec) 
 Total Blocks : 262144 Invalid Blocks : 0
Heartbeat CPU 0 instructions: 130000001 cycles: 128367718 heartbeat IPC: 1.03598 cumulative IPC: 1.01272 (Simulation time: 8 hr 48 min 10 sec) 
 Total Blocks : 262144 Invalid Blocks : 0
Heartbeat CPU 1 instructions: 130000001 cycles: 128413018 heartbeat IPC: 1.03557 cumulative IPC: 1.01236 (Simulation time: 8 hr 48 min 20 sec) 
 Total Blocks : 262144 Invalid Blocks : 0
Heartbeat CPU 2 instructions: 130000001 cycles: 128453863 heartbeat IPC: 1.03519 cumulative IPC: 1.01204 (Simulation time: 8 hr 48 min 29 sec) 
 Total Blocks : 262144 Invalid Blocks : 0
Heartbeat CPU 3 instructions: 130000001 cycles: 128491859 heartbeat IPC: 1.0348 cumulative IPC: 1.01174 (Simulation time: 8 hr 48 min 39 sec) 
 Total Blocks : 262144 Invalid Blocks : 0
Heartbeat CPU 4 instructions: 130000001 cycles: 128526543 heartbeat IPC: 1.03453 cumulative IPC: 1.01146 (Simulation time: 8 hr 48 min 48 sec) 
 Total Blocks : 262144 Invalid Blocks : 0
Heartbeat CPU 5 instructions: 130000001 cycles: 128559484 heartbeat IPC: 1.03412 cumulative IPC: 1.01121 (Simulation time: 8 hr 48 min 56 sec) 
 Total Blocks : 262144 Invalid Blocks : 0
Heartbeat CPU 6 instructions: 130000001 cycles: 128592012 heartbeat IPC: 1.03385 cumulative IPC: 1.01095 (Simulation time: 8 hr 49 min 4 sec) 
 Total Blocks : 262144 Invalid Blocks : 0
Heartbeat CPU 7 instructions: 130000001 cycles: 128618802 heartbeat IPC: 1.03361 cumulative IPC: 1.01074 (Simulation time: 8 hr 49 min 11 sec) 
 Total Blocks : 262144 Invalid Blocks : 0
Heartbeat CPU 0 instructions: 140000000 cycles: 137946901 heartbeat IPC: 1.04393 cumulative IPC: 1.01488 (Simulation time: 9 hr 41 min 14 sec) 
 Total Blocks : 262144 Invalid Blocks : 0
Heartbeat CPU 1 instructions: 140000000 cycles: 137995264 heartbeat IPC: 1.0436 cumulative IPC: 1.01453 (Simulation time: 9 hr 41 min 27 sec) 
 Total Blocks : 262144 Invalid Blocks : 0
Heartbeat CPU 2 instructions: 140000000 cycles: 138040272 heartbeat IPC: 1.04314 cumulative IPC: 1.0142 (Simulation time: 9 hr 41 min 40 sec) 
 Total Blocks : 262144 Invalid Blocks : 0
Heartbeat CPU 3 instructions: 140000000 cycles: 138081730 heartbeat IPC: 1.04277 cumulative IPC: 1.01389 (Simulation time: 9 hr 41 min 53 sec) 
 Total Blocks : 262144 Invalid Blocks : 0
Heartbeat CPU 4 instructions: 140000000 cycles: 138119716 heartbeat IPC: 1.04241 cumulative IPC: 1.01361 (Simulation time: 9 hr 42 min 5 sec) 
 Total Blocks : 262144 Invalid Blocks : 0
Heartbeat CPU 5 instructions: 140000000 cycles: 138155093 heartbeat IPC: 1.04214 cumulative IPC: 1.01335 (Simulation time: 9 hr 42 min 16 sec) 
 Total Blocks : 262144 Invalid Blocks : 0
Heartbeat CPU 6 instructions: 140000000 cycles: 138190781 heartbeat IPC: 1.0418 cumulative IPC: 1.01309 (Simulation time: 9 hr 42 min 29 sec) 
 Total Blocks : 262144 Invalid Blocks : 0
Heartbeat CPU 7 instructions: 140000000 cycles: 138220105 heartbeat IPC: 1.04153 cumulative IPC: 1.01288 (Simulation time: 9 hr 42 min 41 sec) 
 Total Blocks : 262144 Invalid Blocks : 0
Heartbeat CPU 0 instructions: 150000000 cycles: 147521771 heartbeat IPC: 1.0444 cumulative IPC: 1.0168 (Simulation time: 10 hr 35 min 32 sec) 
 Total Blocks : 262144 Invalid Blocks : 0
Heartbeat CPU 1 instructions: 150000000 cycles: 147573823 heartbeat IPC: 1.044 cumulative IPC: 1.01644 (Simulation time: 10 hr 35 min 48 sec) 
 Total Blocks : 262144 Invalid Blocks : 0
Heartbeat CPU 2 instructions: 150000000 cycles: 147622812 heartbeat IPC: 1.04356 cumulative IPC: 1.0161 (Simulation time: 10 hr 36 min 3 sec) 
 Total Blocks : 262144 Invalid Blocks : 0
Heartbeat CPU 3 instructions: 150000000 cycles: 147667199 heartbeat IPC: 1.04325 cumulative IPC: 1.0158 (Simulation time: 10 hr 36 min 16 sec) 
 Total Blocks : 262144 Invalid Blocks : 0
Heartbeat CPU 4 instructions: 150000000 cycles: 147708219 heartbeat IPC: 1.04292 cumulative IPC: 1.01552 (Simulation time: 10 hr 36 min 29 sec) 
 Total Blocks : 262144 Invalid Blocks : 0
Heartbeat CPU 5 instructions: 150000000 cycles: 147746311 heartbeat IPC: 1.04262 cumulative IPC: 1.01525 (Simulation time: 10 hr 36 min 40 sec) 
 Total Blocks : 262144 Invalid Blocks : 0
Heartbeat CPU 6 instructions: 150000000 cycles: 147785191 heartbeat IPC: 1.04227 cumulative IPC: 1.01499 (Simulation time: 10 hr 36 min 54 sec) 
 Total Blocks : 262144 Invalid Blocks : 0
Heartbeat CPU 7 instructions: 150000000 cycles: 147816886 heartbeat IPC: 1.04202 cumulative IPC: 1.01477 (Simulation time: 10 hr 37 min 6 sec) 
 Total Blocks : 262144 Invalid Blocks : 0
Heartbeat CPU 0 instructions: 160000000 cycles: 156872979 heartbeat IPC: 1.06938 cumulative IPC: 1.01993 (Simulation time: 11 hr 34 min 2 sec) 
 Total Blocks : 262144 Invalid Blocks : 0
Heartbeat CPU 1 instructions: 160000000 cycles: 156929311 heartbeat IPC: 1.06889 cumulative IPC: 1.01957 (Simulation time: 11 hr 34 min 20 sec) 
 Total Blocks : 262144 Invalid Blocks : 0
Heartbeat CPU 2 instructions: 160000000 cycles: 156982109 heartbeat IPC: 1.06846 cumulative IPC: 1.01922 (Simulation time: 11 hr 34 min 38 sec) 
 Total Blocks : 262144 Invalid Blocks : 0
Heartbeat CPU 3 instructions: 160000000 cycles: 157029974 heartbeat IPC: 1.06806 cumulative IPC: 1.01891 (Simulation time: 11 hr 34 min 55 sec) 
 Total Blocks : 262144 Invalid Blocks : 0
Heartbeat CPU 4 instructions: 160000000 cycles: 157074704 heartbeat IPC: 1.06764 cumulative IPC: 1.01862 (Simulation time: 11 hr 35 min 11 sec) 
 Total Blocks : 262144 Invalid Blocks : 0
Heartbeat CPU 5 instructions: 160000000 cycles: 157115638 heartbeat IPC: 1.06731 cumulative IPC: 1.01836 (Simulation time: 11 hr 35 min 24 sec) 
 Total Blocks : 262144 Invalid Blocks : 0
Heartbeat CPU 6 instructions: 160000000 cycles: 157158140 heartbeat IPC: 1.0669 cumulative IPC: 1.01808 (Simulation time: 11 hr 35 min 40 sec) 
 Total Blocks : 262144 Invalid Blocks : 0
Heartbeat CPU 7 instructions: 160000000 cycles: 157191939 heartbeat IPC: 1.06666 cumulative IPC: 1.01786 (Simulation time: 11 hr 35 min 52 sec) 
 Total Blocks : 262144 Invalid Blocks : 0
Heartbeat CPU 0 instructions: 170000000 cycles: 166077815 heartbeat IPC: 1.08639 cumulative IPC: 1.02362 (Simulation time: 12 hr 33 min 0 sec) 
 Total Blocks : 262144 Invalid Blocks : 0
Heartbeat CPU 1 instructions: 170000000 cycles: 166137916 heartbeat IPC: 1.08594 cumulative IPC: 1.02325 (Simulation time: 12 hr 33 min 23 sec) 
 Total Blocks : 262144 Invalid Blocks : 0
Heartbeat CPU 2 instructions: 170000000 cycles: 166195040 heartbeat IPC: 1.08543 cumulative IPC: 1.02289 (Simulation time: 12 hr 33 min 46 sec) 
 Total Blocks : 262144 Invalid Blocks : 0
Heartbeat CPU 3 instructions: 170000000 cycles: 166246450 heartbeat IPC: 1.08501 cumulative IPC: 1.02258 (Simulation time: 12 hr 34 min 6 sec) 
 Total Blocks : 262144 Invalid Blocks : 0
Heartbeat CPU 4 instructions: 170000000 cycles: 166294275 heartbeat IPC: 1.08465 cumulative IPC: 1.02228 (Simulation time: 12 hr 34 min 24 sec) 
 Total Blocks : 262144 Invalid Blocks : 0
Heartbeat CPU 5 instructions: 170000000 cycles: 166338777 heartbeat IPC: 1.08423 cumulative IPC: 1.02201 (Simulation time: 12 hr 34 min 39 sec) 
 Total Blocks : 262144 Invalid Blocks : 0
Heartbeat CPU 6 instructions: 170000000 cycles: 166384213 heartbeat IPC: 1.08388 cumulative IPC: 1.02173 (Simulation time: 12 hr 34 min 54 sec) 
 Total Blocks : 262144 Invalid Blocks : 0
Heartbeat CPU 7 instructions: 170000000 cycles: 166421596 heartbeat IPC: 1.08346 cumulative IPC: 1.0215 (Simulation time: 12 hr 35 min 7 sec) 
 Total Blocks : 262144 Invalid Blocks : 0
Heartbeat CPU 0 instructions: 180000003 cycles: 175099898 heartbeat IPC: 1.10839 cumulative IPC: 1.02798 (Simulation time: 13 hr 21 min 13 sec) 
 Total Blocks : 262144 Invalid Blocks : 0
Heartbeat CPU 1 instructions: 180000003 cycles: 175164024 heartbeat IPC: 1.1079 cumulative IPC: 1.02761 (Simulation time: 13 hr 21 min 31 sec) 
 Total Blocks : 262144 Invalid Blocks : 0
Heartbeat CPU 2 instructions: 180000003 cycles: 175224787 heartbeat IPC: 1.10745 cumulative IPC: 1.02725 (Simulation time: 13 hr 21 min 49 sec) 
 Total Blocks : 262144 Invalid Blocks : 0
Heartbeat CPU 3 instructions: 180000003 cycles: 175279084 heartbeat IPC: 1.1071 cumulative IPC: 1.02693 (Simulation time: 13 hr 22 min 5 sec) 
 Total Blocks : 262144 Invalid Blocks : 0
Heartbeat CPU 4 instructions: 180000003 cycles: 175330769 heartbeat IPC: 1.10662 cumulative IPC: 1.02663 (Simulation time: 13 hr 22 min 21 sec) 
 Total Blocks : 262144 Invalid Blocks : 0
Heartbeat CPU 5 instructions: 180000003 cycles: 175378402 heartbeat IPC: 1.10624 cumulative IPC: 1.02635 (Simulation time: 13 hr 22 min 36 sec) 
 Total Blocks : 262144 Invalid Blocks : 0
Heartbeat CPU 6 instructions: 180000003 cycles: 175427902 heartbeat IPC: 1.10574 cumulative IPC: 1.02606 (Simulation time: 13 hr 22 min 50 sec) 
 Total Blocks : 262144 Invalid Blocks : 0
Heartbeat CPU 7 instructions: 180000003 cycles: 175467033 heartbeat IPC: 1.10553 cumulative IPC: 1.02583 (Simulation time: 13 hr 23 min 1 sec) 
 Total Blocks : 262144 Invalid Blocks : 0
Heartbeat CPU 0 instructions: 190000002 cycles: 184066085 heartbeat IPC: 1.1153 cumulative IPC: 1.03224 (Simulation time: 14 hr 3 min 44 sec) 
 Total Blocks : 262144 Invalid Blocks : 0
Heartbeat CPU 1 instructions: 190000002 cycles: 184133988 heartbeat IPC: 1.11483 cumulative IPC: 1.03186 (Simulation time: 14 hr 4 min 5 sec) 
 Total Blocks : 262144 Invalid Blocks : 0
Heartbeat CPU 2 instructions: 190000002 cycles: 184198845 heartbeat IPC: 1.11432 cumulative IPC: 1.03149 (Simulation time: 14 hr 4 min 19 sec) 
 Total Blocks : 262144 Invalid Blocks : 0
Heartbeat CPU 3 instructions: 190000002 cycles: 184256208 heartbeat IPC: 1.11394 cumulative IPC: 1.03117 (Simulation time: 14 hr 4 min 36 sec) 
 Total Blocks : 262144 Invalid Blocks : 0
Heartbeat CPU 4 instructions: 190000002 cycles: 184311454 heartbeat IPC: 1.1135 cumulative IPC: 1.03086 (Simulation time: 14 hr 4 min 53 sec) 
 Total Blocks : 262144 Invalid Blocks : 0
Heartbeat CPU 5 instructions: 190000002 cycles: 184361537 heartbeat IPC: 1.1132 cumulative IPC: 1.03058 (Simulation time: 14 hr 5 min 8 sec) 
 Total Blocks : 262144 Invalid Blocks : 0
Heartbeat CPU 6 instructions: 190000002 cycles: 184414870 heartbeat IPC: 1.11272 cumulative IPC: 1.03029 (Simulation time: 14 hr 5 min 19 sec) 
 Total Blocks : 262144 Invalid Blocks : 0
Heartbeat CPU 7 instructions: 190000002 cycles: 184456138 heartbeat IPC: 1.11246 cumulative IPC: 1.03006 (Simulation time: 14 hr 5 min 31 sec) 
 Total Blocks : 262144 Invalid Blocks : 0
Heartbeat CPU 0 instructions: 200000002 cycles: 192995401 heartbeat IPC: 1.11991 cumulative IPC: 1.03629 (Simulation time: 14 hr 46 min 39 sec) 
 Total Blocks : 262144 Invalid Blocks : 0
Heartbeat CPU 1 instructions: 200000002 cycles: 193067287 heartbeat IPC: 1.11941 cumulative IPC: 1.03591 (Simulation time: 14 hr 47 min 1 sec) 
 Total Blocks : 262144 Invalid Blocks : 0
Heartbeat CPU 2 instructions: 200000002 cycles: 193136551 heartbeat IPC: 1.11886 cumulative IPC: 1.03554 (Simulation time: 14 hr 47 min 22 sec) 
 Total Blocks : 262144 Invalid Blocks : 0
Heartbeat CPU 3 instructions: 200000002 cycles: 193196875 heartbeat IPC: 1.11848 cumulative IPC: 1.03521 (Simulation time: 14 hr 47 min 39 sec) 
 Total Blocks : 262144 Invalid Blocks : 0
Heartbeat CPU 4 instructions: 200000002 cycles: 193255321 heartbeat IPC: 1.11808 cumulative IPC: 1.0349 (Simulation time: 14 hr 47 min 56 sec) 
 Total Blocks : 262144 Invalid Blocks : 0
Heartbeat CPU 5 instructions: 200000002 cycles: 193307392 heartbeat IPC: 1.11784 cumulative IPC: 1.03462 (Simulation time: 14 hr 48 min 12 sec) 
 Total Blocks : 262144 Invalid Blocks : 0
Heartbeat CPU 6 instructions: 200000002 cycles: 193364848 heartbeat IPC: 1.11732 cumulative IPC: 1.03431 (Simulation time: 14 hr 48 min 25 sec) 
 Total Blocks : 262144 Invalid Blocks : 0
Heartbeat CPU 7 instructions: 200000002 cycles: 193408835 heartbeat IPC: 1.11698 cumulative IPC: 1.03408 (Simulation time: 14 hr 48 min 38 sec) 
 Total Blocks : 262144 Invalid Blocks : 0

Warmup complete CPU 0 instructions: 200465058 cycles: 193408835 (Simulation time: 14 hr 48 min 38 sec) 
Warmup complete CPU 1 instructions: 200383818 cycles: 193408835 (Simulation time: 14 hr 48 min 38 sec) 
Warmup complete CPU 2 instructions: 200303683 cycles: 193408835 (Simulation time: 14 hr 48 min 38 sec) 
Warmup complete CPU 3 instructions: 200233511 cycles: 193408835 (Simulation time: 14 hr 48 min 38 sec) 
Warmup complete CPU 4 instructions: 200169424 cycles: 193408835 (Simulation time: 14 hr 48 min 38 sec) 
Warmup complete CPU 5 instructions: 200116005 cycles: 193408835 (Simulation time: 14 hr 48 min 38 sec) 
Warmup complete CPU 6 instructions: 200050222 cycles: 193408835 (Simulation time: 14 hr 48 min 38 sec) 
Warmup complete CPU 7 instructions: 200000002 cycles: 193408835 (Simulation time: 14 hr 48 min 38 sec) 

Heartbeat CPU 0 instructions: 210000002 cycles: 376186756 heartbeat IPC: 0.0545877 cumulative IPC: 0.0521668 (Simulation time: 16 hr 56 min 13 sec) 
 Total Blocks : 262144 Invalid Blocks : 0
Heartbeat CPU 1 instructions: 210000003 cycles: 377767989 heartbeat IPC: 0.0541417 cumulative IPC: 0.0521601 (Simulation time: 16 hr 57 min 22 sec) 
 Total Blocks : 262144 Invalid Blocks : 0
Heartbeat CPU 2 instructions: 210000003 cycles: 379454951 heartbeat IPC: 0.0536716 cumulative IPC: 0.0521178 (Simulation time: 16 hr 58 min 39 sec) 
 Total Blocks : 262144 Invalid Blocks : 0
Heartbeat CPU 3 instructions: 210000002 cycles: 380494767 heartbeat IPC: 0.0533909 cumulative IPC: 0.0522032 (Simulation time: 16 hr 59 min 26 sec) 
 Total Blocks : 262144 Invalid Blocks : 0
Heartbeat CPU 4 instructions: 210000002 cycles: 381926207 heartbeat IPC: 0.0530024 cumulative IPC: 0.0521468 (Simulation time: 17 hr 0 min 32 sec) 
 Total Blocks : 262144 Invalid Blocks : 0
Heartbeat CPU 5 instructions: 210000002 cycles: 382664567 heartbeat IPC: 0.0528103 cumulative IPC: 0.0522256 (Simulation time: 17 hr 1 min 9 sec) 
 Total Blocks : 262144 Invalid Blocks : 0
Heartbeat CPU 6 instructions: 210000003 cycles: 384271541 heartbeat IPC: 0.0523816 cumulative IPC: 0.0521306 (Simulation time: 17 hr 2 min 19 sec) 
 Total Blocks : 262144 Invalid Blocks : 0
Heartbeat CPU 7 instructions: 210000002 cycles: 384858316 heartbeat IPC: 0.0522331 cumulative IPC: 0.0522331 (Simulation time: 17 hr 2 min 38 sec) 
 Total Blocks : 262144 Invalid Blocks : 0
Heartbeat CPU 0 instructions: 220000000 cycles: 568256794 heartbeat IPC: 0.0520643 cumulative IPC: 0.0521143 (Simulation time: 19 hr 8 min 11 sec) 
 Total Blocks : 262144 Invalid Blocks : 0
Heartbeat CPU 1 instructions: 220000000 cycles: 570096550 heartbeat IPC: 0.0519943 cumulative IPC: 0.0520754 (Simulation time: 19 hr 9 min 26 sec) 
 Total Blocks : 262144 Invalid Blocks : 0
Heartbeat CPU 2 instructions: 220000000 cycles: 571445132 heartbeat IPC: 0.052086 cumulative IPC: 0.0521017 (Simulation time: 19 hr 10 min 6 sec) 
 Total Blocks : 262144 Invalid Blocks : 0
Heartbeat CPU 3 instructions: 220000000 cycles: 572107307 heartbeat IPC: 0.0521886 cumulative IPC: 0.0521959 (Simulation time: 19 hr 10 min 26 sec) 
 Total Blocks : 262144 Invalid Blocks : 0
Heartbeat CPU 4 instructions: 220000000 cycles: 573763863 heartbeat IPC: 0.0521274 cumulative IPC: 0.052137 (Simulation time: 19 hr 11 min 37 sec) 
 Total Blocks : 262144 Invalid Blocks : 0
Heartbeat CPU 5 instructions: 220000000 cycles: 574878212 heartbeat IPC: 0.0520254 cumulative IPC: 0.0521247 (Simulation time: 19 hr 12 min 22 sec) 
 Total Blocks : 262144 Invalid Blocks : 0
Heartbeat CPU 6 instructions: 220000000 cycles: 576259628 heartbeat IPC: 0.0520866 cumulative IPC: 0.0521085 (Simulation time: 19 hr 13 min 22 sec) 
 Total Blocks : 262144 Invalid Blocks : 0
Heartbeat CPU 7 instructions: 220000000 cycles: 577131941 heartbeat IPC: 0.0520092 cumulative IPC: 0.0521209 (Simulation time: 19 hr 14 min 2 sec) 
 Total Blocks : 262144 Invalid Blocks : 0
Heartbeat CPU 0 instructions: 230000000 cycles: 760576921 heartbeat IPC: 0.0519966 cumulative IPC: 0.0520744 (Simulation time: 21 hr 24 min 42 sec) 
 Total Blocks : 262144 Invalid Blocks : 0
Heartbeat CPU 1 instructions: 230000000 cycles: 761701539 heartbeat IPC: 0.0521907 cumulative IPC: 0.0521143 (Simulation time: 21 hr 25 min 36 sec) 
 Total Blocks : 262144 Invalid Blocks : 0
Heartbeat CPU 2 instructions: 230000000 cycles: 763663227 heartbeat IPC: 0.0520242 cumulative IPC: 0.0520756 (Simulation time: 21 hr 27 min 4 sec) 
 Total Blocks : 262144 Invalid Blocks : 0
Heartbeat CPU 3 instructions: 230000000 cycles: 764192070 heartbeat IPC: 0.0520604 cumulative IPC: 0.0521502 (Simulation time: 21 hr 27 min 28 sec) 
 Total Blocks : 262144 Invalid Blocks : 0
Heartbeat CPU 4 instructions: 230000000 cycles: 765666350 heartbeat IPC: 0.0521098 cumulative IPC: 0.0521279 (Simulation time: 21 hr 28 min 36 sec) 
 Total Blocks : 262144 Invalid Blocks : 0
Heartbeat CPU 5 instructions: 230000000 cycles: 766766219 heartbeat IPC: 0.0521137 cumulative IPC: 0.0521211 (Simulation time: 21 hr 29 min 23 sec) 
 Total Blocks : 262144 Invalid Blocks : 0
Heartbeat CPU 6 instructions: 230000001 cycles: 767744541 heartbeat IPC: 0.0522234 cumulative IPC: 0.0521468 (Simulation time: 21 hr 30 min 10 sec) 
 Total Blocks : 262144 Invalid Blocks : 0
Heartbeat CPU 7 instructions: 230000000 cycles: 769076704 heartbeat IPC: 0.0520983 cumulative IPC: 0.0521134 (Simulation time: 21 hr 31 min 9 sec) 
 Total Blocks : 262144 Invalid Blocks : 0
Heartbeat CPU 0 instructions: 240000001 cycles: 952614439 heartbeat IPC: 0.0520732 cumulative IPC: 0.0520741 (Simulation time: 23 hr 40 min 45 sec) 
 Total Blocks : 262144 Invalid Blocks : 0
Heartbeat CPU 1 instructions: 240000001 cycles: 953366721 heartbeat IPC: 0.0521743 cumulative IPC: 0.0521294 (Simulation time: 23 hr 41 min 7 sec) 
 Total Blocks : 262144 Invalid Blocks : 0
Heartbeat CPU 2 instructions: 240000001 cycles: 955261914 heartbeat IPC: 0.0521924 cumulative IPC: 0.052105 (Simulation time: 23 hr 42 min 20 sec) 
 Total Blocks : 262144 Invalid Blocks : 0
Heartbeat CPU 3 instructions: 240000001 cycles: 955597927 heartbeat IPC: 0.052245 cumulative IPC: 0.052174 (Simulation time: 23 hr 42 min 35 sec) 
 Total Blocks : 262144 Invalid Blocks : 0
Heartbeat CPU 4 instructions: 240000001 cycles: 957324706 heartbeat IPC: 0.0521762 cumulative IPC: 0.05214 (Simulation time: 23 hr 43 min 46 sec) 
 Total Blocks : 262144 Invalid Blocks : 0
Heartbeat CPU 5 instructions: 240000001 cycles: 957803673 heartbeat IPC: 0.0523458 cumulative IPC: 0.0521772 (Simulation time: 23 hr 44 min 6 sec) 
 Total Blocks : 262144 Invalid Blocks : 0
Heartbeat CPU 6 instructions: 240000001 cycles: 958829293 heartbeat IPC: 0.0523328 cumulative IPC: 0.0521932 (Simulation time: 23 hr 44 min 50 sec) 
 Total Blocks : 262144 Invalid Blocks : 0
Heartbeat CPU 7 instructions: 240000001 cycles: 960032524 heartbeat IPC: 0.0523681 cumulative IPC: 0.0521768 (Simulation time: 23 hr 45 min 43 sec) 
 Total Blocks : 262144 Invalid Blocks : 0
Heartbeat CPU 0 instructions: 250000001 cycles: 1143794069 heartbeat IPC: 0.0523068 cumulative IPC: 0.0521209 (Simulation time: 25 hr 59 min 53 sec) 
 Total Blocks : 262144 Invalid Blocks : 0
Heartbeat CPU 1 instructions: 250000001 cycles: 1145173684 heartbeat IPC: 0.0521358 cumulative IPC: 0.0521307 (Simulation time: 26 hr 0 min 52 sec) 
 Total Blocks : 262144 Invalid Blocks : 0
Heartbeat CPU 2 instructions: 250000001 cycles: 1146917423 heartbeat IPC: 0.0521769 cumulative IPC: 0.0521194 (Simulation time: 26 hr 2 min 9 sec) 
 Total Blocks : 262144 Invalid Blocks : 0
Heartbeat CPU 3 instructions: 250000001 cycles: 1147282904 heartbeat IPC: 0.0521689 cumulative IPC: 0.052173 (Simulation time: 26 hr 2 min 26 sec) 
 Total Blocks : 262144 Invalid Blocks : 0
Heartbeat CPU 4 instructions: 250000001 cycles: 1149225724 heartbeat IPC: 0.0521102 cumulative IPC: 0.052134 (Simulation time: 26 hr 3 min 54 sec) 
 Total Blocks : 262144 Invalid Blocks : 0
Heartbeat CPU 5 instructions: 250000001 cycles: 1149357838 heartbeat IPC: 0.0522046 cumulative IPC: 0.0521827 (Simulation time: 26 hr 3 min 59 sec) 
 Total Blocks : 262144 Invalid Blocks : 0
Heartbeat CPU 6 instructions: 250000001 cycles: 1149980559 heartbeat IPC: 0.0523146 cumulative IPC: 0.0522175 (Simulation time: 26 hr 4 min 27 sec) 
 Total Blocks : 262144 Invalid Blocks : 0
Heartbeat CPU 7 instructions: 250000001 cycles: 1151795889 heartbeat IPC: 0.0521476 cumulative IPC: 0.052171 (Simulation time: 26 hr 5 min 48 sec) 
 Total Blocks : 262144 Invalid Blocks : 0
Heartbeat CPU 0 instructions: 260000000 cycles: 1335707779 heartbeat IPC: 0.0521067 cumulative IPC: 0.0521185 (Simulation time: 28 hr 8 min 21 sec) 
 Total Blocks : 262144 Invalid Blocks : 0
Heartbeat CPU 1 instructions: 260000000 cycles: 1336719964 heartbeat IPC: 0.0522067 cumulative IPC: 0.0521434 (Simulation time: 28 hr 9 min 7 sec) 
 Total Blocks : 262144 Invalid Blocks : 0
Heartbeat CPU 2 instructions: 260000000 cycles: 1338985297 heartbeat IPC: 0.0520649 cumulative IPC: 0.0521103 (Simulation time: 28 hr 10 min 48 sec) 
 Total Blocks : 262144 Invalid Blocks : 0
Heartbeat CPU 3 instructions: 260000000 cycles: 1339113499 heartbeat IPC: 0.0521293 cumulative IPC: 0.0521657 (Simulation time: 28 hr 10 min 54 sec) 
 Total Blocks : 262144 Invalid Blocks : 0
Heartbeat CPU 5 instructions: 260000000 cycles: 1340910560 heartbeat IPC: 0.0522049 cumulative IPC: 0.0521864 (Simulation time: 28 hr 12 min 11 sec) 
 Total Blocks : 262144 Invalid Blocks : 0
Heartbeat CPU 4 instructions: 260000000 cycles: 1341262256 heartbeat IPC: 0.0520734 cumulative IPC: 0.0521239 (Simulation time: 28 hr 12 min 26 sec) 
 Total Blocks : 262144 Invalid Blocks : 0
Heartbeat CPU 6 instructions: 260000000 cycles: 1341753059 heartbeat IPC: 0.0521451 cumulative IPC: 0.0522054 (Simulation time: 28 hr 12 min 47 sec) 
 Total Blocks : 262144 Invalid Blocks : 0
Heartbeat CPU 7 instructions: 260000000 cycles: 1343899588 heartbeat IPC: 0.0520552 cumulative IPC: 0.0521517 (Simulation time: 28 hr 14 min 16 sec) 
 Total Blocks : 262144 Invalid Blocks : 0
Heartbeat CPU 0 instructions: 270000001 cycles: 1527773414 heartbeat IPC: 0.0520655 cumulative IPC: 0.0521109 (Simulation time: 30 hr 19 min 12 sec) 
 Total Blocks : 262144 Invalid Blocks : 0
Heartbeat CPU 1 instructions: 270000001 cycles: 1528394144 heartbeat IPC: 0.0521719 cumulative IPC: 0.0521475 (Simulation time: 30 hr 19 min 28 sec) 
 Total Blocks : 262144 Invalid Blocks : 0
Heartbeat CPU 2 instructions: 270000001 cycles: 1530847271 heartbeat IPC: 0.0521208 cumulative IPC: 0.0521118 (Simulation time: 30 hr 20 min 34 sec) 
 Total Blocks : 262144 Invalid Blocks : 0
Heartbeat CPU 3 instructions: 270000001 cycles: 1530869381 heartbeat IPC: 0.0521496 cumulative IPC: 0.0521634 (Simulation time: 30 hr 20 min 34 sec) 
 Total Blocks : 262144 Invalid Blocks : 0
Heartbeat CPU 5 instructions: 270000001 cycles: 1532377122 heartbeat IPC: 0.0522284 cumulative IPC: 0.0521924 (Simulation time: 30 hr 21 min 17 sec) 
 Total Blocks : 262144 Invalid Blocks : 0
Heartbeat CPU 4 instructions: 270000001 cycles: 1533058893 heartbeat IPC: 0.0521386 cumulative IPC: 0.052126 (Simulation time: 30 hr 21 min 34 sec) 
 Total Blocks : 262144 Invalid Blocks : 0
Heartbeat CPU 6 instructions: 270000001 cycles: 1533253643 heartbeat IPC: 0.0522192 cumulative IPC: 0.0522074 (Simulation time: 30 hr 21 min 39 sec) 
 Total Blocks : 262144 Invalid Blocks : 0
Heartbeat CPU 7 instructions: 270000001 cycles: 1535382209 heartbeat IPC: 0.0522241 cumulative IPC: 0.052162 (Simulation time: 30 hr 22 min 39 sec) 
 Total Blocks : 262144 Invalid Blocks : 0
Heartbeat CPU 0 instructions: 280000001 cycles: 1719514751 heartbeat IPC: 0.0521536 cumulative IPC: 0.0521163 (Simulation time: 31 hr 56 min 24 sec) 
 Total Blocks : 262144 Invalid Blocks : 0
Heartbeat CPU 1 instructions: 280000003 cycles: 1719683135 heartbeat IPC: 0.0522769 cumulative IPC: 0.0521637 (Simulation time: 31 hr 56 min 31 sec) 
 Total Blocks : 262144 Invalid Blocks : 0
Heartbeat CPU 2 instructions: 280000003 cycles: 1722581039 heartbeat IPC: 0.0521557 cumulative IPC: 0.0521173 (Simulation time: 31 hr 58 min 39 sec) 
 Total Blocks : 262144 Invalid Blocks : 0
Heartbeat CPU 3 instructions: 280000003 cycles: 1722683201 heartbeat IPC: 0.0521339 cumulative IPC: 0.0521597 (Simulation time: 31 hr 58 min 44 sec) 
 Total Blocks : 262144 Invalid Blocks : 0
Heartbeat CPU 5 instructions: 280000001 cycles: 1723729607 heartbeat IPC: 0.0522596 cumulative IPC: 0.0522008 (Simulation time: 31 hr 59 min 28 sec) 
 Total Blocks : 262144 Invalid Blocks : 0
Heartbeat CPU 4 instructions: 280000003 cycles: 1724572698 heartbeat IPC: 0.0522156 cumulative IPC: 0.0521372 (Simulation time: 32 hr 0 min 4 sec) 
 Total Blocks : 262144 Invalid Blocks : 0
Heartbeat CPU 6 instructions: 280000003 cycles: 1725053405 heartbeat IPC: 0.0521377 cumulative IPC: 0.0521987 (Simulation time: 32 hr 0 min 27 sec) 
 Total Blocks : 262144 Invalid Blocks : 0
Heartbeat CPU 7 instructions: 280000003 cycles: 1726469596 heartbeat IPC: 0.0523321 cumulative IPC: 0.0521832 (Simulation time: 32 hr 1 min 31 sec) 
 Total Blocks : 262144 Invalid Blocks : 0
Heartbeat CPU 0 instructions: 290000000 cycles: 1910957256 heartbeat IPC: 0.052235 cumulative IPC: 0.0521295 (Simulation time: 34 hr 20 min 24 sec) 
 Total Blocks : 262144 Invalid Blocks : 0
Heartbeat CPU 1 instructions: 290000000 cycles: 1911522749 heartbeat IPC: 0.0521269 cumulative IPC: 0.0521596 (Simulation time: 34 hr 20 min 52 sec) 
 Total Blocks : 262144 Invalid Blocks : 0
Heartbeat CPU 2 instructions: 290000001 cycles: 1913940832 heartbeat IPC: 0.0522576 cumulative IPC: 0.0521329 (Simulation time: 34 hr 22 min 48 sec) 
 Total Blocks : 262144 Invalid Blocks : 0
Heartbeat CPU 3 instructions: 290000000 cycles: 1914274893 heartbeat IPC: 0.0521943 cumulative IPC: 0.0521636 (Simulation time: 34 hr 23 min 5 sec) 
 Total Blocks : 262144 Invalid Blocks : 0
Heartbeat CPU 5 instructions: 290000000 cycles: 1915050969 heartbeat IPC: 0.0522681 cumulative IPC: 0.0522083 (Simulation time: 34 hr 23 min 43 sec) 
 Total Blocks : 262144 Invalid Blocks : 0
Heartbeat CPU 4 instructions: 290000000 cycles: 1915776305 heartbeat IPC: 0.0523003 cumulative IPC: 0.0521553 (Simulation time: 34 hr 24 min 18 sec) 
 Total Blocks : 262144 Invalid Blocks : 0
Heartbeat CPU 6 instructions: 290000000 cycles: 1916802399 heartbeat IPC: 0.0521515 cumulative IPC: 0.0521934 (Simulation time: 34 hr 25 min 5 sec) 
 Total Blocks : 262144 Invalid Blocks : 0
Heartbeat CPU 7 instructions: 290000000 cycles: 1917862979 heartbeat IPC: 0.0522484 cumulative IPC: 0.0521904 (Simulation time: 34 hr 25 min 55 sec) 
 Total Blocks : 262144 Invalid Blocks : 0
Heartbeat CPU 0 instructions: 300000001 cycles: 2102744234 heartbeat IPC: 0.0521412 cumulative IPC: 0.0521307 (Simulation time: 36 hr 45 min 13 sec) 
 Total Blocks : 262144 Invalid Blocks : 0
Heartbeat CPU 1 instructions: 300000001 cycles: 2103118937 heartbeat IPC: 0.0521931 cumulative IPC: 0.052163 (Simulation time: 36 hr 45 min 29 sec) 
 Total Blocks : 262144 Invalid Blocks : 0
Heartbeat CPU 2 instructions: 300000001 cycles: 2105080721 heartbeat IPC: 0.0523177 cumulative IPC: 0.0521514 (Simulation time: 36 hr 47 min 0 sec) 
 Total Blocks : 262144 Invalid Blocks : 0
Heartbeat CPU 3 instructions: 300000001 cycles: 2105576573 heartbeat IPC: 0.0522735 cumulative IPC: 0.0521745 (Simulation time: 36 hr 47 min 24 sec) 
 Total Blocks : 262144 Invalid Blocks : 0
Heartbeat CPU 5 instructions: 300000001 cycles: 2106313131 heartbeat IPC: 0.0522843 cumulative IPC: 0.0522159 (Simulation time: 36 hr 47 min 57 sec) 
 Total Blocks : 262144 Invalid Blocks : 0
Heartbeat CPU 4 instructions: 300000000 cycles: 2107225616 heartbeat IPC: 0.0522331 cumulative IPC: 0.0521631 (Simulation time: 36 hr 48 min 38 sec) 
 Total Blocks : 262144 Invalid Blocks : 0
Heartbeat CPU 6 instructions: 300000001 cycles: 2108517083 heartbeat IPC: 0.0521609 cumulative IPC: 0.0521901 (Simulation time: 36 hr 49 min 37 sec) 
 Total Blocks : 262144 Invalid Blocks : 0
Heartbeat CPU 7 instructions: 300000000 cycles: 2108971084 heartbeat IPC: 0.0523264 cumulative IPC: 0.052204 (Simulation time: 36 hr 49 min 58 sec) 
 Total Blocks : 262144 Invalid Blocks : 0
Heartbeat CPU 0 instructions: 310000002 cycles: 2293638509 heartbeat IPC: 0.052385 cumulative IPC: 0.0521538 (Simulation time: 39 hr 9 min 56 sec) 
 Total Blocks : 262144 Invalid Blocks : 0
Heartbeat CPU 1 instructions: 310000003 cycles: 2294537970 heartbeat IPC: 0.0522414 cumulative IPC: 0.0521701 (Simulation time: 39 hr 10 min 36 sec) 
 Total Blocks : 262144 Invalid Blocks : 0
Heartbeat CPU 2 instructions: 310000002 cycles: 2295678810 heartbeat IPC: 0.0524664 cumulative IPC: 0.0521799 (Simulation time: 39 hr 11 min 30 sec) 
 Total Blocks : 262144 Invalid Blocks : 0
Heartbeat CPU 3 instructions: 310000002 cycles: 2296859993 heartbeat IPC: 0.0522785 cumulative IPC: 0.052184 (Simulation time: 39 hr 12 min 26 sec) 
 Total Blocks : 262144 Invalid Blocks : 0
Heartbeat CPU 5 instructions: 310000002 cycles: 2297175127 heartbeat IPC: 0.0523939 cumulative IPC: 0.052232 (Simulation time: 39 hr 12 min 41 sec) 
 Total Blocks : 262144 Invalid Blocks : 0
Heartbeat CPU 4 instructions: 310000003 cycles: 2298354210 heartbeat IPC: 0.0523208 cumulative IPC: 0.0521774 (Simulation time: 39 hr 13 min 38 sec) 
 Total Blocks : 262144 Invalid Blocks : 0
Heartbeat CPU 6 instructions: 310000002 cycles: 2298882848 heartbeat IPC: 0.0525305 cumulative IPC: 0.0522209 (Simulation time: 39 hr 14 min 3 sec) 
 Total Blocks : 262144 Invalid Blocks : 0
Heartbeat CPU 7 instructions: 310000003 cycles: 2299470620 heartbeat IPC: 0.0524936 cumulative IPC: 0.0522302 (Simulation time: 39 hr 14 min 29 sec) 
 Total Blocks : 262144 Invalid Blocks : 0
Heartbeat CPU 0 instructions: 320000000 cycles: 2485220717 heartbeat IPC: 0.0521969 cumulative IPC: 0.0521574 (Simulation time: 41 hr 36 min 10 sec) 
 Total Blocks : 262144 Invalid Blocks : 0
Heartbeat CPU 1 instructions: 320000001 cycles: 2486409907 heartbeat IPC: 0.0521181 cumulative IPC: 0.0521658 (Simulation time: 41 hr 37 min 6 sec) 
 Total Blocks : 262144 Invalid Blocks : 0
Heartbeat CPU 2 instructions: 320000003 cycles: 2487345035 heartbeat IPC: 0.052174 cumulative IPC: 0.0521794 (Simulation time: 41 hr 37 min 47 sec) 
 Total Blocks : 262144 Invalid Blocks : 0
Heartbeat CPU 3 instructions: 320000001 cycles: 2488858295 heartbeat IPC: 0.0520838 cumulative IPC: 0.0521756 (Simulation time: 41 hr 38 min 58 sec) 
 Total Blocks : 262144 Invalid Blocks : 0
Heartbeat CPU 5 instructions: 320000001 cycles: 2488971191 heartbeat IPC: 0.0521387 cumulative IPC: 0.0522242 (Simulation time: 41 hr 39 min 3 sec) 
 Total Blocks : 262144 Invalid Blocks : 0
Heartbeat CPU 4 instructions: 320000000 cycles: 2489698151 heartbeat IPC: 0.0522619 cumulative IPC: 0.0521844 (Simulation time: 41 hr 39 min 34 sec) 
 Total Blocks : 262144 Invalid Blocks : 0
Heartbeat CPU 6 instructions: 320000003 cycles: 2490581040 heartbeat IPC: 0.0521653 cumulative IPC: 0.0522163 (Simulation time: 41 hr 40 min 14 sec) 
 Total Blocks : 262144 Invalid Blocks : 0
Heartbeat CPU 7 instructions: 320000001 cycles: 2491290155 heartbeat IPC: 0.0521323 cumulative IPC: 0.052222 (Simulation time: 41 hr 40 min 45 sec) 
 Total Blocks : 262144 Invalid Blocks : 0
Heartbeat CPU 0 instructions: 330000000 cycles: 2682146756 heartbeat IPC: 0.0507805 cumulative IPC: 0.0520484 (Simulation time: 43 hr 37 min 13 sec) 
 Total Blocks : 262144 Invalid Blocks : 0
Heartbeat CPU 1 instructions: 330000000 cycles: 2683229588 heartbeat IPC: 0.0508079 cumulative IPC: 0.0520584 (Simulation time: 43 hr 37 min 50 sec) 
 Total Blocks : 262144 Invalid Blocks : 0
Heartbeat CPU 2 instructions: 330000000 cycles: 2684519533 heartbeat IPC: 0.0507165 cumulative IPC: 0.0520637 (Simulation time: 43 hr 38 min 34 sec) 
 Total Blocks : 262144 Invalid Blocks : 0
Heartbeat CPU 5 instructions: 330000000 cycles: 2685648588 heartbeat IPC: 0.0508447 cumulative IPC: 0.0521154 (Simulation time: 43 hr 39 min 13 sec) 
 Total Blocks : 262144 Invalid Blocks : 0
Heartbeat CPU 3 instructions: 330000000 cycles: 2685917427 heartbeat IPC: 0.0507462 cumulative IPC: 0.0520626 (Simulation time: 43 hr 39 min 23 sec) 
 Total Blocks : 262144 Invalid Blocks : 0
Heartbeat CPU 4 instructions: 330000000 cycles: 2686854504 heartbeat IPC: 0.0507212 cumulative IPC: 0.0520687 (Simulation time: 43 hr 39 min 54 sec) 
 Total Blocks : 262144 Invalid Blocks : 0
Heartbeat CPU 6 instructions: 330000000 cycles: 2687804704 heartbeat IPC: 0.0507038 cumulative IPC: 0.0520967 (Simulation time: 43 hr 40 min 27 sec) 
 Total Blocks : 262144 Invalid Blocks : 0
Heartbeat CPU 7 instructions: 330000000 cycles: 2688186279 heartbeat IPC: 0.0507882 cumulative IPC: 0.0521089 (Simulation time: 43 hr 40 min 41 sec) 
 Total Blocks : 262144 Invalid Blocks : 0
Heartbeat CPU 0 instructions: 340000002 cycles: 2882498695 heartbeat IPC: 0.0499122 cumulative IPC: 0.0518893 (Simulation time: 45 hr 27 min 49 sec) 
 Total Blocks : 262144 Invalid Blocks : 0
Heartbeat CPU 1 instructions: 340000002 cycles: 2883477693 heartbeat IPC: 0.0499381 cumulative IPC: 0.0519006 (Simulation time: 45 hr 28 min 21 sec) 
 Total Blocks : 262144 Invalid Blocks : 0
Heartbeat CPU 2 instructions: 340000002 cycles: 2885324635 heartbeat IPC: 0.0497995 cumulative IPC: 0.0518948 (Simulation time: 45 hr 29 min 21 sec) 
 Total Blocks : 262144 Invalid Blocks : 0
Heartbeat CPU 5 instructions: 340000002 cycles: 2886213270 heartbeat IPC: 0.0498592 cumulative IPC: 0.0519473 (Simulation time: 45 hr 29 min 50 sec) 
 Total Blocks : 262144 Invalid Blocks : 0
Heartbeat CPU 3 instructions: 340000002 cycles: 2886506084 heartbeat IPC: 0.0498533 cumulative IPC: 0.051898 (Simulation time: 45 hr 29 min 59 sec) 
 Total Blocks : 262144 Invalid Blocks : 0
Heartbeat CPU 6 instructions: 340000002 cycles: 2887790648 heartbeat IPC: 0.0500035 cumulative IPC: 0.0519413 (Simulation time: 45 hr 30 min 41 sec) 
 Total Blocks : 262144 Invalid Blocks : 0
Heartbeat CPU 4 instructions: 340000002 cycles: 2888078064 heartbeat IPC: 0.049696 cumulative IPC: 0.0518916 (Simulation time: 45 hr 30 min 51 sec) 
 Total Blocks : 262144 Invalid Blocks : 0
Heartbeat CPU 7 instructions: 340000002 cycles: 2888488093 heartbeat IPC: 0.0499247 cumulative IPC: 0.0519465 (Simulation time: 45 hr 31 min 3 sec) 
 Total Blocks : 262144 Invalid Blocks : 0
Heartbeat CPU 0 instructions: 350000001 cycles: 3084403876 heartbeat IPC: 0.0495282 cumulative IPC: 0.0517244 (Simulation time: 47 hr 8 min 3 sec) 
 Total Blocks : 262144 Invalid Blocks : 0
Heartbeat CPU 1 instructions: 350000001 cycles: 3085653097 heartbeat IPC: 0.049462 cumulative IPC: 0.0517301 (Simulation time: 47 hr 8 min 26 sec) 
 Total Blocks : 262144 Invalid Blocks : 0
Heartbeat CPU 2 instructions: 350000001 cycles: 3087412742 heartbeat IPC: 0.0494834 cumulative IPC: 0.0517264 (Simulation time: 47 hr 8 min 59 sec) 
 Total Blocks : 262144 Invalid Blocks : 0
Heartbeat CPU 3 instructions: 350000001 cycles: 3088377782 heartbeat IPC: 0.0495364 cumulative IPC: 0.0517334 (Simulation time: 47 hr 9 min 18 sec) 
 Total Blocks : 262144 Invalid Blocks : 0
Heartbeat CPU 5 instructions: 350000001 cycles: 3088490728 heartbeat IPC: 0.049437 cumulative IPC: 0.0517719 (Simulation time: 47 hr 9 min 20 sec) 
 Total Blocks : 262144 Invalid Blocks : 0
Heartbeat CPU 6 instructions: 350000001 cycles: 3089638382 heartbeat IPC: 0.0495423 cumulative IPC: 0.0517741 (Simulation time: 47 hr 9 min 43 sec) 
 Total Blocks : 262144 Invalid Blocks : 0
Heartbeat CPU 7 instructions: 350000001 cycles: 3090320573 heartbeat IPC: 0.049546 cumulative IPC: 0.0517793 (Simulation time: 47 hr 9 min 56 sec) 
 Total Blocks : 262144 Invalid Blocks : 0
Heartbeat CPU 4 instructions: 350000001 cycles: 3090659011 heartbeat IPC: 0.049363 cumulative IPC: 0.0517148 (Simulation time: 47 hr 10 min 3 sec) 
 Total Blocks : 262144 Invalid Blocks : 0
Heartbeat CPU 0 instructions: 360000000 cycles: 3268473067 heartbeat IPC: 0.0543274 cumulative IPC: 0.0518802 (Simulation time: 48 hr 20 min 17 sec) 
 Total Blocks : 262144 Invalid Blocks : 0
Heartbeat CPU 1 instructions: 360000000 cycles: 3270399915 heartbeat IPC: 0.0541281 cumulative IPC: 0.0518741 (Simulation time: 48 hr 21 min 31 sec) 
 Total Blocks : 262144 Invalid Blocks : 0
Heartbeat CPU 2 instructions: 360000000 cycles: 3272611708 heartbeat IPC: 0.053996 cumulative IPC: 0.0518629 (Simulation time: 48 hr 22 min 55 sec) 
 Total Blocks : 262144 Invalid Blocks : 0
Heartbeat CPU 3 instructions: 360000000 cycles: 3273284704 heartbeat IPC: 0.0540813 cumulative IPC: 0.0518743 (Simulation time: 48 hr 23 min 23 sec) 
 Total Blocks : 262144 Invalid Blocks : 0
Heartbeat CPU 5 instructions: 360000000 cycles: 3273472926 heartbeat IPC: 0.0540593 cumulative IPC: 0.0519093 (Simulation time: 48 hr 23 min 30 sec) 
 Total Blocks : 262144 Invalid Blocks : 0
Heartbeat CPU 6 instructions: 360000000 cycles: 3274380208 heartbeat IPC: 0.0541296 cumulative IPC: 0.0519154 (Simulation time: 48 hr 24 min 6 sec) 
 Total Blocks : 262144 Invalid Blocks : 0
Heartbeat CPU 7 instructions: 360000000 cycles: 3275352314 heartbeat IPC: 0.0540448 cumulative IPC: 0.0519153 (Simulation time: 48 hr 24 min 41 sec) 
 Total Blocks : 262144 Invalid Blocks : 0
Heartbeat CPU 4 instructions: 360000000 cycles: 3275525020 heartbeat IPC: 0.0540932 cumulative IPC: 0.0518574 (Simulation time: 48 hr 24 min 48 sec) 
 Total Blocks : 262144 Invalid Blocks : 0
Heartbeat CPU 0 instructions: 370000000 cycles: 3408430568 heartbeat IPC: 0.0714503 cumulative IPC: 0.0527321 (Simulation time: 49 hr 47 min 3 sec) 
 Total Blocks : 262144 Invalid Blocks : 0
Heartbeat CPU 1 instructions: 370000000 cycles: 3410494745 heartbeat IPC: 0.0713802 cumulative IPC: 0.0527235 (Simulation time: 49 hr 48 min 15 sec) 
 Total Blocks : 262144 Invalid Blocks : 0
Heartbeat CPU 2 instructions: 370000000 cycles: 3412425509 heartbeat IPC: 0.0715237 cumulative IPC: 0.0527168 (Simulation time: 49 hr 49 min 22 sec) 
 Total Blocks : 262144 Invalid Blocks : 0
Heartbeat CPU 5 instructions: 370000000 cycles: 3413050705 heartbeat IPC: 0.0716446 cumulative IPC: 0.0527649 (Simulation time: 49 hr 49 min 43 sec) 
 Total Blocks : 262144 Invalid Blocks : 0
Heartbeat CPU 3 instructions: 370000000 cycles: 3413126698 heartbeat IPC: 0.0715093 cumulative IPC: 0.0527271 (Simulation time: 49 hr 49 min 46 sec) 
 Total Blocks : 262144 Invalid Blocks : 0
Heartbeat CPU 6 instructions: 370000000 cycles: 3413929469 heartbeat IPC: 0.0716593 cumulative IPC: 0.0527709 (Simulation time: 49 hr 50 min 13 sec) 
 Total Blocks : 262144 Invalid Blocks : 0
Heartbeat CPU 4 instructions: 370000000 cycles: 3414966358 heartbeat IPC: 0.0717147 cumulative IPC: 0.0527169 (Simulation time: 49 hr 50 min 47 sec) 
 Total Blocks : 262144 Invalid Blocks : 0
Heartbeat CPU 7 instructions: 370000000 cycles: 3415152915 heartbeat IPC: 0.0715305 cumulative IPC: 0.0527664 (Simulation time: 49 hr 50 min 54 sec) 
 Total Blocks : 262144 Invalid Blocks : 0
Heartbeat CPU 0 instructions: 380000000 cycles: 3551142003 heartbeat IPC: 0.0700715 cumulative IPC: 0.0534691 (Simulation time: 51 hr 5 min 3 sec) 
 Total Blocks : 262144 Invalid Blocks : 0
Heartbeat CPU 1 instructions: 380000000 cycles: 3553299538 heartbeat IPC: 0.0700257 cumulative IPC: 0.0534589 (Simulation time: 51 hr 6 min 8 sec) 
 Total Blocks : 262144 Invalid Blocks : 0
Heartbeat CPU 2 instructions: 380000000 cycles: 3554957761 heartbeat IPC: 0.0701596 cumulative IPC: 0.0534564 (Simulation time: 51 hr 7 min 1 sec) 
 Total Blocks : 262144 Invalid Blocks : 0
Heartbeat CPU 3 instructions: 380000000 cycles: 3555913253 heartbeat IPC: 0.0700346 cumulative IPC: 0.0534621 (Simulation time: 51 hr 7 min 31 sec) 
 Total Blocks : 262144 Invalid Blocks : 0
Heartbeat CPU 5 instructions: 380000000 cycles: 3555953181 heartbeat IPC: 0.0699778 cumulative IPC: 0.0534964 (Simulation time: 51 hr 7 min 32 sec) 
 Total Blocks : 262144 Invalid Blocks : 0
Heartbeat CPU 6 instructions: 380000000 cycles: 3556460976 heartbeat IPC: 0.0701599 cumulative IPC: 0.0535079 (Simulation time: 51 hr 7 min 48 sec) 
 Total Blocks : 262144 Invalid Blocks : 0
Heartbeat CPU 4 instructions: 380000000 cycles: 3557739625 heartbeat IPC: 0.0700411 cumulative IPC: 0.0534521 (Simulation time: 51 hr 8 min 27 sec) 
 Total Blocks : 262144 Invalid Blocks : 0
Heartbeat CPU 7 instructions: 380000000 cycles: 3557800771 heartbeat IPC: 0.0701027 cumulative IPC: 0.0535015 (Simulation time: 51 hr 8 min 29 sec) 
 Total Blocks : 262144 Invalid Blocks : 0
Heartbeat CPU 0 instructions: 390000001 cycles: 3698788579 heartbeat IPC: 0.0677293 cumulative IPC: 0.0540697 (Simulation time: 52 hr 14 min 14 sec) 
 Total Blocks : 262144 Invalid Blocks : 0
Heartbeat CPU 1 instructions: 390000001 cycles: 3700984105 heartbeat IPC: 0.0677119 cumulative IPC: 0.054059 (Simulation time: 52 hr 15 min 12 sec) 
 Total Blocks : 262144 Invalid Blocks : 0
Heartbeat CPU 2 instructions: 390000001 cycles: 3702292252 heartbeat IPC: 0.0678728 cumulative IPC: 0.0540617 (Simulation time: 52 hr 15 min 46 sec) 
 Total Blocks : 262144 Invalid Blocks : 0
Heartbeat CPU 5 instructions: 390000001 cycles: 3703319370 heartbeat IPC: 0.0678582 cumulative IPC: 0.0540994 (Simulation time: 52 hr 16 min 12 sec) 
 Total Blocks : 262144 Invalid Blocks : 0
Heartbeat CPU 3 instructions: 390000001 cycles: 3703608912 heartbeat IPC: 0.0677068 cumulative IPC: 0.0540614 (Simulation time: 52 hr 16 min 20 sec) 
 Total Blocks : 262144 Invalid Blocks : 0
Heartbeat CPU 6 instructions: 390000001 cycles: 3704019828 heartbeat IPC: 0.0677696 cumulative IPC: 0.0541073 (Simulation time: 52 hr 16 min 31 sec) 
 Total Blocks : 262144 Invalid Blocks : 0
Heartbeat CPU 7 instructions: 390000001 cycles: 3704767181 heartbeat IPC: 0.0680428 cumulative IPC: 0.0541101 (Simulation time: 52 hr 16 min 51 sec) 
 Total Blocks : 262144 Invalid Blocks : 0
Heartbeat CPU 4 instructions: 390000001 cycles: 3705047531 heartbeat IPC: 0.067885 cumulative IPC: 0.0540575 (Simulation time: 52 hr 16 min 58 sec) 
 Total Blocks : 262144 Invalid Blocks : 0
Heartbeat CPU 0 instructions: 400000001 cycles: 3852606716 heartbeat IPC: 0.0650118 cumulative IPC: 0.0545297 (Simulation time: 53 hr 16 min 10 sec) 
 Total Blocks : 262144 Invalid Blocks : 0
Heartbeat CPU 1 instructions: 400000001 cycles: 3854314383 heartbeat IPC: 0.0652187 cumulative IPC: 0.0545264 (Simulation time: 53 hr 16 min 48 sec) 
 Total Blocks : 262144 Invalid Blocks : 0
Heartbeat CPU 2 instructions: 400000001 cycles: 3855612162 heartbeat IPC: 0.0652231 cumulative IPC: 0.054529 (Simulation time: 53 hr 17 min 17 sec) 
 Total Blocks : 262144 Invalid Blocks : 0
Heartbeat CPU 5 instructions: 400000001 cycles: 3856512951 heartbeat IPC: 0.0652769 cumulative IPC: 0.0545668 (Simulation time: 53 hr 17 min 36 sec) 
 Total Blocks : 262144 Invalid Blocks : 0
Heartbeat CPU 3 instructions: 400000001 cycles: 3856727075 heartbeat IPC: 0.065309 cumulative IPC: 0.0545316 (Simulation time: 53 hr 17 min 41 sec) 
 Total Blocks : 262144 Invalid Blocks : 0
Heartbeat CPU 6 instructions: 400000001 cycles: 3857448568 heartbeat IPC: 0.0651768 cumulative IPC: 0.0545709 (Simulation time: 53 hr 17 min 57 sec) 
 Total Blocks : 262144 Invalid Blocks : 0
Heartbeat CPU 7 instructions: 400000001 cycles: 3857748862 heartbeat IPC: 0.0653673 cumulative IPC: 0.0545801 (Simulation time: 53 hr 18 min 5 sec) 
 Total Blocks : 262144 Invalid Blocks : 0
Finished CPU 7 instructions: 200000003 cycles: 3664340029 cumulative IPC: 0.0545801 (Simulation time: 53 hr 18 min 5 sec) 
Heartbeat CPU 4 instructions: 400000001 cycles: 3857947622 heartbeat IPC: 0.0654022 cumulative IPC: 0.0545309 (Simulation time: 53 hr 18 min 9 sec) 
 Total Blocks : 262144 Invalid Blocks : 0
Finished CPU 6 instructions: 200000000 cycles: 3664795488 cumulative IPC: 0.0545733 (Simulation time: 53 hr 18 min 15 sec) 
Finished CPU 5 instructions: 200000000 cycles: 3664935015 cumulative IPC: 0.0545712 (Simulation time: 53 hr 18 min 18 sec) 
Finished CPU 0 instructions: 200000000 cycles: 3666588645 cumulative IPC: 0.0545466 (Simulation time: 53 hr 18 min 54 sec) 
Finished CPU 1 instructions: 200000001 cycles: 3666935335 cumulative IPC: 0.0545415 (Simulation time: 53 hr 19 min 2 sec) 
Finished CPU 2 instructions: 200000000 cycles: 3666954649 cumulative IPC: 0.0545412 (Simulation time: 53 hr 19 min 2 sec) 
Finished CPU 3 instructions: 200000000 cycles: 3666955843 cumulative IPC: 0.0545412 (Simulation time: 53 hr 19 min 2 sec) 
Finished CPU 4 instructions: 200000000 cycles: 3667165132 cumulative IPC: 0.054538 (Simulation time: 53 hr 19 min 7 sec) 

CPU 0 Branch Prediction Accuracy: 93.7329% MPKI: 14.46 Average ROB Occupancy at Mispredict: 75.1617

CPU 1 Branch Prediction Accuracy: 93.7297% MPKI: 14.4718 Average ROB Occupancy at Mispredict: 75.1206

CPU 2 Branch Prediction Accuracy: 93.7273% MPKI: 14.4821 Average ROB Occupancy at Mispredict: 75.1456

CPU 3 Branch Prediction Accuracy: 93.7253% MPKI: 14.4911 Average ROB Occupancy at Mispredict: 75.1342

CPU 4 Branch Prediction Accuracy: 93.7227% MPKI: 14.5006 Average ROB Occupancy at Mispredict: 75.0849

CPU 5 Branch Prediction Accuracy: 93.7241% MPKI: 14.5018 Average ROB Occupancy at Mispredict: 74.9844

CPU 6 Branch Prediction Accuracy: 93.7223% MPKI: 14.51 Average ROB Occupancy at Mispredict: 75.0289

CPU 7 Branch Prediction Accuracy: 93.7215% MPKI: 14.5152 Average ROB Occupancy at Mispredict: 74.9541

ChampSim completed all CPUs

Total Simulation Statistics (not including warmup)

CPU 0 cumulative IPC: 0.0545482 instructions: 200037185 cycles: 3667165132
ITLB TOTAL     ACCESS: 29478301  HIT: 29478301  MISS:     0  HIT %:   100  MISS %:     0  AVERAGE MISS PENALTY: 0
ITLB LOAD      ACCESS: 29478301  HIT: 29478301  MISS:     0  HIT %:   100  MISS %:     0  AVERAGE MISS PENALTY: 0
ITLB RFO       ACCESS:     0  HIT:     0  MISS:     0  HIT %:     0  MISS %:     0  AVERAGE MISS PENALTY: 0
ITLB PREFETCH  ACCESS:     0  HIT:     0  MISS:     0  HIT %:     0  MISS %:     0  AVERAGE MISS PENALTY: 0
ITLB WRITEBACK ACCESS:     0  HIT:     0  MISS:     0  HIT %:     0  MISS %:     0  AVERAGE MISS PENALTY: 0

DTLB TOTAL     ACCESS: 42314402  HIT: 27361849  MISS: 14952553  HIT %: 64.6632  MISS %: 35.3368  AVERAGE MISS PENALTY: 32.357
DTLB LOAD      ACCESS: 37578805  HIT: 24744313  MISS: 12834492  HIT %: 65.8465  MISS %: 34.1535  AVERAGE MISS PENALTY: 26.4846
DTLB RFO       ACCESS: 4735597  HIT: 2617536  MISS: 2118061  HIT %: 55.2736  MISS %: 44.7264  AVERAGE MISS PENALTY: 67.941
DTLB PREFETCH  ACCESS:     0  HIT:     0  MISS:     0  HIT %:     0  MISS %:     0  AVERAGE MISS PENALTY: 0
DTLB WRITEBACK ACCESS:     0  HIT:     0  MISS:     0  HIT %:     0  MISS %:     0  AVERAGE MISS PENALTY: 0

STLB TOTAL     ACCESS: 14952553  HIT: 13126699  MISS: 1825854  HIT %: 87.789  MISS %: 12.211  AVERAGE MISS PENALTY: 100
STLB LOAD      ACCESS: 12834492  HIT: 12077439  MISS: 757053  HIT %: 94.1014  MISS %: 5.89858  AVERAGE MISS PENALTY: 100
STLB RFO       ACCESS: 2118061  HIT: 1049260  MISS: 1068801  HIT %: 49.5387  MISS %: 50.4613  AVERAGE MISS PENALTY: 100
STLB PREFETCH  ACCESS:     0  HIT:     0  MISS:     0  HIT %:     0  MISS %:     0  AVERAGE MISS PENALTY: 0
STLB WRITEBACK ACCESS:     0  HIT:     0  MISS:     0  HIT %:     0  MISS %:     0  AVERAGE MISS PENALTY: 0

L1D TOTAL     ACCESS: 83532807  HIT: 26903603  MISS: 56629204  HIT %: 32.2072  MISS %: 67.7928  AVERAGE MISS PENALTY: 1.23585e+06
L1D LOAD      ACCESS: 38039657  HIT: 20391110  MISS: 17648547  HIT %: 53.6049  MISS %: 46.3951  AVERAGE MISS PENALTY: 3.96452e+06
L1D RFO       ACCESS: 4837332  HIT: 4800542  MISS: 36790  HIT %: 99.2395  MISS %: 0.760543  AVERAGE MISS PENALTY: 244.601
L1D PREFETCH  ACCESS: 40655818  HIT: 1711951  MISS: 38943867  HIT %: 4.21084  MISS %: 95.7892  AVERAGE MISS PENALTY: 443.326
L1D WRITEBACK ACCESS:     0  HIT:     0  MISS:     0  HIT %:     0  MISS %:     0  AVERAGE MISS PENALTY: 0

L1I TOTAL     ACCESS: 45207372  HIT: 45207372  MISS:     0  HIT %:   100  MISS %:     0  AVERAGE MISS PENALTY: 0
L1I LOAD      ACCESS: 45207372  HIT: 45207372  MISS:     0  HIT %:   100  MISS %:     0  AVERAGE MISS PENALTY: 0
L1I RFO       ACCESS:     0  HIT:     0  MISS:     0  HIT %:     0  MISS %:     0  AVERAGE MISS PENALTY: 0
L1I PREFETCH  ACCESS:     0  HIT:     0  MISS:     0  HIT %:     0  MISS %:     0  AVERAGE MISS PENALTY: 0
L1I WRITEBACK ACCESS:     0  HIT:     0  MISS:     0  HIT %:     0  MISS %:     0  AVERAGE MISS PENALTY: 0

L2C TOTAL     ACCESS: 92870631  HIT: 5894357  MISS: 86976274  HIT %: 6.34685  MISS %: 93.6532  AVERAGE MISS PENALTY: 732020
L2C LOAD      ACCESS: 17647820  HIT: 214322  MISS: 17433498  HIT %: 1.21444  MISS %: 98.7856  AVERAGE MISS PENALTY: 3.65034e+06
L2C RFO       ACCESS: 36780  HIT: 16148  MISS: 20632  HIT %: 43.9043  MISS %: 56.0957  AVERAGE MISS PENALTY: 401.862
L2C PREFETCH  ACCESS: 72739290  HIT: 4918077  MISS: 67821213  HIT %: 6.76124  MISS %: 93.2388  AVERAGE MISS PENALTY: 443.995
L2C WRITEBACK ACCESS: 2446741  HIT: 745810  MISS: 1700931  HIT %: 30.4818  MISS %: 69.5182  AVERAGE MISS PENALTY: 0


LLC0 TOTAL     ACCESS: 11190087  HIT: 5371033  MISS: 5819054  HIT %: 47.9981  MISS %: 52.0019  AVERAGE MISS PENALTY: 783.69
LLC0 LOAD      ACCESS: 2208192  HIT: 997726  MISS: 1210466  HIT %: 45.1829  MISS %: 54.8171  AVERAGE MISS PENALTY: 767.388
LLC0 RFO       ACCESS:  2637  HIT:  1323  MISS:  1314  HIT %: 50.1706  MISS %: 49.8294  AVERAGE MISS PENALTY: 731.996
LLC0 PREFETCH  ACCESS: 8677267  HIT: 4080313  MISS: 4596954  HIT %: 47.023  MISS %: 52.977  AVERAGE MISS PENALTY: 789.756
LLC0 WRITEBACK ACCESS: 301991  HIT: 291671  MISS: 10320  HIT %: 96.5827  MISS %: 3.41732  AVERAGE MISS PENALTY: 0

LLC1 TOTAL     ACCESS: 11334033  HIT: 5404320  MISS: 5929713  HIT %: 47.6822  MISS %: 52.3178  AVERAGE MISS PENALTY: 785.01
LLC1 LOAD      ACCESS: 2163454  HIT: 964063  MISS: 1199391  HIT %: 44.5613  MISS %: 55.4387  AVERAGE MISS PENALTY: 769.303
LLC1 RFO       ACCESS:  2718  HIT:  1396  MISS:  1322  HIT %: 51.3613  MISS %: 48.6387  AVERAGE MISS PENALTY: 742.222
LLC1 PREFETCH  ACCESS: 8863085  HIT: 4144470  MISS: 4718615  HIT %: 46.761  MISS %: 53.239  AVERAGE MISS PENALTY: 790.742
LLC1 WRITEBACK ACCESS: 304776  HIT: 294391  MISS: 10385  HIT %: 96.5926  MISS %: 3.40742  AVERAGE MISS PENALTY: 0

LLC2 TOTAL     ACCESS: 11289800  HIT: 5370971  MISS: 5918829  HIT %: 47.5737  MISS %: 52.4263  AVERAGE MISS PENALTY: 774.318
LLC2 LOAD      ACCESS: 2155671  HIT: 968466  MISS: 1187205  HIT %: 44.9264  MISS %: 55.0736  AVERAGE MISS PENALTY: 764.938
LLC2 RFO       ACCESS:  2665  HIT:  1345  MISS:  1320  HIT %: 50.469  MISS %: 49.531  AVERAGE MISS PENALTY: 753.053
LLC2 PREFETCH  ACCESS: 8829004  HIT: 4109161  MISS: 4719843  HIT %: 46.5416  MISS %: 53.4584  AVERAGE MISS PENALTY: 778.399
LLC2 WRITEBACK ACCESS: 302460  HIT: 291999  MISS: 10461  HIT %: 96.5414  MISS %: 3.45864  AVERAGE MISS PENALTY: 0

LLC3 TOTAL     ACCESS: 11084274  HIT: 5274913  MISS: 5809361  HIT %: 47.5892  MISS %: 52.4108  AVERAGE MISS PENALTY: 810.354
LLC3 LOAD      ACCESS: 2173043  HIT: 978859  MISS: 1194184  HIT %: 45.0455  MISS %: 54.9545  AVERAGE MISS PENALTY: 767.184
LLC3 RFO       ACCESS:  2595  HIT:  1277  MISS:  1318  HIT %: 49.21  MISS %: 50.79  AVERAGE MISS PENALTY: 728.115
LLC3 PREFETCH  ACCESS: 8607149  HIT: 4003547  MISS: 4603602  HIT %: 46.5142  MISS %: 53.4858  AVERAGE MISS PENALTY: 823.381
LLC3 WRITEBACK ACCESS: 301487  HIT: 291230  MISS: 10257  HIT %: 96.5979  MISS %: 3.40214  AVERAGE MISS PENALTY: 0

LLC4 TOTAL     ACCESS: 10953690  HIT: 5215199  MISS: 5738491  HIT %: 47.6113  MISS %: 52.3887  AVERAGE MISS PENALTY: 716.013
LLC4 LOAD      ACCESS: 2155325  HIT: 959581  MISS: 1195744  HIT %: 44.5214  MISS %: 55.4786  AVERAGE MISS PENALTY: 693.719
LLC4 RFO       ACCESS:  2553  HIT:  1232  MISS:  1321  HIT %: 48.257  MISS %: 51.743  AVERAGE MISS PENALTY: 710.679
LLC4 PREFETCH  ACCESS: 8493041  HIT: 3961898  MISS: 4531143  HIT %: 46.6488  MISS %: 53.3512  AVERAGE MISS PENALTY: 723.522
LLC4 WRITEBACK ACCESS: 302771  HIT: 292488  MISS: 10283  HIT %: 96.6037  MISS %: 3.3963  AVERAGE MISS PENALTY: 0

LLC5 TOTAL     ACCESS: 10840878  HIT: 5192946  MISS: 5647932  HIT %: 47.9015  MISS %: 52.0985  AVERAGE MISS PENALTY: 686.497
LLC5 LOAD      ACCESS: 2192207  HIT: 1001312  MISS: 1190895  HIT %: 45.676  MISS %: 54.324  AVERAGE MISS PENALTY: 660.255
LLC5 RFO       ACCESS:  2524  HIT:  1202  MISS:  1322  HIT %: 47.6228  MISS %: 52.3772  AVERAGE MISS PENALTY: 642.554
LLC5 PREFETCH  ACCESS: 8340811  HIT: 3895677  MISS: 4445134  HIT %: 46.7062  MISS %: 53.2938  AVERAGE MISS PENALTY: 695.175
LLC5 WRITEBACK ACCESS: 305336  HIT: 294755  MISS: 10581  HIT %: 96.5346  MISS %: 3.46536  AVERAGE MISS PENALTY: 0

LLC6 TOTAL     ACCESS: 10614056  HIT: 5100712  MISS: 5513344  HIT %: 48.0562  MISS %: 51.9438  AVERAGE MISS PENALTY: 710.613
LLC6 LOAD      ACCESS: 2183987  HIT: 975904  MISS: 1208083  HIT %: 44.6845  MISS %: 55.3155  AVERAGE MISS PENALTY: 691.728
LLC6 RFO       ACCESS:  2490  HIT:  1168  MISS:  1322  HIT %: 46.9076  MISS %: 53.0924  AVERAGE MISS PENALTY: 696.098
LLC6 PREFETCH  ACCESS: 8120854  HIT: 3827707  MISS: 4293147  HIT %: 47.1343  MISS %: 52.8657  AVERAGE MISS PENALTY: 717.717
LLC6 WRITEBACK ACCESS: 306725  HIT: 295933  MISS: 10792  HIT %: 96.4815  MISS %: 3.51846  AVERAGE MISS PENALTY: 0

LLC7 TOTAL     ACCESS: 10397316  HIT: 5073194  MISS: 5324122  HIT %: 48.7933  MISS %: 51.2067  AVERAGE MISS PENALTY: 685.209
LLC7 LOAD      ACCESS: 2175875  HIT: 989416  MISS: 1186459  HIT %: 45.4721  MISS %: 54.5279  AVERAGE MISS PENALTY: 657.67
LLC7 RFO       ACCESS:  2442  HIT:  1124  MISS:  1318  HIT %: 46.0278  MISS %: 53.9722  AVERAGE MISS PENALTY: 632.882
LLC7 PREFETCH  ACCESS: 7915746  HIT: 3790891  MISS: 4124855  HIT %: 47.8905  MISS %: 52.1095  AVERAGE MISS PENALTY: 695.056
LLC7 WRITEBACK ACCESS: 303253  HIT: 291763  MISS: 11490  HIT %: 96.2111  MISS %: 3.78892  AVERAGE MISS PENALTY: 0

Total Rob stall cycles : 	3603172142
Total Load Rob Stall cycles : 	2931401034
Average Rob Stall cycles : 	 66
Average Load Rob Stall cycles : 	 476

CPU 1 cumulative IPC: 0.054542 instructions: 200014526 cycles: 3667165132
ITLB TOTAL     ACCESS: 29470385  HIT: 29470385  MISS:     0  HIT %:   100  MISS %:     0  AVERAGE MISS PENALTY: 0
ITLB LOAD      ACCESS: 29470385  HIT: 29470385  MISS:     0  HIT %:   100  MISS %:     0  AVERAGE MISS PENALTY: 0
ITLB RFO       ACCESS:     0  HIT:     0  MISS:     0  HIT %:     0  MISS %:     0  AVERAGE MISS PENALTY: 0
ITLB PREFETCH  ACCESS:     0  HIT:     0  MISS:     0  HIT %:     0  MISS %:     0  AVERAGE MISS PENALTY: 0
ITLB WRITEBACK ACCESS:     0  HIT:     0  MISS:     0  HIT %:     0  MISS %:     0  AVERAGE MISS PENALTY: 0

DTLB TOTAL     ACCESS: 42314962  HIT: 27365405  MISS: 14949557  HIT %: 64.6708  MISS %: 35.3292  AVERAGE MISS PENALTY: 32.2712
DTLB LOAD      ACCESS: 37577785  HIT: 24746816  MISS: 12830969  HIT %: 65.8549  MISS %: 34.1451  AVERAGE MISS PENALTY: 26.3791
DTLB RFO       ACCESS: 4737177  HIT: 2618589  MISS: 2118588  HIT %: 55.2774  MISS %: 44.7226  AVERAGE MISS PENALTY: 67.9559
DTLB PREFETCH  ACCESS:     0  HIT:     0  MISS:     0  HIT %:     0  MISS %:     0  AVERAGE MISS PENALTY: 0
DTLB WRITEBACK ACCESS:     0  HIT:     0  MISS:     0  HIT %:     0  MISS %:     0  AVERAGE MISS PENALTY: 0

STLB TOTAL     ACCESS: 14949557  HIT: 13123734  MISS: 1825823  HIT %: 87.7868  MISS %: 12.2132  AVERAGE MISS PENALTY: 100
STLB LOAD      ACCESS: 12830969  HIT: 12074161  MISS: 756808  HIT %: 94.1017  MISS %: 5.89829  AVERAGE MISS PENALTY: 100
STLB RFO       ACCESS: 2118588  HIT: 1049573  MISS: 1069015  HIT %: 49.5412  MISS %: 50.4588  AVERAGE MISS PENALTY: 100
STLB PREFETCH  ACCESS:     0  HIT:     0  MISS:     0  HIT %:     0  MISS %:     0  AVERAGE MISS PENALTY: 0
STLB WRITEBACK ACCESS:     0  HIT:     0  MISS:     0  HIT %:     0  MISS %:     0  AVERAGE MISS PENALTY: 0

L1D TOTAL     ACCESS: 83531052  HIT: 26909768  MISS: 56621284  HIT %: 32.2153  MISS %: 67.7847  AVERAGE MISS PENALTY: 1.22934e+06
L1D LOAD      ACCESS: 38042532  HIT: 20396475  MISS: 17646057  HIT %: 53.6149  MISS %: 46.3851  AVERAGE MISS PENALTY: 3.94368e+06
L1D RFO       ACCESS: 4839193  HIT: 4802342  MISS: 36851  HIT %: 99.2385  MISS %: 0.761511  AVERAGE MISS PENALTY: 245.183
L1D PREFETCH  ACCESS: 40649327  HIT: 1710951  MISS: 38938376  HIT %: 4.20905  MISS %: 95.7909  AVERAGE MISS PENALTY: 418.665
L1D WRITEBACK ACCESS:     0  HIT:     0  MISS:     0  HIT %:     0  MISS %:     0  AVERAGE MISS PENALTY: 0

L1I TOTAL     ACCESS: 45193072  HIT: 45193072  MISS:     0  HIT %:   100  MISS %:     0  AVERAGE MISS PENALTY: 0
L1I LOAD      ACCESS: 45193072  HIT: 45193072  MISS:     0  HIT %:   100  MISS %:     0  AVERAGE MISS PENALTY: 0
L1I RFO       ACCESS:     0  HIT:     0  MISS:     0  HIT %:     0  MISS %:     0  AVERAGE MISS PENALTY: 0
L1I PREFETCH  ACCESS:     0  HIT:     0  MISS:     0  HIT %:     0  MISS %:     0  AVERAGE MISS PENALTY: 0
L1I WRITEBACK ACCESS:     0  HIT:     0  MISS:     0  HIT %:     0  MISS %:     0  AVERAGE MISS PENALTY: 0

L2C TOTAL     ACCESS: 92859447  HIT: 5828976  MISS: 87030471  HIT %: 6.2772  MISS %: 93.7228  AVERAGE MISS PENALTY: 728131
L2C LOAD      ACCESS: 17645371  HIT: 163511  MISS: 17481860  HIT %: 0.926651  MISS %: 99.0733  AVERAGE MISS PENALTY: 3.62316e+06
L2C RFO       ACCESS: 36845  HIT: 16245  MISS: 20600  HIT %: 44.0901  MISS %: 55.9099  AVERAGE MISS PENALTY: 403.406
L2C PREFETCH  ACCESS: 72729332  HIT: 4916981  MISS: 67812351  HIT %: 6.76066  MISS %: 93.2393  AVERAGE MISS PENALTY: 441.223
L2C WRITEBACK ACCESS: 2447899  HIT: 732239  MISS: 1715660  HIT %: 29.913  MISS %: 70.087  AVERAGE MISS PENALTY: 0


LLC0 TOTAL     ACCESS: 11205159  HIT: 5384749  MISS: 5820410  HIT %: 48.056  MISS %: 51.944  AVERAGE MISS PENALTY: 783.707
LLC0 LOAD      ACCESS: 2224153  HIT: 1013651  MISS: 1210502  HIT %: 45.5747  MISS %: 54.4253  AVERAGE MISS PENALTY: 767.574
LLC0 RFO       ACCESS:  2655  HIT:  1343  MISS:  1312  HIT %: 50.5838  MISS %: 49.4162  AVERAGE MISS PENALTY: 744.24
LLC0 PREFETCH  ACCESS: 8676175  HIT: 4078011  MISS: 4598164  HIT %: 47.0024  MISS %: 52.9976  AVERAGE MISS PENALTY: 789.744
LLC0 WRITEBACK ACCESS: 302176  HIT: 291744  MISS: 10432  HIT %: 96.5477  MISS %: 3.45229  AVERAGE MISS PENALTY: 0

LLC1 TOTAL     ACCESS: 11333336  HIT: 5405398  MISS: 5927938  HIT %: 47.6947  MISS %: 52.3053  AVERAGE MISS PENALTY: 784.411
LLC1 LOAD      ACCESS: 2162992  HIT: 965282  MISS: 1197710  HIT %: 44.6272  MISS %: 55.3728  AVERAGE MISS PENALTY: 768.914
LLC1 RFO       ACCESS:  2681  HIT:  1357  MISS:  1324  HIT %: 50.6154  MISS %: 49.3846  AVERAGE MISS PENALTY: 760.018
LLC1 PREFETCH  ACCESS: 8862748  HIT: 4144367  MISS: 4718381  HIT %: 46.7616  MISS %: 53.2384  AVERAGE MISS PENALTY: 790.101
LLC1 WRITEBACK ACCESS: 304915  HIT: 294392  MISS: 10523  HIT %: 96.5489  MISS %: 3.45113  AVERAGE MISS PENALTY: 0

LLC2 TOTAL     ACCESS: 11294162  HIT: 5374877  MISS: 5919285  HIT %: 47.5899  MISS %: 52.4101  AVERAGE MISS PENALTY: 774.481
LLC2 LOAD      ACCESS: 2160752  HIT: 974821  MISS: 1185931  HIT %: 45.1149  MISS %: 54.8851  AVERAGE MISS PENALTY: 765.032
LLC2 RFO       ACCESS:  2671  HIT:  1350  MISS:  1321  HIT %: 50.5429  MISS %: 49.4571  AVERAGE MISS PENALTY: 753.481
LLC2 PREFETCH  ACCESS: 8828130  HIT: 4106685  MISS: 4721445  HIT %: 46.5182  MISS %: 53.4818  AVERAGE MISS PENALTY: 778.598
LLC2 WRITEBACK ACCESS: 302609  HIT: 292021  MISS: 10588  HIT %: 96.5011  MISS %: 3.4989  AVERAGE MISS PENALTY: 0

[...]
LLC2 LOAD      ACCESS: 2149631  HIT: 966299  MISS: 1183332  HIT %: 44.9519  MISS %: 55.0481  AVERAGE MISS PENALTY: 764.736
LLC2 RFO       ACCESS:  2231  HIT:   913  MISS:  1318  HIT %: 40.9234  MISS %: 59.0766  AVERAGE MISS PENALTY: 738.695
LLC2 PREFETCH  ACCESS: 8804420  HIT: 4086949  MISS: 4717471  HIT %: 46.4193  MISS %: 53.5807  AVERAGE MISS PENALTY: 779.248
LLC2 WRITEBACK ACCESS: 300170  HIT: 240660  MISS: 59510  HIT %: 80.1746  MISS %: 19.8254  AVERAGE MISS PENALTY: 0
LLC2 PREFETCH  REQUESTED:     0  ISSUED:     0  USEFUL: 3065832  USELESS: 34699687
 USEFUL LOAD PREFETCHES:    3065832 PREFETCH ISSUED TO LOWER LEVEL:  313403829  ACCURACY: 0.978237
 TIMELY PREFETCHES:    3065832 LATE PREFETCHES: 0 DROPPED PREFETCHES: 0
LLC2 AVERAGE MISS LATENCY: 768.58 cycles
LLC3 TOTAL     ACCESS: 11045595  HIT: 5195835  MISS: 5849760  HIT %: 47.0399  MISS %: 52.9601  AVERAGE MISS PENALTY: 770.326
LLC3 LOAD      ACCESS: 2161227  HIT: 970572  MISS: 1190655  HIT %: 44.9084  MISS %: 55.0916  AVERAGE MISS PENALTY: 767.4
LLC3 RFO       ACCESS:  2113  HIT:   793  MISS:  1320  HIT %: 37.5296  MISS %: 62.4704  AVERAGE MISS PENALTY: 750.448
LLC3 PREFETCH  ACCESS: 8583065  HIT: 3982555  MISS: 4600510  HIT %: 46.4001  MISS %: 53.5999  AVERAGE MISS PENALTY: 780.68
LLC3 WRITEBACK ACCESS: 299190  HIT: 241915  MISS: 57275  HIT %: 80.8566  MISS %: 19.1434  AVERAGE MISS PENALTY: 0
LLC3 PREFETCH  REQUESTED:     0  ISSUED:     0  USEFUL: 3078377  USELESS: 33738866
 USEFUL LOAD PREFETCHES:    3078377 PREFETCH ISSUED TO LOWER LEVEL:  255993327  ACCURACY: 1.20252
 TIMELY PREFETCHES:    3078377 LATE PREFETCHES: 0 DROPPED PREFETCHES: 0
LLC3 AVERAGE MISS LATENCY: 770.326 cycles
LLC4 TOTAL     ACCESS: 10930974  HIT: 5153551  MISS: 5777423  HIT %: 47.1463  MISS %: 52.8537  AVERAGE MISS PENALTY: 709.852
LLC4 LOAD      ACCESS: 2159484  HIT: 965045  MISS: 1194439  HIT %: 44.6887  MISS %: 55.3113  AVERAGE MISS PENALTY: 692.686
LLC4 RFO       ACCESS:  2117  HIT:   803  MISS:  1314  HIT %: 37.931  MISS %: 62.069  AVERAGE MISS PENALTY: 692.773
LLC4 PREFETCH  ACCESS: 8468771  HIT: 3944563  MISS: 4524208  HIT %: 46.5778  MISS %: 53.4222  AVERAGE MISS PENALTY: 723.404
LLC4 WRITEBACK ACCESS: 300602  HIT: 243140  MISS: 57462  HIT %: 80.8844  MISS %: 19.1156  AVERAGE MISS PENALTY: 0
LLC4 PREFETCH  REQUESTED:     0  ISSUED:     0  USEFUL: 3102336  USELESS: 33133537
 USEFUL LOAD PREFETCHES:    3102336 PREFETCH ISSUED TO LOWER LEVEL:  403259546  ACCURACY: 0.769315
 TIMELY PREFETCHES:    3102336 LATE PREFETCHES: 0 DROPPED PREFETCHES: 0
LLC4 AVERAGE MISS LATENCY: 709.852 cycles
LLC5 TOTAL     ACCESS: 10804534  HIT: 5115017  MISS: 5689517  HIT %: 47.3414  MISS %: 52.6586  AVERAGE MISS PENALTY: 680.784
LLC5 LOAD      ACCESS: 2185795  HIT: 997459  MISS: 1188336  HIT %: 45.6337  MISS %: 54.3663  AVERAGE MISS PENALTY: 660.395
LLC5 RFO       ACCESS:  2126  HIT:   808  MISS:  1318  HIT %: 38.0056  MISS %: 61.9944  AVERAGE MISS PENALTY: 681.047
LLC5 PREFETCH  ACCESS: 8313585  HIT: 3870512  MISS: 4443073  HIT %: 46.5565  MISS %: 53.4435  AVERAGE MISS PENALTY: 694.939
LLC5 WRITEBACK ACCESS: 303028  HIT: 246238  MISS: 56790  HIT %: 81.2592  MISS %: 18.7408  AVERAGE MISS PENALTY: 0
LLC5 PREFETCH  REQUESTED:     0  ISSUED:     0  USEFUL: 3007934  USELESS: 32560727
 USEFUL LOAD PREFETCHES:    3007934 PREFETCH ISSUED TO LOWER LEVEL:  324590214  ACCURACY: 0.926687
 TIMELY PREFETCHES:    3007934 LATE PREFETCHES: 0 DROPPED PREFETCHES: 0
LLC5 AVERAGE MISS LATENCY: 680.784 cycles
LLC6 TOTAL     ACCESS: 10592418  HIT: 5039520  MISS: 5552898  HIT %: 47.5767  MISS %: 52.4233  AVERAGE MISS PENALTY: 705.08
LLC6 LOAD      ACCESS: 2179101  HIT: 974014  MISS: 1205087  HIT %: 44.698  MISS %: 55.302  AVERAGE MISS PENALTY: 691.649
LLC6 RFO       ACCESS:  2113  HIT:   796  MISS:  1317  HIT %: 37.6716  MISS %: 62.3284  AVERAGE MISS PENALTY: 694.444
LLC6 PREFETCH  ACCESS: 8093958  HIT: 3804193  MISS: 4289765  HIT %: 47.0004  MISS %: 52.9996  AVERAGE MISS PENALTY: 718.18
LLC6 WRITEBACK ACCESS: 317246  HIT: 260517  MISS: 56729  HIT %: 82.1183  MISS %: 17.8817  AVERAGE MISS PENALTY: 0
LLC6 PREFETCH  REQUESTED:     0  ISSUED:     0  USEFUL: 2990958  USELESS: 31361074
 USEFUL LOAD PREFETCHES:    2990958 PREFETCH ISSUED TO LOWER LEVEL:  519231208  ACCURACY: 0.576036
 TIMELY PREFETCHES:    2990958 LATE PREFETCHES: 0 DROPPED PREFETCHES: 0
LLC6 AVERAGE MISS LATENCY: 705.08 cycles
LLC7 TOTAL     ACCESS: 10357910  HIT: 4997261  MISS: 5360649  HIT %: 48.2458  MISS %: 51.7542  AVERAGE MISS PENALTY: 679.502
LLC7 LOAD      ACCESS: 2162019  HIT: 978533  MISS: 1183486  HIT %: 45.2601  MISS %: 54.7399  AVERAGE MISS PENALTY: 656.487
LLC7 RFO       ACCESS:  2050  HIT:   736  MISS:  1314  HIT %: 35.9024  MISS %: 64.0976  AVERAGE MISS PENALTY: 670.681
LLC7 PREFETCH  ACCESS: 7892595  HIT: 3770464  MISS: 4122131  HIT %: 47.7722  MISS %: 52.2278  AVERAGE MISS PENALTY: 694.967
LLC7 WRITEBACK ACCESS: 301246  HIT: 247528  MISS: 53718  HIT %: 82.1681  MISS %: 17.8319  AVERAGE MISS PENALTY: 0
LLC7 PREFETCH  REQUESTED:     0  ISSUED:     0  USEFUL: 2894517  USELESS: 30111497
 USEFUL LOAD PREFETCHES:    2894517 PREFETCH ISSUED TO LOWER LEVEL:  405202183  ACCURACY: 0.714339
 TIMELY PREFETCHES:    2894517 LATE PREFETCHES: 0 DROPPED PREFETCHES: 0
LLC7 AVERAGE MISS LATENCY: 679.502 cycles
ROI Average ROB Stall Cycles:	66.0311
ROI Total ROB Stalls Cycles:	3600719573
ROI TOTAL ROB counter      :	54530694
ROI Average Load ROB Stall Cycles:	475.734
ROI Total Load ROB Stalls Cycle  :	2933721877
ROI Total Load ROB stalls Counter:	6166731
Major fault: 0 Minor fault: 37418

CPU 7 cumulative IPC: 0.0545801 instructions: 200000003 cycles: 3664340029
ITLB TOTAL     ACCESS: 29453812  HIT: 29453812  MISS:     0  HIT %:   100  MISS %:     0  AVERAGE MISS PENALTY: 0
ITLB LOAD      ACCESS: 29453812  HIT: 29453812  MISS:     0  HIT %:   100  MISS %:     0  AVERAGE MISS PENALTY: 0
ITLB RFO       ACCESS:     0  HIT:     0  MISS:     0  HIT %:     0  MISS %:     0  AVERAGE MISS PENALTY: 0
ITLB PREFETCH  ACCESS:     0  HIT:     0  MISS:     0  HIT %:     0  MISS %:     0  AVERAGE MISS PENALTY: 0
ITLB WRITEBACK ACCESS:     0  HIT:     0  MISS:     0  HIT %:     0  MISS %:     0  AVERAGE MISS PENALTY: 0
ITLB PREFETCH  REQUESTED:     0  ISSUED:     0  USEFUL:     0  USELESS:     0
 USEFUL LOAD PREFETCHES:          0 PREFETCH ISSUED TO LOWER LEVEL:          0  ACCURACY: -nan
 TIMELY PREFETCHES:          0 LATE PREFETCHES: 0 DROPPED PREFETCHES: 0
ITLB AVERAGE MISS LATENCY: -nan cycles
DTLB TOTAL     ACCESS: 42326801  HIT: 27384672  MISS: 14942129  HIT %: 64.6982  MISS %: 35.3018  AVERAGE MISS PENALTY: 32.4145
DTLB LOAD      ACCESS: 37580279  HIT: 24761944  MISS: 12818335  HIT %: 65.8908  MISS %: 34.1092  AVERAGE MISS PENALTY: 26.5278
DTLB RFO       ACCESS: 4746522  HIT: 2622728  MISS: 2123794  HIT %: 55.2558  MISS %: 44.7442  AVERAGE MISS PENALTY: 67.9445
DTLB PREFETCH  ACCESS:     0  HIT:     0  MISS:     0  HIT %:     0  MISS %:     0  AVERAGE MISS PENALTY: 0
DTLB WRITEBACK ACCESS:     0  HIT:     0  MISS:     0  HIT %:     0  MISS %:     0  AVERAGE MISS PENALTY: 0
DTLB PREFETCH  REQUESTED:     0  ISSUED:     0  USEFUL:     0  USELESS:     0
 USEFUL LOAD PREFETCHES:          0 PREFETCH ISSUED TO LOWER LEVEL:          0  ACCURACY: -nan
 TIMELY PREFETCHES:          0 LATE PREFETCHES: 0 DROPPED PREFETCHES: 0
DTLB AVERAGE MISS LATENCY: 32.4145 cycles
STLB TOTAL     ACCESS: 14942129  HIT: 13115568  MISS: 1826561  HIT %: 87.7758  MISS %: 12.2242  AVERAGE MISS PENALTY: 100
STLB LOAD      ACCESS: 12818335  HIT: 12063284  MISS: 755051  HIT %: 94.1096  MISS %: 5.8904  AVERAGE MISS PENALTY: 100
STLB RFO       ACCESS: 2123794  HIT: 1052284  MISS: 1071510  HIT %: 49.5474  MISS %: 50.4526  AVERAGE MISS PENALTY: 100
STLB PREFETCH  ACCESS:     0  HIT:     0  MISS:     0  HIT %:     0  MISS %:     0  AVERAGE MISS PENALTY: 0
STLB WRITEBACK ACCESS:     0  HIT:     0  MISS:     0  HIT %:     0  MISS %:     0  AVERAGE MISS PENALTY: 0
STLB PREFETCH  REQUESTED:     0  ISSUED:     0  USEFUL:     0  USELESS:     0
 USEFUL LOAD PREFETCHES:          0 PREFETCH ISSUED TO LOWER LEVEL:          0  ACCURACY: -nan
 TIMELY PREFETCHES:          0 LATE PREFETCHES: 0 DROPPED PREFETCHES: 0
STLB AVERAGE MISS LATENCY: 100 cycles
L1D TOTAL     ACCESS: 83572443  HIT: 26934144  MISS: 56638299  HIT %: 32.2285  MISS %: 67.7715  AVERAGE MISS PENALTY: 1.22703e+06
L1D LOAD      ACCESS: 38060752  HIT: 20416663  MISS: 17644089  HIT %: 53.6423  MISS %: 46.3577  AVERAGE MISS PENALTY: 3.93789e+06
L1D RFO       ACCESS: 4848312  HIT: 4811519  MISS: 36793  HIT %: 99.2411  MISS %: 0.758883  AVERAGE MISS PENALTY: 232.833
L1D PREFETCH  ACCESS: 40663379  HIT: 1705962  MISS: 38957417  HIT %: 4.19533  MISS %: 95.8047  AVERAGE MISS PENALTY: 418.17
L1D WRITEBACK ACCESS:     0  HIT:     0  MISS:     0  HIT %:     0  MISS %:     0  AVERAGE MISS PENALTY: 0
L1D PREFETCH  REQUESTED: 61605939  ISSUED: 40917367  USEFUL: 934765  USELESS: 38022711
 USEFUL LOAD PREFETCHES:     934765 PREFETCH ISSUED TO LOWER LEVEL:  556756733  ACCURACY: 0.167895
 TIMELY PREFETCHES:     934765 LATE PREFETCHES: 107516 DROPPED PREFETCHES: 20688572
L1D AVERAGE MISS LATENCY: 427.879 cycles
L1I TOTAL     ACCESS: 45163057  HIT: 45163057  MISS:     0  HIT %:   100  MISS %:     0  AVERAGE MISS PENALTY: 0
L1I LOAD      ACCESS: 45163057  HIT: 45163057  MISS:     0  HIT %:   100  MISS %:     0  AVERAGE MISS PENALTY: 0
L1I RFO       ACCESS:     0  HIT:     0  MISS:     0  HIT %:     0  MISS %:     0  AVERAGE MISS PENALTY: 0
L1I PREFETCH  ACCESS:     0  HIT:     0  MISS:     0  HIT %:     0  MISS %:     0  AVERAGE MISS PENALTY: 0
L1I WRITEBACK ACCESS:     0  HIT:     0  MISS:     0  HIT %:     0  MISS %:     0  AVERAGE MISS PENALTY: 0
L1I PREFETCH  REQUESTED:     0  ISSUED:     0  USEFUL:     0  USELESS:     0
 USEFUL LOAD PREFETCHES:          0 PREFETCH ISSUED TO LOWER LEVEL:          0  ACCURACY: -nan
 TIMELY PREFETCHES:          0 LATE PREFETCHES: 0 DROPPED PREFETCHES: 0
L1I AVERAGE MISS LATENCY: -nan cycles
L2C TOTAL     ACCESS: 92876173  HIT: 7841029  MISS: 85035144  HIT %: 8.44245  MISS %: 91.5575  AVERAGE MISS PENALTY: 744618
L2C LOAD      ACCESS: 17643335  HIT: 306090  MISS: 17337245  HIT %: 1.73488  MISS %: 98.2651  AVERAGE MISS PENALTY: 3.65047e+06
L2C RFO       ACCESS: 36782  HIT: 24580  MISS: 12202  HIT %: 66.8262  MISS %: 33.1738  AVERAGE MISS PENALTY: 652.634
L2C PREFETCH  ACCESS: 72742797  HIT: 5113851  MISS: 67628946  HIT %: 7.03004  MISS %: 92.97  AVERAGE MISS PENALTY: 439.02
L2C WRITEBACK ACCESS: 2453259  HIT: 2396508  MISS: 56751  HIT %: 97.6867  MISS %: 2.31329  AVERAGE MISS PENALTY: 0
L2C PREFETCH  REQUESTED: 93158637  ISSUED: 92497788  USEFUL: 175295  USELESS: 67455267
 USEFUL LOAD PREFETCHES:     175295 PREFETCH ISSUED TO LOWER LEVEL:   88860461  ACCURACY: 0.19727
 TIMELY PREFETCHES:     175295 LATE PREFETCHES: 271087 DROPPED PREFETCHES: 660849
L2C AVERAGE MISS LATENCY: 438.52 cycles
LLC0 TOTAL     ACCESS: 11152345  HIT: 5286189  MISS: 5866156  HIT %: 47.3998  MISS %: 52.6002  AVERAGE MISS PENALTY: 776.58
LLC0 LOAD      ACCESS: 2196986  HIT: 989856  MISS: 1207130  HIT %: 45.0552  MISS %: 54.9448  AVERAGE MISS PENALTY: 766.751
LLC0 RFO       ACCESS:  1517  HIT:   216  MISS:  1301  HIT %: 14.2386  MISS %: 85.7614  AVERAGE MISS PENALTY: 753.859
LLC0 PREFETCH  ACCESS: 8655776  HIT: 4063062  MISS: 4592714  HIT %: 46.9405  MISS %: 53.0595  AVERAGE MISS PENALTY: 790.162
LLC0 WRITEBACK ACCESS: 298066  HIT: 233055  MISS: 65011  HIT %: 78.1891  MISS %: 21.8109  AVERAGE MISS PENALTY: 0
LLC0 PREFETCH  REQUESTED:     0  ISSUED:     0  USEFUL: 3130389  USELESS: 33646559
 USEFUL LOAD PREFETCHES:    3130389 PREFETCH ISSUED TO LOWER LEVEL:  239705331  ACCURACY: 1.30593
 TIMELY PREFETCHES:    3130389 LATE PREFETCHES: 0 DROPPED PREFETCHES: 0
LLC0 AVERAGE MISS LATENCY: 776.58 cycles
Deadblocks : 8649117 Deadblock percentage : 716.503

LLC1 TOTAL     ACCESS: 11294071  HIT: 5323300  MISS: 5970771  HIT %: 47.1336  MISS %: 52.8664  AVERAGE MISS PENALTY: 777.972
LLC1 LOAD      ACCESS: 2151890  HIT: 955730  MISS: 1196160  HIT %: 44.4135  MISS %: 55.5865  AVERAGE MISS PENALTY: 769.742
LLC1 RFO       ACCESS:  1559  HIT:   248  MISS:  1311  HIT %: 15.9076  MISS %: 84.0924  AVERAGE MISS PENALTY: 756.89
LLC1 PREFETCH  ACCESS: 8839758  HIT: 4128253  MISS: 4711505  HIT %: 46.701  MISS %: 53.299  AVERAGE MISS PENALTY: 790.271
LLC1 WRITEBACK ACCESS: 300864  HIT: 239069  MISS: 61795  HIT %: 79.4608  MISS %: 20.5392  AVERAGE MISS PENALTY: 0
LLC1 PREFETCH  REQUESTED:     0  ISSUED:     0  USEFUL: 3126158  USELESS: 34616372
 USEFUL LOAD PREFETCHES:    3126158 PREFETCH ISSUED TO LOWER LEVEL:  206537606  ACCURACY: 1.5136
 TIMELY PREFETCHES:    3126158 LATE PREFETCHES: 0 DROPPED PREFETCHES: 0
LLC1 AVERAGE MISS LATENCY: 777.972 cycles
LLC2 TOTAL     ACCESS: 11248544  HIT: 5288149  MISS: 5960395  HIT %: 47.0119  MISS %: 52.9881  AVERAGE MISS PENALTY: 768.244
LLC2 LOAD      ACCESS: 2144089  HIT: 960812  MISS: 1183277  HIT %: 44.8121  MISS %: 55.1879  AVERAGE MISS PENALTY: 765.783
LLC2 RFO       ACCESS:  1539  HIT:   235  MISS:  1304  HIT %: 15.2697  MISS %: 84.7303  AVERAGE MISS PENALTY: 774.864
LLC2 PREFETCH  ACCESS: 8804173  HIT: 4087249  MISS: 4716924  HIT %: 46.424  MISS %: 53.576  AVERAGE MISS PENALTY: 778.451
LLC2 WRITEBACK ACCESS: 298743  HIT: 239853  MISS: 58890  HIT %: 80.2874  MISS %: 19.7126  AVERAGE MISS PENALTY: 0
LLC2 PREFETCH  REQUESTED:     0  ISSUED:     0  USEFUL: 3065832  USELESS: 34699687
 USEFUL LOAD PREFETCHES:    3065832 PREFETCH ISSUED TO LOWER LEVEL:  313403829  ACCURACY: 0.978237
 TIMELY PREFETCHES:    3065832 LATE PREFETCHES: 0 DROPPED PREFETCHES: 0
LLC2 AVERAGE MISS LATENCY: 768.244 cycles
LLC3 TOTAL     ACCESS: 11043773  HIT: 5197892  MISS: 5845881  HIT %: 47.0663  MISS %: 52.9337  AVERAGE MISS PENALTY: 770.164
LLC3 LOAD      ACCESS: 2161083  HIT: 971842  MISS: 1189241  HIT %: 44.9701  MISS %: 55.0299  AVERAGE MISS PENALTY: 766.205
LLC3 RFO       ACCESS:  1540  HIT:   231  MISS:  1309  HIT %:    15  MISS %:    85  AVERAGE MISS PENALTY: 728.485
LLC3 PREFETCH  ACCESS: 8583129  HIT: 3985924  MISS: 4597205  HIT %: 46.4391  MISS %: 53.5609  AVERAGE MISS PENALTY: 780.937
LLC3 WRITEBACK ACCESS: 298021  HIT: 239895  MISS: 58126  HIT %: 80.496  MISS %: 19.504  AVERAGE MISS PENALTY: 0
LLC3 PREFETCH  REQUESTED:     0  ISSUED:     0  USEFUL: 3078377  USELESS: 33738866
 USEFUL LOAD PREFETCHES:    3078377 PREFETCH ISSUED TO LOWER LEVEL:  255993327  ACCURACY: 1.20252
 TIMELY PREFETCHES:    3078377 LATE PREFETCHES: 0 DROPPED PREFETCHES: 0
LLC3 AVERAGE MISS LATENCY: 770.164 cycles
LLC4 TOTAL     ACCESS: 10912457  HIT: 5135903  MISS: 5776554  HIT %: 47.0646  MISS %: 52.9354  AVERAGE MISS PENALTY: 710.009
LLC4 LOAD      ACCESS: 2143674  HIT: 950810  MISS: 1192864  HIT %: 44.3542  MISS %: 55.6458  AVERAGE MISS PENALTY: 694.038
LLC4 RFO       ACCESS:  1515  HIT:   209  MISS:  1306  HIT %: 13.7954  MISS %: 86.2046  AVERAGE MISS PENALTY: 682.965
LLC4 PREFETCH  ACCESS: 8467960  HIT: 3943612  MISS: 4524348  HIT %: 46.571  MISS %: 53.429  AVERAGE MISS PENALTY: 723.335
LLC4 WRITEBACK ACCESS: 299308  HIT: 241272  MISS: 58036  HIT %: 80.6099  MISS %: 19.3901  AVERAGE MISS PENALTY: 0
LLC4 PREFETCH  REQUESTED:     0  ISSUED:     0  USEFUL: 3102336  USELESS: 33133537
 USEFUL LOAD PREFETCHES:    3102336 PREFETCH ISSUED TO LOWER LEVEL:  403259546  ACCURACY: 0.769315
 TIMELY PREFETCHES:    3102336 LATE PREFETCHES: 0 DROPPED PREFETCHES: 0
LLC4 AVERAGE MISS LATENCY: 710.009 cycles
LLC5 TOTAL     ACCESS: 10796533  HIT: 5106464  MISS: 5690069  HIT %: 47.2973  MISS %: 52.7027  AVERAGE MISS PENALTY: 681.107
LLC5 LOAD      ACCESS: 2180064  HIT: 991685  MISS: 1188379  HIT %: 45.4888  MISS %: 54.5112  AVERAGE MISS PENALTY: 660.558
LLC5 RFO       ACCESS:  1521  HIT:   215  MISS:  1306  HIT %: 14.1354  MISS %: 85.8646  AVERAGE MISS PENALTY: 660.78
LLC5 PREFETCH  ACCESS: 8313170  HIT: 3870353  MISS: 4442817  HIT %: 46.5569  MISS %: 53.4431  AVERAGE MISS PENALTY: 695.435
LLC5 WRITEBACK ACCESS: 301778  HIT: 244211  MISS: 57567  HIT %: 80.9241  MISS %: 19.0759  AVERAGE MISS PENALTY: 0
LLC5 PREFETCH  REQUESTED:     0  ISSUED:     0  USEFUL: 3007934  USELESS: 32560727
 USEFUL LOAD PREFETCHES:    3007934 PREFETCH ISSUED TO LOWER LEVEL:  324590214  ACCURACY: 0.926687
 TIMELY PREFETCHES:    3007934 LATE PREFETCHES: 0 DROPPED PREFETCHES: 0
LLC5 AVERAGE MISS LATENCY: 681.107 cycles
LLC6 TOTAL     ACCESS: 10573214  HIT: 5021566  MISS: 5551648  HIT %: 47.4933  MISS %: 52.5067  AVERAGE MISS PENALTY: 705.128
LLC6 LOAD      ACCESS: 2171926  HIT: 968512  MISS: 1203414  HIT %: 44.5923  MISS %: 55.4077  AVERAGE MISS PENALTY: 692.162
LLC6 RFO       ACCESS:  1509  HIT:   202  MISS:  1307  HIT %: 13.3863  MISS %: 86.6137  AVERAGE MISS PENALTY: 680.654
LLC6 PREFETCH  ACCESS: 8096432  HIT: 3805833  MISS: 4290599  HIT %: 47.0063  MISS %: 52.9937  AVERAGE MISS PENALTY: 718.03
LLC6 WRITEBACK ACCESS: 303347  HIT: 247019  MISS: 56328  HIT %: 81.4312  MISS %: 18.5688  AVERAGE MISS PENALTY: 0
LLC6 PREFETCH  REQUESTED:     0  ISSUED:     0  USEFUL: 2990958  USELESS: 31361074
 USEFUL LOAD PREFETCHES:    2990958 PREFETCH ISSUED TO LOWER LEVEL:  519231208  ACCURACY: 0.576036
 TIMELY PREFETCHES:    2990958 LATE PREFETCHES: 0 DROPPED PREFETCHES: 0
LLC6 AVERAGE MISS LATENCY: 705.128 cycles
LLC7 TOTAL     ACCESS: 10357784  HIT: 4995546  MISS: 5362238  HIT %: 48.2299  MISS %: 51.7701  AVERAGE MISS PENALTY: 679.662
LLC7 LOAD      ACCESS: 2161805  HIT: 978473  MISS: 1183332  HIT %: 45.2619  MISS %: 54.7381  AVERAGE MISS PENALTY: 657.008
LLC7 RFO       ACCESS:  1502  HIT:   195  MISS:  1307  HIT %: 12.9827  MISS %: 87.0173  AVERAGE MISS PENALTY: 668.925
LLC7 PREFETCH  ACCESS: 7894270  HIT: 3771187  MISS: 4123083  HIT %: 47.7712  MISS %: 52.2288  AVERAGE MISS PENALTY: 695.154
LLC7 WRITEBACK ACCESS: 300207  HIT: 245691  MISS: 54516  HIT %: 81.8405  MISS %: 18.1595  AVERAGE MISS PENALTY: 0
LLC7 PREFETCH  REQUESTED:     0  ISSUED:     0  USEFUL: 2894517  USELESS: 30111497
 USEFUL LOAD PREFETCHES:    2894517 PREFETCH ISSUED TO LOWER LEVEL:  405202183  ACCURACY: 0.714339
 TIMELY PREFETCHES:    2894517 LATE PREFETCHES: 0 DROPPED PREFETCHES: 0
LLC7 AVERAGE MISS LATENCY: 679.662 cycles
ROI Average ROB Stall Cycles:	65.9774
ROI Total ROB Stalls Cycles:	3600197120
ROI TOTAL ROB counter      :	54567121
ROI Average Load ROB Stall Cycles:	475.385
ROI Total Load ROB Stalls Cycle  :	2931501971
ROI Total Load ROB stalls Counter:	6166586
Major fault: 0 Minor fault: 37418








Interconnect Stats 
LINK 0 BW : 0LINK 1 BW : 0LINK 2 BW : 0LINK 3 BW : 0LINK 4 BW : 0LINK 5 BW : 0LINK 6 BW : 0LINK 7 BW : 0
DRAM Statistics
 CHANNEL 0
 RQ ROW_BUFFER_HIT: 48877641  ROW_BUFFER_MISS: 134670983
 DBUS_CONGESTED: 98807212
 WQ ROW_BUFFER_HIT: 384341  ROW_BUFFER_MISS: 8905480  FULL:     0

 CHANNEL 1
 RQ ROW_BUFFER_HIT: 47741197  ROW_BUFFER_MISS: 133553607
 DBUS_CONGESTED: 98807212
 WQ ROW_BUFFER_HIT: 385073  ROW_BUFFER_MISS: 8901623  FULL:     0

 AVG_CONGESTED_CYCLE: 5
DRAM PAGES: 2097152
Allocated PAGES: 299344
L2C destructor called
L1D destructor called
L1I destructor called
STLB destructor called
DTLB destructor called
ITLB destructor called
L2C destructor called
L1D destructor called
L1I destructor called
STLB destructor called
DTLB destructor called
ITLB destructor called
L2C destructor called
L1D destructor called
L1I destructor called
STLB destructor called
DTLB destructor called
ITLB destructor called
L2C destructor called
L1D destructor called
L1I destructor called
STLB destructor called
DTLB destructor called
ITLB destructor called
L2C destructor called
L1D destructor called
L1I destructor called
STLB destructor called
DTLB destructor called
ITLB destructor called
L2C destructor called
L1D destructor called
L1I destructor called
STLB destructor called
DTLB destructor called
ITLB destructor called
L2C destructor called
L1D destructor called
L1I destructor called
STLB destructor called
DTLB destructor called
ITLB destructor called
L2C destructor called
L1D destructor called
L1I destructor called
STLB destructor called
DTLB destructor called
ITLB destructor called
