
*** ChampSim Multicore Out-of-Order Simulator ***

Warmup Instructions: 200000000
Simulation Instructions: 200000000
Number of CPUs: 8
threads:1

L1I Configuration:
L1I_SET:64
L1I_WAY:8
L1I_RQ_SIZE:64
L1I_WQ_SIZE:64
L1I_PQ_SIZE:8
L1I_MSHR_SIZE:8

L1D Configuration:
L1D_SET:64
L1D_WAY:12
L1D_RQ_SIZE:64
L1D_WQ_SIZE:64
L1D_PQ_SIZE:8
L1D_MSHR_SIZE:16

L2C Configuration:
L2C_SET:1024
L2C_WAY:8
L2C_RQ_SIZE:32
L2C_WQ_SIZE:32
L2C_PQ_SIZE:16
L2C_MSHR_SIZE:32

LLC Configuration:
LLC_SET:2048
LLC_WAY:16
LLC SLICES:8
LLC_RQ_SIZE:64
LLC_WQ_SIZE:64
LLC_PQ_SIZE:32
LLC_MSHR_SIZE:64

Interconnect OFF
Attacker deprioritize is: OFF
Off-chip DRAM Size: 8192 MB Channels: 2 Width: 64-bit Data Rate: 3200 MT/s
PAGE SIZE in KB: 4.000000 
PAGE SIZE in MB: 0.003906 
PAGE offset in bits: 12 
CEASER-S_LLC:0
MIRAGE : 1
CEASER_LATENCY:3
REMAP : OFF
Partitions : 1
Multi-Step : OFF
BFS : OFF

CPU 0 runs /home/anubhav/gap/bfs-3.trace.gz
CPU 1 runs /home/anubhav/gap/bfs-3.trace.gz
CPU 2 runs /home/anubhav/gap/bfs-3.trace.gz
CPU 3 runs /home/anubhav/gap/bfs-3.trace.gz
CPU 4 runs /home/anubhav/gap/bfs-3.trace.gz
CPU 5 runs /home/anubhav/gap/bfs-3.trace.gz
CPU 6 runs /home/anubhav/gap/bfs-3.trace.gz
CPU 7 runs /home/anubhav/gap/bfs-3.trace.gz
CPU 0 Bimodal branch predictor
Initialize Hawkeye state
Initialize Hawkeye state
Initialize Hawkeye state
Initialize Hawkeye state
Initialize Hawkeye state
Initialize Hawkeye state
Initialize Hawkeye state
Initialize Hawkeye state
CPU 1 Bimodal branch predictor
Initialize Hawkeye state
Initialize Hawkeye state
Initialize Hawkeye state
Initialize Hawkeye state
Initialize Hawkeye state
Initialize Hawkeye state
Initialize Hawkeye state
Initialize Hawkeye state
CPU 2 Bimodal branch predictor
Initialize Hawkeye state
Initialize Hawkeye state
Initialize Hawkeye state
Initialize Hawkeye state
Initialize Hawkeye state
Initialize Hawkeye state
Initialize Hawkeye state
Initialize Hawkeye state
CPU 3 Bimodal branch predictor
Initialize Hawkeye state
Initialize Hawkeye state
Initialize Hawkeye state
Initialize Hawkeye state
Initialize Hawkeye state
Initialize Hawkeye state
Initialize Hawkeye state
Initialize Hawkeye state
CPU 4 Bimodal branch predictor
Initialize Hawkeye state
Initialize Hawkeye state
Initialize Hawkeye state
Initialize Hawkeye state
Initialize Hawkeye state
Initialize Hawkeye state
Initialize Hawkeye state
Initialize Hawkeye state
CPU 5 Bimodal branch predictor
Initialize Hawkeye state
Initialize Hawkeye state
Initialize Hawkeye state
Initialize Hawkeye state
Initialize Hawkeye state
Initialize Hawkeye state
Initialize Hawkeye state
Initialize Hawkeye state
CPU 6 Bimodal branch predictor
Initialize Hawkeye state
Initialize Hawkeye state
Initialize Hawkeye state
Initialize Hawkeye state
Initialize Hawkeye state
Initialize Hawkeye state
Initialize Hawkeye state
Initialize Hawkeye state
CPU 7 Bimodal branch predictor
Initialize Hawkeye state
Initialize Hawkeye state
Initialize Hawkeye state
Initialize Hawkeye state
Initialize Hawkeye state
Initialize Hawkeye state
Initialize Hawkeye state
Initialize Hawkeye state
Heartbeat CPU 0 instructions: 10000003 cycles: 14677576 heartbeat IPC: 0.681312 cumulative IPC: 0.681312 (Simulation time: 0 hr 12 min 56 sec) 
 Total Blocks : 262144 Invalid Blocks : 734
Heartbeat CPU 1 instructions: 10000003 cycles: 14677582 heartbeat IPC: 0.681311 cumulative IPC: 0.681311 (Simulation time: 0 hr 12 min 56 sec) 
 Total Blocks : 262144 Invalid Blocks : 734
Heartbeat CPU 2 instructions: 10000003 cycles: 14677588 heartbeat IPC: 0.681311 cumulative IPC: 0.681311 (Simulation time: 0 hr 12 min 56 sec) 
 Total Blocks : 262144 Invalid Blocks : 734
Heartbeat CPU 3 instructions: 10000003 cycles: 14677591 heartbeat IPC: 0.681311 cumulative IPC: 0.681311 (Simulation time: 0 hr 12 min 56 sec) 
 Total Blocks : 262144 Invalid Blocks : 734
Heartbeat CPU 4 instructions: 10000003 cycles: 14677595 heartbeat IPC: 0.681311 cumulative IPC: 0.681311 (Simulation time: 0 hr 12 min 56 sec) 
 Total Blocks : 262144 Invalid Blocks : 734
Heartbeat CPU 5 instructions: 10000003 cycles: 14677598 heartbeat IPC: 0.681311 cumulative IPC: 0.681311 (Simulation time: 0 hr 12 min 56 sec) 
 Total Blocks : 262144 Invalid Blocks : 734
Heartbeat CPU 6 instructions: 10000003 cycles: 14677601 heartbeat IPC: 0.68131 cumulative IPC: 0.68131 (Simulation time: 0 hr 12 min 56 sec) 
 Total Blocks : 262144 Invalid Blocks : 734
Heartbeat CPU 7 instructions: 10000003 cycles: 14677604 heartbeat IPC: 0.68131 cumulative IPC: 0.68131 (Simulation time: 0 hr 12 min 56 sec) 
 Total Blocks : 262144 Invalid Blocks : 734
Heartbeat CPU 5 instructions: 20000002 cycles: 27839137 heartbeat IPC: 0.759789 cumulative IPC: 0.718413 (Simulation time: 1 hr 7 min 58 sec) 
 Total Blocks : 262144 Invalid Blocks : 0
Heartbeat CPU 7 instructions: 20000002 cycles: 27839183 heartbeat IPC: 0.759787 cumulative IPC: 0.718412 (Simulation time: 1 hr 7 min 58 sec) 
 Total Blocks : 262144 Invalid Blocks : 0
Heartbeat CPU 6 instructions: 20000002 cycles: 27844465 heartbeat IPC: 0.759482 cumulative IPC: 0.718276 (Simulation time: 1 hr 7 min 59 sec) 
 Total Blocks : 262144 Invalid Blocks : 0
Heartbeat CPU 0 instructions: 20000002 cycles: 27850768 heartbeat IPC: 0.759117 cumulative IPC: 0.718113 (Simulation time: 1 hr 8 min 2 sec) 
 Total Blocks : 262144 Invalid Blocks : 0
Heartbeat CPU 1 instructions: 20000002 cycles: 27850805 heartbeat IPC: 0.759116 cumulative IPC: 0.718112 (Simulation time: 1 hr 8 min 2 sec) 
 Total Blocks : 262144 Invalid Blocks : 0
Heartbeat CPU 2 instructions: 20000002 cycles: 27850846 heartbeat IPC: 0.759114 cumulative IPC: 0.718111 (Simulation time: 1 hr 8 min 2 sec) 
 Total Blocks : 262144 Invalid Blocks : 0
Heartbeat CPU 4 instructions: 20000002 cycles: 27850857 heartbeat IPC: 0.759113 cumulative IPC: 0.718111 (Simulation time: 1 hr 8 min 2 sec) 
 Total Blocks : 262144 Invalid Blocks : 0
Heartbeat CPU 3 instructions: 20000002 cycles: 27851018 heartbeat IPC: 0.759104 cumulative IPC: 0.718107 (Simulation time: 1 hr 8 min 2 sec) 
 Total Blocks : 262144 Invalid Blocks : 0
Heartbeat CPU 5 instructions: 30000000 cycles: 41091646 heartbeat IPC: 0.754574 cumulative IPC: 0.730075 (Simulation time: 2 hr 53 min 20 sec) 
 Total Blocks : 262144 Invalid Blocks : 0
Heartbeat CPU 7 instructions: 30000000 cycles: 41091767 heartbeat IPC: 0.75457 cumulative IPC: 0.730073 (Simulation time: 2 hr 53 min 20 sec) 
 Total Blocks : 262144 Invalid Blocks : 0
Heartbeat CPU 6 instructions: 30000000 cycles: 41101275 heartbeat IPC: 0.754329 cumulative IPC: 0.729904 (Simulation time: 2 hr 53 min 26 sec) 
 Total Blocks : 262144 Invalid Blocks : 0
Heartbeat CPU 0 instructions: 30000000 cycles: 41114667 heartbeat IPC: 0.753926 cumulative IPC: 0.729667 (Simulation time: 2 hr 53 min 35 sec) 
 Total Blocks : 262144 Invalid Blocks : 0
Heartbeat CPU 2 instructions: 30000000 cycles: 41114814 heartbeat IPC: 0.753922 cumulative IPC: 0.729664 (Simulation time: 2 hr 53 min 35 sec) 
 Total Blocks : 262144 Invalid Blocks : 0
Heartbeat CPU 1 instructions: 30000000 cycles: 41114820 heartbeat IPC: 0.753919 cumulative IPC: 0.729664 (Simulation time: 2 hr 53 min 35 sec) 
 Total Blocks : 262144 Invalid Blocks : 0
Heartbeat CPU 4 instructions: 30000000 cycles: 41114859 heartbeat IPC: 0.75392 cumulative IPC: 0.729663 (Simulation time: 2 hr 53 min 35 sec) 
 Total Blocks : 262144 Invalid Blocks : 0
Heartbeat CPU 3 instructions: 30000000 cycles: 41114937 heartbeat IPC: 0.753925 cumulative IPC: 0.729662 (Simulation time: 2 hr 53 min 35 sec) 
 Total Blocks : 262144 Invalid Blocks : 0
Heartbeat CPU 5 instructions: 40000000 cycles: 54333602 heartbeat IPC: 0.755175 cumulative IPC: 0.736193 (Simulation time: 5 hr 24 min 48 sec) 
 Total Blocks : 262144 Invalid Blocks : 0
Heartbeat CPU 7 instructions: 40000000 cycles: 54333753 heartbeat IPC: 0.755174 cumulative IPC: 0.736191 (Simulation time: 5 hr 24 min 48 sec) 
 Total Blocks : 262144 Invalid Blocks : 0
Heartbeat CPU 6 instructions: 40000000 cycles: 54347392 heartbeat IPC: 0.754938 cumulative IPC: 0.736006 (Simulation time: 5 hr 24 min 59 sec) 
 Total Blocks : 262144 Invalid Blocks : 0
Heartbeat CPU 0 instructions: 40000000 cycles: 54367948 heartbeat IPC: 0.75453 cumulative IPC: 0.735728 (Simulation time: 5 hr 25 min 12 sec) 
 Total Blocks : 262144 Invalid Blocks : 0
Heartbeat CPU 1 instructions: 40000000 cycles: 54368156 heartbeat IPC: 0.754527 cumulative IPC: 0.735725 (Simulation time: 5 hr 25 min 12 sec) 
 Total Blocks : 262144 Invalid Blocks : 0
Heartbeat CPU 2 instructions: 40000000 cycles: 54368185 heartbeat IPC: 0.754525 cumulative IPC: 0.735724 (Simulation time: 5 hr 25 min 12 sec) 
 Total Blocks : 262144 Invalid Blocks : 0
Heartbeat CPU 4 instructions: 40000000 cycles: 54368195 heartbeat IPC: 0.754527 cumulative IPC: 0.735724 (Simulation time: 5 hr 25 min 12 sec) 
 Total Blocks : 262144 Invalid Blocks : 0
Heartbeat CPU 3 instructions: 40000000 cycles: 54368267 heartbeat IPC: 0.754527 cumulative IPC: 0.735723 (Simulation time: 5 hr 25 min 12 sec) 
 Total Blocks : 262144 Invalid Blocks : 0
Heartbeat CPU 7 instructions: 50000000 cycles: 69870823 heartbeat IPC: 0.643622 cumulative IPC: 0.715606 (Simulation time: 7 hr 2 min 47 sec) 
 Total Blocks : 262144 Invalid Blocks : 0
Heartbeat CPU 5 instructions: 50000000 cycles: 69881859 heartbeat IPC: 0.643159 cumulative IPC: 0.715493 (Simulation time: 7 hr 2 min 47 sec) 
 Total Blocks : 262144 Invalid Blocks : 0
Heartbeat CPU 6 instructions: 50000000 cycles: 69886551 heartbeat IPC: 0.643535 cumulative IPC: 0.715445 (Simulation time: 7 hr 2 min 47 sec) 
 Total Blocks : 262144 Invalid Blocks : 0
Heartbeat CPU 0 instructions: 50000000 cycles: 69921264 heartbeat IPC: 0.64295 cumulative IPC: 0.71509 (Simulation time: 7 hr 2 min 48 sec) 
 Total Blocks : 262144 Invalid Blocks : 0
Heartbeat CPU 1 instructions: 50000000 cycles: 69921331 heartbeat IPC: 0.642956 cumulative IPC: 0.715089 (Simulation time: 7 hr 2 min 48 sec) 
 Total Blocks : 262144 Invalid Blocks : 0
Heartbeat CPU 2 instructions: 50000000 cycles: 69921466 heartbeat IPC: 0.642951 cumulative IPC: 0.715088 (Simulation time: 7 hr 2 min 48 sec) 
 Total Blocks : 262144 Invalid Blocks : 0
Heartbeat CPU 3 instructions: 50000000 cycles: 69921530 heartbeat IPC: 0.642952 cumulative IPC: 0.715087 (Simulation time: 7 hr 2 min 49 sec) 
 Total Blocks : 262144 Invalid Blocks : 0
Heartbeat CPU 4 instructions: 50000000 cycles: 69921571 heartbeat IPC: 0.642947 cumulative IPC: 0.715087 (Simulation time: 7 hr 2 min 49 sec) 
 Total Blocks : 262144 Invalid Blocks : 0
Heartbeat CPU 7 instructions: 60000002 cycles: 87471314 heartbeat IPC: 0.568166 cumulative IPC: 0.685939 (Simulation time: 7 hr 13 min 5 sec) 
 Total Blocks : 262144 Invalid Blocks : 0
Heartbeat CPU 6 instructions: 60000002 cycles: 87486989 heartbeat IPC: 0.568168 cumulative IPC: 0.685816 (Simulation time: 7 hr 13 min 6 sec) 
 Total Blocks : 262144 Invalid Blocks : 0
Heartbeat CPU 5 instructions: 60000002 cycles: 87502779 heartbeat IPC: 0.567507 cumulative IPC: 0.685693 (Simulation time: 7 hr 13 min 6 sec) 
 Total Blocks : 262144 Invalid Blocks : 0
Heartbeat CPU 0 instructions: 60000002 cycles: 87542110 heartbeat IPC: 0.56751 cumulative IPC: 0.685384 (Simulation time: 7 hr 13 min 8 sec) 
 Total Blocks : 262144 Invalid Blocks : 0
Heartbeat CPU 1 instructions: 60000002 cycles: 87542160 heartbeat IPC: 0.56751 cumulative IPC: 0.685384 (Simulation time: 7 hr 13 min 8 sec) 
 Total Blocks : 262144 Invalid Blocks : 0
Heartbeat CPU 3 instructions: 60000002 cycles: 87542369 heartbeat IPC: 0.56751 cumulative IPC: 0.685382 (Simulation time: 7 hr 13 min 8 sec) 
 Total Blocks : 262144 Invalid Blocks : 0
Heartbeat CPU 2 instructions: 60000002 cycles: 87542400 heartbeat IPC: 0.567507 cumulative IPC: 0.685382 (Simulation time: 7 hr 13 min 8 sec) 
 Total Blocks : 262144 Invalid Blocks : 0
Heartbeat CPU 4 instructions: 60000002 cycles: 87542425 heartbeat IPC: 0.567509 cumulative IPC: 0.685382 (Simulation time: 7 hr 13 min 8 sec) 
 Total Blocks : 262144 Invalid Blocks : 0
Heartbeat CPU 7 instructions: 70000001 cycles: 101983361 heartbeat IPC: 0.689083 cumulative IPC: 0.686386 (Simulation time: 7 hr 21 min 52 sec) 
 Total Blocks : 262144 Invalid Blocks : 0
Heartbeat CPU 6 instructions: 70000001 cycles: 102000096 heartbeat IPC: 0.689032 cumulative IPC: 0.686274 (Simulation time: 7 hr 21 min 55 sec) 
 Total Blocks : 262144 Invalid Blocks : 0
Heartbeat CPU 5 instructions: 70000001 cycles: 102014857 heartbeat IPC: 0.689081 cumulative IPC: 0.686175 (Simulation time: 7 hr 21 min 58 sec) 
 Total Blocks : 262144 Invalid Blocks : 0
Heartbeat CPU 0 instructions: 70000001 cycles: 102055229 heartbeat IPC: 0.689032 cumulative IPC: 0.685903 (Simulation time: 7 hr 22 min 5 sec) 
 Total Blocks : 262144 Invalid Blocks : 0
Heartbeat CPU 1 instructions: 70000001 cycles: 102055299 heartbeat IPC: 0.689031 cumulative IPC: 0.685903 (Simulation time: 7 hr 22 min 5 sec) 
 Total Blocks : 262144 Invalid Blocks : 0
Heartbeat CPU 3 instructions: 70000001 cycles: 102055489 heartbeat IPC: 0.689032 cumulative IPC: 0.685901 (Simulation time: 7 hr 22 min 5 sec) 
 Total Blocks : 262144 Invalid Blocks : 0
Heartbeat CPU 2 instructions: 70000001 cycles: 102055546 heartbeat IPC: 0.68903 cumulative IPC: 0.685901 (Simulation time: 7 hr 22 min 5 sec) 
 Total Blocks : 262144 Invalid Blocks : 0
Heartbeat CPU 4 instructions: 70000001 cycles: 102055559 heartbeat IPC: 0.689031 cumulative IPC: 0.685901 (Simulation time: 7 hr 22 min 5 sec) 
 Total Blocks : 262144 Invalid Blocks : 0
Heartbeat CPU 7 instructions: 80000000 cycles: 105108131 heartbeat IPC: 3.20024 cumulative IPC: 0.761121 (Simulation time: 7 hr 30 min 24 sec) 
 Total Blocks : 262144 Invalid Blocks : 0
Heartbeat CPU 6 instructions: 80000000 cycles: 105124893 heartbeat IPC: 3.20021 cumulative IPC: 0.761 (Simulation time: 7 hr 30 min 27 sec) 
 Total Blocks : 262144 Invalid Blocks : 0
Heartbeat CPU 5 instructions: 80000000 cycles: 105139702 heartbeat IPC: 3.20016 cumulative IPC: 0.760892 (Simulation time: 7 hr 30 min 33 sec) 
 Total Blocks : 262144 Invalid Blocks : 0
Heartbeat CPU 0 instructions: 80000000 cycles: 105180088 heartbeat IPC: 3.20014 cumulative IPC: 0.7606 (Simulation time: 7 hr 30 min 43 sec) 
 Total Blocks : 262144 Invalid Blocks : 0
Heartbeat CPU 1 instructions: 80000000 cycles: 105180094 heartbeat IPC: 3.20021 cumulative IPC: 0.7606 (Simulation time: 7 hr 30 min 43 sec) 
 Total Blocks : 262144 Invalid Blocks : 0
Heartbeat CPU 2 instructions: 80000000 cycles: 105180342 heartbeat IPC: 3.20021 cumulative IPC: 0.760598 (Simulation time: 7 hr 30 min 43 sec) 
 Total Blocks : 262144 Invalid Blocks : 0
Heartbeat CPU 3 instructions: 80000000 cycles: 105180343 heartbeat IPC: 3.20015 cumulative IPC: 0.760598 (Simulation time: 7 hr 30 min 43 sec) 
 Total Blocks : 262144 Invalid Blocks : 0
Heartbeat CPU 4 instructions: 80000000 cycles: 105180406 heartbeat IPC: 3.20016 cumulative IPC: 0.760598 (Simulation time: 7 hr 30 min 43 sec) 
 Total Blocks : 262144 Invalid Blocks : 0
Heartbeat CPU 7 instructions: 90000000 cycles: 114275517 heartbeat IPC: 1.09082 cumulative IPC: 0.78757 (Simulation time: 7 hr 43 min 10 sec) 
 Total Blocks : 262144 Invalid Blocks : 0
Heartbeat CPU 6 instructions: 90000000 cycles: 114292287 heartbeat IPC: 1.09082 cumulative IPC: 0.787455 (Simulation time: 7 hr 43 min 11 sec) 
 Total Blocks : 262144 Invalid Blocks : 0
Heartbeat CPU 5 instructions: 90000000 cycles: 114307080 heartbeat IPC: 1.09082 cumulative IPC: 0.787353 (Simulation time: 7 hr 43 min 11 sec) 
 Total Blocks : 262144 Invalid Blocks : 0
Heartbeat CPU 0 instructions: 90000000 cycles: 114347455 heartbeat IPC: 1.09083 cumulative IPC: 0.787075 (Simulation time: 7 hr 43 min 13 sec) 
 Total Blocks : 262144 Invalid Blocks : 0
Heartbeat CPU 1 instructions: 90000000 cycles: 114347483 heartbeat IPC: 1.09082 cumulative IPC: 0.787075 (Simulation time: 7 hr 43 min 13 sec) 
 Total Blocks : 262144 Invalid Blocks : 0
Heartbeat CPU 2 instructions: 90000000 cycles: 114347714 heartbeat IPC: 1.09083 cumulative IPC: 0.787073 (Simulation time: 7 hr 43 min 13 sec) 
 Total Blocks : 262144 Invalid Blocks : 0
Heartbeat CPU 3 instructions: 90000000 cycles: 114347740 heartbeat IPC: 1.09082 cumulative IPC: 0.787073 (Simulation time: 7 hr 43 min 13 sec) 
 Total Blocks : 262144 Invalid Blocks : 0
Heartbeat CPU 4 instructions: 90000000 cycles: 114347796 heartbeat IPC: 1.09082 cumulative IPC: 0.787072 (Simulation time: 7 hr 43 min 13 sec) 
 Total Blocks : 262144 Invalid Blocks : 0
Heartbeat CPU 7 instructions: 100000000 cycles: 126696967 heartbeat IPC: 0.805059 cumulative IPC: 0.789285 (Simulation time: 8 hr 3 min 59 sec) 
 Total Blocks : 262144 Invalid Blocks : 0
Heartbeat CPU 6 instructions: 100000000 cycles: 126714079 heartbeat IPC: 0.805037 cumulative IPC: 0.789178 (Simulation time: 8 hr 4 min 3 sec) 
 Total Blocks : 262144 Invalid Blocks : 0
Heartbeat CPU 5 instructions: 100000000 cycles: 126728043 heartbeat IPC: 0.805091 cumulative IPC: 0.789091 (Simulation time: 8 hr 4 min 6 sec) 
 Total Blocks : 262144 Invalid Blocks : 0
Heartbeat CPU 0 instructions: 100000000 cycles: 126766149 heartbeat IPC: 0.805238 cumulative IPC: 0.788854 (Simulation time: 8 hr 4 min 14 sec) 
 Total Blocks : 262144 Invalid Blocks : 0
Heartbeat CPU 1 instructions: 100000000 cycles: 126766879 heartbeat IPC: 0.805192 cumulative IPC: 0.78885 (Simulation time: 8 hr 4 min 14 sec) 
 Total Blocks : 262144 Invalid Blocks : 0
Heartbeat CPU 2 instructions: 100000000 cycles: 126767617 heartbeat IPC: 0.805159 cumulative IPC: 0.788845 (Simulation time: 8 hr 4 min 14 sec) 
 Total Blocks : 262144 Invalid Blocks : 0
Heartbeat CPU 3 instructions: 100000000 cycles: 126767692 heartbeat IPC: 0.805156 cumulative IPC: 0.788845 (Simulation time: 8 hr 4 min 14 sec) 
 Total Blocks : 262144 Invalid Blocks : 0
Heartbeat CPU 4 instructions: 100000000 cycles: 126768274 heartbeat IPC: 0.805122 cumulative IPC: 0.788841 (Simulation time: 8 hr 4 min 14 sec) 
 Total Blocks : 262144 Invalid Blocks : 0
Heartbeat CPU 7 instructions: 110000000 cycles: 136943277 heartbeat IPC: 0.975961 cumulative IPC: 0.803252 (Simulation time: 8 hr 22 min 24 sec) 
 Total Blocks : 262144 Invalid Blocks : 0
Heartbeat CPU 6 instructions: 110000000 cycles: 136971326 heartbeat IPC: 0.97492 cumulative IPC: 0.803088 (Simulation time: 8 hr 22 min 25 sec) 
 Total Blocks : 262144 Invalid Blocks : 0
Heartbeat CPU 5 instructions: 110000000 cycles: 136974907 heartbeat IPC: 0.975908 cumulative IPC: 0.803067 (Simulation time: 8 hr 22 min 25 sec) 
 Total Blocks : 262144 Invalid Blocks : 0
Heartbeat CPU 0 instructions: 110000000 cycles: 137024989 heartbeat IPC: 0.974769 cumulative IPC: 0.802773 (Simulation time: 8 hr 22 min 28 sec) 
 Total Blocks : 262144 Invalid Blocks : 0
Heartbeat CPU 1 instructions: 110000000 cycles: 137025947 heartbeat IPC: 0.974747 cumulative IPC: 0.802768 (Simulation time: 8 hr 22 min 28 sec) 
 Total Blocks : 262144 Invalid Blocks : 0
Heartbeat CPU 2 instructions: 110000000 cycles: 137027430 heartbeat IPC: 0.974677 cumulative IPC: 0.802759 (Simulation time: 8 hr 22 min 28 sec) 
 Total Blocks : 262144 Invalid Blocks : 0
Heartbeat CPU 3 instructions: 110000000 cycles: 137027825 heartbeat IPC: 0.974646 cumulative IPC: 0.802757 (Simulation time: 8 hr 22 min 28 sec) 
 Total Blocks : 262144 Invalid Blocks : 0
Heartbeat CPU 4 instructions: 110000000 cycles: 137028418 heartbeat IPC: 0.974645 cumulative IPC: 0.802753 (Simulation time: 8 hr 22 min 28 sec) 
 Total Blocks : 262144 Invalid Blocks : 0
Heartbeat CPU 7 instructions: 120000000 cycles: 149757001 heartbeat IPC: 0.780413 cumulative IPC: 0.801298 (Simulation time: 8 hr 33 min 6 sec) 
 Total Blocks : 262144 Invalid Blocks : 0
Heartbeat CPU 5 instructions: 120000000 cycles: 149790010 heartbeat IPC: 0.780329 cumulative IPC: 0.801122 (Simulation time: 8 hr 33 min 8 sec) 
 Total Blocks : 262144 Invalid Blocks : 0
Heartbeat CPU 6 instructions: 120000000 cycles: 149801477 heartbeat IPC: 0.779414 cumulative IPC: 0.80106 (Simulation time: 8 hr 33 min 9 sec) 
 Total Blocks : 262144 Invalid Blocks : 0
Heartbeat CPU 0 instructions: 120000000 cycles: 149861117 heartbeat IPC: 0.779051 cumulative IPC: 0.800741 (Simulation time: 8 hr 33 min 12 sec) 
 Total Blocks : 262144 Invalid Blocks : 0
Heartbeat CPU 1 instructions: 120000000 cycles: 149862102 heartbeat IPC: 0.77905 cumulative IPC: 0.800736 (Simulation time: 8 hr 33 min 12 sec) 
 Total Blocks : 262144 Invalid Blocks : 0
Heartbeat CPU 2 instructions: 120000000 cycles: 149863840 heartbeat IPC: 0.779034 cumulative IPC: 0.800727 (Simulation time: 8 hr 33 min 12 sec) 
 Total Blocks : 262144 Invalid Blocks : 0
Heartbeat CPU 3 instructions: 120000000 cycles: 149863903 heartbeat IPC: 0.779054 cumulative IPC: 0.800727 (Simulation time: 8 hr 33 min 12 sec) 
 Total Blocks : 262144 Invalid Blocks : 0
Heartbeat CPU 4 instructions: 120000000 cycles: 149864890 heartbeat IPC: 0.77903 cumulative IPC: 0.800721 (Simulation time: 8 hr 33 min 12 sec) 
 Total Blocks : 262144 Invalid Blocks : 0
Heartbeat CPU 7 instructions: 130000002 cycles: 165024488 heartbeat IPC: 0.654987 cumulative IPC: 0.787762 (Simulation time: 8 hr 43 min 12 sec) 
 Total Blocks : 262144 Invalid Blocks : 0
Heartbeat CPU 5 instructions: 130000002 cycles: 165061061 heartbeat IPC: 0.654834 cumulative IPC: 0.787587 (Simulation time: 8 hr 43 min 13 sec) 
 Total Blocks : 262144 Invalid Blocks : 0
Heartbeat CPU 6 instructions: 130000002 cycles: 165076168 heartbeat IPC: 0.654678 cumulative IPC: 0.787515 (Simulation time: 8 hr 43 min 14 sec) 
 Total Blocks : 262144 Invalid Blocks : 0
Heartbeat CPU 0 instructions: 130000002 cycles: 165141074 heartbeat IPC: 0.654452 cumulative IPC: 0.787206 (Simulation time: 8 hr 43 min 16 sec) 
 Total Blocks : 262144 Invalid Blocks : 0
Heartbeat CPU 1 instructions: 130000002 cycles: 165141977 heartbeat IPC: 0.654456 cumulative IPC: 0.787201 (Simulation time: 8 hr 43 min 16 sec) 
 Total Blocks : 262144 Invalid Blocks : 0
Heartbeat CPU 2 instructions: 130000002 cycles: 165143926 heartbeat IPC: 0.654447 cumulative IPC: 0.787192 (Simulation time: 8 hr 43 min 16 sec) 
 Total Blocks : 262144 Invalid Blocks : 0
Heartbeat CPU 3 instructions: 130000002 cycles: 165144011 heartbeat IPC: 0.654446 cumulative IPC: 0.787192 (Simulation time: 8 hr 43 min 16 sec) 
 Total Blocks : 262144 Invalid Blocks : 0
Heartbeat CPU 4 instructions: 130000002 cycles: 165144921 heartbeat IPC: 0.654449 cumulative IPC: 0.787187 (Simulation time: 8 hr 43 min 16 sec) 
 Total Blocks : 262144 Invalid Blocks : 0
Heartbeat CPU 7 instructions: 140000000 cycles: 173492040 heartbeat IPC: 1.18098 cumulative IPC: 0.806953 (Simulation time: 8 hr 50 min 57 sec) 
 Total Blocks : 262144 Invalid Blocks : 0
Heartbeat CPU 5 instructions: 140000000 cycles: 173530676 heartbeat IPC: 1.18069 cumulative IPC: 0.806774 (Simulation time: 8 hr 51 min 2 sec) 
 Total Blocks : 262144 Invalid Blocks : 0
Heartbeat CPU 6 instructions: 140000000 cycles: 173543692 heartbeat IPC: 1.18098 cumulative IPC: 0.806713 (Simulation time: 8 hr 51 min 4 sec) 
 Total Blocks : 262144 Invalid Blocks : 0
Heartbeat CPU 0 instructions: 140000000 cycles: 173610606 heartbeat IPC: 1.1807 cumulative IPC: 0.806402 (Simulation time: 8 hr 51 min 13 sec) 
 Total Blocks : 262144 Invalid Blocks : 0
Heartbeat CPU 1 instructions: 140000000 cycles: 173611509 heartbeat IPC: 1.1807 cumulative IPC: 0.806398 (Simulation time: 8 hr 51 min 13 sec) 
 Total Blocks : 262144 Invalid Blocks : 0
Heartbeat CPU 2 instructions: 140000000 cycles: 173613516 heartbeat IPC: 1.18069 cumulative IPC: 0.806389 (Simulation time: 8 hr 51 min 13 sec) 
 Total Blocks : 262144 Invalid Blocks : 0
Heartbeat CPU 3 instructions: 140000000 cycles: 173613536 heartbeat IPC: 1.1807 cumulative IPC: 0.806389 (Simulation time: 8 hr 51 min 13 sec) 
 Total Blocks : 262144 Invalid Blocks : 0
Heartbeat CPU 4 instructions: 140000000 cycles: 173614500 heartbeat IPC: 1.1807 cumulative IPC: 0.806384 (Simulation time: 8 hr 51 min 13 sec) 
 Total Blocks : 262144 Invalid Blocks : 0
Heartbeat CPU 7 instructions: 150000001 cycles: 177100967 heartbeat IPC: 2.77091 cumulative IPC: 0.846974 (Simulation time: 9 hr 3 min 2 sec) 
 Total Blocks : 262144 Invalid Blocks : 0
Heartbeat CPU 5 instructions: 150000001 cycles: 177139676 heartbeat IPC: 2.77085 cumulative IPC: 0.846789 (Simulation time: 9 hr 3 min 10 sec) 
 Total Blocks : 262144 Invalid Blocks : 0
Heartbeat CPU 6 instructions: 150000001 cycles: 177152897 heartbeat IPC: 2.77069 cumulative IPC: 0.846726 (Simulation time: 9 hr 3 min 13 sec) 
 Total Blocks : 262144 Invalid Blocks : 0
Heartbeat CPU 0 instructions: 150000001 cycles: 177219268 heartbeat IPC: 2.77111 cumulative IPC: 0.846409 (Simulation time: 9 hr 3 min 30 sec) 
 Total Blocks : 262144 Invalid Blocks : 0
Heartbeat CPU 1 instructions: 150000001 cycles: 177220403 heartbeat IPC: 2.77093 cumulative IPC: 0.846404 (Simulation time: 9 hr 3 min 30 sec) 
 Total Blocks : 262144 Invalid Blocks : 0
Heartbeat CPU 2 instructions: 150000001 cycles: 177222575 heartbeat IPC: 2.77081 cumulative IPC: 0.846393 (Simulation time: 9 hr 3 min 30 sec) 
 Total Blocks : 262144 Invalid Blocks : 0
Heartbeat CPU 3 instructions: 150000001 cycles: 177222620 heartbeat IPC: 2.77079 cumulative IPC: 0.846393 (Simulation time: 9 hr 3 min 30 sec) 
 Total Blocks : 262144 Invalid Blocks : 0
Heartbeat CPU 4 instructions: 150000001 cycles: 177223631 heartbeat IPC: 2.77075 cumulative IPC: 0.846388 (Simulation time: 9 hr 3 min 31 sec) 
 Total Blocks : 262144 Invalid Blocks : 0
Heartbeat CPU 7 instructions: 160000000 cycles: 190570544 heartbeat IPC: 0.742414 cumulative IPC: 0.839584 (Simulation time: 9 hr 12 min 29 sec) 
 Total Blocks : 262144 Invalid Blocks : 0
Heartbeat CPU 5 instructions: 160000000 cycles: 190609246 heartbeat IPC: 0.742414 cumulative IPC: 0.839414 (Simulation time: 9 hr 12 min 30 sec) 
 Total Blocks : 262144 Invalid Blocks : 0
Heartbeat CPU 6 instructions: 160000000 cycles: 190622509 heartbeat IPC: 0.742412 cumulative IPC: 0.839355 (Simulation time: 9 hr 12 min 31 sec) 
 Total Blocks : 262144 Invalid Blocks : 0
Heartbeat CPU 0 instructions: 160000000 cycles: 190688820 heartbeat IPC: 0.742415 cumulative IPC: 0.839063 (Simulation time: 9 hr 12 min 33 sec) 
 Total Blocks : 262144 Invalid Blocks : 0
Heartbeat CPU 1 instructions: 160000000 cycles: 190689974 heartbeat IPC: 0.742414 cumulative IPC: 0.839058 (Simulation time: 9 hr 12 min 33 sec) 
 Total Blocks : 262144 Invalid Blocks : 0
Heartbeat CPU 2 instructions: 160000000 cycles: 190692160 heartbeat IPC: 0.742413 cumulative IPC: 0.839049 (Simulation time: 9 hr 12 min 33 sec) 
 Total Blocks : 262144 Invalid Blocks : 0
Heartbeat CPU 3 instructions: 160000000 cycles: 190692179 heartbeat IPC: 0.742415 cumulative IPC: 0.839049 (Simulation time: 9 hr 12 min 33 sec) 
 Total Blocks : 262144 Invalid Blocks : 0
Heartbeat CPU 4 instructions: 160000000 cycles: 190693202 heartbeat IPC: 0.742414 cumulative IPC: 0.839044 (Simulation time: 9 hr 12 min 33 sec) 
 Total Blocks : 262144 Invalid Blocks : 0
Heartbeat CPU 7 instructions: 170000000 cycles: 200371531 heartbeat IPC: 1.02031 cumulative IPC: 0.848424 (Simulation time: 9 hr 41 min 0 sec) 
 Total Blocks : 262144 Invalid Blocks : 0
Heartbeat CPU 5 instructions: 170000000 cycles: 200408787 heartbeat IPC: 1.02046 cumulative IPC: 0.848266 (Simulation time: 9 hr 41 min 12 sec) 
 Total Blocks : 262144 Invalid Blocks : 0
Heartbeat CPU 6 instructions: 170000000 cycles: 200423402 heartbeat IPC: 1.02032 cumulative IPC: 0.848204 (Simulation time: 9 hr 41 min 16 sec) 
 Total Blocks : 262144 Invalid Blocks : 0
Heartbeat CPU 0 instructions: 170000001 cycles: 200480974 heartbeat IPC: 1.02123 cumulative IPC: 0.847961 (Simulation time: 9 hr 41 min 34 sec) 
 Total Blocks : 262144 Invalid Blocks : 0
Heartbeat CPU 1 instructions: 170000000 cycles: 200484030 heartbeat IPC: 1.02103 cumulative IPC: 0.847948 (Simulation time: 9 hr 41 min 35 sec) 
 Total Blocks : 262144 Invalid Blocks : 0
Heartbeat CPU 2 instructions: 170000000 cycles: 200488178 heartbeat IPC: 1.02082 cumulative IPC: 0.84793 (Simulation time: 9 hr 41 min 36 sec) 
 Total Blocks : 262144 Invalid Blocks : 0
Heartbeat CPU 3 instructions: 170000000 cycles: 200489647 heartbeat IPC: 1.02067 cumulative IPC: 0.847924 (Simulation time: 9 hr 41 min 36 sec) 
 Total Blocks : 262144 Invalid Blocks : 0
Heartbeat CPU 4 instructions: 170000000 cycles: 200491770 heartbeat IPC: 1.02056 cumulative IPC: 0.847915 (Simulation time: 9 hr 41 min 37 sec) 
 Total Blocks : 262144 Invalid Blocks : 0
Heartbeat CPU 7 instructions: 180000002 cycles: 206843062 heartbeat IPC: 1.54523 cumulative IPC: 0.870225 (Simulation time: 10 hr 16 min 52 sec) 
 Total Blocks : 262144 Invalid Blocks : 0
Heartbeat CPU 5 instructions: 180000002 cycles: 206878653 heartbeat IPC: 1.54563 cumulative IPC: 0.870075 (Simulation time: 10 hr 17 min 8 sec) 
 Total Blocks : 262144 Invalid Blocks : 0
Heartbeat CPU 6 instructions: 180000002 cycles: 206894557 heartbeat IPC: 1.54532 cumulative IPC: 0.870008 (Simulation time: 10 hr 17 min 16 sec) 
 Total Blocks : 262144 Invalid Blocks : 0
Heartbeat CPU 0 instructions: 180000002 cycles: 206943961 heartbeat IPC: 1.54727 cumulative IPC: 0.869801 (Simulation time: 10 hr 17 min 38 sec) 
 Total Blocks : 262144 Invalid Blocks : 0
Heartbeat CPU 1 instructions: 180000002 cycles: 206948900 heartbeat IPC: 1.54682 cumulative IPC: 0.86978 (Simulation time: 10 hr 17 min 40 sec) 
 Total Blocks : 262144 Invalid Blocks : 0
Heartbeat CPU 2 instructions: 180000002 cycles: 206954192 heartbeat IPC: 1.54655 cumulative IPC: 0.869758 (Simulation time: 10 hr 17 min 42 sec) 
 Total Blocks : 262144 Invalid Blocks : 0
Heartbeat CPU 3 instructions: 180000003 cycles: 206957264 heartbeat IPC: 1.54616 cumulative IPC: 0.869745 (Simulation time: 10 hr 17 min 43 sec) 
 Total Blocks : 262144 Invalid Blocks : 0
Heartbeat CPU 4 instructions: 180000002 cycles: 206960481 heartbeat IPC: 1.5459 cumulative IPC: 0.869731 (Simulation time: 10 hr 17 min 45 sec) 
 Total Blocks : 262144 Invalid Blocks : 0
Heartbeat CPU 7 instructions: 190000000 cycles: 211672344 heartbeat IPC: 2.0707 cumulative IPC: 0.897614 (Simulation time: 10 hr 49 min 20 sec) 
 Total Blocks : 262144 Invalid Blocks : 0
Heartbeat CPU 5 instructions: 190000000 cycles: 211706788 heartbeat IPC: 2.07119 cumulative IPC: 0.897468 (Simulation time: 10 hr 49 min 21 sec) 
 Total Blocks : 262144 Invalid Blocks : 0
Heartbeat CPU 6 instructions: 190000000 cycles: 211723797 heartbeat IPC: 2.07072 cumulative IPC: 0.897396 (Simulation time: 10 hr 49 min 22 sec) 
 Total Blocks : 262144 Invalid Blocks : 0
Heartbeat CPU 0 instructions: 190000000 cycles: 211767925 heartbeat IPC: 2.07298 cumulative IPC: 0.897209 (Simulation time: 10 hr 49 min 24 sec) 
 Total Blocks : 262144 Invalid Blocks : 0
Heartbeat CPU 1 instructions: 190000000 cycles: 211773902 heartbeat IPC: 2.07254 cumulative IPC: 0.897183 (Simulation time: 10 hr 49 min 24 sec) 
 Total Blocks : 262144 Invalid Blocks : 0
Heartbeat CPU 2 instructions: 190000000 cycles: 211779915 heartbeat IPC: 2.07223 cumulative IPC: 0.897158 (Simulation time: 10 hr 49 min 25 sec) 
 Total Blocks : 262144 Invalid Blocks : 0
Heartbeat CPU 3 instructions: 190000000 cycles: 211784015 heartbeat IPC: 2.07179 cumulative IPC: 0.89714 (Simulation time: 10 hr 49 min 25 sec) 
 Total Blocks : 262144 Invalid Blocks : 0
Heartbeat CPU 4 instructions: 190000000 cycles: 211788248 heartbeat IPC: 2.07135 cumulative IPC: 0.897123 (Simulation time: 10 hr 49 min 25 sec) 
 Total Blocks : 262144 Invalid Blocks : 0
Heartbeat CPU 7 instructions: 200000002 cycles: 227066404 heartbeat IPC: 0.649601 cumulative IPC: 0.8808 (Simulation time: 10 hr 59 min 21 sec) 
 Total Blocks : 262144 Invalid Blocks : 0
Heartbeat CPU 5 instructions: 200000002 cycles: 227102198 heartbeat IPC: 0.649544 cumulative IPC: 0.880661 (Simulation time: 10 hr 59 min 23 sec) 
 Total Blocks : 262144 Invalid Blocks : 0
Heartbeat CPU 6 instructions: 200000002 cycles: 227139336 heartbeat IPC: 0.648696 cumulative IPC: 0.880517 (Simulation time: 10 hr 59 min 25 sec) 
 Total Blocks : 262144 Invalid Blocks : 0
Heartbeat CPU 0 instructions: 200000002 cycles: 227188758 heartbeat IPC: 0.648474 cumulative IPC: 0.880325 (Simulation time: 10 hr 59 min 27 sec) 
 Total Blocks : 262144 Invalid Blocks : 0
Heartbeat CPU 1 instructions: 200000002 cycles: 227195005 heartbeat IPC: 0.648462 cumulative IPC: 0.880301 (Simulation time: 10 hr 59 min 27 sec) 
 Total Blocks : 262144 Invalid Blocks : 0
Heartbeat CPU 2 instructions: 200000002 cycles: 227201086 heartbeat IPC: 0.648459 cumulative IPC: 0.880278 (Simulation time: 10 hr 59 min 27 sec) 
 Total Blocks : 262144 Invalid Blocks : 0
Heartbeat CPU 3 instructions: 200000002 cycles: 227205164 heartbeat IPC: 0.64846 cumulative IPC: 0.880262 (Simulation time: 10 hr 59 min 27 sec) 
 Total Blocks : 262144 Invalid Blocks : 0
Heartbeat CPU 4 instructions: 200000002 cycles: 227209162 heartbeat IPC: 0.64847 cumulative IPC: 0.880246 (Simulation time: 10 hr 59 min 28 sec) 
 Total Blocks : 262144 Invalid Blocks : 0

Warmup complete CPU 0 instructions: 200013253 cycles: 227209162 (Simulation time: 10 hr 59 min 28 sec) 
Warmup complete CPU 1 instructions: 200009226 cycles: 227209162 (Simulation time: 10 hr 59 min 28 sec) 
Warmup complete CPU 2 instructions: 200005406 cycles: 227209162 (Simulation time: 10 hr 59 min 28 sec) 
Warmup complete CPU 3 instructions: 200002558 cycles: 227209162 (Simulation time: 10 hr 59 min 28 sec) 
Warmup complete CPU 4 instructions: 200000002 cycles: 227209162 (Simulation time: 10 hr 59 min 28 sec) 
Warmup complete CPU 5 instructions: 200070305 cycles: 227209161 (Simulation time: 10 hr 59 min 28 sec) 
Warmup complete CPU 6 instructions: 200045268 cycles: 227209161 (Simulation time: 10 hr 59 min 28 sec) 
Warmup complete CPU 7 instructions: 200092751 cycles: 227209161 (Simulation time: 10 hr 59 min 28 sec) 

Heartbeat CPU 7 instructions: 210000001 cycles: 277704229 heartbeat IPC: 0.197481 cumulative IPC: 0.196202 (Simulation time: 11 hr 24 min 31 sec) 
 Total Blocks : 262144 Invalid Blocks : 0
Heartbeat CPU 5 instructions: 210000001 cycles: 277995567 heartbeat IPC: 0.196489 cumulative IPC: 0.195519 (Simulation time: 11 hr 24 min 39 sec) 
 Total Blocks : 262144 Invalid Blocks : 0
Heartbeat CPU 6 instructions: 210000001 cycles: 278253098 heartbeat IPC: 0.195642 cumulative IPC: 0.195023 (Simulation time: 11 hr 24 min 46 sec) 
 Total Blocks : 262144 Invalid Blocks : 0
Heartbeat CPU 1 instructions: 210000001 cycles: 278476355 heartbeat IPC: 0.195003 cumulative IPC: 0.194877 (Simulation time: 11 hr 24 min 53 sec) 
 Total Blocks : 262144 Invalid Blocks : 0
Heartbeat CPU 0 instructions: 210000001 cycles: 278559639 heartbeat IPC: 0.194663 cumulative IPC: 0.194482 (Simulation time: 11 hr 24 min 56 sec) 
 Total Blocks : 262144 Invalid Blocks : 0
Heartbeat CPU 3 instructions: 210000001 cycles: 278662208 heartbeat IPC: 0.194337 cumulative IPC: 0.194302 (Simulation time: 11 hr 24 min 58 sec) 
 Total Blocks : 262144 Invalid Blocks : 0
Heartbeat CPU 2 instructions: 210000001 cycles: 278838020 heartbeat IPC: 0.19366 cumulative IPC: 0.193585 (Simulation time: 11 hr 25 min 4 sec) 
 Total Blocks : 262144 Invalid Blocks : 0
Heartbeat CPU 4 instructions: 210000001 cycles: 278907382 heartbeat IPC: 0.19343 cumulative IPC: 0.19343 (Simulation time: 11 hr 25 min 6 sec) 
 Total Blocks : 262144 Invalid Blocks : 0
Heartbeat CPU 7 instructions: 220000000 cycles: 302420150 heartbeat IPC: 0.404597 cumulative IPC: 0.264685 (Simulation time: 11 hr 39 min 39 sec) 
 Total Blocks : 262144 Invalid Blocks : 0
Heartbeat CPU 5 instructions: 220000000 cycles: 302796331 heartbeat IPC: 0.403213 cumulative IPC: 0.263665 (Simulation time: 11 hr 40 min 48 sec) 
 Total Blocks : 262144 Invalid Blocks : 0
Heartbeat CPU 6 instructions: 220000000 cycles: 302970395 heartbeat IPC: 0.404575 cumulative IPC: 0.26339 (Simulation time: 11 hr 41 min 17 sec) 
 Total Blocks : 262144 Invalid Blocks : 0
Heartbeat CPU 1 instructions: 220000000 cycles: 303255759 heartbeat IPC: 0.403561 cumulative IPC: 0.262875 (Simulation time: 11 hr 42 min 5 sec) 
 Total Blocks : 262144 Invalid Blocks : 0
Heartbeat CPU 0 instructions: 220000000 cycles: 303368768 heartbeat IPC: 0.403077 cumulative IPC: 0.262432 (Simulation time: 11 hr 42 min 26 sec) 
 Total Blocks : 262144 Invalid Blocks : 0
Heartbeat CPU 3 instructions: 220000000 cycles: 303473202 heartbeat IPC: 0.403047 cumulative IPC: 0.262213 (Simulation time: 11 hr 42 min 45 sec) 
 Total Blocks : 262144 Invalid Blocks : 0
Heartbeat CPU 2 instructions: 220000000 cycles: 303622737 heartbeat IPC: 0.403474 cumulative IPC: 0.261663 (Simulation time: 11 hr 43 min 12 sec) 
 Total Blocks : 262144 Invalid Blocks : 0
Heartbeat CPU 4 instructions: 220000000 cycles: 303680810 heartbeat IPC: 0.403658 cumulative IPC: 0.261535 (Simulation time: 11 hr 43 min 23 sec) 
 Total Blocks : 262144 Invalid Blocks : 0
Heartbeat CPU 7 instructions: 230000001 cycles: 311820753 heartbeat IPC: 1.06376 cumulative IPC: 0.353465 (Simulation time: 12 hr 0 min 26 sec) 
 Total Blocks : 262144 Invalid Blocks : 0
Heartbeat CPU 5 instructions: 230000001 cycles: 312309950 heartbeat IPC: 1.05112 cumulative IPC: 0.351697 (Simulation time: 12 hr 1 min 35 sec) 
 Total Blocks : 262144 Invalid Blocks : 0
Heartbeat CPU 6 instructions: 230000001 cycles: 312493358 heartbeat IPC: 1.05009 cumulative IPC: 0.351234 (Simulation time: 12 hr 2 min 0 sec) 
 Total Blocks : 262144 Invalid Blocks : 0
Heartbeat CPU 1 instructions: 230000001 cycles: 312788797 heartbeat IPC: 1.04898 cumulative IPC: 0.350443 (Simulation time: 12 hr 2 min 42 sec) 
 Total Blocks : 262144 Invalid Blocks : 0
Heartbeat CPU 0 instructions: 230000001 cycles: 312910807 heartbeat IPC: 1.04799 cumulative IPC: 0.349897 (Simulation time: 12 hr 2 min 59 sec) 
 Total Blocks : 262144 Invalid Blocks : 0
Heartbeat CPU 3 instructions: 230000001 cycles: 313000486 heartbeat IPC: 1.04962 cumulative IPC: 0.349656 (Simulation time: 12 hr 3 min 11 sec) 
 Total Blocks : 262144 Invalid Blocks : 0
Heartbeat CPU 2 instructions: 230000001 cycles: 313120422 heartbeat IPC: 1.05289 cumulative IPC: 0.349135 (Simulation time: 12 hr 3 min 28 sec) 
 Total Blocks : 262144 Invalid Blocks : 0
Heartbeat CPU 4 instructions: 230000001 cycles: 313135658 heartbeat IPC: 1.05766 cumulative IPC: 0.349136 (Simulation time: 12 hr 3 min 30 sec) 
 Total Blocks : 262144 Invalid Blocks : 0
Heartbeat CPU 7 instructions: 240000001 cycles: 334386501 heartbeat IPC: 0.44315 cumulative IPC: 0.372348 (Simulation time: 12 hr 21 min 45 sec) 
 Total Blocks : 262144 Invalid Blocks : 0
Heartbeat CPU 5 instructions: 240000001 cycles: 334925874 heartbeat IPC: 0.442166 cumulative IPC: 0.370692 (Simulation time: 12 hr 22 min 6 sec) 
 Total Blocks : 262144 Invalid Blocks : 0
Heartbeat CPU 6 instructions: 240000001 cycles: 335095545 heartbeat IPC: 0.442435 cumulative IPC: 0.370341 (Simulation time: 12 hr 22 min 12 sec) 
 Total Blocks : 262144 Invalid Blocks : 0
Heartbeat CPU 1 instructions: 240000001 cycles: 335425425 heartbeat IPC: 0.441762 cumulative IPC: 0.369545 (Simulation time: 12 hr 22 min 25 sec) 
 Total Blocks : 262144 Invalid Blocks : 0
Heartbeat CPU 0 instructions: 240000001 cycles: 335522166 heartbeat IPC: 0.442256 cumulative IPC: 0.369178 (Simulation time: 12 hr 22 min 29 sec) 
 Total Blocks : 262144 Invalid Blocks : 0
Heartbeat CPU 3 instructions: 240000001 cycles: 335561203 heartbeat IPC: 0.443248 cumulative IPC: 0.369143 (Simulation time: 12 hr 22 min 30 sec) 
 Total Blocks : 262144 Invalid Blocks : 0
Heartbeat CPU 4 instructions: 240000001 cycles: 335586159 heartbeat IPC: 0.445424 cumulative IPC: 0.369082 (Simulation time: 12 hr 22 min 31 sec) 
 Total Blocks : 262144 Invalid Blocks : 0
Heartbeat CPU 2 instructions: 240000001 cycles: 335612484 heartbeat IPC: 0.444601 cumulative IPC: 0.368943 (Simulation time: 12 hr 22 min 32 sec) 
 Total Blocks : 262144 Invalid Blocks : 0
Heartbeat CPU 7 instructions: 250000000 cycles: 397870836 heartbeat IPC: 0.157519 cumulative IPC: 0.292434 (Simulation time: 13 hr 13 min 20 sec) 
 Total Blocks : 262144 Invalid Blocks : 0
Heartbeat CPU 5 instructions: 250000000 cycles: 398062336 heartbeat IPC: 0.158387 cumulative IPC: 0.292237 (Simulation time: 13 hr 13 min 26 sec) 
 Total Blocks : 262144 Invalid Blocks : 0
Heartbeat CPU 6 instructions: 250000000 cycles: 398129849 heartbeat IPC: 0.158644 cumulative IPC: 0.292268 (Simulation time: 13 hr 13 min 28 sec) 
 Total Blocks : 262144 Invalid Blocks : 0
Heartbeat CPU 1 instructions: 250000000 cycles: 398372687 heartbeat IPC: 0.158863 cumulative IPC: 0.292064 (Simulation time: 13 hr 13 min 36 sec) 
 Total Blocks : 262144 Invalid Blocks : 0
Heartbeat CPU 3 instructions: 250000000 cycles: 398382366 heartbeat IPC: 0.159182 cumulative IPC: 0.292087 (Simulation time: 13 hr 13 min 36 sec) 
 Total Blocks : 262144 Invalid Blocks : 0
Heartbeat CPU 4 instructions: 250000000 cycles: 398541014 heartbeat IPC: 0.158844 cumulative IPC: 0.291831 (Simulation time: 13 hr 13 min 41 sec) 
 Total Blocks : 262144 Invalid Blocks : 0
Heartbeat CPU 2 instructions: 250000000 cycles: 398613876 heartbeat IPC: 0.158727 cumulative IPC: 0.291676 (Simulation time: 13 hr 13 min 42 sec) 
 Total Blocks : 262144 Invalid Blocks : 0
Heartbeat CPU 0 instructions: 250000000 cycles: 398613927 heartbeat IPC: 0.158499 cumulative IPC: 0.29163 (Simulation time: 13 hr 13 min 42 sec) 
 Total Blocks : 262144 Invalid Blocks : 0
Heartbeat CPU 7 instructions: 260000000 cycles: 448161631 heartbeat IPC: 0.198844 cumulative IPC: 0.271132 (Simulation time: 13 hr 39 min 28 sec) 
 Total Blocks : 262144 Invalid Blocks : 0
Heartbeat CPU 5 instructions: 260000000 cycles: 448289495 heartbeat IPC: 0.199095 cumulative IPC: 0.271077 (Simulation time: 13 hr 39 min 32 sec) 
 Total Blocks : 262144 Invalid Blocks : 0
Heartbeat CPU 6 instructions: 260000000 cycles: 448602186 heartbeat IPC: 0.198128 cumulative IPC: 0.270807 (Simulation time: 13 hr 39 min 42 sec) 
 Total Blocks : 262144 Invalid Blocks : 0
Heartbeat CPU 1 instructions: 260000000 cycles: 448809305 heartbeat IPC: 0.198269 cumulative IPC: 0.270716 (Simulation time: 13 hr 39 min 49 sec) 
 Total Blocks : 262144 Invalid Blocks : 0
Heartbeat CPU 3 instructions: 260000000 cycles: 448866614 heartbeat IPC: 0.198082 cumulative IPC: 0.270676 (Simulation time: 13 hr 39 min 51 sec) 
 Total Blocks : 262144 Invalid Blocks : 0
Heartbeat CPU 4 instructions: 260000000 cycles: 448930753 heartbeat IPC: 0.198453 cumulative IPC: 0.27061 (Simulation time: 13 hr 39 min 53 sec) 
 Total Blocks : 262144 Invalid Blocks : 0
Heartbeat CPU 2 instructions: 260000000 cycles: 448953807 heartbeat IPC: 0.198649 cumulative IPC: 0.270557 (Simulation time: 13 hr 39 min 54 sec) 
 Total Blocks : 262144 Invalid Blocks : 0
Heartbeat CPU 0 instructions: 260000000 cycles: 448966538 heartbeat IPC: 0.198599 cumulative IPC: 0.270506 (Simulation time: 13 hr 39 min 54 sec) 
 Total Blocks : 262144 Invalid Blocks : 0
Heartbeat CPU 7 instructions: 270000001 cycles: 498548455 heartbeat IPC: 0.198465 cumulative IPC: 0.257638 (Simulation time: 14 hr 4 min 54 sec) 
 Total Blocks : 262144 Invalid Blocks : 0
Heartbeat CPU 5 instructions: 270000001 cycles: 498694299 heartbeat IPC: 0.198394 cumulative IPC: 0.257582 (Simulation time: 14 hr 4 min 58 sec) 
 Total Blocks : 262144 Invalid Blocks : 0
Heartbeat CPU 6 instructions: 270000001 cycles: 499150596 heartbeat IPC: 0.19783 cumulative IPC: 0.257242 (Simulation time: 14 hr 5 min 11 sec) 
 Total Blocks : 262144 Invalid Blocks : 0
Heartbeat CPU 3 instructions: 270000001 cycles: 499411612 heartbeat IPC: 0.197844 cumulative IPC: 0.257152 (Simulation time: 14 hr 5 min 18 sec) 
 Total Blocks : 262144 Invalid Blocks : 0
Heartbeat CPU 1 instructions: 270000001 cycles: 499477691 heartbeat IPC: 0.197362 cumulative IPC: 0.257065 (Simulation time: 14 hr 5 min 20 sec) 
 Total Blocks : 262144 Invalid Blocks : 0
Heartbeat CPU 2 instructions: 270000001 cycles: 499485414 heartbeat IPC: 0.197896 cumulative IPC: 0.257072 (Simulation time: 14 hr 5 min 20 sec) 
 Total Blocks : 262144 Invalid Blocks : 0
Heartbeat CPU 0 instructions: 270000001 cycles: 499516643 heartbeat IPC: 0.197824 cumulative IPC: 0.257014 (Simulation time: 14 hr 5 min 21 sec) 
 Total Blocks : 262144 Invalid Blocks : 0
Heartbeat CPU 4 instructions: 270000001 cycles: 499531945 heartbeat IPC: 0.197624 cumulative IPC: 0.257048 (Simulation time: 14 hr 5 min 22 sec) 
 Total Blocks : 262144 Invalid Blocks : 0
Heartbeat CPU 7 instructions: 280000003 cycles: 546749636 heartbeat IPC: 0.207464 cumulative IPC: 0.250069 (Simulation time: 14 hr 26 min 55 sec) 
 Total Blocks : 262144 Invalid Blocks : 0
Heartbeat CPU 6 instructions: 280000003 cycles: 547308818 heartbeat IPC: 0.207649 cumulative IPC: 0.249781 (Simulation time: 14 hr 27 min 13 sec) 
 Total Blocks : 262144 Invalid Blocks : 0
Heartbeat CPU 5 instructions: 280000003 cycles: 547332618 heartbeat IPC: 0.205599 cumulative IPC: 0.249684 (Simulation time: 14 hr 27 min 14 sec) 
 Total Blocks : 262144 Invalid Blocks : 0
Heartbeat CPU 2 instructions: 280000003 cycles: 547830212 heartbeat IPC: 0.206848 cumulative IPC: 0.249499 (Simulation time: 14 hr 27 min 51 sec) 
 Total Blocks : 262144 Invalid Blocks : 0
Heartbeat CPU 3 instructions: 280000003 cycles: 547840039 heartbeat IPC: 0.20649 cumulative IPC: 0.2495 (Simulation time: 14 hr 27 min 53 sec) 
 Total Blocks : 262144 Invalid Blocks : 0
Heartbeat CPU 1 instructions: 280000003 cycles: 547860305 heartbeat IPC: 0.206686 cumulative IPC: 0.249464 (Simulation time: 14 hr 27 min 55 sec) 
 Total Blocks : 262144 Invalid Blocks : 0
Heartbeat CPU 4 instructions: 280000003 cycles: 547967299 heartbeat IPC: 0.206461 cumulative IPC: 0.249409 (Simulation time: 14 hr 28 min 8 sec) 
 Total Blocks : 262144 Invalid Blocks : 0
Heartbeat CPU 0 instructions: 280000003 cycles: 548084830 heartbeat IPC: 0.205896 cumulative IPC: 0.249276 (Simulation time: 14 hr 28 min 22 sec) 
 Total Blocks : 262144 Invalid Blocks : 0
Heartbeat CPU 7 instructions: 290000002 cycles: 553925431 heartbeat IPC: 1.39357 cumulative IPC: 0.275184 (Simulation time: 14 hr 39 min 19 sec) 
 Total Blocks : 262144 Invalid Blocks : 0
Heartbeat CPU 6 instructions: 290000002 cycles: 554485085 heartbeat IPC: 1.39348 cumulative IPC: 0.274859 (Simulation time: 14 hr 40 min 9 sec) 
 Total Blocks : 262144 Invalid Blocks : 0
Heartbeat CPU 5 instructions: 290000002 cycles: 554507968 heartbeat IPC: 1.39366 cumulative IPC: 0.274763 (Simulation time: 14 hr 40 min 12 sec) 
 Total Blocks : 262144 Invalid Blocks : 0
Heartbeat CPU 2 instructions: 290000002 cycles: 555007108 heartbeat IPC: 1.39336 cumulative IPC: 0.274543 (Simulation time: 14 hr 41 min 9 sec) 
 Total Blocks : 262144 Invalid Blocks : 0
Heartbeat CPU 3 instructions: 290000002 cycles: 555022501 heartbeat IPC: 1.39228 cumulative IPC: 0.274539 (Simulation time: 14 hr 41 min 11 sec) 
 Total Blocks : 262144 Invalid Blocks : 0
Heartbeat CPU 1 instructions: 290000002 cycles: 555039957 heartbeat IPC: 1.39283 cumulative IPC: 0.274504 (Simulation time: 14 hr 41 min 13 sec) 
 Total Blocks : 262144 Invalid Blocks : 0
Heartbeat CPU 4 instructions: 290000002 cycles: 555142421 heartbeat IPC: 1.3937 cumulative IPC: 0.274446 (Simulation time: 14 hr 41 min 21 sec) 
 Total Blocks : 262144 Invalid Blocks : 0
Heartbeat CPU 0 instructions: 290000002 cycles: 555261123 heartbeat IPC: 1.39348 cumulative IPC: 0.274306 (Simulation time: 14 hr 41 min 31 sec) 
 Total Blocks : 262144 Invalid Blocks : 0
Heartbeat CPU 7 instructions: 300000000 cycles: 595218001 heartbeat IPC: 0.242174 cumulative IPC: 0.271481 (Simulation time: 15 hr 15 min 22 sec) 
 Total Blocks : 262144 Invalid Blocks : 0
Heartbeat CPU 6 instructions: 300000000 cycles: 595894891 heartbeat IPC: 0.241489 cumulative IPC: 0.271111 (Simulation time: 15 hr 15 min 47 sec) 
 Total Blocks : 262144 Invalid Blocks : 0
Heartbeat CPU 5 instructions: 300000000 cycles: 596017214 heartbeat IPC: 0.24091 cumulative IPC: 0.270953 (Simulation time: 15 hr 15 min 52 sec) 
 Total Blocks : 262144 Invalid Blocks : 0
Heartbeat CPU 2 instructions: 300000000 cycles: 596287923 heartbeat IPC: 0.242243 cumulative IPC: 0.27093 (Simulation time: 15 hr 16 min 2 sec) 
 Total Blocks : 262144 Invalid Blocks : 0
Heartbeat CPU 1 instructions: 300000000 cycles: 596309388 heartbeat IPC: 0.24231 cumulative IPC: 0.270904 (Simulation time: 15 hr 16 min 3 sec) 
 Total Blocks : 262144 Invalid Blocks : 0
Heartbeat CPU 3 instructions: 300000000 cycles: 596352064 heartbeat IPC: 0.241958 cumulative IPC: 0.270891 (Simulation time: 15 hr 16 min 5 sec) 
 Total Blocks : 262144 Invalid Blocks : 0
Heartbeat CPU 4 instructions: 300000000 cycles: 596572814 heartbeat IPC: 0.241369 cumulative IPC: 0.270736 (Simulation time: 15 hr 16 min 13 sec) 
 Total Blocks : 262144 Invalid Blocks : 0
Heartbeat CPU 0 instructions: 300000000 cycles: 596577696 heartbeat IPC: 0.242034 cumulative IPC: 0.270696 (Simulation time: 15 hr 16 min 13 sec) 
 Total Blocks : 262144 Invalid Blocks : 0
Heartbeat CPU 7 instructions: 310000000 cycles: 648475233 heartbeat IPC: 0.187768 cumulative IPC: 0.260897 (Simulation time: 16 hr 2 min 3 sec) 
 Total Blocks : 262144 Invalid Blocks : 0
Heartbeat CPU 5 instructions: 310000000 cycles: 648778060 heartbeat IPC: 0.189534 cumulative IPC: 0.260763 (Simulation time: 16 hr 2 min 11 sec) 
 Total Blocks : 262144 Invalid Blocks : 0
Heartbeat CPU 6 instructions: 310000000 cycles: 648832209 heartbeat IPC: 0.188903 cumulative IPC: 0.260789 (Simulation time: 16 hr 2 min 13 sec) 
 Total Blocks : 262144 Invalid Blocks : 0
Heartbeat CPU 2 instructions: 310000000 cycles: 649316091 heartbeat IPC: 0.188579 cumulative IPC: 0.260585 (Simulation time: 16 hr 2 min 27 sec) 
 Total Blocks : 262144 Invalid Blocks : 0
Heartbeat CPU 3 instructions: 310000000 cycles: 649407080 heartbeat IPC: 0.188484 cumulative IPC: 0.260535 (Simulation time: 16 hr 2 min 30 sec) 
 Total Blocks : 262144 Invalid Blocks : 0
Heartbeat CPU 4 instructions: 310000000 cycles: 649408453 heartbeat IPC: 0.189266 cumulative IPC: 0.26054 (Simulation time: 16 hr 2 min 30 sec) 
 Total Blocks : 262144 Invalid Blocks : 0
Heartbeat CPU 1 instructions: 310000000 cycles: 649513590 heartbeat IPC: 0.187955 cumulative IPC: 0.260454 (Simulation time: 16 hr 2 min 33 sec) 
 Total Blocks : 262144 Invalid Blocks : 0
Heartbeat CPU 0 instructions: 310000000 cycles: 649546775 heartbeat IPC: 0.188789 cumulative IPC: 0.260424 (Simulation time: 16 hr 2 min 34 sec) 
 Total Blocks : 262144 Invalid Blocks : 0
Heartbeat CPU 7 instructions: 320000000 cycles: 792892528 heartbeat IPC: 0.0692438 cumulative IPC: 0.211969 (Simulation time: 18 hr 0 min 23 sec) 
 Total Blocks : 262144 Invalid Blocks : 0
Heartbeat CPU 5 instructions: 320000000 cycles: 792997704 heartbeat IPC: 0.0693387 cumulative IPC: 0.211969 (Simulation time: 18 hr 0 min 31 sec) 
 Total Blocks : 262144 Invalid Blocks : 0
Heartbeat CPU 2 instructions: 320000000 cycles: 793031723 heartbeat IPC: 0.0695819 cumulative IPC: 0.212071 (Simulation time: 18 hr 0 min 33 sec) 
 Total Blocks : 262144 Invalid Blocks : 0
Heartbeat CPU 4 instructions: 320000000 cycles: 793199569 heartbeat IPC: 0.0695453 cumulative IPC: 0.212018 (Simulation time: 18 hr 0 min 42 sec) 
 Total Blocks : 262144 Invalid Blocks : 0
Heartbeat CPU 3 instructions: 320000000 cycles: 793524175 heartbeat IPC: 0.069388 cumulative IPC: 0.211892 (Simulation time: 18 hr 0 min 56 sec) 
 Total Blocks : 262144 Invalid Blocks : 0
Heartbeat CPU 6 instructions: 320000000 cycles: 793559158 heartbeat IPC: 0.0690956 cumulative IPC: 0.211803 (Simulation time: 18 hr 0 min 57 sec) 
 Total Blocks : 262144 Invalid Blocks : 0
Heartbeat CPU 1 instructions: 320000000 cycles: 793845556 heartbeat IPC: 0.0692847 cumulative IPC: 0.21176 (Simulation time: 18 hr 1 min 9 sec) 
 Total Blocks : 262144 Invalid Blocks : 0
Heartbeat CPU 0 instructions: 320000000 cycles: 794459913 heartbeat IPC: 0.0690069 cumulative IPC: 0.211523 (Simulation time: 18 hr 1 min 47 sec) 
 Total Blocks : 262144 Invalid Blocks : 0
Heartbeat CPU 5 instructions: 330000000 cycles: 878497121 heartbeat IPC: 0.11696 cumulative IPC: 0.199497 (Simulation time: 19 hr 47 min 20 sec) 
 Total Blocks : 262144 Invalid Blocks : 0
Heartbeat CPU 7 instructions: 330000000 cycles: 878633104 heartbeat IPC: 0.116631 cumulative IPC: 0.19942 (Simulation time: 19 hr 47 min 22 sec) 
 Total Blocks : 262144 Invalid Blocks : 0
Heartbeat CPU 4 instructions: 330000000 cycles: 878813931 heartbeat IPC: 0.116803 cumulative IPC: 0.199507 (Simulation time: 19 hr 47 min 25 sec) 
 Total Blocks : 262144 Invalid Blocks : 0
Heartbeat CPU 2 instructions: 330000000 cycles: 879077622 heartbeat IPC: 0.116217 cumulative IPC: 0.199418 (Simulation time: 19 hr 47 min 30 sec) 
 Total Blocks : 262144 Invalid Blocks : 0
Heartbeat CPU 6 instructions: 330000000 cycles: 879093550 heartbeat IPC: 0.116912 cumulative IPC: 0.199352 (Simulation time: 19 hr 47 min 30 sec) 
 Total Blocks : 262144 Invalid Blocks : 0
Heartbeat CPU 3 instructions: 330000000 cycles: 879119617 heartbeat IPC: 0.116829 cumulative IPC: 0.19941 (Simulation time: 19 hr 47 min 31 sec) 
 Total Blocks : 262144 Invalid Blocks : 0
Heartbeat CPU 1 instructions: 330000000 cycles: 879345562 heartbeat IPC: 0.116959 cumulative IPC: 0.199331 (Simulation time: 19 hr 47 min 35 sec) 
 Total Blocks : 262144 Invalid Blocks : 0
Heartbeat CPU 0 instructions: 330000000 cycles: 879562248 heartbeat IPC: 0.117506 cumulative IPC: 0.199258 (Simulation time: 19 hr 47 min 39 sec) 
 Total Blocks : 262144 Invalid Blocks : 0
Heartbeat CPU 5 instructions: 340000000 cycles: 934454991 heartbeat IPC: 0.178706 cumulative IPC: 0.197852 (Simulation time: 20 hr 14 min 7 sec) 
 Total Blocks : 262144 Invalid Blocks : 0
Heartbeat CPU 7 instructions: 340000000 cycles: 934556823 heartbeat IPC: 0.178815 cumulative IPC: 0.197791 (Simulation time: 20 hr 14 min 10 sec) 
 Total Blocks : 262144 Invalid Blocks : 0
Heartbeat CPU 6 instructions: 340000000 cycles: 935535395 heartbeat IPC: 0.177174 cumulative IPC: 0.197585 (Simulation time: 20 hr 14 min 40 sec) 
 Total Blocks : 262144 Invalid Blocks : 0
Heartbeat CPU 4 instructions: 340000000 cycles: 935565112 heartbeat IPC: 0.176208 cumulative IPC: 0.197641 (Simulation time: 20 hr 14 min 41 sec) 
 Total Blocks : 262144 Invalid Blocks : 0
Heartbeat CPU 2 instructions: 340000000 cycles: 935869922 heartbeat IPC: 0.17608 cumulative IPC: 0.197548 (Simulation time: 20 hr 14 min 51 sec) 
 Total Blocks : 262144 Invalid Blocks : 0
Heartbeat CPU 3 instructions: 340000000 cycles: 935878541 heartbeat IPC: 0.176184 cumulative IPC: 0.19755 (Simulation time: 20 hr 14 min 51 sec) 
 Total Blocks : 262144 Invalid Blocks : 0
Heartbeat CPU 1 instructions: 340000000 cycles: 936178811 heartbeat IPC: 0.175953 cumulative IPC: 0.197457 (Simulation time: 20 hr 15 min 0 sec) 
 Total Blocks : 262144 Invalid Blocks : 0
Heartbeat CPU 0 instructions: 340000000 cycles: 936297627 heartbeat IPC: 0.176257 cumulative IPC: 0.197418 (Simulation time: 20 hr 15 min 4 sec) 
 Total Blocks : 262144 Invalid Blocks : 0
Heartbeat CPU 5 instructions: 350000000 cycles: 984072111 heartbeat IPC: 0.201543 cumulative IPC: 0.198094 (Simulation time: 20 hr 38 min 41 sec) 
 Total Blocks : 262144 Invalid Blocks : 0
Heartbeat CPU 7 instructions: 350000000 cycles: 984183861 heartbeat IPC: 0.201503 cumulative IPC: 0.198035 (Simulation time: 20 hr 38 min 44 sec) 
 Total Blocks : 262144 Invalid Blocks : 0
Heartbeat CPU 6 instructions: 350000000 cycles: 985400814 heartbeat IPC: 0.20054 cumulative IPC: 0.197779 (Simulation time: 20 hr 39 min 20 sec) 
 Total Blocks : 262144 Invalid Blocks : 0
Heartbeat CPU 4 instructions: 350000000 cycles: 985611181 heartbeat IPC: 0.199816 cumulative IPC: 0.197784 (Simulation time: 20 hr 39 min 27 sec) 
 Total Blocks : 262144 Invalid Blocks : 0
Heartbeat CPU 3 instructions: 350000000 cycles: 985866969 heartbeat IPC: 0.200046 cumulative IPC: 0.197714 (Simulation time: 20 hr 39 min 34 sec) 
 Total Blocks : 262144 Invalid Blocks : 0
Heartbeat CPU 2 instructions: 350000000 cycles: 985873309 heartbeat IPC: 0.199986 cumulative IPC: 0.197709 (Simulation time: 20 hr 39 min 35 sec) 
 Total Blocks : 262144 Invalid Blocks : 0
Heartbeat CPU 1 instructions: 350000000 cycles: 986381998 heartbeat IPC: 0.199191 cumulative IPC: 0.197571 (Simulation time: 20 hr 39 min 50 sec) 
 Total Blocks : 262144 Invalid Blocks : 0
Heartbeat CPU 0 instructions: 350000000 cycles: 986512163 heartbeat IPC: 0.199146 cumulative IPC: 0.197532 (Simulation time: 20 hr 39 min 53 sec) 
 Total Blocks : 262144 Invalid Blocks : 0
Heartbeat CPU 7 instructions: 360000002 cycles: 1009051392 heartbeat IPC: 0.402131 cumulative IPC: 0.204526 (Simulation time: 20 hr 52 min 49 sec) 
 Total Blocks : 262144 Invalid Blocks : 0
Heartbeat CPU 5 instructions: 360000002 cycles: 1009071048 heartbeat IPC: 0.400017 cumulative IPC: 0.20455 (Simulation time: 20 hr 52 min 52 sec) 
 Total Blocks : 262144 Invalid Blocks : 0
Heartbeat CPU 6 instructions: 360000002 cycles: 1010271753 heartbeat IPC: 0.402076 cumulative IPC: 0.204268 (Simulation time: 20 hr 55 min 48 sec) 
 Total Blocks : 262144 Invalid Blocks : 0
Heartbeat CPU 4 instructions: 360000002 cycles: 1010600143 heartbeat IPC: 0.400177 cumulative IPC: 0.20424 (Simulation time: 20 hr 56 min 45 sec) 
 Total Blocks : 262144 Invalid Blocks : 0
Heartbeat CPU 2 instructions: 360000002 cycles: 1010816865 heartbeat IPC: 0.400905 cumulative IPC: 0.204177 (Simulation time: 20 hr 57 min 23 sec) 
 Total Blocks : 262144 Invalid Blocks : 0
Heartbeat CPU 3 instructions: 360000002 cycles: 1010841912 heartbeat IPC: 0.400401 cumulative IPC: 0.204174 (Simulation time: 20 hr 57 min 28 sec) 
 Total Blocks : 262144 Invalid Blocks : 0
Heartbeat CPU 1 instructions: 360000002 cycles: 1011346068 heartbeat IPC: 0.400576 cumulative IPC: 0.204034 (Simulation time: 20 hr 58 min 43 sec) 
 Total Blocks : 262144 Invalid Blocks : 0
Heartbeat CPU 0 instructions: 360000002 cycles: 1011470397 heartbeat IPC: 0.400669 cumulative IPC: 0.203997 (Simulation time: 20 hr 59 min 5 sec) 
 Total Blocks : 262144 Invalid Blocks : 0
Heartbeat CPU 5 instructions: 370000002 cycles: 1018738143 heartbeat IPC: 1.03444 cumulative IPC: 0.214685 (Simulation time: 21 hr 11 min 47 sec) 
 Total Blocks : 262144 Invalid Blocks : 0
Heartbeat CPU 7 instructions: 370000002 cycles: 1018743390 heartbeat IPC: 1.03178 cumulative IPC: 0.214656 (Simulation time: 21 hr 11 min 48 sec) 
 Total Blocks : 262144 Invalid Blocks : 0
Heartbeat CPU 6 instructions: 370000002 cycles: 1020146933 heartbeat IPC: 1.01264 cumulative IPC: 0.214336 (Simulation time: 21 hr 15 min 1 sec) 
 Total Blocks : 262144 Invalid Blocks : 0
Heartbeat CPU 4 instructions: 370000002 cycles: 1020511088 heartbeat IPC: 1.00899 cumulative IPC: 0.214294 (Simulation time: 21 hr 15 min 52 sec) 
 Total Blocks : 262144 Invalid Blocks : 0
Heartbeat CPU 2 instructions: 370000002 cycles: 1020742197 heartbeat IPC: 1.00752 cumulative IPC: 0.214225 (Simulation time: 21 hr 16 min 24 sec) 
 Total Blocks : 262144 Invalid Blocks : 0
Heartbeat CPU 3 instructions: 370000002 cycles: 1020768386 heartbeat IPC: 1.00741 cumulative IPC: 0.214221 (Simulation time: 21 hr 16 min 27 sec) 
 Total Blocks : 262144 Invalid Blocks : 0
Heartbeat CPU 1 instructions: 370000002 cycles: 1021168524 heartbeat IPC: 1.01808 cumulative IPC: 0.214105 (Simulation time: 21 hr 17 min 25 sec) 
 Total Blocks : 262144 Invalid Blocks : 0
Heartbeat CPU 0 instructions: 370000002 cycles: 1021219461 heartbeat IPC: 1.02574 cumulative IPC: 0.214086 (Simulation time: 21 hr 17 min 32 sec) 
 Total Blocks : 262144 Invalid Blocks : 0
Heartbeat CPU 7 instructions: 380000002 cycles: 1041235783 heartbeat IPC: 0.444595 cumulative IPC: 0.221009 (Simulation time: 21 hr 33 min 7 sec) 
 Total Blocks : 262144 Invalid Blocks : 0
Heartbeat CPU 5 instructions: 380000002 cycles: 1041241100 heartbeat IPC: 0.444386 cumulative IPC: 0.221035 (Simulation time: 21 hr 33 min 7 sec) 
 Total Blocks : 262144 Invalid Blocks : 0
Heartbeat CPU 6 instructions: 380000002 cycles: 1042882139 heartbeat IPC: 0.439846 cumulative IPC: 0.220621 (Simulation time: 21 hr 34 min 8 sec) 
 Total Blocks : 262144 Invalid Blocks : 0
Heartbeat CPU 4 instructions: 380000002 cycles: 1043283089 heartbeat IPC: 0.439136 cumulative IPC: 0.220568 (Simulation time: 21 hr 34 min 23 sec) 
 Total Blocks : 262144 Invalid Blocks : 0
Heartbeat CPU 2 instructions: 380000002 cycles: 1043430285 heartbeat IPC: 0.44076 cumulative IPC: 0.220522 (Simulation time: 21 hr 34 min 28 sec) 
 Total Blocks : 262144 Invalid Blocks : 0
Heartbeat CPU 3 instructions: 380000002 cycles: 1043455513 heartbeat IPC: 0.440779 cumulative IPC: 0.220519 (Simulation time: 21 hr 34 min 29 sec) 
 Total Blocks : 262144 Invalid Blocks : 0
Heartbeat CPU 1 instructions: 380000002 cycles: 1043902556 heartbeat IPC: 0.439869 cumulative IPC: 0.22039 (Simulation time: 21 hr 34 min 46 sec) 
 Total Blocks : 262144 Invalid Blocks : 0
Heartbeat CPU 0 instructions: 380000002 cycles: 1043935873 heartbeat IPC: 0.44021 cumulative IPC: 0.220376 (Simulation time: 21 hr 34 min 47 sec) 
 Total Blocks : 262144 Invalid Blocks : 0
Heartbeat CPU 7 instructions: 390000002 cycles: 1077150382 heartbeat IPC: 0.278438 cumulative IPC: 0.223436 (Simulation time: 21 hr 55 min 27 sec) 
 Total Blocks : 262144 Invalid Blocks : 0
Heartbeat CPU 5 instructions: 390000002 cycles: 1077174187 heartbeat IPC: 0.278295 cumulative IPC: 0.223456 (Simulation time: 21 hr 55 min 28 sec) 
 Total Blocks : 262144 Invalid Blocks : 0
Heartbeat CPU 6 instructions: 390000002 cycles: 1078709628 heartbeat IPC: 0.279115 cumulative IPC: 0.223082 (Simulation time: 21 hr 56 min 27 sec) 
 Total Blocks : 262144 Invalid Blocks : 0
Heartbeat CPU 4 instructions: 390000002 cycles: 1079083635 heartbeat IPC: 0.279325 cumulative IPC: 0.223038 (Simulation time: 21 hr 56 min 37 sec) 
 Total Blocks : 262144 Invalid Blocks : 0
Heartbeat CPU 2 instructions: 390000002 cycles: 1079112338 heartbeat IPC: 0.280253 cumulative IPC: 0.223024 (Simulation time: 21 hr 56 min 38 sec) 
 Total Blocks : 262144 Invalid Blocks : 0
Heartbeat CPU 3 instructions: 390000002 cycles: 1079215996 heartbeat IPC: 0.279638 cumulative IPC: 0.223 (Simulation time: 21 hr 56 min 43 sec) 
 Total Blocks : 262144 Invalid Blocks : 0
Heartbeat CPU 1 instructions: 390000002 cycles: 1079503438 heartbeat IPC: 0.280892 cumulative IPC: 0.222917 (Simulation time: 21 hr 56 min 54 sec) 
 Total Blocks : 262144 Invalid Blocks : 0
Heartbeat CPU 0 instructions: 390000002 cycles: 1079536172 heartbeat IPC: 0.280897 cumulative IPC: 0.222904 (Simulation time: 21 hr 56 min 56 sec) 
 Total Blocks : 262144 Invalid Blocks : 0
Heartbeat CPU 7 instructions: 400000000 cycles: 1114437633 heartbeat IPC: 0.268188 cumulative IPC: 0.225317 (Simulation time: 22 hr 18 min 50 sec) 
 Total Blocks : 262144 Invalid Blocks : 0
Heartbeat CPU 5 instructions: 400000000 cycles: 1114478057 heartbeat IPC: 0.268069 cumulative IPC: 0.225332 (Simulation time: 22 hr 18 min 52 sec) 
 Total Blocks : 262144 Invalid Blocks : 0
Finished CPU 5 instructions: 200000002 cycles: 887523741 cumulative IPC: 0.225346 (Simulation time: 22 hr 19 min 2 sec) 
Finished CPU 7 instructions: 200000000 cycles: 887563823 cumulative IPC: 0.225336 (Simulation time: 22 hr 19 min 4 sec) 
Heartbeat CPU 6 instructions: 400000000 cycles: 1116251787 heartbeat IPC: 0.266367 cumulative IPC: 0.22491 (Simulation time: 22 hr 20 min 6 sec) 
 Total Blocks : 262144 Invalid Blocks : 0
Finished CPU 6 instructions: 200000000 cycles: 889208822 cumulative IPC: 0.224919 (Simulation time: 22 hr 20 min 13 sec) 
Heartbeat CPU 4 instructions: 400000000 cycles: 1116600874 heartbeat IPC: 0.266544 cumulative IPC: 0.224873 (Simulation time: 22 hr 20 min 21 sec) 
 Total Blocks : 262144 Invalid Blocks : 0
Finished CPU 4 instructions: 200000001 cycles: 889391716 cumulative IPC: 0.224873 (Simulation time: 22 hr 20 min 21 sec) 
Heartbeat CPU 2 instructions: 400000000 cycles: 1116611243 heartbeat IPC: 0.266674 cumulative IPC: 0.224864 (Simulation time: 22 hr 20 min 21 sec) 
 Total Blocks : 262144 Invalid Blocks : 0
Finished CPU 2 instructions: 200000000 cycles: 889420961 cumulative IPC: 0.224865 (Simulation time: 22 hr 20 min 22 sec) 
Heartbeat CPU 3 instructions: 400000000 cycles: 1116889526 heartbeat IPC: 0.265438 cumulative IPC: 0.224797 (Simulation time: 22 hr 20 min 33 sec) 
 Total Blocks : 262144 Invalid Blocks : 0
Finished CPU 3 instructions: 200000001 cycles: 889688402 cumulative IPC: 0.224798 (Simulation time: 22 hr 20 min 33 sec) 
Heartbeat CPU 1 instructions: 400000000 cycles: 1117051764 heartbeat IPC: 0.266323 cumulative IPC: 0.224748 (Simulation time: 22 hr 20 min 40 sec) 
 Total Blocks : 262144 Invalid Blocks : 0
Heartbeat CPU 0 instructions: 400000000 cycles: 1117055242 heartbeat IPC: 0.266531 cumulative IPC: 0.224743 (Simulation time: 22 hr 20 min 40 sec) 
 Total Blocks : 262144 Invalid Blocks : 0
Finished CPU 1 instructions: 200000000 cycles: 889874542 cumulative IPC: 0.224751 (Simulation time: 22 hr 20 min 42 sec) 
Finished CPU 0 instructions: 200000000 cycles: 889892481 cumulative IPC: 0.224746 (Simulation time: 22 hr 20 min 42 sec) 

CPU 0 Branch Prediction Accuracy: 86.8213% MPKI: 27.965 Average ROB Occupancy at Mispredict: 27.57

CPU 1 Branch Prediction Accuracy: 86.8212% MPKI: 27.9659 Average ROB Occupancy at Mispredict: 27.5698

CPU 2 Branch Prediction Accuracy: 86.8205% MPKI: 27.9672 Average ROB Occupancy at Mispredict: 27.573

CPU 3 Branch Prediction Accuracy: 86.8206% MPKI: 27.9677 Average ROB Occupancy at Mispredict: 27.5704

CPU 4 Branch Prediction Accuracy: 86.8203% MPKI: 27.9683 Average ROB Occupancy at Mispredict: 27.5737

CPU 5 Branch Prediction Accuracy: 86.8225% MPKI: 27.9524 Average ROB Occupancy at Mispredict: 27.5946

CPU 6 Branch Prediction Accuracy: 86.8222% MPKI: 27.9581 Average ROB Occupancy at Mispredict: 27.5763

CPU 7 Branch Prediction Accuracy: 86.8236% MPKI: 27.9471 Average ROB Occupancy at Mispredict: 27.5961

ChampSim completed all CPUs

Total Simulation Statistics (not including warmup)

CPU 0 cumulative IPC: 0.224746 instructions: 200000000 cycles: 889892481
ITLB TOTAL     ACCESS: 29605170  HIT: 29605170  MISS:     0  HIT %:   100  MISS %:     0  AVERAGE MISS PENALTY: 0
ITLB LOAD      ACCESS: 29605170  HIT: 29605170  MISS:     0  HIT %:   100  MISS %:     0  AVERAGE MISS PENALTY: 0
ITLB RFO       ACCESS:     0  HIT:     0  MISS:     0  HIT %:     0  MISS %:     0  AVERAGE MISS PENALTY: 0
ITLB PREFETCH  ACCESS:     0  HIT:     0  MISS:     0  HIT %:     0  MISS %:     0  AVERAGE MISS PENALTY: 0
ITLB WRITEBACK ACCESS:     0  HIT:     0  MISS:     0  HIT %:     0  MISS %:     0  AVERAGE MISS PENALTY: 0

DTLB TOTAL     ACCESS: 38677092  HIT: 38151002  MISS: 526090  HIT %: 98.6398  MISS %: 1.36021  AVERAGE MISS PENALTY: 43.5345
DTLB LOAD      ACCESS: 32011266  HIT: 31496537  MISS: 514729  HIT %: 98.392  MISS %: 1.60796  AVERAGE MISS PENALTY: 43.5853
DTLB RFO       ACCESS: 6665826  HIT: 6654465  MISS: 11361  HIT %: 99.8296  MISS %: 0.170436  AVERAGE MISS PENALTY: 41.234
DTLB PREFETCH  ACCESS:     0  HIT:     0  MISS:     0  HIT %:     0  MISS %:     0  AVERAGE MISS PENALTY: 0
DTLB WRITEBACK ACCESS:     0  HIT:     0  MISS:     0  HIT %:     0  MISS %:     0  AVERAGE MISS PENALTY: 0

STLB TOTAL     ACCESS: 526090  HIT: 354164  MISS: 171926  HIT %: 67.32  MISS %: 32.68  AVERAGE MISS PENALTY: 100
STLB LOAD      ACCESS: 514729  HIT: 346394  MISS: 168335  HIT %: 67.2964  MISS %: 32.7036  AVERAGE MISS PENALTY: 100
STLB RFO       ACCESS: 11361  HIT:  7770  MISS:  3591  HIT %: 68.3919  MISS %: 31.6081  AVERAGE MISS PENALTY: 100
STLB PREFETCH  ACCESS:     0  HIT:     0  MISS:     0  HIT %:     0  MISS %:     0  AVERAGE MISS PENALTY: 0
STLB WRITEBACK ACCESS:     0  HIT:     0  MISS:     0  HIT %:     0  MISS %:     0  AVERAGE MISS PENALTY: 0

L1D TOTAL     ACCESS: 49515695  HIT: 38107538  MISS: 11408157  HIT %: 76.9605  MISS %: 23.0395  AVERAGE MISS PENALTY: 1.4618e+07
L1D LOAD      ACCESS: 30498316  HIT: 27089720  MISS: 3408596  HIT %: 88.8237  MISS %: 11.1763  AVERAGE MISS PENALTY: 4.89226e+07
L1D RFO       ACCESS: 4809465  HIT: 4541612  MISS: 267853  HIT %: 94.4307  MISS %: 5.56929  AVERAGE MISS PENALTY: 18738.6
L1D PREFETCH  ACCESS: 14207914  HIT: 6476206  MISS: 7731708  HIT %: 45.5817  MISS %: 54.4183  AVERAGE MISS PENALTY: 238.086
L1D WRITEBACK ACCESS:     0  HIT:     0  MISS:     0  HIT %:     0  MISS %:     0  AVERAGE MISS PENALTY: 0

L1I TOTAL     ACCESS: 45902982  HIT: 45902981  MISS:     1  HIT %:   100  MISS %: 2.17851e-06  AVERAGE MISS PENALTY: 227
L1I LOAD      ACCESS: 45902982  HIT: 45902981  MISS:     1  HIT %:   100  MISS %: 2.17851e-06  AVERAGE MISS PENALTY: 227
L1I RFO       ACCESS:     0  HIT:     0  MISS:     0  HIT %:     0  MISS %:     0  AVERAGE MISS PENALTY: 0
L1I PREFETCH  ACCESS:     0  HIT:     0  MISS:     0  HIT %:     0  MISS %:     0  AVERAGE MISS PENALTY: 0
L1I WRITEBACK ACCESS:     0  HIT:     0  MISS:     0  HIT %:     0  MISS %:     0  AVERAGE MISS PENALTY: 0

L2C TOTAL     ACCESS: 19857794  HIT: 5950105  MISS: 13907689  HIT %: 29.9636  MISS %: 70.0364  AVERAGE MISS PENALTY: 1.16382e+07
L2C LOAD      ACCESS: 3391122  HIT: 588671  MISS: 2802451  HIT %: 17.3592  MISS %: 82.6408  AVERAGE MISS PENALTY: 5.77553e+07
L2C RFO       ACCESS: 267843  HIT: 10119  MISS: 257724  HIT %: 3.77796  MISS %: 96.222  AVERAGE MISS PENALTY: 3049.97
L2C PREFETCH  ACCESS: 15228848  HIT: 4655048  MISS: 10573800  HIT %: 30.5673  MISS %: 69.4327  AVERAGE MISS PENALTY: 331.968
L2C WRITEBACK ACCESS: 969981  HIT: 696267  MISS: 273714  HIT %: 71.7815  MISS %: 28.2185  AVERAGE MISS PENALTY: 0


LLC0 TOTAL     ACCESS: 1821003  HIT: 878802  MISS: 942201  HIT %: 48.2592  MISS %: 51.7408  AVERAGE MISS PENALTY: 534.361
LLC0 LOAD      ACCESS: 360935  HIT: 179013  MISS: 181922  HIT %: 49.597  MISS %: 50.403  AVERAGE MISS PENALTY: 526.453
LLC0 RFO       ACCESS: 32219  HIT:  2273  MISS: 29946  HIT %: 7.05484  MISS %: 92.9452  AVERAGE MISS PENALTY: 466.585
LLC0 PREFETCH  ACCESS: 1308309  HIT: 583408  MISS: 724901  HIT %: 44.5925  MISS %: 55.4075  AVERAGE MISS PENALTY: 543.15
LLC0 WRITEBACK ACCESS: 119540  HIT: 114108  MISS:  5432  HIT %: 95.4559  MISS %: 4.54409  AVERAGE MISS PENALTY: 0

LLC1 TOTAL     ACCESS: 1839861  HIT: 885684  MISS: 954177  HIT %: 48.1386  MISS %: 51.8614  AVERAGE MISS PENALTY: 538.377
LLC1 LOAD      ACCESS: 324336  HIT: 174798  MISS: 149538  HIT %: 53.8941  MISS %: 46.1059  AVERAGE MISS PENALTY: 581.643
LLC1 RFO       ACCESS: 32222  HIT:  2374  MISS: 29848  HIT %: 7.36764  MISS %: 92.6324  AVERAGE MISS PENALTY: 475.206
LLC1 PREFETCH  ACCESS: 1364090  HIT: 594810  MISS: 769280  HIT %: 43.6049  MISS %: 56.3951  AVERAGE MISS PENALTY: 536.275
LLC1 WRITEBACK ACCESS: 119213  HIT: 113702  MISS:  5511  HIT %: 95.3772  MISS %: 4.62282  AVERAGE MISS PENALTY: 0

LLC2 TOTAL     ACCESS: 1849142  HIT: 887715  MISS: 961427  HIT %: 48.0069  MISS %: 51.9931  AVERAGE MISS PENALTY: 536.886
LLC2 LOAD      ACCESS: 319471  HIT: 172099  MISS: 147372  HIT %: 53.87  MISS %: 46.13  AVERAGE MISS PENALTY: 581.586
LLC2 RFO       ACCESS: 32228  HIT:  2324  MISS: 29904  HIT %: 7.21112  MISS %: 92.7889  AVERAGE MISS PENALTY: 469.348
LLC2 PREFETCH  ACCESS: 1377732  HIT: 599159  MISS: 778573  HIT %: 43.4888  MISS %: 56.5112  AVERAGE MISS PENALTY: 534.865
LLC2 WRITEBACK ACCESS: 119711  HIT: 114133  MISS:  5578  HIT %: 95.3404  MISS %: 4.65956  AVERAGE MISS PENALTY: 0

LLC3 TOTAL     ACCESS: 1839929  HIT: 884397  MISS: 955532  HIT %: 48.0669  MISS %: 51.9331  AVERAGE MISS PENALTY: 537.777
LLC3 LOAD      ACCESS: 325740  HIT: 177922  MISS: 147818  HIT %: 54.6209  MISS %: 45.3791  AVERAGE MISS PENALTY: 591.228
LLC3 RFO       ACCESS: 32223  HIT:  2330  MISS: 29893  HIT %: 7.23086  MISS %: 92.7691  AVERAGE MISS PENALTY: 480.197
LLC3 PREFETCH  ACCESS: 1362155  HIT: 589977  MISS: 772178  HIT %: 43.312  MISS %: 56.688  AVERAGE MISS PENALTY: 533.704
LLC3 WRITEBACK ACCESS: 119811  HIT: 114168  MISS:  5643  HIT %: 95.2901  MISS %: 4.70992  AVERAGE MISS PENALTY: 0

LLC4 TOTAL     ACCESS: 1828664  HIT: 876254  MISS: 952410  HIT %: 47.9177  MISS %: 52.0823  AVERAGE MISS PENALTY: 512.999
LLC4 LOAD      ACCESS: 323483  HIT: 176781  MISS: 146702  HIT %: 54.6492  MISS %: 45.3508  AVERAGE MISS PENALTY: 564.671
LLC4 RFO       ACCESS: 32201  HIT:  2286  MISS: 29915  HIT %: 7.09916  MISS %: 92.9008  AVERAGE MISS PENALTY: 473.751
LLC4 PREFETCH  ACCESS: 1353475  HIT: 583275  MISS: 770200  HIT %: 43.0946  MISS %: 56.9054  AVERAGE MISS PENALTY: 508.407
LLC4 WRITEBACK ACCESS: 119505  HIT: 113912  MISS:  5593  HIT %: 95.3199  MISS %: 4.68014  AVERAGE MISS PENALTY: 0

LLC5 TOTAL     ACCESS: 1816826  HIT: 868178  MISS: 948648  HIT %: 47.7854  MISS %: 52.2146  AVERAGE MISS PENALTY: 505.603
LLC5 LOAD      ACCESS: 319144  HIT: 173043  MISS: 146101  HIT %: 54.221  MISS %: 45.779  AVERAGE MISS PENALTY: 550.923
LLC5 RFO       ACCESS: 32192  HIT:  2285  MISS: 29907  HIT %: 7.09804  MISS %: 92.902  AVERAGE MISS PENALTY: 468.747
LLC5 PREFETCH  ACCESS: 1345934  HIT: 578773  MISS: 767161  HIT %: 43.0016  MISS %: 56.9984  AVERAGE MISS PENALTY: 502.02
LLC5 WRITEBACK ACCESS: 119556  HIT: 114077  MISS:  5479  HIT %: 95.4172  MISS %: 4.58279  AVERAGE MISS PENALTY: 0

LLC6 TOTAL     ACCESS: 1806648  HIT: 862638  MISS: 944010  HIT %: 47.748  MISS %: 52.252  AVERAGE MISS PENALTY: 512.71
LLC6 LOAD      ACCESS: 324480  HIT: 178205  MISS: 146275  HIT %: 54.9202  MISS %: 45.0798  AVERAGE MISS PENALTY: 559.403
LLC6 RFO       ACCESS: 32211  HIT:  2292  MISS: 29919  HIT %: 7.11558  MISS %: 92.8844  AVERAGE MISS PENALTY: 471.138
LLC6 PREFETCH  ACCESS: 1330516  HIT: 568324  MISS: 762192  HIT %: 42.7146  MISS %: 57.2854  AVERAGE MISS PENALTY: 509.164
LLC6 WRITEBACK ACCESS: 119441  HIT: 113817  MISS:  5624  HIT %: 95.2914  MISS %: 4.7086  AVERAGE MISS PENALTY: 0

LLC7 TOTAL     ACCESS: 1787922  HIT: 848520  MISS: 939402  HIT %: 47.4584  MISS %: 52.5416  AVERAGE MISS PENALTY: 505.797
LLC7 LOAD      ACCESS: 317334  HIT: 171272  MISS: 146062  HIT %: 53.9722  MISS %: 46.0278  AVERAGE MISS PENALTY: 554.097
LLC7 RFO       ACCESS: 32226  HIT:  2386  MISS: 29840  HIT %: 7.40396  MISS %: 92.596  AVERAGE MISS PENALTY: 473.604
LLC7 PREFETCH  ACCESS: 1319004  HIT: 560998  MISS: 758006  HIT %: 42.5319  MISS %: 57.4681  AVERAGE MISS PENALTY: 501.424
LLC7 WRITEBACK ACCESS: 119358  HIT: 113864  MISS:  5494  HIT %: 95.397  MISS %: 4.60296  AVERAGE MISS PENALTY: 0

Total Rob stall cycles : 	748477132
Total Load Rob Stall cycles : 	359947056
Average Rob Stall cycles : 	 11
Average Load Rob Stall cycles : 	 45

CPU 1 cumulative IPC: 0.224752 instructions: 200004925 cycles: 889892481
ITLB TOTAL     ACCESS: 29605760  HIT: 29605760  MISS:     0  HIT %:   100  MISS %:     0  AVERAGE MISS PENALTY: 0
ITLB LOAD      ACCESS: 29605760  HIT: 29605760  MISS:     0  HIT %:   100  MISS %:     0  AVERAGE MISS PENALTY: 0
ITLB RFO       ACCESS:     0  HIT:     0  MISS:     0  HIT %:     0  MISS %:     0  AVERAGE MISS PENALTY: 0
ITLB PREFETCH  ACCESS:     0  HIT:     0  MISS:     0  HIT %:     0  MISS %:     0  AVERAGE MISS PENALTY: 0
ITLB WRITEBACK ACCESS:     0  HIT:     0  MISS:     0  HIT %:     0  MISS %:     0  AVERAGE MISS PENALTY: 0

DTLB TOTAL     ACCESS: 38677543  HIT: 38151456  MISS: 526087  HIT %: 98.6398  MISS %: 1.36019  AVERAGE MISS PENALTY: 43.5387
DTLB LOAD      ACCESS: 32011776  HIT: 31497065  MISS: 514711  HIT %: 98.3921  MISS %: 1.60788  AVERAGE MISS PENALTY: 43.5896
DTLB RFO       ACCESS: 6665767  HIT: 6654391  MISS: 11376  HIT %: 99.8293  MISS %: 0.170663  AVERAGE MISS PENALTY: 41.2356
DTLB PREFETCH  ACCESS:     0  HIT:     0  MISS:     0  HIT %:     0  MISS %:     0  AVERAGE MISS PENALTY: 0
DTLB WRITEBACK ACCESS:     0  HIT:     0  MISS:     0  HIT %:     0  MISS %:     0  AVERAGE MISS PENALTY: 0

STLB TOTAL     ACCESS: 526087  HIT: 354148  MISS: 171939  HIT %: 67.3174  MISS %: 32.6826  AVERAGE MISS PENALTY: 100
STLB LOAD      ACCESS: 514711  HIT: 346369  MISS: 168342  HIT %: 67.2939  MISS %: 32.7061  AVERAGE MISS PENALTY: 100
STLB RFO       ACCESS: 11376  HIT:  7779  MISS:  3597  HIT %: 68.3808  MISS %: 31.6192  AVERAGE MISS PENALTY: 100
STLB PREFETCH  ACCESS:     0  HIT:     0  MISS:     0  HIT %:     0  MISS %:     0  AVERAGE MISS PENALTY: 0
STLB WRITEBACK ACCESS:     0  HIT:     0  MISS:     0  HIT %:     0  MISS %:     0  AVERAGE MISS PENALTY: 0

L1D TOTAL     ACCESS: 49533706  HIT: 38117260  MISS: 11416446  HIT %: 76.9522  MISS %: 23.0478  AVERAGE MISS PENALTY: 1.46061e+07
L1D LOAD      ACCESS: 30497338  HIT: 27091021  MISS: 3406317  HIT %: 88.8308  MISS %: 11.1692  AVERAGE MISS PENALTY: 4.89513e+07
L1D RFO       ACCESS: 4813432  HIT: 4545557  MISS: 267875  HIT %: 94.4348  MISS %: 5.56516  AVERAGE MISS PENALTY: 16247.4
L1D PREFETCH  ACCESS: 14222936  HIT: 6480682  MISS: 7742254  HIT %: 45.565  MISS %: 54.435  AVERAGE MISS PENALTY: 238.976
L1D WRITEBACK ACCESS:     0  HIT:     0  MISS:     0  HIT %:     0  MISS %:     0  AVERAGE MISS PENALTY: 0

L1I TOTAL     ACCESS: 45903893  HIT: 45903892  MISS:     1  HIT %:   100  MISS %: 2.17846e-06  AVERAGE MISS PENALTY: 227
L1I LOAD      ACCESS: 45903893  HIT: 45903892  MISS:     1  HIT %:   100  MISS %: 2.17846e-06  AVERAGE MISS PENALTY: 227
L1I RFO       ACCESS:     0  HIT:     0  MISS:     0  HIT %:     0  MISS %:     0  AVERAGE MISS PENALTY: 0
L1I PREFETCH  ACCESS:     0  HIT:     0  MISS:     0  HIT %:     0  MISS %:     0  AVERAGE MISS PENALTY: 0
L1I WRITEBACK ACCESS:     0  HIT:     0  MISS:     0  HIT %:     0  MISS %:     0  AVERAGE MISS PENALTY: 0

L2C TOTAL     ACCESS: 19875348  HIT: 5958554  MISS: 13916794  HIT %: 29.9796  MISS %: 70.0204  AVERAGE MISS PENALTY: 1.1604e+07
L2C LOAD      ACCESS: 3388793  HIT: 587094  MISS: 2801699  HIT %: 17.3246  MISS %: 82.6754  AVERAGE MISS PENALTY: 5.76385e+07
L2C RFO       ACCESS: 267868  HIT:  9992  MISS: 257876  HIT %: 3.7302  MISS %: 96.2698  AVERAGE MISS PENALTY: 5784.15
L2C PREFETCH  ACCESS: 15248728  HIT: 4665784  MISS: 10582944  HIT %: 30.5979  MISS %: 69.4021  AVERAGE MISS PENALTY: 333.548
L2C WRITEBACK ACCESS: 969959  HIT: 695684  MISS: 274275  HIT %: 71.723  MISS %: 28.277  AVERAGE MISS PENALTY: 0


LLC0 TOTAL     ACCESS: 1821994  HIT: 878428  MISS: 943566  HIT %: 48.2125  MISS %: 51.7875  AVERAGE MISS PENALTY: 536.499
LLC0 LOAD      ACCESS: 361061  HIT: 178990  MISS: 182071  HIT %: 49.5733  MISS %: 50.4267  AVERAGE MISS PENALTY: 527.638
LLC0 RFO       ACCESS: 32242  HIT:  2363  MISS: 29879  HIT %: 7.32895  MISS %: 92.6711  AVERAGE MISS PENALTY: 461.761
LLC0 PREFETCH  ACCESS: 1309110  HIT: 583001  MISS: 726109  HIT %: 44.5341  MISS %: 55.4659  AVERAGE MISS PENALTY: 545.866
LLC0 WRITEBACK ACCESS: 119581  HIT: 114074  MISS:  5507  HIT %: 95.3948  MISS %: 4.60525  AVERAGE MISS PENALTY: 0

LLC1 TOTAL     ACCESS: 1841226  HIT: 884797  MISS: 956429  HIT %: 48.0548  MISS %: 51.9452  AVERAGE MISS PENALTY: 540.776
LLC1 LOAD      ACCESS: 324057  HIT: 174445  MISS: 149612  HIT %: 53.8316  MISS %: 46.1684  AVERAGE MISS PENALTY: 583.914
LLC1 RFO       ACCESS: 32230  HIT:  2272  MISS: 29958  HIT %: 7.04933  MISS %: 92.9507  AVERAGE MISS PENALTY: 472.539
LLC1 PREFETCH  ACCESS: 1365702  HIT: 594289  MISS: 771413  HIT %: 43.5153  MISS %: 56.4847  AVERAGE MISS PENALTY: 538.878
LLC1 WRITEBACK ACCESS: 119237  HIT: 113791  MISS:  5446  HIT %: 95.4326  MISS %: 4.56737  AVERAGE MISS PENALTY: 0

LLC2 TOTAL     ACCESS: 1850777  HIT: 887675  MISS: 963102  HIT %: 47.9623  MISS %: 52.0377  AVERAGE MISS PENALTY: 538.602
LLC2 LOAD      ACCESS: 319099  HIT: 171639  MISS: 147460  HIT %: 53.7886  MISS %: 46.2114  AVERAGE MISS PENALTY: 585.367
LLC2 RFO       ACCESS: 32233  HIT:  2358  MISS: 29875  HIT %: 7.31548  MISS %: 92.6845  AVERAGE MISS PENALTY: 460.315
LLC2 PREFETCH  ACCESS: 1379692  HIT: 599471  MISS: 780221  HIT %: 43.4496  MISS %: 56.5504  AVERAGE MISS PENALTY: 536.59
LLC2 WRITEBACK ACCESS: 119753  HIT: 114207  MISS:  5546  HIT %: 95.3688  MISS %: 4.6312  AVERAGE MISS PENALTY: 0

LLC3 TOTAL     ACCESS: 1841491  HIT: 884320  MISS: 957171  HIT %: 48.022  MISS %: 51.978  AVERAGE MISS PENALTY: 539.577
LLC3 LOAD      ACCESS: 326058  HIT: 177890  MISS: 148168  HIT %: 54.5578  MISS %: 45.4422  AVERAGE MISS PENALTY: 595.877
[...]
LLC2 TOTAL     ACCESS: 1808897  HIT: 847482  MISS: 961415  HIT %: 46.8508  MISS %: 53.1492  AVERAGE MISS PENALTY: 541.858
LLC2 LOAD      ACCESS: 309387  HIT: 162239  MISS: 147148  HIT %: 52.4389  MISS %: 47.5611  AVERAGE MISS PENALTY: 586.115
LLC2 RFO       ACCESS: 31476  HIT:  2043  MISS: 29433  HIT %: 6.49066  MISS %: 93.5093  AVERAGE MISS PENALTY: 450.072
LLC2 PREFETCH  ACCESS: 1349579  HIT: 571077  MISS: 778502  HIT %: 42.3152  MISS %: 57.6848  AVERAGE MISS PENALTY: 541.371
LLC2 WRITEBACK ACCESS: 118455  HIT: 112123  MISS:  6332  HIT %: 94.6545  MISS %: 5.34549  AVERAGE MISS PENALTY: 0
LLC2 PREFETCH  REQUESTED:     0  ISSUED:     0  USEFUL: 313922  USELESS: 5913722
 USEFUL LOAD PREFETCHES:     313922 PREFETCH ISSUED TO LOWER LEVEL:   67068732  ACCURACY: 0.46806
 TIMELY PREFETCHES:     313922 LATE PREFETCHES: 0 DROPPED PREFETCHES: 0
LLC2 AVERAGE MISS LATENCY: 541.858 cycles
LLC3 TOTAL     ACCESS: 1797932  HIT: 842010  MISS: 955922  HIT %: 46.8321  MISS %: 53.1679  AVERAGE MISS PENALTY: 542.371
LLC3 LOAD      ACCESS: 315916  HIT: 168370  MISS: 147546  HIT %: 53.2958  MISS %: 46.7042  AVERAGE MISS PENALTY: 597.71
LLC3 RFO       ACCESS: 31494  HIT:  2038  MISS: 29456  HIT %: 6.47107  MISS %: 93.5289  AVERAGE MISS PENALTY: 456.727
LLC3 PREFETCH  ACCESS: 1332014  HIT: 559470  MISS: 772544  HIT %: 42.0018  MISS %: 57.9982  AVERAGE MISS PENALTY: 539.544
LLC3 WRITEBACK ACCESS: 118508  HIT: 112132  MISS:  6376  HIT %: 94.6198  MISS %: 5.38023  AVERAGE MISS PENALTY: 0
LLC3 PREFETCH  REQUESTED:     0  ISSUED:     0  USEFUL: 312406  USELESS: 5863669
 USEFUL LOAD PREFETCHES:     312406 PREFETCH ISSUED TO LOWER LEVEL:   67341079  ACCURACY: 0.463916
 TIMELY PREFETCHES:     312406 LATE PREFETCHES: 0 DROPPED PREFETCHES: 0
LLC3 AVERAGE MISS LATENCY: 542.371 cycles
LLC4 TOTAL     ACCESS: 1786978  HIT: 834089  MISS: 952889  HIT %: 46.676  MISS %: 53.324  AVERAGE MISS PENALTY: 517.003
LLC4 LOAD      ACCESS: 313382  HIT: 166931  MISS: 146451  HIT %: 53.2676  MISS %: 46.7324  AVERAGE MISS PENALTY: 567.554
LLC4 RFO       ACCESS: 31464  HIT:  2062  MISS: 29402  HIT %: 6.55352  MISS %: 93.4465  AVERAGE MISS PENALTY: 447.9
LLC4 PREFETCH  ACCESS: 1323924  HIT: 553009  MISS: 770915  HIT %: 41.7704  MISS %: 58.2296  AVERAGE MISS PENALTY: 514.141
LLC4 WRITEBACK ACCESS: 118208  HIT: 112087  MISS:  6121  HIT %: 94.8218  MISS %: 5.17816  AVERAGE MISS PENALTY: 0
LLC4 PREFETCH  REQUESTED:     0  ISSUED:     0  USEFUL: 312043  USELESS: 5849598
 USEFUL LOAD PREFETCHES:     312043 PREFETCH ISSUED TO LOWER LEVEL:   86894593  ACCURACY: 0.359105
 TIMELY PREFETCHES:     312043 LATE PREFETCHES: 0 DROPPED PREFETCHES: 0
LLC4 AVERAGE MISS LATENCY: 517.003 cycles
LLC5 TOTAL     ACCESS: 1774923  HIT: 825266  MISS: 949657  HIT %: 46.4959  MISS %: 53.5041  AVERAGE MISS PENALTY: 509.692
LLC5 LOAD      ACCESS: 308854  HIT: 163260  MISS: 145594  HIT %: 52.8599  MISS %: 47.1401  AVERAGE MISS PENALTY: 555.628
LLC5 RFO       ACCESS: 31470  HIT:  1976  MISS: 29494  HIT %: 6.279  MISS %: 93.721  AVERAGE MISS PENALTY: 438.834
LLC5 PREFETCH  ACCESS: 1316315  HIT: 547987  MISS: 768328  HIT %: 41.6304  MISS %: 58.3696  AVERAGE MISS PENALTY: 507.847
LLC5 WRITEBACK ACCESS: 118284  HIT: 112043  MISS:  6241  HIT %: 94.7237  MISS %: 5.27628  AVERAGE MISS PENALTY: 0
LLC5 PREFETCH  REQUESTED:     0  ISSUED:     0  USEFUL: 310744  USELESS: 5828425
 USEFUL LOAD PREFETCHES:     310744 PREFETCH ISSUED TO LOWER LEVEL:   87708492  ACCURACY: 0.354292
 TIMELY PREFETCHES:     310744 LATE PREFETCHES: 0 DROPPED PREFETCHES: 0
LLC5 AVERAGE MISS LATENCY: 509.692 cycles
LLC6 TOTAL     ACCESS: 1765706  HIT: 821334  MISS: 944372  HIT %: 46.5159  MISS %: 53.4841  AVERAGE MISS PENALTY: 516.173
LLC6 LOAD      ACCESS: 313754  HIT: 167836  MISS: 145918  HIT %: 53.4929  MISS %: 46.5071  AVERAGE MISS PENALTY: 561.816
LLC6 RFO       ACCESS: 31506  HIT:  2029  MISS: 29477  HIT %: 6.44004  MISS %: 93.56  AVERAGE MISS PENALTY: 450.858
LLC6 PREFETCH  ACCESS: 1302296  HIT: 539613  MISS: 762683  HIT %: 41.4355  MISS %: 58.5645  AVERAGE MISS PENALTY: 514.224
LLC6 WRITEBACK ACCESS: 118150  HIT: 111856  MISS:  6294  HIT %: 94.6729  MISS %: 5.32713  AVERAGE MISS PENALTY: 0
LLC6 PREFETCH  REQUESTED:     0  ISSUED:     0  USEFUL: 306801  USELESS: 5789085
 USEFUL LOAD PREFETCHES:     306801 PREFETCH ISSUED TO LOWER LEVEL:  113178794  ACCURACY: 0.271076
 TIMELY PREFETCHES:     306801 LATE PREFETCHES: 0 DROPPED PREFETCHES: 0
LLC6 AVERAGE MISS LATENCY: 516.173 cycles
LLC7 TOTAL     ACCESS: 1748255  HIT: 808914  MISS: 939341  HIT %: 46.2698  MISS %: 53.7302  AVERAGE MISS PENALTY: 509.307
LLC7 LOAD      ACCESS: 307673  HIT: 161719  MISS: 145954  HIT %: 52.562  MISS %: 47.438  AVERAGE MISS PENALTY: 557.489
LLC7 RFO       ACCESS: 31507  HIT:  1986  MISS: 29521  HIT %: 6.30336  MISS %: 93.6966  AVERAGE MISS PENALTY: 449.247
LLC7 PREFETCH  ACCESS: 1291049  HIT: 533410  MISS: 757639  HIT %: 41.316  MISS %: 58.684  AVERAGE MISS PENALTY: 506.552
LLC7 WRITEBACK ACCESS: 118026  HIT: 111799  MISS:  6227  HIT %: 94.724  MISS %: 5.27596  AVERAGE MISS PENALTY: 0
LLC7 PREFETCH  REQUESTED:     0  ISSUED:     0  USEFUL: 307554  USELESS: 5750177
 USEFUL LOAD PREFETCHES:     307554 PREFETCH ISSUED TO LOWER LEVEL:  113719492  ACCURACY: 0.27045
 TIMELY PREFETCHES:     307554 LATE PREFETCHES: 0 DROPPED PREFETCHES: 0
LLC7 AVERAGE MISS LATENCY: 509.307 cycles
ROI Average ROB Stall Cycles:	11.0325
ROI Total ROB Stalls Cycles:	748187330
ROI TOTAL ROB counter      :	67816774
ROI Average Load ROB Stall Cycles:	45.8847
ROI Total Load ROB Stalls Cycle  :	361308928
ROI Total Load ROB stalls Counter:	7874274
Major fault: 0 Minor fault: 29545

CPU 7 cumulative IPC: 0.225336 instructions: 200000000 cycles: 887563823
ITLB TOTAL     ACCESS: 29609162  HIT: 29609162  MISS:     0  HIT %:   100  MISS %:     0  AVERAGE MISS PENALTY: 0
ITLB LOAD      ACCESS: 29609162  HIT: 29609162  MISS:     0  HIT %:   100  MISS %:     0  AVERAGE MISS PENALTY: 0
ITLB RFO       ACCESS:     0  HIT:     0  MISS:     0  HIT %:     0  MISS %:     0  AVERAGE MISS PENALTY: 0
ITLB PREFETCH  ACCESS:     0  HIT:     0  MISS:     0  HIT %:     0  MISS %:     0  AVERAGE MISS PENALTY: 0
ITLB WRITEBACK ACCESS:     0  HIT:     0  MISS:     0  HIT %:     0  MISS %:     0  AVERAGE MISS PENALTY: 0
ITLB PREFETCH  REQUESTED:     0  ISSUED:     0  USEFUL:     0  USELESS:     0
 USEFUL LOAD PREFETCHES:          0 PREFETCH ISSUED TO LOWER LEVEL:          0  ACCURACY: -nan
 TIMELY PREFETCHES:          0 LATE PREFETCHES: 0 DROPPED PREFETCHES: 0
ITLB AVERAGE MISS LATENCY: -nan cycles
DTLB TOTAL     ACCESS: 38674634  HIT: 38148641  MISS: 525993  HIT %: 98.64  MISS %: 1.36005  AVERAGE MISS PENALTY: 44.1137
DTLB LOAD      ACCESS: 32012518  HIT: 31497880  MISS: 514638  HIT %: 98.3924  MISS %: 1.60761  AVERAGE MISS PENALTY: 44.1811
DTLB RFO       ACCESS: 6662116  HIT: 6650761  MISS: 11355  HIT %: 99.8296  MISS %: 0.170441  AVERAGE MISS PENALTY: 41.0578
DTLB PREFETCH  ACCESS:     0  HIT:     0  MISS:     0  HIT %:     0  MISS %:     0  AVERAGE MISS PENALTY: 0
DTLB WRITEBACK ACCESS:     0  HIT:     0  MISS:     0  HIT %:     0  MISS %:     0  AVERAGE MISS PENALTY: 0
DTLB PREFETCH  REQUESTED:     0  ISSUED:     0  USEFUL:     0  USELESS:     0
 USEFUL LOAD PREFETCHES:          0 PREFETCH ISSUED TO LOWER LEVEL:          0  ACCURACY: -nan
 TIMELY PREFETCHES:          0 LATE PREFETCHES: 0 DROPPED PREFETCHES: 0
DTLB AVERAGE MISS LATENCY: 44.1137 cycles
STLB TOTAL     ACCESS: 525993  HIT: 354140  MISS: 171853  HIT %: 67.3279  MISS %: 32.6721  AVERAGE MISS PENALTY: 100
STLB LOAD      ACCESS: 514638  HIT: 346358  MISS: 168280  HIT %: 67.3013  MISS %: 32.6987  AVERAGE MISS PENALTY: 100
STLB RFO       ACCESS: 11355  HIT:  7782  MISS:  3573  HIT %: 68.5337  MISS %: 31.4663  AVERAGE MISS PENALTY: 100
STLB PREFETCH  ACCESS:     0  HIT:     0  MISS:     0  HIT %:     0  MISS %:     0  AVERAGE MISS PENALTY: 0
STLB WRITEBACK ACCESS:     0  HIT:     0  MISS:     0  HIT %:     0  MISS %:     0  AVERAGE MISS PENALTY: 0
STLB PREFETCH  REQUESTED:     0  ISSUED:     0  USEFUL:     0  USELESS:     0
 USEFUL LOAD PREFETCHES:          0 PREFETCH ISSUED TO LOWER LEVEL:          0  ACCURACY: -nan
 TIMELY PREFETCHES:          0 LATE PREFETCHES: 0 DROPPED PREFETCHES: 0
STLB AVERAGE MISS LATENCY: 100 cycles
L1D TOTAL     ACCESS: 49408442  HIT: 38018049  MISS: 11390393  HIT %: 76.9465  MISS %: 23.0535  AVERAGE MISS PENALTY: 1.47247e+07
L1D LOAD      ACCESS: 30465307  HIT: 27042858  MISS: 3422449  HIT %: 88.7661  MISS %: 11.2339  AVERAGE MISS PENALTY: 4.90041e+07
L1D RFO       ACCESS: 4805053  HIT: 4537163  MISS: 267890  HIT %: 94.4248  MISS %: 5.57517  AVERAGE MISS PENALTY: 14187.3
L1D PREFETCH  ACCESS: 14138082  HIT: 6438028  MISS: 7700054  HIT %: 45.5368  MISS %: 54.4632  AVERAGE MISS PENALTY: 237.652
L1D WRITEBACK ACCESS:     0  HIT:     0  MISS:     0  HIT %:     0  MISS %:     0  AVERAGE MISS PENALTY: 0
L1D PREFETCH  REQUESTED: 19855551  ISSUED: 16832852  USEFUL: 2546528  USELESS: 5153245
 USEFUL LOAD PREFETCHES:    2546528 PREFETCH ISSUED TO LOWER LEVEL:   59910855  ACCURACY: 4.25053
 TIMELY PREFETCHES:    2546528 LATE PREFETCHES: 506298 DROPPED PREFETCHES: 3022699
L1D AVERAGE MISS LATENCY: 572.252 cycles
L1I TOTAL     ACCESS: 45906122  HIT: 45906121  MISS:     1  HIT %:   100  MISS %: 2.17836e-06  AVERAGE MISS PENALTY: 227
L1I LOAD      ACCESS: 45906122  HIT: 45906121  MISS:     1  HIT %:   100  MISS %: 2.17836e-06  AVERAGE MISS PENALTY: 227
L1I RFO       ACCESS:     0  HIT:     0  MISS:     0  HIT %:     0  MISS %:     0  AVERAGE MISS PENALTY: 0
L1I PREFETCH  ACCESS:     0  HIT:     0  MISS:     0  HIT %:     0  MISS %:     0  AVERAGE MISS PENALTY: 0
L1I WRITEBACK ACCESS:     0  HIT:     0  MISS:     0  HIT %:     0  MISS %:     0  AVERAGE MISS PENALTY: 0
L1I PREFETCH  REQUESTED:     0  ISSUED:     0  USEFUL:     0  USELESS:     0
 USEFUL LOAD PREFETCHES:          0 PREFETCH ISSUED TO LOWER LEVEL:          0  ACCURACY: -nan
 TIMELY PREFETCHES:          0 LATE PREFETCHES: 0 DROPPED PREFETCHES: 0
L1I AVERAGE MISS LATENCY: 227 cycles
L2C TOTAL     ACCESS: 19813521  HIT: 6703908  MISS: 13109613  HIT %: 33.835  MISS %: 66.165  AVERAGE MISS PENALTY: 1.24581e+07
L2C LOAD      ACCESS: 3404958  HIT: 787588  MISS: 2617370  HIT %: 23.1306  MISS %: 76.8694  AVERAGE MISS PENALTY: 6.23976e+07
L2C RFO       ACCESS: 267885  HIT: 15848  MISS: 252037  HIT %: 5.91597  MISS %: 94.084  AVERAGE MISS PENALTY: 1808.93
L2C PREFETCH  ACCESS: 15170865  HIT: 5127585  MISS: 10043280  HIT %: 33.7989  MISS %: 66.2011  AVERAGE MISS PENALTY: 348.706
L2C WRITEBACK ACCESS: 969813  HIT: 772887  MISS: 196926  HIT %: 79.6944  MISS %: 20.3056  AVERAGE MISS PENALTY: 0
L2C PREFETCH  REQUESTED: 17572297  ISSUED: 17369523  USEFUL: 481760  USELESS: 9559614
 USEFUL LOAD PREFETCHES:     481760 PREFETCH ISSUED TO LOWER LEVEL:   14284276  ACCURACY: 3.37266
 TIMELY PREFETCHES:     481760 LATE PREFETCHES: 595327 DROPPED PREFETCHES: 202774
L2C AVERAGE MISS LATENCY: 339.354 cycles
LLC0 TOTAL     ACCESS: 1732920  HIT: 788649  MISS: 944271  HIT %: 45.5098  MISS %: 54.4902  AVERAGE MISS PENALTY: 533.863
LLC0 LOAD      ACCESS: 336750  HIT: 154524  MISS: 182226  HIT %: 45.8869  MISS %: 54.1131  AVERAGE MISS PENALTY: 523.024
LLC0 RFO       ACCESS: 31508  HIT:  1767  MISS: 29741  HIT %: 5.6081  MISS %: 94.3919  AVERAGE MISS PENALTY: 423.879
LLC0 PREFETCH  ACCESS: 1246351  HIT: 522906  MISS: 723445  HIT %: 41.955  MISS %: 58.045  AVERAGE MISS PENALTY: 547.652
LLC0 WRITEBACK ACCESS: 118311  HIT: 109452  MISS:  8859  HIT %: 92.5121  MISS %: 7.48789  AVERAGE MISS PENALTY: 0
LLC0 PREFETCH  REQUESTED:     0  ISSUED:     0  USEFUL: 308106  USELESS: 5488193
 USEFUL LOAD PREFETCHES:     308106 PREFETCH ISSUED TO LOWER LEVEL:   51273518  ACCURACY: 0.600907
 TIMELY PREFETCHES:     308106 LATE PREFETCHES: 0 DROPPED PREFETCHES: 0
LLC0 AVERAGE MISS LATENCY: 533.863 cycles
Deadblocks : 1363856 Deadblock percentage : 748.442

LLC1 TOTAL     ACCESS: 1749334  HIT: 793069  MISS: 956265  HIT %: 45.3355  MISS %: 54.6645  AVERAGE MISS PENALTY: 536.951
LLC1 LOAD      ACCESS: 300460  HIT: 150813  MISS: 149647  HIT %: 50.194  MISS %: 49.806  AVERAGE MISS PENALTY: 575.028
LLC1 RFO       ACCESS: 31480  HIT:  1754  MISS: 29726  HIT %: 5.57179  MISS %: 94.4282  AVERAGE MISS PENALTY: 429.742
LLC1 PREFETCH  ACCESS: 1299453  HIT: 531575  MISS: 767878  HIT %: 40.9076  MISS %: 59.0924  AVERAGE MISS PENALTY: 539.983
LLC1 WRITEBACK ACCESS: 117941  HIT: 108927  MISS:  9014  HIT %: 92.3572  MISS %: 7.6428  AVERAGE MISS PENALTY: 0
LLC1 PREFETCH  REQUESTED:     0  ISSUED:     0  USEFUL: 310714  USELESS: 5847546
 USEFUL LOAD PREFETCHES:     310714 PREFETCH ISSUED TO LOWER LEVEL:   53159901  ACCURACY: 0.584489
 TIMELY PREFETCHES:     310714 LATE PREFETCHES: 0 DROPPED PREFETCHES: 0
LLC1 AVERAGE MISS LATENCY: 536.951 cycles
LLC2 TOTAL     ACCESS: 1757121  HIT: 794342  MISS: 962779  HIT %: 45.207  MISS %: 54.793  AVERAGE MISS PENALTY: 535.356
LLC2 LOAD      ACCESS: 296122  HIT: 148635  MISS: 147487  HIT %: 50.1938  MISS %: 49.8062  AVERAGE MISS PENALTY: 576.408
LLC2 RFO       ACCESS: 31486  HIT:  1790  MISS: 29696  HIT %: 5.68507  MISS %: 94.3149  AVERAGE MISS PENALTY: 428.999
LLC2 PREFETCH  ACCESS: 1311073  HIT: 534456  MISS: 776617  HIT %: 40.7648  MISS %: 59.2352  AVERAGE MISS PENALTY: 537.816
LLC2 WRITEBACK ACCESS: 118440  HIT: 109461  MISS:  8979  HIT %: 92.4189  MISS %: 7.58105  AVERAGE MISS PENALTY: 0
LLC2 PREFETCH  REQUESTED:     0  ISSUED:     0  USEFUL: 313922  USELESS: 5913722
 USEFUL LOAD PREFETCHES:     313922 PREFETCH ISSUED TO LOWER LEVEL:   67068732  ACCURACY: 0.46806
 TIMELY PREFETCHES:     313922 LATE PREFETCHES: 0 DROPPED PREFETCHES: 0
LLC2 AVERAGE MISS LATENCY: 535.356 cycles
LLC3 TOTAL     ACCESS: 1747034  HIT: 790187  MISS: 956847  HIT %: 45.2302  MISS %: 54.7698  AVERAGE MISS PENALTY: 536.826
LLC3 LOAD      ACCESS: 302760  HIT: 154968  MISS: 147792  HIT %: 51.1851  MISS %: 48.8149  AVERAGE MISS PENALTY: 589.337
LLC3 RFO       ACCESS: 31516  HIT:  1760  MISS: 29756  HIT %: 5.58447  MISS %: 94.4155  AVERAGE MISS PENALTY: 433.296
LLC3 PREFETCH  ACCESS: 1294242  HIT: 523920  MISS: 770322  HIT %: 40.4808  MISS %: 59.5192  AVERAGE MISS PENALTY: 537.007
LLC3 WRITEBACK ACCESS: 118516  HIT: 109539  MISS:  8977  HIT %: 92.4255  MISS %: 7.5745  AVERAGE MISS PENALTY: 0
LLC3 PREFETCH  REQUESTED:     0  ISSUED:     0  USEFUL: 312406  USELESS: 5863669
 USEFUL LOAD PREFETCHES:     312406 PREFETCH ISSUED TO LOWER LEVEL:   67341079  ACCURACY: 0.463916
 TIMELY PREFETCHES:     312406 LATE PREFETCHES: 0 DROPPED PREFETCHES: 0
LLC3 AVERAGE MISS LATENCY: 536.826 cycles
LLC4 TOTAL     ACCESS: 1735355  HIT: 781749  MISS: 953606  HIT %: 45.0484  MISS %: 54.9516  AVERAGE MISS PENALTY: 511.693
LLC4 LOAD      ACCESS: 299586  HIT: 152738  MISS: 146848  HIT %: 50.983  MISS %: 49.017  AVERAGE MISS PENALTY: 557.771
LLC4 RFO       ACCESS: 31506  HIT:  1866  MISS: 29640  HIT %: 5.92268  MISS %: 94.0773  AVERAGE MISS PENALTY: 426.573
LLC4 PREFETCH  ACCESS: 1286060  HIT: 517713  MISS: 768347  HIT %: 40.2557  MISS %: 59.7443  AVERAGE MISS PENALTY: 512.012
LLC4 WRITEBACK ACCESS: 118203  HIT: 109432  MISS:  8771  HIT %: 92.5797  MISS %: 7.42029  AVERAGE MISS PENALTY: 0
LLC4 PREFETCH  REQUESTED:     0  ISSUED:     0  USEFUL: 312043  USELESS: 5849598
 USEFUL LOAD PREFETCHES:     312043 PREFETCH ISSUED TO LOWER LEVEL:   86894593  ACCURACY: 0.359105
 TIMELY PREFETCHES:     312043 LATE PREFETCHES: 0 DROPPED PREFETCHES: 0
LLC4 AVERAGE MISS LATENCY: 511.693 cycles
LLC5 TOTAL     ACCESS: 1724206  HIT: 774025  MISS: 950181  HIT %: 44.8917  MISS %: 55.1083  AVERAGE MISS PENALTY: 503.98
LLC5 LOAD      ACCESS: 295370  HIT: 149305  MISS: 146065  HIT %: 50.5485  MISS %: 49.4515  AVERAGE MISS PENALTY: 547.843
LLC5 RFO       ACCESS: 31498  HIT:  1784  MISS: 29714  HIT %: 5.66385  MISS %: 94.3361  AVERAGE MISS PENALTY: 418.422
LLC5 PREFETCH  ACCESS: 1279034  HIT: 513461  MISS: 765573  HIT %: 40.1444  MISS %: 59.8556  AVERAGE MISS PENALTY: 504.744
LLC5 WRITEBACK ACCESS: 118304  HIT: 109475  MISS:  8829  HIT %: 92.537  MISS %: 7.46298  AVERAGE MISS PENALTY: 0
LLC5 PREFETCH  REQUESTED:     0  ISSUED:     0  USEFUL: 310744  USELESS: 5828425
 USEFUL LOAD PREFETCHES:     310744 PREFETCH ISSUED TO LOWER LEVEL:   87708492  ACCURACY: 0.354292
 TIMELY PREFETCHES:     310744 LATE PREFETCHES: 0 DROPPED PREFETCHES: 0
LLC5 AVERAGE MISS LATENCY: 503.98 cycles
LLC6 TOTAL     ACCESS: 1714691  HIT: 770309  MISS: 944382  HIT %: 44.9241  MISS %: 55.0759  AVERAGE MISS PENALTY: 510.823
LLC6 LOAD      ACCESS: 299592  HIT: 153760  MISS: 145832  HIT %: 51.3231  MISS %: 48.6769  AVERAGE MISS PENALTY: 554.607
LLC6 RFO       ACCESS: 31512  HIT:  1748  MISS: 29764  HIT %: 5.54709  MISS %: 94.4529  AVERAGE MISS PENALTY: 430.301
LLC6 PREFETCH  ACCESS: 1265381  HIT: 505512  MISS: 759869  HIT %: 39.9494  MISS %: 60.0506  AVERAGE MISS PENALTY: 511.569
LLC6 WRITEBACK ACCESS: 118206  HIT: 109289  MISS:  8917  HIT %: 92.4564  MISS %: 7.54361  AVERAGE MISS PENALTY: 0
LLC6 PREFETCH  REQUESTED:     0  ISSUED:     0  USEFUL: 306801  USELESS: 5789085
 USEFUL LOAD PREFETCHES:     306801 PREFETCH ISSUED TO LOWER LEVEL:  113178794  ACCURACY: 0.271076
 TIMELY PREFETCHES:     306801 LATE PREFETCHES: 0 DROPPED PREFETCHES: 0
LLC6 AVERAGE MISS LATENCY: 510.823 cycles
LLC7 TOTAL     ACCESS: 1697882  HIT: 758118  MISS: 939764  HIT %: 44.6508  MISS %: 55.3492  AVERAGE MISS PENALTY: 503.31
LLC7 LOAD      ACCESS: 294135  HIT: 147785  MISS: 146350  HIT %: 50.2439  MISS %: 49.7561  AVERAGE MISS PENALTY: 548.702
LLC7 RFO       ACCESS: 31530  HIT:  1808  MISS: 29722  HIT %: 5.73422  MISS %: 94.2658  AVERAGE MISS PENALTY: 421.389
LLC7 PREFETCH  ACCESS: 1254122  HIT: 499310  MISS: 754812  HIT %: 39.8135  MISS %: 60.1865  AVERAGE MISS PENALTY: 503.656
LLC7 WRITEBACK ACCESS: 118095  HIT: 109215  MISS:  8880  HIT %: 92.4806  MISS %: 7.51937  AVERAGE MISS PENALTY: 0
LLC7 PREFETCH  REQUESTED:     0  ISSUED:     0  USEFUL: 307554  USELESS: 5750177
 USEFUL LOAD PREFETCHES:     307554 PREFETCH ISSUED TO LOWER LEVEL:  113719492  ACCURACY: 0.27045
 TIMELY PREFETCHES:     307554 LATE PREFETCHES: 0 DROPPED PREFETCHES: 0
LLC7 AVERAGE MISS LATENCY: 503.31 cycles
ROI Average ROB Stall Cycles:	11.0061
ROI Total ROB Stalls Cycles:	746610924
ROI TOTAL ROB counter      :	67836397
ROI Average Load ROB Stall Cycles:	45.99
ROI Total Load ROB Stalls Cycle  :	362566788
ROI Total Load ROB stalls Counter:	7883598
Major fault: 0 Minor fault: 29547








Interconnect Stats 
LINK 0 BW : 0LINK 1 BW : 0LINK 2 BW : 0LINK 3 BW : 0LINK 4 BW : 0LINK 5 BW : 0LINK 6 BW : 0LINK 7 BW : 0
DRAM Statistics
 CHANNEL 0
 RQ ROW_BUFFER_HIT: 8440011  ROW_BUFFER_MISS: 21784842
 DBUS_CONGESTED: 20248168
 WQ ROW_BUFFER_HIT: 171479  ROW_BUFFER_MISS: 3011044  FULL:     0

 CHANNEL 1
 RQ ROW_BUFFER_HIT: 8373973  ROW_BUFFER_MISS: 21837763
 DBUS_CONGESTED: 20248168
 WQ ROW_BUFFER_HIT: 170444  ROW_BUFFER_MISS: 3010675  FULL:     0

 AVG_CONGESTED_CYCLE: 5
DRAM PAGES: 2097152
Allocated PAGES: 236354
L2C destructor called
L1D destructor called
L1I destructor called
STLB destructor called
DTLB destructor called
ITLB destructor called
L2C destructor called
L1D destructor called
L1I destructor called
STLB destructor called
DTLB destructor called
ITLB destructor called
L2C destructor called
L1D destructor called
L1I destructor called
STLB destructor called
DTLB destructor called
ITLB destructor called
L2C destructor called
L1D destructor called
L1I destructor called
STLB destructor called
DTLB destructor called
ITLB destructor called
L2C destructor called
L1D destructor called
L1I destructor called
STLB destructor called
DTLB destructor called
ITLB destructor called
L2C destructor called
L1D destructor called
L1I destructor called
STLB destructor called
DTLB destructor called
ITLB destructor called
L2C destructor called
L1D destructor called
L1I destructor called
STLB destructor called
DTLB destructor called
ITLB destructor called
L2C destructor called
L1D destructor called
L1I destructor called
STLB destructor called
DTLB destructor called
ITLB destructor called
