
*** ChampSim Multicore Out-of-Order Simulator ***

Warmup Instructions: 200000000
Simulation Instructions: 200000000
Number of CPUs: 8
threads:1

L1I Configuration:
L1I_SET:64
L1I_WAY:8
L1I_RQ_SIZE:64
L1I_WQ_SIZE:64
L1I_PQ_SIZE:8
L1I_MSHR_SIZE:8

L1D Configuration:
L1D_SET:64
L1D_WAY:12
L1D_RQ_SIZE:64
L1D_WQ_SIZE:64
L1D_PQ_SIZE:8
L1D_MSHR_SIZE:16

L2C Configuration:
L2C_SET:1024
L2C_WAY:8
L2C_RQ_SIZE:32
L2C_WQ_SIZE:32
L2C_PQ_SIZE:16
L2C_MSHR_SIZE:32

LLC Configuration:
LLC_SET:2048
LLC_WAY:16
LLC SLICES:8
LLC_RQ_SIZE:64
LLC_WQ_SIZE:64
LLC_PQ_SIZE:32
LLC_MSHR_SIZE:64

Interconnect OFF
Attacker deprioritize is: OFF
Off-chip DRAM Size: 8192 MB Channels: 2 Width: 64-bit Data Rate: 3200 MT/s
PAGE SIZE in KB: 4.000000 
PAGE SIZE in MB: 0.003906 
PAGE offset in bits: 12 
CEASER-S_LLC:0
MIRAGE : 1
CEASER_LATENCY:3
REMAP : OFF
Partitions : 1
Multi-Step : OFF
BFS : OFF

CPU 0 runs /home/anubhav/gap/pr-10.trace.gz
CPU 1 runs /home/anubhav/gap/pr-10.trace.gz
CPU 2 runs /home/anubhav/gap/pr-10.trace.gz
CPU 3 runs /home/anubhav/gap/pr-10.trace.gz
CPU 4 runs /home/anubhav/gap/pr-10.trace.gz
CPU 5 runs /home/anubhav/gap/pr-10.trace.gz
CPU 6 runs /home/anubhav/gap/pr-10.trace.gz
CPU 7 runs /home/anubhav/gap/pr-10.trace.gz
CPU 0 Bimodal branch predictor
Initialize Hawkeye state
Initialize Hawkeye state
Initialize Hawkeye state
Initialize Hawkeye state
Initialize Hawkeye state
Initialize Hawkeye state
Initialize Hawkeye state
Initialize Hawkeye state
CPU 1 Bimodal branch predictor
Initialize Hawkeye state
Initialize Hawkeye state
Initialize Hawkeye state
Initialize Hawkeye state
Initialize Hawkeye state
Initialize Hawkeye state
Initialize Hawkeye state
Initialize Hawkeye state
CPU 2 Bimodal branch predictor
Initialize Hawkeye state
Initialize Hawkeye state
Initialize Hawkeye state
Initialize Hawkeye state
Initialize Hawkeye state
Initialize Hawkeye state
Initialize Hawkeye state
Initialize Hawkeye state
CPU 3 Bimodal branch predictor
Initialize Hawkeye state
Initialize Hawkeye state
Initialize Hawkeye state
Initialize Hawkeye state
Initialize Hawkeye state
Initialize Hawkeye state
Initialize Hawkeye state
Initialize Hawkeye state
CPU 4 Bimodal branch predictor
Initialize Hawkeye state
Initialize Hawkeye state
Initialize Hawkeye state
Initialize Hawkeye state
Initialize Hawkeye state
Initialize Hawkeye state
Initialize Hawkeye state
Initialize Hawkeye state
CPU 5 Bimodal branch predictor
Initialize Hawkeye state
Initialize Hawkeye state
Initialize Hawkeye state
Initialize Hawkeye state
Initialize Hawkeye state
Initialize Hawkeye state
Initialize Hawkeye state
Initialize Hawkeye state
CPU 6 Bimodal branch predictor
Initialize Hawkeye state
Initialize Hawkeye state
Initialize Hawkeye state
Initialize Hawkeye state
Initialize Hawkeye state
Initialize Hawkeye state
Initialize Hawkeye state
Initialize Hawkeye state
CPU 7 Bimodal branch predictor
Initialize Hawkeye state
Initialize Hawkeye state
Initialize Hawkeye state
Initialize Hawkeye state
Initialize Hawkeye state
Initialize Hawkeye state
Initialize Hawkeye state
Initialize Hawkeye state
Heartbeat CPU 0 instructions: 10000001 cycles: 3641890 heartbeat IPC: 2.74583 cumulative IPC: 2.74583 (Simulation time: 0 hr 27 min 28 sec) 
 Total Blocks : 262144 Invalid Blocks : 224
Heartbeat CPU 1 instructions: 10000001 cycles: 3641894 heartbeat IPC: 2.74582 cumulative IPC: 2.74582 (Simulation time: 0 hr 27 min 28 sec) 
 Total Blocks : 262144 Invalid Blocks : 224
Heartbeat CPU 2 instructions: 10000001 cycles: 3641900 heartbeat IPC: 2.74582 cumulative IPC: 2.74582 (Simulation time: 0 hr 27 min 28 sec) 
 Total Blocks : 262144 Invalid Blocks : 224
Heartbeat CPU 3 instructions: 10000001 cycles: 3641902 heartbeat IPC: 2.74582 cumulative IPC: 2.74582 (Simulation time: 0 hr 27 min 28 sec) 
 Total Blocks : 262144 Invalid Blocks : 224
Heartbeat CPU 4 instructions: 10000001 cycles: 3641904 heartbeat IPC: 2.74582 cumulative IPC: 2.74582 (Simulation time: 0 hr 27 min 28 sec) 
 Total Blocks : 262144 Invalid Blocks : 224
Heartbeat CPU 5 instructions: 10000001 cycles: 3641910 heartbeat IPC: 2.74581 cumulative IPC: 2.74581 (Simulation time: 0 hr 27 min 28 sec) 
 Total Blocks : 262144 Invalid Blocks : 224
Heartbeat CPU 6 instructions: 10000001 cycles: 3641913 heartbeat IPC: 2.74581 cumulative IPC: 2.74581 (Simulation time: 0 hr 27 min 28 sec) 
 Total Blocks : 262144 Invalid Blocks : 224
Heartbeat CPU 7 instructions: 10000001 cycles: 3641916 heartbeat IPC: 2.74581 cumulative IPC: 2.74581 (Simulation time: 0 hr 27 min 28 sec) 
 Total Blocks : 262144 Invalid Blocks : 224
Heartbeat CPU 0 instructions: 20000003 cycles: 13594716 heartbeat IPC: 1.00474 cumulative IPC: 1.47116 (Simulation time: 1 hr 17 min 7 sec) 
 Total Blocks : 262144 Invalid Blocks : 0
Heartbeat CPU 1 instructions: 20000003 cycles: 13618606 heartbeat IPC: 1.00233 cumulative IPC: 1.46858 (Simulation time: 1 hr 17 min 17 sec) 
 Total Blocks : 262144 Invalid Blocks : 0
Heartbeat CPU 2 instructions: 20000003 cycles: 13638084 heartbeat IPC: 1.00038 cumulative IPC: 1.46648 (Simulation time: 1 hr 17 min 24 sec) 
 Total Blocks : 262144 Invalid Blocks : 0
Heartbeat CPU 3 instructions: 20000003 cycles: 13657192 heartbeat IPC: 0.998474 cumulative IPC: 1.46443 (Simulation time: 1 hr 17 min 31 sec) 
 Total Blocks : 262144 Invalid Blocks : 0
Heartbeat CPU 4 instructions: 20000003 cycles: 13671931 heartbeat IPC: 0.997006 cumulative IPC: 1.46285 (Simulation time: 1 hr 17 min 36 sec) 
 Total Blocks : 262144 Invalid Blocks : 0
Heartbeat CPU 5 instructions: 20000003 cycles: 13687316 heartbeat IPC: 0.99548 cumulative IPC: 1.46121 (Simulation time: 1 hr 17 min 42 sec) 
 Total Blocks : 262144 Invalid Blocks : 0
Heartbeat CPU 6 instructions: 20000003 cycles: 13702674 heartbeat IPC: 0.993961 cumulative IPC: 1.45957 (Simulation time: 1 hr 17 min 47 sec) 
 Total Blocks : 262144 Invalid Blocks : 0
Heartbeat CPU 7 instructions: 20000003 cycles: 13713942 heartbeat IPC: 0.992849 cumulative IPC: 1.45837 (Simulation time: 1 hr 17 min 51 sec) 
 Total Blocks : 262144 Invalid Blocks : 0
Heartbeat CPU 0 instructions: 30000002 cycles: 25918555 heartbeat IPC: 0.811435 cumulative IPC: 1.15747 (Simulation time: 2 hr 32 min 17 sec) 
 Total Blocks : 262144 Invalid Blocks : 0
Heartbeat CPU 1 instructions: 30000002 cycles: 26009855 heartbeat IPC: 0.807021 cumulative IPC: 1.15341 (Simulation time: 2 hr 32 min 52 sec) 
 Total Blocks : 262144 Invalid Blocks : 0
Heartbeat CPU 2 instructions: 30000002 cycles: 26083470 heartbeat IPC: 0.803511 cumulative IPC: 1.15015 (Simulation time: 2 hr 33 min 18 sec) 
 Total Blocks : 262144 Invalid Blocks : 0
Heartbeat CPU 3 instructions: 30000002 cycles: 26145956 heartbeat IPC: 0.80072 cumulative IPC: 1.14741 (Simulation time: 2 hr 33 min 40 sec) 
 Total Blocks : 262144 Invalid Blocks : 0
Heartbeat CPU 4 instructions: 30000002 cycles: 26204364 heartbeat IPC: 0.79793 cumulative IPC: 1.14485 (Simulation time: 2 hr 34 min 0 sec) 
 Total Blocks : 262144 Invalid Blocks : 0
Heartbeat CPU 5 instructions: 30000002 cycles: 26256767 heartbeat IPC: 0.79558 cumulative IPC: 1.14256 (Simulation time: 2 hr 34 min 18 sec) 
 Total Blocks : 262144 Invalid Blocks : 0
Heartbeat CPU 6 instructions: 30000002 cycles: 26307687 heartbeat IPC: 0.793335 cumulative IPC: 1.14035 (Simulation time: 2 hr 34 min 35 sec) 
 Total Blocks : 262144 Invalid Blocks : 0
Heartbeat CPU 7 instructions: 30000002 cycles: 26357254 heartbeat IPC: 0.790932 cumulative IPC: 1.13821 (Simulation time: 2 hr 34 min 54 sec) 
 Total Blocks : 262144 Invalid Blocks : 0
Heartbeat CPU 0 instructions: 40000000 cycles: 38231267 heartbeat IPC: 0.812169 cumulative IPC: 1.04626 (Simulation time: 3 hr 48 min 28 sec) 
 Total Blocks : 262144 Invalid Blocks : 0
Heartbeat CPU 1 instructions: 40000000 cycles: 38382971 heartbeat IPC: 0.808204 cumulative IPC: 1.04213 (Simulation time: 3 hr 49 min 20 sec) 
 Total Blocks : 262144 Invalid Blocks : 0
Heartbeat CPU 2 instructions: 40000000 cycles: 38507434 heartbeat IPC: 0.804896 cumulative IPC: 1.03876 (Simulation time: 3 hr 50 min 4 sec) 
 Total Blocks : 262144 Invalid Blocks : 0
Heartbeat CPU 3 instructions: 40000000 cycles: 38616427 heartbeat IPC: 0.801894 cumulative IPC: 1.03583 (Simulation time: 3 hr 50 min 48 sec) 
 Total Blocks : 262144 Invalid Blocks : 0
Heartbeat CPU 4 instructions: 40000000 cycles: 38714304 heartbeat IPC: 0.799364 cumulative IPC: 1.03321 (Simulation time: 3 hr 51 min 28 sec) 
 Total Blocks : 262144 Invalid Blocks : 0
Heartbeat CPU 5 instructions: 40000000 cycles: 38806104 heartbeat IPC: 0.796855 cumulative IPC: 1.03077 (Simulation time: 3 hr 52 min 3 sec) 
 Total Blocks : 262144 Invalid Blocks : 0
Heartbeat CPU 6 instructions: 40000000 cycles: 38894904 heartbeat IPC: 0.794457 cumulative IPC: 1.02841 (Simulation time: 3 hr 52 min 35 sec) 
 Total Blocks : 262144 Invalid Blocks : 0
Heartbeat CPU 7 instructions: 40000000 cycles: 38973738 heartbeat IPC: 0.792614 cumulative IPC: 1.02633 (Simulation time: 3 hr 53 min 4 sec) 
 Total Blocks : 262144 Invalid Blocks : 0
Heartbeat CPU 0 instructions: 50000000 cycles: 50267062 heartbeat IPC: 0.830855 cumulative IPC: 0.994687 (Simulation time: 5 hr 4 min 58 sec) 
 Total Blocks : 262144 Invalid Blocks : 0
Heartbeat CPU 1 instructions: 50000000 cycles: 50479063 heartbeat IPC: 0.826713 cumulative IPC: 0.99051 (Simulation time: 5 hr 6 min 16 sec) 
 Total Blocks : 262144 Invalid Blocks : 0
Heartbeat CPU 2 instructions: 50000000 cycles: 50652144 heartbeat IPC: 0.823404 cumulative IPC: 0.987125 (Simulation time: 5 hr 7 min 21 sec) 
 Total Blocks : 262144 Invalid Blocks : 0
Heartbeat CPU 3 instructions: 50000000 cycles: 50805417 heartbeat IPC: 0.820413 cumulative IPC: 0.984147 (Simulation time: 5 hr 8 min 18 sec) 
 Total Blocks : 262144 Invalid Blocks : 0
Heartbeat CPU 4 instructions: 50000000 cycles: 50945596 heartbeat IPC: 0.817575 cumulative IPC: 0.981439 (Simulation time: 5 hr 9 min 10 sec) 
 Total Blocks : 262144 Invalid Blocks : 0
Heartbeat CPU 5 instructions: 50000000 cycles: 51077191 heartbeat IPC: 0.814924 cumulative IPC: 0.978911 (Simulation time: 5 hr 9 min 59 sec) 
 Total Blocks : 262144 Invalid Blocks : 0
Heartbeat CPU 6 instructions: 50000000 cycles: 51196687 heartbeat IPC: 0.81289 cumulative IPC: 0.976626 (Simulation time: 5 hr 10 min 44 sec) 
 Total Blocks : 262144 Invalid Blocks : 0
Heartbeat CPU 7 instructions: 50000000 cycles: 51311672 heartbeat IPC: 0.810508 cumulative IPC: 0.974437 (Simulation time: 5 hr 11 min 26 sec) 
 Total Blocks : 262144 Invalid Blocks : 0
Heartbeat CPU 0 instructions: 60000000 cycles: 62684404 heartbeat IPC: 0.805325 cumulative IPC: 0.957176 (Simulation time: 6 hr 23 min 1 sec) 
 Total Blocks : 262144 Invalid Blocks : 0
Heartbeat CPU 1 instructions: 60000000 cycles: 62962662 heartbeat IPC: 0.801051 cumulative IPC: 0.952946 (Simulation time: 6 hr 24 min 44 sec) 
 Total Blocks : 262144 Invalid Blocks : 0
Heartbeat CPU 2 instructions: 60000000 cycles: 63186703 heartbeat IPC: 0.797794 cumulative IPC: 0.949567 (Simulation time: 6 hr 26 min 6 sec) 
 Total Blocks : 262144 Invalid Blocks : 0
Heartbeat CPU 3 instructions: 60000000 cycles: 63385908 heartbeat IPC: 0.794882 cumulative IPC: 0.946583 (Simulation time: 6 hr 27 min 18 sec) 
 Total Blocks : 262144 Invalid Blocks : 0
Heartbeat CPU 4 instructions: 60000000 cycles: 63566816 heartbeat IPC: 0.792316 cumulative IPC: 0.943889 (Simulation time: 6 hr 28 min 24 sec) 
 Total Blocks : 262144 Invalid Blocks : 0
Heartbeat CPU 5 instructions: 60000000 cycles: 63737440 heartbeat IPC: 0.789874 cumulative IPC: 0.941362 (Simulation time: 6 hr 29 min 26 sec) 
 Total Blocks : 262144 Invalid Blocks : 0
Heartbeat CPU 6 instructions: 60000000 cycles: 63889216 heartbeat IPC: 0.787865 cumulative IPC: 0.939126 (Simulation time: 6 hr 30 min 22 sec) 
 Total Blocks : 262144 Invalid Blocks : 0
Heartbeat CPU 7 instructions: 60000000 cycles: 64040606 heartbeat IPC: 0.785612 cumulative IPC: 0.936906 (Simulation time: 6 hr 31 min 18 sec) 
 Total Blocks : 262144 Invalid Blocks : 0
Heartbeat CPU 0 instructions: 70000000 cycles: 75000833 heartbeat IPC: 0.811924 cumulative IPC: 0.933323 (Simulation time: 7 hr 41 min 39 sec) 
 Total Blocks : 262144 Invalid Blocks : 0
Heartbeat CPU 1 instructions: 70000000 cycles: 75343036 heartbeat IPC: 0.80773 cumulative IPC: 0.929084 (Simulation time: 7 hr 43 min 54 sec) 
 Total Blocks : 262144 Invalid Blocks : 0
Heartbeat CPU 2 instructions: 70000000 cycles: 75618841 heartbeat IPC: 0.804367 cumulative IPC: 0.925695 (Simulation time: 7 hr 45 min 37 sec) 
 Total Blocks : 262144 Invalid Blocks : 0
Heartbeat CPU 3 instructions: 70000000 cycles: 75867522 heartbeat IPC: 0.801178 cumulative IPC: 0.922661 (Simulation time: 7 hr 47 min 16 sec) 
 Total Blocks : 262144 Invalid Blocks : 0
Heartbeat CPU 4 instructions: 70000000 cycles: 76088780 heartbeat IPC: 0.798597 cumulative IPC: 0.919978 (Simulation time: 7 hr 48 min 39 sec) 
 Total Blocks : 262144 Invalid Blocks : 0
Heartbeat CPU 5 instructions: 70000000 cycles: 76300250 heartbeat IPC: 0.796 cumulative IPC: 0.917428 (Simulation time: 7 hr 50 min 5 sec) 
 Total Blocks : 262144 Invalid Blocks : 0
Heartbeat CPU 6 instructions: 70000000 cycles: 76488119 heartbeat IPC: 0.79372 cumulative IPC: 0.915175 (Simulation time: 7 hr 51 min 21 sec) 
 Total Blocks : 262144 Invalid Blocks : 0
Heartbeat CPU 7 instructions: 70000000 cycles: 76674892 heartbeat IPC: 0.791497 cumulative IPC: 0.912946 (Simulation time: 7 hr 52 min 33 sec) 
 Total Blocks : 262144 Invalid Blocks : 0
Heartbeat CPU 0 instructions: 80000000 cycles: 87257494 heartbeat IPC: 0.815883 cumulative IPC: 0.916827 (Simulation time: 9 hr 1 min 55 sec) 
 Total Blocks : 262144 Invalid Blocks : 0
Heartbeat CPU 1 instructions: 80000000 cycles: 87667564 heartbeat IPC: 0.81139 cumulative IPC: 0.912538 (Simulation time: 9 hr 4 min 33 sec) 
 Total Blocks : 262144 Invalid Blocks : 0
Heartbeat CPU 2 instructions: 80000000 cycles: 87993622 heartbeat IPC: 0.808095 cumulative IPC: 0.909157 (Simulation time: 9 hr 6 min 45 sec) 
 Total Blocks : 262144 Invalid Blocks : 0
Heartbeat CPU 3 instructions: 80000000 cycles: 88287944 heartbeat IPC: 0.805126 cumulative IPC: 0.906126 (Simulation time: 9 hr 8 min 48 sec) 
 Total Blocks : 262144 Invalid Blocks : 0
Heartbeat CPU 4 instructions: 80000000 cycles: 88549980 heartbeat IPC: 0.802491 cumulative IPC: 0.903445 (Simulation time: 9 hr 10 min 36 sec) 
 Total Blocks : 262144 Invalid Blocks : 0
Heartbeat CPU 5 instructions: 80000000 cycles: 88802877 heartbeat IPC: 0.799832 cumulative IPC: 0.900872 (Simulation time: 9 hr 12 min 21 sec) 
 Total Blocks : 262144 Invalid Blocks : 0
Heartbeat CPU 6 instructions: 80000000 cycles: 89024982 heartbeat IPC: 0.797648 cumulative IPC: 0.898624 (Simulation time: 9 hr 13 min 54 sec) 
 Total Blocks : 262144 Invalid Blocks : 0
Heartbeat CPU 7 instructions: 80000000 cycles: 89246864 heartbeat IPC: 0.79542 cumulative IPC: 0.89639 (Simulation time: 9 hr 15 min 23 sec) 
 Total Blocks : 262144 Invalid Blocks : 0
Heartbeat CPU 0 instructions: 90000000 cycles: 99713075 heartbeat IPC: 0.802853 cumulative IPC: 0.90259 (Simulation time: 10 hr 26 min 52 sec) 
 Total Blocks : 262144 Invalid Blocks : 0
Heartbeat CPU 1 instructions: 90000000 cycles: 100188838 heartbeat IPC: 0.798641 cumulative IPC: 0.898304 (Simulation time: 10 hr 30 min 10 sec) 
 Total Blocks : 262144 Invalid Blocks : 0
Heartbeat CPU 2 instructions: 90000000 cycles: 100566663 heartbeat IPC: 0.795353 cumulative IPC: 0.894929 (Simulation time: 10 hr 32 min 46 sec) 
 Total Blocks : 262144 Invalid Blocks : 0
Heartbeat CPU 3 instructions: 90000000 cycles: 100906612 heartbeat IPC: 0.792477 cumulative IPC: 0.891914 (Simulation time: 10 hr 35 min 6 sec) 
 Total Blocks : 262144 Invalid Blocks : 0
Heartbeat CPU 4 instructions: 90000000 cycles: 101211055 heartbeat IPC: 0.789822 cumulative IPC: 0.889231 (Simulation time: 10 hr 37 min 8 sec) 
 Total Blocks : 262144 Invalid Blocks : 0
Heartbeat CPU 5 instructions: 90000000 cycles: 101503013 heartbeat IPC: 0.787393 cumulative IPC: 0.886673 (Simulation time: 10 hr 39 min 13 sec) 
 Total Blocks : 262144 Invalid Blocks : 0
Heartbeat CPU 6 instructions: 90000000 cycles: 101761386 heartbeat IPC: 0.785151 cumulative IPC: 0.884422 (Simulation time: 10 hr 41 min 2 sec) 
 Total Blocks : 262144 Invalid Blocks : 0
Heartbeat CPU 7 instructions: 90000000 cycles: 102017355 heartbeat IPC: 0.783055 cumulative IPC: 0.882203 (Simulation time: 10 hr 42 min 49 sec) 
 Total Blocks : 262144 Invalid Blocks : 0
Heartbeat CPU 0 instructions: 100000001 cycles: 112136109 heartbeat IPC: 0.804956 cumulative IPC: 0.891773 (Simulation time: 11 hr 54 min 23 sec) 
 Total Blocks : 262144 Invalid Blocks : 0
Heartbeat CPU 1 instructions: 100000001 cycles: 112680985 heartbeat IPC: 0.800503 cumulative IPC: 0.887461 (Simulation time: 11 hr 58 min 23 sec) 
 Total Blocks : 262144 Invalid Blocks : 0
Heartbeat CPU 2 instructions: 100000001 cycles: 113116423 heartbeat IPC: 0.796828 cumulative IPC: 0.884045 (Simulation time: 12 hr 1 min 30 sec) 
 Total Blocks : 262144 Invalid Blocks : 0
Heartbeat CPU 3 instructions: 100000001 cycles: 113500684 heartbeat IPC: 0.794024 cumulative IPC: 0.881052 (Simulation time: 12 hr 4 min 18 sec) 
 Total Blocks : 262144 Invalid Blocks : 0
Heartbeat CPU 4 instructions: 100000001 cycles: 113850888 heartbeat IPC: 0.79115 cumulative IPC: 0.878342 (Simulation time: 12 hr 6 min 50 sec) 
 Total Blocks : 262144 Invalid Blocks : 0
Heartbeat CPU 5 instructions: 100000001 cycles: 114181577 heartbeat IPC: 0.788733 cumulative IPC: 0.875798 (Simulation time: 12 hr 9 min 13 sec) 
 Total Blocks : 262144 Invalid Blocks : 0
Heartbeat CPU 6 instructions: 100000001 cycles: 114475643 heartbeat IPC: 0.786519 cumulative IPC: 0.873548 (Simulation time: 12 hr 11 min 25 sec) 
 Total Blocks : 262144 Invalid Blocks : 0
Heartbeat CPU 7 instructions: 100000001 cycles: 114770139 heartbeat IPC: 0.784143 cumulative IPC: 0.871307 (Simulation time: 12 hr 13 min 33 sec) 
 Total Blocks : 262144 Invalid Blocks : 0
Heartbeat CPU 0 instructions: 110000000 cycles: 124580106 heartbeat IPC: 0.8036 cumulative IPC: 0.882966 (Simulation time: 13 hr 22 min 38 sec) 
 Total Blocks : 262144 Invalid Blocks : 0
Heartbeat CPU 1 instructions: 110000000 cycles: 125187078 heartbeat IPC: 0.79961 cumulative IPC: 0.878685 (Simulation time: 13 hr 27 min 11 sec) 
 Total Blocks : 262144 Invalid Blocks : 0
Heartbeat CPU 2 instructions: 110000000 cycles: 125675180 heartbeat IPC: 0.796257 cumulative IPC: 0.875272 (Simulation time: 13 hr 30 min 48 sec) 
 Total Blocks : 262144 Invalid Blocks : 0
Heartbeat CPU 3 instructions: 110000000 cycles: 126106877 heartbeat IPC: 0.793261 cumulative IPC: 0.872276 (Simulation time: 13 hr 34 min 4 sec) 
 Total Blocks : 262144 Invalid Blocks : 0
Heartbeat CPU 4 instructions: 110000000 cycles: 126497096 heartbeat IPC: 0.790751 cumulative IPC: 0.869585 (Simulation time: 13 hr 37 min 3 sec) 
 Total Blocks : 262144 Invalid Blocks : 0
Heartbeat CPU 5 instructions: 110000000 cycles: 126864754 heartbeat IPC: 0.788446 cumulative IPC: 0.867065 (Simulation time: 13 hr 39 min 49 sec) 
 Total Blocks : 262144 Invalid Blocks : 0
Heartbeat CPU 6 instructions: 110000000 cycles: 127198187 heartbeat IPC: 0.786006 cumulative IPC: 0.864792 (Simulation time: 13 hr 42 min 4 sec) 
 Total Blocks : 262144 Invalid Blocks : 0
Heartbeat CPU 7 instructions: 110000000 cycles: 127527420 heartbeat IPC: 0.783866 cumulative IPC: 0.86256 (Simulation time: 13 hr 44 min 11 sec) 
 Total Blocks : 262144 Invalid Blocks : 0
Heartbeat CPU 0 instructions: 120000001 cycles: 136937162 heartbeat IPC: 0.809254 cumulative IPC: 0.876314 (Simulation time: 14 hr 55 min 19 sec) 
 Total Blocks : 262144 Invalid Blocks : 0
Heartbeat CPU 1 instructions: 120000001 cycles: 137608486 heartbeat IPC: 0.805062 cumulative IPC: 0.872039 (Simulation time: 15 hr 0 min 31 sec) 
 Total Blocks : 262144 Invalid Blocks : 0
Heartbeat CPU 2 instructions: 120000001 cycles: 138148827 heartbeat IPC: 0.80169 cumulative IPC: 0.868628 (Simulation time: 15 hr 4 min 44 sec) 
 Total Blocks : 262144 Invalid Blocks : 0
Heartbeat CPU 3 instructions: 120000001 cycles: 138625871 heartbeat IPC: 0.798786 cumulative IPC: 0.865639 (Simulation time: 15 hr 8 min 32 sec) 
 Total Blocks : 262144 Invalid Blocks : 0
Heartbeat CPU 4 instructions: 120000001 cycles: 139059164 heartbeat IPC: 0.796047 cumulative IPC: 0.862942 (Simulation time: 15 hr 11 min 56 sec) 
 Total Blocks : 262144 Invalid Blocks : 0
Heartbeat CPU 5 instructions: 120000001 cycles: 139462716 heartbeat IPC: 0.793779 cumulative IPC: 0.860445 (Simulation time: 15 hr 15 min 5 sec) 
 Total Blocks : 262144 Invalid Blocks : 0
Heartbeat CPU 6 instructions: 120000001 cycles: 139830659 heartbeat IPC: 0.791611 cumulative IPC: 0.858181 (Simulation time: 15 hr 17 min 54 sec) 
 Total Blocks : 262144 Invalid Blocks : 0
Heartbeat CPU 7 instructions: 120000001 cycles: 140199208 heartbeat IPC: 0.789155 cumulative IPC: 0.855925 (Simulation time: 15 hr 20 min 50 sec) 
 Total Blocks : 262144 Invalid Blocks : 0
Heartbeat CPU 0 instructions: 130000000 cycles: 149011910 heartbeat IPC: 0.828175 cumulative IPC: 0.872414 (Simulation time: 16 hr 31 min 41 sec) 
 Total Blocks : 262144 Invalid Blocks : 0
Heartbeat CPU 1 instructions: 130000000 cycles: 149746509 heartbeat IPC: 0.823857 cumulative IPC: 0.868134 (Simulation time: 16 hr 37 min 36 sec) 
 Total Blocks : 262144 Invalid Blocks : 0
Heartbeat CPU 2 instructions: 130000000 cycles: 150341372 heartbeat IPC: 0.820173 cumulative IPC: 0.864699 (Simulation time: 16 hr 42 min 19 sec) 
 Total Blocks : 262144 Invalid Blocks : 0
Heartbeat CPU 3 instructions: 130000000 cycles: 150861380 heartbeat IPC: 0.817293 cumulative IPC: 0.861718 (Simulation time: 16 hr 46 min 17 sec) 
 Total Blocks : 262144 Invalid Blocks : 0
Heartbeat CPU 4 instructions: 130000000 cycles: 151334822 heartbeat IPC: 0.81462 cumulative IPC: 0.859022 (Simulation time: 16 hr 49 min 30 sec) 
 Total Blocks : 262144 Invalid Blocks : 0
Heartbeat CPU 5 instructions: 130000000 cycles: 151778007 heartbeat IPC: 0.811999 cumulative IPC: 0.856514 (Simulation time: 16 hr 52 min 56 sec) 
 Total Blocks : 262144 Invalid Blocks : 0
Heartbeat CPU 6 instructions: 130000000 cycles: 152182183 heartbeat IPC: 0.809617 cumulative IPC: 0.854239 (Simulation time: 16 hr 56 min 20 sec) 
 Total Blocks : 262144 Invalid Blocks : 0
Heartbeat CPU 7 instructions: 130000000 cycles: 152581029 heartbeat IPC: 0.807636 cumulative IPC: 0.852006 (Simulation time: 16 hr 59 min 32 sec) 
 Total Blocks : 262144 Invalid Blocks : 0
Heartbeat CPU 0 instructions: 140000003 cycles: 161183776 heartbeat IPC: 0.821567 cumulative IPC: 0.868574 (Simulation time: 18 hr 9 min 8 sec) 
 Total Blocks : 262144 Invalid Blocks : 0
Heartbeat CPU 1 instructions: 140000003 cycles: 161982643 heartbeat IPC: 0.817252 cumulative IPC: 0.86429 (Simulation time: 18 hr 15 min 42 sec) 
 Total Blocks : 262144 Invalid Blocks : 0
Heartbeat CPU 2 instructions: 140000003 cycles: 162628562 heartbeat IPC: 0.813856 cumulative IPC: 0.860857 (Simulation time: 18 hr 21 min 10 sec) 
 Total Blocks : 262144 Invalid Blocks : 0
Heartbeat CPU 3 instructions: 140000003 cycles: 163196262 heartbeat IPC: 0.810709 cumulative IPC: 0.857863 (Simulation time: 18 hr 26 min 0 sec) 
 Total Blocks : 262144 Invalid Blocks : 0
Heartbeat CPU 4 instructions: 140000003 cycles: 163710131 heartbeat IPC: 0.808061 cumulative IPC: 0.85517 (Simulation time: 18 hr 29 min 54 sec) 
 Total Blocks : 262144 Invalid Blocks : 0
Heartbeat CPU 5 instructions: 140000003 cycles: 164190373 heartbeat IPC: 0.805648 cumulative IPC: 0.852669 (Simulation time: 18 hr 33 min 47 sec) 
 Total Blocks : 262144 Invalid Blocks : 0
Heartbeat CPU 6 instructions: 140000003 cycles: 164630216 heartbeat IPC: 0.80334 cumulative IPC: 0.850391 (Simulation time: 18 hr 37 min 24 sec) 
 Total Blocks : 262144 Invalid Blocks : 0
Heartbeat CPU 7 instructions: 140000003 cycles: 165062101 heartbeat IPC: 0.801213 cumulative IPC: 0.848166 (Simulation time: 18 hr 40 min 51 sec) 
 Total Blocks : 262144 Invalid Blocks : 0
Heartbeat CPU 0 instructions: 150000000 cycles: 173676107 heartbeat IPC: 0.800491 cumulative IPC: 0.863677 (Simulation time: 19 hr 49 min 52 sec) 
 Total Blocks : 262144 Invalid Blocks : 0
Heartbeat CPU 1 instructions: 150000000 cycles: 174539232 heartbeat IPC: 0.796394 cumulative IPC: 0.859406 (Simulation time: 19 hr 56 min 56 sec) 
 Total Blocks : 262144 Invalid Blocks : 0
Heartbeat CPU 2 instructions: 150000000 cycles: 175237023 heartbeat IPC: 0.793118 cumulative IPC: 0.855983 (Simulation time: 20 hr 2 min 32 sec) 
 Total Blocks : 262144 Invalid Blocks : 0
Heartbeat CPU 3 instructions: 150000000 cycles: 175848932 heartbeat IPC: 0.790347 cumulative IPC: 0.853005 (Simulation time: 20 hr 7 min 47 sec) 
 Total Blocks : 262144 Invalid Blocks : 0
Heartbeat CPU 4 instructions: 150000000 cycles: 176403445 heartbeat IPC: 0.787816 cumulative IPC: 0.850324 (Simulation time: 20 hr 12 min 16 sec) 
 Total Blocks : 262144 Invalid Blocks : 0
Heartbeat CPU 5 instructions: 150000000 cycles: 176921175 heartbeat IPC: 0.785496 cumulative IPC: 0.847835 (Simulation time: 20 hr 16 min 35 sec) 
 Total Blocks : 262144 Invalid Blocks : 0
Heartbeat CPU 6 instructions: 150000000 cycles: 177397828 heartbeat IPC: 0.783232 cumulative IPC: 0.845557 (Simulation time: 20 hr 20 min 24 sec) 
 Total Blocks : 262144 Invalid Blocks : 0
Heartbeat CPU 7 instructions: 150000000 cycles: 177865983 heartbeat IPC: 0.781013 cumulative IPC: 0.843332 (Simulation time: 20 hr 24 min 22 sec) 
 Total Blocks : 262144 Invalid Blocks : 0
Heartbeat CPU 0 instructions: 160000000 cycles: 186038399 heartbeat IPC: 0.808912 cumulative IPC: 0.860038 (Simulation time: 21 hr 33 min 1 sec) 
 Total Blocks : 262144 Invalid Blocks : 0
Heartbeat CPU 1 instructions: 160000000 cycles: 186970896 heartbeat IPC: 0.804398 cumulative IPC: 0.855748 (Simulation time: 21 hr 40 min 39 sec) 
 Total Blocks : 262144 Invalid Blocks : 0
Heartbeat CPU 2 instructions: 160000000 cycles: 187719283 heartbeat IPC: 0.801137 cumulative IPC: 0.852337 (Simulation time: 21 hr 46 min 56 sec) 
 Total Blocks : 262144 Invalid Blocks : 0
Heartbeat CPU 3 instructions: 160000000 cycles: 188375320 heartbeat IPC: 0.798315 cumulative IPC: 0.849368 (Simulation time: 21 hr 52 min 9 sec) 
 Total Blocks : 262144 Invalid Blocks : 0
Heartbeat CPU 4 instructions: 160000000 cycles: 188969641 heartbeat IPC: 0.795786 cumulative IPC: 0.846697 (Simulation time: 21 hr 56 min 11 sec) 
 Total Blocks : 262144 Invalid Blocks : 0
Heartbeat CPU 5 instructions: 160000000 cycles: 189524933 heartbeat IPC: 0.793414 cumulative IPC: 0.844216 (Simulation time: 21 hr 59 min 46 sec) 
 Total Blocks : 262144 Invalid Blocks : 0
Heartbeat CPU 6 instructions: 160000000 cycles: 190036811 heartbeat IPC: 0.791203 cumulative IPC: 0.841942 (Simulation time: 22 hr 4 min 9 sec) 
 Total Blocks : 262144 Invalid Blocks : 0
Heartbeat CPU 7 instructions: 160000000 cycles: 190536941 heartbeat IPC: 0.789206 cumulative IPC: 0.839732 (Simulation time: 22 hr 7 min 45 sec) 
 Total Blocks : 262144 Invalid Blocks : 0
Heartbeat CPU 0 instructions: 170000000 cycles: 198487826 heartbeat IPC: 0.80325 cumulative IPC: 0.856476 (Simulation time: 23 hr 13 min 31 sec) 
 Total Blocks : 262144 Invalid Blocks : 0
Heartbeat CPU 1 instructions: 170000000 cycles: 199484728 heartbeat IPC: 0.799116 cumulative IPC: 0.852196 (Simulation time: 23 hr 22 min 20 sec) 
 Total Blocks : 262144 Invalid Blocks : 0
Heartbeat CPU 2 instructions: 170000000 cycles: 200287306 heartbeat IPC: 0.79567 cumulative IPC: 0.848781 (Simulation time: 23 hr 28 min 59 sec) 
 Total Blocks : 262144 Invalid Blocks : 0
Heartbeat CPU 3 instructions: 170000000 cycles: 200988051 heartbeat IPC: 0.79285 cumulative IPC: 0.845821 (Simulation time: 23 hr 35 min 16 sec) 
 Total Blocks : 262144 Invalid Blocks : 0
Heartbeat CPU 4 instructions: 170000000 cycles: 201626519 heartbeat IPC: 0.790084 cumulative IPC: 0.843143 (Simulation time: 23 hr 40 min 34 sec) 
 Total Blocks : 262144 Invalid Blocks : 0
Heartbeat CPU 5 instructions: 170000000 cycles: 202218940 heartbeat IPC: 0.787773 cumulative IPC: 0.840673 (Simulation time: 23 hr 45 min 54 sec) 
 Total Blocks : 262144 Invalid Blocks : 0
Heartbeat CPU 6 instructions: 170000000 cycles: 202768827 heartbeat IPC: 0.785422 cumulative IPC: 0.838393 (Simulation time: 23 hr 50 min 52 sec) 
 Total Blocks : 262144 Invalid Blocks : 0
Heartbeat CPU 7 instructions: 170000000 cycles: 203307161 heartbeat IPC: 0.783072 cumulative IPC: 0.836173 (Simulation time: 23 hr 55 min 49 sec) 
 Total Blocks : 262144 Invalid Blocks : 0
Heartbeat CPU 0 instructions: 180000000 cycles: 210897390 heartbeat IPC: 0.80583 cumulative IPC: 0.853496 (Simulation time: 24 hr 58 min 5 sec) 
 Total Blocks : 262144 Invalid Blocks : 0
Heartbeat CPU 1 instructions: 180000000 cycles: 211962316 heartbeat IPC: 0.801437 cumulative IPC: 0.849208 (Simulation time: 25 hr 7 min 56 sec) 
 Total Blocks : 262144 Invalid Blocks : 0
Heartbeat CPU 2 instructions: 180000000 cycles: 212816042 heartbeat IPC: 0.798165 cumulative IPC: 0.845801 (Simulation time: 25 hr 15 min 57 sec) 
 Total Blocks : 262144 Invalid Blocks : 0
Heartbeat CPU 3 instructions: 180000000 cycles: 213566387 heartbeat IPC: 0.795018 cumulative IPC: 0.842829 (Simulation time: 25 hr 22 min 57 sec) 
 Total Blocks : 262144 Invalid Blocks : 0
Heartbeat CPU 4 instructions: 180000000 cycles: 214247724 heartbeat IPC: 0.792317 cumulative IPC: 0.840149 (Simulation time: 25 hr 29 min 22 sec) 
 Total Blocks : 262144 Invalid Blocks : 0
Heartbeat CPU 5 instructions: 180000000 cycles: 214882066 heartbeat IPC: 0.789694 cumulative IPC: 0.837669 (Simulation time: 25 hr 35 min 19 sec) 
 Total Blocks : 262144 Invalid Blocks : 0
Heartbeat CPU 6 instructions: 180000000 cycles: 215469215 heartbeat IPC: 0.787378 cumulative IPC: 0.835386 (Simulation time: 25 hr 40 min 49 sec) 
 Total Blocks : 262144 Invalid Blocks : 0
Heartbeat CPU 7 instructions: 180000000 cycles: 216041904 heartbeat IPC: 0.785253 cumulative IPC: 0.833172 (Simulation time: 25 hr 46 min 11 sec) 
 Total Blocks : 262144 Invalid Blocks : 0
Heartbeat CPU 0 instructions: 190000000 cycles: 220711495 heartbeat IPC: 1.01894 cumulative IPC: 0.860852 (Simulation time: 26 hr 29 min 30 sec) 
 Total Blocks : 262144 Invalid Blocks : 0
Heartbeat CPU 1 instructions: 190000000 cycles: 221792908 heartbeat IPC: 1.01723 cumulative IPC: 0.856655 (Simulation time: 26 hr 38 min 22 sec) 
 Total Blocks : 262144 Invalid Blocks : 0
Heartbeat CPU 2 instructions: 190000000 cycles: 222647691 heartbeat IPC: 1.01712 cumulative IPC: 0.853366 (Simulation time: 26 hr 44 min 50 sec) 
 Total Blocks : 262144 Invalid Blocks : 0
Heartbeat CPU 3 instructions: 190000000 cycles: 223389347 heartbeat IPC: 1.01802 cumulative IPC: 0.850533 (Simulation time: 26 hr 49 min 56 sec) 
 Total Blocks : 262144 Invalid Blocks : 0
Heartbeat CPU 4 instructions: 190000000 cycles: 224049313 heartbeat IPC: 1.02024 cumulative IPC: 0.848028 (Simulation time: 26 hr 53 min 59 sec) 
 Total Blocks : 262144 Invalid Blocks : 0
Heartbeat CPU 5 instructions: 190000000 cycles: 224663328 heartbeat IPC: 1.02236 cumulative IPC: 0.84571 (Simulation time: 26 hr 57 min 13 sec) 
 Total Blocks : 262144 Invalid Blocks : 0
Heartbeat CPU 6 instructions: 190000000 cycles: 225219915 heartbeat IPC: 1.02557 cumulative IPC: 0.84362 (Simulation time: 26 hr 59 min 47 sec) 
 Total Blocks : 262144 Invalid Blocks : 0
Heartbeat CPU 0 instructions: 200000002 cycles: 225640251 heartbeat IPC: 2.02891 cumulative IPC: 0.886367 (Simulation time: 27 hr 1 min 43 sec) 
 Total Blocks : 262144 Invalid Blocks : 0
Heartbeat CPU 7 instructions: 190000000 cycles: 225766257 heartbeat IPC: 1.02835 cumulative IPC: 0.841578 (Simulation time: 27 hr 2 min 17 sec) 
 Total Blocks : 262144 Invalid Blocks : 0
Heartbeat CPU 1 instructions: 200000002 cycles: 226733715 heartbeat IPC: 2.02396 cumulative IPC: 0.882092 (Simulation time: 27 hr 6 min 42 sec) 
 Total Blocks : 262144 Invalid Blocks : 0
Heartbeat CPU 2 instructions: 200000002 cycles: 227613893 heartbeat IPC: 2.01361 cumulative IPC: 0.878681 (Simulation time: 27 hr 10 min 44 sec) 
 Total Blocks : 262144 Invalid Blocks : 0
Heartbeat CPU 3 instructions: 200000002 cycles: 228391714 heartbeat IPC: 1.99905 cumulative IPC: 0.875688 (Simulation time: 27 hr 14 min 17 sec) 
 Total Blocks : 262144 Invalid Blocks : 0
Heartbeat CPU 4 instructions: 200000002 cycles: 229090484 heartbeat IPC: 1.98367 cumulative IPC: 0.873017 (Simulation time: 27 hr 17 min 29 sec) 
 Total Blocks : 262144 Invalid Blocks : 0
Heartbeat CPU 5 instructions: 200000002 cycles: 229741289 heartbeat IPC: 1.96929 cumulative IPC: 0.870544 (Simulation time: 27 hr 20 min 27 sec) 
 Total Blocks : 262144 Invalid Blocks : 0
Heartbeat CPU 6 instructions: 200000002 cycles: 230319694 heartbeat IPC: 1.96087 cumulative IPC: 0.868358 (Simulation time: 27 hr 23 min 6 sec) 
 Total Blocks : 262144 Invalid Blocks : 0
Heartbeat CPU 7 instructions: 200000002 cycles: 230878384 heartbeat IPC: 1.95613 cumulative IPC: 0.866257 (Simulation time: 27 hr 25 min 38 sec) 
 Total Blocks : 262144 Invalid Blocks : 0

Warmup complete CPU 0 instructions: 204431706 cycles: 230878384 (Simulation time: 27 hr 25 min 38 sec) 
Warmup complete CPU 1 instructions: 203377051 cycles: 230878384 (Simulation time: 27 hr 25 min 38 sec) 
Warmup complete CPU 2 instructions: 202606975 cycles: 230878384 (Simulation time: 27 hr 25 min 38 sec) 
Warmup complete CPU 3 instructions: 201963274 cycles: 230878384 (Simulation time: 27 hr 25 min 38 sec) 
Warmup complete CPU 4 instructions: 201398707 cycles: 230878384 (Simulation time: 27 hr 25 min 38 sec) 
Warmup complete CPU 5 instructions: 200887739 cycles: 230878384 (Simulation time: 27 hr 25 min 38 sec) 
Warmup complete CPU 6 instructions: 200436570 cycles: 230878384 (Simulation time: 27 hr 25 min 38 sec) 
Warmup complete CPU 7 instructions: 200000002 cycles: 230878384 (Simulation time: 27 hr 25 min 38 sec) 

Heartbeat CPU 0 instructions: 210000003 cycles: 483659470 heartbeat IPC: 0.0387568 cumulative IPC: 0.0220281 (Simulation time: 29 hr 17 min 23 sec) 
 Total Blocks : 262144 Invalid Blocks : 0
Heartbeat CPU 1 instructions: 210000003 cycles: 528176883 heartbeat IPC: 0.0331738 cumulative IPC: 0.0222771 (Simulation time: 29 hr 43 min 57 sec) 
 Total Blocks : 262144 Invalid Blocks : 0
Heartbeat CPU 2 instructions: 210000003 cycles: 562885813 heartbeat IPC: 0.0298265 cumulative IPC: 0.0222677 (Simulation time: 30 hr 7 min 32 sec) 
 Total Blocks : 262144 Invalid Blocks : 0
Heartbeat CPU 3 instructions: 210000003 cycles: 592403409 heartbeat IPC: 0.0274716 cumulative IPC: 0.0222301 (Simulation time: 30 hr 27 min 33 sec) 
 Total Blocks : 262144 Invalid Blocks : 0
Heartbeat CPU 4 instructions: 210000003 cycles: 617902461 heartbeat IPC: 0.0257194 cumulative IPC: 0.0222242 (Simulation time: 30 hr 44 min 50 sec) 
 Total Blocks : 262144 Invalid Blocks : 0
Heartbeat CPU 5 instructions: 210000003 cycles: 641710519 heartbeat IPC: 0.0242737 cumulative IPC: 0.02218 (Simulation time: 31 hr 0 min 57 sec) 
 Total Blocks : 262144 Invalid Blocks : 0
Heartbeat CPU 6 instructions: 210000003 cycles: 663143742 heartbeat IPC: 0.0231041 cumulative IPC: 0.022124 (Simulation time: 31 hr 15 min 29 sec) 
 Total Blocks : 262144 Invalid Blocks : 0
Heartbeat CPU 7 instructions: 210000003 cycles: 681700691 heartbeat IPC: 0.0221817 cumulative IPC: 0.0221817 (Simulation time: 31 hr 28 min 3 sec) 
 Total Blocks : 262144 Invalid Blocks : 0
Heartbeat CPU 0 instructions: 220000000 cycles: 928508231 heartbeat IPC: 0.0224795 cumulative IPC: 0.022316 (Simulation time: 34 hr 15 min 17 sec) 
 Total Blocks : 262144 Invalid Blocks : 0
Heartbeat CPU 1 instructions: 220000000 cycles: 974091507 heartbeat IPC: 0.0224258 cumulative IPC: 0.0223663 (Simulation time: 34 hr 46 min 9 sec) 
 Total Blocks : 262144 Invalid Blocks : 0
Heartbeat CPU 2 instructions: 220000000 cycles: 1008999416 heartbeat IPC: 0.0224158 cumulative IPC: 0.0223526 (Simulation time: 35 hr 9 min 48 sec) 
 Total Blocks : 262144 Invalid Blocks : 0
Heartbeat CPU 3 instructions: 220000000 cycles: 1037872221 heartbeat IPC: 0.0224483 cumulative IPC: 0.0223505 (Simulation time: 35 hr 29 min 21 sec) 
 Total Blocks : 262144 Invalid Blocks : 0
Heartbeat CPU 4 instructions: 220000000 cycles: 1063806804 heartbeat IPC: 0.0224263 cumulative IPC: 0.0223324 (Simulation time: 35 hr 46 min 55 sec) 
 Total Blocks : 262144 Invalid Blocks : 0
Heartbeat CPU 5 instructions: 220000000 cycles: 1087885792 heartbeat IPC: 0.0224127 cumulative IPC: 0.0223012 (Simulation time: 36 hr 3 min 12 sec) 
 Total Blocks : 262144 Invalid Blocks : 0
Heartbeat CPU 6 instructions: 220000000 cycles: 1109709496 heartbeat IPC: 0.0223931 cumulative IPC: 0.0222607 (Simulation time: 36 hr 17 min 58 sec) 
 Total Blocks : 262144 Invalid Blocks : 0
Heartbeat CPU 7 instructions: 220000000 cycles: 1128317435 heartbeat IPC: 0.0223906 cumulative IPC: 0.0222856 (Simulation time: 36 hr 30 min 33 sec) 
 Total Blocks : 262144 Invalid Blocks : 0
Heartbeat CPU 0 instructions: 230000000 cycles: 1377879713 heartbeat IPC: 0.0222533 cumulative IPC: 0.0222914 (Simulation time: 39 hr 19 min 17 sec) 
 Total Blocks : 262144 Invalid Blocks : 0
Heartbeat CPU 1 instructions: 230000000 cycles: 1423797583 heartbeat IPC: 0.0222367 cumulative IPC: 0.0223175 (Simulation time: 39 hr 50 min 18 sec) 
 Total Blocks : 262144 Invalid Blocks : 0
Heartbeat CPU 2 instructions: 230000000 cycles: 1459634199 heartbeat IPC: 0.0221909 cumulative IPC: 0.0222933 (Simulation time: 40 hr 14 min 35 sec) 
 Total Blocks : 262144 Invalid Blocks : 0
Heartbeat CPU 3 instructions: 230000000 cycles: 1486274529 heartbeat IPC: 0.0223014 cumulative IPC: 0.022333 (Simulation time: 40 hr 31 min 38 sec) 
 Total Blocks : 262144 Invalid Blocks : 0
Heartbeat CPU 4 instructions: 230000000 cycles: 1513758393 heartbeat IPC: 0.0222246 cumulative IPC: 0.0222946 (Simulation time: 40 hr 42 min 6 sec) 
 Total Blocks : 262144 Invalid Blocks : 0
Heartbeat CPU 5 instructions: 230000000 cycles: 1537022788 heartbeat IPC: 0.0222649 cumulative IPC: 0.0222887 (Simulation time: 40 hr 50 min 58 sec) 
 Total Blocks : 262144 Invalid Blocks : 0
Heartbeat CPU 6 instructions: 230000000 cycles: 1559071278 heartbeat IPC: 0.0222538 cumulative IPC: 0.0222584 (Simulation time: 40 hr 59 min 21 sec) 
 Total Blocks : 262144 Invalid Blocks : 0
Heartbeat CPU 7 instructions: 230000000 cycles: 1576655597 heartbeat IPC: 0.0223046 cumulative IPC: 0.0222919 (Simulation time: 41 hr 6 min 4 sec) 
 Total Blocks : 262144 Invalid Blocks : 0
Heartbeat CPU 0 instructions: 240000000 cycles: 1817706903 heartbeat IPC: 0.0227362 cumulative IPC: 0.0224147 (Simulation time: 42 hr 37 min 54 sec) 
 Total Blocks : 262144 Invalid Blocks : 0
Heartbeat CPU 1 instructions: 240000000 cycles: 1863619123 heartbeat IPC: 0.0227365 cumulative IPC: 0.0224304 (Simulation time: 42 hr 55 min 22 sec) 
 Total Blocks : 262144 Invalid Blocks : 0
Heartbeat CPU 2 instructions: 240000000 cycles: 1900272137 heartbeat IPC: 0.0226944 cumulative IPC: 0.0223992 (Simulation time: 43 hr 9 min 19 sec) 
 Total Blocks : 262144 Invalid Blocks : 0
Heartbeat CPU 3 instructions: 240000000 cycles: 1926558640 heartbeat IPC: 0.0227126 cumulative IPC: 0.0224315 (Simulation time: 43 hr 19 min 20 sec) 
 Total Blocks : 262144 Invalid Blocks : 0
Heartbeat CPU 4 instructions: 240000000 cycles: 1955281576 heartbeat IPC: 0.0226489 cumulative IPC: 0.0223853 (Simulation time: 43 hr 30 min 17 sec) 
 Total Blocks : 262144 Invalid Blocks : 0
Heartbeat CPU 5 instructions: 240000000 cycles: 1977714304 heartbeat IPC: 0.0226916 cumulative IPC: 0.0223903 (Simulation time: 43 hr 38 min 50 sec) 
 Total Blocks : 262144 Invalid Blocks : 0
Heartbeat CPU 6 instructions: 240000000 cycles: 1999197690 heartbeat IPC: 0.0227207 cumulative IPC: 0.0223735 (Simulation time: 43 hr 47 min 2 sec) 
 Total Blocks : 262144 Invalid Blocks : 0
Heartbeat CPU 7 instructions: 240000000 cycles: 2018075006 heartbeat IPC: 0.0226542 cumulative IPC: 0.0223814 (Simulation time: 43 hr 54 min 13 sec) 
 Total Blocks : 262144 Invalid Blocks : 0
Heartbeat CPU 0 instructions: 250000000 cycles: 2267551832 heartbeat IPC: 0.0222299 cumulative IPC: 0.0223739 (Simulation time: 45 hr 29 min 11 sec) 
 Total Blocks : 262144 Invalid Blocks : 0
Heartbeat CPU 1 instructions: 250000000 cycles: 2313234844 heartbeat IPC: 0.0222412 cumulative IPC: 0.0223895 (Simulation time: 45 hr 46 min 35 sec) 
 Total Blocks : 262144 Invalid Blocks : 0
Heartbeat CPU 2 instructions: 250000000 cycles: 2349585409 heartbeat IPC: 0.0222562 cumulative IPC: 0.0223688 (Simulation time: 46 hr 0 min 27 sec) 
 Total Blocks : 262144 Invalid Blocks : 0
Heartbeat CPU 3 instructions: 250000000 cycles: 2375229292 heartbeat IPC: 0.0222881 cumulative IPC: 0.0224015 (Simulation time: 46 hr 10 min 13 sec) 
 Total Blocks : 262144 Invalid Blocks : 0
Heartbeat CPU 4 instructions: 250000000 cycles: 2404769533 heartbeat IPC: 0.0222475 cumulative IPC: 0.0223568 (Simulation time: 46 hr 21 min 27 sec) 
 Total Blocks : 262144 Invalid Blocks : 0
Heartbeat CPU 5 instructions: 250000000 cycles: 2427039931 heartbeat IPC: 0.0222556 cumulative IPC: 0.0223628 (Simulation time: 46 hr 29 min 56 sec) 
 Total Blocks : 262144 Invalid Blocks : 0
Heartbeat CPU 6 instructions: 250000000 cycles: 2448728980 heartbeat IPC: 0.0222454 cumulative IPC: 0.0223475 (Simulation time: 46 hr 38 min 11 sec) 
 Total Blocks : 262144 Invalid Blocks : 0
Heartbeat CPU 7 instructions: 250000000 cycles: 2468027087 heartbeat IPC: 0.0222246 cumulative IPC: 0.0223499 (Simulation time: 46 hr 45 min 32 sec) 
 Total Blocks : 262144 Invalid Blocks : 0
Heartbeat CPU 0 instructions: 260000003 cycles: 2712880055 heartbeat IPC: 0.0224554 cumulative IPC: 0.0223885 (Simulation time: 48 hr 18 min 45 sec) 
 Total Blocks : 262144 Invalid Blocks : 0
Heartbeat CPU 1 instructions: 260000003 cycles: 2758668907 heartbeat IPC: 0.02245 cumulative IPC: 0.0224002 (Simulation time: 48 hr 36 min 10 sec) 
 Total Blocks : 262144 Invalid Blocks : 0
Heartbeat CPU 2 instructions: 260000003 cycles: 2794617302 heartbeat IPC: 0.0224703 cumulative IPC: 0.0223865 (Simulation time: 48 hr 49 min 51 sec) 
 Total Blocks : 262144 Invalid Blocks : 0
Heartbeat CPU 3 instructions: 260000003 cycles: 2820923477 heartbeat IPC: 0.0224369 cumulative IPC: 0.0224076 (Simulation time: 48 hr 59 min 53 sec) 
 Total Blocks : 262144 Invalid Blocks : 0
Heartbeat CPU 4 instructions: 260000003 cycles: 2851064413 heartbeat IPC: 0.0224067 cumulative IPC: 0.0223653 (Simulation time: 49 hr 11 min 20 sec) 
 Total Blocks : 262144 Invalid Blocks : 0
Heartbeat CPU 5 instructions: 260000003 cycles: 2872618032 heartbeat IPC: 0.0224428 cumulative IPC: 0.0223763 (Simulation time: 49 hr 19 min 32 sec) 
 Total Blocks : 262144 Invalid Blocks : 0
Heartbeat CPU 6 instructions: 260000003 cycles: 2893621047 heartbeat IPC: 0.0224774 cumulative IPC: 0.0223692 (Simulation time: 49 hr 27 min 31 sec) 
 Total Blocks : 262144 Invalid Blocks : 0
Heartbeat CPU 7 instructions: 260000003 cycles: 2913524761 heartbeat IPC: 0.0224468 cumulative IPC: 0.022366 (Simulation time: 49 hr 35 min 6 sec) 
 Total Blocks : 262144 Invalid Blocks : 0
Heartbeat CPU 0 instructions: 270000002 cycles: 3157759237 heartbeat IPC: 0.022478 cumulative IPC: 0.0224021 (Simulation time: 51 hr 8 min 11 sec) 
 Total Blocks : 262144 Invalid Blocks : 0
Heartbeat CPU 1 instructions: 270000002 cycles: 3203930021 heartbeat IPC: 0.0224587 cumulative IPC: 0.0224089 (Simulation time: 51 hr 25 min 47 sec) 
 Total Blocks : 262144 Invalid Blocks : 0
Heartbeat CPU 2 instructions: 270000002 cycles: 3238934408 heartbeat IPC: 0.0225064 cumulative IPC: 0.0224042 (Simulation time: 51 hr 39 min 7 sec) 
 Total Blocks : 262144 Invalid Blocks : 0
Heartbeat CPU 3 instructions: 270000002 cycles: 3265538632 heartbeat IPC: 0.0224914 cumulative IPC: 0.0224199 (Simulation time: 51 hr 49 min 15 sec) 
 Total Blocks : 262144 Invalid Blocks : 0
Heartbeat CPU 4 instructions: 270000002 cycles: 3296220394 heartbeat IPC: 0.022464 cumulative IPC: 0.0223797 (Simulation time: 52 hr 0 min 57 sec) 
 Total Blocks : 262144 Invalid Blocks : 0
Heartbeat CPU 5 instructions: 270000002 cycles: 3317194589 heartbeat IPC: 0.0224933 cumulative IPC: 0.0223931 (Simulation time: 52 hr 8 min 56 sec) 
 Total Blocks : 262144 Invalid Blocks : 0
Heartbeat CPU 6 instructions: 270000002 cycles: 3338590850 heartbeat IPC: 0.0224734 cumulative IPC: 0.0223841 (Simulation time: 52 hr 17 min 4 sec) 
 Total Blocks : 262144 Invalid Blocks : 0
Heartbeat CPU 7 instructions: 270000002 cycles: 3358094133 heartbeat IPC: 0.0224937 cumulative IPC: 0.0223841 (Simulation time: 52 hr 24 min 31 sec) 
 Total Blocks : 262144 Invalid Blocks : 0
Heartbeat CPU 0 instructions: 280000000 cycles: 3607281829 heartbeat IPC: 0.0222458 cumulative IPC: 0.0223813 (Simulation time: 53 hr 59 min 25 sec) 
 Total Blocks : 262144 Invalid Blocks : 0
Heartbeat CPU 1 instructions: 280000000 cycles: 3655560809 heartbeat IPC: 0.022142 cumulative IPC: 0.0223737 (Simulation time: 54 hr 17 min 47 sec) 
 Total Blocks : 262144 Invalid Blocks : 0
Heartbeat CPU 2 instructions: 280000000 cycles: 3690255381 heartbeat IPC: 0.0221572 cumulative IPC: 0.022372 (Simulation time: 54 hr 30 min 59 sec) 
 Total Blocks : 262144 Invalid Blocks : 0
Heartbeat CPU 3 instructions: 280000000 cycles: 3716258159 heartbeat IPC: 0.0221867 cumulative IPC: 0.0223897 (Simulation time: 54 hr 40 min 50 sec) 
 Total Blocks : 262144 Invalid Blocks : 0
Heartbeat CPU 4 instructions: 280000000 cycles: 3748138459 heartbeat IPC: 0.0221279 cumulative IPC: 0.0223473 (Simulation time: 54 hr 52 min 55 sec) 
 Total Blocks : 262144 Invalid Blocks : 0
Heartbeat CPU 5 instructions: 280000000 cycles: 3769679803 heartbeat IPC: 0.0221002 cumulative IPC: 0.0223557 (Simulation time: 55 hr 1 min 6 sec) 
 Total Blocks : 262144 Invalid Blocks : 0
Heartbeat CPU 6 instructions: 280000000 cycles: 3790318545 heartbeat IPC: 0.0221372 cumulative IPC: 0.0223528 (Simulation time: 55 hr 8 min 56 sec) 
 Total Blocks : 262144 Invalid Blocks : 0
Heartbeat CPU 7 instructions: 280000000 cycles: 3810623480 heartbeat IPC: 0.022098 cumulative IPC: 0.022348 (Simulation time: 55 hr 16 min 38 sec) 
 Total Blocks : 262144 Invalid Blocks : 0
Heartbeat CPU 0 instructions: 290000000 cycles: 4062377008 heartbeat IPC: 0.0219734 cumulative IPC: 0.0223329 (Simulation time: 56 hr 52 min 17 sec) 
 Total Blocks : 262144 Invalid Blocks : 0
Heartbeat CPU 1 instructions: 290000000 cycles: 4109890910 heartbeat IPC: 0.0220104 cumulative IPC: 0.0223312 (Simulation time: 57 hr 10 min 20 sec) 
 Total Blocks : 262144 Invalid Blocks : 0
Heartbeat CPU 2 instructions: 290000000 cycles: 4145075664 heartbeat IPC: 0.0219867 cumulative IPC: 0.0223272 (Simulation time: 57 hr 23 min 41 sec) 
 Total Blocks : 262144 Invalid Blocks : 0
Heartbeat CPU 3 instructions: 290000000 cycles: 4170520122 heartbeat IPC: 0.0220137 cumulative IPC: 0.0223464 (Simulation time: 57 hr 33 min 22 sec) 
 Total Blocks : 262144 Invalid Blocks : 0
Heartbeat CPU 4 instructions: 290000000 cycles: 4201265701 heartbeat IPC: 0.0220689 cumulative IPC: 0.0223155 (Simulation time: 57 hr 45 min 2 sec) 
 Total Blocks : 262144 Invalid Blocks : 0
Heartbeat CPU 5 instructions: 290000000 cycles: 4222918320 heartbeat IPC: 0.0220634 cumulative IPC: 0.0223225 (Simulation time: 57 hr 53 min 15 sec) 
 Total Blocks : 262144 Invalid Blocks : 0
Heartbeat CPU 6 instructions: 290000000 cycles: 4243066995 heartbeat IPC: 0.0220873 cumulative IPC: 0.0223228 (Simulation time: 58 hr 0 min 54 sec) 
 Total Blocks : 262144 Invalid Blocks : 0
Heartbeat CPU 7 instructions: 290000000 cycles: 4262535630 heartbeat IPC: 0.0221282 cumulative IPC: 0.0223233 (Simulation time: 58 hr 8 min 17 sec) 
 Total Blocks : 262144 Invalid Blocks : 0
Heartbeat CPU 0 instructions: 300000000 cycles: 4509345515 heartbeat IPC: 0.0223729 cumulative IPC: 0.022337 (Simulation time: 59 hr 41 min 49 sec) 
 Total Blocks : 262144 Invalid Blocks : 0
Heartbeat CPU 1 instructions: 300000000 cycles: 4555539717 heartbeat IPC: 0.0224392 cumulative IPC: 0.0223423 (Simulation time: 59 hr 59 min 17 sec) 
 Total Blocks : 262144 Invalid Blocks : 0
Heartbeat CPU 2 instructions: 300000000 cycles: 4591735070 heartbeat IPC: 0.0223884 cumulative IPC: 0.0223335 (Simulation time: 60 hr 12 min 58 sec) 
 Total Blocks : 262144 Invalid Blocks : 0
Heartbeat CPU 3 instructions: 300000000 cycles: 4616221882 heartbeat IPC: 0.0224365 cumulative IPC: 0.0223555 (Simulation time: 60 hr 22 min 13 sec) 
 Total Blocks : 262144 Invalid Blocks : 0
Heartbeat CPU 4 instructions: 300000000 cycles: 4647389799 heartbeat IPC: 0.0224153 cumulative IPC: 0.0223256 (Simulation time: 60 hr 33 min 59 sec) 
 Total Blocks : 262144 Invalid Blocks : 0
Heartbeat CPU 5 instructions: 300000000 cycles: 4670669860 heartbeat IPC: 0.0223338 cumulative IPC: 0.0223236 (Simulation time: 60 hr 42 min 45 sec) 
 Total Blocks : 262144 Invalid Blocks : 0
Heartbeat CPU 6 instructions: 300000000 cycles: 4688823635 heartbeat IPC: 0.0224338 cumulative IPC: 0.0223339 (Simulation time: 60 hr 49 min 36 sec) 
 Total Blocks : 262144 Invalid Blocks : 0
Heartbeat CPU 7 instructions: 300000000 cycles: 4710163403 heartbeat IPC: 0.02234 cumulative IPC: 0.022325 (Simulation time: 60 hr 57 min 38 sec) 
 Total Blocks : 262144 Invalid Blocks : 0
Heartbeat CPU 0 instructions: 310000003 cycles: 4955820915 heartbeat IPC: 0.0223977 cumulative IPC: 0.0223428 (Simulation time: 62 hr 30 min 12 sec) 
 Total Blocks : 262144 Invalid Blocks : 0
Heartbeat CPU 1 instructions: 310000003 cycles: 5000962307 heartbeat IPC: 0.0224506 cumulative IPC: 0.0223524 (Simulation time: 62 hr 47 min 12 sec) 
 Total Blocks : 262144 Invalid Blocks : 0
Heartbeat CPU 2 instructions: 310000003 cycles: 5037269587 heartbeat IPC: 0.022445 cumulative IPC: 0.0223438 (Simulation time: 63 hr 0 min 52 sec) 
 Total Blocks : 262144 Invalid Blocks : 0
Heartbeat CPU 3 instructions: 310000003 cycles: 5062098191 heartbeat IPC: 0.0224278 cumulative IPC: 0.0223622 (Simulation time: 63 hr 10 min 14 sec) 
 Total Blocks : 262144 Invalid Blocks : 0
Heartbeat CPU 4 instructions: 310000003 cycles: 5093661112 heartbeat IPC: 0.0224079 cumulative IPC: 0.0223332 (Simulation time: 63 hr 22 min 7 sec) 
 Total Blocks : 262144 Invalid Blocks : 0
Heartbeat CPU 5 instructions: 310000003 cycles: 5117128508 heartbeat IPC: 0.0223985 cumulative IPC: 0.0223305 (Simulation time: 63 hr 30 min 57 sec) 
 Total Blocks : 262144 Invalid Blocks : 0
Heartbeat CPU 6 instructions: 310000003 cycles: 5134737615 heartbeat IPC: 0.0224259 cumulative IPC: 0.0223423 (Simulation time: 63 hr 37 min 35 sec) 
 Total Blocks : 262144 Invalid Blocks : 0
Heartbeat CPU 7 instructions: 310000003 cycles: 5156458034 heartbeat IPC: 0.0224067 cumulative IPC: 0.0223324 (Simulation time: 63 hr 45 min 47 sec) 
 Total Blocks : 262144 Invalid Blocks : 0
Heartbeat CPU 0 instructions: 320000002 cycles: 5390106429 heartbeat IPC: 0.0230263 cumulative IPC: 0.0224003 (Simulation time: 65 hr 13 min 52 sec) 
 Total Blocks : 262144 Invalid Blocks : 0
Heartbeat CPU 1 instructions: 320000002 cycles: 5434961805 heartbeat IPC: 0.0230415 cumulative IPC: 0.0224099 (Simulation time: 65 hr 30 min 48 sec) 
 Total Blocks : 262144 Invalid Blocks : 0
Heartbeat CPU 2 instructions: 320000002 cycles: 5471861353 heartbeat IPC: 0.0230101 cumulative IPC: 0.022399 (Simulation time: 65 hr 44 min 42 sec) 
 Total Blocks : 262144 Invalid Blocks : 0
Heartbeat CPU 3 instructions: 320000002 cycles: 5495907922 heartbeat IPC: 0.0230516 cumulative IPC: 0.022419 (Simulation time: 65 hr 53 min 48 sec) 
 Total Blocks : 262144 Invalid Blocks : 0
Heartbeat CPU 4 instructions: 320000002 cycles: 5527545307 heartbeat IPC: 0.0230476 cumulative IPC: 0.0223917 (Simulation time: 66 hr 5 min 46 sec) 
 Total Blocks : 262144 Invalid Blocks : 0
Heartbeat CPU 5 instructions: 320000002 cycles: 5551350590 heartbeat IPC: 0.0230297 cumulative IPC: 0.0223875 (Simulation time: 66 hr 14 min 45 sec) 
 Total Blocks : 262144 Invalid Blocks : 0
Heartbeat CPU 6 instructions: 320000002 cycles: 5568115639 heartbeat IPC: 0.0230745 cumulative IPC: 0.0224017 (Simulation time: 66 hr 21 min 4 sec) 
 Total Blocks : 262144 Invalid Blocks : 0
Heartbeat CPU 7 instructions: 320000002 cycles: 5590395943 heartbeat IPC: 0.0230448 cumulative IPC: 0.0223901 (Simulation time: 66 hr 29 min 27 sec) 
 Total Blocks : 262144 Invalid Blocks : 0
Heartbeat CPU 0 instructions: 330000000 cycles: 5840508701 heartbeat IPC: 0.0222024 cumulative IPC: 0.0223844 (Simulation time: 68 hr 3 min 26 sec) 
 Total Blocks : 262144 Invalid Blocks : 0
Heartbeat CPU 1 instructions: 330000000 cycles: 5885503123 heartbeat IPC: 0.0221955 cumulative IPC: 0.0223928 (Simulation time: 68 hr 20 min 21 sec) 
 Total Blocks : 262144 Invalid Blocks : 0
Heartbeat CPU 2 instructions: 330000000 cycles: 5922033776 heartbeat IPC: 0.0222137 cumulative IPC: 0.0223844 (Simulation time: 68 hr 34 min 6 sec) 
 Total Blocks : 262144 Invalid Blocks : 0
Heartbeat CPU 3 instructions: 330000000 cycles: 5946240329 heartbeat IPC: 0.0222058 cumulative IPC: 0.0224022 (Simulation time: 68 hr 43 min 12 sec) 
 Total Blocks : 262144 Invalid Blocks : 0
Heartbeat CPU 4 instructions: 330000000 cycles: 5978563561 heartbeat IPC: 0.022172 cumulative IPC: 0.0223744 (Simulation time: 68 hr 55 min 21 sec) 
 Total Blocks : 262144 Invalid Blocks : 0
Heartbeat CPU 5 instructions: 330000000 cycles: 6002881168 heartbeat IPC: 0.0221469 cumulative IPC: 0.0223687 (Simulation time: 69 hr 4 min 30 sec) 
 Total Blocks : 262144 Invalid Blocks : 0
Heartbeat CPU 6 instructions: 330000000 cycles: 6019559087 heartbeat IPC: 0.0221512 cumulative IPC: 0.0223822 (Simulation time: 69 hr 10 min 45 sec) 
 Total Blocks : 262144 Invalid Blocks : 0
Heartbeat CPU 7 instructions: 330000000 cycles: 6042082144 heartbeat IPC: 0.0221393 cumulative IPC: 0.0223706 (Simulation time: 69 hr 19 min 14 sec) 
 Total Blocks : 262144 Invalid Blocks : 0
Heartbeat CPU 0 instructions: 340000003 cycles: 6293742558 heartbeat IPC: 0.0220637 cumulative IPC: 0.0223604 (Simulation time: 70 hr 53 min 56 sec) 
 Total Blocks : 262144 Invalid Blocks : 0
Heartbeat CPU 1 instructions: 340000003 cycles: 6336764851 heartbeat IPC: 0.0221601 cumulative IPC: 0.0223756 (Simulation time: 71 hr 10 min 6 sec) 
 Total Blocks : 262144 Invalid Blocks : 0
Heartbeat CPU 2 instructions: 340000003 cycles: 6372813577 heartbeat IPC: 0.0221838 cumulative IPC: 0.0223697 (Simulation time: 71 hr 23 min 39 sec) 
 Total Blocks : 262144 Invalid Blocks : 0
Heartbeat CPU 3 instructions: 340000003 cycles: 6398701735 heartbeat IPC: 0.0221013 cumulative IPC: 0.0223801 (Simulation time: 71 hr 33 min 24 sec) 
 Total Blocks : 262144 Invalid Blocks : 0
Heartbeat CPU 4 instructions: 340000003 cycles: 6430573268 heartbeat IPC: 0.0221234 cumulative IPC: 0.0223561 (Simulation time: 71 hr 45 min 24 sec) 
 Total Blocks : 262144 Invalid Blocks : 0
Heartbeat CPU 5 instructions: 340000003 cycles: 6455123216 heartbeat IPC: 0.0221121 cumulative IPC: 0.0223501 (Simulation time: 71 hr 54 min 37 sec) 
 Total Blocks : 262144 Invalid Blocks : 0
Heartbeat CPU 6 instructions: 340000003 cycles: 6471280541 heartbeat IPC: 0.0221375 cumulative IPC: 0.0223645 (Simulation time: 72 hr 0 min 42 sec) 
 Total Blocks : 262144 Invalid Blocks : 0
Heartbeat CPU 7 instructions: 340000003 cycles: 6493779852 heartbeat IPC: 0.0221387 cumulative IPC: 0.0223539 (Simulation time: 72 hr 9 min 9 sec) 
 Total Blocks : 262144 Invalid Blocks : 0
Heartbeat CPU 0 instructions: 350000003 cycles: 6739645032 heartbeat IPC: 0.0224264 cumulative IPC: 0.022365 (Simulation time: 73 hr 41 min 40 sec) 
 Total Blocks : 262144 Invalid Blocks : 0
Heartbeat CPU 1 instructions: 350000003 cycles: 6783089675 heartbeat IPC: 0.0224052 cumulative IPC: 0.0223776 (Simulation time: 73 hr 58 min 1 sec) 
 Total Blocks : 262144 Invalid Blocks : 0
Heartbeat CPU 2 instructions: 350000003 cycles: 6817877793 heartbeat IPC: 0.0224687 cumulative IPC: 0.0223764 (Simulation time: 74 hr 11 min 6 sec) 
 Total Blocks : 262144 Invalid Blocks : 0
Heartbeat CPU 3 instructions: 350000003 cycles: 6843920749 heartbeat IPC: 0.0224609 cumulative IPC: 0.0223856 (Simulation time: 74 hr 20 min 54 sec) 
 Total Blocks : 262144 Invalid Blocks : 0
Heartbeat CPU 4 instructions: 350000003 cycles: 6876381858 heartbeat IPC: 0.0224312 cumulative IPC: 0.0223612 (Simulation time: 74 hr 33 min 7 sec) 
 Total Blocks : 262144 Invalid Blocks : 0
Heartbeat CPU 5 instructions: 350000003 cycles: 6900946198 heartbeat IPC: 0.0224304 cumulative IPC: 0.0223554 (Simulation time: 74 hr 42 min 20 sec) 
 Total Blocks : 262144 Invalid Blocks : 0
Heartbeat CPU 6 instructions: 350000003 cycles: 6916552002 heartbeat IPC: 0.0224582 cumulative IPC: 0.0223707 (Simulation time: 74 hr 48 min 12 sec) 
 Total Blocks : 262144 Invalid Blocks : 0
Heartbeat CPU 7 instructions: 350000003 cycles: 6938865366 heartbeat IPC: 0.0224676 cumulative IPC: 0.0223614 (Simulation time: 74 hr 56 min 35 sec) 
 Total Blocks : 262144 Invalid Blocks : 0
Heartbeat CPU 0 instructions: 360000000 cycles: 7190065630 heartbeat IPC: 0.0222015 cumulative IPC: 0.0223544 (Simulation time: 76 hr 31 min 4 sec) 
 Total Blocks : 262144 Invalid Blocks : 0
Heartbeat CPU 1 instructions: 360000000 cycles: 7234286503 heartbeat IPC: 0.0221633 cumulative IPC: 0.0223638 (Simulation time: 76 hr 47 min 42 sec) 
 Total Blocks : 262144 Invalid Blocks : 0
Heartbeat CPU 2 instructions: 360000000 cycles: 7270386281 heartbeat IPC: 0.022099 cumulative IPC: 0.0223585 (Simulation time: 77 hr 1 min 17 sec) 
 Total Blocks : 262144 Invalid Blocks : 0
Heartbeat CPU 3 instructions: 360000000 cycles: 7296448861 heartbeat IPC: 0.0220981 cumulative IPC: 0.0223672 (Simulation time: 77 hr 11 min 5 sec) 
 Total Blocks : 262144 Invalid Blocks : 0
Heartbeat CPU 4 instructions: 360000000 cycles: 7329211330 heartbeat IPC: 0.0220834 cumulative IPC: 0.0223435 (Simulation time: 77 hr 23 min 22 sec) 
 Total Blocks : 262144 Invalid Blocks : 0
Heartbeat CPU 5 instructions: 360000000 cycles: 7353480259 heartbeat IPC: 0.0220978 cumulative IPC: 0.0223391 (Simulation time: 77 hr 32 min 29 sec) 
 Total Blocks : 262144 Invalid Blocks : 0
Heartbeat CPU 6 instructions: 360000000 cycles: 7369635674 heartbeat IPC: 0.022071 cumulative IPC: 0.0223517 (Simulation time: 77 hr 38 min 33 sec) 
 Total Blocks : 262144 Invalid Blocks : 0
Heartbeat CPU 7 instructions: 360000000 cycles: 7392242064 heartbeat IPC: 0.0220567 cumulative IPC: 0.0223421 (Simulation time: 77 hr 47 min 3 sec) 
 Total Blocks : 262144 Invalid Blocks : 0
Heartbeat CPU 0 instructions: 370000002 cycles: 7639546262 heartbeat IPC: 0.0222479 cumulative IPC: 0.0223479 (Simulation time: 79 hr 20 min 2 sec) 
 Total Blocks : 262144 Invalid Blocks : 0
Heartbeat CPU 1 instructions: 370000002 cycles: 7684154708 heartbeat IPC: 0.0222287 cumulative IPC: 0.0223557 (Simulation time: 79 hr 36 min 50 sec) 
 Total Blocks : 262144 Invalid Blocks : 0
Heartbeat CPU 2 instructions: 370000002 cycles: 7718702763 heartbeat IPC: 0.0223057 cumulative IPC: 0.0223554 (Simulation time: 79 hr 49 min 50 sec) 
 Total Blocks : 262144 Invalid Blocks : 0
Heartbeat CPU 3 instructions: 370000002 cycles: 7744747978 heartbeat IPC: 0.0223065 cumulative IPC: 0.0223635 (Simulation time: 79 hr 59 min 38 sec) 
 Total Blocks : 262144 Invalid Blocks : 0
Heartbeat CPU 4 instructions: 370000002 cycles: 7777174504 heartbeat IPC: 0.0223233 cumulative IPC: 0.0223423 (Simulation time: 80 hr 11 min 49 sec) 
 Total Blocks : 262144 Invalid Blocks : 0
Heartbeat CPU 5 instructions: 370000002 cycles: 7801847348 heartbeat IPC: 0.0223032 cumulative IPC: 0.0223369 (Simulation time: 80 hr 21 min 5 sec) 
 Total Blocks : 262144 Invalid Blocks : 0
Heartbeat CPU 6 instructions: 370000002 cycles: 7818311493 heartbeat IPC: 0.0222878 cumulative IPC: 0.0223479 (Simulation time: 80 hr 27 min 16 sec) 
 Total Blocks : 262144 Invalid Blocks : 0
Heartbeat CPU 0 instructions: 380000000 cycles: 7832228779 heartbeat IPC: 0.0518988 cumulative IPC: 0.023097 (Simulation time: 80 hr 33 min 5 sec) 
 Total Blocks : 262144 Invalid Blocks : 0
Heartbeat CPU 7 instructions: 370000002 cycles: 7842891344 heartbeat IPC: 0.0221902 cumulative IPC: 0.0223331 (Simulation time: 80 hr 37 min 36 sec) 
 Total Blocks : 262144 Invalid Blocks : 0
Heartbeat CPU 1 instructions: 380000000 cycles: 7879518393 heartbeat IPC: 0.0511866 cumulative IPC: 0.0230921 (Simulation time: 80 hr 51 min 56 sec) 
 Total Blocks : 262144 Invalid Blocks : 0
Heartbeat CPU 2 instructions: 380000000 cycles: 7916072878 heartbeat IPC: 0.0506662 cumulative IPC: 0.0230824 (Simulation time: 81 hr 6 min 44 sec) 
 Total Blocks : 262144 Invalid Blocks : 0
Heartbeat CPU 3 instructions: 380000000 cycles: 7945570980 heartbeat IPC: 0.0497951 cumulative IPC: 0.0230776 (Simulation time: 81 hr 18 min 55 sec) 
 Total Blocks : 262144 Invalid Blocks : 0
Heartbeat CPU 4 instructions: 380000000 cycles: 7979090972 heartbeat IPC: 0.0495254 cumulative IPC: 0.0230506 (Simulation time: 81 hr 32 min 34 sec) 
 Total Blocks : 262144 Invalid Blocks : 0
Heartbeat CPU 5 instructions: 380000000 cycles: 8006152907 heartbeat IPC: 0.0489463 cumulative IPC: 0.0230361 (Simulation time: 81 hr 43 min 48 sec) 
 Total Blocks : 262144 Invalid Blocks : 0
Heartbeat CPU 6 instructions: 380000000 cycles: 8024577436 heartbeat IPC: 0.0484811 cumulative IPC: 0.0230396 (Simulation time: 81 hr 51 min 49 sec) 
 Total Blocks : 262144 Invalid Blocks : 0
Heartbeat CPU 7 instructions: 380000000 cycles: 8048882944 heartbeat IPC: 0.0485457 cumulative IPC: 0.0230238 (Simulation time: 82 hr 2 min 1 sec) 
 Total Blocks : 262144 Invalid Blocks : 0
Heartbeat CPU 0 instructions: 390000000 cycles: 8056663483 heartbeat IPC: 0.0445564 cumulative IPC: 0.0237124 (Simulation time: 82 hr 5 min 25 sec) 
 Total Blocks : 262144 Invalid Blocks : 0
Heartbeat CPU 1 instructions: 390000000 cycles: 8102975310 heartbeat IPC: 0.0447514 cumulative IPC: 0.0237069 (Simulation time: 82 hr 22 min 49 sec) 
 Total Blocks : 262144 Invalid Blocks : 0
Heartbeat CPU 2 instructions: 390000000 cycles: 8137084369 heartbeat IPC: 0.0452465 cumulative IPC: 0.023702 (Simulation time: 82 hr 35 min 38 sec) 
 Total Blocks : 262144 Invalid Blocks : 0
Heartbeat CPU 3 instructions: 390000000 cycles: 8164225367 heartbeat IPC: 0.0457343 cumulative IPC: 0.0237021 (Simulation time: 82 hr 45 min 50 sec) 
 Total Blocks : 262144 Invalid Blocks : 0
Heartbeat CPU 4 instructions: 390000000 cycles: 8196309139 heartbeat IPC: 0.0460367 cumulative IPC: 0.0236775 (Simulation time: 82 hr 57 min 53 sec) 
 Total Blocks : 262144 Invalid Blocks : 0
Heartbeat CPU 5 instructions: 390000000 cycles: 8221035657 heartbeat IPC: 0.046537 cumulative IPC: 0.0236682 (Simulation time: 83 hr 7 min 10 sec) 
 Total Blocks : 262144 Invalid Blocks : 0
Heartbeat CPU 6 instructions: 390000000 cycles: 8237527761 heartbeat IPC: 0.0469593 cumulative IPC: 0.0236758 (Simulation time: 83 hr 13 min 22 sec) 
 Total Blocks : 262144 Invalid Blocks : 0
Heartbeat CPU 7 instructions: 390000000 cycles: 8259260901 heartbeat IPC: 0.0475335 cumulative IPC: 0.023666 (Simulation time: 83 hr 21 min 32 sec) 
 Total Blocks : 262144 Invalid Blocks : 0
Heartbeat CPU 0 instructions: 400000000 cycles: 8507803999 heartbeat IPC: 0.022166 cumulative IPC: 0.0236281 (Simulation time: 84 hr 54 min 57 sec) 
 Total Blocks : 262144 Invalid Blocks : 0
Heartbeat CPU 1 instructions: 400000000 cycles: 8553404598 heartbeat IPC: 0.022201 cumulative IPC: 0.0236254 (Simulation time: 85 hr 12 min 5 sec) 
 Total Blocks : 262144 Invalid Blocks : 0
Heartbeat CPU 2 instructions: 400000000 cycles: 8587121245 heartbeat IPC: 0.0222204 cumulative IPC: 0.0236222 (Simulation time: 85 hr 24 min 45 sec) 
 Total Blocks : 262144 Invalid Blocks : 0
Heartbeat CPU 3 instructions: 400000000 cycles: 8614077450 heartbeat IPC: 0.0222295 cumulative IPC: 0.023623 (Simulation time: 85 hr 34 min 53 sec) 
 Total Blocks : 262144 Invalid Blocks : 0
Heartbeat CPU 4 instructions: 400000000 cycles: 8645747422 heartbeat IPC: 0.02225 cumulative IPC: 0.0236012 (Simulation time: 85 hr 46 min 47 sec) 
 Total Blocks : 262144 Invalid Blocks : 0
Heartbeat CPU 5 instructions: 400000000 cycles: 8671603149 heartbeat IPC: 0.0221942 cumulative IPC: 0.0235895 (Simulation time: 85 hr 56 min 30 sec) 
 Total Blocks : 262144 Invalid Blocks : 0
Heartbeat CPU 6 instructions: 400000000 cycles: 8687507092 heartbeat IPC: 0.0222232 cumulative IPC: 0.0235985 (Simulation time: 86 hr 2 min 28 sec) 
 Total Blocks : 262144 Invalid Blocks : 0
Finished CPU 3 instructions: 200000000 cycles: 8469350552 cumulative IPC: 0.0236146 (Simulation time: 86 hr 7 min 15 sec) 
Finished CPU 2 instructions: 200000003 cycles: 8471241624 cumulative IPC: 0.0236093 (Simulation time: 86 hr 7 min 57 sec) 
Finished CPU 1 instructions: 200000001 cycles: 8471759656 cumulative IPC: 0.0236078 (Simulation time: 86 hr 8 min 9 sec) 
Finished CPU 0 instructions: 200000001 cycles: 8473909892 cumulative IPC: 0.0236019 (Simulation time: 86 hr 8 min 58 sec) 
Finished CPU 4 instructions: 200000001 cycles: 8475604913 cumulative IPC: 0.0235971 (Simulation time: 86 hr 9 min 36 sec) 
Finished CPU 6 instructions: 200000003 cycles: 8476323273 cumulative IPC: 0.0235951 (Simulation time: 86 hr 9 min 52 sec) 
Heartbeat CPU 7 instructions: 400000000 cycles: 8709344957 heartbeat IPC: 0.0222181 cumulative IPC: 0.0235892 (Simulation time: 86 hr 10 min 40 sec) 
 Total Blocks : 262144 Invalid Blocks : 0
Finished CPU 7 instructions: 200000003 cycles: 8478466827 cumulative IPC: 0.0235892 (Simulation time: 86 hr 10 min 40 sec) 
Finished CPU 5 instructions: 200000000 cycles: 8481031250 cumulative IPC: 0.023582 (Simulation time: 86 hr 11 min 38 sec) 

CPU 0 Branch Prediction Accuracy: 96.4333% MPKI: 6.46033 Average ROB Occupancy at Mispredict: 147.919

CPU 1 Branch Prediction Accuracy: 96.4338% MPKI: 6.49311 Average ROB Occupancy at Mispredict: 147.896

CPU 2 Branch Prediction Accuracy: 96.4364% MPKI: 6.51327 Average ROB Occupancy at Mispredict: 147.913

CPU 3 Branch Prediction Accuracy: 96.4345% MPKI: 6.53728 Average ROB Occupancy at Mispredict: 147.917

CPU 4 Branch Prediction Accuracy: 96.4373% MPKI: 6.55062 Average ROB Occupancy at Mispredict: 147.906

CPU 5 Branch Prediction Accuracy: 96.4375% MPKI: 6.56669 Average ROB Occupancy at Mispredict: 147.906

CPU 6 Branch Prediction Accuracy: 96.432% MPKI: 6.59134 Average ROB Occupancy at Mispredict: 147.902

CPU 7 Branch Prediction Accuracy: 96.431% MPKI: 6.60733 Average ROB Occupancy at Mispredict: 147.901

ChampSim completed all CPUs

Total Simulation Statistics (not including warmup)

CPU 0 cumulative IPC: 0.0236004 instructions: 200155561 cycles: 8481031250
ITLB TOTAL     ACCESS: 34324746  HIT: 34324746  MISS:     0  HIT %:   100  MISS %:     0  AVERAGE MISS PENALTY: 0
ITLB LOAD      ACCESS: 34324746  HIT: 34324746  MISS:     0  HIT %:   100  MISS %:     0  AVERAGE MISS PENALTY: 0
ITLB RFO       ACCESS:     0  HIT:     0  MISS:     0  HIT %:     0  MISS %:     0  AVERAGE MISS PENALTY: 0
ITLB PREFETCH  ACCESS:     0  HIT:     0  MISS:     0  HIT %:     0  MISS %:     0  AVERAGE MISS PENALTY: 0
ITLB WRITEBACK ACCESS:     0  HIT:     0  MISS:     0  HIT %:     0  MISS %:     0  AVERAGE MISS PENALTY: 0

DTLB TOTAL     ACCESS: 78275000  HIT: 55324104  MISS: 22950896  HIT %: 70.6791  MISS %: 29.3209  AVERAGE MISS PENALTY: 9.18917
DTLB LOAD      ACCESS: 75579350  HIT: 52633461  MISS: 22945889  HIT %: 69.64  MISS %: 30.36  AVERAGE MISS PENALTY: 9.18411
DTLB RFO       ACCESS: 2695650  HIT: 2690643  MISS:  5007  HIT %: 99.8143  MISS %: 0.185744  AVERAGE MISS PENALTY: 32.3761
DTLB PREFETCH  ACCESS:     0  HIT:     0  MISS:     0  HIT %:     0  MISS %:     0  AVERAGE MISS PENALTY: 0
DTLB WRITEBACK ACCESS:     0  HIT:     0  MISS:     0  HIT %:     0  MISS %:     0  AVERAGE MISS PENALTY: 0

STLB TOTAL     ACCESS: 22950896  HIT: 22910069  MISS: 40827  HIT %: 99.8221  MISS %: 0.177888  AVERAGE MISS PENALTY: 100
STLB LOAD      ACCESS: 22945889  HIT: 22905787  MISS: 40102  HIT %: 99.8252  MISS %: 0.174768  AVERAGE MISS PENALTY: 100
STLB RFO       ACCESS:  5007  HIT:  4282  MISS:   725  HIT %: 85.5203  MISS %: 14.4797  AVERAGE MISS PENALTY: 100
STLB PREFETCH  ACCESS:     0  HIT:     0  MISS:     0  HIT %:     0  MISS %:     0  AVERAGE MISS PENALTY: 0
STLB WRITEBACK ACCESS:     0  HIT:     0  MISS:     0  HIT %:     0  MISS %:     0  AVERAGE MISS PENALTY: 0

L1D TOTAL     ACCESS: 197942835  HIT: 42027345  MISS: 155915490  HIT %: 21.2321  MISS %: 78.7679  AVERAGE MISS PENALTY: 2.79236e+07
L1D LOAD      ACCESS: 66805919  HIT: 34480577  MISS: 32325342  HIT %: 51.6131  MISS %: 48.3869  AVERAGE MISS PENALTY: 1.34683e+08
L1D RFO       ACCESS: 2447046  HIT: 2381487  MISS: 65559  HIT %: 97.3209  MISS %: 2.67911  AVERAGE MISS PENALTY: 449.281
L1D PREFETCH  ACCESS: 128689870  HIT: 5165281  MISS: 123524589  HIT %: 4.01374  MISS %: 95.9863  AVERAGE MISS PENALTY: 270.48
L1D WRITEBACK ACCESS:     0  HIT:     0  MISS:     0  HIT %:     0  MISS %:     0  AVERAGE MISS PENALTY: 0

L1I TOTAL     ACCESS: 36068906  HIT: 36068891  MISS:    15  HIT %:   100  MISS %: 4.15871e-05  AVERAGE MISS PENALTY: 352.333
L1I LOAD      ACCESS: 36068906  HIT: 36068891  MISS:    15  HIT %:   100  MISS %: 4.15871e-05  AVERAGE MISS PENALTY: 352.333
L1I RFO       ACCESS:     0  HIT:     0  MISS:     0  HIT %:     0  MISS %:     0  AVERAGE MISS PENALTY: 0
L1I PREFETCH  ACCESS:     0  HIT:     0  MISS:     0  HIT %:     0  MISS %:     0  AVERAGE MISS PENALTY: 0
L1I WRITEBACK ACCESS:     0  HIT:     0  MISS:     0  HIT %:     0  MISS %:     0  AVERAGE MISS PENALTY: 0

L2C TOTAL     ACCESS: 230807577  HIT: 8259447  MISS: 222548130  HIT %: 3.5785  MISS %: 96.4215  AVERAGE MISS PENALTY: 2.31573e+07
L2C LOAD      ACCESS: 32290548  HIT: 670386  MISS: 31620162  HIT %: 2.07611  MISS %: 97.9239  AVERAGE MISS PENALTY: 1.62983e+08
L2C RFO       ACCESS: 65559  HIT:    55  MISS: 65504  HIT %: 0.0838939  MISS %: 99.9161  AVERAGE MISS PENALTY: 434.345
L2C PREFETCH  ACCESS: 198250573  HIT: 7388280  MISS: 190862293  HIT %: 3.72674  MISS %: 96.2733  AVERAGE MISS PENALTY: 245.43
L2C WRITEBACK ACCESS: 200897  HIT: 200726  MISS:   171  HIT %: 99.9149  MISS %: 0.0851182  AVERAGE MISS PENALTY: 0


LLC0 TOTAL     ACCESS: 28592077  HIT: 14898629  MISS: 13693448  HIT %: 52.1075  MISS %: 47.8925  AVERAGE MISS PENALTY: 459.022
LLC0 LOAD      ACCESS: 3984753  HIT: 2163499  MISS: 1821254  HIT %: 54.2944  MISS %: 45.7056  AVERAGE MISS PENALTY: 445.445
LLC0 RFO       ACCESS:  8188  HIT:   608  MISS:  7580  HIT %: 7.4255  MISS %: 92.5745  AVERAGE MISS PENALTY: 404.999
LLC0 PREFETCH  ACCESS: 24582139  HIT: 12726479  MISS: 11855660  HIT %: 51.7712  MISS %: 48.2288  AVERAGE MISS PENALTY: 461.489
LLC0 WRITEBACK ACCESS: 16997  HIT:  8043  MISS:  8954  HIT %: 47.3201  MISS %: 52.6799  AVERAGE MISS PENALTY: 0

LLC1 TOTAL     ACCESS: 28945857  HIT: 14991645  MISS: 13954212  HIT %: 51.792  MISS %: 48.208  AVERAGE MISS PENALTY: 454.63
LLC1 LOAD      ACCESS: 3779099  HIT: 2020707  MISS: 1758392  HIT %: 53.4706  MISS %: 46.5294  AVERAGE MISS PENALTY: 442.074
LLC1 RFO       ACCESS:  8190  HIT:   567  MISS:  7623  HIT %: 6.92308  MISS %: 93.0769  AVERAGE MISS PENALTY: 410.084
LLC1 PREFETCH  ACCESS: 25141571  HIT: 12962344  MISS: 12179227  HIT %: 51.5574  MISS %: 48.4426  AVERAGE MISS PENALTY: 456.806
LLC1 WRITEBACK ACCESS: 16997  HIT:  8027  MISS:  8970  HIT %: 47.226  MISS %: 52.774  AVERAGE MISS PENALTY: 0

LLC2 TOTAL     ACCESS: 28787172  HIT: 14952695  MISS: 13834477  HIT %: 51.9422  MISS %: 48.0578  AVERAGE MISS PENALTY: 448.282
LLC2 LOAD      ACCESS: 3843240  HIT: 2063197  MISS: 1780043  HIT %: 53.6838  MISS %: 46.3162  AVERAGE MISS PENALTY: 445.115
LLC2 RFO       ACCESS:  8188  HIT:   563  MISS:  7625  HIT %: 6.87592  MISS %: 93.1241  AVERAGE MISS PENALTY: 493.115
LLC2 PREFETCH  ACCESS: 24918748  HIT: 12880899  MISS: 12037849  HIT %: 51.6916  MISS %: 48.3084  AVERAGE MISS PENALTY: 449.055
LLC2 WRITEBACK ACCESS: 16996  HIT:  8036  MISS:  8960  HIT %: 47.2817  MISS %: 52.7183  AVERAGE MISS PENALTY: 0

LLC3 TOTAL     ACCESS: 27992358  HIT: 14566136  MISS: 13426222  HIT %: 52.0361  MISS %: 47.9639  AVERAGE MISS PENALTY: 444.363
LLC3 LOAD      ACCESS: 3927414  HIT: 2164746  MISS: 1762668  HIT %: 55.1189  MISS %: 44.8811  AVERAGE MISS PENALTY: 440.717
LLC3 RFO       ACCESS:  8186  HIT:   629  MISS:  7557  HIT %: 7.68385  MISS %: 92.3161  AVERAGE MISS PENALTY: 477.892
LLC3 PREFETCH  ACCESS: 24039761  HIT: 12392735  MISS: 11647026  HIT %: 51.551  MISS %: 48.449  AVERAGE MISS PENALTY: 445.235
LLC3 WRITEBACK ACCESS: 16997  HIT:  8026  MISS:  8971  HIT %: 47.2201  MISS %: 52.7799  AVERAGE MISS PENALTY: 0

LLC4 TOTAL     ACCESS: 27584361  HIT: 14369674  MISS: 13214687  HIT %: 52.0936  MISS %: 47.9064  AVERAGE MISS PENALTY: 413.528
LLC4 LOAD      ACCESS: 3770182  HIT: 2037204  MISS: 1732978  HIT %: 54.0346  MISS %: 45.9654  AVERAGE MISS PENALTY: 398.092
LLC4 RFO       ACCESS:  8188  HIT:   591  MISS:  7597  HIT %: 7.21788  MISS %: 92.7821  AVERAGE MISS PENALTY: 399.124
LLC4 PREFETCH  ACCESS: 23788998  HIT: 12323852  MISS: 11465146  HIT %: 51.8048  MISS %: 48.1952  AVERAGE MISS PENALTY: 416.194
LLC4 WRITEBACK ACCESS: 16993  HIT:  8027  MISS:  8966  HIT %: 47.2371  MISS %: 52.7629  AVERAGE MISS PENALTY: 0

LLC5 TOTAL     ACCESS: 27310172  HIT: 14340974  MISS: 12969198  HIT %: 52.5115  MISS %: 47.4885  AVERAGE MISS PENALTY: 418.22
LLC5 LOAD      ACCESS: 3731261  HIT: 2013915  MISS: 1717346  HIT %: 53.9741  MISS %: 46.0259  AVERAGE MISS PENALTY: 383.727
LLC5 RFO       ACCESS:  8187  HIT:   626  MISS:  7561  HIT %: 7.64627  MISS %: 92.3537  AVERAGE MISS PENALTY: 388.888
LLC5 PREFETCH  ACCESS: 23553732  HIT: 12318396  MISS: 11235336  HIT %: 52.2991  MISS %: 47.7009  AVERAGE MISS PENALTY: 423.845
LLC5 WRITEBACK ACCESS: 16992  HIT:  8037  MISS:  8955  HIT %: 47.2987  MISS %: 52.7013  AVERAGE MISS PENALTY: 0

LLC6 TOTAL     ACCESS: 26975934  HIT: 14297482  MISS: 12678452  HIT %: 53.0009  MISS %: 46.9991  AVERAGE MISS PENALTY: 406.153
LLC6 LOAD      ACCESS: 3836253  HIT: 2084269  MISS: 1751984  HIT %: 54.3309  MISS %: 45.6691  AVERAGE MISS PENALTY: 395.632
LLC6 RFO       ACCESS:  8189  HIT:   646  MISS:  7543  HIT %: 7.88863  MISS %: 92.1114  AVERAGE MISS PENALTY: 427.745
LLC6 PREFETCH  ACCESS: 23114494  HIT: 12204518  MISS: 10909976  HIT %: 52.8003  MISS %: 47.1997  AVERAGE MISS PENALTY: 408.161
LLC6 WRITEBACK ACCESS: 16998  HIT:  8049  MISS:  8949  HIT %: 47.3526  MISS %: 52.6474  AVERAGE MISS PENALTY: 0

LLC7 TOTAL     ACCESS: 26495995  HIT: 14225167  MISS: 12270828  HIT %: 53.688  MISS %: 46.312  AVERAGE MISS PENALTY: 394.351
LLC7 LOAD      ACCESS: 3781643  HIT: 2057852  MISS: 1723791  HIT %: 54.4169  MISS %: 45.5831  AVERAGE MISS PENALTY: 381.146
LLC7 RFO       ACCESS:  8188  HIT:   618  MISS:  7570  HIT %: 7.54763  MISS %: 92.4524  AVERAGE MISS PENALTY: 410.467
LLC7 PREFETCH  ACCESS: 22689167  HIT: 12158608  MISS: 10530559  HIT %: 53.5877  MISS %: 46.4123  AVERAGE MISS PENALTY: 396.834
LLC7 WRITEBACK ACCESS: 16997  HIT:  8089  MISS:  8908  HIT %: 47.5908  MISS %: 52.4092  AVERAGE MISS PENALTY: 0

Total Rob stall cycles : 	8442236363
Total Load Rob Stall cycles : 	8302584899
Average Rob Stall cycles : 	 197
Average Load Rob Stall cycles : 	 235

CPU 1 cumulative IPC: 0.0236068 instructions: 200209813 cycles: 8481031250
ITLB TOTAL     ACCESS: 34335811  HIT: 34335811  MISS:     0  HIT %:   100  MISS %:     0  AVERAGE MISS PENALTY: 0
ITLB LOAD      ACCESS: 34335811  HIT: 34335811  MISS:     0  HIT %:   100  MISS %:     0  AVERAGE MISS PENALTY: 0
ITLB RFO       ACCESS:     0  HIT:     0  MISS:     0  HIT %:     0  MISS %:     0  AVERAGE MISS PENALTY: 0
ITLB PREFETCH  ACCESS:     0  HIT:     0  MISS:     0  HIT %:     0  MISS %:     0  AVERAGE MISS PENALTY: 0
ITLB WRITEBACK ACCESS:     0  HIT:     0  MISS:     0  HIT %:     0  MISS %:     0  AVERAGE MISS PENALTY: 0

DTLB TOTAL     ACCESS: 78296699  HIT: 55350364  MISS: 22946335  HIT %: 70.6931  MISS %: 29.3069  AVERAGE MISS PENALTY: 9.18931
DTLB LOAD      ACCESS: 75600620  HIT: 52659292  MISS: 22941328  HIT %: 69.6546  MISS %: 30.3454  AVERAGE MISS PENALTY: 9.18417
DTLB RFO       ACCESS: 2696079  HIT: 2691072  MISS:  5007  HIT %: 99.8143  MISS %: 0.185714  AVERAGE MISS PENALTY: 32.7691
DTLB PREFETCH  ACCESS:     0  HIT:     0  MISS:     0  HIT %:     0  MISS %:     0  AVERAGE MISS PENALTY: 0
DTLB WRITEBACK ACCESS:     0  HIT:     0  MISS:     0  HIT %:     0  MISS %:     0  AVERAGE MISS PENALTY: 0

STLB TOTAL     ACCESS: 22946335  HIT: 22905504  MISS: 40831  HIT %: 99.8221  MISS %: 0.177941  AVERAGE MISS PENALTY: 100
STLB LOAD      ACCESS: 22941328  HIT: 22901218  MISS: 40110  HIT %: 99.8252  MISS %: 0.174837  AVERAGE MISS PENALTY: 100
STLB RFO       ACCESS:  5007  HIT:  4286  MISS:   721  HIT %: 85.6002  MISS %: 14.3998  AVERAGE MISS PENALTY: 100
STLB PREFETCH  ACCESS:     0  HIT:     0  MISS:     0  HIT %:     0  MISS %:     0  AVERAGE MISS PENALTY: 0
STLB WRITEBACK ACCESS:     0  HIT:     0  MISS:     0  HIT %:     0  MISS %:     0  AVERAGE MISS PENALTY: 0

L1D TOTAL     ACCESS: 197964713  HIT: 42061433  MISS: 155903280  HIT %: 21.2469  MISS %: 78.7531  AVERAGE MISS PENALTY: 2.78e+07
L1D LOAD      ACCESS: 66824449  HIT: 34499935  MISS: 32324514  HIT %: 51.6277  MISS %: 48.3723  AVERAGE MISS PENALTY: 1.3408e+08
L1D RFO       ACCESS: 2447777  HIT: 2382217  MISS: 65560  HIT %: 97.3217  MISS %: 2.67835  AVERAGE MISS PENALTY: 120502
L1D PREFETCH  ACCESS: 128692487  HIT: 5179281  MISS: 123513206  HIT %: 4.02454  MISS %: 95.9755  AVERAGE MISS PENALTY: 266.788
L1D WRITEBACK ACCESS:     0  HIT:     0  MISS:     0  HIT %:     0  MISS %:     0  AVERAGE MISS PENALTY: 0

L1I TOTAL     ACCESS: 36080104  HIT: 36080089  MISS:    15  HIT %:   100  MISS %: 4.15742e-05  AVERAGE MISS PENALTY: 328.067
L1I LOAD      ACCESS: 36080104  HIT: 36080089  MISS:    15  HIT %:   100  MISS %: 4.15742e-05  AVERAGE MISS PENALTY: 328.067
L1I RFO       ACCESS:     0  HIT:     0  MISS:     0  HIT %:     0  MISS %:     0  AVERAGE MISS PENALTY: 0
L1I PREFETCH  ACCESS:     0  HIT:     0  MISS:     0  HIT %:     0  MISS %:     0  AVERAGE MISS PENALTY: 0
L1I WRITEBACK ACCESS:     0  HIT:     0  MISS:     0  HIT %:     0  MISS %:     0  AVERAGE MISS PENALTY: 0

L2C TOTAL     ACCESS: 230780673  HIT: 8269174  MISS: 222511499  HIT %: 3.58313  MISS %: 96.4169  AVERAGE MISS PENALTY: 2.30231e+07
L2C LOAD      ACCESS: 32289196  HIT: 671550  MISS: 31617646  HIT %: 2.0798  MISS %: 97.9202  AVERAGE MISS PENALTY: 1.62025e+08
L2C RFO       ACCESS: 65559  HIT:    55  MISS: 65504  HIT %: 0.0838939  MISS %: 99.9161  AVERAGE MISS PENALTY: 120589
L2C PREFETCH  ACCESS: 198225010  HIT: 7396830  MISS: 190828180  HIT %: 3.73153  MISS %: 96.2685  AVERAGE MISS PENALTY: 244.279
L2C WRITEBACK ACCESS: 200908  HIT: 200739  MISS:   169  HIT %: 99.9159  MISS %: 0.0841181  AVERAGE MISS PENALTY: 0


LLC0 TOTAL     ACCESS: 28587700  HIT: 14892509  MISS: 13695191  HIT %: 52.0941  MISS %: 47.9059  AVERAGE MISS PENALTY: 458.996
LLC0 LOAD      ACCESS: 3983711  HIT: 2162038  MISS: 1821673  HIT %: 54.272  MISS %: 45.728  AVERAGE MISS PENALTY: 445.642
LLC0 RFO       ACCESS:  8188  HIT:   593  MISS:  7595  HIT %: 7.24231  MISS %: 92.7577  AVERAGE MISS PENALTY: 407.222
LLC0 PREFETCH  ACCESS: 24578790  HIT: 12721862  MISS: 11856928  HIT %: 51.7595  MISS %: 48.2405  AVERAGE MISS PENALTY: 461.429
LLC0 WRITEBACK ACCESS: 17011  HIT:  8016  MISS:  8995  HIT %: 47.1225  MISS %: 52.8775  AVERAGE MISS PENALTY: 0

LLC1 TOTAL     ACCESS: 28941452  HIT: 14982708  MISS: 13958744  HIT %: 51.769  MISS %: 48.231  AVERAGE MISS PENALTY: 454.6
LLC1 LOAD      ACCESS: 3778140  HIT: 2018872  MISS: 1759268  HIT %: 53.4356  MISS %: 46.5644  AVERAGE MISS PENALTY: 442.026
LLC1 RFO       ACCESS:  8190  HIT:   591  MISS:  7599  HIT %: 7.21612  MISS %: 92.7839  AVERAGE MISS PENALTY: 408.236
LLC1 PREFETCH  ACCESS: 25138111  HIT: 12955205  MISS: 12182906  HIT %: 51.5361  MISS %: 48.4639  AVERAGE MISS PENALTY: 456.78
LLC1 WRITEBACK ACCESS: 17011  HIT:  8040  MISS:  8971  HIT %: 47.2635  MISS %: 52.7365  AVERAGE MISS PENALTY: 0

LLC2 TOTAL     ACCESS: 28782448  HIT: 14943546  MISS: 13838902  HIT %: 51.919  MISS %: 48.081  AVERAGE MISS PENALTY: 448.429
LLC2 LOAD      ACCESS: 3842143  HIT: 2063501  MISS: 1778642  HIT %: 53.707  MISS %: 46.293  AVERAGE MISS PENALTY: 444.997
[...]
LLC2 RFO       ACCESS:  8189  HIT:   575  MISS:  7614  HIT %: 7.02161  MISS %: 92.9784  AVERAGE MISS PENALTY: 493.332
LLC2 PREFETCH  ACCESS: 24911775  HIT: 12871373  MISS: 12040402  HIT %: 51.6678  MISS %: 48.3322  AVERAGE MISS PENALTY: 449.383
LLC2 WRITEBACK ACCESS: 16995  HIT:  8070  MISS:  8925  HIT %: 47.4846  MISS %: 52.5154  AVERAGE MISS PENALTY: 0
LLC2 PREFETCH  REQUESTED:     0  ISSUED:     0  USEFUL: 7884526  USELESS: 88470861
 USEFUL LOAD PREFETCHES:    7884526 PREFETCH ISSUED TO LOWER LEVEL:   96370007  ACCURACY: 8.18151
 TIMELY PREFETCHES:    7884526 LATE PREFETCHES: 0 DROPPED PREFETCHES: 0
LLC2 AVERAGE MISS LATENCY: 448.555 cycles
LLC3 TOTAL     ACCESS: 27984169  HIT: 14564187  MISS: 13419982  HIT %: 52.0444  MISS %: 47.9556  AVERAGE MISS PENALTY: 444.71
LLC3 LOAD      ACCESS: 3926587  HIT: 2166859  MISS: 1759728  HIT %: 55.1843  MISS %: 44.8157  AVERAGE MISS PENALTY: 440.661
LLC3 RFO       ACCESS:  8187  HIT:   574  MISS:  7613  HIT %: 7.01112  MISS %: 92.9889  AVERAGE MISS PENALTY: 478.07
LLC3 PREFETCH  ACCESS: 24032401  HIT: 12388637  MISS: 11643764  HIT %: 51.5497  MISS %: 48.4503  AVERAGE MISS PENALTY: 445.639
LLC3 WRITEBACK ACCESS: 16994  HIT:  8117  MISS:  8877  HIT %: 47.7639  MISS %: 52.2361  AVERAGE MISS PENALTY: 0
LLC3 PREFETCH  REQUESTED:     0  ISSUED:     0  USEFUL: 7745547  USELESS: 85432288
 USEFUL LOAD PREFETCHES:    7745547 PREFETCH ISSUED TO LOWER LEVEL:   93178734  ACCURACY: 8.31257
 TIMELY PREFETCHES:    7745547 LATE PREFETCHES: 0 DROPPED PREFETCHES: 0
LLC3 AVERAGE MISS LATENCY: 444.71 cycles
LLC4 TOTAL     ACCESS: 27576314  HIT: 14369246  MISS: 13207068  HIT %: 52.1072  MISS %: 47.8928  AVERAGE MISS PENALTY: 431.37
LLC4 LOAD      ACCESS: 3769898  HIT: 2037181  MISS: 1732717  HIT %: 54.0381  MISS %: 45.9619  AVERAGE MISS PENALTY: 398.211
LLC4 RFO       ACCESS:  8188  HIT:   608  MISS:  7580  HIT %: 7.4255  MISS %: 92.5745  AVERAGE MISS PENALTY: 396.176
LLC4 PREFETCH  ACCESS: 23781236  HIT: 12323399  MISS: 11457837  HIT %: 51.8198  MISS %: 48.1802  AVERAGE MISS PENALTY: 436.744
LLC4 WRITEBACK ACCESS: 16992  HIT:  8058  MISS:  8934  HIT %: 47.4223  MISS %: 52.5777  AVERAGE MISS PENALTY: 0
LLC4 PREFETCH  REQUESTED:     0  ISSUED:     0  USEFUL: 7656442  USELESS: 84040495
 USEFUL LOAD PREFETCHES:    7656442 PREFETCH ISSUED TO LOWER LEVEL:   91716781  ACCURACY: 8.34792
 TIMELY PREFETCHES:    7656442 LATE PREFETCHES: 0 DROPPED PREFETCHES: 0
LLC4 AVERAGE MISS LATENCY: 413.889 cycles
LLC5 TOTAL     ACCESS: 27302141  HIT: 14339590  MISS: 12962551  HIT %: 52.5219  MISS %: 47.4781  AVERAGE MISS PENALTY: 400.59
LLC5 LOAD      ACCESS: 3730283  HIT: 2013213  MISS: 1717070  HIT %: 53.9694  MISS %: 46.0306  AVERAGE MISS PENALTY: 383.68
LLC5 RFO       ACCESS:  8187  HIT:   590  MISS:  7597  HIT %: 7.20655  MISS %: 92.7935  AVERAGE MISS PENALTY: 389.067
LLC5 PREFETCH  ACCESS: 23546679  HIT: 12317684  MISS: 11228995  HIT %: 52.3118  MISS %: 47.6882  AVERAGE MISS PENALTY: 403.501
LLC5 WRITEBACK ACCESS: 16992  HIT:  8103  MISS:  8889  HIT %: 47.6871  MISS %: 52.3129  AVERAGE MISS PENALTY: 0
LLC5 PREFETCH  REQUESTED:     0  ISSUED:     0  USEFUL: 7610228  USELESS: 82278001
 USEFUL LOAD PREFETCHES:    7610228 PREFETCH ISSUED TO LOWER LEVEL:   89889997  ACCURACY: 8.46616
 TIMELY PREFETCHES:    7610228 LATE PREFETCHES: 0 DROPPED PREFETCHES: 0
LLC5 AVERAGE MISS LATENCY: 400.59 cycles
LLC6 TOTAL     ACCESS: 26967888  HIT: 14299468  MISS: 12668420  HIT %: 53.0241  MISS %: 46.9759  AVERAGE MISS PENALTY: 406.44
LLC6 LOAD      ACCESS: 3836123  HIT: 2085433  MISS: 1750690  HIT %: 54.363  MISS %: 45.637  AVERAGE MISS PENALTY: 395.773
LLC6 RFO       ACCESS:  8189  HIT:   603  MISS:  7586  HIT %: 7.36354  MISS %: 92.6365  AVERAGE MISS PENALTY: 441.285
LLC6 PREFETCH  ACCESS: 23106580  HIT: 12205320  MISS: 10901260  HIT %: 52.8218  MISS %: 47.1782  AVERAGE MISS PENALTY: 408.46
LLC6 WRITEBACK ACCESS: 16996  HIT:  8112  MISS:  8884  HIT %: 47.7289  MISS %: 52.2711  AVERAGE MISS PENALTY: 0
LLC6 PREFETCH  REQUESTED:     0  ISSUED:     0  USEFUL: 7570966  USELESS: 79704774
 USEFUL LOAD PREFETCHES:    7570966 PREFETCH ISSUED TO LOWER LEVEL:   87294166  ACCURACY: 8.67293
 TIMELY PREFETCHES:    7570966 LATE PREFETCHES: 0 DROPPED PREFETCHES: 0
LLC6 AVERAGE MISS LATENCY: 406.44 cycles
LLC7 TOTAL     ACCESS: 26487548  HIT: 14225877  MISS: 12261671  HIT %: 53.7078  MISS %: 46.2922  AVERAGE MISS PENALTY: 394.617
LLC7 LOAD      ACCESS: 3781529  HIT: 2057904  MISS: 1723625  HIT %: 54.4199  MISS %: 45.5801  AVERAGE MISS PENALTY: 381.127
LLC7 RFO       ACCESS:  8188  HIT:   647  MISS:  7541  HIT %: 7.90181  MISS %: 92.0982  AVERAGE MISS PENALTY: 414.714
LLC7 PREFETCH  ACCESS: 22680837  HIT: 12159197  MISS: 10521640  HIT %: 53.61  MISS %: 46.39  AVERAGE MISS PENALTY: 397.145
LLC7 WRITEBACK ACCESS: 16994  HIT:  8129  MISS:  8865  HIT %: 47.8345  MISS %: 52.1655  AVERAGE MISS PENALTY: 0
LLC7 PREFETCH  REQUESTED:     0  ISSUED:     0  USEFUL: 7511632  USELESS: 76727669
 USEFUL LOAD PREFETCHES:    7511632 PREFETCH ISSUED TO LOWER LEVEL:   84241513  ACCURACY: 8.91678
 TIMELY PREFETCHES:    7511632 LATE PREFETCHES: 0 DROPPED PREFETCHES: 0
LLC7 AVERAGE MISS LATENCY: 394.617 cycles
ROI Average ROB Stall Cycles:	197.831
ROI Total ROB Stalls Cycles:	8437563072
ROI TOTAL ROB counter      :	42650401
ROI Average Load ROB Stall Cycles:	235.831
ROI Total Load ROB Stalls Cycle  :	8298048507
ROI Total Load ROB stalls Counter:	35186469
Major fault: 0 Minor fault: 34814

CPU 7 cumulative IPC: 0.0235892 instructions: 200000003 cycles: 8478466827
ITLB TOTAL     ACCESS: 34291869  HIT: 34291869  MISS:     0  HIT %:   100  MISS %:     0  AVERAGE MISS PENALTY: 0
ITLB LOAD      ACCESS: 34291869  HIT: 34291869  MISS:     0  HIT %:   100  MISS %:     0  AVERAGE MISS PENALTY: 0
ITLB RFO       ACCESS:     0  HIT:     0  MISS:     0  HIT %:     0  MISS %:     0  AVERAGE MISS PENALTY: 0
ITLB PREFETCH  ACCESS:     0  HIT:     0  MISS:     0  HIT %:     0  MISS %:     0  AVERAGE MISS PENALTY: 0
ITLB WRITEBACK ACCESS:     0  HIT:     0  MISS:     0  HIT %:     0  MISS %:     0  AVERAGE MISS PENALTY: 0
ITLB PREFETCH  REQUESTED:     0  ISSUED:     0  USEFUL:     0  USELESS:     0
 USEFUL LOAD PREFETCHES:          0 PREFETCH ISSUED TO LOWER LEVEL:          0  ACCURACY: -nan
 TIMELY PREFETCHES:          0 LATE PREFETCHES: 0 DROPPED PREFETCHES: 0
ITLB AVERAGE MISS LATENCY: -nan cycles
DTLB TOTAL     ACCESS: 78212950  HIT: 55255642  MISS: 22957308  HIT %: 70.6477  MISS %: 29.3523  AVERAGE MISS PENALTY: 9.18894
DTLB LOAD      ACCESS: 75517221  HIT: 52564920  MISS: 22952301  HIT %: 69.6065  MISS %: 30.3935  AVERAGE MISS PENALTY: 9.18387
DTLB RFO       ACCESS: 2695729  HIT: 2690722  MISS:  5007  HIT %: 99.8143  MISS %: 0.185738  AVERAGE MISS PENALTY: 32.4711
DTLB PREFETCH  ACCESS:     0  HIT:     0  MISS:     0  HIT %:     0  MISS %:     0  AVERAGE MISS PENALTY: 0
DTLB WRITEBACK ACCESS:     0  HIT:     0  MISS:     0  HIT %:     0  MISS %:     0  AVERAGE MISS PENALTY: 0
DTLB PREFETCH  REQUESTED:     0  ISSUED:     0  USEFUL:     0  USELESS:     0
 USEFUL LOAD PREFETCHES:          0 PREFETCH ISSUED TO LOWER LEVEL:          0  ACCURACY: -nan
 TIMELY PREFETCHES:          0 LATE PREFETCHES: 0 DROPPED PREFETCHES: 0
DTLB AVERAGE MISS LATENCY: 9.18894 cycles
STLB TOTAL     ACCESS: 22957308  HIT: 22916516  MISS: 40792  HIT %: 99.8223  MISS %: 0.177686  AVERAGE MISS PENALTY: 100
STLB LOAD      ACCESS: 22952301  HIT: 22912231  MISS: 40070  HIT %: 99.8254  MISS %: 0.174579  AVERAGE MISS PENALTY: 100
STLB RFO       ACCESS:  5007  HIT:  4285  MISS:   722  HIT %: 85.5802  MISS %: 14.4198  AVERAGE MISS PENALTY: 100
STLB PREFETCH  ACCESS:     0  HIT:     0  MISS:     0  HIT %:     0  MISS %:     0  AVERAGE MISS PENALTY: 0
STLB WRITEBACK ACCESS:     0  HIT:     0  MISS:     0  HIT %:     0  MISS %:     0  AVERAGE MISS PENALTY: 0
STLB PREFETCH  REQUESTED:     0  ISSUED:     0  USEFUL:     0  USELESS:     0
 USEFUL LOAD PREFETCHES:          0 PREFETCH ISSUED TO LOWER LEVEL:          0  ACCURACY: -nan
 TIMELY PREFETCHES:          0 LATE PREFETCHES: 0 DROPPED PREFETCHES: 0
STLB AVERAGE MISS LATENCY: 100 cycles
L1D TOTAL     ACCESS: 197823315  HIT: 41977658  MISS: 155845657  HIT %: 21.2198  MISS %: 78.7802  AVERAGE MISS PENALTY: 2.72787e+07
L1D LOAD      ACCESS: 66750861  HIT: 34442494  MISS: 32308367  HIT %: 51.5986  MISS %: 48.4014  AVERAGE MISS PENALTY: 1.31583e+08
L1D RFO       ACCESS: 2448600  HIT: 2383039  MISS: 65561  HIT %: 97.3225  MISS %: 2.67749  AVERAGE MISS PENALTY: 123087
L1D PREFETCH  ACCESS: 128623854  HIT: 5152125  MISS: 123471729  HIT %: 4.00558  MISS %: 95.9944  AVERAGE MISS PENALTY: 255.676
L1D WRITEBACK ACCESS:     0  HIT:     0  MISS:     0  HIT %:     0  MISS %:     0  AVERAGE MISS PENALTY: 0
L1D PREFETCH  REQUESTED: 132143327  ISSUED: 131976771  USEFUL: 3354276  USELESS: 120117444
 USEFUL LOAD PREFETCHES:    3354276 PREFETCH ISSUED TO LOWER LEVEL:  139179740  ACCURACY: 2.41003
 TIMELY PREFETCHES:    3354276 LATE PREFETCHES: 972913 DROPPED PREFETCHES: 166556
L1D AVERAGE MISS LATENCY: 298.26 cycles
L1I TOTAL     ACCESS: 36036192  HIT: 36036177  MISS:    15  HIT %:   100  MISS %: 4.16248e-05  AVERAGE MISS PENALTY: 374.933
L1I LOAD      ACCESS: 36036192  HIT: 36036177  MISS:    15  HIT %:   100  MISS %: 4.16248e-05  AVERAGE MISS PENALTY: 374.933
L1I RFO       ACCESS:     0  HIT:     0  MISS:     0  HIT %:     0  MISS %:     0  AVERAGE MISS PENALTY: 0
L1I PREFETCH  ACCESS:     0  HIT:     0  MISS:     0  HIT %:     0  MISS %:     0  AVERAGE MISS PENALTY: 0
L1I WRITEBACK ACCESS:     0  HIT:     0  MISS:     0  HIT %:     0  MISS %:     0  AVERAGE MISS PENALTY: 0
L1I PREFETCH  REQUESTED:     0  ISSUED:     0  USEFUL:     0  USELESS:     0
 USEFUL LOAD PREFETCHES:          0 PREFETCH ISSUED TO LOWER LEVEL:          0  ACCURACY: -nan
 TIMELY PREFETCHES:          0 LATE PREFETCHES: 0 DROPPED PREFETCHES: 0
L1I AVERAGE MISS LATENCY: 374.933 cycles
L2C TOTAL     ACCESS: 230725223  HIT: 8229063  MISS: 222496160  HIT %: 3.56661  MISS %: 96.4334  AVERAGE MISS PENALTY: 2.26816e+07
L2C LOAD      ACCESS: 32274542  HIT: 665868  MISS: 31608674  HIT %: 2.06314  MISS %: 97.9369  AVERAGE MISS PENALTY: 1.59657e+08
L2C RFO       ACCESS: 65560  HIT:    54  MISS: 65506  HIT %: 0.0823673  MISS %: 99.9176  AVERAGE MISS PENALTY: 438.34
L2C PREFETCH  ACCESS: 198184145  HIT: 7362334  MISS: 190821811  HIT %: 3.7149  MISS %: 96.2851  AVERAGE MISS PENALTY: 245.556
L2C WRITEBACK ACCESS: 200976  HIT: 200807  MISS:   169  HIT %: 99.9159  MISS %: 0.0840896  AVERAGE MISS PENALTY: 0
L2C PREFETCH  REQUESTED: 299969097  ISSUED: 299964344  USEFUL: 544841  USELESS: 190277004
 USEFUL LOAD PREFETCHES:     544841 PREFETCH ISSUED TO LOWER LEVEL:  195029224  ACCURACY: 0.279364
 TIMELY PREFETCHES:     544841 LATE PREFETCHES: 1231124 DROPPED PREFETCHES: 4753
L2C AVERAGE MISS LATENCY: 241.411 cycles
LLC0 TOTAL     ACCESS: 28586380  HIT: 14896196  MISS: 13690184  HIT %: 52.1094  MISS %: 47.8906  AVERAGE MISS PENALTY: 459.353
LLC0 LOAD      ACCESS: 3984615  HIT: 2163165  MISS: 1821450  HIT %: 54.2879  MISS %: 45.7121  AVERAGE MISS PENALTY: 445.791
LLC0 RFO       ACCESS:  8189  HIT:   601  MISS:  7588  HIT %: 7.33911  MISS %: 92.6609  AVERAGE MISS PENALTY: 409.727
LLC0 PREFETCH  ACCESS: 24576582  HIT: 12724373  MISS: 11852209  HIT %: 51.7744  MISS %: 48.2256  AVERAGE MISS PENALTY: 461.815
LLC0 WRITEBACK ACCESS: 16994  HIT:  8057  MISS:  8937  HIT %: 47.4109  MISS %: 52.5891  AVERAGE MISS PENALTY: 0
LLC0 PREFETCH  REQUESTED:     0  ISSUED:     0  USEFUL: 7871747  USELESS: 86980215
 USEFUL LOAD PREFETCHES:    7871747 PREFETCH ISSUED TO LOWER LEVEL:   94865600  ACCURACY: 8.29779
 TIMELY PREFETCHES:    7871747 LATE PREFETCHES: 0 DROPPED PREFETCHES: 0
LLC0 AVERAGE MISS LATENCY: 459.353 cycles
Deadblocks : 13085516 Deadblock percentage : 718.412

LLC1 TOTAL     ACCESS: 28939796  HIT: 14984759  MISS: 13955037  HIT %: 51.7791  MISS %: 48.2209  AVERAGE MISS PENALTY: 454.838
LLC1 LOAD      ACCESS: 3778122  HIT: 2019094  MISS: 1759028  HIT %: 53.4417  MISS %: 46.5583  AVERAGE MISS PENALTY: 442.258
LLC1 RFO       ACCESS:  8190  HIT:   543  MISS:  7647  HIT %: 6.63004  MISS %: 93.37  AVERAGE MISS PENALTY: 418.431
LLC1 PREFETCH  ACCESS: 25136490  HIT: 12957060  MISS: 12179430  HIT %: 51.5468  MISS %: 48.4532  AVERAGE MISS PENALTY: 457.011
LLC1 WRITEBACK ACCESS: 16994  HIT:  8062  MISS:  8932  HIT %: 47.4403  MISS %: 52.5597  AVERAGE MISS PENALTY: 0
LLC1 PREFETCH  REQUESTED:     0  ISSUED:     0  USEFUL: 7820451  USELESS: 89644210
 USEFUL LOAD PREFETCHES:    7820451 PREFETCH ISSUED TO LOWER LEVEL:   97467750  ACCURACY: 8.02363
 TIMELY PREFETCHES:    7820451 LATE PREFETCHES: 0 DROPPED PREFETCHES: 0
LLC1 AVERAGE MISS LATENCY: 454.838 cycles
LLC2 TOTAL     ACCESS: 28780943  HIT: 14943684  MISS: 13837259  HIT %: 51.9221  MISS %: 48.0779  AVERAGE MISS PENALTY: 448.667
LLC2 LOAD      ACCESS: 3842894  HIT: 2064762  MISS: 1778132  HIT %: 53.7294  MISS %: 46.2706  AVERAGE MISS PENALTY: 445.201
LLC2 RFO       ACCESS:  8189  HIT:   539  MISS:  7650  HIT %: 6.582  MISS %: 93.418  AVERAGE MISS PENALTY: 485.664
LLC2 PREFETCH  ACCESS: 24912865  HIT: 12870328  MISS: 12042537  HIT %: 51.6614  MISS %: 48.3386  AVERAGE MISS PENALTY: 449.488
LLC2 WRITEBACK ACCESS: 16995  HIT:  8055  MISS:  8940  HIT %: 47.3963  MISS %: 52.6037  AVERAGE MISS PENALTY: 0
LLC2 PREFETCH  REQUESTED:     0  ISSUED:     0  USEFUL: 7884526  USELESS: 88470861
 USEFUL LOAD PREFETCHES:    7884526 PREFETCH ISSUED TO LOWER LEVEL:   96370007  ACCURACY: 8.18151
 TIMELY PREFETCHES:    7884526 LATE PREFETCHES: 0 DROPPED PREFETCHES: 0
LLC2 AVERAGE MISS LATENCY: 448.667 cycles
LLC3 TOTAL     ACCESS: 27985595  HIT: 14570514  MISS: 13415081  HIT %: 52.0643  MISS %: 47.9357  AVERAGE MISS PENALTY: 444.734
LLC3 LOAD      ACCESS: 3926940  HIT: 2168361  MISS: 1758579  HIT %: 55.2176  MISS %: 44.7824  AVERAGE MISS PENALTY: 440.657
LLC3 RFO       ACCESS:  8186  HIT:   584  MISS:  7602  HIT %: 7.13413  MISS %: 92.8659  AVERAGE MISS PENALTY: 478.388
LLC3 PREFETCH  ACCESS: 24033474  HIT: 12393476  MISS: 11639998  HIT %: 51.5676  MISS %: 48.4324  AVERAGE MISS PENALTY: 445.669
LLC3 WRITEBACK ACCESS: 16995  HIT:  8093  MISS:  8902  HIT %: 47.6199  MISS %: 52.3801  AVERAGE MISS PENALTY: 0
LLC3 PREFETCH  REQUESTED:     0  ISSUED:     0  USEFUL: 7745547  USELESS: 85432288
 USEFUL LOAD PREFETCHES:    7745547 PREFETCH ISSUED TO LOWER LEVEL:   93178734  ACCURACY: 8.31257
 TIMELY PREFETCHES:    7745547 LATE PREFETCHES: 0 DROPPED PREFETCHES: 0
LLC3 AVERAGE MISS LATENCY: 444.734 cycles
LLC4 TOTAL     ACCESS: 27577734  HIT: 14375031  MISS: 13202703  HIT %: 52.1255  MISS %: 47.8745  AVERAGE MISS PENALTY: 413.779
LLC4 LOAD      ACCESS: 3770374  HIT: 2037381  MISS: 1732993  HIT %: 54.0366  MISS %: 45.9634  AVERAGE MISS PENALTY: 398.061
LLC4 RFO       ACCESS:  8188  HIT:   590  MISS:  7598  HIT %: 7.20567  MISS %: 92.7943  AVERAGE MISS PENALTY: 398.518
LLC4 PREFETCH  ACCESS: 23782179  HIT: 12329005  MISS: 11453174  HIT %: 51.8414  MISS %: 48.1586  AVERAGE MISS PENALTY: 416.491
LLC4 WRITEBACK ACCESS: 16993  HIT:  8055  MISS:  8938  HIT %: 47.4019  MISS %: 52.5981  AVERAGE MISS PENALTY: 0
LLC4 PREFETCH  REQUESTED:     0  ISSUED:     0  USEFUL: 7656442  USELESS: 84040495
 USEFUL LOAD PREFETCHES:    7656442 PREFETCH ISSUED TO LOWER LEVEL:   91716781  ACCURACY: 8.34792
 TIMELY PREFETCHES:    7656442 LATE PREFETCHES: 0 DROPPED PREFETCHES: 0
LLC4 AVERAGE MISS LATENCY: 413.779 cycles
LLC5 TOTAL     ACCESS: 27303360  HIT: 14341593  MISS: 12961767  HIT %: 52.5268  MISS %: 47.4732  AVERAGE MISS PENALTY: 400.564
LLC5 LOAD      ACCESS: 3730713  HIT: 2013112  MISS: 1717601  HIT %: 53.9605  MISS %: 46.0395  AVERAGE MISS PENALTY: 383.598
LLC5 RFO       ACCESS:  8187  HIT:   600  MISS:  7587  HIT %: 7.32869  MISS %: 92.6713  AVERAGE MISS PENALTY: 384.048
LLC5 PREFETCH  ACCESS: 23547467  HIT: 12319823  MISS: 11227644  HIT %: 52.3191  MISS %: 47.6809  AVERAGE MISS PENALTY: 403.49
LLC5 WRITEBACK ACCESS: 16993  HIT:  8058  MISS:  8935  HIT %: 47.4195  MISS %: 52.5805  AVERAGE MISS PENALTY: 0
LLC5 PREFETCH  REQUESTED:     0  ISSUED:     0  USEFUL: 7610228  USELESS: 82278001
 USEFUL LOAD PREFETCHES:    7610228 PREFETCH ISSUED TO LOWER LEVEL:   89889997  ACCURACY: 8.46616
 TIMELY PREFETCHES:    7610228 LATE PREFETCHES: 0 DROPPED PREFETCHES: 0
LLC5 AVERAGE MISS LATENCY: 400.564 cycles
LLC6 TOTAL     ACCESS: 26969366  HIT: 14297242  MISS: 12672124  HIT %: 53.0129  MISS %: 46.9871  AVERAGE MISS PENALTY: 406.495
LLC6 LOAD      ACCESS: 3836471  HIT: 2083866  MISS: 1752605  HIT %: 54.3173  MISS %: 45.6827  AVERAGE MISS PENALTY: 395.969
LLC6 RFO       ACCESS:  8189  HIT:   585  MISS:  7604  HIT %: 7.14373  MISS %: 92.8563  AVERAGE MISS PENALTY: 445.537
LLC6 PREFETCH  ACCESS: 23107709  HIT: 12204674  MISS: 10903035  HIT %: 52.8165  MISS %: 47.1835  AVERAGE MISS PENALTY: 408.491
LLC6 WRITEBACK ACCESS: 16997  HIT:  8117  MISS:  8880  HIT %: 47.7555  MISS %: 52.2445  AVERAGE MISS PENALTY: 0
LLC6 PREFETCH  REQUESTED:     0  ISSUED:     0  USEFUL: 7570966  USELESS: 79704774
 USEFUL LOAD PREFETCHES:    7570966 PREFETCH ISSUED TO LOWER LEVEL:   87294166  ACCURACY: 8.67293
 TIMELY PREFETCHES:    7570966 LATE PREFETCHES: 0 DROPPED PREFETCHES: 0
LLC6 AVERAGE MISS LATENCY: 406.495 cycles
LLC7 TOTAL     ACCESS: 26488773  HIT: 14224810  MISS: 12263963  HIT %: 53.7013  MISS %: 46.2987  AVERAGE MISS PENALTY: 394.655
LLC7 LOAD      ACCESS: 3781445  HIT: 2057442  MISS: 1724003  HIT %: 54.4089  MISS %: 45.5911  AVERAGE MISS PENALTY: 381.284
LLC7 RFO       ACCESS:  8188  HIT:   631  MISS:  7557  HIT %: 7.7064  MISS %: 92.2936  AVERAGE MISS PENALTY: 415.587
LLC7 PREFETCH  ACCESS: 22682144  HIT: 12158637  MISS: 10523507  HIT %: 53.6044  MISS %: 46.3956  AVERAGE MISS PENALTY: 397.164
LLC7 WRITEBACK ACCESS: 16996  HIT:  8100  MISS:  8896  HIT %: 47.6583  MISS %: 52.3417  AVERAGE MISS PENALTY: 0
LLC7 PREFETCH  REQUESTED:     0  ISSUED:     0  USEFUL: 7511632  USELESS: 76727669
 USEFUL LOAD PREFETCHES:    7511632 PREFETCH ISSUED TO LOWER LEVEL:   84241513  ACCURACY: 8.91678
 TIMELY PREFETCHES:    7511632 LATE PREFETCHES: 0 DROPPED PREFETCHES: 0
LLC7 AVERAGE MISS LATENCY: 394.655 cycles
ROI Average ROB Stall Cycles:	197.876
ROI Total ROB Stalls Cycles:	8439703143
ROI TOTAL ROB counter      :	42651419
ROI Average Load ROB Stall Cycles:	235.906
ROI Total Load ROB Stalls Cycle  :	8300327604
ROI Total Load ROB stalls Counter:	35184913
Major fault: 0 Minor fault: 34814








Interconnect Stats 
LINK 0 BW : 0LINK 1 BW : 0LINK 2 BW : 0LINK 3 BW : 0LINK 4 BW : 0LINK 5 BW : 0LINK 6 BW : 0LINK 7 BW : 0
DRAM Statistics
 CHANNEL 0
 RQ ROW_BUFFER_HIT: 109502545  ROW_BUFFER_MISS: 317610377
 DBUS_CONGESTED: 181792321
 WQ ROW_BUFFER_HIT: 40567  ROW_BUFFER_MISS: 503346  FULL:     0

 CHANNEL 1
 RQ ROW_BUFFER_HIT: 106508008  ROW_BUFFER_MISS: 314192135
 DBUS_CONGESTED: 181792321
 WQ ROW_BUFFER_HIT: 40114  ROW_BUFFER_MISS: 503803  FULL:     0

 AVG_CONGESTED_CYCLE: 4
DRAM PAGES: 2097152
Allocated PAGES: 278512
L2C destructor called
L1D destructor called
L1I destructor called
STLB destructor called
DTLB destructor called
ITLB destructor called
L2C destructor called
L1D destructor called
L1I destructor called
STLB destructor called
DTLB destructor called
ITLB destructor called
L2C destructor called
L1D destructor called
L1I destructor called
STLB destructor called
DTLB destructor called
ITLB destructor called
L2C destructor called
L1D destructor called
L1I destructor called
STLB destructor called
DTLB destructor called
ITLB destructor called
L2C destructor called
L1D destructor called
L1I destructor called
STLB destructor called
DTLB destructor called
ITLB destructor called
L2C destructor called
L1D destructor called
L1I destructor called
STLB destructor called
DTLB destructor called
ITLB destructor called
L2C destructor called
L1D destructor called
L1I destructor called
STLB destructor called
DTLB destructor called
ITLB destructor called
L2C destructor called
L1D destructor called
L1I destructor called
STLB destructor called
DTLB destructor called
ITLB destructor called
