
*** ChampSim Multicore Out-of-Order Simulator ***

Warmup Instructions: 200000000
Simulation Instructions: 200000000
Number of CPUs: 8
threads:1

L1I Configuration:
L1I_SET:64
L1I_WAY:8
L1I_RQ_SIZE:64
L1I_WQ_SIZE:64
L1I_PQ_SIZE:8
L1I_MSHR_SIZE:8

L1D Configuration:
L1D_SET:64
L1D_WAY:12
L1D_RQ_SIZE:64
L1D_WQ_SIZE:64
L1D_PQ_SIZE:8
L1D_MSHR_SIZE:16

L2C Configuration:
L2C_SET:1024
L2C_WAY:8
L2C_RQ_SIZE:32
L2C_WQ_SIZE:32
L2C_PQ_SIZE:16
L2C_MSHR_SIZE:32

LLC Configuration:
LLC_SET:2048
LLC_WAY:16
LLC SLICES:8
LLC_RQ_SIZE:64
LLC_WQ_SIZE:64
LLC_PQ_SIZE:32
LLC_MSHR_SIZE:64

Interconnect OFF
Attacker deprioritize is: OFF
Off-chip DRAM Size: 8192 MB Channels: 2 Width: 64-bit Data Rate: 3200 MT/s
PAGE SIZE in KB: 4.000000 
PAGE SIZE in MB: 0.003906 
PAGE offset in bits: 12 
CEASER-S_LLC:0
MIRAGE : 1
CEASER_LATENCY:3
REMAP : OFF
Partitions : 1
Multi-Step : OFF
BFS : OFF

CPU 0 runs /home/anubhav/gap/pr-3.trace.gz
CPU 1 runs /home/anubhav/gap/pr-3.trace.gz
CPU 2 runs /home/anubhav/gap/pr-3.trace.gz
CPU 3 runs /home/anubhav/gap/pr-3.trace.gz
CPU 4 runs /home/anubhav/gap/pr-3.trace.gz
CPU 5 runs /home/anubhav/gap/pr-3.trace.gz
CPU 6 runs /home/anubhav/gap/pr-3.trace.gz
CPU 7 runs /home/anubhav/gap/pr-3.trace.gz
CPU 0 Bimodal branch predictor
Initialize Hawkeye state
Initialize Hawkeye state
Initialize Hawkeye state
Initialize Hawkeye state
Initialize Hawkeye state
Initialize Hawkeye state
Initialize Hawkeye state
Initialize Hawkeye state
CPU 1 Bimodal branch predictor
Initialize Hawkeye state
Initialize Hawkeye state
Initialize Hawkeye state
Initialize Hawkeye state
Initialize Hawkeye state
Initialize Hawkeye state
Initialize Hawkeye state
Initialize Hawkeye state
CPU 2 Bimodal branch predictor
Initialize Hawkeye state
Initialize Hawkeye state
Initialize Hawkeye state
Initialize Hawkeye state
Initialize Hawkeye state
Initialize Hawkeye state
Initialize Hawkeye state
Initialize Hawkeye state
CPU 3 Bimodal branch predictor
Initialize Hawkeye state
Initialize Hawkeye state
Initialize Hawkeye state
Initialize Hawkeye state
Initialize Hawkeye state
Initialize Hawkeye state
Initialize Hawkeye state
Initialize Hawkeye state
CPU 4 Bimodal branch predictor
Initialize Hawkeye state
Initialize Hawkeye state
Initialize Hawkeye state
Initialize Hawkeye state
Initialize Hawkeye state
Initialize Hawkeye state
Initialize Hawkeye state
Initialize Hawkeye state
CPU 5 Bimodal branch predictor
Initialize Hawkeye state
Initialize Hawkeye state
Initialize Hawkeye state
Initialize Hawkeye state
Initialize Hawkeye state
Initialize Hawkeye state
Initialize Hawkeye state
Initialize Hawkeye state
CPU 6 Bimodal branch predictor
Initialize Hawkeye state
Initialize Hawkeye state
Initialize Hawkeye state
Initialize Hawkeye state
Initialize Hawkeye state
Initialize Hawkeye state
Initialize Hawkeye state
Initialize Hawkeye state
CPU 7 Bimodal branch predictor
Initialize Hawkeye state
Initialize Hawkeye state
Initialize Hawkeye state
Initialize Hawkeye state
Initialize Hawkeye state
Initialize Hawkeye state
Initialize Hawkeye state
Initialize Hawkeye state
Heartbeat CPU 0 instructions: 10000001 cycles: 3641900 heartbeat IPC: 2.74582 cumulative IPC: 2.74582 (Simulation time: 0 hr 26 min 32 sec) 
 Total Blocks : 262144 Invalid Blocks : 232
Heartbeat CPU 1 instructions: 10000001 cycles: 3641903 heartbeat IPC: 2.74582 cumulative IPC: 2.74582 (Simulation time: 0 hr 26 min 32 sec) 
 Total Blocks : 262144 Invalid Blocks : 232
Heartbeat CPU 2 instructions: 10000001 cycles: 3641907 heartbeat IPC: 2.74581 cumulative IPC: 2.74581 (Simulation time: 0 hr 26 min 32 sec) 
 Total Blocks : 262144 Invalid Blocks : 232
Heartbeat CPU 3 instructions: 10000001 cycles: 3641910 heartbeat IPC: 2.74581 cumulative IPC: 2.74581 (Simulation time: 0 hr 26 min 32 sec) 
 Total Blocks : 262144 Invalid Blocks : 232
Heartbeat CPU 5 instructions: 10000001 cycles: 3641914 heartbeat IPC: 2.74581 cumulative IPC: 2.74581 (Simulation time: 0 hr 26 min 32 sec) 
 Total Blocks : 262144 Invalid Blocks : 232
Heartbeat CPU 6 instructions: 10000001 cycles: 3641917 heartbeat IPC: 2.74581 cumulative IPC: 2.74581 (Simulation time: 0 hr 26 min 32 sec) 
 Total Blocks : 262144 Invalid Blocks : 232
Heartbeat CPU 7 instructions: 10000001 cycles: 3641918 heartbeat IPC: 2.74581 cumulative IPC: 2.74581 (Simulation time: 0 hr 26 min 32 sec) 
 Total Blocks : 262144 Invalid Blocks : 232
Heartbeat CPU 4 instructions: 10000001 cycles: 3641919 heartbeat IPC: 2.74581 cumulative IPC: 2.74581 (Simulation time: 0 hr 26 min 32 sec) 
 Total Blocks : 262144 Invalid Blocks : 232
Heartbeat CPU 0 instructions: 20000001 cycles: 12986886 heartbeat IPC: 1.07009 cumulative IPC: 1.54002 (Simulation time: 1 hr 3 min 37 sec) 
 Total Blocks : 262144 Invalid Blocks : 0
Heartbeat CPU 1 instructions: 20000001 cycles: 12990930 heartbeat IPC: 1.06963 cumulative IPC: 1.53954 (Simulation time: 1 hr 3 min 38 sec) 
 Total Blocks : 262144 Invalid Blocks : 0
Heartbeat CPU 2 instructions: 20000001 cycles: 12993361 heartbeat IPC: 1.06935 cumulative IPC: 1.53925 (Simulation time: 1 hr 3 min 39 sec) 
 Total Blocks : 262144 Invalid Blocks : 0
Heartbeat CPU 3 instructions: 20000001 cycles: 12997965 heartbeat IPC: 1.06883 cumulative IPC: 1.5387 (Simulation time: 1 hr 3 min 40 sec) 
 Total Blocks : 262144 Invalid Blocks : 0
Heartbeat CPU 4 instructions: 20000001 cycles: 12999294 heartbeat IPC: 1.06868 cumulative IPC: 1.53855 (Simulation time: 1 hr 3 min 40 sec) 
 Total Blocks : 262144 Invalid Blocks : 0
Heartbeat CPU 5 instructions: 20000001 cycles: 13003588 heartbeat IPC: 1.06818 cumulative IPC: 1.53804 (Simulation time: 1 hr 3 min 41 sec) 
 Total Blocks : 262144 Invalid Blocks : 0
Heartbeat CPU 6 instructions: 20000001 cycles: 13005600 heartbeat IPC: 1.06796 cumulative IPC: 1.5378 (Simulation time: 1 hr 3 min 41 sec) 
 Total Blocks : 262144 Invalid Blocks : 0
Heartbeat CPU 7 instructions: 20000001 cycles: 13009951 heartbeat IPC: 1.06746 cumulative IPC: 1.53728 (Simulation time: 1 hr 3 min 43 sec) 
 Total Blocks : 262144 Invalid Blocks : 0
Heartbeat CPU 0 instructions: 30000000 cycles: 24909264 heartbeat IPC: 0.838759 cumulative IPC: 1.20437 (Simulation time: 2 hr 11 min 40 sec) 
 Total Blocks : 262144 Invalid Blocks : 0
Heartbeat CPU 1 instructions: 30000000 cycles: 24966380 heartbeat IPC: 0.835042 cumulative IPC: 1.20162 (Simulation time: 2 hr 12 min 0 sec) 
 Total Blocks : 262144 Invalid Blocks : 0
Heartbeat CPU 2 instructions: 30000000 cycles: 25014463 heartbeat IPC: 0.83187 cumulative IPC: 1.19931 (Simulation time: 2 hr 12 min 17 sec) 
 Total Blocks : 262144 Invalid Blocks : 0
Heartbeat CPU 3 instructions: 30000000 cycles: 25055603 heartbeat IPC: 0.82935 cumulative IPC: 1.19734 (Simulation time: 2 hr 12 min 31 sec) 
 Total Blocks : 262144 Invalid Blocks : 0
Heartbeat CPU 4 instructions: 30000000 cycles: 25090843 heartbeat IPC: 0.827024 cumulative IPC: 1.19566 (Simulation time: 2 hr 12 min 43 sec) 
 Total Blocks : 262144 Invalid Blocks : 0
Heartbeat CPU 5 instructions: 30000000 cycles: 25131048 heartbeat IPC: 0.824575 cumulative IPC: 1.19374 (Simulation time: 2 hr 12 min 57 sec) 
 Total Blocks : 262144 Invalid Blocks : 0
Heartbeat CPU 6 instructions: 30000000 cycles: 25163100 heartbeat IPC: 0.822537 cumulative IPC: 1.19222 (Simulation time: 2 hr 13 min 9 sec) 
 Total Blocks : 262144 Invalid Blocks : 0
Heartbeat CPU 7 instructions: 30000000 cycles: 25194348 heartbeat IPC: 0.820722 cumulative IPC: 1.19074 (Simulation time: 2 hr 13 min 20 sec) 
 Total Blocks : 262144 Invalid Blocks : 0
Heartbeat CPU 0 instructions: 40000000 cycles: 37258239 heartbeat IPC: 0.809784 cumulative IPC: 1.07359 (Simulation time: 3 hr 28 min 3 sec) 
 Total Blocks : 262144 Invalid Blocks : 0
Heartbeat CPU 1 instructions: 40000000 cycles: 37378987 heartbeat IPC: 0.805633 cumulative IPC: 1.07012 (Simulation time: 3 hr 28 min 47 sec) 
 Total Blocks : 262144 Invalid Blocks : 0
Heartbeat CPU 2 instructions: 40000000 cycles: 37478706 heartbeat IPC: 0.802295 cumulative IPC: 1.06727 (Simulation time: 3 hr 29 min 24 sec) 
 Total Blocks : 262144 Invalid Blocks : 0
Heartbeat CPU 3 instructions: 40000000 cycles: 37566809 heartbeat IPC: 0.799283 cumulative IPC: 1.06477 (Simulation time: 3 hr 29 min 57 sec) 
 Total Blocks : 262144 Invalid Blocks : 0
Heartbeat CPU 4 instructions: 40000000 cycles: 37637367 heartbeat IPC: 0.797033 cumulative IPC: 1.06277 (Simulation time: 3 hr 30 min 24 sec) 
 Total Blocks : 262144 Invalid Blocks : 0
Heartbeat CPU 5 instructions: 40000000 cycles: 37722973 heartbeat IPC: 0.79416 cumulative IPC: 1.06036 (Simulation time: 3 hr 30 min 59 sec) 
 Total Blocks : 262144 Invalid Blocks : 0
Heartbeat CPU 6 instructions: 40000000 cycles: 37784652 heartbeat IPC: 0.792296 cumulative IPC: 1.05863 (Simulation time: 3 hr 31 min 21 sec) 
 Total Blocks : 262144 Invalid Blocks : 0
Heartbeat CPU 7 instructions: 40000000 cycles: 37850238 heartbeat IPC: 0.790146 cumulative IPC: 1.0568 (Simulation time: 3 hr 31 min 45 sec) 
 Total Blocks : 262144 Invalid Blocks : 0
Heartbeat CPU 0 instructions: 50000000 cycles: 49642837 heartbeat IPC: 0.807455 cumulative IPC: 1.00719 (Simulation time: 4 hr 45 min 4 sec) 
 Total Blocks : 262144 Invalid Blocks : 0
Heartbeat CPU 1 instructions: 50000000 cycles: 49829116 heartbeat IPC: 0.803205 cumulative IPC: 1.00343 (Simulation time: 4 hr 46 min 13 sec) 
 Total Blocks : 262144 Invalid Blocks : 0
Heartbeat CPU 2 instructions: 50000000 cycles: 49981399 heartbeat IPC: 0.799828 cumulative IPC: 1.00037 (Simulation time: 4 hr 47 min 9 sec) 
 Total Blocks : 262144 Invalid Blocks : 0
Heartbeat CPU 3 instructions: 50000000 cycles: 50116528 heartbeat IPC: 0.796831 cumulative IPC: 0.997675 (Simulation time: 4 hr 47 min 58 sec) 
 Total Blocks : 262144 Invalid Blocks : 0
Heartbeat CPU 4 instructions: 50000000 cycles: 50219794 heartbeat IPC: 0.794759 cumulative IPC: 0.995623 (Simulation time: 4 hr 48 min 36 sec) 
 Total Blocks : 262144 Invalid Blocks : 0
Heartbeat CPU 5 instructions: 50000000 cycles: 50351059 heartbeat IPC: 0.791886 cumulative IPC: 0.993028 (Simulation time: 4 hr 49 min 24 sec) 
 Total Blocks : 262144 Invalid Blocks : 0
Heartbeat CPU 6 instructions: 50000000 cycles: 50445455 heartbeat IPC: 0.789839 cumulative IPC: 0.99117 (Simulation time: 4 hr 49 min 59 sec) 
 Total Blocks : 262144 Invalid Blocks : 0
Heartbeat CPU 7 instructions: 50000000 cycles: 50546001 heartbeat IPC: 0.787664 cumulative IPC: 0.989198 (Simulation time: 4 hr 50 min 35 sec) 
 Total Blocks : 262144 Invalid Blocks : 0
Heartbeat CPU 0 instructions: 60000002 cycles: 61722202 heartbeat IPC: 0.827858 cumulative IPC: 0.972098 (Simulation time: 6 hr 1 min 7 sec) 
 Total Blocks : 262144 Invalid Blocks : 0
Heartbeat CPU 1 instructions: 60000002 cycles: 61971506 heartbeat IPC: 0.823561 cumulative IPC: 0.968187 (Simulation time: 6 hr 2 min 45 sec) 
 Total Blocks : 262144 Invalid Blocks : 0
Heartbeat CPU 2 instructions: 60000002 cycles: 62174952 heartbeat IPC: 0.820106 cumulative IPC: 0.965019 (Simulation time: 6 hr 4 min 4 sec) 
 Total Blocks : 262144 Invalid Blocks : 0
Heartbeat CPU 3 instructions: 60000002 cycles: 62351242 heartbeat IPC: 0.817347 cumulative IPC: 0.96229 (Simulation time: 6 hr 5 min 11 sec) 
 Total Blocks : 262144 Invalid Blocks : 0
Heartbeat CPU 4 instructions: 60000002 cycles: 62490627 heartbeat IPC: 0.814941 cumulative IPC: 0.960144 (Simulation time: 6 hr 6 min 3 sec) 
 Total Blocks : 262144 Invalid Blocks : 0
Heartbeat CPU 5 instructions: 60000002 cycles: 62664095 heartbeat IPC: 0.812148 cumulative IPC: 0.957486 (Simulation time: 6 hr 7 min 9 sec) 
 Total Blocks : 262144 Invalid Blocks : 0
Heartbeat CPU 6 instructions: 60000002 cycles: 62790835 heartbeat IPC: 0.81002 cumulative IPC: 0.955553 (Simulation time: 6 hr 7 min 57 sec) 
 Total Blocks : 262144 Invalid Blocks : 0
Heartbeat CPU 7 instructions: 60000002 cycles: 62922428 heartbeat IPC: 0.807988 cumulative IPC: 0.953555 (Simulation time: 6 hr 8 min 46 sec) 
 Total Blocks : 262144 Invalid Blocks : 0
Heartbeat CPU 0 instructions: 70000000 cycles: 73990305 heartbeat IPC: 0.815122 cumulative IPC: 0.94607 (Simulation time: 7 hr 19 min 6 sec) 
 Total Blocks : 262144 Invalid Blocks : 0
Heartbeat CPU 1 instructions: 70000000 cycles: 74303644 heartbeat IPC: 0.810889 cumulative IPC: 0.94208 (Simulation time: 7 hr 21 min 11 sec) 
 Total Blocks : 262144 Invalid Blocks : 0
Heartbeat CPU 2 instructions: 70000000 cycles: 74556864 heartbeat IPC: 0.80763 cumulative IPC: 0.938881 (Simulation time: 7 hr 22 min 37 sec) 
 Total Blocks : 262144 Invalid Blocks : 0
Heartbeat CPU 3 instructions: 70000000 cycles: 74780204 heartbeat IPC: 0.804572 cumulative IPC: 0.936077 (Simulation time: 7 hr 23 min 57 sec) 
 Total Blocks : 262144 Invalid Blocks : 0
Heartbeat CPU 4 instructions: 70000000 cycles: 74955829 heartbeat IPC: 0.802233 cumulative IPC: 0.933883 (Simulation time: 7 hr 25 min 8 sec) 
 Total Blocks : 262144 Invalid Blocks : 0
Heartbeat CPU 5 instructions: 70000000 cycles: 75173941 heartbeat IPC: 0.79937 cumulative IPC: 0.931174 (Simulation time: 7 hr 26 min 36 sec) 
 Total Blocks : 262144 Invalid Blocks : 0
Heartbeat CPU 6 instructions: 70000000 cycles: 75332560 heartbeat IPC: 0.797338 cumulative IPC: 0.929213 (Simulation time: 7 hr 27 min 39 sec) 
 Total Blocks : 262144 Invalid Blocks : 0
Heartbeat CPU 7 instructions: 70000000 cycles: 75499826 heartbeat IPC: 0.795077 cumulative IPC: 0.927154 (Simulation time: 7 hr 28 min 46 sec) 
 Total Blocks : 262144 Invalid Blocks : 0
Heartbeat CPU 0 instructions: 80000002 cycles: 86338879 heartbeat IPC: 0.80981 cumulative IPC: 0.926581 (Simulation time: 8 hr 39 min 20 sec) 
 Total Blocks : 262144 Invalid Blocks : 0
Heartbeat CPU 1 instructions: 80000002 cycles: 86716610 heartbeat IPC: 0.805609 cumulative IPC: 0.922545 (Simulation time: 8 hr 41 min 51 sec) 
 Total Blocks : 262144 Invalid Blocks : 0
Heartbeat CPU 2 instructions: 80000002 cycles: 87023999 heartbeat IPC: 0.802109 cumulative IPC: 0.919287 (Simulation time: 8 hr 43 min 52 sec) 
 Total Blocks : 262144 Invalid Blocks : 0
Heartbeat CPU 3 instructions: 80000002 cycles: 87292111 heartbeat IPC: 0.799239 cumulative IPC: 0.916463 (Simulation time: 8 hr 45 min 39 sec) 
 Total Blocks : 262144 Invalid Blocks : 0
Heartbeat CPU 4 instructions: 80000002 cycles: 87504362 heartbeat IPC: 0.796906 cumulative IPC: 0.91424 (Simulation time: 8 hr 46 min 53 sec) 
 Total Blocks : 262144 Invalid Blocks : 0
Heartbeat CPU 5 instructions: 80000002 cycles: 87767654 heartbeat IPC: 0.794047 cumulative IPC: 0.911498 (Simulation time: 8 hr 48 min 37 sec) 
 Total Blocks : 262144 Invalid Blocks : 0
Heartbeat CPU 6 instructions: 80000002 cycles: 87957334 heartbeat IPC: 0.792094 cumulative IPC: 0.909532 (Simulation time: 8 hr 49 min 56 sec) 
 Total Blocks : 262144 Invalid Blocks : 0
Heartbeat CPU 7 instructions: 80000002 cycles: 88157800 heartbeat IPC: 0.790016 cumulative IPC: 0.907464 (Simulation time: 8 hr 51 min 18 sec) 
 Total Blocks : 262144 Invalid Blocks : 0
Heartbeat CPU 0 instructions: 90000000 cycles: 98647881 heartbeat IPC: 0.812413 cumulative IPC: 0.912336 (Simulation time: 10 hr 2 min 36 sec) 
 Total Blocks : 262144 Invalid Blocks : 0
Heartbeat CPU 1 instructions: 90000000 cycles: 99090099 heartbeat IPC: 0.808179 cumulative IPC: 0.908264 (Simulation time: 10 hr 5 min 43 sec) 
 Total Blocks : 262144 Invalid Blocks : 0
Heartbeat CPU 2 instructions: 90000000 cycles: 99448805 heartbeat IPC: 0.804841 cumulative IPC: 0.904988 (Simulation time: 10 hr 7 min 54 sec) 
 Total Blocks : 262144 Invalid Blocks : 0
Heartbeat CPU 3 instructions: 90000000 cycles: 99761362 heartbeat IPC: 0.801973 cumulative IPC: 0.902153 (Simulation time: 10 hr 10 min 5 sec) 
 Total Blocks : 262144 Invalid Blocks : 0
Heartbeat CPU 4 instructions: 90000000 cycles: 100008661 heartbeat IPC: 0.799725 cumulative IPC: 0.899922 (Simulation time: 10 hr 11 min 49 sec) 
 Total Blocks : 262144 Invalid Blocks : 0
Heartbeat CPU 5 instructions: 90000000 cycles: 100317015 heartbeat IPC: 0.796853 cumulative IPC: 0.897156 (Simulation time: 10 hr 13 min 56 sec) 
 Total Blocks : 262144 Invalid Blocks : 0
Heartbeat CPU 6 instructions: 90000000 cycles: 100535735 heartbeat IPC: 0.795013 cumulative IPC: 0.895204 (Simulation time: 10 hr 15 min 28 sec) 
 Total Blocks : 262144 Invalid Blocks : 0
Heartbeat CPU 7 instructions: 90000000 cycles: 100767628 heartbeat IPC: 0.793032 cumulative IPC: 0.893144 (Simulation time: 10 hr 17 min 4 sec) 
 Total Blocks : 262144 Invalid Blocks : 0
Heartbeat CPU 0 instructions: 100000001 cycles: 110999446 heartbeat IPC: 0.809614 cumulative IPC: 0.900905 (Simulation time: 11 hr 29 min 15 sec) 
 Total Blocks : 262144 Invalid Blocks : 0
Heartbeat CPU 1 instructions: 100000001 cycles: 111507475 heartbeat IPC: 0.805323 cumulative IPC: 0.896801 (Simulation time: 11 hr 32 min 55 sec) 
 Total Blocks : 262144 Invalid Blocks : 0
Heartbeat CPU 2 instructions: 100000001 cycles: 111915334 heartbeat IPC: 0.802148 cumulative IPC: 0.893533 (Simulation time: 11 hr 35 min 52 sec) 
 Total Blocks : 262144 Invalid Blocks : 0
Heartbeat CPU 3 instructions: 100000001 cycles: 112276603 heartbeat IPC: 0.799026 cumulative IPC: 0.890658 (Simulation time: 11 hr 38 min 35 sec) 
 Total Blocks : 262144 Invalid Blocks : 0
Heartbeat CPU 4 instructions: 100000001 cycles: 112559832 heartbeat IPC: 0.796739 cumulative IPC: 0.888416 (Simulation time: 11 hr 40 min 41 sec) 
 Total Blocks : 262144 Invalid Blocks : 0
Heartbeat CPU 5 instructions: 100000001 cycles: 112909319 heartbeat IPC: 0.794136 cumulative IPC: 0.885666 (Simulation time: 11 hr 43 min 17 sec) 
 Total Blocks : 262144 Invalid Blocks : 0
Heartbeat CPU 6 instructions: 100000001 cycles: 113161699 heartbeat IPC: 0.792019 cumulative IPC: 0.883691 (Simulation time: 11 hr 45 min 5 sec) 
 Total Blocks : 262144 Invalid Blocks : 0
Heartbeat CPU 7 instructions: 100000001 cycles: 113427934 heartbeat IPC: 0.78987 cumulative IPC: 0.881617 (Simulation time: 11 hr 47 min 4 sec) 
 Total Blocks : 262144 Invalid Blocks : 0
Heartbeat CPU 0 instructions: 110000000 cycles: 123263351 heartbeat IPC: 0.815401 cumulative IPC: 0.892398 (Simulation time: 12 hr 58 min 53 sec) 
 Total Blocks : 262144 Invalid Blocks : 0
Heartbeat CPU 1 instructions: 110000000 cycles: 123839034 heartbeat IPC: 0.810927 cumulative IPC: 0.88825 (Simulation time: 13 hr 3 min 13 sec) 
 Total Blocks : 262144 Invalid Blocks : 0
Heartbeat CPU 2 instructions: 110000000 cycles: 124297317 heartbeat IPC: 0.807625 cumulative IPC: 0.884975 (Simulation time: 13 hr 6 min 30 sec) 
 Total Blocks : 262144 Invalid Blocks : 0
Heartbeat CPU 3 instructions: 110000000 cycles: 124705102 heartbeat IPC: 0.804602 cumulative IPC: 0.882081 (Simulation time: 13 hr 9 min 37 sec) 
 Total Blocks : 262144 Invalid Blocks : 0
Heartbeat CPU 4 instructions: 110000000 cycles: 125026692 heartbeat IPC: 0.802127 cumulative IPC: 0.879812 (Simulation time: 13 hr 12 min 3 sec) 
 Total Blocks : 262144 Invalid Blocks : 0
Heartbeat CPU 5 instructions: 110000000 cycles: 125415470 heartbeat IPC: 0.799606 cumulative IPC: 0.877085 (Simulation time: 13 hr 15 min 0 sec) 
 Total Blocks : 262144 Invalid Blocks : 0
Heartbeat CPU 6 instructions: 110000000 cycles: 125703501 heartbeat IPC: 0.797334 cumulative IPC: 0.875075 (Simulation time: 13 hr 17 min 6 sec) 
 Total Blocks : 262144 Invalid Blocks : 0
Heartbeat CPU 7 instructions: 110000000 cycles: 126004762 heartbeat IPC: 0.795113 cumulative IPC: 0.872983 (Simulation time: 13 hr 19 min 20 sec) 
 Total Blocks : 262144 Invalid Blocks : 0
Heartbeat CPU 0 instructions: 120000000 cycles: 135548533 heartbeat IPC: 0.813989 cumulative IPC: 0.885292 (Simulation time: 14 hr 31 min 59 sec) 
 Total Blocks : 262144 Invalid Blocks : 0
Heartbeat CPU 1 instructions: 120000000 cycles: 136191043 heartbeat IPC: 0.809585 cumulative IPC: 0.881115 (Simulation time: 14 hr 36 min 57 sec) 
 Total Blocks : 262144 Invalid Blocks : 0
Heartbeat CPU 2 instructions: 120000000 cycles: 136701692 heartbeat IPC: 0.806167 cumulative IPC: 0.877824 (Simulation time: 14 hr 40 min 59 sec) 
 Total Blocks : 262144 Invalid Blocks : 0
Heartbeat CPU 3 instructions: 120000000 cycles: 137152729 heartbeat IPC: 0.803366 cumulative IPC: 0.874937 (Simulation time: 14 hr 44 min 25 sec) 
 Total Blocks : 262144 Invalid Blocks : 0
Heartbeat CPU 4 instructions: 120000000 cycles: 137511241 heartbeat IPC: 0.80099 cumulative IPC: 0.872656 (Simulation time: 14 hr 47 min 9 sec) 
 Total Blocks : 262144 Invalid Blocks : 0
Heartbeat CPU 5 instructions: 120000000 cycles: 137940475 heartbeat IPC: 0.798403 cumulative IPC: 0.86994 (Simulation time: 14 hr 50 min 28 sec) 
 Total Blocks : 262144 Invalid Blocks : 0
Heartbeat CPU 6 instructions: 120000000 cycles: 138263157 heartbeat IPC: 0.7962 cumulative IPC: 0.86791 (Simulation time: 14 hr 52 min 58 sec) 
 Total Blocks : 262144 Invalid Blocks : 0
Heartbeat CPU 7 instructions: 120000000 cycles: 138595849 heartbeat IPC: 0.794213 cumulative IPC: 0.865827 (Simulation time: 14 hr 55 min 31 sec) 
 Total Blocks : 262144 Invalid Blocks : 0
Heartbeat CPU 0 instructions: 130000000 cycles: 147832882 heartbeat IPC: 0.814044 cumulative IPC: 0.879371 (Simulation time: 16 hr 7 min 36 sec) 
 Total Blocks : 262144 Invalid Blocks : 0
Heartbeat CPU 1 instructions: 130000000 cycles: 148541491 heartbeat IPC: 0.809687 cumulative IPC: 0.875176 (Simulation time: 16 hr 13 min 18 sec) 
 Total Blocks : 262144 Invalid Blocks : 0
Heartbeat CPU 2 instructions: 130000000 cycles: 149103462 heartbeat IPC: 0.806337 cumulative IPC: 0.871878 (Simulation time: 16 hr 17 min 50 sec) 
 Total Blocks : 262144 Invalid Blocks : 0
Heartbeat CPU 3 instructions: 130000000 cycles: 149601140 heartbeat IPC: 0.803315 cumulative IPC: 0.868977 (Simulation time: 16 hr 21 min 38 sec) 
 Total Blocks : 262144 Invalid Blocks : 0
Heartbeat CPU 4 instructions: 130000000 cycles: 149997033 heartbeat IPC: 0.80091 cumulative IPC: 0.866684 (Simulation time: 16 hr 24 min 40 sec) 
 Total Blocks : 262144 Invalid Blocks : 0
Heartbeat CPU 5 instructions: 130000000 cycles: 150465088 heartbeat IPC: 0.798428 cumulative IPC: 0.863988 (Simulation time: 16 hr 28 min 21 sec) 
 Total Blocks : 262144 Invalid Blocks : 0
Heartbeat CPU 6 instructions: 130000000 cycles: 150818924 heartbeat IPC: 0.796447 cumulative IPC: 0.861961 (Simulation time: 16 hr 31 min 9 sec) 
 Total Blocks : 262144 Invalid Blocks : 0
Heartbeat CPU 7 instructions: 130000000 cycles: 151186988 heartbeat IPC: 0.794209 cumulative IPC: 0.859862 (Simulation time: 16 hr 33 min 56 sec) 
 Total Blocks : 262144 Invalid Blocks : 0
Heartbeat CPU 0 instructions: 140000001 cycles: 160193493 heartbeat IPC: 0.809022 cumulative IPC: 0.873943 (Simulation time: 17 hr 46 min 9 sec) 
 Total Blocks : 262144 Invalid Blocks : 0
Heartbeat CPU 1 instructions: 140000001 cycles: 160969819 heartbeat IPC: 0.804614 cumulative IPC: 0.869728 (Simulation time: 17 hr 52 min 35 sec) 
 Total Blocks : 262144 Invalid Blocks : 0
Heartbeat CPU 2 instructions: 140000001 cycles: 161584514 heartbeat IPC: 0.801215 cumulative IPC: 0.86642 (Simulation time: 17 hr 57 min 48 sec) 
 Total Blocks : 262144 Invalid Blocks : 0
Heartbeat CPU 3 instructions: 140000001 cycles: 162129402 heartbeat IPC: 0.798195 cumulative IPC: 0.863508 (Simulation time: 18 hr 2 min 22 sec) 
 Total Blocks : 262144 Invalid Blocks : 0
Heartbeat CPU 4 instructions: 140000001 cycles: 162564021 heartbeat IPC: 0.795736 cumulative IPC: 0.861199 (Simulation time: 18 hr 5 min 59 sec) 
 Total Blocks : 262144 Invalid Blocks : 0
Heartbeat CPU 5 instructions: 140000001 cycles: 163076184 heartbeat IPC: 0.792953 cumulative IPC: 0.858494 (Simulation time: 18 hr 10 min 17 sec) 
 Total Blocks : 262144 Invalid Blocks : 0
Heartbeat CPU 6 instructions: 140000001 cycles: 163462059 heartbeat IPC: 0.790943 cumulative IPC: 0.856468 (Simulation time: 18 hr 13 min 25 sec) 
 Total Blocks : 262144 Invalid Blocks : 0
Heartbeat CPU 7 instructions: 140000001 cycles: 163871094 heartbeat IPC: 0.788388 cumulative IPC: 0.85433 (Simulation time: 18 hr 16 min 37 sec) 
 Total Blocks : 262144 Invalid Blocks : 0
Heartbeat CPU 0 instructions: 150000000 cycles: 172509384 heartbeat IPC: 0.811959 cumulative IPC: 0.869518 (Simulation time: 19 hr 26 min 30 sec) 
 Total Blocks : 262144 Invalid Blocks : 0
Heartbeat CPU 1 instructions: 150000000 cycles: 173347509 heartbeat IPC: 0.807905 cumulative IPC: 0.865314 (Simulation time: 19 hr 33 min 25 sec) 
 Total Blocks : 262144 Invalid Blocks : 0
Heartbeat CPU 2 instructions: 150000000 cycles: 174013810 heartbeat IPC: 0.804551 cumulative IPC: 0.862001 (Simulation time: 19 hr 39 min 9 sec) 
 Total Blocks : 262144 Invalid Blocks : 0
Heartbeat CPU 3 instructions: 150000000 cycles: 174603174 heartbeat IPC: 0.801682 cumulative IPC: 0.859091 (Simulation time: 19 hr 44 min 11 sec) 
 Total Blocks : 262144 Invalid Blocks : 0
Heartbeat CPU 4 instructions: 150000000 cycles: 175073288 heartbeat IPC: 0.799407 cumulative IPC: 0.856784 (Simulation time: 19 hr 48 min 4 sec) 
 Total Blocks : 262144 Invalid Blocks : 0
Heartbeat CPU 5 instructions: 150000000 cycles: 175627654 heartbeat IPC: 0.796719 cumulative IPC: 0.85408 (Simulation time: 19 hr 52 min 45 sec) 
 Total Blocks : 262144 Invalid Blocks : 0
Heartbeat CPU 6 instructions: 150000000 cycles: 176042769 heartbeat IPC: 0.794868 cumulative IPC: 0.852066 (Simulation time: 19 hr 56 min 11 sec) 
 Total Blocks : 262144 Invalid Blocks : 0
Heartbeat CPU 7 instructions: 150000000 cycles: 176487988 heartbeat IPC: 0.792588 cumulative IPC: 0.849916 (Simulation time: 19 hr 59 min 35 sec) 
 Total Blocks : 262144 Invalid Blocks : 0
Heartbeat CPU 0 instructions: 160000001 cycles: 184883727 heartbeat IPC: 0.808124 cumulative IPC: 0.865409 (Simulation time: 21 hr 8 min 26 sec) 
 Total Blocks : 262144 Invalid Blocks : 0
Heartbeat CPU 1 instructions: 160000001 cycles: 185784454 heartbeat IPC: 0.804056 cumulative IPC: 0.861213 (Simulation time: 21 hr 16 min 13 sec) 
 Total Blocks : 262144 Invalid Blocks : 0
Heartbeat CPU 2 instructions: 160000001 cycles: 186503561 heartbeat IPC: 0.800657 cumulative IPC: 0.857892 (Simulation time: 21 hr 22 min 29 sec) 
 Total Blocks : 262144 Invalid Blocks : 0
Heartbeat CPU 3 instructions: 160000001 cycles: 187136165 heartbeat IPC: 0.797894 cumulative IPC: 0.854992 (Simulation time: 21 hr 28 min 0 sec) 
 Total Blocks : 262144 Invalid Blocks : 0
Heartbeat CPU 4 instructions: 160000001 cycles: 187641839 heartbeat IPC: 0.795637 cumulative IPC: 0.852688 (Simulation time: 21 hr 32 min 8 sec) 
 Total Blocks : 262144 Invalid Blocks : 0
Heartbeat CPU 5 instructions: 160000001 cycles: 188241916 heartbeat IPC: 0.792754 cumulative IPC: 0.84997 (Simulation time: 21 hr 37 min 19 sec) 
 Total Blocks : 262144 Invalid Blocks : 0
Heartbeat CPU 6 instructions: 160000001 cycles: 188689459 heartbeat IPC: 0.790721 cumulative IPC: 0.847954 (Simulation time: 21 hr 41 min 11 sec) 
 Total Blocks : 262144 Invalid Blocks : 0
Heartbeat CPU 7 instructions: 160000001 cycles: 189169206 heartbeat IPC: 0.788568 cumulative IPC: 0.845804 (Simulation time: 21 hr 45 min 18 sec) 
 Total Blocks : 262144 Invalid Blocks : 0
Heartbeat CPU 0 instructions: 170000002 cycles: 197208940 heartbeat IPC: 0.811345 cumulative IPC: 0.86203 (Simulation time: 22 hr 54 min 12 sec) 
 Total Blocks : 262144 Invalid Blocks : 0
Heartbeat CPU 1 instructions: 170000002 cycles: 198174580 heartbeat IPC: 0.807094 cumulative IPC: 0.85783 (Simulation time: 23 hr 2 min 30 sec) 
 Total Blocks : 262144 Invalid Blocks : 0
Heartbeat CPU 2 instructions: 170000002 cycles: 198949534 heartbeat IPC: 0.803473 cumulative IPC: 0.854488 (Simulation time: 23 hr 8 min 0 sec) 
 Total Blocks : 262144 Invalid Blocks : 0
Heartbeat CPU 3 instructions: 170000002 cycles: 199625809 heartbeat IPC: 0.800663 cumulative IPC: 0.851593 (Simulation time: 23 hr 13 min 14 sec) 
 Total Blocks : 262144 Invalid Blocks : 0
Heartbeat CPU 4 instructions: 170000002 cycles: 200169023 heartbeat IPC: 0.798264 cumulative IPC: 0.849282 (Simulation time: 23 hr 16 min 46 sec) 
 Total Blocks : 262144 Invalid Blocks : 0
Heartbeat CPU 5 instructions: 170000002 cycles: 200811688 heartbeat IPC: 0.795559 cumulative IPC: 0.846564 (Simulation time: 23 hr 22 min 5 sec) 
 Total Blocks : 262144 Invalid Blocks : 0
Heartbeat CPU 6 instructions: 170000002 cycles: 201290823 heartbeat IPC: 0.793565 cumulative IPC: 0.844549 (Simulation time: 23 hr 25 min 55 sec) 
 Total Blocks : 262144 Invalid Blocks : 0
Heartbeat CPU 7 instructions: 170000002 cycles: 201805530 heartbeat IPC: 0.791369 cumulative IPC: 0.842395 (Simulation time: 23 hr 29 min 39 sec) 
 Total Blocks : 262144 Invalid Blocks : 0
Heartbeat CPU 0 instructions: 180000001 cycles: 209668768 heartbeat IPC: 0.802579 cumulative IPC: 0.858497 (Simulation time: 24 hr 39 min 23 sec) 
 Total Blocks : 262144 Invalid Blocks : 0
Heartbeat CPU 1 instructions: 180000001 cycles: 210695518 heartbeat IPC: 0.798662 cumulative IPC: 0.854313 (Simulation time: 24 hr 47 min 25 sec) 
 Total Blocks : 262144 Invalid Blocks : 0
Heartbeat CPU 2 instructions: 180000001 cycles: 211524132 heartbeat IPC: 0.795254 cumulative IPC: 0.850967 (Simulation time: 24 hr 55 min 1 sec) 
 Total Blocks : 262144 Invalid Blocks : 0
Heartbeat CPU 3 instructions: 180000001 cycles: 212246559 heartbeat IPC: 0.792346 cumulative IPC: 0.84807 (Simulation time: 25 hr 1 min 43 sec) 
 Total Blocks : 262144 Invalid Blocks : 0
Heartbeat CPU 4 instructions: 180000001 cycles: 212827092 heartbeat IPC: 0.79001 cumulative IPC: 0.845757 (Simulation time: 25 hr 7 min 5 sec) 
 Total Blocks : 262144 Invalid Blocks : 0
Heartbeat CPU 5 instructions: 180000001 cycles: 213511998 heartbeat IPC: 0.787382 cumulative IPC: 0.843044 (Simulation time: 25 hr 13 min 25 sec) 
 Total Blocks : 262144 Invalid Blocks : 0
Heartbeat CPU 6 instructions: 180000001 cycles: 214025100 heartbeat IPC: 0.785282 cumulative IPC: 0.841023 (Simulation time: 25 hr 18 min 12 sec) 
 Total Blocks : 262144 Invalid Blocks : 0
Heartbeat CPU 7 instructions: 180000001 cycles: 214572713 heartbeat IPC: 0.783258 cumulative IPC: 0.838876 (Simulation time: 25 hr 23 min 17 sec) 
 Total Blocks : 262144 Invalid Blocks : 0
Heartbeat CPU 0 instructions: 190000002 cycles: 219452022 heartbeat IPC: 1.02215 cumulative IPC: 0.865793 (Simulation time: 26 hr 8 min 14 sec) 
 Total Blocks : 262144 Invalid Blocks : 0
Heartbeat CPU 1 instructions: 190000002 cycles: 220497322 heartbeat IPC: 1.02022 cumulative IPC: 0.861688 (Simulation time: 26 hr 16 min 40 sec) 
 Total Blocks : 262144 Invalid Blocks : 0
Heartbeat CPU 2 instructions: 190000002 cycles: 221327876 heartbeat IPC: 1.02002 cumulative IPC: 0.858455 (Simulation time: 26 hr 22 min 46 sec) 
 Total Blocks : 262144 Invalid Blocks : 0
Heartbeat CPU 3 instructions: 190000002 cycles: 222040623 heartbeat IPC: 1.02103 cumulative IPC: 0.855699 (Simulation time: 26 hr 27 min 31 sec) 
 Total Blocks : 262144 Invalid Blocks : 0
Heartbeat CPU 4 instructions: 190000002 cycles: 222606385 heartbeat IPC: 1.02257 cumulative IPC: 0.853525 (Simulation time: 26 hr 30 min 58 sec) 
 Total Blocks : 262144 Invalid Blocks : 0
Heartbeat CPU 5 instructions: 190000002 cycles: 223269308 heartbeat IPC: 1.02487 cumulative IPC: 0.85099 (Simulation time: 26 hr 34 min 28 sec) 
 Total Blocks : 262144 Invalid Blocks : 0
Heartbeat CPU 6 instructions: 190000002 cycles: 223757675 heartbeat IPC: 1.02748 cumulative IPC: 0.849133 (Simulation time: 26 hr 36 min 41 sec) 
 Total Blocks : 262144 Invalid Blocks : 0
Heartbeat CPU 7 instructions: 190000002 cycles: 224281812 heartbeat IPC: 1.02996 cumulative IPC: 0.847148 (Simulation time: 26 hr 39 min 2 sec) 
 Total Blocks : 262144 Invalid Blocks : 0
Heartbeat CPU 0 instructions: 200000000 cycles: 224300070 heartbeat IPC: 2.06269 cumulative IPC: 0.891663 (Simulation time: 26 hr 39 min 7 sec) 
 Total Blocks : 262144 Invalid Blocks : 0
Heartbeat CPU 1 instructions: 200000000 cycles: 225359543 heartbeat IPC: 2.05667 cumulative IPC: 0.887471 (Simulation time: 26 hr 44 min 6 sec) 
 Total Blocks : 262144 Invalid Blocks : 0
Heartbeat CPU 2 instructions: 200000000 cycles: 226217670 heartbeat IPC: 2.04508 cumulative IPC: 0.884104 (Simulation time: 26 hr 47 min 53 sec) 
 Total Blocks : 262144 Invalid Blocks : 0
Heartbeat CPU 3 instructions: 200000000 cycles: 226967210 heartbeat IPC: 2.0298 cumulative IPC: 0.881185 (Simulation time: 26 hr 50 min 57 sec) 
 Total Blocks : 262144 Invalid Blocks : 0
Heartbeat CPU 4 instructions: 200000000 cycles: 227565970 heartbeat IPC: 2.0163 cumulative IPC: 0.878866 (Simulation time: 26 hr 52 min 39 sec) 
 Total Blocks : 262144 Invalid Blocks : 0
Heartbeat CPU 5 instructions: 200000000 cycles: 228267738 heartbeat IPC: 2.00063 cumulative IPC: 0.876164 (Simulation time: 26 hr 54 min 37 sec) 
 Total Blocks : 262144 Invalid Blocks : 0
Heartbeat CPU 6 instructions: 200000000 cycles: 228775372 heartbeat IPC: 1.99295 cumulative IPC: 0.87422 (Simulation time: 26 hr 56 min 2 sec) 
 Total Blocks : 262144 Invalid Blocks : 0
Heartbeat CPU 7 instructions: 200000000 cycles: 229313427 heartbeat IPC: 1.98743 cumulative IPC: 0.872169 (Simulation time: 26 hr 57 min 32 sec) 
 Total Blocks : 262144 Invalid Blocks : 0

Warmup complete CPU 0 instructions: 204185109 cycles: 229313428 (Simulation time: 26 hr 57 min 32 sec) 
Warmup complete CPU 1 instructions: 203245691 cycles: 229313428 (Simulation time: 26 hr 57 min 32 sec) 
Warmup complete CPU 2 instructions: 202504598 cycles: 229313428 (Simulation time: 26 hr 57 min 32 sec) 
Warmup complete CPU 3 instructions: 201884383 cycles: 229313428 (Simulation time: 26 hr 57 min 32 sec) 
Warmup complete CPU 4 instructions: 201394498 cycles: 229313428 (Simulation time: 26 hr 57 min 32 sec) 
Warmup complete CPU 5 instructions: 200831748 cycles: 229313428 (Simulation time: 26 hr 57 min 32 sec) 
Warmup complete CPU 6 instructions: 200418295 cycles: 229313428 (Simulation time: 26 hr 57 min 32 sec) 
Warmup complete CPU 7 instructions: 200000001 cycles: 229313428 (Simulation time: 26 hr 57 min 32 sec) 

Heartbeat CPU 0 instructions: 210000002 cycles: 486219837 heartbeat IPC: 0.0381796 cumulative IPC: 0.0226343 (Simulation time: 29 hr 30 min 34 sec) 
 Total Blocks : 262144 Invalid Blocks : 0
Heartbeat CPU 1 instructions: 210000002 cycles: 528696289 heartbeat IPC: 0.0329667 cumulative IPC: 0.0225608 (Simulation time: 29 hr 59 min 34 sec) 
 Total Blocks : 262144 Invalid Blocks : 0
Heartbeat CPU 2 instructions: 210000002 cycles: 562243011 heartbeat IPC: 0.0297597 cumulative IPC: 0.0225135 (Simulation time: 30 hr 22 min 28 sec) 
 Total Blocks : 262144 Invalid Blocks : 0
Heartbeat CPU 3 instructions: 210000002 cycles: 590629309 heartbeat IPC: 0.0274981 cumulative IPC: 0.0224613 (Simulation time: 30 hr 41 min 51 sec) 
 Total Blocks : 262144 Invalid Blocks : 0
Heartbeat CPU 4 instructions: 210000002 cycles: 611983615 heartbeat IPC: 0.0260134 cumulative IPC: 0.022488 (Simulation time: 30 hr 56 min 28 sec) 
 Total Blocks : 262144 Invalid Blocks : 0
Heartbeat CPU 5 instructions: 210000002 cycles: 637128468 heartbeat IPC: 0.0244582 cumulative IPC: 0.0224814 (Simulation time: 31 hr 13 min 39 sec) 
 Total Blocks : 262144 Invalid Blocks : 0
Heartbeat CPU 6 instructions: 210000002 cycles: 654260579 heartbeat IPC: 0.0235026 cumulative IPC: 0.022548 (Simulation time: 31 hr 25 min 21 sec) 
 Total Blocks : 262144 Invalid Blocks : 0
Heartbeat CPU 7 instructions: 210000002 cycles: 673840542 heartbeat IPC: 0.0224958 cumulative IPC: 0.0224958 (Simulation time: 31 hr 38 min 44 sec) 
 Total Blocks : 262144 Invalid Blocks : 0
Heartbeat CPU 0 instructions: 220000000 cycles: 928583492 heartbeat IPC: 0.0226058 cumulative IPC: 0.0226163 (Simulation time: 34 hr 26 min 0 sec) 
 Total Blocks : 262144 Invalid Blocks : 0
Heartbeat CPU 1 instructions: 220000000 cycles: 969979421 heartbeat IPC: 0.0226612 cumulative IPC: 0.0226206 (Simulation time: 34 hr 52 min 48 sec) 
 Total Blocks : 262144 Invalid Blocks : 0
Heartbeat CPU 2 instructions: 220000000 cycles: 1004294218 heartbeat IPC: 0.0226218 cumulative IPC: 0.0225753 (Simulation time: 35 hr 15 min 2 sec) 
 Total Blocks : 262144 Invalid Blocks : 0
Heartbeat CPU 3 instructions: 220000000 cycles: 1032224604 heartbeat IPC: 0.0226452 cumulative IPC: 0.0225624 (Simulation time: 35 hr 33 min 8 sec) 
 Total Blocks : 262144 Invalid Blocks : 0
Heartbeat CPU 4 instructions: 220000000 cycles: 1053222519 heartbeat IPC: 0.0226635 cumulative IPC: 0.022582 (Simulation time: 35 hr 46 min 45 sec) 
 Total Blocks : 262144 Invalid Blocks : 0
Heartbeat CPU 5 instructions: 220000000 cycles: 1079928733 heartbeat IPC: 0.0225835 cumulative IPC: 0.0225346 (Simulation time: 36 hr 4 min 2 sec) 
 Total Blocks : 262144 Invalid Blocks : 0
Heartbeat CPU 6 instructions: 220000000 cycles: 1095373731 heartbeat IPC: 0.0226699 cumulative IPC: 0.0226101 (Simulation time: 36 hr 14 min 3 sec) 
 Total Blocks : 262144 Invalid Blocks : 0
Heartbeat CPU 7 instructions: 220000000 cycles: 1114417358 heartbeat IPC: 0.0226975 cumulative IPC: 0.0225962 (Simulation time: 36 hr 26 min 23 sec) 
 Total Blocks : 262144 Invalid Blocks : 0
Heartbeat CPU 0 instructions: 230000003 cycles: 1378970967 heartbeat IPC: 0.0222031 cumulative IPC: 0.0224544 (Simulation time: 39 hr 17 min 35 sec) 
 Total Blocks : 262144 Invalid Blocks : 0
Heartbeat CPU 1 instructions: 230000003 cycles: 1419054829 heartbeat IPC: 0.022268 cumulative IPC: 0.0224875 (Simulation time: 39 hr 43 min 32 sec) 
 Total Blocks : 262144 Invalid Blocks : 0
Heartbeat CPU 2 instructions: 230000003 cycles: 1452401206 heartbeat IPC: 0.0223161 cumulative IPC: 0.0224803 (Simulation time: 40 hr 5 min 7 sec) 
 Total Blocks : 262144 Invalid Blocks : 0
Heartbeat CPU 3 instructions: 230000003 cycles: 1480315681 heartbeat IPC: 0.0223169 cumulative IPC: 0.0224745 (Simulation time: 40 hr 23 min 11 sec) 
 Total Blocks : 262144 Invalid Blocks : 0
Heartbeat CPU 4 instructions: 230000003 cycles: 1500977214 heartbeat IPC: 0.0223337 cumulative IPC: 0.0224946 (Simulation time: 40 hr 36 min 33 sec) 
 Total Blocks : 262144 Invalid Blocks : 0
Heartbeat CPU 5 instructions: 230000003 cycles: 1528226393 heartbeat IPC: 0.0223066 cumulative IPC: 0.0224559 (Simulation time: 40 hr 54 min 11 sec) 
 Total Blocks : 262144 Invalid Blocks : 0
Heartbeat CPU 6 instructions: 230000003 cycles: 1543427709 heartbeat IPC: 0.0223187 cumulative IPC: 0.0225108 (Simulation time: 41 hr 4 min 0 sec) 
 Total Blocks : 262144 Invalid Blocks : 0
Heartbeat CPU 7 instructions: 230000003 cycles: 1563620482 heartbeat IPC: 0.0222617 cumulative IPC: 0.0224836 (Simulation time: 41 hr 17 min 3 sec) 
 Total Blocks : 262144 Invalid Blocks : 0
Heartbeat CPU 0 instructions: 240000002 cycles: 1827432584 heartbeat IPC: 0.0222984 cumulative IPC: 0.0224107 (Simulation time: 44 hr 7 min 30 sec) 
 Total Blocks : 262144 Invalid Blocks : 0
Heartbeat CPU 1 instructions: 240000002 cycles: 1869236873 heartbeat IPC: 0.0222132 cumulative IPC: 0.0224122 (Simulation time: 44 hr 34 min 33 sec) 
 Total Blocks : 262144 Invalid Blocks : 0
Heartbeat CPU 2 instructions: 240000002 cycles: 1902473556 heartbeat IPC: 0.0222186 cumulative IPC: 0.0224099 (Simulation time: 44 hr 56 min 5 sec) 
 Total Blocks : 262144 Invalid Blocks : 0
Heartbeat CPU 3 instructions: 240000002 cycles: 1929204266 heartbeat IPC: 0.0222772 cumulative IPC: 0.0224224 (Simulation time: 45 hr 13 min 25 sec) 
 Total Blocks : 262144 Invalid Blocks : 0
Heartbeat CPU 4 instructions: 240000002 cycles: 1950245247 heartbeat IPC: 0.0222584 cumulative IPC: 0.0224329 (Simulation time: 45 hr 27 min 1 sec) 
 Total Blocks : 262144 Invalid Blocks : 0
Heartbeat CPU 5 instructions: 240000002 cycles: 1977647274 heartbeat IPC: 0.0222509 cumulative IPC: 0.0224032 (Simulation time: 45 hr 44 min 50 sec) 
 Total Blocks : 262144 Invalid Blocks : 0
Heartbeat CPU 6 instructions: 240000002 cycles: 1992468701 heartbeat IPC: 0.0222697 cumulative IPC: 0.0224494 (Simulation time: 45 hr 54 min 25 sec) 
 Total Blocks : 262144 Invalid Blocks : 0
Heartbeat CPU 7 instructions: 240000002 cycles: 2011749542 heartbeat IPC: 0.022315 cumulative IPC: 0.0224412 (Simulation time: 46 hr 6 min 57 sec) 
 Total Blocks : 262144 Invalid Blocks : 0
Heartbeat CPU 0 instructions: 250000000 cycles: 2264074758 heartbeat IPC: 0.022902 cumulative IPC: 0.0225161 (Simulation time: 48 hr 50 min 10 sec) 
 Total Blocks : 262144 Invalid Blocks : 0
Heartbeat CPU 1 instructions: 250000000 cycles: 2305509811 heartbeat IPC: 0.0229214 cumulative IPC: 0.0225192 (Simulation time: 49 hr 16 min 58 sec) 
 Total Blocks : 262144 Invalid Blocks : 0
Heartbeat CPU 2 instructions: 250000000 cycles: 2338867468 heartbeat IPC: 0.0229151 cumulative IPC: 0.0225144 (Simulation time: 49 hr 38 min 33 sec) 
 Total Blocks : 262144 Invalid Blocks : 0
Heartbeat CPU 3 instructions: 250000000 cycles: 2365943853 heartbeat IPC: 0.0228969 cumulative IPC: 0.0225194 (Simulation time: 49 hr 56 min 3 sec) 
 Total Blocks : 262144 Invalid Blocks : 0
Heartbeat CPU 4 instructions: 250000000 cycles: 2386628989 heartbeat IPC: 0.0229156 cumulative IPC: 0.0225305 (Simulation time: 50 hr 9 min 26 sec) 
 Total Blocks : 262144 Invalid Blocks : 0
Heartbeat CPU 5 instructions: 250000000 cycles: 2414009448 heartbeat IPC: 0.0229167 cumulative IPC: 0.0225058 (Simulation time: 50 hr 27 min 8 sec) 
 Total Blocks : 262144 Invalid Blocks : 0
Heartbeat CPU 6 instructions: 250000000 cycles: 2428470406 heartbeat IPC: 0.0229357 cumulative IPC: 0.0225458 (Simulation time: 50 hr 36 min 29 sec) 
 Total Blocks : 262144 Invalid Blocks : 0
Heartbeat CPU 7 instructions: 250000000 cycles: 2448190149 heartbeat IPC: 0.0229126 cumulative IPC: 0.0225339 (Simulation time: 50 hr 49 min 14 sec) 
 Total Blocks : 262144 Invalid Blocks : 0
Heartbeat CPU 0 instructions: 260000001 cycles: 2707638966 heartbeat IPC: 0.0225447 cumulative IPC: 0.0225212 (Simulation time: 53 hr 37 min 2 sec) 
 Total Blocks : 262144 Invalid Blocks : 0
Heartbeat CPU 1 instructions: 260000001 cycles: 2749933320 heartbeat IPC: 0.0225011 cumulative IPC: 0.022516 (Simulation time: 54 hr 4 min 22 sec) 
 Total Blocks : 262144 Invalid Blocks : 0
Heartbeat CPU 2 instructions: 260000001 cycles: 2782222014 heartbeat IPC: 0.0225553 cumulative IPC: 0.0225215 (Simulation time: 54 hr 25 min 14 sec) 
 Total Blocks : 262144 Invalid Blocks : 0
Heartbeat CPU 3 instructions: 260000001 cycles: 2810187558 heartbeat IPC: 0.0225102 cumulative IPC: 0.0225178 (Simulation time: 54 hr 43 min 18 sec) 
 Total Blocks : 262144 Invalid Blocks : 0
Heartbeat CPU 4 instructions: 260000001 cycles: 2830474765 heartbeat IPC: 0.0225304 cumulative IPC: 0.0225305 (Simulation time: 54 hr 56 min 24 sec) 
 Total Blocks : 262144 Invalid Blocks : 0
Heartbeat CPU 5 instructions: 260000001 cycles: 2858435057 heartbeat IPC: 0.022501 cumulative IPC: 0.0225049 (Simulation time: 55 hr 14 min 29 sec) 
 Total Blocks : 262144 Invalid Blocks : 0
Heartbeat CPU 6 instructions: 260000001 cycles: 2872163203 heartbeat IPC: 0.0225381 cumulative IPC: 0.0225445 (Simulation time: 55 hr 23 min 20 sec) 
 Total Blocks : 262144 Invalid Blocks : 0
Heartbeat CPU 7 instructions: 260000001 cycles: 2892607689 heartbeat IPC: 0.0225014 cumulative IPC: 0.0225285 (Simulation time: 55 hr 36 min 34 sec) 
 Total Blocks : 262144 Invalid Blocks : 0
Heartbeat CPU 0 instructions: 270000000 cycles: 3154141751 heartbeat IPC: 0.0223963 cumulative IPC: 0.0225021 (Simulation time: 58 hr 10 min 26 sec) 
 Total Blocks : 262144 Invalid Blocks : 0
Heartbeat CPU 1 instructions: 270000000 cycles: 3196600764 heartbeat IPC: 0.022388 cumulative IPC: 0.0224967 (Simulation time: 58 hr 26 min 34 sec) 
 Total Blocks : 262144 Invalid Blocks : 0
Heartbeat CPU 2 instructions: 270000000 cycles: 3229617885 heartbeat IPC: 0.0223516 cumulative IPC: 0.0224962 (Simulation time: 58 hr 39 min 7 sec) 
 Total Blocks : 262144 Invalid Blocks : 0
Heartbeat CPU 3 instructions: 270000000 cycles: 3256457000 heartbeat IPC: 0.022408 cumulative IPC: 0.0225016 (Simulation time: 58 hr 49 min 19 sec) 
 Total Blocks : 262144 Invalid Blocks : 0
Heartbeat CPU 4 instructions: 270000000 cycles: 3275789694 heartbeat IPC: 0.022456 cumulative IPC: 0.0225196 (Simulation time: 58 hr 56 min 40 sec) 
 Total Blocks : 262144 Invalid Blocks : 0
Heartbeat CPU 5 instructions: 270000000 cycles: 3304329890 heartbeat IPC: 0.0224268 cumulative IPC: 0.0224936 (Simulation time: 59 hr 7 min 31 sec) 
 Total Blocks : 262144 Invalid Blocks : 0
Heartbeat CPU 6 instructions: 270000000 cycles: 3317176731 heartbeat IPC: 0.0224712 cumulative IPC: 0.0225339 (Simulation time: 59 hr 12 min 24 sec) 
 Total Blocks : 262144 Invalid Blocks : 0
Heartbeat CPU 7 instructions: 270000000 cycles: 3337106583 heartbeat IPC: 0.0224972 cumulative IPC: 0.022524 (Simulation time: 59 hr 19 min 58 sec) 
 Total Blocks : 262144 Invalid Blocks : 0
Heartbeat CPU 0 instructions: 280000002 cycles: 3599523993 heartbeat IPC: 0.0224526 cumulative IPC: 0.0224956 (Simulation time: 60 hr 59 min 8 sec) 
 Total Blocks : 262144 Invalid Blocks : 0
Heartbeat CPU 1 instructions: 280000002 cycles: 3642101570 heartbeat IPC: 0.0224467 cumulative IPC: 0.0224902 (Simulation time: 61 hr 15 min 11 sec) 
 Total Blocks : 262144 Invalid Blocks : 0
Heartbeat CPU 2 instructions: 280000002 cycles: 3675006884 heartbeat IPC: 0.0224523 cumulative IPC: 0.0224905 (Simulation time: 61 hr 27 min 36 sec) 
 Total Blocks : 262144 Invalid Blocks : 0
Heartbeat CPU 3 instructions: 280000002 cycles: 3702472264 heartbeat IPC: 0.0224208 cumulative IPC: 0.0224912 (Simulation time: 61 hr 37 min 58 sec) 
 Total Blocks : 262144 Invalid Blocks : 0
Heartbeat CPU 4 instructions: 280000002 cycles: 3721868658 heartbeat IPC: 0.0224176 cumulative IPC: 0.0225066 (Simulation time: 61 hr 45 min 16 sec) 
 Total Blocks : 262144 Invalid Blocks : 0
Heartbeat CPU 5 instructions: 280000002 cycles: 3751368502 heartbeat IPC: 0.0223694 cumulative IPC: 0.0224779 (Simulation time: 61 hr 56 min 24 sec) 
 Total Blocks : 262144 Invalid Blocks : 0
Heartbeat CPU 6 instructions: 280000002 cycles: 3763413863 heartbeat IPC: 0.0224096 cumulative IPC: 0.0225182 (Simulation time: 62 hr 0 min 56 sec) 
 Total Blocks : 262144 Invalid Blocks : 0
Heartbeat CPU 7 instructions: 280000002 cycles: 3783028303 heartbeat IPC: 0.0224255 cumulative IPC: 0.0225117 (Simulation time: 62 hr 8 min 19 sec) 
 Total Blocks : 262144 Invalid Blocks : 0
Heartbeat CPU 0 instructions: 290000002 cycles: 4043633298 heartbeat IPC: 0.022517 cumulative IPC: 0.0224981 (Simulation time: 63 hr 46 min 36 sec) 
 Total Blocks : 262144 Invalid Blocks : 0
Heartbeat CPU 1 instructions: 290000002 cycles: 4085647473 heartbeat IPC: 0.0225456 cumulative IPC: 0.0224966 (Simulation time: 64 hr 2 min 26 sec) 
 Total Blocks : 262144 Invalid Blocks : 0
Heartbeat CPU 2 instructions: 290000002 cycles: 4118584401 heartbeat IPC: 0.022544 cumulative IPC: 0.0224966 (Simulation time: 64 hr 14 min 52 sec) 
 Total Blocks : 262144 Invalid Blocks : 0
Heartbeat CPU 3 instructions: 290000002 cycles: 4145020528 heartbeat IPC: 0.0225964 cumulative IPC: 0.0225031 (Simulation time: 64 hr 24 min 50 sec) 
 Total Blocks : 262144 Invalid Blocks : 0
Heartbeat CPU 4 instructions: 290000002 cycles: 4164100871 heartbeat IPC: 0.0226126 cumulative IPC: 0.0225185 (Simulation time: 64 hr 32 min 2 sec) 
 Total Blocks : 262144 Invalid Blocks : 0
Heartbeat CPU 5 instructions: 290000002 cycles: 4194522852 heartbeat IPC: 0.0225655 cumulative IPC: 0.0224877 (Simulation time: 64 hr 43 min 31 sec) 
 Total Blocks : 262144 Invalid Blocks : 0
Heartbeat CPU 6 instructions: 290000002 cycles: 4205492788 heartbeat IPC: 0.0226204 cumulative IPC: 0.0225296 (Simulation time: 64 hr 47 min 39 sec) 
 Total Blocks : 262144 Invalid Blocks : 0
Heartbeat CPU 7 instructions: 290000002 cycles: 4224215561 heartbeat IPC: 0.0226661 cumulative IPC: 0.0225287 (Simulation time: 64 hr 54 min 44 sec) 
 Total Blocks : 262144 Invalid Blocks : 0
Heartbeat CPU 0 instructions: 300000002 cycles: 4494289948 heartbeat IPC: 0.0221898 cumulative IPC: 0.0224655 (Simulation time: 66 hr 36 min 28 sec) 
 Total Blocks : 262144 Invalid Blocks : 0
Heartbeat CPU 1 instructions: 300000002 cycles: 4537730084 heartbeat IPC: 0.0221199 cumulative IPC: 0.022457 (Simulation time: 66 hr 52 min 48 sec) 
 Total Blocks : 262144 Invalid Blocks : 0
Heartbeat CPU 2 instructions: 300000002 cycles: 4569454801 heartbeat IPC: 0.0221793 cumulative IPC: 0.0224636 (Simulation time: 67 hr 4 min 45 sec) 
 Total Blocks : 262144 Invalid Blocks : 0
Heartbeat CPU 3 instructions: 300000002 cycles: 4597909781 heartbeat IPC: 0.0220805 cumulative IPC: 0.0224593 (Simulation time: 67 hr 15 min 26 sec) 
 Total Blocks : 262144 Invalid Blocks : 0
Heartbeat CPU 4 instructions: 300000002 cycles: 4615332130 heartbeat IPC: 0.0221616 cumulative IPC: 0.0224818 (Simulation time: 67 hr 22 min 0 sec) 
 Total Blocks : 262144 Invalid Blocks : 0
Heartbeat CPU 5 instructions: 300000002 cycles: 4647155108 heartbeat IPC: 0.022093 cumulative IPC: 0.0224472 (Simulation time: 67 hr 34 min 0 sec) 
 Total Blocks : 262144 Invalid Blocks : 0
Heartbeat CPU 6 instructions: 300000002 cycles: 4657430381 heartbeat IPC: 0.0221269 cumulative IPC: 0.0224885 (Simulation time: 67 hr 37 min 52 sec) 
 Total Blocks : 262144 Invalid Blocks : 0
Heartbeat CPU 7 instructions: 300000002 cycles: 4676243743 heartbeat IPC: 0.0221225 cumulative IPC: 0.0224874 (Simulation time: 67 hr 44 min 57 sec) 
 Total Blocks : 262144 Invalid Blocks : 0
Heartbeat CPU 0 instructions: 310000000 cycles: 4939782672 heartbeat IPC: 0.0224471 cumulative IPC: 0.0224638 (Simulation time: 69 hr 24 min 11 sec) 
 Total Blocks : 262144 Invalid Blocks : 0
Heartbeat CPU 1 instructions: 310000000 cycles: 4983761450 heartbeat IPC: 0.0224199 cumulative IPC: 0.0224536 (Simulation time: 69 hr 40 min 45 sec) 
 Total Blocks : 262144 Invalid Blocks : 0
Heartbeat CPU 2 instructions: 310000000 cycles: 5015171662 heartbeat IPC: 0.0224358 cumulative IPC: 0.0224611 (Simulation time: 69 hr 52 min 35 sec) 
 Total Blocks : 262144 Invalid Blocks : 0
Heartbeat CPU 3 instructions: 310000000 cycles: 5043042056 heartbeat IPC: 0.0224652 cumulative IPC: 0.0224598 (Simulation time: 70 hr 3 min 4 sec) 
 Total Blocks : 262144 Invalid Blocks : 0
Heartbeat CPU 4 instructions: 310000000 cycles: 5059494508 heartbeat IPC: 0.0225143 cumulative IPC: 0.0224848 (Simulation time: 70 hr 9 min 16 sec) 
 Total Blocks : 262144 Invalid Blocks : 0
Heartbeat CPU 5 instructions: 310000000 cycles: 5092234516 heartbeat IPC: 0.0224679 cumulative IPC: 0.0224491 (Simulation time: 70 hr 21 min 34 sec) 
 Total Blocks : 262144 Invalid Blocks : 0
Heartbeat CPU 6 instructions: 310000000 cycles: 5101783316 heartbeat IPC: 0.0225046 cumulative IPC: 0.02249 (Simulation time: 70 hr 25 min 9 sec) 
 Total Blocks : 262144 Invalid Blocks : 0
Heartbeat CPU 7 instructions: 310000000 cycles: 5120645283 heartbeat IPC: 0.0225022 cumulative IPC: 0.0224888 (Simulation time: 70 hr 32 min 15 sec) 
 Total Blocks : 262144 Invalid Blocks : 0
Heartbeat CPU 0 instructions: 320000000 cycles: 5386460927 heartbeat IPC: 0.0223875 cumulative IPC: 0.0224572 (Simulation time: 72 hr 12 min 16 sec) 
 Total Blocks : 262144 Invalid Blocks : 0
Heartbeat CPU 1 instructions: 320000000 cycles: 5429461247 heartbeat IPC: 0.0224366 cumulative IPC: 0.0224521 (Simulation time: 72 hr 28 min 27 sec) 
 Total Blocks : 262144 Invalid Blocks : 0
Heartbeat CPU 2 instructions: 320000000 cycles: 5461550960 heartbeat IPC: 0.0224025 cumulative IPC: 0.0224561 (Simulation time: 72 hr 40 min 32 sec) 
 Total Blocks : 262144 Invalid Blocks : 0
Heartbeat CPU 3 instructions: 320000000 cycles: 5488523236 heartbeat IPC: 0.0224476 cumulative IPC: 0.0224588 (Simulation time: 72 hr 50 min 42 sec) 
 Total Blocks : 262144 Invalid Blocks : 0
Heartbeat CPU 4 instructions: 320000000 cycles: 5504667603 heartbeat IPC: 0.0224632 cumulative IPC: 0.0224829 (Simulation time: 72 hr 56 min 47 sec) 
 Total Blocks : 262144 Invalid Blocks : 0
Heartbeat CPU 5 instructions: 320000000 cycles: 5537430104 heartbeat IPC: 0.022462 cumulative IPC: 0.0224502 (Simulation time: 73 hr 9 min 8 sec) 
 Total Blocks : 262144 Invalid Blocks : 0
Heartbeat CPU 6 instructions: 320000000 cycles: 5546638669 heartbeat IPC: 0.0224792 cumulative IPC: 0.0224891 (Simulation time: 73 hr 12 min 36 sec) 
 Total Blocks : 262144 Invalid Blocks : 0
Heartbeat CPU 7 instructions: 320000000 cycles: 5565417575 heartbeat IPC: 0.0224834 cumulative IPC: 0.0224883 (Simulation time: 73 hr 19 min 40 sec) 
 Total Blocks : 262144 Invalid Blocks : 0
Heartbeat CPU 0 instructions: 330000000 cycles: 5830796170 heartbeat IPC: 0.0225055 cumulative IPC: 0.022461 (Simulation time: 74 hr 59 min 29 sec) 
 Total Blocks : 262144 Invalid Blocks : 0
Heartbeat CPU 1 instructions: 330000000 cycles: 5874285638 heartbeat IPC: 0.0224808 cumulative IPC: 0.0224544 (Simulation time: 75 hr 15 min 50 sec) 
 Total Blocks : 262144 Invalid Blocks : 0
Heartbeat CPU 2 instructions: 330000000 cycles: 5906632428 heartbeat IPC: 0.0224678 cumulative IPC: 0.022457 (Simulation time: 75 hr 27 min 59 sec) 
 Total Blocks : 262144 Invalid Blocks : 0
Heartbeat CPU 3 instructions: 330000000 cycles: 5933554404 heartbeat IPC: 0.0224703 cumulative IPC: 0.0224597 (Simulation time: 75 hr 38 min 6 sec) 
 Total Blocks : 262144 Invalid Blocks : 0
Heartbeat CPU 4 instructions: 330000000 cycles: 5948198305 heartbeat IPC: 0.0225464 cumulative IPC: 0.0224879 (Simulation time: 75 hr 43 min 37 sec) 
 Total Blocks : 262144 Invalid Blocks : 0
Heartbeat CPU 5 instructions: 330000000 cycles: 5982448473 heartbeat IPC: 0.022471 cumulative IPC: 0.0224518 (Simulation time: 75 hr 56 min 30 sec) 
 Total Blocks : 262144 Invalid Blocks : 0
Heartbeat CPU 6 instructions: 330000000 cycles: 5990487695 heartbeat IPC: 0.0225302 cumulative IPC: 0.0224922 (Simulation time: 75 hr 59 min 32 sec) 
 Total Blocks : 262144 Invalid Blocks : 0
Heartbeat CPU 7 instructions: 330000000 cycles: 6009296984 heartbeat IPC: 0.0225286 cumulative IPC: 0.0224914 (Simulation time: 76 hr 6 min 37 sec) 
 Total Blocks : 262144 Invalid Blocks : 0
Heartbeat CPU 0 instructions: 340000000 cycles: 6279604560 heartbeat IPC: 0.0222812 cumulative IPC: 0.0224477 (Simulation time: 77 hr 48 min 17 sec) 
 Total Blocks : 262144 Invalid Blocks : 0
Heartbeat CPU 1 instructions: 340000000 cycles: 6323104446 heartbeat IPC: 0.0222807 cumulative IPC: 0.0224416 (Simulation time: 78 hr 4 min 41 sec) 
 Total Blocks : 262144 Invalid Blocks : 0
Heartbeat CPU 2 instructions: 340000000 cycles: 6356247675 heartbeat IPC: 0.0222412 cumulative IPC: 0.0224411 (Simulation time: 78 hr 17 min 9 sec) 
 Total Blocks : 262144 Invalid Blocks : 0
Heartbeat CPU 3 instructions: 340000000 cycles: 6382868647 heartbeat IPC: 0.0222561 cumulative IPC: 0.0224448 (Simulation time: 78 hr 27 min 9 sec) 
 Total Blocks : 262144 Invalid Blocks : 0
Heartbeat CPU 4 instructions: 340000000 cycles: 6397431655 heartbeat IPC: 0.0222601 cumulative IPC: 0.0224713 (Simulation time: 78 hr 32 min 38 sec) 
 Total Blocks : 262144 Invalid Blocks : 0
Heartbeat CPU 5 instructions: 340000000 cycles: 6432972882 heartbeat IPC: 0.0221964 cumulative IPC: 0.0224333 (Simulation time: 78 hr 46 min 0 sec) 
 Total Blocks : 262144 Invalid Blocks : 0
Heartbeat CPU 6 instructions: 340000000 cycles: 6439423675 heartbeat IPC: 0.0222749 cumulative IPC: 0.0224765 (Simulation time: 78 hr 48 min 25 sec) 
 Total Blocks : 262144 Invalid Blocks : 0
Heartbeat CPU 7 instructions: 340000000 cycles: 6459577163 heartbeat IPC: 0.0222084 cumulative IPC: 0.022471 (Simulation time: 78 hr 56 min 0 sec) 
 Total Blocks : 262144 Invalid Blocks : 0
Heartbeat CPU 0 instructions: 350000003 cycles: 6725924947 heartbeat IPC: 0.0224054 cumulative IPC: 0.0224448 (Simulation time: 80 hr 36 min 19 sec) 
 Total Blocks : 262144 Invalid Blocks : 0
Heartbeat CPU 1 instructions: 350000003 cycles: 6769932341 heartbeat IPC: 0.02238 cumulative IPC: 0.0224374 (Simulation time: 80 hr 52 min 52 sec) 
 Total Blocks : 262144 Invalid Blocks : 0
Heartbeat CPU 2 instructions: 350000003 cycles: 6803613092 heartbeat IPC: 0.0223531 cumulative IPC: 0.0224352 (Simulation time: 81 hr 5 min 33 sec) 
 Total Blocks : 262144 Invalid Blocks : 0
Heartbeat CPU 3 instructions: 350000003 cycles: 6827850970 heartbeat IPC: 0.0224728 cumulative IPC: 0.0224467 (Simulation time: 81 hr 14 min 39 sec) 
 Total Blocks : 262144 Invalid Blocks : 0
Heartbeat CPU 4 instructions: 350000003 cycles: 6842160596 heartbeat IPC: 0.0224856 cumulative IPC: 0.0224722 (Simulation time: 81 hr 20 min 3 sec) 
 Total Blocks : 262144 Invalid Blocks : 0
Heartbeat CPU 5 instructions: 350000003 cycles: 6878647246 heartbeat IPC: 0.0224379 cumulative IPC: 0.0224336 (Simulation time: 81 hr 33 min 47 sec) 
 Total Blocks : 262144 Invalid Blocks : 0
Heartbeat CPU 6 instructions: 350000003 cycles: 6883035736 heartbeat IPC: 0.0225422 cumulative IPC: 0.0224809 (Simulation time: 81 hr 35 min 26 sec) 
 Total Blocks : 262144 Invalid Blocks : 0
Heartbeat CPU 7 instructions: 350000003 cycles: 6902384002 heartbeat IPC: 0.0225832 cumulative IPC: 0.0224784 (Simulation time: 81 hr 42 min 43 sec) 
 Total Blocks : 262144 Invalid Blocks : 0
Heartbeat CPU 0 instructions: 360000000 cycles: 7171645661 heartbeat IPC: 0.0224356 cumulative IPC: 0.0224442 (Simulation time: 83 hr 24 min 1 sec) 
 Total Blocks : 262144 Invalid Blocks : 0
Heartbeat CPU 1 instructions: 360000000 cycles: 7215341049 heartbeat IPC: 0.0224513 cumulative IPC: 0.0224383 (Simulation time: 83 hr 40 min 28 sec) 
 Total Blocks : 262144 Invalid Blocks : 0
Heartbeat CPU 2 instructions: 360000000 cycles: 7249466196 heartbeat IPC: 0.0224289 cumulative IPC: 0.0224348 (Simulation time: 83 hr 53 min 17 sec) 
 Total Blocks : 262144 Invalid Blocks : 0
Heartbeat CPU 3 instructions: 360000000 cycles: 7273370958 heartbeat IPC: 0.0224457 cumulative IPC: 0.0224467 (Simulation time: 84 hr 2 min 16 sec) 
 Total Blocks : 262144 Invalid Blocks : 0
Heartbeat CPU 4 instructions: 360000000 cycles: 7287265412 heartbeat IPC: 0.0224666 cumulative IPC: 0.0224719 (Simulation time: 84 hr 7 min 30 sec) 
 Total Blocks : 262144 Invalid Blocks : 0
Heartbeat CPU 5 instructions: 360000000 cycles: 7325045439 heartbeat IPC: 0.0224015 cumulative IPC: 0.0224315 (Simulation time: 84 hr 21 min 42 sec) 
 Total Blocks : 262144 Invalid Blocks : 0
Heartbeat CPU 6 instructions: 360000000 cycles: 7327933448 heartbeat IPC: 0.0224771 cumulative IPC: 0.0224807 (Simulation time: 84 hr 22 min 47 sec) 
 Total Blocks : 262144 Invalid Blocks : 0
Heartbeat CPU 7 instructions: 360000000 cycles: 7348250931 heartbeat IPC: 0.0224282 cumulative IPC: 0.0224753 (Simulation time: 84 hr 30 min 25 sec) 
 Total Blocks : 262144 Invalid Blocks : 0
Heartbeat CPU 0 instructions: 370000001 cycles: 7618110886 heartbeat IPC: 0.0223982 cumulative IPC: 0.0224414 (Simulation time: 86 hr 11 min 52 sec) 
 Total Blocks : 262144 Invalid Blocks : 0
Heartbeat CPU 1 instructions: 370000001 cycles: 7661969773 heartbeat IPC: 0.02239 cumulative IPC: 0.0224354 (Simulation time: 86 hr 28 min 20 sec) 
 Total Blocks : 262144 Invalid Blocks : 0
Heartbeat CPU 2 instructions: 370000001 cycles: 7696283080 heartbeat IPC: 0.0223805 cumulative IPC: 0.0224315 (Simulation time: 86 hr 41 min 13 sec) 
 Total Blocks : 262144 Invalid Blocks : 0
Heartbeat CPU 3 instructions: 370000001 cycles: 7721097669 heartbeat IPC: 0.0223351 cumulative IPC: 0.02244 (Simulation time: 86 hr 50 min 32 sec) 
 Total Blocks : 262144 Invalid Blocks : 0
Heartbeat CPU 4 instructions: 370000001 cycles: 7733095759 heartbeat IPC: 0.0224301 cumulative IPC: 0.0224694 (Simulation time: 86 hr 55 min 3 sec) 
 Total Blocks : 262144 Invalid Blocks : 0
Heartbeat CPU 5 instructions: 370000001 cycles: 7772041607 heartbeat IPC: 0.0223716 cumulative IPC: 0.022428 (Simulation time: 87 hr 9 min 41 sec) 
 Total Blocks : 262144 Invalid Blocks : 0
Heartbeat CPU 6 instructions: 370000001 cycles: 7774832057 heartbeat IPC: 0.0223764 cumulative IPC: 0.0224745 (Simulation time: 87 hr 10 min 44 sec) 
 Total Blocks : 262144 Invalid Blocks : 0
Heartbeat CPU 7 instructions: 370000001 cycles: 7793684090 heartbeat IPC: 0.0224501 cumulative IPC: 0.0224738 (Simulation time: 87 hr 17 min 49 sec) 
 Total Blocks : 262144 Invalid Blocks : 0
Heartbeat CPU 0 instructions: 380000002 cycles: 7809283348 heartbeat IPC: 0.0523088 cumulative IPC: 0.0231947 (Simulation time: 87 hr 24 min 14 sec) 
 Total Blocks : 262144 Invalid Blocks : 0
Heartbeat CPU 1 instructions: 380000002 cycles: 7854874301 heartbeat IPC: 0.0518391 cumulative IPC: 0.0231792 (Simulation time: 87 hr 42 min 24 sec) 
 Total Blocks : 262144 Invalid Blocks : 0
Heartbeat CPU 2 instructions: 380000002 cycles: 7891175630 heartbeat IPC: 0.0513103 cumulative IPC: 0.0231661 (Simulation time: 87 hr 57 min 4 sec) 
 Total Blocks : 262144 Invalid Blocks : 0
Heartbeat CPU 3 instructions: 380000002 cycles: 7916937183 heartbeat IPC: 0.0510622 cumulative IPC: 0.0231691 (Simulation time: 88 hr 7 min 47 sec) 
 Total Blocks : 262144 Invalid Blocks : 0
Heartbeat CPU 4 instructions: 380000002 cycles: 7931889397 heartbeat IPC: 0.0503034 cumulative IPC: 0.0231878 (Simulation time: 88 hr 14 min 26 sec) 
 Total Blocks : 262144 Invalid Blocks : 0
Heartbeat CPU 5 instructions: 380000002 cycles: 7974595750 heartbeat IPC: 0.0493695 cumulative IPC: 0.0231326 (Simulation time: 88 hr 31 min 57 sec) 
 Total Blocks : 262144 Invalid Blocks : 0
Heartbeat CPU 6 instructions: 380000002 cycles: 7976650641 heartbeat IPC: 0.0495495 cumulative IPC: 0.0231798 (Simulation time: 88 hr 32 min 57 sec) 
 Total Blocks : 262144 Invalid Blocks : 0
Heartbeat CPU 7 instructions: 380000002 cycles: 7998726334 heartbeat IPC: 0.0487704 cumulative IPC: 0.0231678 (Simulation time: 88 hr 42 min 39 sec) 
 Total Blocks : 262144 Invalid Blocks : 0
Heartbeat CPU 0 instructions: 390000000 cycles: 8030835678 heartbeat IPC: 0.0451361 cumulative IPC: 0.0238178 (Simulation time: 88 hr 55 min 11 sec) 
 Total Blocks : 262144 Invalid Blocks : 0
Heartbeat CPU 1 instructions: 390000000 cycles: 8074533200 heartbeat IPC: 0.0455251 cumulative IPC: 0.0238049 (Simulation time: 89 hr 11 min 36 sec) 
 Total Blocks : 262144 Invalid Blocks : 0
Heartbeat CPU 2 instructions: 390000000 cycles: 8109034540 heartbeat IPC: 0.0459013 cumulative IPC: 0.0237947 (Simulation time: 89 hr 24 min 33 sec) 
 Total Blocks : 262144 Invalid Blocks : 0
Heartbeat CPU 3 instructions: 390000000 cycles: 8132173719 heartbeat IPC: 0.0464605 cumulative IPC: 0.0238035 (Simulation time: 89 hr 33 min 15 sec) 
 Total Blocks : 262144 Invalid Blocks : 0
Heartbeat CPU 4 instructions: 390000000 cycles: 8144242903 heartbeat IPC: 0.0470913 cumulative IPC: 0.0238291 (Simulation time: 89 hr 37 min 47 sec) 
 Total Blocks : 262144 Invalid Blocks : 0
Heartbeat CPU 5 instructions: 390000000 cycles: 8184308470 heartbeat IPC: 0.0476843 cumulative IPC: 0.0237798 (Simulation time: 89 hr 52 min 50 sec) 
 Total Blocks : 262144 Invalid Blocks : 0
Heartbeat CPU 6 instructions: 390000000 cycles: 8185049753 heartbeat IPC: 0.0479848 cumulative IPC: 0.0238296 (Simulation time: 89 hr 53 min 7 sec) 
 Total Blocks : 262144 Invalid Blocks : 0
Heartbeat CPU 7 instructions: 390000000 cycles: 8204134425 heartbeat IPC: 0.0486836 cumulative IPC: 0.023825 (Simulation time: 90 hr 0 min 16 sec) 
 Total Blocks : 262144 Invalid Blocks : 0
Heartbeat CPU 0 instructions: 400000001 cycles: 8474279475 heartbeat IPC: 0.0225508 cumulative IPC: 0.0237496 (Simulation time: 91 hr 41 min 39 sec) 
 Total Blocks : 262144 Invalid Blocks : 0
Heartbeat CPU 1 instructions: 400000001 cycles: 8517340942 heartbeat IPC: 0.0225832 cumulative IPC: 0.0237396 (Simulation time: 91 hr 57 min 49 sec) 
 Total Blocks : 262144 Invalid Blocks : 0
Heartbeat CPU 2 instructions: 400000001 cycles: 8552419394 heartbeat IPC: 0.0225538 cumulative IPC: 0.0237286 (Simulation time: 92 hr 10 min 59 sec) 
 Total Blocks : 262144 Invalid Blocks : 0
Heartbeat CPU 3 instructions: 400000001 cycles: 8577222862 heartbeat IPC: 0.0224694 cumulative IPC: 0.0237324 (Simulation time: 92 hr 20 min 18 sec) 
 Total Blocks : 262144 Invalid Blocks : 0
Heartbeat CPU 4 instructions: 400000001 cycles: 8588376350 heartbeat IPC: 0.0225158 cumulative IPC: 0.0237593 (Simulation time: 92 hr 24 min 29 sec) 
 Total Blocks : 262144 Invalid Blocks : 0
Heartbeat CPU 5 instructions: 400000001 cycles: 8628997591 heartbeat IPC: 0.0224876 cumulative IPC: 0.0237114 (Simulation time: 92 hr 39 min 43 sec) 
 Total Blocks : 262144 Invalid Blocks : 0
Heartbeat CPU 6 instructions: 400000001 cycles: 8629087555 heartbeat IPC: 0.0225206 cumulative IPC: 0.0237604 (Simulation time: 92 hr 39 min 45 sec) 
 Total Blocks : 262144 Invalid Blocks : 0
Finished CPU 6 instructions: 200000002 cycles: 8418299034 cumulative IPC: 0.0237578 (Simulation time: 92 hr 46 min 42 sec) 
Heartbeat CPU 7 instructions: 400000001 cycles: 8647777392 heartbeat IPC: 0.0225407 cumulative IPC: 0.0237573 (Simulation time: 92 hr 46 min 46 sec) 
 Total Blocks : 262144 Invalid Blocks : 0
Finished CPU 7 instructions: 200000000 cycles: 8418463964 cumulative IPC: 0.0237573 (Simulation time: 92 hr 46 min 46 sec) 
Finished CPU 4 instructions: 200000002 cycles: 8421494447 cumulative IPC: 0.0237488 (Simulation time: 92 hr 47 min 54 sec) 
Finished CPU 0 instructions: 200000001 cycles: 8430222290 cumulative IPC: 0.0237242 (Simulation time: 92 hr 51 min 10 sec) 
Finished CPU 1 instructions: 200000001 cycles: 8431015548 cumulative IPC: 0.0237219 (Simulation time: 92 hr 51 min 28 sec) 
Finished CPU 3 instructions: 200000000 cycles: 8432370658 cumulative IPC: 0.0237181 (Simulation time: 92 hr 51 min 59 sec) 
Finished CPU 2 instructions: 200000003 cycles: 8434751086 cumulative IPC: 0.0237114 (Simulation time: 92 hr 52 min 52 sec) 
Finished CPU 5 instructions: 200000000 cycles: 8436642468 cumulative IPC: 0.0237061 (Simulation time: 92 hr 53 min 35 sec) 

CPU 0 Branch Prediction Accuracy: 96.4291% MPKI: 6.47523 Average ROB Occupancy at Mispredict: 148.005

CPU 1 Branch Prediction Accuracy: 96.4309% MPKI: 6.502 Average ROB Occupancy at Mispredict: 148.01

CPU 2 Branch Prediction Accuracy: 96.4267% MPKI: 6.53292 Average ROB Occupancy at Mispredict: 148.011

CPU 3 Branch Prediction Accuracy: 96.4267% MPKI: 6.55297 Average ROB Occupancy at Mispredict: 148.032

CPU 4 Branch Prediction Accuracy: 96.4265% MPKI: 6.56963 Average ROB Occupancy at Mispredict: 148.016

CPU 5 Branch Prediction Accuracy: 96.4296% MPKI: 6.58216 Average ROB Occupancy at Mispredict: 148.013

CPU 6 Branch Prediction Accuracy: 96.4301% MPKI: 6.59526 Average ROB Occupancy at Mispredict: 148.015

CPU 7 Branch Prediction Accuracy: 96.4293% MPKI: 6.61043 Average ROB Occupancy at Mispredict: 147.995

ChampSim completed all CPUs

Total Simulation Statistics (not including warmup)

CPU 0 cumulative IPC: 0.0237234 instructions: 200145552 cycles: 8436642468
ITLB TOTAL     ACCESS: 34327086  HIT: 34327086  MISS:     0  HIT %:   100  MISS %:     0  AVERAGE MISS PENALTY: 0
ITLB LOAD      ACCESS: 34327086  HIT: 34327086  MISS:     0  HIT %:   100  MISS %:     0  AVERAGE MISS PENALTY: 0
ITLB RFO       ACCESS:     0  HIT:     0  MISS:     0  HIT %:     0  MISS %:     0  AVERAGE MISS PENALTY: 0
ITLB PREFETCH  ACCESS:     0  HIT:     0  MISS:     0  HIT %:     0  MISS %:     0  AVERAGE MISS PENALTY: 0
ITLB WRITEBACK ACCESS:     0  HIT:     0  MISS:     0  HIT %:     0  MISS %:     0  AVERAGE MISS PENALTY: 0

DTLB TOTAL     ACCESS: 78336610  HIT: 55395763  MISS: 22940847  HIT %: 70.715  MISS %: 29.285  AVERAGE MISS PENALTY: 19.1821
DTLB LOAD      ACCESS: 75634541  HIT: 52698676  MISS: 22935865  HIT %: 69.6754  MISS %: 30.3246  AVERAGE MISS PENALTY: 19.1807
DTLB RFO       ACCESS: 2702069  HIT: 2697087  MISS:  4982  HIT %: 99.8156  MISS %: 0.184377  AVERAGE MISS PENALTY: 25.9416
DTLB PREFETCH  ACCESS:     0  HIT:     0  MISS:     0  HIT %:     0  MISS %:     0  AVERAGE MISS PENALTY: 0
DTLB WRITEBACK ACCESS:     0  HIT:     0  MISS:     0  HIT %:     0  MISS %:     0  AVERAGE MISS PENALTY: 0

STLB TOTAL     ACCESS: 22940846  HIT: 22900007  MISS: 40839  HIT %: 99.822  MISS %: 0.178019  AVERAGE MISS PENALTY: 100
STLB LOAD      ACCESS: 22935864  HIT: 22895790  MISS: 40074  HIT %: 99.8253  MISS %: 0.174722  AVERAGE MISS PENALTY: 100
STLB RFO       ACCESS:  4982  HIT:  4217  MISS:   765  HIT %: 84.6447  MISS %: 15.3553  AVERAGE MISS PENALTY: 100
STLB PREFETCH  ACCESS:     0  HIT:     0  MISS:     0  HIT %:     0  MISS %:     0  AVERAGE MISS PENALTY: 0
STLB WRITEBACK ACCESS:     0  HIT:     0  MISS:     0  HIT %:     0  MISS %:     0  AVERAGE MISS PENALTY: 0

L1D TOTAL     ACCESS: 197628087  HIT: 41978451  MISS: 155649636  HIT %: 21.2411  MISS %: 78.7589  AVERAGE MISS PENALTY: 2.8033e+07
L1D LOAD      ACCESS: 66764886  HIT: 34416748  MISS: 32348138  HIT %: 51.5492  MISS %: 48.4508  AVERAGE MISS PENALTY: 1.34885e+08
L1D RFO       ACCESS: 2446796  HIT: 2381235  MISS: 65561  HIT %: 97.3205  MISS %: 2.67946  AVERAGE MISS PENALTY: 119453
L1D PREFETCH  ACCESS: 128416405  HIT: 5180468  MISS: 123235937  HIT %: 4.03412  MISS %: 95.9659  AVERAGE MISS PENALTY: 261.809
L1D WRITEBACK ACCESS:     0  HIT:     0  MISS:     0  HIT %:     0  MISS %:     0  AVERAGE MISS PENALTY: 0

L1I TOTAL     ACCESS: 36075169  HIT: 36075156  MISS:    13  HIT %:   100  MISS %: 3.60359e-05  AVERAGE MISS PENALTY: 356.923
L1I LOAD      ACCESS: 36075169  HIT: 36075156  MISS:    13  HIT %:   100  MISS %: 3.60359e-05  AVERAGE MISS PENALTY: 356.923
L1I RFO       ACCESS:     0  HIT:     0  MISS:     0  HIT %:     0  MISS %:     0  AVERAGE MISS PENALTY: 0
L1I PREFETCH  ACCESS:     0  HIT:     0  MISS:     0  HIT %:     0  MISS %:     0  AVERAGE MISS PENALTY: 0
L1I WRITEBACK ACCESS:     0  HIT:     0  MISS:     0  HIT %:     0  MISS %:     0  AVERAGE MISS PENALTY: 0

L2C TOTAL     ACCESS: 230250333  HIT: 8413074  MISS: 221837259  HIT %: 3.65388  MISS %: 96.3461  AVERAGE MISS PENALTY: 2.31495e+07
L2C LOAD      ACCESS: 32313122  HIT: 733587  MISS: 31579535  HIT %: 2.27024  MISS %: 97.7298  AVERAGE MISS PENALTY: 1.62617e+08
L2C RFO       ACCESS: 65560  HIT:    56  MISS: 65504  HIT %: 0.0854179  MISS %: 99.9146  AVERAGE MISS PENALTY: 459.005
L2C PREFETCH  ACCESS: 197664619  HIT: 7472569  MISS: 190192050  HIT %: 3.78043  MISS %: 96.2196  AVERAGE MISS PENALTY: 245.632
L2C WRITEBACK ACCESS: 207032  HIT: 206862  MISS:   170  HIT %: 99.9179  MISS %: 0.0821129  AVERAGE MISS PENALTY: 0


LLC0 TOTAL     ACCESS: 28566436  HIT: 14903319  MISS: 13663117  HIT %: 52.1707  MISS %: 47.8293  AVERAGE MISS PENALTY: 459.824
LLC0 LOAD      ACCESS: 3852576  HIT: 2058138  MISS: 1794438  HIT %: 53.4224  MISS %: 46.5776  AVERAGE MISS PENALTY: 446.612
LLC0 RFO       ACCESS:  8190  HIT:   605  MISS:  7585  HIT %: 7.38706  MISS %: 92.6129  AVERAGE MISS PENALTY: 470.243
LLC0 PREFETCH  ACCESS: 24688667  HIT: 12836546  MISS: 11852121  HIT %: 51.9937  MISS %: 48.0063  AVERAGE MISS PENALTY: 462.165
LLC0 WRITEBACK ACCESS: 17003  HIT:  8030  MISS:  8973  HIT %: 47.227  MISS %: 52.773  AVERAGE MISS PENALTY: 0

LLC1 TOTAL     ACCESS: 29040056  HIT: 15113405  MISS: 13926651  HIT %: 52.0433  MISS %: 47.9567  AVERAGE MISS PENALTY: 457.662
LLC1 LOAD      ACCESS: 3945029  HIT: 2158618  MISS: 1786411  HIT %: 54.7174  MISS %: 45.2826  AVERAGE MISS PENALTY: 444.854
LLC1 RFO       ACCESS:  8190  HIT:   590  MISS:  7600  HIT %: 7.20391  MISS %: 92.7961  AVERAGE MISS PENALTY: 477.847
LLC1 PREFETCH  ACCESS: 25069834  HIT: 12946155  MISS: 12123679  HIT %: 51.6404  MISS %: 48.3596  AVERAGE MISS PENALTY: 459.875
LLC1 WRITEBACK ACCESS: 17003  HIT:  8042  MISS:  8961  HIT %: 47.2975  MISS %: 52.7025  AVERAGE MISS PENALTY: 0

LLC2 TOTAL     ACCESS: 28609841  HIT: 14850630  MISS: 13759211  HIT %: 51.9074  MISS %: 48.0926  AVERAGE MISS PENALTY: 449.252
LLC2 LOAD      ACCESS: 3696731  HIT: 1977865  MISS: 1718866  HIT %: 53.5031  MISS %: 46.4969  AVERAGE MISS PENALTY: 445.949
LLC2 RFO       ACCESS:  8189  HIT:   591  MISS:  7598  HIT %: 7.217  MISS %: 92.783  AVERAGE MISS PENALTY: 483.151
LLC2 PREFETCH  ACCESS: 24887917  HIT: 12864147  MISS: 12023770  HIT %: 51.6883  MISS %: 48.3117  AVERAGE MISS PENALTY: 450.038
LLC2 WRITEBACK ACCESS: 17004  HIT:  8027  MISS:  8977  HIT %: 47.2065  MISS %: 52.7935  AVERAGE MISS PENALTY: 0

LLC3 TOTAL     ACCESS: 28071002  HIT: 14675595  MISS: 13395407  HIT %: 52.2803  MISS %: 47.7197  AVERAGE MISS PENALTY: 447.601
LLC3 LOAD      ACCESS: 3891876  HIT: 2129450  MISS: 1762426  HIT %: 54.7153  MISS %: 45.2847  AVERAGE MISS PENALTY: 444.436
LLC3 RFO       ACCESS:  8188  HIT:   595  MISS:  7593  HIT %: 7.26673  MISS %: 92.7333  AVERAGE MISS PENALTY: 477.69
LLC3 PREFETCH  ACCESS: 24153932  HIT: 12537512  MISS: 11616420  HIT %: 51.9067  MISS %: 48.0933  AVERAGE MISS PENALTY: 448.407
LLC3 WRITEBACK ACCESS: 17006  HIT:  8038  MISS:  8968  HIT %: 47.2657  MISS %: 52.7343  AVERAGE MISS PENALTY: 0

LLC4 TOTAL     ACCESS: 27485280  HIT: 14399186  MISS: 13086094  HIT %: 52.3887  MISS %: 47.6113  AVERAGE MISS PENALTY: 408.656
LLC4 LOAD      ACCESS: 3638316  HIT: 1946572  MISS: 1691744  HIT %: 53.502  MISS %: 46.498  AVERAGE MISS PENALTY: 393.454
LLC4 RFO       ACCESS:  8187  HIT:   615  MISS:  7572  HIT %: 7.51191  MISS %: 92.4881  AVERAGE MISS PENALTY: 470.193
LLC4 PREFETCH  ACCESS: 23821772  HIT: 12443922  MISS: 11377850  HIT %: 52.2376  MISS %: 47.7624  AVERAGE MISS PENALTY: 411.196
LLC4 WRITEBACK ACCESS: 17005  HIT:  8077  MISS:  8928  HIT %: 47.4978  MISS %: 52.5022  AVERAGE MISS PENALTY: 0

LLC5 TOTAL     ACCESS: 27296855  HIT: 14428755  MISS: 12868100  HIT %: 52.8587  MISS %: 47.1413  AVERAGE MISS PENALTY: 398.066
LLC5 LOAD      ACCESS: 3891318  HIT: 2131807  MISS: 1759511  HIT %: 54.7837  MISS %: 45.2163  AVERAGE MISS PENALTY: 381.965
LLC5 RFO       ACCESS:  8186  HIT:   641  MISS:  7545  HIT %: 7.83044  MISS %: 92.1696  AVERAGE MISS PENALTY: 443.718
LLC5 PREFETCH  ACCESS: 23380347  HIT: 12288261  MISS: 11092086  HIT %: 52.5581  MISS %: 47.4419  AVERAGE MISS PENALTY: 400.911
LLC5 WRITEBACK ACCESS: 17004  HIT:  8046  MISS:  8958  HIT %: 47.3183  MISS %: 52.6817  AVERAGE MISS PENALTY: 0

LLC6 TOTAL     ACCESS: 26669599  HIT: 14182616  MISS: 12486983  HIT %: 53.179  MISS %: 46.821  AVERAGE MISS PENALTY: 401.24
LLC6 LOAD      ACCESS: 3919014  HIT: 2184664  MISS: 1734350  HIT %: 55.7452  MISS %: 44.2548  AVERAGE MISS PENALTY: 392.147
LLC6 RFO       ACCESS:  8187  HIT:   678  MISS:  7509  HIT %: 8.28142  MISS %: 91.7186  AVERAGE MISS PENALTY: 417.724
LLC6 PREFETCH  ACCESS: 22725393  HIT: 11989183  MISS: 10736210  HIT %: 52.7568  MISS %: 47.2432  AVERAGE MISS PENALTY: 403.03
LLC6 WRITEBACK ACCESS: 17005  HIT:  8091  MISS:  8914  HIT %: 47.5801  MISS %: 52.4199  AVERAGE MISS PENALTY: 0

LLC7 TOTAL     ACCESS: 26234052  HIT: 14081918  MISS: 12152134  HIT %: 53.678  MISS %: 46.322  AVERAGE MISS PENALTY: 391.872
LLC7 LOAD      ACCESS: 3778649  HIT: 2060730  MISS: 1717919  HIT %: 54.5362  MISS %: 45.4638  AVERAGE MISS PENALTY: 378.959
LLC7 RFO       ACCESS:  8187  HIT:   673  MISS:  7514  HIT %: 8.22035  MISS %: 91.7797  AVERAGE MISS PENALTY: 392.081
LLC7 PREFETCH  ACCESS: 22430213  HIT: 12012409  MISS: 10417804  HIT %: 53.5546  MISS %: 46.4454  AVERAGE MISS PENALTY: 394.336
LLC7 WRITEBACK ACCESS: 17003  HIT:  8106  MISS:  8897  HIT %: 47.6739  MISS %: 52.3261  AVERAGE MISS PENALTY: 0

Total Rob stall cycles : 	8398005032
Total Load Rob Stall cycles : 	8258048057
Average Rob Stall cycles : 	 196
Average Load Rob Stall cycles : 	 234

CPU 1 cumulative IPC: 0.0237212 instructions: 200127685 cycles: 8436642468
ITLB TOTAL     ACCESS: 34325837  HIT: 34325837  MISS:     0  HIT %:   100  MISS %:     0  AVERAGE MISS PENALTY: 0
ITLB LOAD      ACCESS: 34325837  HIT: 34325837  MISS:     0  HIT %:   100  MISS %:     0  AVERAGE MISS PENALTY: 0
ITLB RFO       ACCESS:     0  HIT:     0  MISS:     0  HIT %:     0  MISS %:     0  AVERAGE MISS PENALTY: 0
ITLB PREFETCH  ACCESS:     0  HIT:     0  MISS:     0  HIT %:     0  MISS %:     0  AVERAGE MISS PENALTY: 0
ITLB WRITEBACK ACCESS:     0  HIT:     0  MISS:     0  HIT %:     0  MISS %:     0  AVERAGE MISS PENALTY: 0

DTLB TOTAL     ACCESS: 78328619  HIT: 55396010  MISS: 22932609  HIT %: 70.7226  MISS %: 29.2774  AVERAGE MISS PENALTY: 9.18611
DTLB LOAD      ACCESS: 75627295  HIT: 52699660  MISS: 22927635  HIT %: 69.6834  MISS %: 30.3166  AVERAGE MISS PENALTY: 9.18264
DTLB RFO       ACCESS: 2701324  HIT: 2696350  MISS:  4974  HIT %: 99.8159  MISS %: 0.184132  AVERAGE MISS PENALTY: 25.1737
DTLB PREFETCH  ACCESS:     0  HIT:     0  MISS:     0  HIT %:     0  MISS %:     0  AVERAGE MISS PENALTY: 0
DTLB WRITEBACK ACCESS:     0  HIT:     0  MISS:     0  HIT %:     0  MISS %:     0  AVERAGE MISS PENALTY: 0

STLB TOTAL     ACCESS: 22932609  HIT: 22891766  MISS: 40843  HIT %: 99.8219  MISS %: 0.1781  AVERAGE MISS PENALTY: 100
STLB LOAD      ACCESS: 22927635  HIT: 22887554  MISS: 40081  HIT %: 99.8252  MISS %: 0.174815  AVERAGE MISS PENALTY: 100
STLB RFO       ACCESS:  4974  HIT:  4212  MISS:   762  HIT %: 84.6803  MISS %: 15.3197  AVERAGE MISS PENALTY: 100
STLB PREFETCH  ACCESS:     0  HIT:     0  MISS:     0  HIT %:     0  MISS %:     0  AVERAGE MISS PENALTY: 0
STLB WRITEBACK ACCESS:     0  HIT:     0  MISS:     0  HIT %:     0  MISS %:     0  AVERAGE MISS PENALTY: 0

L1D TOTAL     ACCESS: 197606831  HIT: 41977392  MISS: 155629439  HIT %: 21.2429  MISS %: 78.7571  AVERAGE MISS PENALTY: 2.81623e+07
L1D LOAD      ACCESS: 66759532  HIT: 34417118  MISS: 32342414  HIT %: 51.5539  MISS %: 48.4461  AVERAGE MISS PENALTY: 1.35514e+08
L1D RFO       ACCESS: 2444458  HIT: 2378898  MISS: 65560  HIT %: 97.318  MISS %: 2.68199  AVERAGE MISS PENALTY: 473.991
L1D PREFETCH  ACCESS: 128402841  HIT: 5181376  MISS: 123221465  HIT %: 4.03525  MISS %: 95.9647  AVERAGE MISS PENALTY: 254.351
L1D WRITEBACK ACCESS:     0  HIT:     0  MISS:     0  HIT %:     0  MISS %:     0  AVERAGE MISS PENALTY: 0

L1I TOTAL     ACCESS: 36072922  HIT: 36072909  MISS:    13  HIT %:   100  MISS %: 3.60381e-05  AVERAGE MISS PENALTY: 361
L1I LOAD      ACCESS: 36072922  HIT: 36072909  MISS:    13  HIT %:   100  MISS %: 3.60381e-05  AVERAGE MISS PENALTY: 361
L1I RFO       ACCESS:     0  HIT:     0  MISS:     0  HIT %:     0  MISS %:     0  AVERAGE MISS PENALTY: 0
L1I PREFETCH  ACCESS:     0  HIT:     0  MISS:     0  HIT %:     0  MISS %:     0  AVERAGE MISS PENALTY: 0
L1I WRITEBACK ACCESS:     0  HIT:     0  MISS:     0  HIT %:     0  MISS %:     0  AVERAGE MISS PENALTY: 0

L2C TOTAL     ACCESS: 230218144  HIT: 8414460  MISS: 221803684  HIT %: 3.65499  MISS %: 96.345  AVERAGE MISS PENALTY: 2.32591e+07
L2C LOAD      ACCESS: 32307225  HIT: 733364  MISS: 31573861  HIT %: 2.26997  MISS %: 97.73  AVERAGE MISS PENALTY: 1.63392e+08
L2C RFO       ACCESS: 65560  HIT:    56  MISS: 65504  HIT %: 0.0854179  MISS %: 99.9146  AVERAGE MISS PENALTY: 459.247
L2C PREFETCH  ACCESS: 197638375  HIT: 7474226  MISS: 190164149  HIT %: 3.78177  MISS %: 96.2182  AVERAGE MISS PENALTY: 245.633
L2C WRITEBACK ACCESS: 206984  HIT: 206814  MISS:   170  HIT %: 99.9179  MISS %: 0.082132  AVERAGE MISS PENALTY: 0


LLC0 TOTAL     ACCESS: 28562075  HIT: 14895640  MISS: 13666435  HIT %: 52.1518  MISS %: 47.8482  AVERAGE MISS PENALTY: 459.842
LLC0 LOAD      ACCESS: 3852177  HIT: 2056248  MISS: 1795929  HIT %: 53.3789  MISS %: 46.6211  AVERAGE MISS PENALTY: 446.83
LLC0 RFO       ACCESS:  8190  HIT:   583  MISS:  7607  HIT %: 7.11844  MISS %: 92.8816  AVERAGE MISS PENALTY: 473.279
LLC0 PREFETCH  ACCESS: 24684676  HIT: 12830793  MISS: 11853883  HIT %: 51.9788  MISS %: 48.0212  AVERAGE MISS PENALTY: 462.155
LLC0 WRITEBACK ACCESS: 17032  HIT:  8016  MISS:  9016  HIT %: 47.0643  MISS %: 52.9357  AVERAGE MISS PENALTY: 0

LLC1 TOTAL     ACCESS: 29035351  HIT: 15109799  MISS: 13925552  HIT %: 52.0393  MISS %: 47.9607  AVERAGE MISS PENALTY: 457.679
LLC1 LOAD      ACCESS: 3944227  HIT: 2157662  MISS: 1786565  HIT %: 54.7043  MISS %: 45.2957  AVERAGE MISS PENALTY: 444.654
LLC1 RFO       ACCESS:  8190  HIT:   567  MISS:  7623  HIT %: 6.92308  MISS %: 93.0769  AVERAGE MISS PENALTY: 471.027
LLC1 PREFETCH  ACCESS: 25065902  HIT: 12943542  MISS: 12122360  HIT %: 51.638  MISS %: 48.362  AVERAGE MISS PENALTY: 459.931
LLC1 WRITEBACK ACCESS: 17032  HIT:  8028  MISS:  9004  HIT %: 47.1348  MISS %: 52.8652  AVERAGE MISS PENALTY: 0

LLC2 TOTAL     ACCESS: 28605594  HIT: 14846781  MISS: 13758813  HIT %: 51.9017  MISS %: 48.0983  AVERAGE MISS PENALTY: 449.316
LLC2 LOAD      ACCESS: 3696015  HIT: 1978106  MISS: 1717909  HIT %: 53.52  MISS %: 46.48  AVERAGE MISS PENALTY: 445.871
[...]
LLC2 RFO       ACCESS:  8180  HIT:   545  MISS:  7635  HIT %: 6.66259  MISS %: 93.3374  AVERAGE MISS PENALTY: 510.762
LLC2 PREFETCH  ACCESS: 24837088  HIT: 12842821  MISS: 11994267  HIT %: 51.7082  MISS %: 48.2918  AVERAGE MISS PENALTY: 450.453
LLC2 WRITEBACK ACCESS: 17016  HIT:  8035  MISS:  8981  HIT %: 47.2203  MISS %: 52.7797  AVERAGE MISS PENALTY: 0
LLC2 PREFETCH  REQUESTED:     0  ISSUED:     0  USEFUL: 7728378  USELESS: 88445172
 USEFUL LOAD PREFETCHES:    7728378 PREFETCH ISSUED TO LOWER LEVEL:   96177593  ACCURACY: 8.03553
 TIMELY PREFETCHES:    7728378 LATE PREFETCHES: 0 DROPPED PREFETCHES: 0
LLC2 AVERAGE MISS LATENCY: 449.58 cycles
LLC3 TOTAL     ACCESS: 28011946  HIT: 14648252  MISS: 13363694  HIT %: 52.2929  MISS %: 47.7071  AVERAGE MISS PENALTY: 447.834
LLC3 LOAD      ACCESS: 3888360  HIT: 2127513  MISS: 1760847  HIT %: 54.7149  MISS %: 45.2851  AVERAGE MISS PENALTY: 444.184
LLC3 RFO       ACCESS:  8179  HIT:   554  MISS:  7625  HIT %: 6.77344  MISS %: 93.2266  AVERAGE MISS PENALTY: 501.136
LLC3 PREFETCH  ACCESS: 24098390  HIT: 12512177  MISS: 11586213  HIT %: 51.9212  MISS %: 48.0788  AVERAGE MISS PENALTY: 448.702
LLC3 WRITEBACK ACCESS: 17017  HIT:  8008  MISS:  9009  HIT %: 47.0588  MISS %: 52.9412  AVERAGE MISS PENALTY: 0
LLC3 PREFETCH  REQUESTED:     0  ISSUED:     0  USEFUL: 7763107  USELESS: 85132191
 USEFUL LOAD PREFETCHES:    7763107 PREFETCH ISSUED TO LOWER LEVEL:   92901235  ACCURACY: 8.3563
 TIMELY PREFETCHES:    7763107 LATE PREFETCHES: 0 DROPPED PREFETCHES: 0
LLC3 AVERAGE MISS LATENCY: 447.834 cycles
LLC4 TOTAL     ACCESS: 27425601  HIT: 14375019  MISS: 13050582  HIT %: 52.4146  MISS %: 47.5854  AVERAGE MISS PENALTY: 408.7
LLC4 LOAD      ACCESS: 3633568  HIT: 1944092  MISS: 1689476  HIT %: 53.5037  MISS %: 46.4963  AVERAGE MISS PENALTY: 393.368
LLC4 RFO       ACCESS:  8178  HIT:   530  MISS:  7648  HIT %: 6.4808  MISS %: 93.5192  AVERAGE MISS PENALTY: 425.189
LLC4 PREFETCH  ACCESS: 23766840  HIT: 12422378  MISS: 11344462  HIT %: 52.2677  MISS %: 47.7323  AVERAGE MISS PENALTY: 411.296
LLC4 WRITEBACK ACCESS: 17015  HIT:  8019  MISS:  8996  HIT %: 47.129  MISS %: 52.871  AVERAGE MISS PENALTY: 0
LLC4 PREFETCH  REQUESTED:     0  ISSUED:     0  USEFUL: 7621354  USELESS: 83344251
 USEFUL LOAD PREFETCHES:    7621354 PREFETCH ISSUED TO LOWER LEVEL:   90971282  ACCURACY: 8.37776
 TIMELY PREFETCHES:    7621354 LATE PREFETCHES: 0 DROPPED PREFETCHES: 0
LLC4 AVERAGE MISS LATENCY: 408.7 cycles
LLC5 TOTAL     ACCESS: 27240343  HIT: 14410631  MISS: 12829712  HIT %: 52.9018  MISS %: 47.0982  AVERAGE MISS PENALTY: 398.1
LLC5 LOAD      ACCESS: 3880981  HIT: 2129670  MISS: 1751311  HIT %: 54.8745  MISS %: 45.1255  AVERAGE MISS PENALTY: 381.614
LLC5 RFO       ACCESS:  8176  HIT:   598  MISS:  7578  HIT %: 7.31409  MISS %: 92.6859  AVERAGE MISS PENALTY: 413.148
LLC5 PREFETCH  ACCESS: 23334170  HIT: 12272338  MISS: 11061832  HIT %: 52.5938  MISS %: 47.4062  AVERAGE MISS PENALTY: 401.023
LLC5 WRITEBACK ACCESS: 17016  HIT:  8025  MISS:  8991  HIT %: 47.1615  MISS %: 52.8385  AVERAGE MISS PENALTY: 0
LLC5 PREFETCH  REQUESTED:     0  ISSUED:     0  USEFUL: 7803479  USELESS: 80885396
 USEFUL LOAD PREFETCHES:    7803479 PREFETCH ISSUED TO LOWER LEVEL:   88694484  ACCURACY: 8.79816
 TIMELY PREFETCHES:    7803479 LATE PREFETCHES: 0 DROPPED PREFETCHES: 0
LLC5 AVERAGE MISS LATENCY: 398.1 cycles
LLC6 TOTAL     ACCESS: 26616840  HIT: 14159673  MISS: 12457167  HIT %: 53.1982  MISS %: 46.8018  AVERAGE MISS PENALTY: 401.361
LLC6 LOAD      ACCESS: 3899900  HIT: 2170814  MISS: 1729086  HIT %: 55.6633  MISS %: 44.3367  AVERAGE MISS PENALTY: 391.88
LLC6 RFO       ACCESS:  8178  HIT:   562  MISS:  7616  HIT %: 6.8721  MISS %: 93.1279  AVERAGE MISS PENALTY: 450.199
LLC6 PREFETCH  ACCESS: 22691746  HIT: 11980277  MISS: 10711469  HIT %: 52.7957  MISS %: 47.2043  AVERAGE MISS PENALTY: 403.194
LLC6 WRITEBACK ACCESS: 17016  HIT:  8020  MISS:  8996  HIT %: 47.1321  MISS %: 52.8679  AVERAGE MISS PENALTY: 0
LLC6 PREFETCH  REQUESTED:     0  ISSUED:     0  USEFUL: 7588011  USELESS: 78273281
 USEFUL LOAD PREFETCHES:    7588011 PREFETCH ISSUED TO LOWER LEVEL:   85869919  ACCURACY: 8.83663
 TIMELY PREFETCHES:    7588011 LATE PREFETCHES: 0 DROPPED PREFETCHES: 0
LLC6 AVERAGE MISS LATENCY: 401.361 cycles
LLC7 TOTAL     ACCESS: 26189822  HIT: 14069074  MISS: 12120748  HIT %: 53.7196  MISS %: 46.2804  AVERAGE MISS PENALTY: 392.11
LLC7 LOAD      ACCESS: 3773958  HIT: 2059344  MISS: 1714614  HIT %: 54.5672  MISS %: 45.4328  AVERAGE MISS PENALTY: 379.025
LLC7 RFO       ACCESS:  8178  HIT:   622  MISS:  7556  HIT %: 7.60577  MISS %: 92.3942  AVERAGE MISS PENALTY: 437.063
LLC7 PREFETCH  ACCESS: 22390669  HIT: 12001070  MISS: 10389599  HIT %: 53.5985  MISS %: 46.4015  AVERAGE MISS PENALTY: 394.575
LLC7 WRITEBACK ACCESS: 17017  HIT:  8038  MISS:  8979  HIT %: 47.2351  MISS %: 52.7649  AVERAGE MISS PENALTY: 0
LLC7 PREFETCH  REQUESTED:     0  ISSUED:     0  USEFUL: 7462952  USELESS: 75844054
 USEFUL LOAD PREFETCHES:    7462952 PREFETCH ISSUED TO LOWER LEVEL:   83312652  ACCURACY: 8.95777
 TIMELY PREFETCHES:    7462952 LATE PREFETCHES: 0 DROPPED PREFETCHES: 0
LLC7 AVERAGE MISS LATENCY: 392.11 cycles
ROI Average ROB Stall Cycles:	196.396
ROI Total ROB Stalls Cycles:	8379683823
ROI TOTAL ROB counter      :	42667180
ROI Average Load ROB Stall Cycles:	234.15
ROI Total Load ROB Stalls Cycle  :	8239665576
ROI Total Load ROB stalls Counter:	35189660
Major fault: 0 Minor fault: 34813

CPU 7 cumulative IPC: 0.0237573 instructions: 200000000 cycles: 8418463964
ITLB TOTAL     ACCESS: 34303150  HIT: 34303150  MISS:     0  HIT %:   100  MISS %:     0  AVERAGE MISS PENALTY: 0
ITLB LOAD      ACCESS: 34303150  HIT: 34303150  MISS:     0  HIT %:   100  MISS %:     0  AVERAGE MISS PENALTY: 0
ITLB RFO       ACCESS:     0  HIT:     0  MISS:     0  HIT %:     0  MISS %:     0  AVERAGE MISS PENALTY: 0
ITLB PREFETCH  ACCESS:     0  HIT:     0  MISS:     0  HIT %:     0  MISS %:     0  AVERAGE MISS PENALTY: 0
ITLB WRITEBACK ACCESS:     0  HIT:     0  MISS:     0  HIT %:     0  MISS %:     0  AVERAGE MISS PENALTY: 0
ITLB PREFETCH  REQUESTED:     0  ISSUED:     0  USEFUL:     0  USELESS:     0
 USEFUL LOAD PREFETCHES:          0 PREFETCH ISSUED TO LOWER LEVEL:          0  ACCURACY: -nan
 TIMELY PREFETCHES:          0 LATE PREFETCHES: 0 DROPPED PREFETCHES: 0
ITLB AVERAGE MISS LATENCY: -nan cycles
DTLB TOTAL     ACCESS: 78277647  HIT: 55350740  MISS: 22926907  HIT %: 70.7108  MISS %: 29.2892  AVERAGE MISS PENALTY: 9.1863
DTLB LOAD      ACCESS: 75578058  HIT: 52656131  MISS: 22921927  HIT %: 69.6712  MISS %: 30.3288  AVERAGE MISS PENALTY: 9.18269
DTLB RFO       ACCESS: 2699589  HIT: 2694609  MISS:  4980  HIT %: 99.8155  MISS %: 0.184473  AVERAGE MISS PENALTY: 25.8104
DTLB PREFETCH  ACCESS:     0  HIT:     0  MISS:     0  HIT %:     0  MISS %:     0  AVERAGE MISS PENALTY: 0
DTLB WRITEBACK ACCESS:     0  HIT:     0  MISS:     0  HIT %:     0  MISS %:     0  AVERAGE MISS PENALTY: 0
DTLB PREFETCH  REQUESTED:     0  ISSUED:     0  USEFUL:     0  USELESS:     0
 USEFUL LOAD PREFETCHES:          0 PREFETCH ISSUED TO LOWER LEVEL:          0  ACCURACY: -nan
 TIMELY PREFETCHES:          0 LATE PREFETCHES: 0 DROPPED PREFETCHES: 0
DTLB AVERAGE MISS LATENCY: 9.1863 cycles
STLB TOTAL     ACCESS: 22926907  HIT: 22886082  MISS: 40825  HIT %: 99.8219  MISS %: 0.178066  AVERAGE MISS PENALTY: 100
STLB LOAD      ACCESS: 22921927  HIT: 22881868  MISS: 40059  HIT %: 99.8252  MISS %: 0.174763  AVERAGE MISS PENALTY: 100
STLB RFO       ACCESS:  4980  HIT:  4214  MISS:   766  HIT %: 84.6185  MISS %: 15.3815  AVERAGE MISS PENALTY: 100
STLB PREFETCH  ACCESS:     0  HIT:     0  MISS:     0  HIT %:     0  MISS %:     0  AVERAGE MISS PENALTY: 0
STLB WRITEBACK ACCESS:     0  HIT:     0  MISS:     0  HIT %:     0  MISS %:     0  AVERAGE MISS PENALTY: 0
STLB PREFETCH  REQUESTED:     0  ISSUED:     0  USEFUL:     0  USELESS:     0
 USEFUL LOAD PREFETCHES:          0 PREFETCH ISSUED TO LOWER LEVEL:          0  ACCURACY: -nan
 TIMELY PREFETCHES:          0 LATE PREFETCHES: 0 DROPPED PREFETCHES: 0
STLB AVERAGE MISS LATENCY: 100 cycles
L1D TOTAL     ACCESS: 197508417  HIT: 41943033  MISS: 155565384  HIT %: 21.2361  MISS %: 78.7639  AVERAGE MISS PENALTY: 2.80408e+07
L1D LOAD      ACCESS: 66711907  HIT: 34384747  MISS: 32327160  HIT %: 51.5421  MISS %: 48.4579  AVERAGE MISS PENALTY: 1.34938e+08
L1D RFO       ACCESS: 2452731  HIT: 2387171  MISS: 65560  HIT %: 97.3271  MISS %: 2.67294  AVERAGE MISS PENALTY: 452.673
L1D PREFETCH  ACCESS: 128343779  HIT: 5171115  MISS: 123172664  HIT %: 4.02911  MISS %: 95.9709  AVERAGE MISS PENALTY: 272.632
L1D WRITEBACK ACCESS:     0  HIT:     0  MISS:     0  HIT %:     0  MISS %:     0  AVERAGE MISS PENALTY: 0
L1D PREFETCH  REQUESTED: 131917301  ISSUED: 131749704  USEFUL: 3365448  USELESS: 119807209
 USEFUL LOAD PREFETCHES:    3365448 PREFETCH ISSUED TO LOWER LEVEL:  138591098  ACCURACY: 2.42833
 TIMELY PREFETCHES:    3365448 LATE PREFETCHES: 982940 DROPPED PREFETCHES: 167597
L1D AVERAGE MISS LATENCY: 244.968 cycles
L1I TOTAL     ACCESS: 36049479  HIT: 36049466  MISS:    13  HIT %:   100  MISS %: 3.60615e-05  AVERAGE MISS PENALTY: 275.846
L1I LOAD      ACCESS: 36049479  HIT: 36049466  MISS:    13  HIT %:   100  MISS %: 3.60615e-05  AVERAGE MISS PENALTY: 275.846
L1I RFO       ACCESS:     0  HIT:     0  MISS:     0  HIT %:     0  MISS %:     0  AVERAGE MISS PENALTY: 0
L1I PREFETCH  ACCESS:     0  HIT:     0  MISS:     0  HIT %:     0  MISS %:     0  AVERAGE MISS PENALTY: 0
L1I WRITEBACK ACCESS:     0  HIT:     0  MISS:     0  HIT %:     0  MISS %:     0  AVERAGE MISS PENALTY: 0
L1I PREFETCH  REQUESTED:     0  ISSUED:     0  USEFUL:     0  USELESS:     0
 USEFUL LOAD PREFETCHES:          0 PREFETCH ISSUED TO LOWER LEVEL:          0  ACCURACY: -nan
 TIMELY PREFETCHES:          0 LATE PREFETCHES: 0 DROPPED PREFETCHES: 0
L1I AVERAGE MISS LATENCY: 275.846 cycles
L2C TOTAL     ACCESS: 230126934  HIT: 8732153  MISS: 221394781  HIT %: 3.79449  MISS %: 96.2055  AVERAGE MISS PENALTY: 2.31929e+07
L2C LOAD      ACCESS: 32292426  HIT: 778187  MISS: 31514239  HIT %: 2.40981  MISS %: 97.5902  AVERAGE MISS PENALTY: 1.62934e+08
L2C RFO       ACCESS: 65560  HIT:   131  MISS: 65429  HIT %: 0.199817  MISS %: 99.8002  AVERAGE MISS PENALTY: 438.3
L2C PREFETCH  ACCESS: 197562035  HIT: 7747092  MISS: 189814943  HIT %: 3.92135  MISS %: 96.0787  AVERAGE MISS PENALTY: 245.641
L2C WRITEBACK ACCESS: 206913  HIT: 206743  MISS:   170  HIT %: 99.9178  MISS %: 0.0821601  AVERAGE MISS PENALTY: 0
L2C PREFETCH  REQUESTED: 298962655  ISSUED: 298957754  USEFUL: 549235  USELESS: 189265497
 USEFUL LOAD PREFETCHES:     549235 PREFETCH ISSUED TO LOWER LEVEL:  194050431  ACCURACY: 0.283037
 TIMELY PREFETCHES:     549235 LATE PREFETCHES: 1236828 DROPPED PREFETCHES: 4901
L2C AVERAGE MISS LATENCY: 240.278 cycles
LLC0 TOTAL     ACCESS: 28508051  HIT: 14878274  MISS: 13629777  HIT %: 52.1897  MISS %: 47.8103  AVERAGE MISS PENALTY: 476.791
LLC0 LOAD      ACCESS: 3848457  HIT: 2055169  MISS: 1793288  HIT %: 53.4024  MISS %: 46.5976  AVERAGE MISS PENALTY: 446.508
LLC0 RFO       ACCESS:  8180  HIT:   542  MISS:  7638  HIT %: 6.62592  MISS %: 93.3741  AVERAGE MISS PENALTY: 415.563
LLC0 PREFETCH  ACCESS: 24634385  HIT: 12814514  MISS: 11819871  HIT %: 52.0188  MISS %: 47.9812  AVERAGE MISS PENALTY: 481.788
LLC0 WRITEBACK ACCESS: 17029  HIT:  8049  MISS:  8980  HIT %: 47.2664  MISS %: 52.7336  AVERAGE MISS PENALTY: 0
LLC0 PREFETCH  REQUESTED:     0  ISSUED:     0  USEFUL: 7834135  USELESS: 86970040
 USEFUL LOAD PREFETCHES:    7834135 PREFETCH ISSUED TO LOWER LEVEL:   94808182  ACCURACY: 8.26314
 TIMELY PREFETCHES:    7834135 LATE PREFETCHES: 0 DROPPED PREFETCHES: 0
LLC0 AVERAGE MISS LATENCY: 459.967 cycles
Deadblocks : 12915175 Deadblock percentage : 720.195

LLC1 TOTAL     ACCESS: 28981827  HIT: 15089086  MISS: 13892741  HIT %: 52.064  MISS %: 47.936  AVERAGE MISS PENALTY: 457.916
LLC1 LOAD      ACCESS: 3936453  HIT: 2155678  MISS: 1780775  HIT %: 54.7619  MISS %: 45.2381  AVERAGE MISS PENALTY: 444.713
LLC1 RFO       ACCESS:  8180  HIT:   562  MISS:  7618  HIT %: 6.87042  MISS %: 93.1296  AVERAGE MISS PENALTY: 418.928
LLC1 PREFETCH  ACCESS: 25020165  HIT: 12924818  MISS: 12095347  HIT %: 51.6576  MISS %: 48.3424  AVERAGE MISS PENALTY: 460.226
LLC1 WRITEBACK ACCESS: 17029  HIT:  8028  MISS:  9001  HIT %: 47.1431  MISS %: 52.8569  AVERAGE MISS PENALTY: 0
LLC1 PREFETCH  REQUESTED:     0  ISSUED:     0  USEFUL: 7959705  USELESS: 89006119
 USEFUL LOAD PREFETCHES:    7959705 PREFETCH ISSUED TO LOWER LEVEL:   96973363  ACCURACY: 8.20814
 TIMELY PREFETCHES:    7959705 LATE PREFETCHES: 0 DROPPED PREFETCHES: 0
LLC1 AVERAGE MISS LATENCY: 457.916 cycles
LLC2 TOTAL     ACCESS: 28555419  HIT: 14826850  MISS: 13728569  HIT %: 51.9231  MISS %: 48.0769  AVERAGE MISS PENALTY: 449.709
LLC2 LOAD      ACCESS: 3692412  HIT: 1975361  MISS: 1717051  HIT %: 53.4978  MISS %: 46.5022  AVERAGE MISS PENALTY: 445.997
LLC2 RFO       ACCESS:  8180  HIT:   569  MISS:  7611  HIT %: 6.95599  MISS %: 93.044  AVERAGE MISS PENALTY: 492.47
LLC2 PREFETCH  ACCESS: 24837797  HIT: 12842896  MISS: 11994901  HIT %: 51.7071  MISS %: 48.2929  AVERAGE MISS PENALTY: 450.551
LLC2 WRITEBACK ACCESS: 17030  HIT:  8024  MISS:  9006  HIT %: 47.1169  MISS %: 52.8831  AVERAGE MISS PENALTY: 0
LLC2 PREFETCH  REQUESTED:     0  ISSUED:     0  USEFUL: 7728378  USELESS: 88445172
 USEFUL LOAD PREFETCHES:    7728378 PREFETCH ISSUED TO LOWER LEVEL:   96177593  ACCURACY: 8.03553
 TIMELY PREFETCHES:    7728378 LATE PREFETCHES: 0 DROPPED PREFETCHES: 0
LLC2 AVERAGE MISS LATENCY: 449.709 cycles
LLC3 TOTAL     ACCESS: 28012007  HIT: 14650682  MISS: 13361325  HIT %: 52.3014  MISS %: 47.6986  AVERAGE MISS PENALTY: 447.909
LLC3 LOAD      ACCESS: 3888349  HIT: 2128588  MISS: 1759761  HIT %: 54.7427  MISS %: 45.2573  AVERAGE MISS PENALTY: 444.257
LLC3 RFO       ACCESS:  8179  HIT:   572  MISS:  7607  HIT %: 6.99352  MISS %: 93.0065  AVERAGE MISS PENALTY: 482.946
LLC3 PREFETCH  ACCESS: 24098448  HIT: 12513502  MISS: 11584946  HIT %: 51.9266  MISS %: 48.0734  AVERAGE MISS PENALTY: 448.79
LLC3 WRITEBACK ACCESS: 17031  HIT:  8020  MISS:  9011  HIT %: 47.0906  MISS %: 52.9094  AVERAGE MISS PENALTY: 0
LLC3 PREFETCH  REQUESTED:     0  ISSUED:     0  USEFUL: 7763107  USELESS: 85132191
 USEFUL LOAD PREFETCHES:    7763107 PREFETCH ISSUED TO LOWER LEVEL:   92901235  ACCURACY: 8.3563
 TIMELY PREFETCHES:    7763107 LATE PREFETCHES: 0 DROPPED PREFETCHES: 0
LLC3 AVERAGE MISS LATENCY: 447.909 cycles
LLC4 TOTAL     ACCESS: 27425664  HIT: 14381708  MISS: 13043956  HIT %: 52.4389  MISS %: 47.5611  AVERAGE MISS PENALTY: 408.674
LLC4 LOAD      ACCESS: 3633741  HIT: 1946143  MISS: 1687598  HIT %: 53.5576  MISS %: 46.4424  AVERAGE MISS PENALTY: 393.413
LLC4 RFO       ACCESS:  8178  HIT:   549  MISS:  7629  HIT %: 6.71313  MISS %: 93.2869  AVERAGE MISS PENALTY: 401.92
LLC4 PREFETCH  ACCESS: 23766716  HIT: 12426972  MISS: 11339744  HIT %: 52.2873  MISS %: 47.7127  AVERAGE MISS PENALTY: 411.273
LLC4 WRITEBACK ACCESS: 17029  HIT:  8044  MISS:  8985  HIT %: 47.2371  MISS %: 52.7629  AVERAGE MISS PENALTY: 0
LLC4 PREFETCH  REQUESTED:     0  ISSUED:     0  USEFUL: 7621354  USELESS: 83344251
 USEFUL LOAD PREFETCHES:    7621354 PREFETCH ISSUED TO LOWER LEVEL:   90971282  ACCURACY: 8.37776
 TIMELY PREFETCHES:    7621354 LATE PREFETCHES: 0 DROPPED PREFETCHES: 0
LLC4 AVERAGE MISS LATENCY: 408.674 cycles
LLC5 TOTAL     ACCESS: 27240725  HIT: 14407693  MISS: 12833032  HIT %: 52.8903  MISS %: 47.1097  AVERAGE MISS PENALTY: 398.075
LLC5 LOAD      ACCESS: 3881338  HIT: 2127603  MISS: 1753735  HIT %: 54.8162  MISS %: 45.1838  AVERAGE MISS PENALTY: 381.367
LLC5 RFO       ACCESS:  8176  HIT:   571  MISS:  7605  HIT %: 6.98386  MISS %: 93.0161  AVERAGE MISS PENALTY: 390.939
LLC5 PREFETCH  ACCESS: 23334184  HIT: 12271464  MISS: 11062720  HIT %: 52.5901  MISS %: 47.4099  AVERAGE MISS PENALTY: 401.051
LLC5 WRITEBACK ACCESS: 17027  HIT:  8055  MISS:  8972  HIT %: 47.3072  MISS %: 52.6928  AVERAGE MISS PENALTY: 0
LLC5 PREFETCH  REQUESTED:     0  ISSUED:     0  USEFUL: 7803479  USELESS: 80885396
 USEFUL LOAD PREFETCHES:    7803479 PREFETCH ISSUED TO LOWER LEVEL:   88694484  ACCURACY: 8.79816
 TIMELY PREFETCHES:    7803479 LATE PREFETCHES: 0 DROPPED PREFETCHES: 0
LLC5 AVERAGE MISS LATENCY: 398.075 cycles
LLC6 TOTAL     ACCESS: 26617113  HIT: 14162968  MISS: 12454145  HIT %: 53.21  MISS %: 46.79  AVERAGE MISS PENALTY: 401.404
LLC6 LOAD      ACCESS: 3899864  HIT: 2171272  MISS: 1728592  HIT %: 55.6756  MISS %: 44.3244  AVERAGE MISS PENALTY: 392.147
LLC6 RFO       ACCESS:  8178  HIT:   598  MISS:  7580  HIT %: 7.3123  MISS %: 92.6877  AVERAGE MISS PENALTY: 427.117
LLC6 PREFETCH  ACCESS: 22692042  HIT: 11983031  MISS: 10709011  HIT %: 52.8072  MISS %: 47.1928  AVERAGE MISS PENALTY: 403.216
LLC6 WRITEBACK ACCESS: 17029  HIT:  8067  MISS:  8962  HIT %: 47.3721  MISS %: 52.6279  AVERAGE MISS PENALTY: 0
LLC6 PREFETCH  REQUESTED:     0  ISSUED:     0  USEFUL: 7588011  USELESS: 78273281
 USEFUL LOAD PREFETCHES:    7588011 PREFETCH ISSUED TO LOWER LEVEL:   85869919  ACCURACY: 8.83663
 TIMELY PREFETCHES:    7588011 LATE PREFETCHES: 0 DROPPED PREFETCHES: 0
LLC6 AVERAGE MISS LATENCY: 401.404 cycles
LLC7 TOTAL     ACCESS: 26190038  HIT: 14067681  MISS: 12122357  HIT %: 53.7139  MISS %: 46.2861  AVERAGE MISS PENALTY: 392.082
LLC7 LOAD      ACCESS: 3774011  HIT: 2059081  MISS: 1714930  HIT %: 54.5595  MISS %: 45.4405  AVERAGE MISS PENALTY: 378.995
LLC7 RFO       ACCESS:  8178  HIT:   628  MISS:  7550  HIT %: 7.67914  MISS %: 92.3209  AVERAGE MISS PENALTY: 402.628
LLC7 PREFETCH  ACCESS: 22390819  HIT: 11999894  MISS: 10390925  HIT %: 53.5929  MISS %: 46.4071  AVERAGE MISS PENALTY: 394.572
LLC7 WRITEBACK ACCESS: 17030  HIT:  8078  MISS:  8952  HIT %: 47.4339  MISS %: 52.5661  AVERAGE MISS PENALTY: 0
LLC7 PREFETCH  REQUESTED:     0  ISSUED:     0  USEFUL: 7462952  USELESS: 75844054
 USEFUL LOAD PREFETCHES:    7462952 PREFETCH ISSUED TO LOWER LEVEL:   83312652  ACCURACY: 8.95777
 TIMELY PREFETCHES:    7462952 LATE PREFETCHES: 0 DROPPED PREFETCHES: 0
LLC7 AVERAGE MISS LATENCY: 392.082 cycles
ROI Average ROB Stall Cycles:	196.397
ROI Total ROB Stalls Cycles:	8379850523
ROI TOTAL ROB counter      :	42667881
ROI Average Load ROB Stall Cycles:	234.161
ROI Total Load ROB Stalls Cycle  :	8240173902
ROI Total Load ROB stalls Counter:	35190141
Major fault: 0 Minor fault: 34813








Interconnect Stats 
LINK 0 BW : 0LINK 1 BW : 0LINK 2 BW : 0LINK 3 BW : 0LINK 4 BW : 0LINK 5 BW : 0LINK 6 BW : 0LINK 7 BW : 0
DRAM Statistics
 CHANNEL 0
 RQ ROW_BUFFER_HIT: 108429511  ROW_BUFFER_MISS: 315148387
 DBUS_CONGESTED: 180493764
 WQ ROW_BUFFER_HIT: 40424  ROW_BUFFER_MISS: 504729  FULL:     0

 CHANNEL 1
 RQ ROW_BUFFER_HIT: 105697049  ROW_BUFFER_MISS: 312613495
 DBUS_CONGESTED: 180493764
 WQ ROW_BUFFER_HIT: 40032  ROW_BUFFER_MISS: 505120  FULL:     0

 AVG_CONGESTED_CYCLE: 4
DRAM PAGES: 2097152
Allocated PAGES: 278504
L2C destructor called
L1D destructor called
L1I destructor called
STLB destructor called
DTLB destructor called
ITLB destructor called
L2C destructor called
L1D destructor called
L1I destructor called
STLB destructor called
DTLB destructor called
ITLB destructor called
L2C destructor called
L1D destructor called
L1I destructor called
STLB destructor called
DTLB destructor called
ITLB destructor called
L2C destructor called
L1D destructor called
L1I destructor called
STLB destructor called
DTLB destructor called
ITLB destructor called
L2C destructor called
L1D destructor called
L1I destructor called
STLB destructor called
DTLB destructor called
ITLB destructor called
L2C destructor called
L1D destructor called
L1I destructor called
STLB destructor called
DTLB destructor called
ITLB destructor called
L2C destructor called
L1D destructor called
L1I destructor called
STLB destructor called
DTLB destructor called
ITLB destructor called
L2C destructor called
L1D destructor called
L1I destructor called
STLB destructor called
DTLB destructor called
ITLB destructor called
