
*** ChampSim Multicore Out-of-Order Simulator ***

Warmup Instructions: 200000000
Simulation Instructions: 200000000
Number of CPUs: 1
threads:1

L1I Configuration:
L1I_SET:64
L1I_WAY:8
L1I_RQ_SIZE:64
L1I_WQ_SIZE:64
L1I_PQ_SIZE:8
L1I_MSHR_SIZE:8

L1D Configuration:
L1D_SET:64
L1D_WAY:12
L1D_RQ_SIZE:64
L1D_WQ_SIZE:64
L1D_PQ_SIZE:8
L1D_MSHR_SIZE:16

L2C Configuration:
L2C_SET:1024
L2C_WAY:8
L2C_RQ_SIZE:32
L2C_WQ_SIZE:32
L2C_PQ_SIZE:16
L2C_MSHR_SIZE:32

LLC Configuration:
LLC_SET:4096
LLC_WAY:16
LLC SLICES:8
LLC_RQ_SIZE:64
LLC_WQ_SIZE:64
LLC_PQ_SIZE:32
LLC_MSHR_SIZE:64

Interconnect OFF
Attacker deprioritize is: OFF
Off-chip DRAM Size: 4096 MB Channels: 1 Width: 64-bit Data Rate: 3200 MT/s
PAGE SIZE in KB: 4.000000 
PAGE SIZE in MB: 0.003906 
PAGE offset in bits: 12 
CEASER-S_LLC:0
MIRAGE : 1
CEASER_LATENCY:3
REMAP : OFF
Partitions : 1
Multi-Step : OFF
BFS : OFF

CPU 0 runs /home/anubhav/spec_2017/600.perlbench_s-570B.champsimtrace.xz
CPU 0 Bimodal branch predictor
Initialize Hawkeye state
Initialize Hawkeye state
Initialize Hawkeye state
Initialize Hawkeye state
Initialize Hawkeye state
Initialize Hawkeye state
Initialize Hawkeye state
Initialize Hawkeye state
Heartbeat CPU 0 instructions: 10000002 cycles: 4995839 heartbeat IPC: 2.00167 cumulative IPC: 2.00167 (Simulation time: 0 hr 1 min 41 sec) 
 Total Blocks : 524288 Invalid Blocks : 520236
Heartbeat CPU 0 instructions: 20000002 cycles: 9928113 heartbeat IPC: 2.02746 cumulative IPC: 2.01448 (Simulation time: 0 hr 3 min 28 sec) 
 Total Blocks : 524288 Invalid Blocks : 518616
Heartbeat CPU 0 instructions: 30000000 cycles: 15052397 heartbeat IPC: 1.95149 cumulative IPC: 1.99304 (Simulation time: 0 hr 5 min 50 sec) 
 Total Blocks : 524288 Invalid Blocks : 516590
Heartbeat CPU 0 instructions: 40000001 cycles: 19996123 heartbeat IPC: 2.02277 cumulative IPC: 2.00039 (Simulation time: 0 hr 8 min 19 sec) 
 Total Blocks : 524288 Invalid Blocks : 514564
Heartbeat CPU 0 instructions: 50000002 cycles: 24955278 heartbeat IPC: 2.01647 cumulative IPC: 2.00358 (Simulation time: 0 hr 10 min 46 sec) 
 Total Blocks : 524288 Invalid Blocks : 512758
Heartbeat CPU 0 instructions: 60000000 cycles: 29881600 heartbeat IPC: 2.02991 cumulative IPC: 2.00792 (Simulation time: 0 hr 13 min 19 sec) 
 Total Blocks : 524288 Invalid Blocks : 511376
Heartbeat CPU 0 instructions: 70000001 cycles: 36346201 heartbeat IPC: 1.54689 cumulative IPC: 1.92592 (Simulation time: 0 hr 15 min 54 sec) 
 Total Blocks : 524288 Invalid Blocks : 477711
Heartbeat CPU 0 instructions: 80000000 cycles: 43065171 heartbeat IPC: 1.48832 cumulative IPC: 1.85765 (Simulation time: 0 hr 18 min 52 sec) 
 Total Blocks : 524288 Invalid Blocks : 451046
Heartbeat CPU 0 instructions: 90000000 cycles: 50804230 heartbeat IPC: 1.29215 cumulative IPC: 1.77151 (Simulation time: 0 hr 21 min 44 sec) 
 Total Blocks : 524288 Invalid Blocks : 414737
Heartbeat CPU 0 instructions: 100000002 cycles: 55806117 heartbeat IPC: 1.99925 cumulative IPC: 1.79192 (Simulation time: 0 hr 24 min 22 sec) 
 Total Blocks : 524288 Invalid Blocks : 407596
Heartbeat CPU 0 instructions: 110000000 cycles: 60892074 heartbeat IPC: 1.9662 cumulative IPC: 1.80647 (Simulation time: 0 hr 27 min 8 sec) 
 Total Blocks : 524288 Invalid Blocks : 401022
Heartbeat CPU 0 instructions: 120000001 cycles: 66011114 heartbeat IPC: 1.95349 cumulative IPC: 1.81788 (Simulation time: 0 hr 29 min 49 sec) 
 Total Blocks : 524288 Invalid Blocks : 392985
Heartbeat CPU 0 instructions: 130000000 cycles: 71086785 heartbeat IPC: 1.97018 cumulative IPC: 1.82875 (Simulation time: 0 hr 32 min 24 sec) 
 Total Blocks : 524288 Invalid Blocks : 389946
Heartbeat CPU 0 instructions: 140000003 cycles: 78727820 heartbeat IPC: 1.30872 cumulative IPC: 1.77828 (Simulation time: 0 hr 35 min 10 sec) 
 Total Blocks : 524288 Invalid Blocks : 377968
Heartbeat CPU 0 instructions: 150000001 cycles: 86793459 heartbeat IPC: 1.23983 cumulative IPC: 1.72824 (Simulation time: 0 hr 38 min 12 sec) 
 Total Blocks : 524288 Invalid Blocks : 369021
Heartbeat CPU 0 instructions: 160000000 cycles: 93129403 heartbeat IPC: 1.5783 cumulative IPC: 1.71804 (Simulation time: 0 hr 40 min 52 sec) 
 Total Blocks : 524288 Invalid Blocks : 363020
Heartbeat CPU 0 instructions: 170000001 cycles: 98417346 heartbeat IPC: 1.89109 cumulative IPC: 1.72734 (Simulation time: 0 hr 43 min 30 sec) 
 Total Blocks : 524288 Invalid Blocks : 360488
Heartbeat CPU 0 instructions: 180000003 cycles: 104423559 heartbeat IPC: 1.66494 cumulative IPC: 1.72375 (Simulation time: 0 hr 46 min 8 sec) 
 Total Blocks : 524288 Invalid Blocks : 356402
Heartbeat CPU 0 instructions: 190000001 cycles: 112220027 heartbeat IPC: 1.28263 cumulative IPC: 1.6931 (Simulation time: 0 hr 48 min 55 sec) 
 Total Blocks : 524288 Invalid Blocks : 348714
Heartbeat CPU 0 instructions: 200000001 cycles: 120404758 heartbeat IPC: 1.22179 cumulative IPC: 1.66106 (Simulation time: 0 hr 51 min 31 sec) 
 Total Blocks : 524288 Invalid Blocks : 344285

Warmup complete CPU 0 instructions: 200000001 cycles: 120404758 (Simulation time: 0 hr 51 min 31 sec) 

Heartbeat CPU 0 instructions: 210000000 cycles: 139017244 heartbeat IPC: 0.537274 cumulative IPC: 0.537274 (Simulation time: 0 hr 56 min 47 sec) 
 Total Blocks : 524288 Invalid Blocks : 341988
Heartbeat CPU 0 instructions: 220000000 cycles: 153366060 heartbeat IPC: 0.696922 cumulative IPC: 0.606772 (Simulation time: 1 hr 1 min 59 sec) 
 Total Blocks : 524288 Invalid Blocks : 341231
Heartbeat CPU 0 instructions: 230000003 cycles: 166688470 heartbeat IPC: 0.750615 cumulative IPC: 0.648176 (Simulation time: 1 hr 6 min 41 sec) 
 Total Blocks : 524288 Invalid Blocks : 340646
Heartbeat CPU 0 instructions: 240000001 cycles: 180881541 heartbeat IPC: 0.704569 cumulative IPC: 0.661411 (Simulation time: 1 hr 11 min 24 sec) 
 Total Blocks : 524288 Invalid Blocks : 339963
Heartbeat CPU 0 instructions: 250000002 cycles: 195982040 heartbeat IPC: 0.66223 cumulative IPC: 0.661574 (Simulation time: 1 hr 16 min 26 sec) 
 Total Blocks : 524288 Invalid Blocks : 339292
Heartbeat CPU 0 instructions: 260000002 cycles: 210502340 heartbeat IPC: 0.688691 cumulative IPC: 0.665945 (Simulation time: 1 hr 21 min 23 sec) 
 Total Blocks : 524288 Invalid Blocks : 338681
Heartbeat CPU 0 instructions: 270000001 cycles: 225292664 heartbeat IPC: 0.676118 cumulative IPC: 0.667379 (Simulation time: 1 hr 26 min 1 sec) 
 Total Blocks : 524288 Invalid Blocks : 337844
Heartbeat CPU 0 instructions: 280000002 cycles: 240078851 heartbeat IPC: 0.676307 cumulative IPC: 0.668482 (Simulation time: 1 hr 30 min 37 sec) 
 Total Blocks : 524288 Invalid Blocks : 337206
Heartbeat CPU 0 instructions: 290000001 cycles: 258178350 heartbeat IPC: 0.552501 cumulative IPC: 0.653246 (Simulation time: 1 hr 35 min 37 sec) 
 Total Blocks : 524288 Invalid Blocks : 335702
Heartbeat CPU 0 instructions: 300000001 cycles: 283193824 heartbeat IPC: 0.399753 cumulative IPC: 0.614292 (Simulation time: 1 hr 41 min 33 sec) 
 Total Blocks : 524288 Invalid Blocks : 332359
Heartbeat CPU 0 instructions: 310000000 cycles: 308761825 heartbeat IPC: 0.391114 cumulative IPC: 0.583997 (Simulation time: 1 hr 47 min 13 sec) 
 Total Blocks : 524288 Invalid Blocks : 329576
Heartbeat CPU 0 instructions: 320000002 cycles: 328198357 heartbeat IPC: 0.514495 cumulative IPC: 0.577496 (Simulation time: 1 hr 52 min 3 sec) 
 Total Blocks : 524288 Invalid Blocks : 327680
Heartbeat CPU 0 instructions: 330000000 cycles: 341449133 heartbeat IPC: 0.754673 cumulative IPC: 0.588117 (Simulation time: 1 hr 55 min 57 sec) 
 Total Blocks : 524288 Invalid Blocks : 327222
Heartbeat CPU 0 instructions: 340000003 cycles: 355478159 heartbeat IPC: 0.712808 cumulative IPC: 0.595559 (Simulation time: 2 hr 0 min 10 sec) 
 Total Blocks : 524288 Invalid Blocks : 326709
Heartbeat CPU 0 instructions: 350000001 cycles: 369445358 heartbeat IPC: 0.715963 cumulative IPC: 0.602311 (Simulation time: 2 hr 4 min 15 sec) 
 Total Blocks : 524288 Invalid Blocks : 326279
Heartbeat CPU 0 instructions: 360000001 cycles: 383524753 heartbeat IPC: 0.710258 cumulative IPC: 0.608088 (Simulation time: 2 hr 8 min 19 sec) 
 Total Blocks : 524288 Invalid Blocks : 325776
Heartbeat CPU 0 instructions: 370000001 cycles: 409183059 heartbeat IPC: 0.389737 cumulative IPC: 0.588687 (Simulation time: 2 hr 13 min 43 sec) 
 Total Blocks : 524288 Invalid Blocks : 323643
Heartbeat CPU 0 instructions: 380000000 cycles: 433436823 heartbeat IPC: 0.412307 cumulative IPC: 0.575021 (Simulation time: 2 hr 18 min 54 sec) 
 Total Blocks : 524288 Invalid Blocks : 321392
Heartbeat CPU 0 instructions: 390000003 cycles: 453462963 heartbeat IPC: 0.499348 cumulative IPC: 0.570471 (Simulation time: 2 hr 23 min 35 sec) 
 Total Blocks : 524288 Invalid Blocks : 319903
Heartbeat CPU 0 instructions: 400000000 cycles: 465954655 heartbeat IPC: 0.800532 cumulative IPC: 0.578788 (Simulation time: 2 hr 27 min 15 sec) 
 Total Blocks : 524288 Invalid Blocks : 319795
Finished CPU 0 instructions: 200000000 cycles: 345549905 cumulative IPC: 0.578788 (Simulation time: 2 hr 27 min 15 sec) 

CPU 0 Branch Prediction Accuracy: 96.1878% MPKI: 5.40214 Average ROB Occupancy at Mispredict: 136.186

ChampSim completed all CPUs

Region of Interest Statistics

CPU 0 cumulative IPC: 0.578788 instructions: 200000000 cycles: 345549905
ITLB TOTAL     ACCESS: 31131061  HIT: 31087902  MISS: 43159  HIT %: 99.8614  MISS %: 0.138636  AVERAGE MISS PENALTY: 10.8715
ITLB LOAD      ACCESS: 31131061  HIT: 31087902  MISS: 43159  HIT %: 99.8614  MISS %: 0.138636  AVERAGE MISS PENALTY: 10.8715
ITLB RFO       ACCESS:     0  HIT:     0  MISS:     0  HIT %:     0  MISS %:     0  AVERAGE MISS PENALTY: 0
ITLB PREFETCH  ACCESS:     0  HIT:     0  MISS:     0  HIT %:     0  MISS %:     0  AVERAGE MISS PENALTY: 0
ITLB WRITEBACK ACCESS:     0  HIT:     0  MISS:     0  HIT %:     0  MISS %:     0  AVERAGE MISS PENALTY: 0
ITLB PREFETCH  REQUESTED:     0  ISSUED:     0  USEFUL:     0  USELESS:     0
 USEFUL LOAD PREFETCHES:          0 PREFETCH ISSUED TO LOWER LEVEL:          0  ACCURACY: -nan
 TIMELY PREFETCHES:          0 LATE PREFETCHES: 0 DROPPED PREFETCHES: 0
ITLB AVERAGE MISS LATENCY: 10.8715 cycles
DTLB TOTAL     ACCESS: 52203358  HIT: 51757299  MISS: 446059  HIT %: 99.1455  MISS %: 0.854464  AVERAGE MISS PENALTY: 13.2272
DTLB LOAD      ACCESS: 30726227  HIT: 30318216  MISS: 408011  HIT %: 98.6721  MISS %: 1.32789  AVERAGE MISS PENALTY: 13.1374
DTLB RFO       ACCESS: 21477131  HIT: 21439083  MISS: 38048  HIT %: 99.8228  MISS %: 0.177156  AVERAGE MISS PENALTY: 14.1903
DTLB PREFETCH  ACCESS:     0  HIT:     0  MISS:     0  HIT %:     0  MISS %:     0  AVERAGE MISS PENALTY: 0
DTLB WRITEBACK ACCESS:     0  HIT:     0  MISS:     0  HIT %:     0  MISS %:     0  AVERAGE MISS PENALTY: 0
DTLB PREFETCH  REQUESTED:     0  ISSUED:     0  USEFUL:     0  USELESS:     0
 USEFUL LOAD PREFETCHES:          0 PREFETCH ISSUED TO LOWER LEVEL:          0  ACCURACY: -nan
 TIMELY PREFETCHES:          0 LATE PREFETCHES: 0 DROPPED PREFETCHES: 0
DTLB AVERAGE MISS LATENCY: 13.2272 cycles
STLB TOTAL     ACCESS: 489218  HIT: 470870  MISS: 18348  HIT %: 96.2495  MISS %: 3.75048  AVERAGE MISS PENALTY: 100
STLB LOAD      ACCESS: 451170  HIT: 434728  MISS: 16442  HIT %: 96.3557  MISS %: 3.6443  AVERAGE MISS PENALTY: 100
STLB RFO       ACCESS: 38048  HIT: 36142  MISS:  1906  HIT %: 94.9905  MISS %: 5.00946  AVERAGE MISS PENALTY: 100
STLB PREFETCH  ACCESS:     0  HIT:     0  MISS:     0  HIT %:     0  MISS %:     0  AVERAGE MISS PENALTY: 0
STLB WRITEBACK ACCESS:     0  HIT:     0  MISS:     0  HIT %:     0  MISS %:     0  AVERAGE MISS PENALTY: 0
STLB PREFETCH  REQUESTED:     0  ISSUED:     0  USEFUL:     0  USELESS:     0
 USEFUL LOAD PREFETCHES:          0 PREFETCH ISSUED TO LOWER LEVEL:          0  ACCURACY: -nan
 TIMELY PREFETCHES:          0 LATE PREFETCHES: 0 DROPPED PREFETCHES: 0
STLB AVERAGE MISS LATENCY: 100 cycles
L1D TOTAL     ACCESS: 85680176  HIT: 84507003  MISS: 1173173  HIT %: 98.6308  MISS %: 1.36925  AVERAGE MISS PENALTY: 1.50711e+06
L1D LOAD      ACCESS: 33943024  HIT: 33589143  MISS: 353881  HIT %: 98.9574  MISS %: 1.04257  AVERAGE MISS PENALTY: 4.87508e+06
L1D RFO       ACCESS: 40101617  HIT: 40067088  MISS: 34529  HIT %: 99.9139  MISS %: 0.0861038  AVERAGE MISS PENALTY: 1.24185e+06
L1D PREFETCH  ACCESS: 11635535  HIT: 10850772  MISS: 784763  HIT %: 93.2555  MISS %: 6.74454  AVERAGE MISS PENALTY: 35.5503
L1D WRITEBACK ACCESS:     0  HIT:     0  MISS:     0  HIT %:     0  MISS %:     0  AVERAGE MISS PENALTY: 0
L1D PREFETCH  REQUESTED: 13129596  ISSUED: 13032605  USEFUL: 174346  USELESS: 610401
 USEFUL LOAD PREFETCHES:     174346 PREFETCH ISSUED TO LOWER LEVEL:     850939  ACCURACY: 20.4887
 TIMELY PREFETCHES:     174346 LATE PREFETCHES: 38169 DROPPED PREFETCHES: 96991
L1D AVERAGE MISS LATENCY: 36583 cycles
L1I TOTAL     ACCESS: 42962698  HIT: 42324267  MISS: 638431  HIT %: 98.514  MISS %: 1.48601  AVERAGE MISS PENALTY: 14.5642
L1I LOAD      ACCESS: 42962698  HIT: 42324267  MISS: 638431  HIT %: 98.514  MISS %: 1.48601  AVERAGE MISS PENALTY: 14.5642
L1I RFO       ACCESS:     0  HIT:     0  MISS:     0  HIT %:     0  MISS %:     0  AVERAGE MISS PENALTY: 0
L1I PREFETCH  ACCESS:     0  HIT:     0  MISS:     0  HIT %:     0  MISS %:     0  AVERAGE MISS PENALTY: 0
L1I WRITEBACK ACCESS:     0  HIT:     0  MISS:     0  HIT %:     0  MISS %:     0  AVERAGE MISS PENALTY: 0
L1I PREFETCH  REQUESTED:     0  ISSUED:     0  USEFUL:     0  USELESS:     0
 USEFUL LOAD PREFETCHES:          0 PREFETCH ISSUED TO LOWER LEVEL:          0  ACCURACY: -nan
 TIMELY PREFETCHES:          0 LATE PREFETCHES: 0 DROPPED PREFETCHES: 0
L1I AVERAGE MISS LATENCY: 14.5642 cycles
L2C TOTAL     ACCESS: 2886853  HIT: 2229914  MISS: 656939  HIT %: 77.2438  MISS %: 22.7562  AVERAGE MISS PENALTY: 1.73218e+06
L2C LOAD      ACCESS: 990562  HIT: 819334  MISS: 171228  HIT %: 82.7141  MISS %: 17.2859  AVERAGE MISS PENALTY: 6.62368e+06
L2C RFO       ACCESS: 34400  HIT: 23379  MISS: 11021  HIT %: 67.9622  MISS %: 32.0378  AVERAGE MISS PENALTY: 340570
L2C PREFETCH  ACCESS: 1705171  HIT: 1231542  MISS: 473629  HIT %: 72.224  MISS %: 27.776  AVERAGE MISS PENALTY: 49.8937
L2C WRITEBACK ACCESS: 156720  HIT: 155659  MISS:  1061  HIT %: 99.323  MISS %: 0.677004  AVERAGE MISS PENALTY: 0
L2C PREFETCH  REQUESTED: 1219912  ISSUED: 1196656  USEFUL: 46167  USELESS: 426903
 USEFUL LOAD PREFETCHES:      46167 PREFETCH ISSUED TO LOWER LEVEL:     506817  ACCURACY: 9.10921
 TIMELY PREFETCHES:      46167 LATE PREFETCHES: 29921 DROPPED PREFETCHES: 23256
L2C AVERAGE MISS LATENCY: 47.7319 cycles
LLC0 TOTAL     ACCESS: 86273  HIT: 81509  MISS:  4764  HIT %: 94.478  MISS %: 5.52201  AVERAGE MISS PENALTY: 153.837
LLC0 LOAD      ACCESS: 21997  HIT: 21513  MISS:   484  HIT %: 97.7997  MISS %: 2.2003  AVERAGE MISS PENALTY: 153.498
LLC0 RFO       ACCESS:  1441  HIT:  1344  MISS:    97  HIT %: 93.2686  MISS %: 6.73144  AVERAGE MISS PENALTY: 137.392
LLC0 PREFETCH  ACCESS: 56013  HIT: 51837  MISS:  4176  HIT %: 92.5446  MISS %: 7.45541  AVERAGE MISS PENALTY: 154.517
LLC0 WRITEBACK ACCESS:  6822  HIT:  6815  MISS:     7  HIT %: 99.8974  MISS %: 0.102609  AVERAGE MISS PENALTY: 0
LLC0 PREFETCH  REQUESTED:     0  ISSUED:     0  USEFUL:   754  USELESS:  1174
 USEFUL LOAD PREFETCHES:        754 PREFETCH ISSUED TO LOWER LEVEL:       4176  ACCURACY: 18.0556
 TIMELY PREFETCHES:        754 LATE PREFETCHES: 0 DROPPED PREFETCHES: 0
LLC0 AVERAGE MISS LATENCY: 153.837 cycles
Deadblocks : 431 Deadblock percentage : 89.0496

LLC1 TOTAL     ACCESS: 89542  HIT: 84628  MISS:  4914  HIT %: 94.5121  MISS %: 5.48793  AVERAGE MISS PENALTY: 153.631
LLC1 LOAD      ACCESS: 21877  HIT: 21466  MISS:   411  HIT %: 98.1213  MISS %: 1.87869  AVERAGE MISS PENALTY: 154.063
LLC1 RFO       ACCESS:  1408  HIT:  1306  MISS:   102  HIT %: 92.7557  MISS %: 7.24432  AVERAGE MISS PENALTY: 148.069
LLC1 PREFETCH  ACCESS: 59231  HIT: 54835  MISS:  4396  HIT %: 92.5782  MISS %: 7.42179  AVERAGE MISS PENALTY: 153.894
LLC1 WRITEBACK ACCESS:  7026  HIT:  7021  MISS:     5  HIT %: 99.9288  MISS %: 0.0711642  AVERAGE MISS PENALTY: 0
LLC1 PREFETCH  REQUESTED:     0  ISSUED:     0  USEFUL:   812  USELESS:  1332
 USEFUL LOAD PREFETCHES:        812 PREFETCH ISSUED TO LOWER LEVEL:       4396  ACCURACY: 18.4713
 TIMELY PREFETCHES:        812 LATE PREFETCHES: 0 DROPPED PREFETCHES: 0
LLC1 AVERAGE MISS LATENCY: 153.631 cycles
LLC2 TOTAL     ACCESS: 89943  HIT: 85212  MISS:  4731  HIT %: 94.74  MISS %:  5.26  AVERAGE MISS PENALTY: 154.069
LLC2 LOAD      ACCESS: 21274  HIT: 20842  MISS:   432  HIT %: 97.9694  MISS %: 2.03065  AVERAGE MISS PENALTY: 154.201
LLC2 RFO       ACCESS:  1404  HIT:  1316  MISS:    88  HIT %: 93.7322  MISS %: 6.26781  AVERAGE MISS PENALTY: 149.682
LLC2 PREFETCH  ACCESS: 60123  HIT: 55919  MISS:  4204  HIT %: 93.0077  MISS %: 6.99233  AVERAGE MISS PENALTY: 154.403
LLC2 WRITEBACK ACCESS:  7142  HIT:  7135  MISS:     7  HIT %: 99.902  MISS %: 0.0980118  AVERAGE MISS PENALTY: 0
LLC2 PREFETCH  REQUESTED:     0  ISSUED:     0  USEFUL:   772  USELESS:  1244
 USEFUL LOAD PREFETCHES:        772 PREFETCH ISSUED TO LOWER LEVEL:       4204  ACCURACY: 18.3635
 TIMELY PREFETCHES:        772 LATE PREFETCHES: 0 DROPPED PREFETCHES: 0
LLC2 AVERAGE MISS LATENCY: 154.069 cycles
LLC3 TOTAL     ACCESS: 90126  HIT: 85353  MISS:  4773  HIT %: 94.7041  MISS %: 5.29592  AVERAGE MISS PENALTY: 153.151
LLC3 LOAD      ACCESS: 21299  HIT: 20848  MISS:   451  HIT %: 97.8825  MISS %: 2.11747  AVERAGE MISS PENALTY: 148.534
LLC3 RFO       ACCESS:  1489  HIT:  1412  MISS:    77  HIT %: 94.8287  MISS %: 5.17126  AVERAGE MISS PENALTY: 150.195
LLC3 PREFETCH  ACCESS: 60105  HIT: 55865  MISS:  4240  HIT %: 92.9457  MISS %: 7.05432  AVERAGE MISS PENALTY: 153.876
LLC3 WRITEBACK ACCESS:  7233  HIT:  7228  MISS:     5  HIT %: 99.9309  MISS %: 0.0691276  AVERAGE MISS PENALTY: 0
LLC3 PREFETCH  REQUESTED:     0  ISSUED:     0  USEFUL:   820  USELESS:  1282
 USEFUL LOAD PREFETCHES:        820 PREFETCH ISSUED TO LOWER LEVEL:       4240  ACCURACY: 19.3396
 TIMELY PREFETCHES:        820 LATE PREFETCHES: 0 DROPPED PREFETCHES: 0
LLC3 AVERAGE MISS LATENCY: 153.151 cycles
LLC4 TOTAL     ACCESS: 90236  HIT: 85355  MISS:  4881  HIT %: 94.5909  MISS %: 5.40915  AVERAGE MISS PENALTY: 153.445
LLC4 LOAD      ACCESS: 21124  HIT: 20702  MISS:   422  HIT %: 98.0023  MISS %: 1.99773  AVERAGE MISS PENALTY: 156.185
LLC4 RFO       ACCESS:  1404  HIT:  1314  MISS:    90  HIT %: 93.5897  MISS %: 6.41026  AVERAGE MISS PENALTY: 150.222
LLC4 PREFETCH  ACCESS: 60343  HIT: 55983  MISS:  4360  HIT %: 92.7746  MISS %: 7.22536  AVERAGE MISS PENALTY: 153.563
LLC4 WRITEBACK ACCESS:  7365  HIT:  7356  MISS:     9  HIT %: 99.8778  MISS %: 0.1222  AVERAGE MISS PENALTY: 0
LLC4 PREFETCH  REQUESTED:     0  ISSUED:     0  USEFUL:   850  USELESS:  1357
 USEFUL LOAD PREFETCHES:        850 PREFETCH ISSUED TO LOWER LEVEL:       4360  ACCURACY: 19.4954
 TIMELY PREFETCHES:        850 LATE PREFETCHES: 0 DROPPED PREFETCHES: 0
LLC4 AVERAGE MISS LATENCY: 153.445 cycles
LLC5 TOTAL     ACCESS: 89876  HIT: 84920  MISS:  4956  HIT %: 94.4857  MISS %: 5.51426  AVERAGE MISS PENALTY: 152.609
LLC5 LOAD      ACCESS: 21284  HIT: 20831  MISS:   453  HIT %: 97.8716  MISS %: 2.12836  AVERAGE MISS PENALTY: 152.364
LLC5 RFO       ACCESS:  1242  HIT:  1158  MISS:    84  HIT %: 93.2367  MISS %: 6.76329  AVERAGE MISS PENALTY: 140.012
LLC5 PREFETCH  ACCESS: 60076  HIT: 55666  MISS:  4410  HIT %: 92.6593  MISS %: 7.3407  AVERAGE MISS PENALTY: 153.185
LLC5 WRITEBACK ACCESS:  7274  HIT:  7265  MISS:     9  HIT %: 99.8763  MISS %: 0.123728  AVERAGE MISS PENALTY: 0
LLC5 PREFETCH  REQUESTED:     0  ISSUED:     0  USEFUL:   799  USELESS:  1326
 USEFUL LOAD PREFETCHES:        799 PREFETCH ISSUED TO LOWER LEVEL:       4410  ACCURACY: 18.1179
 TIMELY PREFETCHES:        799 LATE PREFETCHES: 0 DROPPED PREFETCHES: 0
LLC5 AVERAGE MISS LATENCY: 152.609 cycles
LLC6 TOTAL     ACCESS: 88422  HIT: 83514  MISS:  4908  HIT %: 94.4493  MISS %: 5.55065  AVERAGE MISS PENALTY: 152.86
LLC6 LOAD      ACCESS: 20548  HIT: 20104  MISS:   444  HIT %: 97.8392  MISS %: 2.16079  AVERAGE MISS PENALTY: 153.696
LLC6 RFO       ACCESS:  1241  HIT:  1139  MISS:   102  HIT %: 91.7808  MISS %: 8.21918  AVERAGE MISS PENALTY: 141.304
LLC6 PREFETCH  ACCESS: 59560  HIT: 55203  MISS:  4357  HIT %: 92.6847  MISS %: 7.31531  AVERAGE MISS PENALTY: 153.221
LLC6 WRITEBACK ACCESS:  7073  HIT:  7068  MISS:     5  HIT %: 99.9293  MISS %: 0.0706914  AVERAGE MISS PENALTY: 0
LLC6 PREFETCH  REQUESTED:     0  ISSUED:     0  USEFUL:   808  USELESS:  1337
 USEFUL LOAD PREFETCHES:        808 PREFETCH ISSUED TO LOWER LEVEL:       4357  ACCURACY: 18.5449
 TIMELY PREFETCHES:        808 LATE PREFETCHES: 0 DROPPED PREFETCHES: 0
LLC6 AVERAGE MISS LATENCY: 152.86 cycles
LLC7 TOTAL     ACCESS: 88489  HIT: 83753  MISS:  4736  HIT %: 94.6479  MISS %: 5.35208  AVERAGE MISS PENALTY: 155.513
LLC7 LOAD      ACCESS: 20820  HIT: 20398  MISS:   422  HIT %: 97.9731  MISS %: 2.0269  AVERAGE MISS PENALTY: 155.637
LLC7 RFO       ACCESS:  1391  HIT:  1298  MISS:    93  HIT %: 93.3142  MISS %: 6.68584  AVERAGE MISS PENALTY: 137.376
LLC7 PREFETCH  ACCESS: 59180  HIT: 54961  MISS:  4219  HIT %: 92.8709  MISS %: 7.1291  AVERAGE MISS PENALTY: 155.974
LLC7 WRITEBACK ACCESS:  7098  HIT:  7096  MISS:     2  HIT %: 99.9718  MISS %: 0.028177  AVERAGE MISS PENALTY: 0
LLC7 PREFETCH  REQUESTED:     0  ISSUED:     0  USEFUL:   792  USELESS:  1231
 USEFUL LOAD PREFETCHES:        792 PREFETCH ISSUED TO LOWER LEVEL:       4219  ACCURACY: 18.7722
 TIMELY PREFETCHES:        792 LATE PREFETCHES: 0 DROPPED PREFETCHES: 0
LLC7 AVERAGE MISS LATENCY: 155.513 cycles
ROI Average ROB Stall Cycles:	6.82563
ROI Total ROB Stalls Cycles:	293868952
ROI TOTAL ROB counter      :	43053762
ROI Average Load ROB Stall Cycles:	8.17093
ROI Total Load ROB Stalls Cycle  :	52564549
ROI Total Load ROB stalls Counter:	6433116
Major fault: 0 Minor fault: 5898

