
*** ChampSim Multicore Out-of-Order Simulator ***

Warmup Instructions: 200000000
Simulation Instructions: 200000000
Number of CPUs: 1
threads:1

L1I Configuration:
L1I_SET:64
L1I_WAY:8
L1I_RQ_SIZE:64
L1I_WQ_SIZE:64
L1I_PQ_SIZE:8
L1I_MSHR_SIZE:8

L1D Configuration:
L1D_SET:64
L1D_WAY:12
L1D_RQ_SIZE:64
L1D_WQ_SIZE:64
L1D_PQ_SIZE:8
L1D_MSHR_SIZE:16

L2C Configuration:
L2C_SET:1024
L2C_WAY:8
L2C_RQ_SIZE:32
L2C_WQ_SIZE:32
L2C_PQ_SIZE:16
L2C_MSHR_SIZE:32

LLC Configuration:
LLC_SET:2048
LLC_WAY:16
LLC SLICES:8
LLC_RQ_SIZE:64
LLC_WQ_SIZE:64
LLC_PQ_SIZE:32
LLC_MSHR_SIZE:64

Interconnect OFF
Attacker deprioritize is: OFF
Off-chip DRAM Size: 4096 MB Channels: 1 Width: 64-bit Data Rate: 3200 MT/s
PAGE SIZE in KB: 4.000000 
PAGE SIZE in MB: 0.003906 
PAGE offset in bits: 12 
CEASER-S_LLC:0
MIRAGE : 1
CEASER_LATENCY:3
REMAP : OFF
Partitions : 1
Multi-Step : OFF
BFS : OFF

CPU 0 runs /home/anubhav/spec_2017/600.perlbench_s-570B.champsimtrace.xz
CPU 0 Bimodal branch predictor
Initialize Hawkeye state
Initialize Hawkeye state
Initialize Hawkeye state
Initialize Hawkeye state
Initialize Hawkeye state
Initialize Hawkeye state
Initialize Hawkeye state
Initialize Hawkeye state
Heartbeat CPU 0 instructions: 10000002 cycles: 4995839 heartbeat IPC: 2.00167 cumulative IPC: 2.00167 (Simulation time: 0 hr 1 min 33 sec) 
 Total Blocks : 262144 Invalid Blocks : 258097
Heartbeat CPU 0 instructions: 20000002 cycles: 9928113 heartbeat IPC: 2.02746 cumulative IPC: 2.01448 (Simulation time: 0 hr 2 min 58 sec) 
 Total Blocks : 262144 Invalid Blocks : 256496
Heartbeat CPU 0 instructions: 30000000 cycles: 15052397 heartbeat IPC: 1.95149 cumulative IPC: 1.99304 (Simulation time: 0 hr 4 min 27 sec) 
 Total Blocks : 262144 Invalid Blocks : 254488
Heartbeat CPU 0 instructions: 40000001 cycles: 19996123 heartbeat IPC: 2.02277 cumulative IPC: 2.00039 (Simulation time: 0 hr 5 min 54 sec) 
 Total Blocks : 262144 Invalid Blocks : 252497
Heartbeat CPU 0 instructions: 50000002 cycles: 24955278 heartbeat IPC: 2.01647 cumulative IPC: 2.00358 (Simulation time: 0 hr 7 min 16 sec) 
 Total Blocks : 262144 Invalid Blocks : 250712
Heartbeat CPU 0 instructions: 60000000 cycles: 29881600 heartbeat IPC: 2.02991 cumulative IPC: 2.00792 (Simulation time: 0 hr 8 min 40 sec) 
 Total Blocks : 262144 Invalid Blocks : 249375
Heartbeat CPU 0 instructions: 70000001 cycles: 36346205 heartbeat IPC: 1.54689 cumulative IPC: 1.92592 (Simulation time: 0 hr 10 min 8 sec) 
 Total Blocks : 262144 Invalid Blocks : 217401
Heartbeat CPU 0 instructions: 80000000 cycles: 43065268 heartbeat IPC: 1.4883 cumulative IPC: 1.85765 (Simulation time: 0 hr 11 min 46 sec) 
 Total Blocks : 262144 Invalid Blocks : 193157
Heartbeat CPU 0 instructions: 90000000 cycles: 50804576 heartbeat IPC: 1.29211 cumulative IPC: 1.77149 (Simulation time: 0 hr 13 min 23 sec) 
 Total Blocks : 262144 Invalid Blocks : 162314
Heartbeat CPU 0 instructions: 100000002 cycles: 55806503 heartbeat IPC: 1.99923 cumulative IPC: 1.79191 (Simulation time: 0 hr 14 min 52 sec) 
 Total Blocks : 262144 Invalid Blocks : 156616
Heartbeat CPU 0 instructions: 110000000 cycles: 60892439 heartbeat IPC: 1.96621 cumulative IPC: 1.80646 (Simulation time: 0 hr 16 min 23 sec) 
 Total Blocks : 262144 Invalid Blocks : 151461
Heartbeat CPU 0 instructions: 120000001 cycles: 66011481 heartbeat IPC: 1.95349 cumulative IPC: 1.81787 (Simulation time: 0 hr 17 min 48 sec) 
 Total Blocks : 262144 Invalid Blocks : 145413
Heartbeat CPU 0 instructions: 130000000 cycles: 71087432 heartbeat IPC: 1.97007 cumulative IPC: 1.82873 (Simulation time: 0 hr 19 min 22 sec) 
 Total Blocks : 262144 Invalid Blocks : 142136
Heartbeat CPU 0 instructions: 140000003 cycles: 78729771 heartbeat IPC: 1.3085 cumulative IPC: 1.77823 (Simulation time: 0 hr 21 min 0 sec) 
 Total Blocks : 262144 Invalid Blocks : 129301
Heartbeat CPU 0 instructions: 150000001 cycles: 86795739 heartbeat IPC: 1.23978 cumulative IPC: 1.7282 (Simulation time: 0 hr 22 min 40 sec) 
 Total Blocks : 262144 Invalid Blocks : 121491
Heartbeat CPU 0 instructions: 160000000 cycles: 93132573 heartbeat IPC: 1.57807 cumulative IPC: 1.71798 (Simulation time: 0 hr 24 min 16 sec) 
 Total Blocks : 262144 Invalid Blocks : 115690
Heartbeat CPU 0 instructions: 170000001 cycles: 98420951 heartbeat IPC: 1.89094 cumulative IPC: 1.72727 (Simulation time: 0 hr 25 min 53 sec) 
 Total Blocks : 262144 Invalid Blocks : 113123
Heartbeat CPU 0 instructions: 180000003 cycles: 104427790 heartbeat IPC: 1.66477 cumulative IPC: 1.72368 (Simulation time: 0 hr 27 min 32 sec) 
 Total Blocks : 262144 Invalid Blocks : 108749
Heartbeat CPU 0 instructions: 190000001 cycles: 112225001 heartbeat IPC: 1.28251 cumulative IPC: 1.69303 (Simulation time: 0 hr 29 min 13 sec) 
 Total Blocks : 262144 Invalid Blocks : 101803
Heartbeat CPU 0 instructions: 200000001 cycles: 120410194 heartbeat IPC: 1.22172 cumulative IPC: 1.66099 (Simulation time: 0 hr 30 min 56 sec) 
 Total Blocks : 262144 Invalid Blocks : 97957

Warmup complete CPU 0 instructions: 200000001 cycles: 120410194 (Simulation time: 0 hr 30 min 56 sec) 

Heartbeat CPU 0 instructions: 210000000 cycles: 139101937 heartbeat IPC: 0.534996 cumulative IPC: 0.534996 (Simulation time: 0 hr 34 min 11 sec) 
 Total Blocks : 262144 Invalid Blocks : 95571
Heartbeat CPU 0 instructions: 220000000 cycles: 153466399 heartbeat IPC: 0.696163 cumulative IPC: 0.60503 (Simulation time: 0 hr 37 min 3 sec) 
 Total Blocks : 262144 Invalid Blocks : 94918
Heartbeat CPU 0 instructions: 230000003 cycles: 166798983 heartbeat IPC: 0.750042 cumulative IPC: 0.646708 (Simulation time: 0 hr 39 min 34 sec) 
 Total Blocks : 262144 Invalid Blocks : 94403
Heartbeat CPU 0 instructions: 240000001 cycles: 181006228 heartbeat IPC: 0.703866 cumulative IPC: 0.660109 (Simulation time: 0 hr 42 min 23 sec) 
 Total Blocks : 262144 Invalid Blocks : 93835
Heartbeat CPU 0 instructions: 250000002 cycles: 196118457 heartbeat IPC: 0.661716 cumulative IPC: 0.66043 (Simulation time: 0 hr 45 min 13 sec) 
 Total Blocks : 262144 Invalid Blocks : 93247
Heartbeat CPU 0 instructions: 260000002 cycles: 210652793 heartbeat IPC: 0.688026 cumulative IPC: 0.664874 (Simulation time: 0 hr 47 min 43 sec) 
 Total Blocks : 262144 Invalid Blocks : 92717
Heartbeat CPU 0 instructions: 270000001 cycles: 225459666 heartbeat IPC: 0.675362 cumulative IPC: 0.666353 (Simulation time: 0 hr 50 min 22 sec) 
 Total Blocks : 262144 Invalid Blocks : 92037
Heartbeat CPU 0 instructions: 280000002 cycles: 240256490 heartbeat IPC: 0.675821 cumulative IPC: 0.667522 (Simulation time: 0 hr 53 min 3 sec) 
 Total Blocks : 262144 Invalid Blocks : 91424
Heartbeat CPU 0 instructions: 290000001 cycles: 258393669 heartbeat IPC: 0.551354 cumulative IPC: 0.652252 (Simulation time: 0 hr 56 min 2 sec) 
 Total Blocks : 262144 Invalid Blocks : 89852
Heartbeat CPU 0 instructions: 300000001 cycles: 283484273 heartbeat IPC: 0.398556 cumulative IPC: 0.613218 (Simulation time: 0 hr 59 min 19 sec) 
 Total Blocks : 262144 Invalid Blocks : 86566
Heartbeat CPU 0 instructions: 310000000 cycles: 309078196 heartbeat IPC: 0.390718 cumulative IPC: 0.583035 (Simulation time: 1 hr 3 min 4 sec) 
 Total Blocks : 262144 Invalid Blocks : 84018
Heartbeat CPU 0 instructions: 320000002 cycles: 328580308 heartbeat IPC: 0.512765 cumulative IPC: 0.576452 (Simulation time: 1 hr 6 min 10 sec) 
 Total Blocks : 262144 Invalid Blocks : 82142
Heartbeat CPU 0 instructions: 330000000 cycles: 341847409 heartbeat IPC: 0.753744 cumulative IPC: 0.587074 (Simulation time: 1 hr 8 min 22 sec) 
 Total Blocks : 262144 Invalid Blocks : 81661
Heartbeat CPU 0 instructions: 340000003 cycles: 355898375 heartbeat IPC: 0.711695 cumulative IPC: 0.59451 (Simulation time: 1 hr 10 min 40 sec) 
 Total Blocks : 262144 Invalid Blocks : 81121
Heartbeat CPU 0 instructions: 350000001 cycles: 369883231 heartbeat IPC: 0.715059 cumulative IPC: 0.601267 (Simulation time: 1 hr 12 min 59 sec) 
 Total Blocks : 262144 Invalid Blocks : 80670
Heartbeat CPU 0 instructions: 360000001 cycles: 383985548 heartbeat IPC: 0.709103 cumulative IPC: 0.607037 (Simulation time: 1 hr 15 min 19 sec) 
 Total Blocks : 262144 Invalid Blocks : 80110
Heartbeat CPU 0 instructions: 370000001 cycles: 409695867 heartbeat IPC: 0.388949 cumulative IPC: 0.587654 (Simulation time: 1 hr 18 min 0 sec) 
 Total Blocks : 262144 Invalid Blocks : 77900
Heartbeat CPU 0 instructions: 380000000 cycles: 433973765 heartbeat IPC: 0.411897 cumulative IPC: 0.574046 (Simulation time: 1 hr 20 min 20 sec) 
 Total Blocks : 262144 Invalid Blocks : 75840
Heartbeat CPU 0 instructions: 390000003 cycles: 454053096 heartbeat IPC: 0.498025 cumulative IPC: 0.569471 (Simulation time: 1 hr 22 min 36 sec) 
 Total Blocks : 262144 Invalid Blocks : 74442
Heartbeat CPU 0 instructions: 400000000 cycles: 466546121 heartbeat IPC: 0.800446 cumulative IPC: 0.577808 (Simulation time: 1 hr 24 min 33 sec) 
 Total Blocks : 262144 Invalid Blocks : 74346
Finished CPU 0 instructions: 200000000 cycles: 346135935 cumulative IPC: 0.577808 (Simulation time: 1 hr 24 min 33 sec) 

CPU 0 Branch Prediction Accuracy: 96.1878% MPKI: 5.40214 Average ROB Occupancy at Mispredict: 136.202

ChampSim completed all CPUs

Region of Interest Statistics

CPU 0 cumulative IPC: 0.577808 instructions: 200000000 cycles: 346135935
ITLB TOTAL     ACCESS: 31131098  HIT: 31087939  MISS: 43159  HIT %: 99.8614  MISS %: 0.138636  AVERAGE MISS PENALTY: 10.8715
ITLB LOAD      ACCESS: 31131098  HIT: 31087939  MISS: 43159  HIT %: 99.8614  MISS %: 0.138636  AVERAGE MISS PENALTY: 10.8715
ITLB RFO       ACCESS:     0  HIT:     0  MISS:     0  HIT %:     0  MISS %:     0  AVERAGE MISS PENALTY: 0
ITLB PREFETCH  ACCESS:     0  HIT:     0  MISS:     0  HIT %:     0  MISS %:     0  AVERAGE MISS PENALTY: 0
ITLB WRITEBACK ACCESS:     0  HIT:     0  MISS:     0  HIT %:     0  MISS %:     0  AVERAGE MISS PENALTY: 0
ITLB PREFETCH  REQUESTED:     0  ISSUED:     0  USEFUL:     0  USELESS:     0
 USEFUL LOAD PREFETCHES:          0 PREFETCH ISSUED TO LOWER LEVEL:          0  ACCURACY: -nan
 TIMELY PREFETCHES:          0 LATE PREFETCHES: 0 DROPPED PREFETCHES: 0
ITLB AVERAGE MISS LATENCY: 10.8715 cycles
DTLB TOTAL     ACCESS: 52202717  HIT: 51756655  MISS: 446062  HIT %: 99.1455  MISS %: 0.85448  AVERAGE MISS PENALTY: 13.2273
DTLB LOAD      ACCESS: 30725789  HIT: 30317788  MISS: 408001  HIT %: 98.6721  MISS %: 1.32788  AVERAGE MISS PENALTY: 13.1379
DTLB RFO       ACCESS: 21476928  HIT: 21438867  MISS: 38061  HIT %: 99.8228  MISS %: 0.177218  AVERAGE MISS PENALTY: 14.1859
DTLB PREFETCH  ACCESS:     0  HIT:     0  MISS:     0  HIT %:     0  MISS %:     0  AVERAGE MISS PENALTY: 0
DTLB WRITEBACK ACCESS:     0  HIT:     0  MISS:     0  HIT %:     0  MISS %:     0  AVERAGE MISS PENALTY: 0
DTLB PREFETCH  REQUESTED:     0  ISSUED:     0  USEFUL:     0  USELESS:     0
 USEFUL LOAD PREFETCHES:          0 PREFETCH ISSUED TO LOWER LEVEL:          0  ACCURACY: -nan
 TIMELY PREFETCHES:          0 LATE PREFETCHES: 0 DROPPED PREFETCHES: 0
DTLB AVERAGE MISS LATENCY: 13.2273 cycles
STLB TOTAL     ACCESS: 489221  HIT: 470873  MISS: 18348  HIT %: 96.2495  MISS %: 3.75045  AVERAGE MISS PENALTY: 100
STLB LOAD      ACCESS: 451160  HIT: 434721  MISS: 16439  HIT %: 96.3563  MISS %: 3.64372  AVERAGE MISS PENALTY: 100
STLB RFO       ACCESS: 38061  HIT: 36152  MISS:  1909  HIT %: 94.9844  MISS %: 5.01563  AVERAGE MISS PENALTY: 100
STLB PREFETCH  ACCESS:     0  HIT:     0  MISS:     0  HIT %:     0  MISS %:     0  AVERAGE MISS PENALTY: 0
STLB WRITEBACK ACCESS:     0  HIT:     0  MISS:     0  HIT %:     0  MISS %:     0  AVERAGE MISS PENALTY: 0
STLB PREFETCH  REQUESTED:     0  ISSUED:     0  USEFUL:     0  USELESS:     0
 USEFUL LOAD PREFETCHES:          0 PREFETCH ISSUED TO LOWER LEVEL:          0  ACCURACY: -nan
 TIMELY PREFETCHES:          0 LATE PREFETCHES: 0 DROPPED PREFETCHES: 0
STLB AVERAGE MISS LATENCY: 100 cycles
L1D TOTAL     ACCESS: 85676098  HIT: 84503054  MISS: 1173044  HIT %: 98.6308  MISS %: 1.36916  AVERAGE MISS PENALTY: 1.59869e+06
L1D LOAD      ACCESS: 33942213  HIT: 33588013  MISS: 354200  HIT %: 98.9565  MISS %: 1.04354  AVERAGE MISS PENALTY: 5.17113e+06
L1D RFO       ACCESS: 40101489  HIT: 40066966  MISS: 34523  HIT %: 99.9139  MISS %: 0.0860891  AVERAGE MISS PENALTY: 1.26547e+06
L1D PREFETCH  ACCESS: 11632396  HIT: 10848075  MISS: 784321  HIT %: 93.2574  MISS %: 6.74256  AVERAGE MISS PENALTY: 37.0019
L1D WRITEBACK ACCESS:     0  HIT:     0  MISS:     0  HIT %:     0  MISS %:     0  AVERAGE MISS PENALTY: 0
L1D PREFETCH  REQUESTED: 13128469  ISSUED: 13031404  USEFUL: 174017  USELESS: 610289
 USEFUL LOAD PREFETCHES:     174017 PREFETCH ISSUED TO LOWER LEVEL:     852598  ACCURACY: 20.4102
 TIMELY PREFETCHES:     174017 LATE PREFETCHES: 38737 DROPPED PREFETCHES: 97065
L1D AVERAGE MISS LATENCY: 37277.2 cycles
L1I TOTAL     ACCESS: 42963049  HIT: 42324620  MISS: 638429  HIT %: 98.514  MISS %: 1.486  AVERAGE MISS PENALTY: 14.3822
L1I LOAD      ACCESS: 42963049  HIT: 42324620  MISS: 638429  HIT %: 98.514  MISS %: 1.486  AVERAGE MISS PENALTY: 14.3822
L1I RFO       ACCESS:     0  HIT:     0  MISS:     0  HIT %:     0  MISS %:     0  AVERAGE MISS PENALTY: 0
L1I PREFETCH  ACCESS:     0  HIT:     0  MISS:     0  HIT %:     0  MISS %:     0  AVERAGE MISS PENALTY: 0
L1I WRITEBACK ACCESS:     0  HIT:     0  MISS:     0  HIT %:     0  MISS %:     0  AVERAGE MISS PENALTY: 0
L1I PREFETCH  REQUESTED:     0  ISSUED:     0  USEFUL:     0  USELESS:     0
 USEFUL LOAD PREFETCHES:          0 PREFETCH ISSUED TO LOWER LEVEL:          0  ACCURACY: -nan
 TIMELY PREFETCHES:          0 LATE PREFETCHES: 0 DROPPED PREFETCHES: 0
L1I AVERAGE MISS LATENCY: 14.3822 cycles
L2C TOTAL     ACCESS: 2886859  HIT: 2230091  MISS: 656768  HIT %: 77.2497  MISS %: 22.7503  AVERAGE MISS PENALTY: 1.90657e+06
L2C LOAD      ACCESS: 990996  HIT: 819315  MISS: 171681  HIT %: 82.6759  MISS %: 17.3241  AVERAGE MISS PENALTY: 7.26905e+06
L2C RFO       ACCESS: 34392  HIT: 23354  MISS: 11038  HIT %: 67.9053  MISS %: 32.0947  AVERAGE MISS PENALTY: 379940
L2C PREFETCH  ACCESS: 1704759  HIT: 1231782  MISS: 472977  HIT %: 72.2555  MISS %: 27.7445  AVERAGE MISS PENALTY: 53.288
L2C WRITEBACK ACCESS: 156712  HIT: 155640  MISS:  1072  HIT %: 99.3159  MISS %: 0.684057  AVERAGE MISS PENALTY: 0
L2C PREFETCH  REQUESTED: 1219840  ISSUED: 1196607  USEFUL: 46171  USELESS: 426229
 USEFUL LOAD PREFETCHES:      46171 PREFETCH ISSUED TO LOWER LEVEL:     506732  ACCURACY: 9.11152
 TIMELY PREFETCHES:      46171 LATE PREFETCHES: 30298 DROPPED PREFETCHES: 23233
L2C AVERAGE MISS LATENCY: 50.9547 cycles
LLC0 TOTAL     ACCESS: 86179  HIT: 77631  MISS:  8548  HIT %: 90.0811  MISS %: 9.91889  AVERAGE MISS PENALTY: 149.232
LLC0 LOAD      ACCESS: 21962  HIT: 20548  MISS:  1414  HIT %: 93.5616  MISS %: 6.43839  AVERAGE MISS PENALTY: 149.157
LLC0 RFO       ACCESS:  1442  HIT:  1271  MISS:   171  HIT %: 88.1415  MISS %: 11.8585  AVERAGE MISS PENALTY: 141.842
LLC0 PREFETCH  ACCESS: 55958  HIT: 49020  MISS:  6938  HIT %: 87.6014  MISS %: 12.3986  AVERAGE MISS PENALTY: 149.967
LLC0 WRITEBACK ACCESS:  6817  HIT:  6792  MISS:    25  HIT %: 99.6333  MISS %: 0.36673  AVERAGE MISS PENALTY: 0
LLC0 PREFETCH  REQUESTED:     0  ISSUED:     0  USEFUL:   891  USELESS:  3994
 USEFUL LOAD PREFETCHES:        891 PREFETCH ISSUED TO LOWER LEVEL:       6938  ACCURACY: 12.8423
 TIMELY PREFETCHES:        891 LATE PREFETCHES: 0 DROPPED PREFETCHES: 0
LLC0 AVERAGE MISS LATENCY: 149.232 cycles
Deadblocks : 1180 Deadblock percentage : 83.4512

LLC1 TOTAL     ACCESS: 89568  HIT: 80493  MISS:  9075  HIT %: 89.868  MISS %: 10.132  AVERAGE MISS PENALTY: 151.033
LLC1 LOAD      ACCESS: 21871  HIT: 20457  MISS:  1414  HIT %: 93.5348  MISS %: 6.46518  AVERAGE MISS PENALTY: 148.946
LLC1 RFO       ACCESS:  1408  HIT:  1241  MISS:   167  HIT %: 88.1392  MISS %: 11.8608  AVERAGE MISS PENALTY: 149.551
LLC1 PREFETCH  ACCESS: 59253  HIT: 51782  MISS:  7471  HIT %: 87.3914  MISS %: 12.6086  AVERAGE MISS PENALTY: 151.926
LLC1 WRITEBACK ACCESS:  7036  HIT:  7013  MISS:    23  HIT %: 99.6731  MISS %: 0.32689  AVERAGE MISS PENALTY: 0
LLC1 PREFETCH  REQUESTED:     0  ISSUED:     0  USEFUL:   957  USELESS:  4348
 USEFUL LOAD PREFETCHES:        957 PREFETCH ISSUED TO LOWER LEVEL:       7471  ACCURACY: 12.8095
 TIMELY PREFETCHES:        957 LATE PREFETCHES: 0 DROPPED PREFETCHES: 0
LLC1 AVERAGE MISS LATENCY: 151.033 cycles
LLC2 TOTAL     ACCESS: 89899  HIT: 80909  MISS:  8990  HIT %: 89.9999  MISS %: 10.0001  AVERAGE MISS PENALTY: 149.29
LLC2 LOAD      ACCESS: 21235  HIT: 19848  MISS:  1387  HIT %: 93.4683  MISS %: 6.53167  AVERAGE MISS PENALTY: 147.689
LLC2 RFO       ACCESS:  1408  HIT:  1246  MISS:   162  HIT %: 88.4943  MISS %: 11.5057  AVERAGE MISS PENALTY: 143.444
LLC2 PREFETCH  ACCESS: 60107  HIT: 52700  MISS:  7407  HIT %: 87.677  MISS %: 12.323  AVERAGE MISS PENALTY: 150.403
LLC2 WRITEBACK ACCESS:  7149  HIT:  7115  MISS:    34  HIT %: 99.5244  MISS %: 0.475591  AVERAGE MISS PENALTY: 0
LLC2 PREFETCH  REQUESTED:     0  ISSUED:     0  USEFUL:   961  USELESS:  4367
 USEFUL LOAD PREFETCHES:        961 PREFETCH ISSUED TO LOWER LEVEL:       7407  ACCURACY: 12.9742
 TIMELY PREFETCHES:        961 LATE PREFETCHES: 0 DROPPED PREFETCHES: 0
LLC2 AVERAGE MISS LATENCY: 149.29 cycles
LLC3 TOTAL     ACCESS: 90163  HIT: 81016  MISS:  9147  HIT %: 89.855  MISS %: 10.145  AVERAGE MISS PENALTY: 150.375
LLC3 LOAD      ACCESS: 21270  HIT: 19836  MISS:  1434  HIT %: 93.2581  MISS %: 6.74189  AVERAGE MISS PENALTY: 149.378
LLC3 RFO       ACCESS:  1489  HIT:  1314  MISS:   175  HIT %: 88.2471  MISS %: 11.7529  AVERAGE MISS PENALTY: 147.863
LLC3 PREFETCH  ACCESS: 60164  HIT: 52649  MISS:  7515  HIT %: 87.5091  MISS %: 12.4909  AVERAGE MISS PENALTY: 151.085
LLC3 WRITEBACK ACCESS:  7240  HIT:  7217  MISS:    23  HIT %: 99.6823  MISS %: 0.31768  AVERAGE MISS PENALTY: 0
LLC3 PREFETCH  REQUESTED:     0  ISSUED:     0  USEFUL:  1024  USELESS:  4415
 USEFUL LOAD PREFETCHES:       1024 PREFETCH ISSUED TO LOWER LEVEL:       7515  ACCURACY: 13.6261
 TIMELY PREFETCHES:       1024 LATE PREFETCHES: 0 DROPPED PREFETCHES: 0
LLC3 AVERAGE MISS LATENCY: 150.375 cycles
LLC4 TOTAL     ACCESS: 90190  HIT: 81179  MISS:  9011  HIT %: 90.0089  MISS %: 9.99113  AVERAGE MISS PENALTY: 149.066
LLC4 LOAD      ACCESS: 21090  HIT: 19775  MISS:  1315  HIT %: 93.7648  MISS %: 6.23518  AVERAGE MISS PENALTY: 145.864
LLC4 RFO       ACCESS:  1402  HIT:  1244  MISS:   158  HIT %: 88.7304  MISS %: 11.2696  AVERAGE MISS PENALTY: 143.133
LLC4 PREFETCH  ACCESS: 60335  HIT: 52823  MISS:  7512  HIT %: 87.5495  MISS %: 12.4505  AVERAGE MISS PENALTY: 150.268
LLC4 WRITEBACK ACCESS:  7363  HIT:  7337  MISS:    26  HIT %: 99.6469  MISS %: 0.353117  AVERAGE MISS PENALTY: 0
LLC4 PREFETCH  REQUESTED:     0  ISSUED:     0  USEFUL:  1036  USELESS:  4457
 USEFUL LOAD PREFETCHES:       1036 PREFETCH ISSUED TO LOWER LEVEL:       7512  ACCURACY: 13.7913
 TIMELY PREFETCHES:       1036 LATE PREFETCHES: 0 DROPPED PREFETCHES: 0
LLC4 AVERAGE MISS LATENCY: 149.066 cycles
LLC5 TOTAL     ACCESS: 89899  HIT: 80849  MISS:  9050  HIT %: 89.9331  MISS %: 10.0669  AVERAGE MISS PENALTY: 149.845
LLC5 LOAD      ACCESS: 21244  HIT: 19923  MISS:  1321  HIT %: 93.7818  MISS %: 6.21823  AVERAGE MISS PENALTY: 149.506
LLC5 RFO       ACCESS:  1243  HIT:  1081  MISS:   162  HIT %: 86.967  MISS %: 13.033  AVERAGE MISS PENALTY: 141.272
LLC5 PREFETCH  ACCESS: 60133  HIT: 52592  MISS:  7541  HIT %: 87.4595  MISS %: 12.5405  AVERAGE MISS PENALTY: 150.605
LLC5 WRITEBACK ACCESS:  7279  HIT:  7253  MISS:    26  HIT %: 99.6428  MISS %: 0.357192  AVERAGE MISS PENALTY: 0
LLC5 PREFETCH  REQUESTED:     0  ISSUED:     0  USEFUL:   938  USELESS:  4478
 USEFUL LOAD PREFETCHES:        938 PREFETCH ISSUED TO LOWER LEVEL:       7541  ACCURACY: 12.4387
 TIMELY PREFETCHES:        938 LATE PREFETCHES: 0 DROPPED PREFETCHES: 0
LLC5 AVERAGE MISS LATENCY: 149.845 cycles
LLC6 TOTAL     ACCESS: 88417  HIT: 79457  MISS:  8960  HIT %: 89.8662  MISS %: 10.1338  AVERAGE MISS PENALTY: 149.411
LLC6 LOAD      ACCESS: 20511  HIT: 19108  MISS:  1403  HIT %: 93.1598  MISS %: 6.84023  AVERAGE MISS PENALTY: 146.611
LLC6 RFO       ACCESS:  1252  HIT:  1085  MISS:   167  HIT %: 86.6613  MISS %: 13.3387  AVERAGE MISS PENALTY: 140.647
LLC6 PREFETCH  ACCESS: 59570  HIT: 52211  MISS:  7359  HIT %: 87.6465  MISS %: 12.3535  AVERAGE MISS PENALTY: 150.773
LLC6 WRITEBACK ACCESS:  7084  HIT:  7053  MISS:    31  HIT %: 99.5624  MISS %: 0.437606  AVERAGE MISS PENALTY: 0
LLC6 PREFETCH  REQUESTED:     0  ISSUED:     0  USEFUL:   951  USELESS:  4253
 USEFUL LOAD PREFETCHES:        951 PREFETCH ISSUED TO LOWER LEVEL:       7359  ACCURACY: 12.923
 TIMELY PREFETCHES:        951 LATE PREFETCHES: 0 DROPPED PREFETCHES: 0
LLC6 AVERAGE MISS LATENCY: 149.411 cycles
LLC7 TOTAL     ACCESS: 88460  HIT: 79542  MISS:  8918  HIT %: 89.9186  MISS %: 10.0814  AVERAGE MISS PENALTY: 149.804
LLC7 LOAD      ACCESS: 20791  HIT: 19377  MISS:  1414  HIT %: 93.199  MISS %: 6.80102  AVERAGE MISS PENALTY: 147.861
LLC7 RFO       ACCESS:  1390  HIT:  1218  MISS:   172  HIT %: 87.6259  MISS %: 12.3741  AVERAGE MISS PENALTY: 140.953
LLC7 PREFETCH  ACCESS: 59164  HIT: 51863  MISS:  7301  HIT %: 87.6597  MISS %: 12.3403  AVERAGE MISS PENALTY: 151.025
LLC7 WRITEBACK ACCESS:  7115  HIT:  7084  MISS:    31  HIT %: 99.5643  MISS %: 0.435699  AVERAGE MISS PENALTY: 0
LLC7 PREFETCH  REQUESTED:     0  ISSUED:     0  USEFUL:   928  USELESS:  4353
 USEFUL LOAD PREFETCHES:        928 PREFETCH ISSUED TO LOWER LEVEL:       7301  ACCURACY: 12.7106
 TIMELY PREFETCHES:        928 LATE PREFETCHES: 0 DROPPED PREFETCHES: 0
LLC7 AVERAGE MISS LATENCY: 149.804 cycles
ROI Average ROB Stall Cycles:	6.84068
ROI Total ROB Stalls Cycles:	294457028
ROI TOTAL ROB counter      :	43045008
ROI Average Load ROB Stall Cycles:	8.26094
ROI Total Load ROB Stalls Cycle  :	53130942
ROI Total Load ROB stalls Counter:	6431589
Major fault: 0 Minor fault: 5898

