
*** ChampSim Multicore Out-of-Order Simulator ***

Warmup Instructions: 200000000
Simulation Instructions: 200000000
Number of CPUs: 1
threads:1

L1I Configuration:
L1I_SET:64
L1I_WAY:8
L1I_RQ_SIZE:64
L1I_WQ_SIZE:64
L1I_PQ_SIZE:8
L1I_MSHR_SIZE:8

L1D Configuration:
L1D_SET:64
L1D_WAY:12
L1D_RQ_SIZE:64
L1D_WQ_SIZE:64
L1D_PQ_SIZE:8
L1D_MSHR_SIZE:16

L2C Configuration:
L2C_SET:1024
L2C_WAY:8
L2C_RQ_SIZE:32
L2C_WQ_SIZE:32
L2C_PQ_SIZE:16
L2C_MSHR_SIZE:32

LLC Configuration:
LLC_SET:4096
LLC_WAY:16
LLC SLICES:8
LLC_RQ_SIZE:64
LLC_WQ_SIZE:64
LLC_PQ_SIZE:32
LLC_MSHR_SIZE:64

Interconnect OFF
Attacker deprioritize is: OFF
Off-chip DRAM Size: 4096 MB Channels: 1 Width: 64-bit Data Rate: 3200 MT/s
PAGE SIZE in KB: 4.000000 
PAGE SIZE in MB: 0.003906 
PAGE offset in bits: 12 
CEASER-S_LLC:0
MIRAGE : 1
CEASER_LATENCY:3
REMAP : OFF
Partitions : 1
Multi-Step : OFF
BFS : OFF

CPU 0 runs /home/anubhav/spec_2017/602.gcc_s-734B.champsimtrace.xz
CPU 0 Bimodal branch predictor
Initialize Hawkeye state
Initialize Hawkeye state
Initialize Hawkeye state
Initialize Hawkeye state
Initialize Hawkeye state
Initialize Hawkeye state
Initialize Hawkeye state
Initialize Hawkeye state
Heartbeat CPU 0 instructions: 10000000 cycles: 7637590 heartbeat IPC: 1.30931 cumulative IPC: 1.30931 (Simulation time: 0 hr 1 min 39 sec) 
 Total Blocks : 524288 Invalid Blocks : 444005
Heartbeat CPU 0 instructions: 20000000 cycles: 15266199 heartbeat IPC: 1.31085 cumulative IPC: 1.31008 (Simulation time: 0 hr 3 min 27 sec) 
 Total Blocks : 524288 Invalid Blocks : 374693
Heartbeat CPU 0 instructions: 30000003 cycles: 22896668 heartbeat IPC: 1.31054 cumulative IPC: 1.31023 (Simulation time: 0 hr 5 min 30 sec) 
 Total Blocks : 524288 Invalid Blocks : 320922
Heartbeat CPU 0 instructions: 40000001 cycles: 30545059 heartbeat IPC: 1.30746 cumulative IPC: 1.30954 (Simulation time: 0 hr 7 min 55 sec) 
 Total Blocks : 524288 Invalid Blocks : 299897
Heartbeat CPU 0 instructions: 50000000 cycles: 38165881 heartbeat IPC: 1.31219 cumulative IPC: 1.31007 (Simulation time: 0 hr 10 min 10 sec) 
 Total Blocks : 524288 Invalid Blocks : 289329
Heartbeat CPU 0 instructions: 60000000 cycles: 45793690 heartbeat IPC: 1.31099 cumulative IPC: 1.31022 (Simulation time: 0 hr 12 min 28 sec) 
 Total Blocks : 524288 Invalid Blocks : 283431
Heartbeat CPU 0 instructions: 70000001 cycles: 53460333 heartbeat IPC: 1.30435 cumulative IPC: 1.30938 (Simulation time: 0 hr 14 min 53 sec) 
 Total Blocks : 524288 Invalid Blocks : 278394
Heartbeat CPU 0 instructions: 80000003 cycles: 61092233 heartbeat IPC: 1.31029 cumulative IPC: 1.3095 (Simulation time: 0 hr 17 min 14 sec) 
 Total Blocks : 524288 Invalid Blocks : 276561
Heartbeat CPU 0 instructions: 90000001 cycles: 68735927 heartbeat IPC: 1.30827 cumulative IPC: 1.30936 (Simulation time: 0 hr 19 min 42 sec) 
 Total Blocks : 524288 Invalid Blocks : 268804
Heartbeat CPU 0 instructions: 100000003 cycles: 75830675 heartbeat IPC: 1.40949 cumulative IPC: 1.31873 (Simulation time: 0 hr 22 min 45 sec) 
 Total Blocks : 524288 Invalid Blocks : 235002
Heartbeat CPU 0 instructions: 110000000 cycles: 83446723 heartbeat IPC: 1.31302 cumulative IPC: 1.31821 (Simulation time: 0 hr 25 min 10 sec) 
 Total Blocks : 524288 Invalid Blocks : 230190
Heartbeat CPU 0 instructions: 120000000 cycles: 91083065 heartbeat IPC: 1.30953 cumulative IPC: 1.31748 (Simulation time: 0 hr 27 min 24 sec) 
 Total Blocks : 524288 Invalid Blocks : 224780
Heartbeat CPU 0 instructions: 130000000 cycles: 98805443 heartbeat IPC: 1.29494 cumulative IPC: 1.31572 (Simulation time: 0 hr 29 min 57 sec) 
 Total Blocks : 524288 Invalid Blocks : 215418
Heartbeat CPU 0 instructions: 140000000 cycles: 106447858 heartbeat IPC: 1.30849 cumulative IPC: 1.3152 (Simulation time: 0 hr 32 min 16 sec) 
 Total Blocks : 524288 Invalid Blocks : 212388
Heartbeat CPU 0 instructions: 150000002 cycles: 114098407 heartbeat IPC: 1.3071 cumulative IPC: 1.31465 (Simulation time: 0 hr 34 min 39 sec) 
 Total Blocks : 524288 Invalid Blocks : 209415
Heartbeat CPU 0 instructions: 160000002 cycles: 121747797 heartbeat IPC: 1.30729 cumulative IPC: 1.31419 (Simulation time: 0 hr 37 min 7 sec) 
 Total Blocks : 524288 Invalid Blocks : 206228
Heartbeat CPU 0 instructions: 170000003 cycles: 129371090 heartbeat IPC: 1.31177 cumulative IPC: 1.31405 (Simulation time: 0 hr 39 min 25 sec) 
 Total Blocks : 524288 Invalid Blocks : 204890
Heartbeat CPU 0 instructions: 180000000 cycles: 137013862 heartbeat IPC: 1.30843 cumulative IPC: 1.31374 (Simulation time: 0 hr 41 min 47 sec) 
 Total Blocks : 524288 Invalid Blocks : 203681
Heartbeat CPU 0 instructions: 190000000 cycles: 146565163 heartbeat IPC: 1.04698 cumulative IPC: 1.29635 (Simulation time: 0 hr 44 min 17 sec) 
 Total Blocks : 524288 Invalid Blocks : 202018
Heartbeat CPU 0 instructions: 200000000 cycles: 154819785 heartbeat IPC: 1.21144 cumulative IPC: 1.29182 (Simulation time: 0 hr 46 min 42 sec) 
 Total Blocks : 524288 Invalid Blocks : 199326

Warmup complete CPU 0 instructions: 200000004 cycles: 154819786 (Simulation time: 0 hr 46 min 42 sec) 

Heartbeat CPU 0 instructions: 210000003 cycles: 179528087 heartbeat IPC: 0.404722 cumulative IPC: 0.404722 (Simulation time: 0 hr 52 min 24 sec) 
 Total Blocks : 524288 Invalid Blocks : 198527
Heartbeat CPU 0 instructions: 220000000 cycles: 204334344 heartbeat IPC: 0.403124 cumulative IPC: 0.403922 (Simulation time: 0 hr 58 min 10 sec) 
 Total Blocks : 524288 Invalid Blocks : 197140
Heartbeat CPU 0 instructions: 230000001 cycles: 229049675 heartbeat IPC: 0.404607 cumulative IPC: 0.40415 (Simulation time: 1 hr 4 min 15 sec) 
 Total Blocks : 524288 Invalid Blocks : 196621
Heartbeat CPU 0 instructions: 240000000 cycles: 253824743 heartbeat IPC: 0.403632 cumulative IPC: 0.40402 (Simulation time: 1 hr 9 min 53 sec) 
 Total Blocks : 524288 Invalid Blocks : 196100
Heartbeat CPU 0 instructions: 250000001 cycles: 279016886 heartbeat IPC: 0.396949 cumulative IPC: 0.402586 (Simulation time: 1 hr 15 min 35 sec) 
 Total Blocks : 524288 Invalid Blocks : 194674
Heartbeat CPU 0 instructions: 260000003 cycles: 303752769 heartbeat IPC: 0.404271 cumulative IPC: 0.402866 (Simulation time: 1 hr 21 min 10 sec) 
 Total Blocks : 524288 Invalid Blocks : 194273
Heartbeat CPU 0 instructions: 270000000 cycles: 328034115 heartbeat IPC: 0.411839 cumulative IPC: 0.404124 (Simulation time: 1 hr 26 min 44 sec) 
 Total Blocks : 524288 Invalid Blocks : 189342
Heartbeat CPU 0 instructions: 280000000 cycles: 352712283 heartbeat IPC: 0.405216 cumulative IPC: 0.40426 (Simulation time: 1 hr 32 min 2 sec) 
 Total Blocks : 524288 Invalid Blocks : 188205
Heartbeat CPU 0 instructions: 290000001 cycles: 377461827 heartbeat IPC: 0.404048 cumulative IPC: 0.404236 (Simulation time: 1 hr 37 min 34 sec) 
 Total Blocks : 524288 Invalid Blocks : 186805
Heartbeat CPU 0 instructions: 300000000 cycles: 402401489 heartbeat IPC: 0.400968 cumulative IPC: 0.403907 (Simulation time: 1 hr 43 min 0 sec) 
 Total Blocks : 524288 Invalid Blocks : 184611
Heartbeat CPU 0 instructions: 310000000 cycles: 427107475 heartbeat IPC: 0.40476 cumulative IPC: 0.403984 (Simulation time: 1 hr 48 min 20 sec) 
 Total Blocks : 524288 Invalid Blocks : 183847
Heartbeat CPU 0 instructions: 320000000 cycles: 451960373 heartbeat IPC: 0.402368 cumulative IPC: 0.403849 (Simulation time: 1 hr 53 min 39 sec) 
 Total Blocks : 524288 Invalid Blocks : 182868
Heartbeat CPU 0 instructions: 330000000 cycles: 476904782 heartbeat IPC: 0.400891 cumulative IPC: 0.40362 (Simulation time: 1 hr 59 min 2 sec) 
 Total Blocks : 524288 Invalid Blocks : 172796
Heartbeat CPU 0 instructions: 340000001 cycles: 501632292 heartbeat IPC: 0.404408 cumulative IPC: 0.403676 (Simulation time: 2 hr 4 min 19 sec) 
 Total Blocks : 524288 Invalid Blocks : 170835
Heartbeat CPU 0 instructions: 350000003 cycles: 526501212 heartbeat IPC: 0.402108 cumulative IPC: 0.403571 (Simulation time: 2 hr 9 min 19 sec) 
 Total Blocks : 524288 Invalid Blocks : 168559
Heartbeat CPU 0 instructions: 360000003 cycles: 551331667 heartbeat IPC: 0.402731 cumulative IPC: 0.403519 (Simulation time: 2 hr 14 min 32 sec) 
 Total Blocks : 524288 Invalid Blocks : 166047
Heartbeat CPU 0 instructions: 370000003 cycles: 576058363 heartbeat IPC: 0.404421 cumulative IPC: 0.403572 (Simulation time: 2 hr 19 min 32 sec) 
 Total Blocks : 524288 Invalid Blocks : 164978
Heartbeat CPU 0 instructions: 380000001 cycles: 600939169 heartbeat IPC: 0.401916 cumulative IPC: 0.403479 (Simulation time: 2 hr 24 min 24 sec) 
 Total Blocks : 524288 Invalid Blocks : 163820
Heartbeat CPU 0 instructions: 390000000 cycles: 625278252 heartbeat IPC: 0.410862 cumulative IPC: 0.403861 (Simulation time: 2 hr 29 min 32 sec) 
 Total Blocks : 524288 Invalid Blocks : 151844
Heartbeat CPU 0 instructions: 400000001 cycles: 649996852 heartbeat IPC: 0.404554 cumulative IPC: 0.403896 (Simulation time: 2 hr 34 min 9 sec) 
 Total Blocks : 524288 Invalid Blocks : 149504
Finished CPU 0 instructions: 200000001 cycles: 495177067 cumulative IPC: 0.403896 (Simulation time: 2 hr 34 min 9 sec) 

CPU 0 Branch Prediction Accuracy: 94.1237% MPKI: 12.4853 Average ROB Occupancy at Mispredict: 116.248

ChampSim completed all CPUs

Region of Interest Statistics

CPU 0 cumulative IPC: 0.403896 instructions: 200000001 cycles: 495177067
ITLB TOTAL     ACCESS: 22829077  HIT: 22829077  MISS:     0  HIT %:   100  MISS %:     0  AVERAGE MISS PENALTY: 0
ITLB LOAD      ACCESS: 22829077  HIT: 22829077  MISS:     0  HIT %:   100  MISS %:     0  AVERAGE MISS PENALTY: 0
ITLB RFO       ACCESS:     0  HIT:     0  MISS:     0  HIT %:     0  MISS %:     0  AVERAGE MISS PENALTY: 0
ITLB PREFETCH  ACCESS:     0  HIT:     0  MISS:     0  HIT %:     0  MISS %:     0  AVERAGE MISS PENALTY: 0
ITLB WRITEBACK ACCESS:     0  HIT:     0  MISS:     0  HIT %:     0  MISS %:     0  AVERAGE MISS PENALTY: 0
ITLB PREFETCH  REQUESTED:     0  ISSUED:     0  USEFUL:     0  USELESS:     0
 USEFUL LOAD PREFETCHES:          0 PREFETCH ISSUED TO LOWER LEVEL:          0  ACCURACY: -nan
 TIMELY PREFETCHES:          0 LATE PREFETCHES: 0 DROPPED PREFETCHES: 0
ITLB AVERAGE MISS LATENCY: -nan cycles
DTLB TOTAL     ACCESS: 63708892  HIT: 63645953  MISS: 62939  HIT %: 99.9012  MISS %: 0.0987915  AVERAGE MISS PENALTY: 75.4404
DTLB LOAD      ACCESS: 41270464  HIT: 41207690  MISS: 62774  HIT %: 99.8479  MISS %: 0.152104  AVERAGE MISS PENALTY: 75.5465
DTLB RFO       ACCESS: 22438428  HIT: 22438263  MISS:   165  HIT %: 99.9993  MISS %: 0.000735346  AVERAGE MISS PENALTY: 35.0545
DTLB PREFETCH  ACCESS:     0  HIT:     0  MISS:     0  HIT %:     0  MISS %:     0  AVERAGE MISS PENALTY: 0
DTLB WRITEBACK ACCESS:     0  HIT:     0  MISS:     0  HIT %:     0  MISS %:     0  AVERAGE MISS PENALTY: 0
DTLB PREFETCH  REQUESTED:     0  ISSUED:     0  USEFUL:     0  USELESS:     0
 USEFUL LOAD PREFETCHES:          0 PREFETCH ISSUED TO LOWER LEVEL:          0  ACCURACY: -nan
 TIMELY PREFETCHES:          0 LATE PREFETCHES: 0 DROPPED PREFETCHES: 0
DTLB AVERAGE MISS LATENCY: 75.4404 cycles
STLB TOTAL     ACCESS: 62939  HIT: 21349  MISS: 41590  HIT %: 33.9201  MISS %: 66.0799  AVERAGE MISS PENALTY: 100
STLB LOAD      ACCESS: 62774  HIT: 21225  MISS: 41549  HIT %: 33.8118  MISS %: 66.1882  AVERAGE MISS PENALTY: 100
STLB RFO       ACCESS:   165  HIT:   124  MISS:    41  HIT %: 75.1515  MISS %: 24.8485  AVERAGE MISS PENALTY: 100
STLB PREFETCH  ACCESS:     0  HIT:     0  MISS:     0  HIT %:     0  MISS %:     0  AVERAGE MISS PENALTY: 0
STLB WRITEBACK ACCESS:     0  HIT:     0  MISS:     0  HIT %:     0  MISS %:     0  AVERAGE MISS PENALTY: 0
STLB PREFETCH  REQUESTED:     0  ISSUED:     0  USEFUL:     0  USELESS:     0
 USEFUL LOAD PREFETCHES:          0 PREFETCH ISSUED TO LOWER LEVEL:          0  ACCURACY: -nan
 TIMELY PREFETCHES:          0 LATE PREFETCHES: 0 DROPPED PREFETCHES: 0
STLB AVERAGE MISS LATENCY: 100 cycles
L1D TOTAL     ACCESS: 126250431  HIT: 122597351  MISS: 3653080  HIT %: 97.1065  MISS %: 2.89352  AVERAGE MISS PENALTY: 215288
L1D LOAD      ACCESS: 39882382  HIT: 39718828  MISS: 163554  HIT %: 99.5899  MISS %: 0.410091  AVERAGE MISS PENALTY: 4.76837e+06
L1D RFO       ACCESS: 22556610  HIT: 22555373  MISS:  1237  HIT %: 99.9945  MISS %: 0.00548398  AVERAGE MISS PENALTY: 5.26096e+06
L1D PREFETCH  ACCESS: 63811439  HIT: 60323150  MISS: 3488289  HIT %: 94.5334  MISS %: 5.46656  AVERAGE MISS PENALTY: 19.8848
L1D WRITEBACK ACCESS:     0  HIT:     0  MISS:     0  HIT %:     0  MISS %:     0  AVERAGE MISS PENALTY: 0
L1D PREFETCH  REQUESTED: 71545996  ISSUED: 65067633  USEFUL: 3068353  USELESS: 419942
 USEFUL LOAD PREFETCHES:    3068353 PREFETCH ISSUED TO LOWER LEVEL:    3932290  ACCURACY: 78.0297
 TIMELY PREFETCHES:    3068353 LATE PREFETCHES: 7255 DROPPED PREFETCHES: 6478363
L1D AVERAGE MISS LATENCY: 1801.92 cycles
L1I TOTAL     ACCESS: 35334486  HIT: 35334486  MISS:     0  HIT %:   100  MISS %:     0  AVERAGE MISS PENALTY: 0
L1I LOAD      ACCESS: 35334486  HIT: 35334486  MISS:     0  HIT %:   100  MISS %:     0  AVERAGE MISS PENALTY: 0
L1I RFO       ACCESS:     0  HIT:     0  MISS:     0  HIT %:     0  MISS %:     0  AVERAGE MISS PENALTY: 0
L1I PREFETCH  ACCESS:     0  HIT:     0  MISS:     0  HIT %:     0  MISS %:     0  AVERAGE MISS PENALTY: 0
L1I WRITEBACK ACCESS:     0  HIT:     0  MISS:     0  HIT %:     0  MISS %:     0  AVERAGE MISS PENALTY: 0
L1I PREFETCH  REQUESTED:     0  ISSUED:     0  USEFUL:     0  USELESS:     0
 USEFUL LOAD PREFETCHES:          0 PREFETCH ISSUED TO LOWER LEVEL:          0  ACCURACY: -nan
 TIMELY PREFETCHES:          0 LATE PREFETCHES: 0 DROPPED PREFETCHES: 0
L1I AVERAGE MISS LATENCY: -nan cycles
L2C TOTAL     ACCESS: 12443165  HIT: 10570641  MISS: 1872524  HIT %: 84.9514  MISS %: 15.0486  AVERAGE MISS PENALTY: 116939
L2C LOAD      ACCESS: 163392  HIT: 104221  MISS: 59171  HIT %: 63.7859  MISS %: 36.2141  AVERAGE MISS PENALTY: 3.69922e+06
L2C RFO       ACCESS:  1222  HIT:   744  MISS:   478  HIT %: 60.8838  MISS %: 39.1162  AVERAGE MISS PENALTY: 195.592
L2C PREFETCH  ACCESS: 12237176  HIT: 10424322  MISS: 1812854  HIT %: 85.1857  MISS %: 14.8143  AVERAGE MISS PENALTY: 47.0554
L2C WRITEBACK ACCESS: 41375  HIT: 41354  MISS:    21  HIT %: 99.9492  MISS %: 0.0507553  AVERAGE MISS PENALTY: 0
L2C PREFETCH  REQUESTED: 13013691  ISSUED: 13012489  USEFUL: 17342  USELESS: 1795486
 USEFUL LOAD PREFETCHES:      17342 PREFETCH ISSUED TO LOWER LEVEL:    1829357  ACCURACY: 0.947983
 TIMELY PREFETCHES:      17342 LATE PREFETCHES: 1868 DROPPED PREFETCHES: 1202
L2C AVERAGE MISS LATENCY: 47.0864 cycles
LLC0 TOTAL     ACCESS: 235841  HIT: 217028  MISS: 18813  HIT %: 92.023  MISS %: 7.97698  AVERAGE MISS PENALTY: 106.82
LLC0 LOAD      ACCESS: 28656  HIT: 26452  MISS:  2204  HIT %: 92.3088  MISS %: 7.69123  AVERAGE MISS PENALTY: 105.913
LLC0 RFO       ACCESS:    77  HIT:    13  MISS:    64  HIT %: 16.8831  MISS %: 83.1169  AVERAGE MISS PENALTY: 169.781
LLC0 PREFETCH  ACCESS: 204517  HIT: 187992  MISS: 16525  HIT %: 91.92  MISS %: 8.08001  AVERAGE MISS PENALTY: 106.826
LLC0 WRITEBACK ACCESS:  2591  HIT:  2571  MISS:    20  HIT %: 99.2281  MISS %: 0.771903  AVERAGE MISS PENALTY: 0
LLC0 PREFETCH  REQUESTED:     0  ISSUED:     0  USEFUL:    92  USELESS: 11018
 USEFUL LOAD PREFETCHES:         92 PREFETCH ISSUED TO LOWER LEVEL:      16525  ACCURACY: 0.556732
 TIMELY PREFETCHES:         92 LATE PREFETCHES: 0 DROPPED PREFETCHES: 0
LLC0 AVERAGE MISS LATENCY: 106.82 cycles
Deadblocks : 2061 Deadblock percentage : 93.5118

LLC1 TOTAL     ACCESS: 236746  HIT: 217698  MISS: 19048  HIT %: 91.9542  MISS %: 8.04575  AVERAGE MISS PENALTY: 107.493
LLC1 LOAD      ACCESS:  4617  HIT:  4369  MISS:   248  HIT %: 94.6285  MISS %: 5.37145  AVERAGE MISS PENALTY: 139.278
LLC1 RFO       ACCESS:    59  HIT:    17  MISS:    42  HIT %: 28.8136  MISS %: 71.1864  AVERAGE MISS PENALTY: 165.262
LLC1 PREFETCH  ACCESS: 229444  HIT: 210713  MISS: 18731  HIT %: 91.8364  MISS %: 8.16365  AVERAGE MISS PENALTY: 107.097
LLC1 WRITEBACK ACCESS:  2626  HIT:  2599  MISS:    27  HIT %: 98.9718  MISS %: 1.02818  AVERAGE MISS PENALTY: 0
LLC1 PREFETCH  REQUESTED:     0  ISSUED:     0  USEFUL:    91  USELESS: 12344
 USEFUL LOAD PREFETCHES:         91 PREFETCH ISSUED TO LOWER LEVEL:      18731  ACCURACY: 0.485826
 TIMELY PREFETCHES:         91 LATE PREFETCHES: 0 DROPPED PREFETCHES: 0
LLC1 AVERAGE MISS LATENCY: 107.493 cycles
LLC2 TOTAL     ACCESS: 236697  HIT: 217673  MISS: 19024  HIT %: 91.9627  MISS %: 8.03728  AVERAGE MISS PENALTY: 108.497
LLC2 LOAD      ACCESS:  4378  HIT:  4187  MISS:   191  HIT %: 95.6373  MISS %: 4.36272  AVERAGE MISS PENALTY: 148.063
LLC2 RFO       ACCESS:    67  HIT:    27  MISS:    40  HIT %: 40.2985  MISS %: 59.7015  AVERAGE MISS PENALTY: 176.75
LLC2 PREFETCH  ACCESS: 229645  HIT: 210881  MISS: 18764  HIT %: 91.8291  MISS %: 8.17087  AVERAGE MISS PENALTY: 108.117
LLC2 WRITEBACK ACCESS:  2607  HIT:  2578  MISS:    29  HIT %: 98.8876  MISS %: 1.11239  AVERAGE MISS PENALTY: 0
LLC2 PREFETCH  REQUESTED:     0  ISSUED:     0  USEFUL:    91  USELESS: 12435
 USEFUL LOAD PREFETCHES:         91 PREFETCH ISSUED TO LOWER LEVEL:      18764  ACCURACY: 0.484971
 TIMELY PREFETCHES:         91 LATE PREFETCHES: 0 DROPPED PREFETCHES: 0
LLC2 AVERAGE MISS LATENCY: 108.497 cycles
LLC3 TOTAL     ACCESS: 237080  HIT: 218111  MISS: 18969  HIT %: 91.9989  MISS %: 8.0011  AVERAGE MISS PENALTY: 106.559
LLC3 LOAD      ACCESS:  4584  HIT:  4372  MISS:   212  HIT %: 95.3752  MISS %: 4.62478  AVERAGE MISS PENALTY: 144.953
LLC3 RFO       ACCESS:    65  HIT:    16  MISS:    49  HIT %: 24.6154  MISS %: 75.3846  AVERAGE MISS PENALTY: 178.531
LLC3 PREFETCH  ACCESS: 229793  HIT: 211124  MISS: 18669  HIT %: 91.8757  MISS %: 8.12427  AVERAGE MISS PENALTY: 106.157
LLC3 WRITEBACK ACCESS:  2638  HIT:  2599  MISS:    39  HIT %: 98.5216  MISS %: 1.47839  AVERAGE MISS PENALTY: 0
LLC3 PREFETCH  REQUESTED:     0  ISSUED:     0  USEFUL:    84  USELESS: 12292
 USEFUL LOAD PREFETCHES:         84 PREFETCH ISSUED TO LOWER LEVEL:      18669  ACCURACY: 0.449944
 TIMELY PREFETCHES:         84 LATE PREFETCHES: 0 DROPPED PREFETCHES: 0
LLC3 AVERAGE MISS LATENCY: 106.559 cycles
LLC4 TOTAL     ACCESS: 236910  HIT: 218014  MISS: 18896  HIT %: 92.024  MISS %: 7.97602  AVERAGE MISS PENALTY: 106.555
LLC4 LOAD      ACCESS:  4263  HIT:  4036  MISS:   227  HIT %: 94.6751  MISS %: 5.32489  AVERAGE MISS PENALTY: 147.308
LLC4 RFO       ACCESS:    62  HIT:    17  MISS:    45  HIT %: 27.4194  MISS %: 72.5806  AVERAGE MISS PENALTY: 191.089
LLC4 PREFETCH  ACCESS: 229902  HIT: 211293  MISS: 18609  HIT %: 91.9057  MISS %: 8.09432  AVERAGE MISS PENALTY: 105.94
LLC4 WRITEBACK ACCESS:  2683  HIT:  2668  MISS:    15  HIT %: 99.4409  MISS %: 0.559076  AVERAGE MISS PENALTY: 0
LLC4 PREFETCH  REQUESTED:     0  ISSUED:     0  USEFUL:    89  USELESS: 12253
 USEFUL LOAD PREFETCHES:         89 PREFETCH ISSUED TO LOWER LEVEL:      18609  ACCURACY: 0.478263
 TIMELY PREFETCHES:         89 LATE PREFETCHES: 0 DROPPED PREFETCHES: 0
LLC4 AVERAGE MISS LATENCY: 106.555 cycles
LLC5 TOTAL     ACCESS: 237081  HIT: 218209  MISS: 18872  HIT %: 92.0399  MISS %: 7.96015  AVERAGE MISS PENALTY: 106.885
LLC5 LOAD      ACCESS:  4039  HIT:  3852  MISS:   187  HIT %: 95.3701  MISS %: 4.62986  AVERAGE MISS PENALTY: 148.144
LLC5 RFO       ACCESS:    53  HIT:    10  MISS:    43  HIT %: 18.8679  MISS %: 81.1321  AVERAGE MISS PENALTY: 194
LLC5 PREFETCH  ACCESS: 230310  HIT: 211683  MISS: 18627  HIT %: 91.9122  MISS %: 8.08779  AVERAGE MISS PENALTY: 106.356
LLC5 WRITEBACK ACCESS:  2679  HIT:  2664  MISS:    15  HIT %: 99.4401  MISS %: 0.55991  AVERAGE MISS PENALTY: 0
LLC5 PREFETCH  REQUESTED:     0  ISSUED:     0  USEFUL:    95  USELESS: 12235
 USEFUL LOAD PREFETCHES:         95 PREFETCH ISSUED TO LOWER LEVEL:      18627  ACCURACY: 0.510012
 TIMELY PREFETCHES:         95 LATE PREFETCHES: 0 DROPPED PREFETCHES: 0
LLC5 AVERAGE MISS LATENCY: 106.885 cycles
LLC6 TOTAL     ACCESS: 236655  HIT: 217691  MISS: 18964  HIT %: 91.9866  MISS %: 8.01335  AVERAGE MISS PENALTY: 107.358
LLC6 LOAD      ACCESS:  4007  HIT:  3820  MISS:   187  HIT %: 95.3332  MISS %: 4.66683  AVERAGE MISS PENALTY: 149.128
LLC6 RFO       ACCESS:    48  HIT:     5  MISS:    43  HIT %: 10.4167  MISS %: 89.5833  AVERAGE MISS PENALTY: 180.372
LLC6 PREFETCH  ACCESS: 229896  HIT: 211194  MISS: 18702  HIT %: 91.865  MISS %: 8.13498  AVERAGE MISS PENALTY: 106.956
LLC6 WRITEBACK ACCESS:  2704  HIT:  2672  MISS:    32  HIT %: 98.8166  MISS %: 1.18343  AVERAGE MISS PENALTY: 0
LLC6 PREFETCH  REQUESTED:     0  ISSUED:     0  USEFUL:    78  USELESS: 12362
 USEFUL LOAD PREFETCHES:         78 PREFETCH ISSUED TO LOWER LEVEL:      18702  ACCURACY: 0.417068
 TIMELY PREFETCHES:         78 LATE PREFETCHES: 0 DROPPED PREFETCHES: 0
LLC6 AVERAGE MISS LATENCY: 107.358 cycles
LLC7 TOTAL     ACCESS: 236684  HIT: 217629  MISS: 19055  HIT %: 91.9492  MISS %: 8.05082  AVERAGE MISS PENALTY: 107.765
LLC7 LOAD      ACCESS:  4400  HIT:  4176  MISS:   224  HIT %: 94.9091  MISS %: 5.09091  AVERAGE MISS PENALTY: 147.915
LLC7 RFO       ACCESS:    47  HIT:     4  MISS:    43  HIT %: 8.51064  MISS %: 91.4894  AVERAGE MISS PENALTY: 186.023
LLC7 PREFETCH  ACCESS: 229574  HIT: 210817  MISS: 18757  HIT %: 91.8296  MISS %: 8.17035  AVERAGE MISS PENALTY: 107.284
LLC7 WRITEBACK ACCESS:  2663  HIT:  2632  MISS:    31  HIT %: 98.8359  MISS %: 1.1641  AVERAGE MISS PENALTY: 0
LLC7 PREFETCH  REQUESTED:     0  ISSUED:     0  USEFUL:    70  USELESS: 12375
 USEFUL LOAD PREFETCHES:         70 PREFETCH ISSUED TO LOWER LEVEL:      18757  ACCURACY: 0.373194
 TIMELY PREFETCHES:         70 LATE PREFETCHES: 0 DROPPED PREFETCHES: 0
LLC7 AVERAGE MISS LATENCY: 107.765 cycles
ROI Average ROB Stall Cycles:	8.47513
ROI Total ROB Stalls Cycles:	451372930
ROI TOTAL ROB counter      :	53258500
ROI Average Load ROB Stall Cycles:	9.57214
ROI Total Load ROB Stalls Cycle  :	27679828
ROI Total Load ROB stalls Counter:	2891708
Major fault: 0 Minor fault: 10446

