
*** ChampSim Multicore Out-of-Order Simulator ***

Warmup Instructions: 200000000
Simulation Instructions: 200000000
Number of CPUs: 1
threads:1

L1I Configuration:
L1I_SET:64
L1I_WAY:8
L1I_RQ_SIZE:64
L1I_WQ_SIZE:64
L1I_PQ_SIZE:8
L1I_MSHR_SIZE:8

L1D Configuration:
L1D_SET:64
L1D_WAY:12
L1D_RQ_SIZE:64
L1D_WQ_SIZE:64
L1D_PQ_SIZE:8
L1D_MSHR_SIZE:16

L2C Configuration:
L2C_SET:1024
L2C_WAY:8
L2C_RQ_SIZE:32
L2C_WQ_SIZE:32
L2C_PQ_SIZE:16
L2C_MSHR_SIZE:32

LLC Configuration:
LLC_SET:2048
LLC_WAY:16
LLC SLICES:8
LLC_RQ_SIZE:64
LLC_WQ_SIZE:64
LLC_PQ_SIZE:32
LLC_MSHR_SIZE:64

Interconnect OFF
Attacker deprioritize is: OFF
Off-chip DRAM Size: 4096 MB Channels: 1 Width: 64-bit Data Rate: 3200 MT/s
PAGE SIZE in KB: 4.000000 
PAGE SIZE in MB: 0.003906 
PAGE offset in bits: 12 
CEASER-S_LLC:0
MIRAGE : 1
CEASER_LATENCY:3
REMAP : OFF
Partitions : 1
Multi-Step : OFF
BFS : OFF

CPU 0 runs /home/anubhav/spec_2017/603.bwaves_s-2931B.champsimtrace.xz
CPU 0 Bimodal branch predictor
Initialize Hawkeye state
Initialize Hawkeye state
Initialize Hawkeye state
Initialize Hawkeye state
Initialize Hawkeye state
Initialize Hawkeye state
Initialize Hawkeye state
Initialize Hawkeye state
Heartbeat CPU 0 instructions: 10000003 cycles: 4144032 heartbeat IPC: 2.41311 cumulative IPC: 2.41311 (Simulation time: 0 hr 1 min 43 sec) 
 Total Blocks : 262144 Invalid Blocks : 153849
Heartbeat CPU 0 instructions: 20000002 cycles: 8287741 heartbeat IPC: 2.4133 cumulative IPC: 2.4132 (Simulation time: 0 hr 3 min 29 sec) 
 Total Blocks : 262144 Invalid Blocks : 90652
Heartbeat CPU 0 instructions: 30000001 cycles: 12431423 heartbeat IPC: 2.41331 cumulative IPC: 2.41324 (Simulation time: 0 hr 5 min 16 sec) 
 Total Blocks : 262144 Invalid Blocks : 53313
Heartbeat CPU 0 instructions: 40000002 cycles: 16575173 heartbeat IPC: 2.41327 cumulative IPC: 2.41325 (Simulation time: 0 hr 7 min 5 sec) 
 Total Blocks : 262144 Invalid Blocks : 31416
Heartbeat CPU 0 instructions: 50000001 cycles: 20718749 heartbeat IPC: 2.41337 cumulative IPC: 2.41327 (Simulation time: 0 hr 9 min 0 sec) 
 Total Blocks : 262144 Invalid Blocks : 18588
Heartbeat CPU 0 instructions: 60000001 cycles: 24862389 heartbeat IPC: 2.41334 cumulative IPC: 2.41328 (Simulation time: 0 hr 10 min 58 sec) 
 Total Blocks : 262144 Invalid Blocks : 10893
Heartbeat CPU 0 instructions: 70000001 cycles: 29005713 heartbeat IPC: 2.41352 cumulative IPC: 2.41332 (Simulation time: 0 hr 12 min 59 sec) 
 Total Blocks : 262144 Invalid Blocks : 6461
Heartbeat CPU 0 instructions: 80000002 cycles: 33149172 heartbeat IPC: 2.41344 cumulative IPC: 2.41333 (Simulation time: 0 hr 15 min 0 sec) 
 Total Blocks : 262144 Invalid Blocks : 3852
Heartbeat CPU 0 instructions: 90000002 cycles: 37292959 heartbeat IPC: 2.41325 cumulative IPC: 2.41332 (Simulation time: 0 hr 17 min 7 sec) 
 Total Blocks : 262144 Invalid Blocks : 2246
Heartbeat CPU 0 instructions: 100000001 cycles: 41436590 heartbeat IPC: 2.41334 cumulative IPC: 2.41333 (Simulation time: 0 hr 19 min 17 sec) 
 Total Blocks : 262144 Invalid Blocks : 1306
Heartbeat CPU 0 instructions: 110000000 cycles: 45580291 heartbeat IPC: 2.4133 cumulative IPC: 2.41332 (Simulation time: 0 hr 21 min 27 sec) 
 Total Blocks : 262144 Invalid Blocks : 776
Heartbeat CPU 0 instructions: 120000000 cycles: 49724069 heartbeat IPC: 2.41326 cumulative IPC: 2.41332 (Simulation time: 0 hr 23 min 40 sec) 
 Total Blocks : 262144 Invalid Blocks : 462
Heartbeat CPU 0 instructions: 130000003 cycles: 53867914 heartbeat IPC: 2.41322 cumulative IPC: 2.41331 (Simulation time: 0 hr 25 min 54 sec) 
 Total Blocks : 262144 Invalid Blocks : 265
Heartbeat CPU 0 instructions: 140000001 cycles: 58011877 heartbeat IPC: 2.41315 cumulative IPC: 2.4133 (Simulation time: 0 hr 28 min 11 sec) 
 Total Blocks : 262144 Invalid Blocks : 148
Heartbeat CPU 0 instructions: 150000001 cycles: 62155226 heartbeat IPC: 2.41351 cumulative IPC: 2.41331 (Simulation time: 0 hr 30 min 32 sec) 
 Total Blocks : 262144 Invalid Blocks : 91
Heartbeat CPU 0 instructions: 160000000 cycles: 66299061 heartbeat IPC: 2.41322 cumulative IPC: 2.41331 (Simulation time: 0 hr 32 min 54 sec) 
 Total Blocks : 262144 Invalid Blocks : 57
Heartbeat CPU 0 instructions: 170000003 cycles: 70442463 heartbeat IPC: 2.41348 cumulative IPC: 2.41332 (Simulation time: 0 hr 35 min 18 sec) 
 Total Blocks : 262144 Invalid Blocks : 27
Heartbeat CPU 0 instructions: 180000001 cycles: 74586166 heartbeat IPC: 2.4133 cumulative IPC: 2.41332 (Simulation time: 0 hr 37 min 45 sec) 
 Total Blocks : 262144 Invalid Blocks : 15
Heartbeat CPU 0 instructions: 190000002 cycles: 78729741 heartbeat IPC: 2.41338 cumulative IPC: 2.41332 (Simulation time: 0 hr 40 min 15 sec) 
 Total Blocks : 262144 Invalid Blocks : 6
Heartbeat CPU 0 instructions: 200000003 cycles: 82873366 heartbeat IPC: 2.41335 cumulative IPC: 2.41332 (Simulation time: 0 hr 42 min 47 sec) 
 Total Blocks : 262144 Invalid Blocks : 3

Warmup complete CPU 0 instructions: 200000003 cycles: 82873366 (Simulation time: 0 hr 42 min 47 sec) 

Heartbeat CPU 0 instructions: 210000002 cycles: 89438232 heartbeat IPC: 1.52326 cumulative IPC: 1.52326 (Simulation time: 0 hr 46 min 0 sec) 
 Total Blocks : 262144 Invalid Blocks : 1
Heartbeat CPU 0 instructions: 220000000 cycles: 96006141 heartbeat IPC: 1.52255 cumulative IPC: 1.52291 (Simulation time: 0 hr 49 min 17 sec) 
 Total Blocks : 262144 Invalid Blocks : 1
Heartbeat CPU 0 instructions: 230000003 cycles: 102570803 heartbeat IPC: 1.52331 cumulative IPC: 1.52304 (Simulation time: 0 hr 52 min 36 sec) 
 Total Blocks : 262144 Invalid Blocks : 1
Heartbeat CPU 0 instructions: 240000003 cycles: 109125953 heartbeat IPC: 1.52552 cumulative IPC: 1.52366 (Simulation time: 0 hr 55 min 55 sec) 
 Total Blocks : 262144 Invalid Blocks : 0
Heartbeat CPU 0 instructions: 250000003 cycles: 115690704 heartbeat IPC: 1.52329 cumulative IPC: 1.52358 (Simulation time: 0 hr 59 min 18 sec) 
 Total Blocks : 262144 Invalid Blocks : 0
Heartbeat CPU 0 instructions: 260000001 cycles: 122259814 heartbeat IPC: 1.52228 cumulative IPC: 1.52337 (Simulation time: 1 hr 2 min 43 sec) 
 Total Blocks : 262144 Invalid Blocks : 0
Heartbeat CPU 0 instructions: 270000001 cycles: 128827383 heartbeat IPC: 1.52263 cumulative IPC: 1.52326 (Simulation time: 1 hr 6 min 0 sec) 
 Total Blocks : 262144 Invalid Blocks : 0
Heartbeat CPU 0 instructions: 280000002 cycles: 135397912 heartbeat IPC: 1.52195 cumulative IPC: 1.5231 (Simulation time: 1 hr 9 min 13 sec) 
 Total Blocks : 262144 Invalid Blocks : 0
Heartbeat CPU 0 instructions: 290000002 cycles: 141974539 heartbeat IPC: 1.52054 cumulative IPC: 1.52281 (Simulation time: 1 hr 12 min 36 sec) 
 Total Blocks : 262144 Invalid Blocks : 0
Heartbeat CPU 0 instructions: 300000001 cycles: 148538743 heartbeat IPC: 1.52341 cumulative IPC: 1.52287 (Simulation time: 1 hr 15 min 45 sec) 
 Total Blocks : 262144 Invalid Blocks : 0
Heartbeat CPU 0 instructions: 310000003 cycles: 155103391 heartbeat IPC: 1.52331 cumulative IPC: 1.52291 (Simulation time: 1 hr 18 min 49 sec) 
 Total Blocks : 262144 Invalid Blocks : 0
Heartbeat CPU 0 instructions: 320000003 cycles: 161671151 heartbeat IPC: 1.52259 cumulative IPC: 1.52289 (Simulation time: 1 hr 21 min 45 sec) 
 Total Blocks : 262144 Invalid Blocks : 0
Heartbeat CPU 0 instructions: 330000000 cycles: 168233880 heartbeat IPC: 1.52376 cumulative IPC: 1.52295 (Simulation time: 1 hr 24 min 54 sec) 
 Total Blocks : 262144 Invalid Blocks : 0
Heartbeat CPU 0 instructions: 340000000 cycles: 174807256 heartbeat IPC: 1.52129 cumulative IPC: 1.52283 (Simulation time: 1 hr 27 min 56 sec) 
 Total Blocks : 262144 Invalid Blocks : 0
Heartbeat CPU 0 instructions: 350000002 cycles: 181372298 heartbeat IPC: 1.52322 cumulative IPC: 1.52286 (Simulation time: 1 hr 31 min 27 sec) 
 Total Blocks : 262144 Invalid Blocks : 0
Heartbeat CPU 0 instructions: 360000003 cycles: 187943803 heartbeat IPC: 1.52172 cumulative IPC: 1.52279 (Simulation time: 1 hr 34 min 29 sec) 
 Total Blocks : 262144 Invalid Blocks : 0
Heartbeat CPU 0 instructions: 370000002 cycles: 194510775 heartbeat IPC: 1.52277 cumulative IPC: 1.52279 (Simulation time: 1 hr 37 min 2 sec) 
 Total Blocks : 262144 Invalid Blocks : 0
Heartbeat CPU 0 instructions: 380000003 cycles: 201074556 heartbeat IPC: 1.52351 cumulative IPC: 1.52283 (Simulation time: 1 hr 39 min 38 sec) 
 Total Blocks : 262144 Invalid Blocks : 0
Heartbeat CPU 0 instructions: 390000001 cycles: 207646070 heartbeat IPC: 1.52172 cumulative IPC: 1.52277 (Simulation time: 1 hr 42 min 14 sec) 
 Total Blocks : 262144 Invalid Blocks : 0
Heartbeat CPU 0 instructions: 400000002 cycles: 214206761 heartbeat IPC: 1.52423 cumulative IPC: 1.52284 (Simulation time: 1 hr 44 min 51 sec) 
 Total Blocks : 262144 Invalid Blocks : 0
Finished CPU 0 instructions: 200000003 cycles: 131333396 cumulative IPC: 1.52284 (Simulation time: 1 hr 44 min 51 sec) 

CPU 0 Branch Prediction Accuracy: 80.621% MPKI: 1.63559 Average ROB Occupancy at Mispredict: 308.831

ChampSim completed all CPUs

Region of Interest Statistics

CPU 0 cumulative IPC: 1.52284 instructions: 200000003 cycles: 131333396
ITLB TOTAL     ACCESS: 24081445  HIT: 24081445  MISS:     0  HIT %:   100  MISS %:     0  AVERAGE MISS PENALTY: 0
ITLB LOAD      ACCESS: 24081445  HIT: 24081445  MISS:     0  HIT %:   100  MISS %:     0  AVERAGE MISS PENALTY: 0
ITLB RFO       ACCESS:     0  HIT:     0  MISS:     0  HIT %:     0  MISS %:     0  AVERAGE MISS PENALTY: 0
ITLB PREFETCH  ACCESS:     0  HIT:     0  MISS:     0  HIT %:     0  MISS %:     0  AVERAGE MISS PENALTY: 0
ITLB WRITEBACK ACCESS:     0  HIT:     0  MISS:     0  HIT %:     0  MISS %:     0  AVERAGE MISS PENALTY: 0
ITLB PREFETCH  REQUESTED:     0  ISSUED:     0  USEFUL:     0  USELESS:     0
 USEFUL LOAD PREFETCHES:          0 PREFETCH ISSUED TO LOWER LEVEL:          0  ACCURACY: -nan
 TIMELY PREFETCHES:          0 LATE PREFETCHES: 0 DROPPED PREFETCHES: 0
ITLB AVERAGE MISS LATENCY: -nan cycles
DTLB TOTAL     ACCESS: 47566747  HIT: 47249946  MISS: 316801  HIT %: 99.334  MISS %: 0.666014  AVERAGE MISS PENALTY: 43.9084
DTLB LOAD      ACCESS: 30259208  HIT: 30057017  MISS: 202191  HIT %: 99.3318  MISS %: 0.668197  AVERAGE MISS PENALTY: 28.7886
DTLB RFO       ACCESS: 17307539  HIT: 17192929  MISS: 114610  HIT %: 99.3378  MISS %: 0.662197  AVERAGE MISS PENALTY: 70.5821
DTLB PREFETCH  ACCESS:     0  HIT:     0  MISS:     0  HIT %:     0  MISS %:     0  AVERAGE MISS PENALTY: 0
DTLB WRITEBACK ACCESS:     0  HIT:     0  MISS:     0  HIT %:     0  MISS %:     0  AVERAGE MISS PENALTY: 0
DTLB PREFETCH  REQUESTED:     0  ISSUED:     0  USEFUL:     0  USELESS:     0
 USEFUL LOAD PREFETCHES:          0 PREFETCH ISSUED TO LOWER LEVEL:          0  ACCURACY: -nan
 TIMELY PREFETCHES:          0 LATE PREFETCHES: 0 DROPPED PREFETCHES: 0
DTLB AVERAGE MISS LATENCY: 43.9084 cycles
STLB TOTAL     ACCESS: 316801  HIT: 274198  MISS: 42603  HIT %: 86.5521  MISS %: 13.4479  AVERAGE MISS PENALTY: 100
STLB LOAD      ACCESS: 202191  HIT: 178194  MISS: 23997  HIT %: 88.1315  MISS %: 11.8685  AVERAGE MISS PENALTY: 100
STLB RFO       ACCESS: 114610  HIT: 96004  MISS: 18606  HIT %: 83.7658  MISS %: 16.2342  AVERAGE MISS PENALTY: 100
STLB PREFETCH  ACCESS:     0  HIT:     0  MISS:     0  HIT %:     0  MISS %:     0  AVERAGE MISS PENALTY: 0
STLB WRITEBACK ACCESS:     0  HIT:     0  MISS:     0  HIT %:     0  MISS %:     0  AVERAGE MISS PENALTY: 0
STLB PREFETCH  REQUESTED:     0  ISSUED:     0  USEFUL:     0  USELESS:     0
 USEFUL LOAD PREFETCHES:          0 PREFETCH ISSUED TO LOWER LEVEL:          0  ACCURACY: -nan
 TIMELY PREFETCHES:          0 LATE PREFETCHES: 0 DROPPED PREFETCHES: 0
STLB AVERAGE MISS LATENCY: 100 cycles
L1D TOTAL     ACCESS: 70049031  HIT: 66848728  MISS: 3200303  HIT %: 95.4313  MISS %: 4.56866  AVERAGE MISS PENALTY: 6808.99
L1D LOAD      ACCESS: 32830511  HIT: 32771342  MISS: 59169  HIT %: 99.8198  MISS %: 0.180226  AVERAGE MISS PENALTY: 356570
L1D RFO       ACCESS: 31022312  HIT: 29823610  MISS: 1198702  HIT %: 96.136  MISS %: 3.864  AVERAGE MISS PENALTY: 527.813
L1D PREFETCH  ACCESS: 6196208  HIT: 4253776  MISS: 1942432  HIT %: 68.6513  MISS %: 31.3487  AVERAGE MISS PENALTY: 31.0048
L1D WRITEBACK ACCESS:     0  HIT:     0  MISS:     0  HIT %:     0  MISS %:     0  AVERAGE MISS PENALTY: 0
L1D PREFETCH  REQUESTED: 6565802  ISSUED: 6196789  USEFUL: 1936300  USELESS:  6129
 USEFUL LOAD PREFETCHES:    1936300 PREFETCH ISSUED TO LOWER LEVEL:    2175747  ACCURACY: 88.9947
 TIMELY PREFETCHES:    1936300 LATE PREFETCHES: 150 DROPPED PREFETCHES: 369013
L1D AVERAGE MISS LATENCY: 219.681 cycles
L1I TOTAL     ACCESS: 35689845  HIT: 35689845  MISS:     0  HIT %:   100  MISS %:     0  AVERAGE MISS PENALTY: 0
L1I LOAD      ACCESS: 35689845  HIT: 35689845  MISS:     0  HIT %:   100  MISS %:     0  AVERAGE MISS PENALTY: 0
L1I RFO       ACCESS:     0  HIT:     0  MISS:     0  HIT %:     0  MISS %:     0  AVERAGE MISS PENALTY: 0
L1I PREFETCH  ACCESS:     0  HIT:     0  MISS:     0  HIT %:     0  MISS %:     0  AVERAGE MISS PENALTY: 0
L1I WRITEBACK ACCESS:     0  HIT:     0  MISS:     0  HIT %:     0  MISS %:     0  AVERAGE MISS PENALTY: 0
L1I PREFETCH  REQUESTED:     0  ISSUED:     0  USEFUL:     0  USELESS:     0
 USEFUL LOAD PREFETCHES:          0 PREFETCH ISSUED TO LOWER LEVEL:          0  ACCURACY: -nan
 TIMELY PREFETCHES:          0 LATE PREFETCHES: 0 DROPPED PREFETCHES: 0
L1I AVERAGE MISS LATENCY: -nan cycles
L2C TOTAL     ACCESS: 10713813  HIT: 7814270  MISS: 2899543  HIT %: 72.9364  MISS %: 27.0636  AVERAGE MISS PENALTY: 7247.21
L2C LOAD      ACCESS: 59001  HIT: 30769  MISS: 28232  HIT %: 52.15  MISS %: 47.85  AVERAGE MISS PENALTY: 699424
L2C RFO       ACCESS: 1195047  HIT:  4284  MISS: 1190763  HIT %: 0.35848  MISS %: 99.6415  AVERAGE MISS PENALTY: 515.778
L2C PREFETCH  ACCESS: 8249196  HIT: 6568898  MISS: 1680298  HIT %: 79.6308  MISS %: 20.3692  AVERAGE MISS PENALTY: 388.798
L2C WRITEBACK ACCESS: 1210569  HIT: 1210319  MISS:   250  HIT %: 99.9793  MISS %: 0.0206514  AVERAGE MISS PENALTY: 0
L2C PREFETCH  REQUESTED: 7503422  ISSUED: 7481253  USEFUL:  6881  USELESS: 1672052
 USEFUL LOAD PREFETCHES:       6881 PREFETCH ISSUED TO LOWER LEVEL:    1878102  ACCURACY: 0.366381
 TIMELY PREFETCHES:       6881 LATE PREFETCHES: 130 DROPPED PREFETCHES: 22169
L2C AVERAGE MISS LATENCY: 440.171 cycles
LLC0 TOTAL     ACCESS: 511319  HIT: 166922  MISS: 344397  HIT %: 32.6454  MISS %: 67.3546  AVERAGE MISS PENALTY: 406.416
LLC0 LOAD      ACCESS: 26808  HIT:  2821  MISS: 23987  HIT %: 10.523  MISS %: 89.477  AVERAGE MISS PENALTY: 296.072
LLC0 RFO       ACCESS: 148841  HIT:     0  MISS: 148841  HIT %:     0  MISS %:   100  AVERAGE MISS PENALTY: 457.947
LLC0 PREFETCH  ACCESS: 186709  HIT: 19514  MISS: 167195  HIT %: 10.4516  MISS %: 89.5484  AVERAGE MISS PENALTY: 387.005
LLC0 WRITEBACK ACCESS: 148961  HIT: 144587  MISS:  4374  HIT %: 97.0637  MISS %: 2.93634  AVERAGE MISS PENALTY: 0
LLC0 PREFETCH  REQUESTED:     0  ISSUED:     0  USEFUL:     0  USELESS: 167266
 USEFUL LOAD PREFETCHES:          0 PREFETCH ISSUED TO LOWER LEVEL:     167196  ACCURACY: 0
 TIMELY PREFETCHES:          0 LATE PREFETCHES: 0 DROPPED PREFETCHES: 0
LLC0 AVERAGE MISS LATENCY: 406.416 cycles
Deadblocks : 23791 Deadblock percentage : 99.1829

LLC1 TOTAL     ACCESS: 511377  HIT: 166944  MISS: 344433  HIT %: 32.646  MISS %: 67.354  AVERAGE MISS PENALTY: 418.335
LLC1 LOAD      ACCESS:   239  HIT:    68  MISS:   171  HIT %: 28.4519  MISS %: 71.5481  AVERAGE MISS PENALTY: 255.076
LLC1 RFO       ACCESS: 148848  HIT:     0  MISS: 148848  HIT %:     0  MISS %:   100  AVERAGE MISS PENALTY: 477.238
LLC1 PREFETCH  ACCESS: 213423  HIT: 22336  MISS: 191087  HIT %: 10.4656  MISS %: 89.5344  AVERAGE MISS PENALTY: 382.07
LLC1 WRITEBACK ACCESS: 148867  HIT: 144540  MISS:  4327  HIT %: 97.0934  MISS %: 2.90662  AVERAGE MISS PENALTY: 0
LLC1 PREFETCH  REQUESTED:     0  ISSUED:     0  USEFUL:     3  USELESS: 191183
 USEFUL LOAD PREFETCHES:          3 PREFETCH ISSUED TO LOWER LEVEL:     191087  ACCURACY: 0.00156997
 TIMELY PREFETCHES:          3 LATE PREFETCHES: 0 DROPPED PREFETCHES: 0
LLC1 AVERAGE MISS LATENCY: 418.335 cycles
LLC2 TOTAL     ACCESS: 511358  HIT: 167051  MISS: 344307  HIT %: 32.6681  MISS %: 67.3319  AVERAGE MISS PENALTY: 427.205
LLC2 LOAD      ACCESS:   220  HIT:    68  MISS:   152  HIT %: 30.9091  MISS %: 69.0909  AVERAGE MISS PENALTY: 249.967
LLC2 RFO       ACCESS: 148848  HIT:     0  MISS: 148848  HIT %:     0  MISS %:   100  AVERAGE MISS PENALTY: 480.667
LLC2 PREFETCH  ACCESS: 213420  HIT: 22311  MISS: 191109  HIT %: 10.454  MISS %: 89.546  AVERAGE MISS PENALTY: 395.091
LLC2 WRITEBACK ACCESS: 148870  HIT: 144672  MISS:  4198  HIT %: 97.1801  MISS %: 2.81991  AVERAGE MISS PENALTY: 0
LLC2 PREFETCH  REQUESTED:     0  ISSUED:     0  USEFUL:     9  USELESS: 191040
 USEFUL LOAD PREFETCHES:          9 PREFETCH ISSUED TO LOWER LEVEL:     191109  ACCURACY: 0.00470935
 TIMELY PREFETCHES:          9 LATE PREFETCHES: 0 DROPPED PREFETCHES: 0
LLC2 AVERAGE MISS LATENCY: 427.205 cycles
LLC3 TOTAL     ACCESS: 511233  HIT: 166994  MISS: 344239  HIT %: 32.6649  MISS %: 67.3351  AVERAGE MISS PENALTY: 428.165
LLC3 LOAD      ACCESS:   130  HIT:     4  MISS:   126  HIT %: 3.07692  MISS %: 96.9231  AVERAGE MISS PENALTY: 237.175
LLC3 RFO       ACCESS: 148848  HIT:     0  MISS: 148848  HIT %:     0  MISS %:   100  AVERAGE MISS PENALTY: 487.35
LLC3 PREFETCH  ACCESS: 213375  HIT: 22236  MISS: 191139  HIT %: 10.4211  MISS %: 89.5789  AVERAGE MISS PENALTY: 391.443
LLC3 WRITEBACK ACCESS: 148880  HIT: 144754  MISS:  4126  HIT %: 97.2286  MISS %: 2.77136  AVERAGE MISS PENALTY: 0
LLC3 PREFETCH  REQUESTED:     0  ISSUED:     0  USEFUL:     3  USELESS: 190980
 USEFUL LOAD PREFETCHES:          3 PREFETCH ISSUED TO LOWER LEVEL:     191140  ACCURACY: 0.00156953
 TIMELY PREFETCHES:          3 LATE PREFETCHES: 0 DROPPED PREFETCHES: 0
LLC3 AVERAGE MISS LATENCY: 428.165 cycles
LLC4 TOTAL     ACCESS: 511269  HIT: 166844  MISS: 344425  HIT %: 32.6333  MISS %: 67.3667  AVERAGE MISS PENALTY: 430.399
LLC4 LOAD      ACCESS:   151  HIT:    21  MISS:   130  HIT %: 13.9073  MISS %: 86.0927  AVERAGE MISS PENALTY: 246.508
LLC4 RFO       ACCESS: 148848  HIT:     0  MISS: 148848  HIT %:     0  MISS %:   100  AVERAGE MISS PENALTY: 482.69
LLC4 PREFETCH  ACCESS: 213382  HIT: 22258  MISS: 191124  HIT %: 10.4311  MISS %: 89.5689  AVERAGE MISS PENALTY: 399.535
LLC4 WRITEBACK ACCESS: 148888  HIT: 144565  MISS:  4323  HIT %: 97.0965  MISS %: 2.90352  AVERAGE MISS PENALTY: 0
LLC4 PREFETCH  REQUESTED:     0  ISSUED:     0  USEFUL:     2  USELESS: 191108
 USEFUL LOAD PREFETCHES:          2 PREFETCH ISSUED TO LOWER LEVEL:     191126  ACCURACY: 0.00104643
 TIMELY PREFETCHES:          2 LATE PREFETCHES: 0 DROPPED PREFETCHES: 0
LLC4 AVERAGE MISS LATENCY: 430.399 cycles
LLC5 TOTAL     ACCESS: 511252  HIT: 166781  MISS: 344471  HIT %: 32.6221  MISS %: 67.3779  AVERAGE MISS PENALTY: 435.927
LLC5 LOAD      ACCESS:   151  HIT:    18  MISS:   133  HIT %: 11.9205  MISS %: 88.0795  AVERAGE MISS PENALTY: 257.075
LLC5 RFO       ACCESS: 148848  HIT:     0  MISS: 148848  HIT %:     0  MISS %:   100  AVERAGE MISS PENALTY: 493.028
LLC5 PREFETCH  ACCESS: 213368  HIT: 22196  MISS: 191172  HIT %: 10.4027  MISS %: 89.5973  AVERAGE MISS PENALTY: 401.438
LLC5 WRITEBACK ACCESS: 148885  HIT: 144567  MISS:  4318  HIT %: 97.0998  MISS %: 2.90023  AVERAGE MISS PENALTY: 0
LLC5 PREFETCH  REQUESTED:     0  ISSUED:     0  USEFUL:     1  USELESS: 191236
 USEFUL LOAD PREFETCHES:          1 PREFETCH ISSUED TO LOWER LEVEL:     191176  ACCURACY: 0.000523078
 TIMELY PREFETCHES:          1 LATE PREFETCHES: 0 DROPPED PREFETCHES: 0
LLC5 AVERAGE MISS LATENCY: 435.927 cycles
LLC6 TOTAL     ACCESS: 511358  HIT: 166921  MISS: 344437  HIT %: 32.6427  MISS %: 67.3573  AVERAGE MISS PENALTY: 431.362
LLC6 LOAD      ACCESS:   272  HIT:   135  MISS:   137  HIT %: 49.6324  MISS %: 50.3676  AVERAGE MISS PENALTY: 255.307
LLC6 RFO       ACCESS: 148841  HIT:     0  MISS: 148841  HIT %:     0  MISS %:   100  AVERAGE MISS PENALTY: 486.407
LLC6 PREFETCH  ACCESS: 213362  HIT: 22239  MISS: 191123  HIT %: 10.4231  MISS %: 89.5769  AVERAGE MISS PENALTY: 398.406
LLC6 WRITEBACK ACCESS: 148883  HIT: 144547  MISS:  4336  HIT %: 97.0876  MISS %: 2.91235  AVERAGE MISS PENALTY: 0
LLC6 PREFETCH  REQUESTED:     0  ISSUED:     0  USEFUL:     2  USELESS: 191093
 USEFUL LOAD PREFETCHES:          2 PREFETCH ISSUED TO LOWER LEVEL:     191124  ACCURACY: 0.00104644
 TIMELY PREFETCHES:          2 LATE PREFETCHES: 0 DROPPED PREFETCHES: 0
LLC6 AVERAGE MISS LATENCY: 431.362 cycles
LLC7 TOTAL     ACCESS: 511338  HIT: 167034  MISS: 344304  HIT %: 32.6661  MISS %: 67.3339  AVERAGE MISS PENALTY: 425.172
LLC7 LOAD      ACCESS:   131  HIT:     2  MISS:   129  HIT %: 1.52672  MISS %: 98.4733  AVERAGE MISS PENALTY: 242.643
LLC7 RFO       ACCESS: 148841  HIT:     0  MISS: 148841  HIT %:     0  MISS %:   100  AVERAGE MISS PENALTY: 482.866
LLC7 PREFETCH  ACCESS: 213389  HIT: 22340  MISS: 191049  HIT %: 10.4691  MISS %: 89.5309  AVERAGE MISS PENALTY: 389.884
LLC7 WRITEBACK ACCESS: 148977  HIT: 144692  MISS:  4285  HIT %: 97.1237  MISS %: 2.87628  AVERAGE MISS PENALTY: 0
LLC7 PREFETCH  REQUESTED:     0  ISSUED:     0  USEFUL:     2  USELESS: 191062
 USEFUL LOAD PREFETCHES:          2 PREFETCH ISSUED TO LOWER LEVEL:     191049  ACCURACY: 0.00104685
 TIMELY PREFETCHES:          2 LATE PREFETCHES: 0 DROPPED PREFETCHES: 0
LLC7 AVERAGE MISS LATENCY: 425.172 cycles
ROI Average ROB Stall Cycles:	5.54112
ROI Total ROB Stalls Cycles:	85936486
ROI TOTAL ROB counter      :	15508876
ROI Average Load ROB Stall Cycles:	8.01104
ROI Total Load ROB Stalls Cycle  :	16107014
ROI Total Load ROB stalls Counter:	2010602
Major fault: 0 Minor fault: 76555

