
*** ChampSim Multicore Out-of-Order Simulator ***

Warmup Instructions: 200000000
Simulation Instructions: 200000000
Number of CPUs: 1
threads:1

L1I Configuration:
L1I_SET:64
L1I_WAY:8
L1I_RQ_SIZE:64
L1I_WQ_SIZE:64
L1I_PQ_SIZE:8
L1I_MSHR_SIZE:8

L1D Configuration:
L1D_SET:64
L1D_WAY:12
L1D_RQ_SIZE:64
L1D_WQ_SIZE:64
L1D_PQ_SIZE:8
L1D_MSHR_SIZE:16

L2C Configuration:
L2C_SET:1024
L2C_WAY:8
L2C_RQ_SIZE:32
L2C_WQ_SIZE:32
L2C_PQ_SIZE:16
L2C_MSHR_SIZE:32

LLC Configuration:
LLC_SET:2048
LLC_WAY:16
LLC SLICES:8
LLC_RQ_SIZE:64
LLC_WQ_SIZE:64
LLC_PQ_SIZE:32
LLC_MSHR_SIZE:64

Interconnect OFF
Attacker deprioritize is: OFF
Off-chip DRAM Size: 4096 MB Channels: 1 Width: 64-bit Data Rate: 3200 MT/s
PAGE SIZE in KB: 4.000000 
PAGE SIZE in MB: 0.003906 
PAGE offset in bits: 12 
CEASER-S_LLC:0
MIRAGE : 1
CEASER_LATENCY:3
REMAP : OFF
Partitions : 1
Multi-Step : OFF
BFS : OFF

CPU 0 runs /home/anubhav/spec_2017/603.bwaves_s-2609B.champsimtrace.xz
CPU 0 Bimodal branch predictor
Initialize Hawkeye state
Initialize Hawkeye state
Initialize Hawkeye state
Initialize Hawkeye state
Initialize Hawkeye state
Initialize Hawkeye state
Initialize Hawkeye state
Initialize Hawkeye state
Heartbeat CPU 0 instructions: 10000001 cycles: 5311865 heartbeat IPC: 1.88258 cumulative IPC: 1.88258 (Simulation time: 0 hr 1 min 47 sec) 
 Total Blocks : 262144 Invalid Blocks : 126694
Heartbeat CPU 0 instructions: 20000000 cycles: 10623660 heartbeat IPC: 1.8826 cumulative IPC: 1.88259 (Simulation time: 0 hr 3 min 36 sec) 
 Total Blocks : 262144 Invalid Blocks : 61343
Heartbeat CPU 0 instructions: 30000000 cycles: 15934590 heartbeat IPC: 1.88291 cumulative IPC: 1.8827 (Simulation time: 0 hr 5 min 36 sec) 
 Total Blocks : 262144 Invalid Blocks : 29947
Heartbeat CPU 0 instructions: 40000001 cycles: 21245654 heartbeat IPC: 1.88286 cumulative IPC: 1.88274 (Simulation time: 0 hr 7 min 45 sec) 
 Total Blocks : 262144 Invalid Blocks : 14609
Heartbeat CPU 0 instructions: 50000001 cycles: 26557506 heartbeat IPC: 1.88258 cumulative IPC: 1.88271 (Simulation time: 0 hr 9 min 58 sec) 
 Total Blocks : 262144 Invalid Blocks : 7210
Heartbeat CPU 0 instructions: 60000001 cycles: 31868940 heartbeat IPC: 1.88273 cumulative IPC: 1.88271 (Simulation time: 0 hr 12 min 15 sec) 
 Total Blocks : 262144 Invalid Blocks : 3585
Heartbeat CPU 0 instructions: 70000000 cycles: 37179729 heartbeat IPC: 1.88296 cumulative IPC: 1.88275 (Simulation time: 0 hr 14 min 35 sec) 
 Total Blocks : 262144 Invalid Blocks : 1735
Heartbeat CPU 0 instructions: 80000003 cycles: 42491149 heartbeat IPC: 1.88274 cumulative IPC: 1.88275 (Simulation time: 0 hr 16 min 55 sec) 
 Total Blocks : 262144 Invalid Blocks : 815
Heartbeat CPU 0 instructions: 90000002 cycles: 47803133 heartbeat IPC: 1.88254 cumulative IPC: 1.88272 (Simulation time: 0 hr 19 min 22 sec) 
 Total Blocks : 262144 Invalid Blocks : 404
Heartbeat CPU 0 instructions: 100000002 cycles: 53114166 heartbeat IPC: 1.88287 cumulative IPC: 1.88274 (Simulation time: 0 hr 21 min 55 sec) 
 Total Blocks : 262144 Invalid Blocks : 197
Heartbeat CPU 0 instructions: 110000000 cycles: 58424934 heartbeat IPC: 1.88297 cumulative IPC: 1.88276 (Simulation time: 0 hr 24 min 29 sec) 
 Total Blocks : 262144 Invalid Blocks : 89
Heartbeat CPU 0 instructions: 120000003 cycles: 63736792 heartbeat IPC: 1.88258 cumulative IPC: 1.88274 (Simulation time: 0 hr 27 min 7 sec) 
 Total Blocks : 262144 Invalid Blocks : 46
Heartbeat CPU 0 instructions: 130000001 cycles: 69048522 heartbeat IPC: 1.88263 cumulative IPC: 1.88273 (Simulation time: 0 hr 29 min 54 sec) 
 Total Blocks : 262144 Invalid Blocks : 22
Heartbeat CPU 0 instructions: 140000001 cycles: 74359183 heartbeat IPC: 1.883 cumulative IPC: 1.88275 (Simulation time: 0 hr 32 min 47 sec) 
 Total Blocks : 262144 Invalid Blocks : 9
Heartbeat CPU 0 instructions: 150000002 cycles: 79670331 heartbeat IPC: 1.88283 cumulative IPC: 1.88276 (Simulation time: 0 hr 35 min 42 sec) 
 Total Blocks : 262144 Invalid Blocks : 4
Heartbeat CPU 0 instructions: 160000002 cycles: 84982199 heartbeat IPC: 1.88258 cumulative IPC: 1.88275 (Simulation time: 0 hr 38 min 45 sec) 
 Total Blocks : 262144 Invalid Blocks : 1
Heartbeat CPU 0 instructions: 170000002 cycles: 90293504 heartbeat IPC: 1.88278 cumulative IPC: 1.88275 (Simulation time: 0 hr 41 min 52 sec) 
 Total Blocks : 262144 Invalid Blocks : 1
Heartbeat CPU 0 instructions: 180000000 cycles: 95604260 heartbeat IPC: 1.88297 cumulative IPC: 1.88276 (Simulation time: 0 hr 45 min 8 sec) 
 Total Blocks : 262144 Invalid Blocks : 0
Heartbeat CPU 0 instructions: 190000003 cycles: 100915942 heartbeat IPC: 1.88264 cumulative IPC: 1.88276 (Simulation time: 0 hr 48 min 44 sec) 
 Total Blocks : 262144 Invalid Blocks : 0
Heartbeat CPU 0 instructions: 200000003 cycles: 106227829 heartbeat IPC: 1.88257 cumulative IPC: 1.88275 (Simulation time: 0 hr 52 min 26 sec) 
 Total Blocks : 262144 Invalid Blocks : 0

Warmup complete CPU 0 instructions: 200000003 cycles: 106227829 (Simulation time: 0 hr 52 min 26 sec) 

Heartbeat CPU 0 instructions: 210000002 cycles: 113741336 heartbeat IPC: 1.33094 cumulative IPC: 1.33094 (Simulation time: 0 hr 56 min 21 sec) 
 Total Blocks : 262144 Invalid Blocks : 0
Heartbeat CPU 0 instructions: 220000000 cycles: 121252873 heartbeat IPC: 1.33129 cumulative IPC: 1.33111 (Simulation time: 1 hr 0 min 18 sec) 
 Total Blocks : 262144 Invalid Blocks : 0
Heartbeat CPU 0 instructions: 230000001 cycles: 128769280 heartbeat IPC: 1.33042 cumulative IPC: 1.33088 (Simulation time: 1 hr 4 min 30 sec) 
 Total Blocks : 262144 Invalid Blocks : 0
Heartbeat CPU 0 instructions: 240000003 cycles: 136289799 heartbeat IPC: 1.3297 cumulative IPC: 1.33058 (Simulation time: 1 hr 8 min 59 sec) 
 Total Blocks : 262144 Invalid Blocks : 0
Heartbeat CPU 0 instructions: 250000001 cycles: 143799859 heartbeat IPC: 1.33155 cumulative IPC: 1.33078 (Simulation time: 1 hr 13 min 7 sec) 
 Total Blocks : 262144 Invalid Blocks : 0
Heartbeat CPU 0 instructions: 260000002 cycles: 151314519 heartbeat IPC: 1.33073 cumulative IPC: 1.33077 (Simulation time: 1 hr 16 min 54 sec) 
 Total Blocks : 262144 Invalid Blocks : 0
Heartbeat CPU 0 instructions: 270000001 cycles: 158832734 heartbeat IPC: 1.3301 cumulative IPC: 1.33067 (Simulation time: 1 hr 20 min 43 sec) 
 Total Blocks : 262144 Invalid Blocks : 0
Heartbeat CPU 0 instructions: 280000002 cycles: 166346599 heartbeat IPC: 1.33087 cumulative IPC: 1.3307 (Simulation time: 1 hr 24 min 25 sec) 
 Total Blocks : 262144 Invalid Blocks : 0
Heartbeat CPU 0 instructions: 290000002 cycles: 173858847 heartbeat IPC: 1.33116 cumulative IPC: 1.33075 (Simulation time: 1 hr 28 min 41 sec) 
 Total Blocks : 262144 Invalid Blocks : 0
Heartbeat CPU 0 instructions: 300000001 cycles: 181373600 heartbeat IPC: 1.33072 cumulative IPC: 1.33075 (Simulation time: 1 hr 33 min 9 sec) 
 Total Blocks : 262144 Invalid Blocks : 0
Heartbeat CPU 0 instructions: 310000001 cycles: 188885459 heartbeat IPC: 1.33123 cumulative IPC: 1.33079 (Simulation time: 1 hr 36 min 45 sec) 
 Total Blocks : 262144 Invalid Blocks : 0
Heartbeat CPU 0 instructions: 320000003 cycles: 196398538 heartbeat IPC: 1.33101 cumulative IPC: 1.33081 (Simulation time: 1 hr 40 min 23 sec) 
 Total Blocks : 262144 Invalid Blocks : 0
Heartbeat CPU 0 instructions: 330000000 cycles: 203914441 heartbeat IPC: 1.33051 cumulative IPC: 1.33079 (Simulation time: 1 hr 44 min 4 sec) 
 Total Blocks : 262144 Invalid Blocks : 0
Heartbeat CPU 0 instructions: 340000002 cycles: 211426186 heartbeat IPC: 1.33125 cumulative IPC: 1.33082 (Simulation time: 1 hr 47 min 47 sec) 
 Total Blocks : 262144 Invalid Blocks : 0
Heartbeat CPU 0 instructions: 350000000 cycles: 218942842 heartbeat IPC: 1.33038 cumulative IPC: 1.33079 (Simulation time: 1 hr 51 min 30 sec) 
 Total Blocks : 262144 Invalid Blocks : 0
Heartbeat CPU 0 instructions: 360000002 cycles: 226457200 heartbeat IPC: 1.33079 cumulative IPC: 1.33079 (Simulation time: 1 hr 55 min 17 sec) 
 Total Blocks : 262144 Invalid Blocks : 0
Heartbeat CPU 0 instructions: 370000002 cycles: 233968640 heartbeat IPC: 1.3313 cumulative IPC: 1.33082 (Simulation time: 1 hr 59 min 6 sec) 
 Total Blocks : 262144 Invalid Blocks : 0
Heartbeat CPU 0 instructions: 380000000 cycles: 241484229 heartbeat IPC: 1.33057 cumulative IPC: 1.33081 (Simulation time: 2 hr 3 min 0 sec) 
 Total Blocks : 262144 Invalid Blocks : 0
Heartbeat CPU 0 instructions: 390000003 cycles: 248998546 heartbeat IPC: 1.33079 cumulative IPC: 1.33081 (Simulation time: 2 hr 6 min 58 sec) 
 Total Blocks : 262144 Invalid Blocks : 0
Heartbeat CPU 0 instructions: 400000003 cycles: 256511920 heartbeat IPC: 1.33096 cumulative IPC: 1.33081 (Simulation time: 2 hr 10 min 54 sec) 
 Total Blocks : 262144 Invalid Blocks : 0
Finished CPU 0 instructions: 200000000 cycles: 150284091 cumulative IPC: 1.33081 (Simulation time: 2 hr 10 min 54 sec) 

CPU 0 Branch Prediction Accuracy: 81.2318% MPKI: 4.68481 Average ROB Occupancy at Mispredict: 203.758

ChampSim completed all CPUs

Region of Interest Statistics

CPU 0 cumulative IPC: 1.33081 instructions: 200000000 cycles: 150284091
ITLB TOTAL     ACCESS: 17948482  HIT: 17948482  MISS:     0  HIT %:   100  MISS %:     0  AVERAGE MISS PENALTY: 0
ITLB LOAD      ACCESS: 17948482  HIT: 17948482  MISS:     0  HIT %:   100  MISS %:     0  AVERAGE MISS PENALTY: 0
ITLB RFO       ACCESS:     0  HIT:     0  MISS:     0  HIT %:     0  MISS %:     0  AVERAGE MISS PENALTY: 0
ITLB PREFETCH  ACCESS:     0  HIT:     0  MISS:     0  HIT %:     0  MISS %:     0  AVERAGE MISS PENALTY: 0
ITLB WRITEBACK ACCESS:     0  HIT:     0  MISS:     0  HIT %:     0  MISS %:     0  AVERAGE MISS PENALTY: 0
ITLB PREFETCH  REQUESTED:     0  ISSUED:     0  USEFUL:     0  USELESS:     0
 USEFUL LOAD PREFETCHES:          0 PREFETCH ISSUED TO LOWER LEVEL:          0  ACCURACY: -nan
 TIMELY PREFETCHES:          0 LATE PREFETCHES: 0 DROPPED PREFETCHES: 0
ITLB AVERAGE MISS LATENCY: -nan cycles
DTLB TOTAL     ACCESS: 64473033  HIT: 64355459  MISS: 117574  HIT %: 99.8176  MISS %: 0.182362  AVERAGE MISS PENALTY: 217.02
DTLB LOAD      ACCESS: 59450023  HIT: 59345993  MISS: 104030  HIT %: 99.825  MISS %: 0.174987  AVERAGE MISS PENALTY: 242.639
DTLB RFO       ACCESS: 5023010  HIT: 5009466  MISS: 13544  HIT %: 99.7304  MISS %: 0.269639  AVERAGE MISS PENALTY: 20.2451
DTLB PREFETCH  ACCESS:     0  HIT:     0  MISS:     0  HIT %:     0  MISS %:     0  AVERAGE MISS PENALTY: 0
DTLB WRITEBACK ACCESS:     0  HIT:     0  MISS:     0  HIT %:     0  MISS %:     0  AVERAGE MISS PENALTY: 0
DTLB PREFETCH  REQUESTED:     0  ISSUED:     0  USEFUL:     0  USELESS:     0
 USEFUL LOAD PREFETCHES:          0 PREFETCH ISSUED TO LOWER LEVEL:          0  ACCURACY: -nan
 TIMELY PREFETCHES:          0 LATE PREFETCHES: 0 DROPPED PREFETCHES: 0
DTLB AVERAGE MISS LATENCY: 217.02 cycles
STLB TOTAL     ACCESS: 117574  HIT: 58192  MISS: 59382  HIT %: 49.4939  MISS %: 50.5061  AVERAGE MISS PENALTY: 100
STLB LOAD      ACCESS: 104030  HIT: 46171  MISS: 57859  HIT %: 44.3824  MISS %: 55.6176  AVERAGE MISS PENALTY: 100
STLB RFO       ACCESS: 13544  HIT: 12021  MISS:  1523  HIT %: 88.7552  MISS %: 11.2448  AVERAGE MISS PENALTY: 100
STLB PREFETCH  ACCESS:     0  HIT:     0  MISS:     0  HIT %:     0  MISS %:     0  AVERAGE MISS PENALTY: 0
STLB WRITEBACK ACCESS:     0  HIT:     0  MISS:     0  HIT %:     0  MISS %:     0  AVERAGE MISS PENALTY: 0
STLB PREFETCH  REQUESTED:     0  ISSUED:     0  USEFUL:     0  USELESS:     0
 USEFUL LOAD PREFETCHES:          0 PREFETCH ISSUED TO LOWER LEVEL:          0  ACCURACY: -nan
 TIMELY PREFETCHES:          0 LATE PREFETCHES: 0 DROPPED PREFETCHES: 0
STLB AVERAGE MISS LATENCY: 100 cycles
L1D TOTAL     ACCESS: 104146694  HIT: 100148197  MISS: 3998497  HIT %: 96.1607  MISS %: 3.83929  AVERAGE MISS PENALTY: 1.28082e+06
L1D LOAD      ACCESS: 59386153  HIT: 59219468  MISS: 166685  HIT %: 99.7193  MISS %: 0.28068  AVERAGE MISS PENALTY: 3.0724e+07
L1D RFO       ACCESS: 11125951  HIT: 11028502  MISS: 97449  HIT %: 99.1241  MISS %: 0.875871  AVERAGE MISS PENALTY: 210.549
L1D PREFETCH  ACCESS: 33634590  HIT: 29900227  MISS: 3734363  HIT %: 88.8973  MISS %: 11.1027  AVERAGE MISS PENALTY: 25.4713
L1D WRITEBACK ACCESS:     0  HIT:     0  MISS:     0  HIT %:     0  MISS %:     0  AVERAGE MISS PENALTY: 0
L1D PREFETCH  REQUESTED: 66131899  ISSUED: 34587591  USEFUL: 3734242  USELESS:   128
 USEFUL LOAD PREFETCHES:    3734242 PREFETCH ISSUED TO LOWER LEVEL:    7086702  ACCURACY: 52.6937
 TIMELY PREFETCHES:    3734242 LATE PREFETCHES: 43830 DROPPED PREFETCHES: 31544308
L1D AVERAGE MISS LATENCY: 35.7384 cycles
L1I TOTAL     ACCESS: 30118279  HIT: 30118279  MISS:     0  HIT %:   100  MISS %:     0  AVERAGE MISS PENALTY: 0
L1I LOAD      ACCESS: 30118279  HIT: 30118279  MISS:     0  HIT %:   100  MISS %:     0  AVERAGE MISS PENALTY: 0
L1I RFO       ACCESS:     0  HIT:     0  MISS:     0  HIT %:     0  MISS %:     0  AVERAGE MISS PENALTY: 0
L1I PREFETCH  ACCESS:     0  HIT:     0  MISS:     0  HIT %:     0  MISS %:     0  AVERAGE MISS PENALTY: 0
L1I WRITEBACK ACCESS:     0  HIT:     0  MISS:     0  HIT %:     0  MISS %:     0  AVERAGE MISS PENALTY: 0
L1I PREFETCH  REQUESTED:     0  ISSUED:     0  USEFUL:     0  USELESS:     0
 USEFUL LOAD PREFETCHES:          0 PREFETCH ISSUED TO LOWER LEVEL:          0  ACCURACY: -nan
 TIMELY PREFETCHES:          0 LATE PREFETCHES: 0 DROPPED PREFETCHES: 0
L1I AVERAGE MISS LATENCY: -nan cycles
L2C TOTAL     ACCESS: 12823784  HIT: 9023264  MISS: 3800520  HIT %: 70.3635  MISS %: 29.6365  AVERAGE MISS PENALTY: 577852
L2C LOAD      ACCESS: 159984  HIT: 75335  MISS: 84649  HIT %: 47.0891  MISS %: 52.9109  AVERAGE MISS PENALTY: 2.59345e+07
L2C RFO       ACCESS: 97449  HIT:     0  MISS: 97449  HIT %:     0  MISS %:   100  AVERAGE MISS PENALTY: 194.241
L2C PREFETCH  ACCESS: 12467423  HIT: 8849001  MISS: 3618422  HIT %: 70.977  MISS %: 29.023  AVERAGE MISS PENALTY: 219.081
L2C WRITEBACK ACCESS: 98928  HIT: 98928  MISS:     0  HIT %:   100  MISS %:     0  AVERAGE MISS PENALTY: 0
L2C PREFETCH  REQUESTED: 14328048  ISSUED: 13753974  USEFUL: 69398  USELESS: 3549063
 USEFUL LOAD PREFETCHES:      69398 PREFETCH ISSUED TO LOWER LEVEL:    4694957  ACCURACY: 1.47814
 TIMELY PREFETCHES:      69398 LATE PREFETCHES: 19178 DROPPED PREFETCHES: 574074
L2C AVERAGE MISS LATENCY: 219.623 cycles
LLC0 TOTAL     ACCESS: 487242  HIT: 18495  MISS: 468747  HIT %: 3.79586  MISS %: 96.2041  AVERAGE MISS PENALTY: 190.01
LLC0 LOAD      ACCESS: 57882  HIT:   831  MISS: 57051  HIT %: 1.43568  MISS %: 98.5643  AVERAGE MISS PENALTY: 251.705
LLC0 RFO       ACCESS: 12182  HIT:     0  MISS: 12182  HIT %:     0  MISS %:   100  AVERAGE MISS PENALTY: 164.422
LLC0 PREFETCH  ACCESS: 405000  HIT:  5798  MISS: 399202  HIT %: 1.4316  MISS %: 98.5684  AVERAGE MISS PENALTY: 182.122
LLC0 WRITEBACK ACCESS: 12178  HIT: 11866  MISS:   312  HIT %: 97.438  MISS %: 2.562  AVERAGE MISS PENALTY: 0
LLC0 PREFETCH  REQUESTED:     0  ISSUED:     0  USEFUL:     1  USELESS: 399239
 USEFUL LOAD PREFETCHES:          1 PREFETCH ISSUED TO LOWER LEVEL:     399202  ACCURACY: 0.0002505
 TIMELY PREFETCHES:          1 LATE PREFETCHES: 0 DROPPED PREFETCHES: 0
LLC0 AVERAGE MISS LATENCY: 190.01 cycles
Deadblocks : 56948 Deadblock percentage : 99.8195

LLC1 TOTAL     ACCESS: 487242  HIT: 18490  MISS: 468752  HIT %: 3.79483  MISS %: 96.2052  AVERAGE MISS PENALTY: 191.798
LLC1 LOAD      ACCESS: 14862  HIT:     7  MISS: 14855  HIT %: 0.0471  MISS %: 99.9529  AVERAGE MISS PENALTY: 270.925
LLC1 RFO       ACCESS: 12181  HIT:     0  MISS: 12181  HIT %:     0  MISS %:   100  AVERAGE MISS PENALTY: 152.876
LLC1 PREFETCH  ACCESS: 448021  HIT:  6655  MISS: 441366  HIT %: 1.48542  MISS %: 98.5146  AVERAGE MISS PENALTY: 190.361
LLC1 WRITEBACK ACCESS: 12178  HIT: 11828  MISS:   350  HIT %: 97.126  MISS %: 2.87404  AVERAGE MISS PENALTY: 0
LLC1 PREFETCH  REQUESTED:     0  ISSUED:     0  USEFUL:     7  USELESS: 441664
 USEFUL LOAD PREFETCHES:          7 PREFETCH ISSUED TO LOWER LEVEL:     441366  ACCURACY: 0.00158599
 TIMELY PREFETCHES:          7 LATE PREFETCHES: 0 DROPPED PREFETCHES: 0
LLC1 AVERAGE MISS LATENCY: 191.798 cycles
LLC2 TOTAL     ACCESS: 487242  HIT: 18482  MISS: 468760  HIT %: 3.79319  MISS %: 96.2068  AVERAGE MISS PENALTY: 190.357
LLC2 LOAD      ACCESS:  1644  HIT:     2  MISS:  1642  HIT %: 0.121655  MISS %: 99.8783  AVERAGE MISS PENALTY: 180.936
LLC2 RFO       ACCESS: 12181  HIT:     0  MISS: 12181  HIT %:     0  MISS %:   100  AVERAGE MISS PENALTY: 167.693
LLC2 PREFETCH  ACCESS: 461239  HIT:  6616  MISS: 454623  HIT %: 1.4344  MISS %: 98.5656  AVERAGE MISS PENALTY: 191.129
LLC2 WRITEBACK ACCESS: 12178  HIT: 11864  MISS:   314  HIT %: 97.4216  MISS %: 2.57842  AVERAGE MISS PENALTY: 0
LLC2 PREFETCH  REQUESTED:     0  ISSUED:     0  USEFUL:     2  USELESS: 454677
 USEFUL LOAD PREFETCHES:          2 PREFETCH ISSUED TO LOWER LEVEL:     454623  ACCURACY: 0.000439925
 TIMELY PREFETCHES:          2 LATE PREFETCHES: 0 DROPPED PREFETCHES: 0
LLC2 AVERAGE MISS LATENCY: 190.357 cycles
LLC3 TOTAL     ACCESS: 487247  HIT: 18463  MISS: 468784  HIT %: 3.78925  MISS %: 96.2108  AVERAGE MISS PENALTY: 191.838
LLC3 LOAD      ACCESS:    22  HIT:     4  MISS:    18  HIT %: 18.1818  MISS %: 81.8182  AVERAGE MISS PENALTY: 150.222
LLC3 RFO       ACCESS: 12181  HIT:     0  MISS: 12181  HIT %:     0  MISS %:   100  AVERAGE MISS PENALTY: 147.911
LLC3 PREFETCH  ACCESS: 462866  HIT:  6593  MISS: 456273  HIT %: 1.42439  MISS %: 98.5756  AVERAGE MISS PENALTY: 193.144
LLC3 WRITEBACK ACCESS: 12178  HIT: 11866  MISS:   312  HIT %: 97.438  MISS %: 2.562  AVERAGE MISS PENALTY: 0
LLC3 PREFETCH  REQUESTED:     0  ISSUED:     0  USEFUL:     1  USELESS: 456224
 USEFUL LOAD PREFETCHES:          1 PREFETCH ISSUED TO LOWER LEVEL:     456274  ACCURACY: 0.000219167
 TIMELY PREFETCHES:          1 LATE PREFETCHES: 0 DROPPED PREFETCHES: 0
LLC3 AVERAGE MISS LATENCY: 191.838 cycles
LLC4 TOTAL     ACCESS: 487258  HIT: 18445  MISS: 468813  HIT %: 3.78547  MISS %: 96.2145  AVERAGE MISS PENALTY: 188.669
LLC4 LOAD      ACCESS:    66  HIT:     2  MISS:    64  HIT %: 3.0303  MISS %: 96.9697  AVERAGE MISS PENALTY: 147.953
LLC4 RFO       ACCESS: 12181  HIT:     0  MISS: 12181  HIT %:     0  MISS %:   100  AVERAGE MISS PENALTY: 165.03
LLC4 PREFETCH  ACCESS: 462822  HIT:  6591  MISS: 456231  HIT %: 1.42409  MISS %: 98.5759  AVERAGE MISS PENALTY: 189.446
LLC4 WRITEBACK ACCESS: 12189  HIT: 11852  MISS:   337  HIT %: 97.2352  MISS %: 2.76479  AVERAGE MISS PENALTY: 0
LLC4 PREFETCH  REQUESTED:     0  ISSUED:     0  USEFUL:     0  USELESS: 456216
 USEFUL LOAD PREFETCHES:          0 PREFETCH ISSUED TO LOWER LEVEL:     456231  ACCURACY: 0
 TIMELY PREFETCHES:          0 LATE PREFETCHES: 0 DROPPED PREFETCHES: 0
LLC4 AVERAGE MISS LATENCY: 188.669 cycles
LLC5 TOTAL     ACCESS: 487260  HIT: 18474  MISS: 468786  HIT %: 3.7914  MISS %: 96.2086  AVERAGE MISS PENALTY: 183.057
LLC5 LOAD      ACCESS:    56  HIT:     4  MISS:    52  HIT %: 7.14286  MISS %: 92.8571  AVERAGE MISS PENALTY: 112.308
LLC5 RFO       ACCESS: 12181  HIT:     0  MISS: 12181  HIT %:     0  MISS %:   100  AVERAGE MISS PENALTY: 150.527
LLC5 PREFETCH  ACCESS: 462833  HIT:  6639  MISS: 456194  HIT %: 1.43443  MISS %: 98.5656  AVERAGE MISS PENALTY: 184.077
LLC5 WRITEBACK ACCESS: 12190  HIT: 11831  MISS:   359  HIT %: 97.055  MISS %: 2.94504  AVERAGE MISS PENALTY: 0
LLC5 PREFETCH  REQUESTED:     0  ISSUED:     0  USEFUL:     0  USELESS: 456195
 USEFUL LOAD PREFETCHES:          0 PREFETCH ISSUED TO LOWER LEVEL:     456194  ACCURACY: 0
 TIMELY PREFETCHES:          0 LATE PREFETCHES: 0 DROPPED PREFETCHES: 0
LLC5 AVERAGE MISS LATENCY: 183.057 cycles
LLC6 TOTAL     ACCESS: 487238  HIT: 18544  MISS: 468694  HIT %: 3.80594  MISS %: 96.1941  AVERAGE MISS PENALTY: 183.888
LLC6 LOAD      ACCESS:    21  HIT:     0  MISS:    21  HIT %:     0  MISS %:   100  AVERAGE MISS PENALTY: 159.524
LLC6 RFO       ACCESS: 12181  HIT:     0  MISS: 12181  HIT %:     0  MISS %:   100  AVERAGE MISS PENALTY: 177.97
LLC6 PREFETCH  ACCESS: 462857  HIT:  6686  MISS: 456171  HIT %: 1.44451  MISS %: 98.5555  AVERAGE MISS PENALTY: 184.177
LLC6 WRITEBACK ACCESS: 12179  HIT: 11858  MISS:   321  HIT %: 97.3643  MISS %: 2.63568  AVERAGE MISS PENALTY: 0
LLC6 PREFETCH  REQUESTED:     0  ISSUED:     0  USEFUL:     0  USELESS: 456171
 USEFUL LOAD PREFETCHES:          0 PREFETCH ISSUED TO LOWER LEVEL:     456171  ACCURACY: 0
 TIMELY PREFETCHES:          0 LATE PREFETCHES: 0 DROPPED PREFETCHES: 0
LLC6 AVERAGE MISS LATENCY: 183.888 cycles
LLC7 TOTAL     ACCESS: 487240  HIT: 18567  MISS: 468673  HIT %: 3.81065  MISS %: 96.1894  AVERAGE MISS PENALTY: 185.718
LLC7 LOAD      ACCESS:    25  HIT:     1  MISS:    24  HIT %:     4  MISS %:    96  AVERAGE MISS PENALTY: 111.167
LLC7 RFO       ACCESS: 12181  HIT:     0  MISS: 12181  HIT %:     0  MISS %:   100  AVERAGE MISS PENALTY: 148.798
LLC7 PREFETCH  ACCESS: 462855  HIT:  6692  MISS: 456163  HIT %: 1.44581  MISS %: 98.5542  AVERAGE MISS PENALTY: 186.832
LLC7 WRITEBACK ACCESS: 12179  HIT: 11874  MISS:   305  HIT %: 97.4957  MISS %: 2.50431  AVERAGE MISS PENALTY: 0
LLC7 PREFETCH  REQUESTED:     0  ISSUED:     0  USEFUL:     1  USELESS: 456174
 USEFUL LOAD PREFETCHES:          1 PREFETCH ISSUED TO LOWER LEVEL:     456163  ACCURACY: 0.00021922
 TIMELY PREFETCHES:          1 LATE PREFETCHES: 0 DROPPED PREFETCHES: 0
LLC7 AVERAGE MISS LATENCY: 185.718 cycles
ROI Average ROB Stall Cycles:	3.72594
ROI Total ROB Stalls Cycles:	107628852
ROI TOTAL ROB counter      :	28886394
ROI Average Load ROB Stall Cycles:	6.76794
ROI Total Load ROB Stalls Cycle  :	28161044
ROI Total Load ROB stalls Counter:	4160950
Major fault: 0 Minor fault: 112961

