
*** ChampSim Multicore Out-of-Order Simulator ***

Warmup Instructions: 200000000
Simulation Instructions: 200000000
Number of CPUs: 1
threads:1

L1I Configuration:
L1I_SET:64
L1I_WAY:8
L1I_RQ_SIZE:64
L1I_WQ_SIZE:64
L1I_PQ_SIZE:8
L1I_MSHR_SIZE:8

L1D Configuration:
L1D_SET:64
L1D_WAY:12
L1D_RQ_SIZE:64
L1D_WQ_SIZE:64
L1D_PQ_SIZE:8
L1D_MSHR_SIZE:16

L2C Configuration:
L2C_SET:1024
L2C_WAY:8
L2C_RQ_SIZE:32
L2C_WQ_SIZE:32
L2C_PQ_SIZE:16
L2C_MSHR_SIZE:32

LLC Configuration:
LLC_SET:2048
LLC_WAY:16
LLC SLICES:8
LLC_RQ_SIZE:64
LLC_WQ_SIZE:64
LLC_PQ_SIZE:32
LLC_MSHR_SIZE:64

Interconnect OFF
Attacker deprioritize is: OFF
Off-chip DRAM Size: 4096 MB Channels: 1 Width: 64-bit Data Rate: 3200 MT/s
PAGE SIZE in KB: 4.000000 
PAGE SIZE in MB: 0.003906 
PAGE offset in bits: 12 
CEASER-S_LLC:0
MIRAGE : 1
CEASER_LATENCY:3
REMAP : OFF
Partitions : 1
Multi-Step : OFF
BFS : OFF

CPU 0 runs /home/anubhav/spec_2017/605.mcf_s-1536B.champsimtrace.xz
CPU 0 Bimodal branch predictor
Initialize Hawkeye state
Initialize Hawkeye state
Initialize Hawkeye state
Initialize Hawkeye state
Initialize Hawkeye state
Initialize Hawkeye state
Initialize Hawkeye state
Initialize Hawkeye state
Heartbeat CPU 0 instructions: 10000002 cycles: 3439441 heartbeat IPC: 2.90745 cumulative IPC: 2.90745 (Simulation time: 0 hr 2 min 6 sec) 
 Total Blocks : 262144 Invalid Blocks : 73480
Heartbeat CPU 0 instructions: 20000001 cycles: 6872408 heartbeat IPC: 2.91293 cumulative IPC: 2.91019 (Simulation time: 0 hr 4 min 21 sec) 
 Total Blocks : 262144 Invalid Blocks : 23199
Heartbeat CPU 0 instructions: 30000003 cycles: 10302634 heartbeat IPC: 2.91526 cumulative IPC: 2.91188 (Simulation time: 0 hr 6 min 49 sec) 
 Total Blocks : 262144 Invalid Blocks : 7585
Heartbeat CPU 0 instructions: 40000000 cycles: 13742482 heartbeat IPC: 2.9071 cumulative IPC: 2.91068 (Simulation time: 0 hr 9 min 36 sec) 
 Total Blocks : 262144 Invalid Blocks : 2273
Heartbeat CPU 0 instructions: 50000001 cycles: 17183828 heartbeat IPC: 2.90584 cumulative IPC: 2.90971 (Simulation time: 0 hr 12 min 34 sec) 
 Total Blocks : 262144 Invalid Blocks : 714
Heartbeat CPU 0 instructions: 60000003 cycles: 20617351 heartbeat IPC: 2.91246 cumulative IPC: 2.91017 (Simulation time: 0 hr 15 min 45 sec) 
 Total Blocks : 262144 Invalid Blocks : 226
Heartbeat CPU 0 instructions: 70000000 cycles: 24050559 heartbeat IPC: 2.91273 cumulative IPC: 2.91054 (Simulation time: 0 hr 19 min 9 sec) 
 Total Blocks : 262144 Invalid Blocks : 79
Heartbeat CPU 0 instructions: 80000000 cycles: 27481206 heartbeat IPC: 2.9149 cumulative IPC: 2.91108 (Simulation time: 0 hr 22 min 42 sec) 
 Total Blocks : 262144 Invalid Blocks : 25
Heartbeat CPU 0 instructions: 90000002 cycles: 30909620 heartbeat IPC: 2.9168 cumulative IPC: 2.91172 (Simulation time: 0 hr 26 min 25 sec) 
 Total Blocks : 262144 Invalid Blocks : 7
Heartbeat CPU 0 instructions: 100000003 cycles: 34340125 heartbeat IPC: 2.91502 cumulative IPC: 2.91205 (Simulation time: 0 hr 30 min 14 sec) 
 Total Blocks : 262144 Invalid Blocks : 3
Heartbeat CPU 0 instructions: 110000000 cycles: 37774989 heartbeat IPC: 2.91132 cumulative IPC: 2.91198 (Simulation time: 0 hr 34 min 14 sec) 
 Total Blocks : 262144 Invalid Blocks : 1
Heartbeat CPU 0 instructions: 120000003 cycles: 41211848 heartbeat IPC: 2.90963 cumulative IPC: 2.91178 (Simulation time: 0 hr 38 min 30 sec) 
 Total Blocks : 262144 Invalid Blocks : 0
Heartbeat CPU 0 instructions: 130000002 cycles: 44644881 heartbeat IPC: 2.91288 cumulative IPC: 2.91187 (Simulation time: 0 hr 42 min 59 sec) 
 Total Blocks : 262144 Invalid Blocks : 0
Heartbeat CPU 0 instructions: 140000002 cycles: 48078743 heartbeat IPC: 2.91217 cumulative IPC: 2.91189 (Simulation time: 0 hr 47 min 31 sec) 
 Total Blocks : 262144 Invalid Blocks : 0
Heartbeat CPU 0 instructions: 150000002 cycles: 51510865 heartbeat IPC: 2.91365 cumulative IPC: 2.91201 (Simulation time: 0 hr 52 min 13 sec) 
 Total Blocks : 262144 Invalid Blocks : 0
Heartbeat CPU 0 instructions: 160000002 cycles: 54942733 heartbeat IPC: 2.91387 cumulative IPC: 2.91212 (Simulation time: 0 hr 57 min 2 sec) 
 Total Blocks : 262144 Invalid Blocks : 0
Heartbeat CPU 0 instructions: 170000002 cycles: 58376129 heartbeat IPC: 2.91257 cumulative IPC: 2.91215 (Simulation time: 1 hr 2 min 5 sec) 
 Total Blocks : 262144 Invalid Blocks : 0
Heartbeat CPU 0 instructions: 180000001 cycles: 61811545 heartbeat IPC: 2.91086 cumulative IPC: 2.91208 (Simulation time: 1 hr 7 min 31 sec) 
 Total Blocks : 262144 Invalid Blocks : 0
Heartbeat CPU 0 instructions: 190000003 cycles: 65247062 heartbeat IPC: 2.91077 cumulative IPC: 2.91201 (Simulation time: 1 hr 12 min 56 sec) 
 Total Blocks : 262144 Invalid Blocks : 0
Heartbeat CPU 0 instructions: 200000003 cycles: 68685617 heartbeat IPC: 2.9082 cumulative IPC: 2.91182 (Simulation time: 1 hr 18 min 31 sec) 
 Total Blocks : 262144 Invalid Blocks : 0

Warmup complete CPU 0 instructions: 200000003 cycles: 68685617 (Simulation time: 1 hr 18 min 31 sec) 

Heartbeat CPU 0 instructions: 210000002 cycles: 108613178 heartbeat IPC: 0.250454 cumulative IPC: 0.250454 (Simulation time: 1 hr 25 min 28 sec) 
 Total Blocks : 262144 Invalid Blocks : 0
Heartbeat CPU 0 instructions: 220000000 cycles: 148296758 heartbeat IPC: 0.251993 cumulative IPC: 0.251221 (Simulation time: 1 hr 32 min 16 sec) 
 Total Blocks : 262144 Invalid Blocks : 0
Heartbeat CPU 0 instructions: 230000002 cycles: 187988427 heartbeat IPC: 0.251942 cumulative IPC: 0.251461 (Simulation time: 1 hr 40 min 9 sec) 
 Total Blocks : 262144 Invalid Blocks : 0
Heartbeat CPU 0 instructions: 240000001 cycles: 227670947 heartbeat IPC: 0.252 cumulative IPC: 0.251596 (Simulation time: 1 hr 48 min 34 sec) 
 Total Blocks : 262144 Invalid Blocks : 0
Heartbeat CPU 0 instructions: 250000000 cycles: 267399353 heartbeat IPC: 0.251709 cumulative IPC: 0.251618 (Simulation time: 1 hr 55 min 28 sec) 
 Total Blocks : 262144 Invalid Blocks : 0
Heartbeat CPU 0 instructions: 260000003 cycles: 307068419 heartbeat IPC: 0.252086 cumulative IPC: 0.251696 (Simulation time: 2 hr 2 min 27 sec) 
 Total Blocks : 262144 Invalid Blocks : 0
Heartbeat CPU 0 instructions: 270000003 cycles: 346705506 heartbeat IPC: 0.252289 cumulative IPC: 0.251781 (Simulation time: 2 hr 9 min 31 sec) 
 Total Blocks : 262144 Invalid Blocks : 0
Heartbeat CPU 0 instructions: 280000000 cycles: 386355104 heartbeat IPC: 0.252209 cumulative IPC: 0.251834 (Simulation time: 2 hr 16 min 22 sec) 
 Total Blocks : 262144 Invalid Blocks : 0
Heartbeat CPU 0 instructions: 290000002 cycles: 425822330 heartbeat IPC: 0.253375 cumulative IPC: 0.252004 (Simulation time: 2 hr 23 min 13 sec) 
 Total Blocks : 262144 Invalid Blocks : 0
Heartbeat CPU 0 instructions: 300000002 cycles: 465321569 heartbeat IPC: 0.253169 cumulative IPC: 0.25212 (Simulation time: 2 hr 30 min 6 sec) 
 Total Blocks : 262144 Invalid Blocks : 0
Heartbeat CPU 0 instructions: 310000000 cycles: 504676673 heartbeat IPC: 0.254097 cumulative IPC: 0.252299 (Simulation time: 2 hr 36 min 52 sec) 
 Total Blocks : 262144 Invalid Blocks : 0
Heartbeat CPU 0 instructions: 320000000 cycles: 544047946 heartbeat IPC: 0.253992 cumulative IPC: 0.252439 (Simulation time: 2 hr 43 min 35 sec) 
 Total Blocks : 262144 Invalid Blocks : 0
Heartbeat CPU 0 instructions: 330000000 cycles: 583390556 heartbeat IPC: 0.254177 cumulative IPC: 0.252572 (Simulation time: 2 hr 50 min 12 sec) 
 Total Blocks : 262144 Invalid Blocks : 0
Heartbeat CPU 0 instructions: 340000000 cycles: 622723691 heartbeat IPC: 0.254239 cumulative IPC: 0.25269 (Simulation time: 2 hr 56 min 53 sec) 
 Total Blocks : 262144 Invalid Blocks : 0
Heartbeat CPU 0 instructions: 350000000 cycles: 662201926 heartbeat IPC: 0.253304 cumulative IPC: 0.252731 (Simulation time: 3 hr 3 min 40 sec) 
 Total Blocks : 262144 Invalid Blocks : 0
Heartbeat CPU 0 instructions: 360000003 cycles: 701549851 heartbeat IPC: 0.254143 cumulative IPC: 0.252819 (Simulation time: 3 hr 10 min 34 sec) 
 Total Blocks : 262144 Invalid Blocks : 0
Heartbeat CPU 0 instructions: 370000003 cycles: 740860871 heartbeat IPC: 0.254382 cumulative IPC: 0.25291 (Simulation time: 3 hr 17 min 34 sec) 
 Total Blocks : 262144 Invalid Blocks : 0
Heartbeat CPU 0 instructions: 380000003 cycles: 780212329 heartbeat IPC: 0.25412 cumulative IPC: 0.252977 (Simulation time: 3 hr 24 min 38 sec) 
 Total Blocks : 262144 Invalid Blocks : 0
Heartbeat CPU 0 instructions: 390000002 cycles: 819544609 heartbeat IPC: 0.254244 cumulative IPC: 0.253044 (Simulation time: 3 hr 31 min 50 sec) 
 Total Blocks : 262144 Invalid Blocks : 0
Heartbeat CPU 0 instructions: 400000001 cycles: 858911058 heartbeat IPC: 0.254023 cumulative IPC: 0.253092 (Simulation time: 3 hr 39 min 10 sec) 
 Total Blocks : 262144 Invalid Blocks : 0
Finished CPU 0 instructions: 200000002 cycles: 790225442 cumulative IPC: 0.253092 (Simulation time: 3 hr 39 min 10 sec) 

CPU 0 Branch Prediction Accuracy: 99.9619% MPKI: 0.042435 Average ROB Occupancy at Mispredict: 186.971

ChampSim completed all CPUs

Region of Interest Statistics

CPU 0 cumulative IPC: 0.253092 instructions: 200000002 cycles: 790225442
ITLB TOTAL     ACCESS: 45346315  HIT: 45346315  MISS:     0  HIT %:   100  MISS %:     0  AVERAGE MISS PENALTY: 0
ITLB LOAD      ACCESS: 45346315  HIT: 45346315  MISS:     0  HIT %:   100  MISS %:     0  AVERAGE MISS PENALTY: 0
ITLB RFO       ACCESS:     0  HIT:     0  MISS:     0  HIT %:     0  MISS %:     0  AVERAGE MISS PENALTY: 0
ITLB PREFETCH  ACCESS:     0  HIT:     0  MISS:     0  HIT %:     0  MISS %:     0  AVERAGE MISS PENALTY: 0
ITLB WRITEBACK ACCESS:     0  HIT:     0  MISS:     0  HIT %:     0  MISS %:     0  AVERAGE MISS PENALTY: 0
ITLB PREFETCH  REQUESTED:     0  ISSUED:     0  USEFUL:     0  USELESS:     0
 USEFUL LOAD PREFETCHES:          0 PREFETCH ISSUED TO LOWER LEVEL:          0  ACCURACY: -nan
 TIMELY PREFETCHES:          0 LATE PREFETCHES: 0 DROPPED PREFETCHES: 0
ITLB AVERAGE MISS LATENCY: -nan cycles
DTLB TOTAL     ACCESS: 37126589  HIT: 32361368  MISS: 4765221  HIT %: 87.1649  MISS %: 12.8351  AVERAGE MISS PENALTY: 157.942
DTLB LOAD      ACCESS: 28257824  HIT: 23501267  MISS: 4756557  HIT %: 83.1673  MISS %: 16.8327  AVERAGE MISS PENALTY: 157.98
DTLB RFO       ACCESS: 8868765  HIT: 8860101  MISS:  8664  HIT %: 99.9023  MISS %: 0.0976912  AVERAGE MISS PENALTY: 137.207
DTLB PREFETCH  ACCESS:     0  HIT:     0  MISS:     0  HIT %:     0  MISS %:     0  AVERAGE MISS PENALTY: 0
DTLB WRITEBACK ACCESS:     0  HIT:     0  MISS:     0  HIT %:     0  MISS %:     0  AVERAGE MISS PENALTY: 0
DTLB PREFETCH  REQUESTED:     0  ISSUED:     0  USEFUL:     0  USELESS:     0
 USEFUL LOAD PREFETCHES:          0 PREFETCH ISSUED TO LOWER LEVEL:          0  ACCURACY: -nan
 TIMELY PREFETCHES:          0 LATE PREFETCHES: 0 DROPPED PREFETCHES: 0
DTLB AVERAGE MISS LATENCY: 157.942 cycles
STLB TOTAL     ACCESS: 4765221  HIT:   114  MISS: 4765107  HIT %: 0.00239233  MISS %: 99.9976  AVERAGE MISS PENALTY: 100
STLB LOAD      ACCESS: 4756557  HIT:   114  MISS: 4756443  HIT %: 0.00239669  MISS %: 99.9976  AVERAGE MISS PENALTY: 100
STLB RFO       ACCESS:  8664  HIT:     0  MISS:  8664  HIT %:     0  MISS %:   100  AVERAGE MISS PENALTY: 100
STLB PREFETCH  ACCESS:     0  HIT:     0  MISS:     0  HIT %:     0  MISS %:     0  AVERAGE MISS PENALTY: 0
STLB WRITEBACK ACCESS:     0  HIT:     0  MISS:     0  HIT %:     0  MISS %:     0  AVERAGE MISS PENALTY: 0
STLB PREFETCH  REQUESTED:     0  ISSUED:     0  USEFUL:     0  USELESS:     0
 USEFUL LOAD PREFETCHES:          0 PREFETCH ISSUED TO LOWER LEVEL:          0  ACCURACY: -nan
 TIMELY PREFETCHES:          0 LATE PREFETCHES: 0 DROPPED PREFETCHES: 0
STLB AVERAGE MISS LATENCY: 100 cycles
L1D TOTAL     ACCESS: 48588598  HIT: 29041847  MISS: 19546751  HIT %: 59.7709  MISS %: 40.2291  AVERAGE MISS PENALTY: 2.14146e+06
L1D LOAD      ACCESS: 29505852  HIT: 19482193  MISS: 10023659  HIT %: 66.0282  MISS %: 33.9718  AVERAGE MISS PENALTY: 4.17207e+06
L1D RFO       ACCESS: 8868875  HIT: 8319065  MISS: 549810  HIT %: 93.8007  MISS %: 6.19932  AVERAGE MISS PENALTY: 69393.1
L1D PREFETCH  ACCESS: 10213871  HIT: 1240589  MISS: 8973282  HIT %: 12.1461  MISS %: 87.8539  AVERAGE MISS PENALTY: 118.2
L1D WRITEBACK ACCESS:     0  HIT:     0  MISS:     0  HIT %:     0  MISS %:     0  AVERAGE MISS PENALTY: 0
L1D PREFETCH  REQUESTED: 12223037  ISSUED: 12131671  USEFUL: 509104  USELESS: 8464086
 USEFUL LOAD PREFETCHES:     509104 PREFETCH ISSUED TO LOWER LEVEL:   10783138  ACCURACY: 4.7213
 TIMELY PREFETCHES:     509104 LATE PREFETCHES: 1477483 DROPPED PREFETCHES: 91366
L1D AVERAGE MISS LATENCY: 2053.64 cycles
L1I TOTAL     ACCESS: 54079561  HIT: 54079561  MISS:     0  HIT %:   100  MISS %:     0  AVERAGE MISS PENALTY: 0
L1I LOAD      ACCESS: 54079561  HIT: 54079561  MISS:     0  HIT %:   100  MISS %:     0  AVERAGE MISS PENALTY: 0
L1I RFO       ACCESS:     0  HIT:     0  MISS:     0  HIT %:     0  MISS %:     0  AVERAGE MISS PENALTY: 0
L1I PREFETCH  ACCESS:     0  HIT:     0  MISS:     0  HIT %:     0  MISS %:     0  AVERAGE MISS PENALTY: 0
L1I WRITEBACK ACCESS:     0  HIT:     0  MISS:     0  HIT %:     0  MISS %:     0  AVERAGE MISS PENALTY: 0
L1I PREFETCH  REQUESTED:     0  ISSUED:     0  USEFUL:     0  USELESS:     0
 USEFUL LOAD PREFETCHES:          0 PREFETCH ISSUED TO LOWER LEVEL:          0  ACCURACY: -nan
 TIMELY PREFETCHES:          0 LATE PREFETCHES: 0 DROPPED PREFETCHES: 0
L1I AVERAGE MISS LATENCY: -nan cycles
L2C TOTAL     ACCESS: 31260982  HIT: 5732743  MISS: 25528239  HIT %: 18.3383  MISS %: 81.6617  AVERAGE MISS PENALTY: 613264
L2C LOAD      ACCESS: 9991076  HIT: 91410  MISS: 9899666  HIT %: 0.914916  MISS %: 99.0851  AVERAGE MISS PENALTY: 1.58123e+06
L2C RFO       ACCESS: 549734  HIT:  4057  MISS: 545677  HIT %: 0.737993  MISS %: 99.262  AVERAGE MISS PENALTY: 70.2225
L2C PREFETCH  ACCESS: 16285691  HIT: 1202796  MISS: 15082895  HIT %: 7.3856  MISS %: 92.6144  AVERAGE MISS PENALTY: 125.077
L2C WRITEBACK ACCESS: 4434481  HIT: 4434480  MISS:     1  HIT %:   100  MISS %: 2.25506e-05  AVERAGE MISS PENALTY: 0
L2C PREFETCH  REQUESTED: 12154320  ISSUED: 11979117  USEFUL: 50982  USELESS: 15029966
 USEFUL LOAD PREFETCHES:      50982 PREFETCH ISSUED TO LOWER LEVEL:   15623338  ACCURACY: 0.32632
 TIMELY PREFETCHES:      50982 LATE PREFETCHES: 463384 DROPPED PREFETCHES: 175203
L2C AVERAGE MISS LATENCY: 100.62 cycles
LLC0 TOTAL     ACCESS: 3617927  HIT: 2878972  MISS: 738955  HIT %: 79.5752  MISS %: 20.4248  AVERAGE MISS PENALTY: 180.382
LLC0 LOAD      ACCESS: 1220226  HIT: 1107152  MISS: 113074  HIT %: 90.7334  MISS %: 9.26664  AVERAGE MISS PENALTY: 181.595
LLC0 RFO       ACCESS: 65824  HIT: 64900  MISS:   924  HIT %: 98.5963  MISS %: 1.40374  AVERAGE MISS PENALTY: 180.83
LLC0 PREFETCH  ACCESS: 1777447  HIT: 1157185  MISS: 620262  HIT %: 65.1038  MISS %: 34.8962  AVERAGE MISS PENALTY: 181.525
LLC0 WRITEBACK ACCESS: 554430  HIT: 549735  MISS:  4695  HIT %: 99.1532  MISS %: 0.846816  AVERAGE MISS PENALTY: 0
LLC0 PREFETCH  REQUESTED:     0  ISSUED:     0  USEFUL: 524231  USELESS: 97384
 USEFUL LOAD PREFETCHES:     524231 PREFETCH ISSUED TO LOWER LEVEL:     620262  ACCURACY: 84.5177
 TIMELY PREFETCHES:     524231 LATE PREFETCHES: 0 DROPPED PREFETCHES: 0
LLC0 AVERAGE MISS LATENCY: 180.382 cycles
Deadblocks : 29180 Deadblock percentage : 25.8061

LLC1 TOTAL     ACCESS: 3738062  HIT: 2996778  MISS: 741284  HIT %: 80.1693  MISS %: 19.8307  AVERAGE MISS PENALTY: 178.156
LLC1 LOAD      ACCESS: 1239237  HIT: 1193760  MISS: 45477  HIT %: 96.3302  MISS %: 3.66976  AVERAGE MISS PENALTY: 182.077
LLC1 RFO       ACCESS: 68525  HIT: 67580  MISS:   945  HIT %: 98.6209  MISS %: 1.37906  AVERAGE MISS PENALTY: 182.856
LLC1 PREFETCH  ACCESS: 1875848  HIT: 1185240  MISS: 690608  HIT %: 63.1842  MISS %: 36.8158  AVERAGE MISS PENALTY: 178.988
LLC1 WRITEBACK ACCESS: 554452  HIT: 550198  MISS:  4254  HIT %: 99.2328  MISS %: 0.767244  AVERAGE MISS PENALTY: 0
LLC1 PREFETCH  REQUESTED:     0  ISSUED:     0  USEFUL: 592092  USELESS: 99492
 USEFUL LOAD PREFETCHES:     592092 PREFETCH ISSUED TO LOWER LEVEL:     690608  ACCURACY: 85.7349
 TIMELY PREFETCHES:     592092 LATE PREFETCHES: 0 DROPPED PREFETCHES: 0
LLC1 AVERAGE MISS LATENCY: 178.156 cycles
LLC2 TOTAL     ACCESS: 3855937  HIT: 3114282  MISS: 741655  HIT %: 80.7659  MISS %: 19.2341  AVERAGE MISS PENALTY: 178.433
LLC2 LOAD      ACCESS: 1265820  HIT: 1228179  MISS: 37641  HIT %: 97.0264  MISS %: 2.97365  AVERAGE MISS PENALTY: 182.728
LLC2 RFO       ACCESS: 68587  HIT: 67583  MISS:  1004  HIT %: 98.5362  MISS %: 1.46383  AVERAGE MISS PENALTY: 182.021
LLC2 PREFETCH  ACCESS: 1967095  HIT: 1268135  MISS: 698960  HIT %: 64.4674  MISS %: 35.5326  AVERAGE MISS PENALTY: 179.231
LLC2 WRITEBACK ACCESS: 554435  HIT: 550385  MISS:  4050  HIT %: 99.2695  MISS %: 0.730473  AVERAGE MISS PENALTY: 0
LLC2 PREFETCH  REQUESTED:     0  ISSUED:     0  USEFUL: 600208  USELESS: 99913
 USEFUL LOAD PREFETCHES:     600208 PREFETCH ISSUED TO LOWER LEVEL:     698960  ACCURACY: 85.8716
 TIMELY PREFETCHES:     600208 LATE PREFETCHES: 0 DROPPED PREFETCHES: 0
LLC2 AVERAGE MISS LATENCY: 178.433 cycles
LLC3 TOTAL     ACCESS: 3804066  HIT: 3081969  MISS: 722097  HIT %: 81.0178  MISS %: 18.9822  AVERAGE MISS PENALTY: 177.902
LLC3 LOAD      ACCESS: 1225847  HIT: 1188965  MISS: 36882  HIT %: 96.9913  MISS %: 3.0087  AVERAGE MISS PENALTY: 182.102
LLC3 RFO       ACCESS: 68568  HIT: 67700  MISS:   868  HIT %: 98.7341  MISS %: 1.2659  AVERAGE MISS PENALTY: 183.123
LLC3 PREFETCH  ACCESS: 1955176  HIT: 1275030  MISS: 680146  HIT %: 65.2131  MISS %: 34.7869  AVERAGE MISS PENALTY: 178.766
LLC3 WRITEBACK ACCESS: 554475  HIT: 550274  MISS:  4201  HIT %: 99.2423  MISS %: 0.757654  AVERAGE MISS PENALTY: 0
LLC3 PREFETCH  REQUESTED:     0  ISSUED:     0  USEFUL: 599983  USELESS: 80741
 USEFUL LOAD PREFETCHES:     599983 PREFETCH ISSUED TO LOWER LEVEL:     680146  ACCURACY: 88.2139
 TIMELY PREFETCHES:     599983 LATE PREFETCHES: 0 DROPPED PREFETCHES: 0
LLC3 AVERAGE MISS LATENCY: 177.902 cycles
LLC4 TOTAL     ACCESS: 3762051  HIT: 3039513  MISS: 722538  HIT %: 80.794  MISS %: 19.206  AVERAGE MISS PENALTY: 177.868
LLC4 LOAD      ACCESS: 1223948  HIT: 1185431  MISS: 38517  HIT %: 96.8531  MISS %: 3.14695  AVERAGE MISS PENALTY: 181.628
LLC4 RFO       ACCESS: 68469  HIT: 67506  MISS:   963  HIT %: 98.5935  MISS %: 1.40648  AVERAGE MISS PENALTY: 183.383
LLC4 PREFETCH  ACCESS: 1915155  HIT: 1236175  MISS: 678980  HIT %: 64.547  MISS %: 35.453  AVERAGE MISS PENALTY: 178.716
LLC4 WRITEBACK ACCESS: 554479  HIT: 550401  MISS:  4078  HIT %: 99.2645  MISS %: 0.735465  AVERAGE MISS PENALTY: 0
LLC4 PREFETCH  REQUESTED:     0  ISSUED:     0  USEFUL: 597984  USELESS: 81665
 USEFUL LOAD PREFETCHES:     597984 PREFETCH ISSUED TO LOWER LEVEL:     678980  ACCURACY: 88.0709
 TIMELY PREFETCHES:     597984 LATE PREFETCHES: 0 DROPPED PREFETCHES: 0
LLC4 AVERAGE MISS LATENCY: 177.868 cycles
LLC5 TOTAL     ACCESS: 3740262  HIT: 3012784  MISS: 727478  HIT %: 80.5501  MISS %: 19.4499  AVERAGE MISS PENALTY: 178.111
LLC5 LOAD      ACCESS: 1228143  HIT: 1189576  MISS: 38567  HIT %: 96.8597  MISS %: 3.14027  AVERAGE MISS PENALTY: 182.792
LLC5 RFO       ACCESS: 68555  HIT: 67608  MISS:   947  HIT %: 98.6186  MISS %: 1.38137  AVERAGE MISS PENALTY: 183.7
LLC5 PREFETCH  ACCESS: 1889089  HIT: 1205362  MISS: 683727  HIT %: 63.8065  MISS %: 36.1935  AVERAGE MISS PENALTY: 178.943
LLC5 WRITEBACK ACCESS: 554475  HIT: 550238  MISS:  4237  HIT %: 99.2359  MISS %: 0.764146  AVERAGE MISS PENALTY: 0
LLC5 PREFETCH  REQUESTED:     0  ISSUED:     0  USEFUL: 598266  USELESS: 85923
 USEFUL LOAD PREFETCHES:     598266 PREFETCH ISSUED TO LOWER LEVEL:     683727  ACCURACY: 87.5007
 TIMELY PREFETCHES:     598266 LATE PREFETCHES: 0 DROPPED PREFETCHES: 0
LLC5 AVERAGE MISS LATENCY: 178.111 cycles
LLC6 TOTAL     ACCESS: 3727567  HIT: 3000349  MISS: 727218  HIT %: 80.4908  MISS %: 19.5092  AVERAGE MISS PENALTY: 177.932
LLC6 LOAD      ACCESS: 1230404  HIT: 1189407  MISS: 40997  HIT %: 96.668  MISS %: 3.332  AVERAGE MISS PENALTY: 182.009
LLC6 RFO       ACCESS: 68521  HIT: 67599  MISS:   922  HIT %: 98.6544  MISS %: 1.34557  AVERAGE MISS PENALTY: 181.795
LLC6 PREFETCH  ACCESS: 1874168  HIT: 1193186  MISS: 680982  HIT %: 63.6648  MISS %: 36.3352  AVERAGE MISS PENALTY: 178.809
LLC6 WRITEBACK ACCESS: 554474  HIT: 550157  MISS:  4317  HIT %: 99.2214  MISS %: 0.778576  AVERAGE MISS PENALTY: 0
LLC6 PREFETCH  REQUESTED:     0  ISSUED:     0  USEFUL: 595417  USELESS: 85939
 USEFUL LOAD PREFETCHES:     595417 PREFETCH ISSUED TO LOWER LEVEL:     680982  ACCURACY: 87.4351
 TIMELY PREFETCHES:     595417 LATE PREFETCHES: 0 DROPPED PREFETCHES: 0
LLC6 AVERAGE MISS LATENCY: 177.932 cycles
LLC7 TOTAL     ACCESS: 3718050  HIT: 2994850  MISS: 723200  HIT %: 80.5489  MISS %: 19.4511  AVERAGE MISS PENALTY: 177.929
LLC7 LOAD      ACCESS: 1251536  HIT: 1208880  MISS: 42656  HIT %: 96.5917  MISS %: 3.40829  AVERAGE MISS PENALTY: 181.904
LLC7 RFO       ACCESS: 68628  HIT: 67753  MISS:   875  HIT %: 98.725  MISS %: 1.27499  AVERAGE MISS PENALTY: 182.522
LLC7 PREFETCH  ACCESS: 1843422  HIT: 1167893  MISS: 675529  HIT %: 63.3546  MISS %: 36.6454  AVERAGE MISS PENALTY: 178.762
LLC7 WRITEBACK ACCESS: 554464  HIT: 550324  MISS:  4140  HIT %: 99.2533  MISS %: 0.746667  AVERAGE MISS PENALTY: 0
LLC7 PREFETCH  REQUESTED:     0  ISSUED:     0  USEFUL: 594105  USELESS: 81902
 USEFUL LOAD PREFETCHES:     594105 PREFETCH ISSUED TO LOWER LEVEL:     675529  ACCURACY: 87.9466
 TIMELY PREFETCHES:     594105 LATE PREFETCHES: 0 DROPPED PREFETCHES: 0
LLC7 AVERAGE MISS LATENCY: 177.929 cycles
ROI Average ROB Stall Cycles:	29.7536
ROI Total ROB Stalls Cycles:	699357073
ROI TOTAL ROB counter      :	23504994
ROI Average Load ROB Stall Cycles:	83.6622
ROI Total Load ROB Stalls Cycle  :	501761422
ROI Total Load ROB stalls Counter:	5997466
Major fault: 0 Minor fault: 159305

Interconnect Stats 
LINK 0 BW : 0LINK 1 BW : 0LINK 2 BW : 0LINK 3 BW : 0LINK 4 BW : 0LINK 5 BW : 0LINK 6 BW : 0LINK 7 BW : 0
DRAM Statistics
 CHANNEL 0
 RQ ROW_BUFFER_HIT: 67897  ROW_BUFFER_MISS: 5742544
 DBUS_CONGESTED: 4125705
 WQ ROW_BUFFER_HIT: 701380  ROW_BUFFER_MISS: 3729032  FULL:     0

 AVG_CONGESTED_CYCLE: 6
DRAM PAGES: 1048576
Allocated PAGES: 159305
L2C destructor called
L1D destructor called
L1I destructor called
STLB destructor called
DTLB destructor called
ITLB destructor called
