
*** ChampSim Multicore Out-of-Order Simulator ***

Warmup Instructions: 200000000
Simulation Instructions: 200000000
Number of CPUs: 1
threads:1

L1I Configuration:
L1I_SET:64
L1I_WAY:8
L1I_RQ_SIZE:64
L1I_WQ_SIZE:64
L1I_PQ_SIZE:8
L1I_MSHR_SIZE:8

L1D Configuration:
L1D_SET:64
L1D_WAY:12
L1D_RQ_SIZE:64
L1D_WQ_SIZE:64
L1D_PQ_SIZE:8
L1D_MSHR_SIZE:16

L2C Configuration:
L2C_SET:1024
L2C_WAY:8
L2C_RQ_SIZE:32
L2C_WQ_SIZE:32
L2C_PQ_SIZE:16
L2C_MSHR_SIZE:32

LLC Configuration:
LLC_SET:2048
LLC_WAY:16
LLC SLICES:8
LLC_RQ_SIZE:64
LLC_WQ_SIZE:64
LLC_PQ_SIZE:32
LLC_MSHR_SIZE:64

Interconnect OFF
Attacker deprioritize is: OFF
Off-chip DRAM Size: 4096 MB Channels: 1 Width: 64-bit Data Rate: 3200 MT/s
PAGE SIZE in KB: 4.000000 
PAGE SIZE in MB: 0.003906 
PAGE offset in bits: 12 
CEASER-S_LLC:0
MIRAGE : 1
CEASER_LATENCY:3
REMAP : OFF
Partitions : 1
Multi-Step : OFF
BFS : OFF

CPU 0 runs /home/anubhav/spec_2017/605.mcf_s-665B.champsimtrace.xz
CPU 0 Bimodal branch predictor
Initialize Hawkeye state
Initialize Hawkeye state
Initialize Hawkeye state
Initialize Hawkeye state
Initialize Hawkeye state
Initialize Hawkeye state
Initialize Hawkeye state
Initialize Hawkeye state
Heartbeat CPU 0 instructions: 10000001 cycles: 11675968 heartbeat IPC: 0.85646 cumulative IPC: 0.85646 (Simulation time: 0 hr 1 min 48 sec) 
 Total Blocks : 262144 Invalid Blocks : 147173
Heartbeat CPU 0 instructions: 20000001 cycles: 23314390 heartbeat IPC: 0.859223 cumulative IPC: 0.857839 (Simulation time: 0 hr 3 min 40 sec) 
 Total Blocks : 262144 Invalid Blocks : 94092
Heartbeat CPU 0 instructions: 30000001 cycles: 34938431 heartbeat IPC: 0.860286 cumulative IPC: 0.858653 (Simulation time: 0 hr 5 min 29 sec) 
 Total Blocks : 262144 Invalid Blocks : 61886
Heartbeat CPU 0 instructions: 40000000 cycles: 46628011 heartbeat IPC: 0.855463 cumulative IPC: 0.857853 (Simulation time: 0 hr 7 min 21 sec) 
 Total Blocks : 262144 Invalid Blocks : 39920
Heartbeat CPU 0 instructions: 50000003 cycles: 58361421 heartbeat IPC: 0.852267 cumulative IPC: 0.85673 (Simulation time: 0 hr 9 min 10 sec) 
 Total Blocks : 262144 Invalid Blocks : 26523
Heartbeat CPU 0 instructions: 60000002 cycles: 70061632 heartbeat IPC: 0.854685 cumulative IPC: 0.856389 (Simulation time: 0 hr 11 min 10 sec) 
 Total Blocks : 262144 Invalid Blocks : 17296
Heartbeat CPU 0 instructions: 70000002 cycles: 81866719 heartbeat IPC: 0.847092 cumulative IPC: 0.855048 (Simulation time: 0 hr 12 min 58 sec) 
 Total Blocks : 262144 Invalid Blocks : 11471
Heartbeat CPU 0 instructions: 80000001 cycles: 93584343 heartbeat IPC: 0.853415 cumulative IPC: 0.854844 (Simulation time: 0 hr 14 min 58 sec) 
 Total Blocks : 262144 Invalid Blocks : 7469
Heartbeat CPU 0 instructions: 90000001 cycles: 105352668 heartbeat IPC: 0.849739 cumulative IPC: 0.854274 (Simulation time: 0 hr 16 min 53 sec) 
 Total Blocks : 262144 Invalid Blocks : 4945
Heartbeat CPU 0 instructions: 100000001 cycles: 117308686 heartbeat IPC: 0.836399 cumulative IPC: 0.852452 (Simulation time: 0 hr 18 min 41 sec) 
 Total Blocks : 262144 Invalid Blocks : 3592
Heartbeat CPU 0 instructions: 110000000 cycles: 129189868 heartbeat IPC: 0.841667 cumulative IPC: 0.85146 (Simulation time: 0 hr 20 min 37 sec) 
 Total Blocks : 262144 Invalid Blocks : 2605
Heartbeat CPU 0 instructions: 120000000 cycles: 141125663 heartbeat IPC: 0.837816 cumulative IPC: 0.850306 (Simulation time: 0 hr 22 min 42 sec) 
 Total Blocks : 262144 Invalid Blocks : 1862
Heartbeat CPU 0 instructions: 130000001 cycles: 153032788 heartbeat IPC: 0.839833 cumulative IPC: 0.849491 (Simulation time: 0 hr 24 min 49 sec) 
 Total Blocks : 262144 Invalid Blocks : 1365
Heartbeat CPU 0 instructions: 140000001 cycles: 165026278 heartbeat IPC: 0.833786 cumulative IPC: 0.84835 (Simulation time: 0 hr 26 min 44 sec) 
 Total Blocks : 262144 Invalid Blocks : 993
Heartbeat CPU 0 instructions: 150000000 cycles: 177039666 heartbeat IPC: 0.832405 cumulative IPC: 0.847268 (Simulation time: 0 hr 28 min 35 sec) 
 Total Blocks : 262144 Invalid Blocks : 722
Heartbeat CPU 0 instructions: 160000000 cycles: 188997416 heartbeat IPC: 0.836278 cumulative IPC: 0.846572 (Simulation time: 0 hr 30 min 21 sec) 
 Total Blocks : 262144 Invalid Blocks : 534
Heartbeat CPU 0 instructions: 170000003 cycles: 201060425 heartbeat IPC: 0.828981 cumulative IPC: 0.845517 (Simulation time: 0 hr 32 min 15 sec) 
 Total Blocks : 262144 Invalid Blocks : 377
Heartbeat CPU 0 instructions: 180000002 cycles: 213154186 heartbeat IPC: 0.826873 cumulative IPC: 0.844459 (Simulation time: 0 hr 34 min 7 sec) 
 Total Blocks : 262144 Invalid Blocks : 276
Heartbeat CPU 0 instructions: 190000001 cycles: 225113593 heartbeat IPC: 0.836162 cumulative IPC: 0.844018 (Simulation time: 0 hr 36 min 1 sec) 
 Total Blocks : 262144 Invalid Blocks : 208
Heartbeat CPU 0 instructions: 200000000 cycles: 237061887 heartbeat IPC: 0.836939 cumulative IPC: 0.843662 (Simulation time: 0 hr 38 min 0 sec) 
 Total Blocks : 262144 Invalid Blocks : 153

Warmup complete CPU 0 instructions: 200000003 cycles: 237061888 (Simulation time: 0 hr 38 min 0 sec) 

Heartbeat CPU 0 instructions: 210000002 cycles: 271336609 heartbeat IPC: 0.29176 cumulative IPC: 0.29176 (Simulation time: 0 hr 41 min 56 sec) 
 Total Blocks : 262144 Invalid Blocks : 105
Heartbeat CPU 0 instructions: 220000000 cycles: 305292922 heartbeat IPC: 0.294496 cumulative IPC: 0.293122 (Simulation time: 0 hr 45 min 56 sec) 
 Total Blocks : 262144 Invalid Blocks : 76
Heartbeat CPU 0 instructions: 230000002 cycles: 339667114 heartbeat IPC: 0.290916 cumulative IPC: 0.292383 (Simulation time: 0 hr 49 min 57 sec) 
 Total Blocks : 262144 Invalid Blocks : 55
Heartbeat CPU 0 instructions: 240000002 cycles: 373634344 heartbeat IPC: 0.294401 cumulative IPC: 0.292885 (Simulation time: 0 hr 54 min 22 sec) 
 Total Blocks : 262144 Invalid Blocks : 41
Heartbeat CPU 0 instructions: 250000001 cycles: 407721240 heartbeat IPC: 0.293368 cumulative IPC: 0.292981 (Simulation time: 0 hr 58 min 50 sec) 
 Total Blocks : 262144 Invalid Blocks : 28
Heartbeat CPU 0 instructions: 260000003 cycles: 441992447 heartbeat IPC: 0.29179 cumulative IPC: 0.292782 (Simulation time: 1 hr 3 min 1 sec) 
 Total Blocks : 262144 Invalid Blocks : 27
Heartbeat CPU 0 instructions: 270000003 cycles: 476204788 heartbeat IPC: 0.292292 cumulative IPC: 0.292712 (Simulation time: 1 hr 7 min 7 sec) 
 Total Blocks : 262144 Invalid Blocks : 20
Heartbeat CPU 0 instructions: 280000000 cycles: 510512538 heartbeat IPC: 0.291479 cumulative IPC: 0.292557 (Simulation time: 1 hr 11 min 15 sec) 
 Total Blocks : 262144 Invalid Blocks : 15
Heartbeat CPU 0 instructions: 290000001 cycles: 544723466 heartbeat IPC: 0.292304 cumulative IPC: 0.292529 (Simulation time: 1 hr 14 min 56 sec) 
 Total Blocks : 262144 Invalid Blocks : 10
Heartbeat CPU 0 instructions: 300000000 cycles: 578729944 heartbeat IPC: 0.294062 cumulative IPC: 0.292682 (Simulation time: 1 hr 18 min 51 sec) 
 Total Blocks : 262144 Invalid Blocks : 7
Heartbeat CPU 0 instructions: 310000001 cycles: 612005223 heartbeat IPC: 0.300523 cumulative IPC: 0.293378 (Simulation time: 1 hr 22 min 19 sec) 
 Total Blocks : 262144 Invalid Blocks : 6
Heartbeat CPU 0 instructions: 320000000 cycles: 645692397 heartbeat IPC: 0.296849 cumulative IPC: 0.293664 (Simulation time: 1 hr 26 min 9 sec) 
 Total Blocks : 262144 Invalid Blocks : 4
Heartbeat CPU 0 instructions: 330000000 cycles: 679137197 heartbeat IPC: 0.299 cumulative IPC: 0.294068 (Simulation time: 1 hr 30 min 4 sec) 
 Total Blocks : 262144 Invalid Blocks : 3
Heartbeat CPU 0 instructions: 340000002 cycles: 712483326 heartbeat IPC: 0.299885 cumulative IPC: 0.294476 (Simulation time: 1 hr 32 min 35 sec) 
 Total Blocks : 262144 Invalid Blocks : 2
Heartbeat CPU 0 instructions: 350000002 cycles: 745905804 heartbeat IPC: 0.2992 cumulative IPC: 0.294786 (Simulation time: 1 hr 35 min 5 sec) 
 Total Blocks : 262144 Invalid Blocks : 1
Heartbeat CPU 0 instructions: 360000003 cycles: 779315391 heartbeat IPC: 0.299315 cumulative IPC: 0.295065 (Simulation time: 1 hr 37 min 35 sec) 
 Total Blocks : 262144 Invalid Blocks : 1
Heartbeat CPU 0 instructions: 370000001 cycles: 812722791 heartbeat IPC: 0.299335 cumulative IPC: 0.295313 (Simulation time: 1 hr 40 min 5 sec) 
 Total Blocks : 262144 Invalid Blocks : 0
Heartbeat CPU 0 instructions: 380000000 cycles: 846291847 heartbeat IPC: 0.297893 cumulative IPC: 0.295455 (Simulation time: 1 hr 42 min 37 sec) 
 Total Blocks : 262144 Invalid Blocks : 0
Heartbeat CPU 0 instructions: 390000002 cycles: 879688131 heartbeat IPC: 0.299435 cumulative IPC: 0.295662 (Simulation time: 1 hr 45 min 8 sec) 
 Total Blocks : 262144 Invalid Blocks : 0
Heartbeat CPU 0 instructions: 400000003 cycles: 913082857 heartbeat IPC: 0.299449 cumulative IPC: 0.295849 (Simulation time: 1 hr 47 min 40 sec) 
 Total Blocks : 262144 Invalid Blocks : 0
Finished CPU 0 instructions: 200000000 cycles: 676020969 cumulative IPC: 0.295849 (Simulation time: 1 hr 47 min 40 sec) 

CPU 0 Branch Prediction Accuracy: 85.1426% MPKI: 28.3064 Average ROB Occupancy at Mispredict: 34.7453

ChampSim completed all CPUs

Region of Interest Statistics

CPU 0 cumulative IPC: 0.295849 instructions: 200000000 cycles: 676020969
ITLB TOTAL     ACCESS: 31842672  HIT: 31842672  MISS:     0  HIT %:   100  MISS %:     0  AVERAGE MISS PENALTY: 0
ITLB LOAD      ACCESS: 31842672  HIT: 31842672  MISS:     0  HIT %:   100  MISS %:     0  AVERAGE MISS PENALTY: 0
ITLB RFO       ACCESS:     0  HIT:     0  MISS:     0  HIT %:     0  MISS %:     0  AVERAGE MISS PENALTY: 0
ITLB PREFETCH  ACCESS:     0  HIT:     0  MISS:     0  HIT %:     0  MISS %:     0  AVERAGE MISS PENALTY: 0
ITLB WRITEBACK ACCESS:     0  HIT:     0  MISS:     0  HIT %:     0  MISS %:     0  AVERAGE MISS PENALTY: 0
ITLB PREFETCH  REQUESTED:     0  ISSUED:     0  USEFUL:     0  USELESS:     0
 USEFUL LOAD PREFETCHES:          0 PREFETCH ISSUED TO LOWER LEVEL:          0  ACCURACY: -nan
 TIMELY PREFETCHES:          0 LATE PREFETCHES: 0 DROPPED PREFETCHES: 0
ITLB AVERAGE MISS LATENCY: -nan cycles
DTLB TOTAL     ACCESS: 60465199  HIT: 57767259  MISS: 2697940  HIT %: 95.538  MISS %: 4.46197  AVERAGE MISS PENALTY: 10.6497
DTLB LOAD      ACCESS: 46177509  HIT: 43869822  MISS: 2307687  HIT %: 95.0026  MISS %: 4.99743  AVERAGE MISS PENALTY: 10.8383
DTLB RFO       ACCESS: 14287690  HIT: 13897437  MISS: 390253  HIT %: 97.2686  MISS %: 2.73139  AVERAGE MISS PENALTY: 9.53446
DTLB PREFETCH  ACCESS:     0  HIT:     0  MISS:     0  HIT %:     0  MISS %:     0  AVERAGE MISS PENALTY: 0
DTLB WRITEBACK ACCESS:     0  HIT:     0  MISS:     0  HIT %:     0  MISS %:     0  AVERAGE MISS PENALTY: 0
DTLB PREFETCH  REQUESTED:     0  ISSUED:     0  USEFUL:     0  USELESS:     0
 USEFUL LOAD PREFETCHES:          0 PREFETCH ISSUED TO LOWER LEVEL:          0  ACCURACY: -nan
 TIMELY PREFETCHES:          0 LATE PREFETCHES: 0 DROPPED PREFETCHES: 0
DTLB AVERAGE MISS LATENCY: 10.6497 cycles
STLB TOTAL     ACCESS: 2697940  HIT: 2663593  MISS: 34347  HIT %: 98.7269  MISS %: 1.27308  AVERAGE MISS PENALTY: 100
STLB LOAD      ACCESS: 2307687  HIT: 2273850  MISS: 33837  HIT %: 98.5337  MISS %: 1.46627  AVERAGE MISS PENALTY: 100
STLB RFO       ACCESS: 390253  HIT: 389743  MISS:   510  HIT %: 99.8693  MISS %: 0.130684  AVERAGE MISS PENALTY: 100
STLB PREFETCH  ACCESS:     0  HIT:     0  MISS:     0  HIT %:     0  MISS %:     0  AVERAGE MISS PENALTY: 0
STLB WRITEBACK ACCESS:     0  HIT:     0  MISS:     0  HIT %:     0  MISS %:     0  AVERAGE MISS PENALTY: 0
STLB PREFETCH  REQUESTED:     0  ISSUED:     0  USEFUL:     0  USELESS:     0
 USEFUL LOAD PREFETCHES:          0 PREFETCH ISSUED TO LOWER LEVEL:          0  ACCURACY: -nan
 TIMELY PREFETCHES:          0 LATE PREFETCHES: 0 DROPPED PREFETCHES: 0
STLB AVERAGE MISS LATENCY: 100 cycles
L1D TOTAL     ACCESS: 105555358  HIT: 94586762  MISS: 10968596  HIT %: 89.6087  MISS %: 10.3913  AVERAGE MISS PENALTY: 2.04487e+06
L1D LOAD      ACCESS: 57147851  HIT: 52149881  MISS: 4997970  HIT %: 91.2543  MISS %: 8.74568  AVERAGE MISS PENALTY: 4.37521e+06
L1D RFO       ACCESS: 22754136  HIT: 22013125  MISS: 741011  HIT %: 96.7434  MISS %: 3.2566  AVERAGE MISS PENALTY: 758415
L1D PREFETCH  ACCESS: 25653371  HIT: 20423756  MISS: 5229615  HIT %: 79.6143  MISS %: 20.3857  AVERAGE MISS PENALTY: 35.1106
L1D WRITEBACK ACCESS:     0  HIT:     0  MISS:     0  HIT %:     0  MISS %:     0  AVERAGE MISS PENALTY: 0
L1D PREFETCH  REQUESTED: 28752900  ISSUED: 28212403  USEFUL: 1789875  USELESS: 3439650
 USEFUL LOAD PREFETCHES:    1789875 PREFETCH ISSUED TO LOWER LEVEL:    5900254  ACCURACY: 30.3356
 TIMELY PREFETCHES:    1789875 LATE PREFETCHES: 165770 DROPPED PREFETCHES: 540497
L1D AVERAGE MISS LATENCY: 51270.8 cycles
L1I TOTAL     ACCESS: 42720315  HIT: 42720315  MISS:     0  HIT %:   100  MISS %:     0  AVERAGE MISS PENALTY: 0
L1I LOAD      ACCESS: 42720315  HIT: 42720315  MISS:     0  HIT %:   100  MISS %:     0  AVERAGE MISS PENALTY: 0
L1I RFO       ACCESS:     0  HIT:     0  MISS:     0  HIT %:     0  MISS %:     0  AVERAGE MISS PENALTY: 0
L1I PREFETCH  ACCESS:     0  HIT:     0  MISS:     0  HIT %:     0  MISS %:     0  AVERAGE MISS PENALTY: 0
L1I WRITEBACK ACCESS:     0  HIT:     0  MISS:     0  HIT %:     0  MISS %:     0  AVERAGE MISS PENALTY: 0
L1I PREFETCH  REQUESTED:     0  ISSUED:     0  USEFUL:     0  USELESS:     0
 USEFUL LOAD PREFETCHES:          0 PREFETCH ISSUED TO LOWER LEVEL:          0  ACCURACY: -nan
 TIMELY PREFETCHES:          0 LATE PREFETCHES: 0 DROPPED PREFETCHES: 0
L1I AVERAGE MISS LATENCY: -nan cycles
L2C TOTAL     ACCESS: 17221521  HIT: 11525646  MISS: 5695875  HIT %: 66.9258  MISS %: 33.0742  AVERAGE MISS PENALTY: 845858
L2C LOAD      ACCESS: 4986632  HIT: 2582433  MISS: 2404199  HIT %: 51.7871  MISS %: 48.2129  AVERAGE MISS PENALTY: 1.99895e+06
L2C RFO       ACCESS: 739977  HIT: 372433  MISS: 367544  HIT %: 50.3303  MISS %: 49.6697  AVERAGE MISS PENALTY: 32011.9
L2C PREFETCH  ACCESS: 10303732  HIT: 7380132  MISS: 2923600  HIT %: 71.6258  MISS %: 28.3742  AVERAGE MISS PENALTY: 88.9465
L2C WRITEBACK ACCESS: 1191180  HIT: 1190648  MISS:   532  HIT %: 99.9553  MISS %: 0.0446616  AVERAGE MISS PENALTY: 0
L2C PREFETCH  REQUESTED: 9182097  ISSUED: 9109301  USEFUL: 431111  USELESS: 2492645
 USEFUL LOAD PREFETCHES:     431111 PREFETCH ISSUED TO LOWER LEVEL:    3151589  ACCURACY: 13.6792
 TIMELY PREFETCHES:     431111 LATE PREFETCHES: 48056 DROPPED PREFETCHES: 72796
L2C AVERAGE MISS LATENCY: 68.2078 cycles
LLC0 TOTAL     ACCESS: 772808  HIT: 581525  MISS: 191283  HIT %: 75.2483  MISS %: 24.7517  AVERAGE MISS PENALTY: 127.137
LLC0 LOAD      ACCESS: 314946  HIT: 277939  MISS: 37007  HIT %: 88.2497  MISS %: 11.7503  AVERAGE MISS PENALTY: 153.421
LLC0 RFO       ACCESS: 46234  HIT: 45798  MISS:   436  HIT %: 99.057  MISS %: 0.943029  AVERAGE MISS PENALTY: 183.14
LLC0 PREFETCH  ACCESS: 335036  HIT: 182184  MISS: 152852  HIT %: 54.3774  MISS %: 45.6226  AVERAGE MISS PENALTY: 121.435
LLC0 WRITEBACK ACCESS: 76592  HIT: 75604  MISS:   988  HIT %: 98.71  MISS %: 1.28995  AVERAGE MISS PENALTY: 0
LLC0 PREFETCH  REQUESTED:     0  ISSUED:     0  USEFUL: 22793  USELESS: 130338
 USEFUL LOAD PREFETCHES:      22793 PREFETCH ISSUED TO LOWER LEVEL:     152852  ACCURACY: 14.9118
 TIMELY PREFETCHES:      22793 LATE PREFETCHES: 0 DROPPED PREFETCHES: 0
LLC0 AVERAGE MISS LATENCY: 127.137 cycles
Deadblocks : 28950 Deadblock percentage : 78.2284

LLC1 TOTAL     ACCESS: 784013  HIT: 591435  MISS: 192578  HIT %: 75.4369  MISS %: 24.5631  AVERAGE MISS PENALTY: 128.609
LLC1 LOAD      ACCESS: 306913  HIT: 278167  MISS: 28746  HIT %: 90.6338  MISS %: 9.36617  AVERAGE MISS PENALTY: 165.176
LLC1 RFO       ACCESS: 42207  HIT: 41799  MISS:   408  HIT %: 99.0333  MISS %: 0.966664  AVERAGE MISS PENALTY: 185.294
LLC1 PREFETCH  ACCESS: 359938  HIT: 197563  MISS: 162375  HIT %: 54.8881  MISS %: 45.1119  AVERAGE MISS PENALTY: 122.824
LLC1 WRITEBACK ACCESS: 74955  HIT: 73906  MISS:  1049  HIT %: 98.6005  MISS %: 1.39951  AVERAGE MISS PENALTY: 0
LLC1 PREFETCH  REQUESTED:     0  ISSUED:     0  USEFUL: 25809  USELESS: 137722
 USEFUL LOAD PREFETCHES:      25809 PREFETCH ISSUED TO LOWER LEVEL:     162375  ACCURACY: 15.8947
 TIMELY PREFETCHES:      25809 LATE PREFETCHES: 0 DROPPED PREFETCHES: 0
LLC1 AVERAGE MISS LATENCY: 128.609 cycles
LLC2 TOTAL     ACCESS: 785890  HIT: 593495  MISS: 192395  HIT %: 75.5188  MISS %: 24.4812  AVERAGE MISS PENALTY: 128.969
LLC2 LOAD      ACCESS: 297717  HIT: 273910  MISS: 23807  HIT %: 92.0035  MISS %: 7.99652  AVERAGE MISS PENALTY: 174.291
LLC2 RFO       ACCESS: 44671  HIT: 44234  MISS:   437  HIT %: 99.0217  MISS %: 0.978263  AVERAGE MISS PENALTY: 182.755
LLC2 PREFETCH  ACCESS: 369897  HIT: 202719  MISS: 167178  HIT %: 54.8042  MISS %: 45.1958  AVERAGE MISS PENALTY: 123.125
LLC2 WRITEBACK ACCESS: 73605  HIT: 72632  MISS:   973  HIT %: 98.6781  MISS %: 1.32192  AVERAGE MISS PENALTY: 0
LLC2 PREFETCH  REQUESTED:     0  ISSUED:     0  USEFUL: 25064  USELESS: 143154
 USEFUL LOAD PREFETCHES:      25064 PREFETCH ISSUED TO LOWER LEVEL:     167178  ACCURACY: 14.9924
 TIMELY PREFETCHES:      25064 LATE PREFETCHES: 0 DROPPED PREFETCHES: 0
LLC2 AVERAGE MISS LATENCY: 128.969 cycles
LLC3 TOTAL     ACCESS: 793158  HIT: 600361  MISS: 192797  HIT %: 75.6925  MISS %: 24.3075  AVERAGE MISS PENALTY: 126.191
LLC3 LOAD      ACCESS: 297525  HIT: 276174  MISS: 21351  HIT %: 92.8238  MISS %: 7.1762  AVERAGE MISS PENALTY: 180.512
LLC3 RFO       ACCESS: 44869  HIT: 44456  MISS:   413  HIT %: 99.0795  MISS %: 0.920457  AVERAGE MISS PENALTY: 181.678
LLC3 PREFETCH  ACCESS: 371763  HIT: 201752  MISS: 170011  HIT %: 54.269  MISS %: 45.731  AVERAGE MISS PENALTY: 119.993
LLC3 WRITEBACK ACCESS: 79001  HIT: 77979  MISS:  1022  HIT %: 98.7063  MISS %: 1.29365  AVERAGE MISS PENALTY: 0
LLC3 PREFETCH  REQUESTED:     0  ISSUED:     0  USEFUL: 25672  USELESS: 144883
 USEFUL LOAD PREFETCHES:      25672 PREFETCH ISSUED TO LOWER LEVEL:     170011  ACCURACY: 15.1002
 TIMELY PREFETCHES:      25672 LATE PREFETCHES: 0 DROPPED PREFETCHES: 0
LLC3 AVERAGE MISS LATENCY: 126.191 cycles
LLC4 TOTAL     ACCESS: 795600  HIT: 603205  MISS: 192395  HIT %: 75.8176  MISS %: 24.1824  AVERAGE MISS PENALTY: 124.713
LLC4 LOAD      ACCESS: 298635  HIT: 278821  MISS: 19814  HIT %: 93.3651  MISS %: 6.63486  AVERAGE MISS PENALTY: 186.264
LLC4 RFO       ACCESS: 48261  HIT: 47829  MISS:   432  HIT %: 99.1049  MISS %: 0.895133  AVERAGE MISS PENALTY: 181.931
LLC4 PREFETCH  ACCESS: 367567  HIT: 196452  MISS: 171115  HIT %: 53.4466  MISS %: 46.5534  AVERAGE MISS PENALTY: 118.195
LLC4 WRITEBACK ACCESS: 81137  HIT: 80103  MISS:  1034  HIT %: 98.7256  MISS %: 1.27439  AVERAGE MISS PENALTY: 0
LLC4 PREFETCH  REQUESTED:     0  ISSUED:     0  USEFUL: 25482  USELESS: 146068
 USEFUL LOAD PREFETCHES:      25482 PREFETCH ISSUED TO LOWER LEVEL:     171115  ACCURACY: 14.8917
 TIMELY PREFETCHES:      25482 LATE PREFETCHES: 0 DROPPED PREFETCHES: 0
LLC4 AVERAGE MISS LATENCY: 124.713 cycles
LLC5 TOTAL     ACCESS: 794053  HIT: 601866  MISS: 192187  HIT %: 75.7967  MISS %: 24.2033  AVERAGE MISS PENALTY: 123.593
LLC5 LOAD      ACCESS: 291291  HIT: 272770  MISS: 18521  HIT %: 93.6418  MISS %: 6.35825  AVERAGE MISS PENALTY: 188.511
LLC5 RFO       ACCESS: 47445  HIT: 47027  MISS:   418  HIT %: 99.119  MISS %: 0.88102  AVERAGE MISS PENALTY: 179.402
LLC5 PREFETCH  ACCESS: 373217  HIT: 200977  MISS: 172240  HIT %: 53.8499  MISS %: 46.1501  AVERAGE MISS PENALTY: 117.201
LLC5 WRITEBACK ACCESS: 82100  HIT: 81092  MISS:  1008  HIT %: 98.7722  MISS %: 1.22777  AVERAGE MISS PENALTY: 0
LLC5 PREFETCH  REQUESTED:     0  ISSUED:     0  USEFUL: 26802  USELESS: 145770
 USEFUL LOAD PREFETCHES:      26802 PREFETCH ISSUED TO LOWER LEVEL:     172240  ACCURACY: 15.5608
 TIMELY PREFETCHES:      26802 LATE PREFETCHES: 0 DROPPED PREFETCHES: 0
LLC5 AVERAGE MISS LATENCY: 123.593 cycles
LLC6 TOTAL     ACCESS: 796676  HIT: 604203  MISS: 192473  HIT %: 75.8405  MISS %: 24.1595  AVERAGE MISS PENALTY: 124.118
LLC6 LOAD      ACCESS: 295893  HIT: 277422  MISS: 18471  HIT %: 93.7575  MISS %: 6.24246  AVERAGE MISS PENALTY: 190.393
LLC6 RFO       ACCESS: 47167  HIT: 46752  MISS:   415  HIT %: 99.1201  MISS %: 0.879852  AVERAGE MISS PENALTY: 179.561
LLC6 PREFETCH  ACCESS: 374332  HIT: 201809  MISS: 172523  HIT %: 53.9118  MISS %: 46.0882  AVERAGE MISS PENALTY: 117.655
LLC6 WRITEBACK ACCESS: 79284  HIT: 78220  MISS:  1064  HIT %: 98.658  MISS %: 1.34201  AVERAGE MISS PENALTY: 0
LLC6 PREFETCH  REQUESTED:     0  ISSUED:     0  USEFUL: 26265  USELESS: 146594
 USEFUL LOAD PREFETCHES:      26265 PREFETCH ISSUED TO LOWER LEVEL:     172523  ACCURACY: 15.2241
 TIMELY PREFETCHES:      26265 LATE PREFETCHES: 0 DROPPED PREFETCHES: 0
LLC6 AVERAGE MISS LATENCY: 124.118 cycles
LLC7 TOTAL     ACCESS: 798028  HIT: 605501  MISS: 192527  HIT %: 75.8747  MISS %: 24.1253  AVERAGE MISS PENALTY: 124.051
LLC7 LOAD      ACCESS: 294237  HIT: 276315  MISS: 17922  HIT %: 93.909  MISS %: 6.09101  AVERAGE MISS PENALTY: 190.331
LLC7 RFO       ACCESS: 46659  HIT: 46246  MISS:   413  HIT %: 99.1149  MISS %: 0.885145  AVERAGE MISS PENALTY: 181.663
LLC7 PREFETCH  ACCESS: 378887  HIT: 205748  MISS: 173139  HIT %: 54.3033  MISS %: 45.6967  AVERAGE MISS PENALTY: 117.807
LLC7 WRITEBACK ACCESS: 78245  HIT: 77192  MISS:  1053  HIT %: 98.6542  MISS %: 1.34577  AVERAGE MISS PENALTY: 0
LLC7 PREFETCH  REQUESTED:     0  ISSUED:     0  USEFUL: 26689  USELESS: 146535
 USEFUL LOAD PREFETCHES:      26689 PREFETCH ISSUED TO LOWER LEVEL:     173139  ACCURACY: 15.4148
 TIMELY PREFETCHES:      26689 LATE PREFETCHES: 0 DROPPED PREFETCHES: 0
LLC7 AVERAGE MISS LATENCY: 124.051 cycles
ROI Average ROB Stall Cycles:	8.20427
ROI Total ROB Stalls Cycles:	547611788
ROI TOTAL ROB counter      :	66747132
ROI Average Load ROB Stall Cycles:	8.74631
ROI Total Load ROB Stalls Cycle  :	164537678
ROI Total Load ROB stalls Counter:	18812235
Major fault: 0 Minor fault: 44570

