
*** ChampSim Multicore Out-of-Order Simulator ***

Warmup Instructions: 200000000
Simulation Instructions: 200000000
Number of CPUs: 1
threads:1

L1I Configuration:
L1I_SET:64
L1I_WAY:8
L1I_RQ_SIZE:64
L1I_WQ_SIZE:64
L1I_PQ_SIZE:8
L1I_MSHR_SIZE:8

L1D Configuration:
L1D_SET:64
L1D_WAY:12
L1D_RQ_SIZE:64
L1D_WQ_SIZE:64
L1D_PQ_SIZE:8
L1D_MSHR_SIZE:16

L2C Configuration:
L2C_SET:1024
L2C_WAY:8
L2C_RQ_SIZE:32
L2C_WQ_SIZE:32
L2C_PQ_SIZE:16
L2C_MSHR_SIZE:32

LLC Configuration:
LLC_SET:4096
LLC_WAY:16
LLC SLICES:8
LLC_RQ_SIZE:64
LLC_WQ_SIZE:64
LLC_PQ_SIZE:32
LLC_MSHR_SIZE:64

Interconnect OFF
Attacker deprioritize is: OFF
Off-chip DRAM Size: 4096 MB Channels: 1 Width: 64-bit Data Rate: 3200 MT/s
PAGE SIZE in KB: 4.000000 
PAGE SIZE in MB: 0.003906 
PAGE offset in bits: 12 
CEASER-S_LLC:0
MIRAGE : 1
CEASER_LATENCY:3
REMAP : OFF
Partitions : 1
Multi-Step : OFF
BFS : OFF

CPU 0 runs /home/anubhav/spec_2017/605.mcf_s-665B.champsimtrace.xz
CPU 0 Bimodal branch predictor
Initialize Hawkeye state
Initialize Hawkeye state
Initialize Hawkeye state
Initialize Hawkeye state
Initialize Hawkeye state
Initialize Hawkeye state
Initialize Hawkeye state
Initialize Hawkeye state
Heartbeat CPU 0 instructions: 10000001 cycles: 11675132 heartbeat IPC: 0.856521 cumulative IPC: 0.856521 (Simulation time: 0 hr 2 min 5 sec) 
 Total Blocks : 524288 Invalid Blocks : 396651
Heartbeat CPU 0 instructions: 20000001 cycles: 23311876 heartbeat IPC: 0.859347 cumulative IPC: 0.857932 (Simulation time: 0 hr 4 min 10 sec) 
 Total Blocks : 524288 Invalid Blocks : 321808
Heartbeat CPU 0 instructions: 30000001 cycles: 34934335 heartbeat IPC: 0.860403 cumulative IPC: 0.858754 (Simulation time: 0 hr 7 min 17 sec) 
 Total Blocks : 524288 Invalid Blocks : 265299
Heartbeat CPU 0 instructions: 40000000 cycles: 46622254 heartbeat IPC: 0.855584 cumulative IPC: 0.857959 (Simulation time: 0 hr 10 min 26 sec) 
 Total Blocks : 524288 Invalid Blocks : 217548
Heartbeat CPU 0 instructions: 50000003 cycles: 58354390 heartbeat IPC: 0.85236 cumulative IPC: 0.856834 (Simulation time: 0 hr 13 min 36 sec) 
 Total Blocks : 524288 Invalid Blocks : 180226
Heartbeat CPU 0 instructions: 60000002 cycles: 70053163 heartbeat IPC: 0.85479 cumulative IPC: 0.856492 (Simulation time: 0 hr 16 min 44 sec) 
 Total Blocks : 524288 Invalid Blocks : 148117
Heartbeat CPU 0 instructions: 70000002 cycles: 81856818 heartbeat IPC: 0.847195 cumulative IPC: 0.855152 (Simulation time: 0 hr 20 min 12 sec) 
 Total Blocks : 524288 Invalid Blocks : 122950
Heartbeat CPU 0 instructions: 80000001 cycles: 93572889 heartbeat IPC: 0.853528 cumulative IPC: 0.854949 (Simulation time: 0 hr 23 min 28 sec) 
 Total Blocks : 524288 Invalid Blocks : 101215
Heartbeat CPU 0 instructions: 90000001 cycles: 105338903 heartbeat IPC: 0.849905 cumulative IPC: 0.854385 (Simulation time: 0 hr 26 min 37 sec) 
 Total Blocks : 524288 Invalid Blocks : 83793
Heartbeat CPU 0 instructions: 100000001 cycles: 117293292 heartbeat IPC: 0.836513 cumulative IPC: 0.852564 (Simulation time: 0 hr 29 min 45 sec) 
 Total Blocks : 524288 Invalid Blocks : 72516
Heartbeat CPU 0 instructions: 110000000 cycles: 129172803 heartbeat IPC: 0.841785 cumulative IPC: 0.851572 (Simulation time: 0 hr 32 min 55 sec) 
 Total Blocks : 524288 Invalid Blocks : 62675
Heartbeat CPU 0 instructions: 120000000 cycles: 141107328 heartbeat IPC: 0.837905 cumulative IPC: 0.850416 (Simulation time: 0 hr 36 min 2 sec) 
 Total Blocks : 524288 Invalid Blocks : 54053
Heartbeat CPU 0 instructions: 130000001 cycles: 153012984 heartbeat IPC: 0.839937 cumulative IPC: 0.849601 (Simulation time: 0 hr 39 min 18 sec) 
 Total Blocks : 524288 Invalid Blocks : 46768
Heartbeat CPU 0 instructions: 140000001 cycles: 165004730 heartbeat IPC: 0.833907 cumulative IPC: 0.848461 (Simulation time: 0 hr 42 min 38 sec) 
 Total Blocks : 524288 Invalid Blocks : 40369
Heartbeat CPU 0 instructions: 150000000 cycles: 177016471 heartbeat IPC: 0.832519 cumulative IPC: 0.847379 (Simulation time: 0 hr 45 min 50 sec) 
 Total Blocks : 524288 Invalid Blocks : 35078
Heartbeat CPU 0 instructions: 160000000 cycles: 188972932 heartbeat IPC: 0.836368 cumulative IPC: 0.846682 (Simulation time: 0 hr 49 min 24 sec) 
 Total Blocks : 524288 Invalid Blocks : 30568
Heartbeat CPU 0 instructions: 170000003 cycles: 201034174 heartbeat IPC: 0.829102 cumulative IPC: 0.845627 (Simulation time: 0 hr 52 min 43 sec) 
 Total Blocks : 524288 Invalid Blocks : 26406
Heartbeat CPU 0 instructions: 180000002 cycles: 213126513 heartbeat IPC: 0.82697 cumulative IPC: 0.844569 (Simulation time: 0 hr 56 min 6 sec) 
 Total Blocks : 524288 Invalid Blocks : 23068
Heartbeat CPU 0 instructions: 190000001 cycles: 225084506 heartbeat IPC: 0.836261 cumulative IPC: 0.844127 (Simulation time: 0 hr 59 min 32 sec) 
 Total Blocks : 524288 Invalid Blocks : 19938
Heartbeat CPU 0 instructions: 200000000 cycles: 237031304 heartbeat IPC: 0.837044 cumulative IPC: 0.84377 (Simulation time: 1 hr 3 min 12 sec) 
 Total Blocks : 524288 Invalid Blocks : 17180

Warmup complete CPU 0 instructions: 200000003 cycles: 237031305 (Simulation time: 1 hr 3 min 12 sec) 

Heartbeat CPU 0 instructions: 210000002 cycles: 270957336 heartbeat IPC: 0.294759 cumulative IPC: 0.294759 (Simulation time: 1 hr 10 min 39 sec) 
 Total Blocks : 524288 Invalid Blocks : 14805
Heartbeat CPU 0 instructions: 220000000 cycles: 304572353 heartbeat IPC: 0.297486 cumulative IPC: 0.296116 (Simulation time: 1 hr 17 min 40 sec) 
 Total Blocks : 524288 Invalid Blocks : 12895
Heartbeat CPU 0 instructions: 230000002 cycles: 338583564 heartbeat IPC: 0.294021 cumulative IPC: 0.295414 (Simulation time: 1 hr 24 min 58 sec) 
 Total Blocks : 524288 Invalid Blocks : 11057
Heartbeat CPU 0 instructions: 240000002 cycles: 372296524 heartbeat IPC: 0.296622 cumulative IPC: 0.295715 (Simulation time: 1 hr 31 min 58 sec) 
 Total Blocks : 524288 Invalid Blocks : 9720
Heartbeat CPU 0 instructions: 250000001 cycles: 406113405 heartbeat IPC: 0.29571 cumulative IPC: 0.295714 (Simulation time: 1 hr 38 min 46 sec) 
 Total Blocks : 524288 Invalid Blocks : 8430
Heartbeat CPU 0 instructions: 260000003 cycles: 440068113 heartbeat IPC: 0.29451 cumulative IPC: 0.295513 (Simulation time: 1 hr 45 min 33 sec) 
 Total Blocks : 524288 Invalid Blocks : 7353
Heartbeat CPU 0 instructions: 270000003 cycles: 473981235 heartbeat IPC: 0.294871 cumulative IPC: 0.295421 (Simulation time: 1 hr 52 min 15 sec) 
 Total Blocks : 524288 Invalid Blocks : 6412
Heartbeat CPU 0 instructions: 280000000 cycles: 507994071 heartbeat IPC: 0.294007 cumulative IPC: 0.295244 (Simulation time: 1 hr 59 min 5 sec) 
 Total Blocks : 524288 Invalid Blocks : 5570
Heartbeat CPU 0 instructions: 290000001 cycles: 541910577 heartbeat IPC: 0.294842 cumulative IPC: 0.295199 (Simulation time: 2 hr 5 min 33 sec) 
 Total Blocks : 524288 Invalid Blocks : 4901
Heartbeat CPU 0 instructions: 300000000 cycles: 575593596 heartbeat IPC: 0.296885 cumulative IPC: 0.295367 (Simulation time: 2 hr 11 min 56 sec) 
 Total Blocks : 524288 Invalid Blocks : 4305
Heartbeat CPU 0 instructions: 310000001 cycles: 608651712 heartbeat IPC: 0.302498 cumulative IPC: 0.296001 (Simulation time: 2 hr 18 min 30 sec) 
 Total Blocks : 524288 Invalid Blocks : 3816
Heartbeat CPU 0 instructions: 320000000 cycles: 642082965 heartbeat IPC: 0.299121 cumulative IPC: 0.296259 (Simulation time: 2 hr 24 min 52 sec) 
 Total Blocks : 524288 Invalid Blocks : 3344
Heartbeat CPU 0 instructions: 330000000 cycles: 675263899 heartbeat IPC: 0.301378 cumulative IPC: 0.296646 (Simulation time: 2 hr 31 min 5 sec) 
 Total Blocks : 524288 Invalid Blocks : 2952
Heartbeat CPU 0 instructions: 340000002 cycles: 708327610 heartbeat IPC: 0.302446 cumulative IPC: 0.297053 (Simulation time: 2 hr 36 min 42 sec) 
 Total Blocks : 524288 Invalid Blocks : 2592
Heartbeat CPU 0 instructions: 350000002 cycles: 741489468 heartbeat IPC: 0.301551 cumulative IPC: 0.297349 (Simulation time: 2 hr 41 min 52 sec) 
 Total Blocks : 524288 Invalid Blocks : 2272
Heartbeat CPU 0 instructions: 360000003 cycles: 774647609 heartbeat IPC: 0.301585 cumulative IPC: 0.29761 (Simulation time: 2 hr 46 min 32 sec) 
 Total Blocks : 524288 Invalid Blocks : 2032
Heartbeat CPU 0 instructions: 370000001 cycles: 807814319 heartbeat IPC: 0.301507 cumulative IPC: 0.297836 (Simulation time: 2 hr 51 min 9 sec) 
 Total Blocks : 524288 Invalid Blocks : 1782
Heartbeat CPU 0 instructions: 380000000 cycles: 841089826 heartbeat IPC: 0.300521 cumulative IPC: 0.297984 (Simulation time: 2 hr 55 min 45 sec) 
 Total Blocks : 524288 Invalid Blocks : 1549
Heartbeat CPU 0 instructions: 390000002 cycles: 874259399 heartbeat IPC: 0.301481 cumulative IPC: 0.298166 (Simulation time: 3 hr 0 min 14 sec) 
 Total Blocks : 524288 Invalid Blocks : 1366
Heartbeat CPU 0 instructions: 400000003 cycles: 907394395 heartbeat IPC: 0.301796 cumulative IPC: 0.298346 (Simulation time: 3 hr 3 min 16 sec) 
 Total Blocks : 524288 Invalid Blocks : 1201
Finished CPU 0 instructions: 200000000 cycles: 670363090 cumulative IPC: 0.298346 (Simulation time: 3 hr 3 min 16 sec) 

CPU 0 Branch Prediction Accuracy: 85.1426% MPKI: 28.3064 Average ROB Occupancy at Mispredict: 34.7495

ChampSim completed all CPUs

Region of Interest Statistics

CPU 0 cumulative IPC: 0.298346 instructions: 200000000 cycles: 670363090
ITLB TOTAL     ACCESS: 31838383  HIT: 31838383  MISS:     0  HIT %:   100  MISS %:     0  AVERAGE MISS PENALTY: 0
ITLB LOAD      ACCESS: 31838383  HIT: 31838383  MISS:     0  HIT %:   100  MISS %:     0  AVERAGE MISS PENALTY: 0
ITLB RFO       ACCESS:     0  HIT:     0  MISS:     0  HIT %:     0  MISS %:     0  AVERAGE MISS PENALTY: 0
ITLB PREFETCH  ACCESS:     0  HIT:     0  MISS:     0  HIT %:     0  MISS %:     0  AVERAGE MISS PENALTY: 0
ITLB WRITEBACK ACCESS:     0  HIT:     0  MISS:     0  HIT %:     0  MISS %:     0  AVERAGE MISS PENALTY: 0
ITLB PREFETCH  REQUESTED:     0  ISSUED:     0  USEFUL:     0  USELESS:     0
 USEFUL LOAD PREFETCHES:          0 PREFETCH ISSUED TO LOWER LEVEL:          0  ACCURACY: -nan
 TIMELY PREFETCHES:          0 LATE PREFETCHES: 0 DROPPED PREFETCHES: 0
ITLB AVERAGE MISS LATENCY: -nan cycles
DTLB TOTAL     ACCESS: 60462779  HIT: 57764861  MISS: 2697918  HIT %: 95.5379  MISS %: 4.46211  AVERAGE MISS PENALTY: 10.6545
DTLB LOAD      ACCESS: 46175038  HIT: 43867373  MISS: 2307665  HIT %: 95.0024  MISS %: 4.99765  AVERAGE MISS PENALTY: 10.8442
DTLB RFO       ACCESS: 14287741  HIT: 13897488  MISS: 390253  HIT %: 97.2686  MISS %: 2.73138  AVERAGE MISS PENALTY: 9.53263
DTLB PREFETCH  ACCESS:     0  HIT:     0  MISS:     0  HIT %:     0  MISS %:     0  AVERAGE MISS PENALTY: 0
DTLB WRITEBACK ACCESS:     0  HIT:     0  MISS:     0  HIT %:     0  MISS %:     0  AVERAGE MISS PENALTY: 0
DTLB PREFETCH  REQUESTED:     0  ISSUED:     0  USEFUL:     0  USELESS:     0
 USEFUL LOAD PREFETCHES:          0 PREFETCH ISSUED TO LOWER LEVEL:          0  ACCURACY: -nan
 TIMELY PREFETCHES:          0 LATE PREFETCHES: 0 DROPPED PREFETCHES: 0
DTLB AVERAGE MISS LATENCY: 10.6545 cycles
STLB TOTAL     ACCESS: 2697918  HIT: 2663570  MISS: 34348  HIT %: 98.7269  MISS %: 1.27313  AVERAGE MISS PENALTY: 100
STLB LOAD      ACCESS: 2307665  HIT: 2273827  MISS: 33838  HIT %: 98.5337  MISS %: 1.46633  AVERAGE MISS PENALTY: 100
STLB RFO       ACCESS: 390253  HIT: 389743  MISS:   510  HIT %: 99.8693  MISS %: 0.130684  AVERAGE MISS PENALTY: 100
STLB PREFETCH  ACCESS:     0  HIT:     0  MISS:     0  HIT %:     0  MISS %:     0  AVERAGE MISS PENALTY: 0
STLB WRITEBACK ACCESS:     0  HIT:     0  MISS:     0  HIT %:     0  MISS %:     0  AVERAGE MISS PENALTY: 0
STLB PREFETCH  REQUESTED:     0  ISSUED:     0  USEFUL:     0  USELESS:     0
 USEFUL LOAD PREFETCHES:          0 PREFETCH ISSUED TO LOWER LEVEL:          0  ACCURACY: -nan
 TIMELY PREFETCHES:          0 LATE PREFETCHES: 0 DROPPED PREFETCHES: 0
STLB AVERAGE MISS LATENCY: 100 cycles
L1D TOTAL     ACCESS: 105340585  HIT: 94562502  MISS: 10778083  HIT %: 89.7683  MISS %: 10.2317  AVERAGE MISS PENALTY: 2.01866e+06
L1D LOAD      ACCESS: 57146671  HIT: 52150207  MISS: 4996464  HIT %: 91.2568  MISS %: 8.74323  AVERAGE MISS PENALTY: 4.24182e+06
L1D RFO       ACCESS: 22757710  HIT: 22017655  MISS: 740055  HIT %: 96.7481  MISS %: 3.25189  AVERAGE MISS PENALTY: 760818
L1D PREFETCH  ACCESS: 25436204  HIT: 20394640  MISS: 5041564  HIT %: 80.1796  MISS %: 19.8204  AVERAGE MISS PENALTY: 32.6287
L1D WRITEBACK ACCESS:     0  HIT:     0  MISS:     0  HIT %:     0  MISS %:     0  AVERAGE MISS PENALTY: 0
L1D PREFETCH  REQUESTED: 28513962  ISSUED: 27989830  USEFUL: 1786627  USELESS: 3254919
 USEFUL LOAD PREFETCHES:    1786627 PREFETCH ISSUED TO LOWER LEVEL:    5636180  ACCURACY: 31.6993
 TIMELY PREFETCHES:    1786627 LATE PREFETCHES: 163710 DROPPED PREFETCHES: 524132
L1D AVERAGE MISS LATENCY: 52272.5 cycles
L1I TOTAL     ACCESS: 42717207  HIT: 42717207  MISS:     0  HIT %:   100  MISS %:     0  AVERAGE MISS PENALTY: 0
L1I LOAD      ACCESS: 42717207  HIT: 42717207  MISS:     0  HIT %:   100  MISS %:     0  AVERAGE MISS PENALTY: 0
L1I RFO       ACCESS:     0  HIT:     0  MISS:     0  HIT %:     0  MISS %:     0  AVERAGE MISS PENALTY: 0
L1I PREFETCH  ACCESS:     0  HIT:     0  MISS:     0  HIT %:     0  MISS %:     0  AVERAGE MISS PENALTY: 0
L1I WRITEBACK ACCESS:     0  HIT:     0  MISS:     0  HIT %:     0  MISS %:     0  AVERAGE MISS PENALTY: 0
L1I PREFETCH  REQUESTED:     0  ISSUED:     0  USEFUL:     0  USELESS:     0
 USEFUL LOAD PREFETCHES:          0 PREFETCH ISSUED TO LOWER LEVEL:          0  ACCURACY: -nan
 TIMELY PREFETCHES:          0 LATE PREFETCHES: 0 DROPPED PREFETCHES: 0
L1I AVERAGE MISS LATENCY: -nan cycles
L2C TOTAL     ACCESS: 16876603  HIT: 11599423  MISS: 5277180  HIT %: 68.7308  MISS %: 31.2692  AVERAGE MISS PENALTY: 811194
L2C LOAD      ACCESS: 4985094  HIT: 2602854  MISS: 2382240  HIT %: 52.2127  MISS %: 47.7873  AVERAGE MISS PENALTY: 1.7922e+06
L2C RFO       ACCESS: 739016  HIT: 389273  MISS: 349743  HIT %: 52.6745  MISS %: 47.3255  AVERAGE MISS PENALTY: 31854.2
L2C PREFETCH  ACCESS: 9962299  HIT: 7417633  MISS: 2544666  HIT %: 74.457  MISS %: 25.543  AVERAGE MISS PENALTY: 91.414
L2C WRITEBACK ACCESS: 1190194  HIT: 1189663  MISS:   531  HIT %: 99.9554  MISS %: 0.0446146  AVERAGE MISS PENALTY: 0
L2C PREFETCH  REQUESTED: 8842702  ISSUED: 8776072  USEFUL: 421913  USELESS: 2123133
 USEFUL LOAD PREFETCHES:     421913 PREFETCH ISSUED TO LOWER LEVEL:    2738021  ACCURACY: 15.4094
 TIMELY PREFETCHES:     421913 LATE PREFETCHES: 46071 DROPPED PREFETCHES: 66630
L2C AVERAGE MISS LATENCY: 67.6139 cycles
LLC0 TOTAL     ACCESS: 721855  HIT: 550655  MISS: 171200  HIT %: 76.2833  MISS %: 23.7167  AVERAGE MISS PENALTY: 114.253
LLC0 LOAD      ACCESS: 312612  HIT: 284264  MISS: 28348  HIT %: 90.9319  MISS %: 9.06811  AVERAGE MISS PENALTY: 134.535
LLC0 RFO       ACCESS: 44127  HIT: 43959  MISS:   168  HIT %: 99.6193  MISS %: 0.380719  AVERAGE MISS PENALTY: 179.893
LLC0 PREFETCH  ACCESS: 291346  HIT: 149105  MISS: 142241  HIT %: 51.178  MISS %: 48.822  AVERAGE MISS PENALTY: 110.49
LLC0 WRITEBACK ACCESS: 73770  HIT: 73327  MISS:   443  HIT %: 99.3995  MISS %: 0.600515  AVERAGE MISS PENALTY: 0
LLC0 PREFETCH  REQUESTED:     0  ISSUED:     0  USEFUL: 19642  USELESS: 121359
 USEFUL LOAD PREFETCHES:      19642 PREFETCH ISSUED TO LOWER LEVEL:     142241  ACCURACY: 13.809
 TIMELY PREFETCHES:      19642 LATE PREFETCHES: 0 DROPPED PREFETCHES: 0
LLC0 AVERAGE MISS LATENCY: 114.253 cycles
Deadblocks : 23219 Deadblock percentage : 81.907

LLC1 TOTAL     ACCESS: 730723  HIT: 559088  MISS: 171635  HIT %: 76.5116  MISS %: 23.4884  AVERAGE MISS PENALTY: 115.35
LLC1 LOAD      ACCESS: 304544  HIT: 284428  MISS: 20116  HIT %: 93.3947  MISS %: 6.60529  AVERAGE MISS PENALTY: 148.298
LLC1 RFO       ACCESS: 40240  HIT: 40040  MISS:   200  HIT %: 99.503  MISS %: 0.497018  AVERAGE MISS PENALTY: 185.95
LLC1 PREFETCH  ACCESS: 313586  HIT: 162721  MISS: 150865  HIT %: 51.8904  MISS %: 48.1096  AVERAGE MISS PENALTY: 111.21
LLC1 WRITEBACK ACCESS: 72353  HIT: 71899  MISS:   454  HIT %: 99.3725  MISS %: 0.627479  AVERAGE MISS PENALTY: 0
LLC1 PREFETCH  REQUESTED:     0  ISSUED:     0  USEFUL: 22603  USELESS: 129299
 USEFUL LOAD PREFETCHES:      22603 PREFETCH ISSUED TO LOWER LEVEL:     150865  ACCURACY: 14.9823
 TIMELY PREFETCHES:      22603 LATE PREFETCHES: 0 DROPPED PREFETCHES: 0
LLC1 AVERAGE MISS LATENCY: 115.35 cycles
LLC2 TOTAL     ACCESS: 728886  HIT: 557142  MISS: 171744  HIT %: 76.4375  MISS %: 23.5625  AVERAGE MISS PENALTY: 115.869
LLC2 LOAD      ACCESS: 294628  HIT: 279063  MISS: 15565  HIT %: 94.7171  MISS %: 5.28293  AVERAGE MISS PENALTY: 160.541
LLC2 RFO       ACCESS: 42590  HIT: 42395  MISS:   195  HIT %: 99.5421  MISS %: 0.457854  AVERAGE MISS PENALTY: 182.333
LLC2 PREFETCH  ACCESS: 320964  HIT: 165437  MISS: 155527  HIT %: 51.5438  MISS %: 48.4562  AVERAGE MISS PENALTY: 111.655
LLC2 WRITEBACK ACCESS: 70704  HIT: 70247  MISS:   457  HIT %: 99.3536  MISS %: 0.646357  AVERAGE MISS PENALTY: 0
LLC2 PREFETCH  REQUESTED:     0  ISSUED:     0  USEFUL: 21413  USELESS: 133901
 USEFUL LOAD PREFETCHES:      21413 PREFETCH ISSUED TO LOWER LEVEL:     155527  ACCURACY: 13.768
 TIMELY PREFETCHES:      21413 LATE PREFETCHES: 0 DROPPED PREFETCHES: 0
LLC2 AVERAGE MISS LATENCY: 115.869 cycles
LLC3 TOTAL     ACCESS: 737509  HIT: 566008  MISS: 171501  HIT %: 76.7459  MISS %: 23.2541  AVERAGE MISS PENALTY: 113.045
LLC3 LOAD      ACCESS: 295096  HIT: 282322  MISS: 12774  HIT %: 95.6712  MISS %: 4.32876  AVERAGE MISS PENALTY: 170.656
LLC3 RFO       ACCESS: 42827  HIT: 42625  MISS:   202  HIT %: 99.5283  MISS %: 0.471665  AVERAGE MISS PENALTY: 184.629
LLC3 PREFETCH  ACCESS: 323399  HIT: 165327  MISS: 158072  HIT %: 51.1217  MISS %: 48.8783  AVERAGE MISS PENALTY: 108.622
LLC3 WRITEBACK ACCESS: 76187  HIT: 75734  MISS:   453  HIT %: 99.4054  MISS %: 0.59459  AVERAGE MISS PENALTY: 0
LLC3 PREFETCH  REQUESTED:     0  ISSUED:     0  USEFUL: 22126  USELESS: 135248
 USEFUL LOAD PREFETCHES:      22126 PREFETCH ISSUED TO LOWER LEVEL:     158072  ACCURACY: 13.9974
 TIMELY PREFETCHES:      22126 LATE PREFETCHES: 0 DROPPED PREFETCHES: 0
LLC3 AVERAGE MISS LATENCY: 113.045 cycles
LLC4 TOTAL     ACCESS: 739265  HIT: 567703  MISS: 171562  HIT %: 76.7929  MISS %: 23.2071  AVERAGE MISS PENALTY: 111.877
LLC4 LOAD      ACCESS: 295562  HIT: 284306  MISS: 11256  HIT %: 96.1917  MISS %: 3.80834  AVERAGE MISS PENALTY: 179.605
LLC4 RFO       ACCESS: 45981  HIT: 45747  MISS:   234  HIT %: 99.4911  MISS %: 0.508906  AVERAGE MISS PENALTY: 183.718
LLC4 PREFETCH  ACCESS: 319642  HIT: 160066  MISS: 159576  HIT %: 50.0766  MISS %: 49.9234  AVERAGE MISS PENALTY: 107.342
LLC4 WRITEBACK ACCESS: 78080  HIT: 77584  MISS:   496  HIT %: 99.3648  MISS %: 0.635246  AVERAGE MISS PENALTY: 0
LLC4 PREFETCH  REQUESTED:     0  ISSUED:     0  USEFUL: 22022  USELESS: 136668
 USEFUL LOAD PREFETCHES:      22022 PREFETCH ISSUED TO LOWER LEVEL:     159576  ACCURACY: 13.8003
 TIMELY PREFETCHES:      22022 LATE PREFETCHES: 0 DROPPED PREFETCHES: 0
LLC4 AVERAGE MISS LATENCY: 111.877 cycles
LLC5 TOTAL     ACCESS: 737488  HIT: 566067  MISS: 171421  HIT %: 76.7561  MISS %: 23.2439  AVERAGE MISS PENALTY: 111.082
LLC5 LOAD      ACCESS: 288737  HIT: 278542  MISS: 10195  HIT %: 96.4691  MISS %: 3.53089  AVERAGE MISS PENALTY: 185.475
LLC5 RFO       ACCESS: 45187  HIT: 44986  MISS:   201  HIT %: 99.5552  MISS %: 0.444818  AVERAGE MISS PENALTY: 185.075
LLC5 PREFETCH  ACCESS: 324441  HIT: 163888  MISS: 160553  HIT %: 50.514  MISS %: 49.486  AVERAGE MISS PENALTY: 106.593
LLC5 WRITEBACK ACCESS: 79123  HIT: 78651  MISS:   472  HIT %: 99.4035  MISS %: 0.59654  AVERAGE MISS PENALTY: 0
LLC5 PREFETCH  REQUESTED:     0  ISSUED:     0  USEFUL: 23379  USELESS: 136082
 USEFUL LOAD PREFETCHES:      23379 PREFETCH ISSUED TO LOWER LEVEL:     160553  ACCURACY: 14.5615
 TIMELY PREFETCHES:      23379 LATE PREFETCHES: 0 DROPPED PREFETCHES: 0
LLC5 AVERAGE MISS LATENCY: 111.082 cycles
LLC6 TOTAL     ACCESS: 740188  HIT: 568596  MISS: 171592  HIT %: 76.8178  MISS %: 23.1822  AVERAGE MISS PENALTY: 111.448
LLC6 LOAD      ACCESS: 293592  HIT: 283590  MISS: 10002  HIT %: 96.5932  MISS %: 3.40677  AVERAGE MISS PENALTY: 187.303
LLC6 RFO       ACCESS: 44641  HIT: 44420  MISS:   221  HIT %: 99.5049  MISS %: 0.495061  AVERAGE MISS PENALTY: 183.014
LLC6 PREFETCH  ACCESS: 326001  HIT: 165119  MISS: 160882  HIT %: 50.6498  MISS %: 49.3502  AVERAGE MISS PENALTY: 106.971
LLC6 WRITEBACK ACCESS: 75954  HIT: 75467  MISS:   487  HIT %: 99.3588  MISS %: 0.641178  AVERAGE MISS PENALTY: 0
LLC6 PREFETCH  REQUESTED:     0  ISSUED:     0  USEFUL: 22733  USELESS: 137111
 USEFUL LOAD PREFETCHES:      22733 PREFETCH ISSUED TO LOWER LEVEL:     160882  ACCURACY: 14.1302
 TIMELY PREFETCHES:      22733 LATE PREFETCHES: 0 DROPPED PREFETCHES: 0
LLC6 AVERAGE MISS LATENCY: 111.448 cycles
LLC7 TOTAL     ACCESS: 741687  HIT: 570019  MISS: 171668  HIT %: 76.8544  MISS %: 23.1456  AVERAGE MISS PENALTY: 111.513
LLC7 LOAD      ACCESS: 291775  HIT: 282135  MISS:  9640  HIT %: 96.6961  MISS %: 3.30392  AVERAGE MISS PENALTY: 188.907
LLC7 RFO       ACCESS: 44103  HIT: 43905  MISS:   198  HIT %: 99.5511  MISS %: 0.448949  AVERAGE MISS PENALTY: 179.712
LLC7 PREFETCH  ACCESS: 330976  HIT: 169648  MISS: 161328  HIT %: 51.2569  MISS %: 48.7431  AVERAGE MISS PENALTY: 107.152
LLC7 WRITEBACK ACCESS: 74833  HIT: 74331  MISS:   502  HIT %: 99.3292  MISS %: 0.670827  AVERAGE MISS PENALTY: 0
LLC7 PREFETCH  REQUESTED:     0  ISSUED:     0  USEFUL: 23212  USELESS: 136551
 USEFUL LOAD PREFETCHES:      23212 PREFETCH ISSUED TO LOWER LEVEL:     161328  ACCURACY: 14.3881
 TIMELY PREFETCHES:      23212 LATE PREFETCHES: 0 DROPPED PREFETCHES: 0
LLC7 AVERAGE MISS LATENCY: 111.513 cycles
ROI Average ROB Stall Cycles:	8.12237
ROI Total ROB Stalls Cycles:	541962284
ROI TOTAL ROB counter      :	66724620
ROI Average Load ROB Stall Cycles:	8.50175
ROI Total Load ROB Stalls Cycle  :	159875705
ROI Total Load ROB stalls Counter:	18805035
Major fault: 0 Minor fault: 44570

