
*** ChampSim Multicore Out-of-Order Simulator ***

Warmup Instructions: 200000000
Simulation Instructions: 200000000
Number of CPUs: 1
threads:1

L1I Configuration:
L1I_SET:64
L1I_WAY:8
L1I_RQ_SIZE:64
L1I_WQ_SIZE:64
L1I_PQ_SIZE:8
L1I_MSHR_SIZE:8

L1D Configuration:
L1D_SET:64
L1D_WAY:12
L1D_RQ_SIZE:64
L1D_WQ_SIZE:64
L1D_PQ_SIZE:8
L1D_MSHR_SIZE:16

L2C Configuration:
L2C_SET:1024
L2C_WAY:8
L2C_RQ_SIZE:32
L2C_WQ_SIZE:32
L2C_PQ_SIZE:16
L2C_MSHR_SIZE:32

LLC Configuration:
LLC_SET:2048
LLC_WAY:16
LLC SLICES:8
LLC_RQ_SIZE:64
LLC_WQ_SIZE:64
LLC_PQ_SIZE:32
LLC_MSHR_SIZE:64

Interconnect OFF
Attacker deprioritize is: OFF
Off-chip DRAM Size: 4096 MB Channels: 1 Width: 64-bit Data Rate: 3200 MT/s
PAGE SIZE in KB: 4.000000 
PAGE SIZE in MB: 0.003906 
PAGE offset in bits: 12 
CEASER-S_LLC:0
MIRAGE : 1
CEASER_LATENCY:3
REMAP : OFF
Partitions : 1
Multi-Step : OFF
BFS : OFF

CPU 0 runs /home/anubhav/spec_2017/607.cactuBSSN_s-2421B.champsimtrace.xz
CPU 0 Bimodal branch predictor
Initialize Hawkeye state
Initialize Hawkeye state
Initialize Hawkeye state
Initialize Hawkeye state
Initialize Hawkeye state
Initialize Hawkeye state
Initialize Hawkeye state
Initialize Hawkeye state
Heartbeat CPU 0 instructions: 10000001 cycles: 5480284 heartbeat IPC: 1.82472 cumulative IPC: 1.82472 (Simulation time: 0 hr 2 min 15 sec) 
 Total Blocks : 262144 Invalid Blocks : 231489
Heartbeat CPU 0 instructions: 20000000 cycles: 10969911 heartbeat IPC: 1.82162 cumulative IPC: 1.82317 (Simulation time: 0 hr 4 min 25 sec) 
 Total Blocks : 262144 Invalid Blocks : 209135
Heartbeat CPU 0 instructions: 30000001 cycles: 16449136 heartbeat IPC: 1.82508 cumulative IPC: 1.8238 (Simulation time: 0 hr 6 min 40 sec) 
 Total Blocks : 262144 Invalid Blocks : 189058
Heartbeat CPU 0 instructions: 40000000 cycles: 21928817 heartbeat IPC: 1.82492 cumulative IPC: 1.82408 (Simulation time: 0 hr 8 min 56 sec) 
 Total Blocks : 262144 Invalid Blocks : 170977
Heartbeat CPU 0 instructions: 50000003 cycles: 27409031 heartbeat IPC: 1.82475 cumulative IPC: 1.82422 (Simulation time: 0 hr 11 min 11 sec) 
 Total Blocks : 262144 Invalid Blocks : 154343
Heartbeat CPU 0 instructions: 60000003 cycles: 31645465 heartbeat IPC: 2.36048 cumulative IPC: 1.89601 (Simulation time: 0 hr 13 min 5 sec) 
 Total Blocks : 262144 Invalid Blocks : 117137
Heartbeat CPU 0 instructions: 70000000 cycles: 35522341 heartbeat IPC: 2.5794 cumulative IPC: 1.97059 (Simulation time: 0 hr 15 min 2 sec) 
 Total Blocks : 262144 Invalid Blocks : 87113
Heartbeat CPU 0 instructions: 80000002 cycles: 39399504 heartbeat IPC: 2.57921 cumulative IPC: 2.03048 (Simulation time: 0 hr 16 min 56 sec) 
 Total Blocks : 262144 Invalid Blocks : 64676
Heartbeat CPU 0 instructions: 90000003 cycles: 43279499 heartbeat IPC: 2.57732 cumulative IPC: 2.07951 (Simulation time: 0 hr 18 min 50 sec) 
 Total Blocks : 262144 Invalid Blocks : 48128
Heartbeat CPU 0 instructions: 100000001 cycles: 47158334 heartbeat IPC: 2.57809 cumulative IPC: 2.12052 (Simulation time: 0 hr 20 min 48 sec) 
 Total Blocks : 262144 Invalid Blocks : 35954
Heartbeat CPU 0 instructions: 110000000 cycles: 51035908 heartbeat IPC: 2.57893 cumulative IPC: 2.15535 (Simulation time: 0 hr 22 min 48 sec) 
 Total Blocks : 262144 Invalid Blocks : 26866
Heartbeat CPU 0 instructions: 120000000 cycles: 54912599 heartbeat IPC: 2.57952 cumulative IPC: 2.18529 (Simulation time: 0 hr 24 min 46 sec) 
 Total Blocks : 262144 Invalid Blocks : 19923
Heartbeat CPU 0 instructions: 130000001 cycles: 58790288 heartbeat IPC: 2.57886 cumulative IPC: 2.21125 (Simulation time: 0 hr 26 min 39 sec) 
 Total Blocks : 262144 Invalid Blocks : 14890
Heartbeat CPU 0 instructions: 140000002 cycles: 62670241 heartbeat IPC: 2.57735 cumulative IPC: 2.23392 (Simulation time: 0 hr 28 min 30 sec) 
 Total Blocks : 262144 Invalid Blocks : 11098
Heartbeat CPU 0 instructions: 150000000 cycles: 66547714 heartbeat IPC: 2.579 cumulative IPC: 2.25402 (Simulation time: 0 hr 30 min 26 sec) 
 Total Blocks : 262144 Invalid Blocks : 8159
Heartbeat CPU 0 instructions: 160000002 cycles: 70425185 heartbeat IPC: 2.579 cumulative IPC: 2.27191 (Simulation time: 0 hr 32 min 17 sec) 
 Total Blocks : 262144 Invalid Blocks : 6135
Heartbeat CPU 0 instructions: 170000002 cycles: 74303017 heartbeat IPC: 2.57876 cumulative IPC: 2.28793 (Simulation time: 0 hr 34 min 16 sec) 
 Total Blocks : 262144 Invalid Blocks : 4659
Heartbeat CPU 0 instructions: 180000000 cycles: 78179648 heartbeat IPC: 2.57956 cumulative IPC: 2.30239 (Simulation time: 0 hr 36 min 10 sec) 
 Total Blocks : 262144 Invalid Blocks : 3509
Heartbeat CPU 0 instructions: 190000000 cycles: 82056939 heartbeat IPC: 2.57912 cumulative IPC: 2.31547 (Simulation time: 0 hr 38 min 13 sec) 
 Total Blocks : 262144 Invalid Blocks : 2652
Heartbeat CPU 0 instructions: 200000001 cycles: 85936881 heartbeat IPC: 2.57736 cumulative IPC: 2.32729 (Simulation time: 0 hr 40 min 13 sec) 
 Total Blocks : 262144 Invalid Blocks : 1990

Warmup complete CPU 0 instructions: 200000001 cycles: 85936881 (Simulation time: 0 hr 40 min 13 sec) 

Heartbeat CPU 0 instructions: 210000002 cycles: 92362517 heartbeat IPC: 1.55627 cumulative IPC: 1.55627 (Simulation time: 0 hr 42 min 39 sec) 
 Total Blocks : 262144 Invalid Blocks : 1469
Heartbeat CPU 0 instructions: 220000000 cycles: 98807266 heartbeat IPC: 1.55165 cumulative IPC: 1.55395 (Simulation time: 0 hr 45 min 5 sec) 
 Total Blocks : 262144 Invalid Blocks : 1088
Heartbeat CPU 0 instructions: 230000001 cycles: 105247562 heartbeat IPC: 1.55272 cumulative IPC: 1.55354 (Simulation time: 0 hr 47 min 28 sec) 
 Total Blocks : 262144 Invalid Blocks : 806
Heartbeat CPU 0 instructions: 240000003 cycles: 111769906 heartbeat IPC: 1.53319 cumulative IPC: 1.54841 (Simulation time: 0 hr 49 min 54 sec) 
 Total Blocks : 262144 Invalid Blocks : 607
Heartbeat CPU 0 instructions: 250000002 cycles: 118200511 heartbeat IPC: 1.55506 cumulative IPC: 1.54973 (Simulation time: 0 hr 52 min 14 sec) 
 Total Blocks : 262144 Invalid Blocks : 444
Heartbeat CPU 0 instructions: 260000000 cycles: 124618420 heartbeat IPC: 1.55814 cumulative IPC: 1.55113 (Simulation time: 0 hr 54 min 27 sec) 
 Total Blocks : 262144 Invalid Blocks : 328
Heartbeat CPU 0 instructions: 270000002 cycles: 131042101 heartbeat IPC: 1.55674 cumulative IPC: 1.55193 (Simulation time: 0 hr 56 min 46 sec) 
 Total Blocks : 262144 Invalid Blocks : 240
Heartbeat CPU 0 instructions: 280000000 cycles: 137469502 heartbeat IPC: 1.55584 cumulative IPC: 1.55241 (Simulation time: 0 hr 59 min 13 sec) 
 Total Blocks : 262144 Invalid Blocks : 183
Heartbeat CPU 0 instructions: 290000000 cycles: 143908792 heartbeat IPC: 1.55297 cumulative IPC: 1.55248 (Simulation time: 1 hr 1 min 37 sec) 
 Total Blocks : 262144 Invalid Blocks : 131
Heartbeat CPU 0 instructions: 300000002 cycles: 150327060 heartbeat IPC: 1.55805 cumulative IPC: 1.55303 (Simulation time: 1 hr 4 min 2 sec) 
 Total Blocks : 262144 Invalid Blocks : 100
Heartbeat CPU 0 instructions: 310000000 cycles: 156747371 heartbeat IPC: 1.55756 cumulative IPC: 1.55344 (Simulation time: 1 hr 6 min 9 sec) 
 Total Blocks : 262144 Invalid Blocks : 77
Heartbeat CPU 0 instructions: 320000001 cycles: 163161469 heartbeat IPC: 1.55907 cumulative IPC: 1.55391 (Simulation time: 1 hr 8 min 18 sec) 
 Total Blocks : 262144 Invalid Blocks : 65
Heartbeat CPU 0 instructions: 330000000 cycles: 169553604 heartbeat IPC: 1.56442 cumulative IPC: 1.55471 (Simulation time: 1 hr 10 min 27 sec) 
 Total Blocks : 262144 Invalid Blocks : 42
Heartbeat CPU 0 instructions: 340000002 cycles: 176045542 heartbeat IPC: 1.54037 cumulative IPC: 1.55368 (Simulation time: 1 hr 12 min 31 sec) 
 Total Blocks : 262144 Invalid Blocks : 28
Heartbeat CPU 0 instructions: 350000003 cycles: 182483417 heartbeat IPC: 1.55331 cumulative IPC: 1.55365 (Simulation time: 1 hr 14 min 31 sec) 
 Total Blocks : 262144 Invalid Blocks : 21
Heartbeat CPU 0 instructions: 360000002 cycles: 188940474 heartbeat IPC: 1.54869 cumulative IPC: 1.55334 (Simulation time: 1 hr 16 min 34 sec) 
 Total Blocks : 262144 Invalid Blocks : 11
Heartbeat CPU 0 instructions: 370000003 cycles: 195393976 heartbeat IPC: 1.54955 cumulative IPC: 1.55312 (Simulation time: 1 hr 18 min 42 sec) 
 Total Blocks : 262144 Invalid Blocks : 7
Heartbeat CPU 0 instructions: 380000001 cycles: 201854807 heartbeat IPC: 1.54779 cumulative IPC: 1.55282 (Simulation time: 1 hr 20 min 19 sec) 
 Total Blocks : 262144 Invalid Blocks : 5
Heartbeat CPU 0 instructions: 390000000 cycles: 208306566 heartbeat IPC: 1.54996 cumulative IPC: 1.55267 (Simulation time: 1 hr 21 min 49 sec) 
 Total Blocks : 262144 Invalid Blocks : 3
Heartbeat CPU 0 instructions: 400000000 cycles: 214777770 heartbeat IPC: 1.54531 cumulative IPC: 1.5523 (Simulation time: 1 hr 23 min 58 sec) 
 Total Blocks : 262144 Invalid Blocks : 1
Finished CPU 0 instructions: 200000003 cycles: 128840891 cumulative IPC: 1.5523 (Simulation time: 1 hr 23 min 58 sec) 

CPU 0 Branch Prediction Accuracy: 99.8486% MPKI: 0.001795 Average ROB Occupancy at Mispredict: 348.404

ChampSim completed all CPUs

Region of Interest Statistics

CPU 0 cumulative IPC: 1.5523 instructions: 200000003 cycles: 128840891
ITLB TOTAL     ACCESS: 35555426  HIT: 35555426  MISS:     0  HIT %:   100  MISS %:     0  AVERAGE MISS PENALTY: 0
ITLB LOAD      ACCESS: 35555426  HIT: 35555426  MISS:     0  HIT %:   100  MISS %:     0  AVERAGE MISS PENALTY: 0
ITLB RFO       ACCESS:     0  HIT:     0  MISS:     0  HIT %:     0  MISS %:     0  AVERAGE MISS PENALTY: 0
ITLB PREFETCH  ACCESS:     0  HIT:     0  MISS:     0  HIT %:     0  MISS %:     0  AVERAGE MISS PENALTY: 0
ITLB WRITEBACK ACCESS:     0  HIT:     0  MISS:     0  HIT %:     0  MISS %:     0  AVERAGE MISS PENALTY: 0
ITLB PREFETCH  REQUESTED:     0  ISSUED:     0  USEFUL:     0  USELESS:     0
 USEFUL LOAD PREFETCHES:          0 PREFETCH ISSUED TO LOWER LEVEL:          0  ACCURACY: -nan
 TIMELY PREFETCHES:          0 LATE PREFETCHES: 0 DROPPED PREFETCHES: 0
ITLB AVERAGE MISS LATENCY: -nan cycles
DTLB TOTAL     ACCESS: 39788946  HIT: 24707934  MISS: 15081012  HIT %: 62.0975  MISS %: 37.9025  AVERAGE MISS PENALTY: 10.2298
DTLB LOAD      ACCESS: 27816418  HIT: 14202203  MISS: 13614215  HIT %: 51.0569  MISS %: 48.9431  AVERAGE MISS PENALTY: 10.2863
DTLB RFO       ACCESS: 11972528  HIT: 10505731  MISS: 1466797  HIT %: 87.7486  MISS %: 12.2514  AVERAGE MISS PENALTY: 9.70536
DTLB PREFETCH  ACCESS:     0  HIT:     0  MISS:     0  HIT %:     0  MISS %:     0  AVERAGE MISS PENALTY: 0
DTLB WRITEBACK ACCESS:     0  HIT:     0  MISS:     0  HIT %:     0  MISS %:     0  AVERAGE MISS PENALTY: 0
DTLB PREFETCH  REQUESTED:     0  ISSUED:     0  USEFUL:     0  USELESS:     0
 USEFUL LOAD PREFETCHES:          0 PREFETCH ISSUED TO LOWER LEVEL:          0  ACCURACY: -nan
 TIMELY PREFETCHES:          0 LATE PREFETCHES: 0 DROPPED PREFETCHES: 0
DTLB AVERAGE MISS LATENCY: 10.2298 cycles
STLB TOTAL     ACCESS: 15081012  HIT: 15056655  MISS: 24357  HIT %: 99.8385  MISS %: 0.161508  AVERAGE MISS PENALTY: 100
STLB LOAD      ACCESS: 13614215  HIT: 13589862  MISS: 24353  HIT %: 99.8211  MISS %: 0.178879  AVERAGE MISS PENALTY: 100
STLB RFO       ACCESS: 1466797  HIT: 1466793  MISS:     4  HIT %: 99.9997  MISS %: 0.000272703  AVERAGE MISS PENALTY: 100
STLB PREFETCH  ACCESS:     0  HIT:     0  MISS:     0  HIT %:     0  MISS %:     0  AVERAGE MISS PENALTY: 0
STLB WRITEBACK ACCESS:     0  HIT:     0  MISS:     0  HIT %:     0  MISS %:     0  AVERAGE MISS PENALTY: 0
STLB PREFETCH  REQUESTED:     0  ISSUED:     0  USEFUL:     0  USELESS:     0
 USEFUL LOAD PREFETCHES:          0 PREFETCH ISSUED TO LOWER LEVEL:          0  ACCURACY: -nan
 TIMELY PREFETCHES:          0 LATE PREFETCHES: 0 DROPPED PREFETCHES: 0
STLB AVERAGE MISS LATENCY: 100 cycles
L1D TOTAL     ACCESS: 70886288  HIT: 39390584  MISS: 31495704  HIT %: 55.5687  MISS %: 44.4313  AVERAGE MISS PENALTY: 69435.4
L1D LOAD      ACCESS: 34518577  HIT: 12990307  MISS: 21528270  HIT %: 37.6328  MISS %: 62.3672  AVERAGE MISS PENALTY: 101535
L1D RFO       ACCESS: 22573290  HIT: 20934086  MISS: 1639204  HIT %: 92.7383  MISS %: 7.2617  AVERAGE MISS PENALTY: 478.926
L1D PREFETCH  ACCESS: 13794421  HIT: 5466191  MISS: 8328230  HIT %: 39.6261  MISS %: 60.3739  AVERAGE MISS PENALTY: 31.3273
L1D WRITEBACK ACCESS:     0  HIT:     0  MISS:     0  HIT %:     0  MISS %:     0  AVERAGE MISS PENALTY: 0
L1D PREFETCH  REQUESTED: 17537544  ISSUED: 14670971  USEFUL: 128497  USELESS: 8199676
 USEFUL LOAD PREFETCHES:     128497 PREFETCH ISSUED TO LOWER LEVEL:   27406432  ACCURACY: 0.468857
 TIMELY PREFETCHES:     128497 LATE PREFETCHES: 556120 DROPPED PREFETCHES: 2866573
L1D AVERAGE MISS LATENCY: 44.9324 cycles
L1I TOTAL     ACCESS: 47075435  HIT: 47075435  MISS:     0  HIT %:   100  MISS %:     0  AVERAGE MISS PENALTY: 0
L1I LOAD      ACCESS: 47075435  HIT: 47075435  MISS:     0  HIT %:   100  MISS %:     0  AVERAGE MISS PENALTY: 0
L1I RFO       ACCESS:     0  HIT:     0  MISS:     0  HIT %:     0  MISS %:     0  AVERAGE MISS PENALTY: 0
L1I PREFETCH  ACCESS:     0  HIT:     0  MISS:     0  HIT %:     0  MISS %:     0  AVERAGE MISS PENALTY: 0
L1I WRITEBACK ACCESS:     0  HIT:     0  MISS:     0  HIT %:     0  MISS %:     0  AVERAGE MISS PENALTY: 0
L1I PREFETCH  REQUESTED:     0  ISSUED:     0  USEFUL:     0  USELESS:     0
 USEFUL LOAD PREFETCHES:          0 PREFETCH ISSUED TO LOWER LEVEL:          0  ACCURACY: -nan
 TIMELY PREFETCHES:          0 LATE PREFETCHES: 0 DROPPED PREFETCHES: 0
L1I AVERAGE MISS LATENCY: -nan cycles
L2C TOTAL     ACCESS: 61423198  HIT: 59618393  MISS: 1804805  HIT %: 97.0617  MISS %: 2.93831  AVERAGE MISS PENALTY: 222.128
L2C LOAD      ACCESS: 21194422  HIT: 21102113  MISS: 92309  HIT %: 99.5645  MISS %: 0.435534  AVERAGE MISS PENALTY: 272.667
L2C RFO       ACCESS: 1635699  HIT: 1634559  MISS:  1140  HIT %: 99.9303  MISS %: 0.069695  AVERAGE MISS PENALTY: 33.2404
L2C PREFETCH  ACCESS: 36727074  HIT: 35015936  MISS: 1711138  HIT %: 95.3409  MISS %: 4.65906  AVERAGE MISS PENALTY: 219.555
L2C WRITEBACK ACCESS: 1866003  HIT: 1865785  MISS:   218  HIT %: 99.9883  MISS %: 0.0116827  AVERAGE MISS PENALTY: 0
L2C PREFETCH  REQUESTED: 65279028  ISSUED: 38980823  USEFUL: 1707284  USELESS:  3573
 USEFUL LOAD PREFETCHES:    1707284 PREFETCH ISSUED TO LOWER LEVEL:    1783462  ACCURACY: 95.7286
 TIMELY PREFETCHES:    1707284 LATE PREFETCHES: 1230 DROPPED PREFETCHES: 26298205
L2C AVERAGE MISS LATENCY: 222.128 cycles
LLC0 TOTAL     ACCESS: 250905  HIT: 67684  MISS: 183221  HIT %: 26.9759  MISS %: 73.0241  AVERAGE MISS PENALTY: 223.397
LLC0 LOAD      ACCESS: 37711  HIT:  8097  MISS: 29614  HIT %: 21.4712  MISS %: 78.5288  AVERAGE MISS PENALTY: 209.226
LLC0 RFO       ACCESS:   104  HIT:   104  MISS:     0  HIT %:   100  MISS %:     0  AVERAGE MISS PENALTY: 0
LLC0 PREFETCH  ACCESS: 189084  HIT: 35903  MISS: 153181  HIT %: 18.9879  MISS %: 81.0121  AVERAGE MISS PENALTY: 226.758
LLC0 WRITEBACK ACCESS: 24006  HIT: 23580  MISS:   426  HIT %: 98.2254  MISS %: 1.77456  AVERAGE MISS PENALTY: 0
LLC0 PREFETCH  REQUESTED:     0  ISSUED:     0  USEFUL:   329  USELESS: 150845
 USEFUL LOAD PREFETCHES:        329 PREFETCH ISSUED TO LOWER LEVEL:     153181  ACCURACY: 0.214779
 TIMELY PREFETCHES:        329 LATE PREFETCHES: 0 DROPPED PREFETCHES: 0
LLC0 AVERAGE MISS LATENCY: 223.397 cycles
Deadblocks : 28923 Deadblock percentage : 97.6666

LLC1 TOTAL     ACCESS: 250322  HIT: 67156  MISS: 183166  HIT %: 26.8278  MISS %: 73.1722  AVERAGE MISS PENALTY: 225.959
LLC1 LOAD      ACCESS:  7650  HIT:   487  MISS:  7163  HIT %: 6.36601  MISS %: 93.634  AVERAGE MISS PENALTY: 306.514
LLC1 RFO       ACCESS:    71  HIT:    71  MISS:     0  HIT %:   100  MISS %:     0  AVERAGE MISS PENALTY: 0
LLC1 PREFETCH  ACCESS: 218633  HIT: 43005  MISS: 175628  HIT %: 19.6699  MISS %: 80.3301  AVERAGE MISS PENALTY: 223.156
LLC1 WRITEBACK ACCESS: 23968  HIT: 23593  MISS:   375  HIT %: 98.4354  MISS %: 1.56459  AVERAGE MISS PENALTY: 0
LLC1 PREFETCH  REQUESTED:     0  ISSUED:     0  USEFUL:   322  USELESS: 172720
 USEFUL LOAD PREFETCHES:        322 PREFETCH ISSUED TO LOWER LEVEL:     175628  ACCURACY: 0.183342
 TIMELY PREFETCHES:        322 LATE PREFETCHES: 0 DROPPED PREFETCHES: 0
LLC1 AVERAGE MISS LATENCY: 225.959 cycles
LLC2 TOTAL     ACCESS: 249411  HIT: 66322  MISS: 183089  HIT %: 26.5914  MISS %: 73.4086  AVERAGE MISS PENALTY: 228.472
LLC2 LOAD      ACCESS:  7505  HIT:   520  MISS:  6985  HIT %: 6.92871  MISS %: 93.0713  AVERAGE MISS PENALTY: 305.626
LLC2 RFO       ACCESS:    79  HIT:    79  MISS:     0  HIT %:   100  MISS %:     0  AVERAGE MISS PENALTY: 0
LLC2 PREFETCH  ACCESS: 217874  HIT: 42197  MISS: 175677  HIT %: 19.3676  MISS %: 80.6324  AVERAGE MISS PENALTY: 225.96
LLC2 WRITEBACK ACCESS: 23953  HIT: 23526  MISS:   427  HIT %: 98.2173  MISS %: 1.78266  AVERAGE MISS PENALTY: 0
LLC2 PREFETCH  REQUESTED:     0  ISSUED:     0  USEFUL:   316  USELESS: 172702
 USEFUL LOAD PREFETCHES:        316 PREFETCH ISSUED TO LOWER LEVEL:     175677  ACCURACY: 0.179876
 TIMELY PREFETCHES:        316 LATE PREFETCHES: 0 DROPPED PREFETCHES: 0
LLC2 AVERAGE MISS LATENCY: 228.472 cycles
LLC3 TOTAL     ACCESS: 248939  HIT: 65752  MISS: 183187  HIT %: 26.4129  MISS %: 73.5871  AVERAGE MISS PENALTY: 228.366
LLC3 LOAD      ACCESS:  7504  HIT:   530  MISS:  6974  HIT %: 7.0629  MISS %: 92.9371  AVERAGE MISS PENALTY: 312.426
LLC3 RFO       ACCESS:    78  HIT:    78  MISS:     0  HIT %:   100  MISS %:     0  AVERAGE MISS PENALTY: 0
LLC3 PREFETCH  ACCESS: 217384  HIT: 41581  MISS: 175803  HIT %: 19.1279  MISS %: 80.8721  AVERAGE MISS PENALTY: 225.564
LLC3 WRITEBACK ACCESS: 23973  HIT: 23563  MISS:   410  HIT %: 98.2897  MISS %: 1.71026  AVERAGE MISS PENALTY: 0
LLC3 PREFETCH  REQUESTED:     0  ISSUED:     0  USEFUL:   326  USELESS: 172865
 USEFUL LOAD PREFETCHES:        326 PREFETCH ISSUED TO LOWER LEVEL:     175803  ACCURACY: 0.185435
 TIMELY PREFETCHES:        326 LATE PREFETCHES: 0 DROPPED PREFETCHES: 0
LLC3 AVERAGE MISS LATENCY: 228.366 cycles
LLC4 TOTAL     ACCESS: 249374  HIT: 66433  MISS: 182941  HIT %: 26.6399  MISS %: 73.3601  AVERAGE MISS PENALTY: 229.635
LLC4 LOAD      ACCESS:  7915  HIT:   925  MISS:  6990  HIT %: 11.6867  MISS %: 88.3133  AVERAGE MISS PENALTY: 309.311
LLC4 RFO       ACCESS:   174  HIT:   174  MISS:     0  HIT %:   100  MISS %:     0  AVERAGE MISS PENALTY: 0
LLC4 PREFETCH  ACCESS: 217257  HIT: 41711  MISS: 175546  HIT %: 19.1989  MISS %: 80.8011  AVERAGE MISS PENALTY: 226.992
LLC4 WRITEBACK ACCESS: 24028  HIT: 23623  MISS:   405  HIT %: 98.3145  MISS %: 1.68553  AVERAGE MISS PENALTY: 0
LLC4 PREFETCH  REQUESTED:     0  ISSUED:     0  USEFUL:   483  USELESS: 172518
 USEFUL LOAD PREFETCHES:        483 PREFETCH ISSUED TO LOWER LEVEL:     175546  ACCURACY: 0.275142
 TIMELY PREFETCHES:        483 LATE PREFETCHES: 0 DROPPED PREFETCHES: 0
LLC4 AVERAGE MISS LATENCY: 229.635 cycles
LLC5 TOTAL     ACCESS: 249206  HIT: 66092  MISS: 183114  HIT %: 26.521  MISS %: 73.479  AVERAGE MISS PENALTY: 230.042
LLC5 LOAD      ACCESS:  8019  HIT:   766  MISS:  7253  HIT %: 9.55231  MISS %: 90.4477  AVERAGE MISS PENALTY: 308.885
LLC5 RFO       ACCESS:   145  HIT:   145  MISS:     0  HIT %:   100  MISS %:     0  AVERAGE MISS PENALTY: 0
LLC5 PREFETCH  ACCESS: 217020  HIT: 41588  MISS: 175432  HIT %: 19.1632  MISS %: 80.8368  AVERAGE MISS PENALTY: 227.345
LLC5 WRITEBACK ACCESS: 24022  HIT: 23593  MISS:   429  HIT %: 98.2141  MISS %: 1.78586  AVERAGE MISS PENALTY: 0
LLC5 PREFETCH  REQUESTED:     0  ISSUED:     0  USEFUL:   448  USELESS: 172501
 USEFUL LOAD PREFETCHES:        448 PREFETCH ISSUED TO LOWER LEVEL:     175432  ACCURACY: 0.25537
 TIMELY PREFETCHES:        448 LATE PREFETCHES: 0 DROPPED PREFETCHES: 0
LLC5 AVERAGE MISS LATENCY: 230.042 cycles
LLC6 TOTAL     ACCESS: 248974  HIT: 66051  MISS: 182923  HIT %: 26.5293  MISS %: 73.4707  AVERAGE MISS PENALTY: 233.151
LLC6 LOAD      ACCESS:  7946  HIT:   784  MISS:  7162  HIT %: 9.8666  MISS %: 90.1334  AVERAGE MISS PENALTY: 307.676
LLC6 RFO       ACCESS:   187  HIT:   187  MISS:     0  HIT %:   100  MISS %:     0  AVERAGE MISS PENALTY: 0
LLC6 PREFETCH  ACCESS: 216772  HIT: 41432  MISS: 175340  HIT %: 19.1132  MISS %: 80.8868  AVERAGE MISS PENALTY: 230.667
LLC6 WRITEBACK ACCESS: 24069  HIT: 23648  MISS:   421  HIT %: 98.2509  MISS %: 1.74914  AVERAGE MISS PENALTY: 0
LLC6 PREFETCH  REQUESTED:     0  ISSUED:     0  USEFUL:   464  USELESS: 172390
 USEFUL LOAD PREFETCHES:        464 PREFETCH ISSUED TO LOWER LEVEL:     175340  ACCURACY: 0.264629
 TIMELY PREFETCHES:        464 LATE PREFETCHES: 0 DROPPED PREFETCHES: 0
LLC6 AVERAGE MISS LATENCY: 233.151 cycles
LLC7 TOTAL     ACCESS: 249744  HIT: 66627  MISS: 183117  HIT %: 26.6781  MISS %: 73.3219  AVERAGE MISS PENALTY: 234.699
LLC7 LOAD      ACCESS:  8057  HIT:  1111  MISS:  6946  HIT %: 13.7893  MISS %: 86.2107  AVERAGE MISS PENALTY: 311.02
LLC7 RFO       ACCESS:   263  HIT:   263  MISS:     0  HIT %:   100  MISS %:     0  AVERAGE MISS PENALTY: 0
LLC7 PREFETCH  ACCESS: 217114  HIT: 41322  MISS: 175792  HIT %: 19.0324  MISS %: 80.9676  AVERAGE MISS PENALTY: 232.189
LLC7 WRITEBACK ACCESS: 24310  HIT: 23931  MISS:   379  HIT %: 98.441  MISS %: 1.55903  AVERAGE MISS PENALTY: 0
LLC7 PREFETCH  REQUESTED:     0  ISSUED:     0  USEFUL:   482  USELESS: 172711
 USEFUL LOAD PREFETCHES:        482 PREFETCH ISSUED TO LOWER LEVEL:     175793  ACCURACY: 0.274186
 TIMELY PREFETCHES:        482 LATE PREFETCHES: 0 DROPPED PREFETCHES: 0
LLC7 AVERAGE MISS LATENCY: 234.699 cycles
ROI Average ROB Stall Cycles:	4.66567
ROI Total ROB Stalls Cycles:	85055579
ROI TOTAL ROB counter      :	18230100
ROI Average Load ROB Stall Cycles:	14.3978
ROI Total Load ROB Stalls Cycle  :	26443320
ROI Total Load ROB stalls Counter:	1836618
Major fault: 0 Minor fault: 21701

