
*** ChampSim Multicore Out-of-Order Simulator ***

Warmup Instructions: 200000000
Simulation Instructions: 200000000
Number of CPUs: 1
threads:1

L1I Configuration:
L1I_SET:64
L1I_WAY:8
L1I_RQ_SIZE:64
L1I_WQ_SIZE:64
L1I_PQ_SIZE:8
L1I_MSHR_SIZE:8

L1D Configuration:
L1D_SET:64
L1D_WAY:12
L1D_RQ_SIZE:64
L1D_WQ_SIZE:64
L1D_PQ_SIZE:8
L1D_MSHR_SIZE:16

L2C Configuration:
L2C_SET:1024
L2C_WAY:8
L2C_RQ_SIZE:32
L2C_WQ_SIZE:32
L2C_PQ_SIZE:16
L2C_MSHR_SIZE:32

LLC Configuration:
LLC_SET:4096
LLC_WAY:16
LLC SLICES:8
LLC_RQ_SIZE:64
LLC_WQ_SIZE:64
LLC_PQ_SIZE:32
LLC_MSHR_SIZE:64

Interconnect OFF
Attacker deprioritize is: OFF
Off-chip DRAM Size: 4096 MB Channels: 1 Width: 64-bit Data Rate: 3200 MT/s
PAGE SIZE in KB: 4.000000 
PAGE SIZE in MB: 0.003906 
PAGE offset in bits: 12 
CEASER-S_LLC:0
MIRAGE : 1
CEASER_LATENCY:3
REMAP : OFF
Partitions : 1
Multi-Step : OFF
BFS : OFF

CPU 0 runs /home/anubhav/spec_2017/619.lbm_s-3766B.champsimtrace.xz
CPU 0 Bimodal branch predictor
Initialize Hawkeye state
Initialize Hawkeye state
Initialize Hawkeye state
Initialize Hawkeye state
Initialize Hawkeye state
Initialize Hawkeye state
Initialize Hawkeye state
Initialize Hawkeye state
Heartbeat CPU 0 instructions: 10000001 cycles: 3512750 heartbeat IPC: 2.84677 cumulative IPC: 2.84677 (Simulation time: 0 hr 1 min 50 sec) 
 Total Blocks : 524288 Invalid Blocks : 346269
Heartbeat CPU 0 instructions: 20000003 cycles: 7032232 heartbeat IPC: 2.84133 cumulative IPC: 2.84405 (Simulation time: 0 hr 3 min 44 sec) 
 Total Blocks : 524288 Invalid Blocks : 231268
Heartbeat CPU 0 instructions: 30000000 cycles: 10544768 heartbeat IPC: 2.84695 cumulative IPC: 2.84501 (Simulation time: 0 hr 6 min 25 sec) 
 Total Blocks : 524288 Invalid Blocks : 169718
Heartbeat CPU 0 instructions: 40000001 cycles: 14063992 heartbeat IPC: 2.84154 cumulative IPC: 2.84414 (Simulation time: 0 hr 9 min 5 sec) 
 Total Blocks : 524288 Invalid Blocks : 125584
Heartbeat CPU 0 instructions: 50000001 cycles: 17583114 heartbeat IPC: 2.84162 cumulative IPC: 2.84364 (Simulation time: 0 hr 11 min 49 sec) 
 Total Blocks : 524288 Invalid Blocks : 93334
Heartbeat CPU 0 instructions: 60000001 cycles: 21095521 heartbeat IPC: 2.84705 cumulative IPC: 2.84421 (Simulation time: 0 hr 14 min 32 sec) 
 Total Blocks : 524288 Invalid Blocks : 69810
Heartbeat CPU 0 instructions: 70000003 cycles: 24614494 heartbeat IPC: 2.84174 cumulative IPC: 2.84385 (Simulation time: 0 hr 17 min 24 sec) 
 Total Blocks : 524288 Invalid Blocks : 51808
Heartbeat CPU 0 instructions: 80000001 cycles: 28127204 heartbeat IPC: 2.8468 cumulative IPC: 2.84422 (Simulation time: 0 hr 20 min 12 sec) 
 Total Blocks : 524288 Invalid Blocks : 38670
Heartbeat CPU 0 instructions: 90000002 cycles: 31646110 heartbeat IPC: 2.84179 cumulative IPC: 2.84395 (Simulation time: 0 hr 23 min 10 sec) 
 Total Blocks : 524288 Invalid Blocks : 28713
Heartbeat CPU 0 instructions: 100000000 cycles: 35158661 heartbeat IPC: 2.84693 cumulative IPC: 2.84425 (Simulation time: 0 hr 26 min 27 sec) 
 Total Blocks : 524288 Invalid Blocks : 21514
Heartbeat CPU 0 instructions: 110000000 cycles: 38700508 heartbeat IPC: 2.82339 cumulative IPC: 2.84234 (Simulation time: 0 hr 30 min 16 sec) 
 Total Blocks : 524288 Invalid Blocks : 15767
Heartbeat CPU 0 instructions: 120000002 cycles: 42257627 heartbeat IPC: 2.81126 cumulative IPC: 2.83972 (Simulation time: 0 hr 34 min 7 sec) 
 Total Blocks : 524288 Invalid Blocks : 11479
Heartbeat CPU 0 instructions: 130000001 cycles: 45909010 heartbeat IPC: 2.73869 cumulative IPC: 2.83169 (Simulation time: 0 hr 38 min 18 sec) 
 Total Blocks : 524288 Invalid Blocks : 7783
Heartbeat CPU 0 instructions: 140000001 cycles: 49621504 heartbeat IPC: 2.69361 cumulative IPC: 2.82136 (Simulation time: 0 hr 42 min 32 sec) 
 Total Blocks : 524288 Invalid Blocks : 5069
Heartbeat CPU 0 instructions: 150000001 cycles: 53429357 heartbeat IPC: 2.62615 cumulative IPC: 2.80745 (Simulation time: 0 hr 47 min 16 sec) 
 Total Blocks : 524288 Invalid Blocks : 3039
Heartbeat CPU 0 instructions: 160000000 cycles: 57405577 heartbeat IPC: 2.51495 cumulative IPC: 2.78719 (Simulation time: 0 hr 52 min 42 sec) 
 Total Blocks : 524288 Invalid Blocks : 1608
Heartbeat CPU 0 instructions: 170000002 cycles: 61566914 heartbeat IPC: 2.40307 cumulative IPC: 2.76122 (Simulation time: 0 hr 59 min 19 sec) 
 Total Blocks : 524288 Invalid Blocks : 757
Heartbeat CPU 0 instructions: 180000002 cycles: 65810614 heartbeat IPC: 2.35643 cumulative IPC: 2.73512 (Simulation time: 1 hr 6 min 53 sec) 
 Total Blocks : 524288 Invalid Blocks : 317
Heartbeat CPU 0 instructions: 190000002 cycles: 70114374 heartbeat IPC: 2.32355 cumulative IPC: 2.70986 (Simulation time: 1 hr 14 min 38 sec) 
 Total Blocks : 524288 Invalid Blocks : 137
Heartbeat CPU 0 instructions: 200000000 cycles: 74322394 heartbeat IPC: 2.37641 cumulative IPC: 2.69098 (Simulation time: 1 hr 22 min 44 sec) 
 Total Blocks : 524288 Invalid Blocks : 56

Warmup complete CPU 0 instructions: 200000004 cycles: 74322395 (Simulation time: 1 hr 22 min 44 sec) 

Heartbeat CPU 0 instructions: 210000001 cycles: 92350788 heartbeat IPC: 0.554681 cumulative IPC: 0.55468 (Simulation time: 1 hr 34 min 20 sec) 
 Total Blocks : 524288 Invalid Blocks : 26
Heartbeat CPU 0 instructions: 220000000 cycles: 108781173 heartbeat IPC: 0.608628 cumulative IPC: 0.580404 (Simulation time: 1 hr 44 min 49 sec) 
 Total Blocks : 524288 Invalid Blocks : 10
Heartbeat CPU 0 instructions: 230000003 cycles: 124951380 heartbeat IPC: 0.618421 cumulative IPC: 0.592546 (Simulation time: 1 hr 55 min 29 sec) 
 Total Blocks : 524288 Invalid Blocks : 6
Heartbeat CPU 0 instructions: 240000003 cycles: 140357920 heartbeat IPC: 0.649075 cumulative IPC: 0.605735 (Simulation time: 2 hr 5 min 27 sec) 
 Total Blocks : 524288 Invalid Blocks : 5
Heartbeat CPU 0 instructions: 250000003 cycles: 155800169 heartbeat IPC: 0.647574 cumulative IPC: 0.613664 (Simulation time: 2 hr 15 min 17 sec) 
 Total Blocks : 524288 Invalid Blocks : 2
Heartbeat CPU 0 instructions: 260000002 cycles: 171198064 heartbeat IPC: 0.649439 cumulative IPC: 0.619351 (Simulation time: 2 hr 25 min 8 sec) 
 Total Blocks : 524288 Invalid Blocks : 1
Heartbeat CPU 0 instructions: 270000000 cycles: 186059951 heartbeat IPC: 0.672862 cumulative IPC: 0.626468 (Simulation time: 2 hr 34 min 29 sec) 
 Total Blocks : 524288 Invalid Blocks : 1
Heartbeat CPU 0 instructions: 280000002 cycles: 200975844 heartbeat IPC: 0.670426 cumulative IPC: 0.631645 (Simulation time: 2 hr 43 min 0 sec) 
 Total Blocks : 524288 Invalid Blocks : 0
Heartbeat CPU 0 instructions: 290000002 cycles: 216060980 heartbeat IPC: 0.662904 cumulative IPC: 0.634972 (Simulation time: 2 hr 51 min 1 sec) 
 Total Blocks : 524288 Invalid Blocks : 0
Heartbeat CPU 0 instructions: 300000002 cycles: 231563128 heartbeat IPC: 0.645072 cumulative IPC: 0.635967 (Simulation time: 2 hr 58 min 27 sec) 
 Total Blocks : 524288 Invalid Blocks : 0
Heartbeat CPU 0 instructions: 310000001 cycles: 247565215 heartbeat IPC: 0.624918 cumulative IPC: 0.634947 (Simulation time: 3 hr 5 min 26 sec) 
 Total Blocks : 524288 Invalid Blocks : 0
Heartbeat CPU 0 instructions: 320000001 cycles: 263707224 heartbeat IPC: 0.619502 cumulative IPC: 0.63363 (Simulation time: 3 hr 11 min 36 sec) 
 Total Blocks : 524288 Invalid Blocks : 0
Heartbeat CPU 0 instructions: 330000000 cycles: 279783609 heartbeat IPC: 0.62203 cumulative IPC: 0.632723 (Simulation time: 3 hr 17 min 48 sec) 
 Total Blocks : 524288 Invalid Blocks : 0
Heartbeat CPU 0 instructions: 340000000 cycles: 295263695 heartbeat IPC: 0.645991 cumulative IPC: 0.633652 (Simulation time: 3 hr 23 min 46 sec) 
 Total Blocks : 524288 Invalid Blocks : 0
Heartbeat CPU 0 instructions: 350000000 cycles: 311123290 heartbeat IPC: 0.630533 cumulative IPC: 0.633444 (Simulation time: 3 hr 28 min 8 sec) 
 Total Blocks : 524288 Invalid Blocks : 0
Heartbeat CPU 0 instructions: 360000002 cycles: 326920883 heartbeat IPC: 0.633008 cumulative IPC: 0.633416 (Simulation time: 3 hr 32 min 34 sec) 
 Total Blocks : 524288 Invalid Blocks : 0
Heartbeat CPU 0 instructions: 370000003 cycles: 342469517 heartbeat IPC: 0.643143 cumulative IPC: 0.63398 (Simulation time: 3 hr 37 min 12 sec) 
 Total Blocks : 524288 Invalid Blocks : 0
Heartbeat CPU 0 instructions: 380000003 cycles: 358112939 heartbeat IPC: 0.639246 cumulative IPC: 0.634271 (Simulation time: 3 hr 41 min 46 sec) 
 Total Blocks : 524288 Invalid Blocks : 0
Heartbeat CPU 0 instructions: 390000000 cycles: 373284150 heartbeat IPC: 0.659143 cumulative IPC: 0.635533 (Simulation time: 3 hr 46 min 17 sec) 
 Total Blocks : 524288 Invalid Blocks : 0
Heartbeat CPU 0 instructions: 400000003 cycles: 389097113 heartbeat IPC: 0.632393 cumulative IPC: 0.635375 (Simulation time: 3 hr 51 min 5 sec) 
 Total Blocks : 524288 Invalid Blocks : 0
Finished CPU 0 instructions: 200000003 cycles: 314774719 cumulative IPC: 0.635375 (Simulation time: 3 hr 51 min 5 sec) 

CPU 0 Branch Prediction Accuracy: 94.9078% MPKI: 0.91396 Average ROB Occupancy at Mispredict: 270.409

ChampSim completed all CPUs

Region of Interest Statistics

CPU 0 cumulative IPC: 0.635375 instructions: 200000003 cycles: 314774719
ITLB TOTAL     ACCESS: 30640820  HIT: 30640820  MISS:     0  HIT %:   100  MISS %:     0  AVERAGE MISS PENALTY: 0
ITLB LOAD      ACCESS: 30640820  HIT: 30640820  MISS:     0  HIT %:   100  MISS %:     0  AVERAGE MISS PENALTY: 0
ITLB RFO       ACCESS:     0  HIT:     0  MISS:     0  HIT %:     0  MISS %:     0  AVERAGE MISS PENALTY: 0
ITLB PREFETCH  ACCESS:     0  HIT:     0  MISS:     0  HIT %:     0  MISS %:     0  AVERAGE MISS PENALTY: 0
ITLB WRITEBACK ACCESS:     0  HIT:     0  MISS:     0  HIT %:     0  MISS %:     0  AVERAGE MISS PENALTY: 0
ITLB PREFETCH  REQUESTED:     0  ISSUED:     0  USEFUL:     0  USELESS:     0
 USEFUL LOAD PREFETCHES:          0 PREFETCH ISSUED TO LOWER LEVEL:          0  ACCURACY: -nan
 TIMELY PREFETCHES:          0 LATE PREFETCHES: 0 DROPPED PREFETCHES: 0
ITLB AVERAGE MISS LATENCY: -nan cycles
DTLB TOTAL     ACCESS: 40449575  HIT: 40175609  MISS: 273966  HIT %: 99.3227  MISS %: 0.677303  AVERAGE MISS PENALTY: 88.1596
DTLB LOAD      ACCESS: 19642086  HIT: 19604910  MISS: 37176  HIT %: 99.8107  MISS %: 0.189267  AVERAGE MISS PENALTY: 109.002
DTLB RFO       ACCESS: 20807489  HIT: 20570699  MISS: 236790  HIT %: 98.862  MISS %: 1.138  AVERAGE MISS PENALTY: 84.8873
DTLB PREFETCH  ACCESS:     0  HIT:     0  MISS:     0  HIT %:     0  MISS %:     0  AVERAGE MISS PENALTY: 0
DTLB WRITEBACK ACCESS:     0  HIT:     0  MISS:     0  HIT %:     0  MISS %:     0  AVERAGE MISS PENALTY: 0
DTLB PREFETCH  REQUESTED:     0  ISSUED:     0  USEFUL:     0  USELESS:     0
 USEFUL LOAD PREFETCHES:          0 PREFETCH ISSUED TO LOWER LEVEL:          0  ACCURACY: -nan
 TIMELY PREFETCHES:          0 LATE PREFETCHES: 0 DROPPED PREFETCHES: 0
DTLB AVERAGE MISS LATENCY: 88.1596 cycles
STLB TOTAL     ACCESS: 273966  HIT: 125309  MISS: 148657  HIT %: 45.7389  MISS %: 54.2611  AVERAGE MISS PENALTY: 100
STLB LOAD      ACCESS: 37176  HIT:     0  MISS: 37176  HIT %:     0  MISS %:   100  AVERAGE MISS PENALTY: 100
STLB RFO       ACCESS: 236790  HIT: 125309  MISS: 111481  HIT %: 52.9199  MISS %: 47.0801  AVERAGE MISS PENALTY: 100
STLB PREFETCH  ACCESS:     0  HIT:     0  MISS:     0  HIT %:     0  MISS %:     0  AVERAGE MISS PENALTY: 0
STLB WRITEBACK ACCESS:     0  HIT:     0  MISS:     0  HIT %:     0  MISS %:     0  AVERAGE MISS PENALTY: 0
STLB PREFETCH  REQUESTED:     0  ISSUED:     0  USEFUL:     0  USELESS:     0
 USEFUL LOAD PREFETCHES:          0 PREFETCH ISSUED TO LOWER LEVEL:          0  ACCURACY: -nan
 TIMELY PREFETCHES:          0 LATE PREFETCHES: 0 DROPPED PREFETCHES: 0
STLB AVERAGE MISS LATENCY: 100 cycles
L1D TOTAL     ACCESS: 65478006  HIT: 49773088  MISS: 15704918  HIT %: 76.015  MISS %: 23.985  AVERAGE MISS PENALTY: 6.621e+06
L1D LOAD      ACCESS: 17567893  HIT: 16392291  MISS: 1175602  HIT %: 93.3082  MISS %: 6.69176  AVERAGE MISS PENALTY: 8.84469e+07
L1D RFO       ACCESS: 35107188  HIT: 21791164  MISS: 13316024  HIT %: 62.0704  MISS %: 37.9296  AVERAGE MISS PENALTY: 272.324
L1D PREFETCH  ACCESS: 12802925  HIT: 11589633  MISS: 1213292  HIT %: 90.5233  MISS %: 9.47668  AVERAGE MISS PENALTY: 246.292
L1D WRITEBACK ACCESS:     0  HIT:     0  MISS:     0  HIT %:     0  MISS %:     0  AVERAGE MISS PENALTY: 0
L1D PREFETCH  REQUESTED: 39090204  ISSUED: 25363184  USEFUL: 1202454  USELESS: 10840
 USEFUL LOAD PREFETCHES:    1202454 PREFETCH ISSUED TO LOWER LEVEL:  323808107  ACCURACY: 0.371348
 TIMELY PREFETCHES:    1202454 LATE PREFETCHES: 1253031 DROPPED PREFETCHES: 13727020
L1D AVERAGE MISS LATENCY: 269.758 cycles
L1I TOTAL     ACCESS: 42399789  HIT: 42399789  MISS:     0  HIT %:   100  MISS %:     0  AVERAGE MISS PENALTY: 0
L1I LOAD      ACCESS: 42399789  HIT: 42399789  MISS:     0  HIT %:   100  MISS %:     0  AVERAGE MISS PENALTY: 0
L1I RFO       ACCESS:     0  HIT:     0  MISS:     0  HIT %:     0  MISS %:     0  AVERAGE MISS PENALTY: 0
L1I PREFETCH  ACCESS:     0  HIT:     0  MISS:     0  HIT %:     0  MISS %:     0  AVERAGE MISS PENALTY: 0
L1I WRITEBACK ACCESS:     0  HIT:     0  MISS:     0  HIT %:     0  MISS %:     0  AVERAGE MISS PENALTY: 0
L1I PREFETCH  REQUESTED:     0  ISSUED:     0  USEFUL:     0  USELESS:     0
 USEFUL LOAD PREFETCHES:          0 PREFETCH ISSUED TO LOWER LEVEL:          0  ACCURACY: -nan
 TIMELY PREFETCHES:          0 LATE PREFETCHES: 0 DROPPED PREFETCHES: 0
L1I AVERAGE MISS LATENCY: -nan cycles
L2C TOTAL     ACCESS: 30516406  HIT: 20526720  MISS: 9989686  HIT %: 67.2645  MISS %: 32.7355  AVERAGE MISS PENALTY: 1.69348e+07
L2C LOAD      ACCESS: 1146123  HIT: 304666  MISS: 841457  HIT %: 26.5823  MISS %: 73.4177  AVERAGE MISS PENALTY: 2.01043e+08
L2C RFO       ACCESS: 13316014  HIT: 5705215  MISS: 7610799  HIT %: 42.8448  MISS %: 57.1552  AVERAGE MISS PENALTY: 447.184
L2C PREFETCH  ACCESS: 2738244  HIT: 1201258  MISS: 1536986  HIT %: 43.8696  MISS %: 56.1304  AVERAGE MISS PENALTY: 530.897
L2C WRITEBACK ACCESS: 13316025  HIT: 13315581  MISS:   444  HIT %: 99.9967  MISS %: 0.00333433  AVERAGE MISS PENALTY: 0
L2C PREFETCH  REQUESTED: 6834814  ISSUED: 6834795  USEFUL: 304626  USELESS: 1234140
 USEFUL LOAD PREFETCHES:     304626 PREFETCH ISSUED TO LOWER LEVEL:    4868443  ACCURACY: 6.25715
 TIMELY PREFETCHES:     304626 LATE PREFETCHES: 1184559 DROPPED PREFETCHES: 19
L2C AVERAGE MISS LATENCY: 451.309 cycles
LLC0 TOTAL     ACCESS: 2199502  HIT: 1351318  MISS: 848184  HIT %: 61.4375  MISS %: 38.5625  AVERAGE MISS PENALTY: 641.055
LLC0 LOAD      ACCESS: 46441  HIT:     0  MISS: 46441  HIT %:     0  MISS %:   100  AVERAGE MISS PENALTY: 554.23
LLC0 RFO       ACCESS: 951104  HIT: 406903  MISS: 544201  HIT %: 42.7822  MISS %: 57.2178  AVERAGE MISS PENALTY: 689.604
LLC0 PREFETCH  ACCESS: 250779  HIT:     0  MISS: 250779  HIT %:     0  MISS %:   100  AVERAGE MISS PENALTY: 569.069
LLC0 WRITEBACK ACCESS: 951178  HIT: 944415  MISS:  6763  HIT %: 99.289  MISS %: 0.711013  AVERAGE MISS PENALTY: 0
LLC0 PREFETCH  REQUESTED:     0  ISSUED:     0  USEFUL:     0  USELESS: 252032
 USEFUL LOAD PREFETCHES:          0 PREFETCH ISSUED TO LOWER LEVEL:     250780  ACCURACY: 0
 TIMELY PREFETCHES:          0 LATE PREFETCHES: 0 DROPPED PREFETCHES: 0
LLC0 AVERAGE MISS LATENCY: 641.055 cycles
Deadblocks : 32513 Deadblock percentage : 70.0093

LLC1 TOTAL     ACCESS: 2199648  HIT: 1351789  MISS: 847859  HIT %: 61.4548  MISS %: 38.5452  AVERAGE MISS PENALTY: 643.877
LLC1 LOAD      ACCESS: 33509  HIT:    73  MISS: 33436  HIT %: 0.217852  MISS %: 99.7821  AVERAGE MISS PENALTY: 549.356
LLC1 RFO       ACCESS: 951134  HIT: 407189  MISS: 543945  HIT %: 42.8109  MISS %: 57.1891  AVERAGE MISS PENALTY: 691.561
LLC1 PREFETCH  ACCESS: 263792  HIT:     0  MISS: 263792  HIT %:     0  MISS %:   100  AVERAGE MISS PENALTY: 573.853
LLC1 WRITEBACK ACCESS: 951213  HIT: 944527  MISS:  6686  HIT %: 99.2971  MISS %: 0.702892  AVERAGE MISS PENALTY: 0
LLC1 PREFETCH  REQUESTED:     0  ISSUED:     0  USEFUL:     0  USELESS: 264908
 USEFUL LOAD PREFETCHES:          0 PREFETCH ISSUED TO LOWER LEVEL:     263793  ACCURACY: 0
 TIMELY PREFETCHES:          0 LATE PREFETCHES: 0 DROPPED PREFETCHES: 0
LLC1 AVERAGE MISS LATENCY: 643.877 cycles
LLC2 TOTAL     ACCESS: 2199700  HIT: 1351290  MISS: 848410  HIT %: 61.4306  MISS %: 38.5694  AVERAGE MISS PENALTY: 642.342
LLC2 LOAD      ACCESS: 23127  HIT:    72  MISS: 23055  HIT %: 0.311324  MISS %: 99.6887  AVERAGE MISS PENALTY: 570.859
LLC2 RFO       ACCESS: 951151  HIT: 406549  MISS: 544602  HIT %: 42.7428  MISS %: 57.2572  AVERAGE MISS PENALTY: 689.527
LLC2 PREFETCH  ACCESS: 274271  HIT:    81  MISS: 274190  HIT %: 0.0295328  MISS %: 99.9705  AVERAGE MISS PENALTY: 570.008
LLC2 WRITEBACK ACCESS: 951151  HIT: 944588  MISS:  6563  HIT %: 99.31  MISS %: 0.690006  AVERAGE MISS PENALTY: 0
LLC2 PREFETCH  REQUESTED:     0  ISSUED:     0  USEFUL:     0  USELESS: 275279
 USEFUL LOAD PREFETCHES:          0 PREFETCH ISSUED TO LOWER LEVEL:     274191  ACCURACY: 0
 TIMELY PREFETCHES:          0 LATE PREFETCHES: 0 DROPPED PREFETCHES: 0
LLC2 AVERAGE MISS LATENCY: 642.342 cycles
LLC3 TOTAL     ACCESS: 2199693  HIT: 1351784  MISS: 847909  HIT %: 61.4533  MISS %: 38.5467  AVERAGE MISS PENALTY: 731.511
LLC3 LOAD      ACCESS: 16056  HIT:    56  MISS: 16000  HIT %: 0.348779  MISS %: 99.6512  AVERAGE MISS PENALTY: 588.539
LLC3 RFO       ACCESS: 951145  HIT: 407034  MISS: 544111  HIT %: 42.7941  MISS %: 57.2059  AVERAGE MISS PENALTY: 828.847
LLC3 PREFETCH  ACCESS: 281347  HIT:   100  MISS: 281247  HIT %: 0.0355433  MISS %: 99.9645  AVERAGE MISS PENALTY: 568.372
LLC3 WRITEBACK ACCESS: 951145  HIT: 944594  MISS:  6551  HIT %: 99.3113  MISS %: 0.688749  AVERAGE MISS PENALTY: 0
LLC3 PREFETCH  REQUESTED:     0  ISSUED:     0  USEFUL:     2  USELESS: 282338
 USEFUL LOAD PREFETCHES:          2 PREFETCH ISSUED TO LOWER LEVEL:     281248  ACCURACY: 0.000711116
 TIMELY PREFETCHES:          2 LATE PREFETCHES: 0 DROPPED PREFETCHES: 0
LLC3 AVERAGE MISS LATENCY: 643.857 cycles
LLC4 TOTAL     ACCESS: 2201463  HIT: 1353706  MISS: 847757  HIT %: 61.4912  MISS %: 38.5088  AVERAGE MISS PENALTY: 645.455
LLC4 LOAD      ACCESS: 14089  HIT:     0  MISS: 14089  HIT %:     0  MISS %:   100  AVERAGE MISS PENALTY: 589.025
LLC4 RFO       ACCESS: 952025  HIT: 408091  MISS: 543934  HIT %: 42.8656  MISS %: 57.1344  AVERAGE MISS PENALTY: 693.733
LLC4 PREFETCH  ACCESS: 283253  HIT:   112  MISS: 283141  HIT %: 0.0395406  MISS %: 99.9605  AVERAGE MISS PENALTY: 570.548
LLC4 WRITEBACK ACCESS: 952096  HIT: 945503  MISS:  6593  HIT %: 99.3075  MISS %: 0.692472  AVERAGE MISS PENALTY: 0
LLC4 PREFETCH  REQUESTED:     0  ISSUED:     0  USEFUL:     0  USELESS: 284176
 USEFUL LOAD PREFETCHES:          0 PREFETCH ISSUED TO LOWER LEVEL:     283141  ACCURACY: 0
 TIMELY PREFETCHES:          0 LATE PREFETCHES: 0 DROPPED PREFETCHES: 0
LLC4 AVERAGE MISS LATENCY: 645.455 cycles
LLC5 TOTAL     ACCESS: 2201478  HIT: 1354526  MISS: 846952  HIT %: 61.528  MISS %: 38.472  AVERAGE MISS PENALTY: 647.517
LLC5 LOAD      ACCESS: 14233  HIT:     0  MISS: 14233  HIT %:     0  MISS %:   100  AVERAGE MISS PENALTY: 595.742
LLC5 RFO       ACCESS: 952031  HIT: 408742  MISS: 543289  HIT %: 42.9337  MISS %: 57.0663  AVERAGE MISS PENALTY: 695.557
LLC5 PREFETCH  ACCESS: 283107  HIT:   104  MISS: 283003  HIT %: 0.0367352  MISS %: 99.9633  AVERAGE MISS PENALTY: 572.601
LLC5 WRITEBACK ACCESS: 952107  HIT: 945680  MISS:  6427  HIT %: 99.325  MISS %: 0.675029  AVERAGE MISS PENALTY: 0
LLC5 PREFETCH  REQUESTED:     0  ISSUED:     0  USEFUL:     0  USELESS: 284184
 USEFUL LOAD PREFETCHES:          0 PREFETCH ISSUED TO LOWER LEVEL:     283003  ACCURACY: 0
 TIMELY PREFETCHES:          0 LATE PREFETCHES: 0 DROPPED PREFETCHES: 0
LLC5 AVERAGE MISS LATENCY: 647.517 cycles
LLC6 TOTAL     ACCESS: 2199501  HIT: 1351889  MISS: 847612  HIT %: 61.4634  MISS %: 38.5366  AVERAGE MISS PENALTY: 648.038
LLC6 LOAD      ACCESS: 13866  HIT:     0  MISS: 13866  HIT %:     0  MISS %:   100  AVERAGE MISS PENALTY: 597.037
LLC6 RFO       ACCESS: 951105  HIT: 407352  MISS: 543753  HIT %: 42.8293  MISS %: 57.1707  AVERAGE MISS PENALTY: 695.813
LLC6 PREFETCH  ACCESS: 283354  HIT:     0  MISS: 283354  HIT %:     0  MISS %:   100  AVERAGE MISS PENALTY: 574.037
LLC6 WRITEBACK ACCESS: 951176  HIT: 944537  MISS:  6639  HIT %: 99.302  MISS %: 0.697978  AVERAGE MISS PENALTY: 0
LLC6 PREFETCH  REQUESTED:     0  ISSUED:     0  USEFUL:     0  USELESS: 284299
 USEFUL LOAD PREFETCHES:          0 PREFETCH ISSUED TO LOWER LEVEL:     283354  ACCURACY: 0
 TIMELY PREFETCHES:          0 LATE PREFETCHES: 0 DROPPED PREFETCHES: 0
LLC6 AVERAGE MISS LATENCY: 648.038 cycles
LLC7 TOTAL     ACCESS: 2199502  HIT: 1352547  MISS: 846955  HIT %: 61.4933  MISS %: 38.5067  AVERAGE MISS PENALTY: 644.876
LLC7 LOAD      ACCESS: 13894  HIT:     0  MISS: 13894  HIT %:     0  MISS %:   100  AVERAGE MISS PENALTY: 606.367
LLC7 RFO       ACCESS: 951104  HIT: 408148  MISS: 542956  HIT %: 42.9131  MISS %: 57.0869  AVERAGE MISS PENALTY: 693.84
LLC7 PREFETCH  ACCESS: 283325  HIT:     0  MISS: 283325  HIT %:     0  MISS %:   100  AVERAGE MISS PENALTY: 568.363
LLC7 WRITEBACK ACCESS: 951179  HIT: 944399  MISS:  6780  HIT %: 99.2872  MISS %: 0.7128  AVERAGE MISS PENALTY: 0
LLC7 PREFETCH  REQUESTED:     0  ISSUED:     0  USEFUL:     0  USELESS: 284310
 USEFUL LOAD PREFETCHES:          0 PREFETCH ISSUED TO LOWER LEVEL:     283326  ACCURACY: 0
 TIMELY PREFETCHES:          0 LATE PREFETCHES: 0 DROPPED PREFETCHES: 0
LLC7 AVERAGE MISS LATENCY: 644.876 cycles
ROI Average ROB Stall Cycles:	20.0543
ROI Total ROB Stalls Cycles:	262097823
ROI TOTAL ROB counter      :	13069380
ROI Average Load ROB Stall Cycles:	121.104
ROI Total Load ROB Stalls Cycle  :	201583599
ROI Total Load ROB stalls Counter:	1664547
Major fault: 0 Minor fault: 127856

