
*** ChampSim Multicore Out-of-Order Simulator ***

Warmup Instructions: 200000000
Simulation Instructions: 200000000
Number of CPUs: 1
threads:1

L1I Configuration:
L1I_SET:64
L1I_WAY:8
L1I_RQ_SIZE:64
L1I_WQ_SIZE:64
L1I_PQ_SIZE:8
L1I_MSHR_SIZE:8

L1D Configuration:
L1D_SET:64
L1D_WAY:12
L1D_RQ_SIZE:64
L1D_WQ_SIZE:64
L1D_PQ_SIZE:8
L1D_MSHR_SIZE:16

L2C Configuration:
L2C_SET:1024
L2C_WAY:8
L2C_RQ_SIZE:32
L2C_WQ_SIZE:32
L2C_PQ_SIZE:16
L2C_MSHR_SIZE:32

LLC Configuration:
LLC_SET:2048
LLC_WAY:16
LLC SLICES:8
LLC_RQ_SIZE:64
LLC_WQ_SIZE:64
LLC_PQ_SIZE:32
LLC_MSHR_SIZE:64

Interconnect OFF
Attacker deprioritize is: OFF
Off-chip DRAM Size: 4096 MB Channels: 1 Width: 64-bit Data Rate: 3200 MT/s
PAGE SIZE in KB: 4.000000 
PAGE SIZE in MB: 0.003906 
PAGE offset in bits: 12 
CEASER-S_LLC:0
MIRAGE : 1
CEASER_LATENCY:3
REMAP : OFF
Partitions : 1
Multi-Step : OFF
BFS : OFF

CPU 0 runs /home/anubhav/spec_2017/619.lbm_s-3766B.champsimtrace.xz
CPU 0 Bimodal branch predictor
Initialize Hawkeye state
Initialize Hawkeye state
Initialize Hawkeye state
Initialize Hawkeye state
Initialize Hawkeye state
Initialize Hawkeye state
Initialize Hawkeye state
Initialize Hawkeye state
Heartbeat CPU 0 instructions: 10000001 cycles: 3512750 heartbeat IPC: 2.84677 cumulative IPC: 2.84677 (Simulation time: 0 hr 1 min 49 sec) 
 Total Blocks : 262144 Invalid Blocks : 113464
Heartbeat CPU 0 instructions: 20000003 cycles: 7032241 heartbeat IPC: 2.84132 cumulative IPC: 2.84404 (Simulation time: 0 hr 3 min 43 sec) 
 Total Blocks : 262144 Invalid Blocks : 49293
Heartbeat CPU 0 instructions: 30000000 cycles: 10544884 heartbeat IPC: 2.84686 cumulative IPC: 2.84498 (Simulation time: 0 hr 5 min 47 sec) 
 Total Blocks : 262144 Invalid Blocks : 23546
Heartbeat CPU 0 instructions: 40000003 cycles: 14064169 heartbeat IPC: 2.84149 cumulative IPC: 2.84411 (Simulation time: 0 hr 7 min 44 sec) 
 Total Blocks : 262144 Invalid Blocks : 11317
Heartbeat CPU 0 instructions: 50000001 cycles: 17583397 heartbeat IPC: 2.84153 cumulative IPC: 2.84359 (Simulation time: 0 hr 9 min 38 sec) 
 Total Blocks : 262144 Invalid Blocks : 5440
Heartbeat CPU 0 instructions: 60000001 cycles: 21095988 heartbeat IPC: 2.8469 cumulative IPC: 2.84414 (Simulation time: 0 hr 11 min 49 sec) 
 Total Blocks : 262144 Invalid Blocks : 2668
Heartbeat CPU 0 instructions: 70000003 cycles: 24615021 heartbeat IPC: 2.84169 cumulative IPC: 2.84379 (Simulation time: 0 hr 14 min 4 sec) 
 Total Blocks : 262144 Invalid Blocks : 1245
Heartbeat CPU 0 instructions: 80000001 cycles: 28127777 heartbeat IPC: 2.84677 cumulative IPC: 2.84416 (Simulation time: 0 hr 16 min 17 sec) 
 Total Blocks : 262144 Invalid Blocks : 608
Heartbeat CPU 0 instructions: 90000002 cycles: 31646806 heartbeat IPC: 2.84169 cumulative IPC: 2.84389 (Simulation time: 0 hr 18 min 21 sec) 
 Total Blocks : 262144 Invalid Blocks : 287
Heartbeat CPU 0 instructions: 100000000 cycles: 35159462 heartbeat IPC: 2.84685 cumulative IPC: 2.84418 (Simulation time: 0 hr 20 min 26 sec) 
 Total Blocks : 262144 Invalid Blocks : 127
Heartbeat CPU 0 instructions: 110000000 cycles: 38701476 heartbeat IPC: 2.82325 cumulative IPC: 2.84227 (Simulation time: 0 hr 22 min 32 sec) 
 Total Blocks : 262144 Invalid Blocks : 52
Heartbeat CPU 0 instructions: 120000002 cycles: 42258628 heartbeat IPC: 2.81124 cumulative IPC: 2.83966 (Simulation time: 0 hr 24 min 39 sec) 
 Total Blocks : 262144 Invalid Blocks : 16
Heartbeat CPU 0 instructions: 130000001 cycles: 45909918 heartbeat IPC: 2.73876 cumulative IPC: 2.83163 (Simulation time: 0 hr 27 min 0 sec) 
 Total Blocks : 262144 Invalid Blocks : 8
Heartbeat CPU 0 instructions: 140000001 cycles: 49622310 heartbeat IPC: 2.69368 cumulative IPC: 2.82131 (Simulation time: 0 hr 29 min 29 sec) 
 Total Blocks : 262144 Invalid Blocks : 3
Heartbeat CPU 0 instructions: 150000001 cycles: 53430395 heartbeat IPC: 2.62599 cumulative IPC: 2.80739 (Simulation time: 0 hr 32 min 11 sec) 
 Total Blocks : 262144 Invalid Blocks : 1
Heartbeat CPU 0 instructions: 160000000 cycles: 57406902 heartbeat IPC: 2.51477 cumulative IPC: 2.78712 (Simulation time: 0 hr 35 min 21 sec) 
 Total Blocks : 262144 Invalid Blocks : 0
Heartbeat CPU 0 instructions: 170000002 cycles: 61568518 heartbeat IPC: 2.40291 cumulative IPC: 2.76115 (Simulation time: 0 hr 39 min 7 sec) 
 Total Blocks : 262144 Invalid Blocks : 0
Heartbeat CPU 0 instructions: 180000002 cycles: 65812063 heartbeat IPC: 2.35652 cumulative IPC: 2.73506 (Simulation time: 0 hr 43 min 20 sec) 
 Total Blocks : 262144 Invalid Blocks : 0
Heartbeat CPU 0 instructions: 190000002 cycles: 70115452 heartbeat IPC: 2.32375 cumulative IPC: 2.70982 (Simulation time: 0 hr 47 min 56 sec) 
 Total Blocks : 262144 Invalid Blocks : 0
Heartbeat CPU 0 instructions: 200000000 cycles: 74323578 heartbeat IPC: 2.37635 cumulative IPC: 2.69094 (Simulation time: 0 hr 53 min 9 sec) 
 Total Blocks : 262144 Invalid Blocks : 0

Warmup complete CPU 0 instructions: 200000004 cycles: 74323579 (Simulation time: 0 hr 53 min 9 sec) 

Heartbeat CPU 0 instructions: 210000001 cycles: 97713229 heartbeat IPC: 0.42754 cumulative IPC: 0.427539 (Simulation time: 1 hr 1 min 28 sec) 
 Total Blocks : 262144 Invalid Blocks : 0
Heartbeat CPU 0 instructions: 220000000 cycles: 118955725 heartbeat IPC: 0.470754 cumulative IPC: 0.448107 (Simulation time: 1 hr 9 min 12 sec) 
 Total Blocks : 262144 Invalid Blocks : 0
Heartbeat CPU 0 instructions: 230000003 cycles: 139895321 heartbeat IPC: 0.477564 cumulative IPC: 0.457514 (Simulation time: 1 hr 16 min 42 sec) 
 Total Blocks : 262144 Invalid Blocks : 0
Heartbeat CPU 0 instructions: 240000003 cycles: 159802589 heartbeat IPC: 0.502329 cumulative IPC: 0.467951 (Simulation time: 1 hr 23 min 17 sec) 
 Total Blocks : 262144 Invalid Blocks : 0
Heartbeat CPU 0 instructions: 250000003 cycles: 179736928 heartbeat IPC: 0.501647 cumulative IPC: 0.474323 (Simulation time: 1 hr 28 min 40 sec) 
 Total Blocks : 262144 Invalid Blocks : 0
Heartbeat CPU 0 instructions: 260000003 cycles: 199633621 heartbeat IPC: 0.502596 cumulative IPC: 0.478812 (Simulation time: 1 hr 34 min 4 sec) 
 Total Blocks : 262144 Invalid Blocks : 0
Heartbeat CPU 0 instructions: 270000000 cycles: 218874341 heartbeat IPC: 0.519731 cumulative IPC: 0.484259 (Simulation time: 1 hr 39 min 26 sec) 
 Total Blocks : 262144 Invalid Blocks : 0
Heartbeat CPU 0 instructions: 280000002 cycles: 238143316 heartbeat IPC: 0.518969 cumulative IPC: 0.488342 (Simulation time: 1 hr 46 min 30 sec) 
 Total Blocks : 262144 Invalid Blocks : 0
Heartbeat CPU 0 instructions: 290000002 cycles: 257649632 heartbeat IPC: 0.512654 cumulative IPC: 0.490929 (Simulation time: 1 hr 51 min 51 sec) 
 Total Blocks : 262144 Invalid Blocks : 0
Heartbeat CPU 0 instructions: 300000002 cycles: 277679468 heartbeat IPC: 0.499255 cumulative IPC: 0.491749 (Simulation time: 1 hr 57 min 22 sec) 
 Total Blocks : 262144 Invalid Blocks : 0
Heartbeat CPU 0 instructions: 310000001 cycles: 298422337 heartbeat IPC: 0.482093 cumulative IPC: 0.490855 (Simulation time: 2 hr 3 min 7 sec) 
 Total Blocks : 262144 Invalid Blocks : 0
Heartbeat CPU 0 instructions: 320000001 cycles: 319328052 heartbeat IPC: 0.478338 cumulative IPC: 0.489787 (Simulation time: 2 hr 9 min 0 sec) 
 Total Blocks : 262144 Invalid Blocks : 0
Heartbeat CPU 0 instructions: 330000000 cycles: 340146558 heartbeat IPC: 0.480342 cumulative IPC: 0.489047 (Simulation time: 2 hr 14 min 43 sec) 
 Total Blocks : 262144 Invalid Blocks : 0
Heartbeat CPU 0 instructions: 340000002 cycles: 360168662 heartbeat IPC: 0.499448 cumulative IPC: 0.489776 (Simulation time: 2 hr 20 min 10 sec) 
 Total Blocks : 262144 Invalid Blocks : 0
Heartbeat CPU 0 instructions: 350000000 cycles: 380660405 heartbeat IPC: 0.488001 cumulative IPC: 0.489657 (Simulation time: 2 hr 25 min 43 sec) 
 Total Blocks : 262144 Invalid Blocks : 0
Heartbeat CPU 0 instructions: 360000002 cycles: 401155264 heartbeat IPC: 0.487927 cumulative IPC: 0.489549 (Simulation time: 2 hr 31 min 14 sec) 
 Total Blocks : 262144 Invalid Blocks : 0
Heartbeat CPU 0 instructions: 370000003 cycles: 421256690 heartbeat IPC: 0.497477 cumulative IPC: 0.490008 (Simulation time: 2 hr 36 min 35 sec) 
 Total Blocks : 262144 Invalid Blocks : 0
Heartbeat CPU 0 instructions: 380000003 cycles: 441420699 heartbeat IPC: 0.495933 cumulative IPC: 0.490333 (Simulation time: 2 hr 41 min 58 sec) 
 Total Blocks : 262144 Invalid Blocks : 0
Heartbeat CPU 0 instructions: 390000000 cycles: 461016195 heartbeat IPC: 0.510321 cumulative IPC: 0.491346 (Simulation time: 2 hr 47 min 9 sec) 
 Total Blocks : 262144 Invalid Blocks : 0
Heartbeat CPU 0 instructions: 400000003 cycles: 481482282 heartbeat IPC: 0.488613 cumulative IPC: 0.491209 (Simulation time: 2 hr 52 min 34 sec) 
 Total Blocks : 262144 Invalid Blocks : 0
Finished CPU 0 instructions: 200000003 cycles: 407158704 cumulative IPC: 0.491209 (Simulation time: 2 hr 52 min 34 sec) 

CPU 0 Branch Prediction Accuracy: 94.9078% MPKI: 0.91396 Average ROB Occupancy at Mispredict: 271.738

ChampSim completed all CPUs

Region of Interest Statistics

CPU 0 cumulative IPC: 0.491209 instructions: 200000003 cycles: 407158704
ITLB TOTAL     ACCESS: 30678376  HIT: 30678376  MISS:     0  HIT %:   100  MISS %:     0  AVERAGE MISS PENALTY: 0
ITLB LOAD      ACCESS: 30678376  HIT: 30678376  MISS:     0  HIT %:   100  MISS %:     0  AVERAGE MISS PENALTY: 0
ITLB RFO       ACCESS:     0  HIT:     0  MISS:     0  HIT %:     0  MISS %:     0  AVERAGE MISS PENALTY: 0
ITLB PREFETCH  ACCESS:     0  HIT:     0  MISS:     0  HIT %:     0  MISS %:     0  AVERAGE MISS PENALTY: 0
ITLB WRITEBACK ACCESS:     0  HIT:     0  MISS:     0  HIT %:     0  MISS %:     0  AVERAGE MISS PENALTY: 0
ITLB PREFETCH  REQUESTED:     0  ISSUED:     0  USEFUL:     0  USELESS:     0
 USEFUL LOAD PREFETCHES:          0 PREFETCH ISSUED TO LOWER LEVEL:          0  ACCURACY: -nan
 TIMELY PREFETCHES:          0 LATE PREFETCHES: 0 DROPPED PREFETCHES: 0
ITLB AVERAGE MISS LATENCY: -nan cycles
DTLB TOTAL     ACCESS: 40582844  HIT: 40308878  MISS: 273966  HIT %: 99.3249  MISS %: 0.675078  AVERAGE MISS PENALTY: 88.2723
DTLB LOAD      ACCESS: 19684887  HIT: 19647711  MISS: 37176  HIT %: 99.8111  MISS %: 0.188856  AVERAGE MISS PENALTY: 109
DTLB RFO       ACCESS: 20897957  HIT: 20661167  MISS: 236790  HIT %: 98.8669  MISS %: 1.13308  AVERAGE MISS PENALTY: 85.0181
DTLB PREFETCH  ACCESS:     0  HIT:     0  MISS:     0  HIT %:     0  MISS %:     0  AVERAGE MISS PENALTY: 0
DTLB WRITEBACK ACCESS:     0  HIT:     0  MISS:     0  HIT %:     0  MISS %:     0  AVERAGE MISS PENALTY: 0
DTLB PREFETCH  REQUESTED:     0  ISSUED:     0  USEFUL:     0  USELESS:     0
 USEFUL LOAD PREFETCHES:          0 PREFETCH ISSUED TO LOWER LEVEL:          0  ACCURACY: -nan
 TIMELY PREFETCHES:          0 LATE PREFETCHES: 0 DROPPED PREFETCHES: 0
DTLB AVERAGE MISS LATENCY: 88.2723 cycles
STLB TOTAL     ACCESS: 273966  HIT: 125309  MISS: 148657  HIT %: 45.7389  MISS %: 54.2611  AVERAGE MISS PENALTY: 100
STLB LOAD      ACCESS: 37176  HIT:     0  MISS: 37176  HIT %:     0  MISS %:   100  AVERAGE MISS PENALTY: 100
STLB RFO       ACCESS: 236790  HIT: 125309  MISS: 111481  HIT %: 52.9199  MISS %: 47.0801  AVERAGE MISS PENALTY: 100
STLB PREFETCH  ACCESS:     0  HIT:     0  MISS:     0  HIT %:     0  MISS %:     0  AVERAGE MISS PENALTY: 0
STLB WRITEBACK ACCESS:     0  HIT:     0  MISS:     0  HIT %:     0  MISS %:     0  AVERAGE MISS PENALTY: 0
STLB PREFETCH  REQUESTED:     0  ISSUED:     0  USEFUL:     0  USELESS:     0
 USEFUL LOAD PREFETCHES:          0 PREFETCH ISSUED TO LOWER LEVEL:          0  ACCURACY: -nan
 TIMELY PREFETCHES:          0 LATE PREFETCHES: 0 DROPPED PREFETCHES: 0
STLB AVERAGE MISS LATENCY: 100 cycles
L1D TOTAL     ACCESS: 58409856  HIT: 42704676  MISS: 15705180  HIT %: 73.1121  MISS %: 26.8879  AVERAGE MISS PENALTY: 7.21584e+06
L1D LOAD      ACCESS: 15162160  HIT: 13870778  MISS: 1291382  HIT %: 91.4829  MISS %: 8.51714  AVERAGE MISS PENALTY: 8.77513e+07
L1D RFO       ACCESS: 33204488  HIT: 19888457  MISS: 13316031  HIT %: 59.8969  MISS %: 40.1031  AVERAGE MISS PENALTY: 395.869
L1D PREFETCH  ACCESS: 10043208  HIT: 8945441  MISS: 1097767  HIT %: 89.0696  MISS %: 10.9304  AVERAGE MISS PENALTY: 251.194
L1D WRITEBACK ACCESS:     0  HIT:     0  MISS:     0  HIT %:     0  MISS %:     0  AVERAGE MISS PENALTY: 0
L1D PREFETCH  REQUESTED: 38415605  ISSUED: 21291648  USEFUL: 1086661  USELESS: 11111
 USEFUL LOAD PREFETCHES:    1086661 PREFETCH ISSUED TO LOWER LEVEL:  526510799  ACCURACY: 0.206389
 TIMELY PREFETCHES:    1086661 LATE PREFETCHES: 1280066 DROPPED PREFETCHES: 17123957
L1D AVERAGE MISS LATENCY: 376.124 cycles
L1I TOTAL     ACCESS: 42403339  HIT: 42403339  MISS:     0  HIT %:   100  MISS %:     0  AVERAGE MISS PENALTY: 0
L1I LOAD      ACCESS: 42403339  HIT: 42403339  MISS:     0  HIT %:   100  MISS %:     0  AVERAGE MISS PENALTY: 0
L1I RFO       ACCESS:     0  HIT:     0  MISS:     0  HIT %:     0  MISS %:     0  AVERAGE MISS PENALTY: 0
L1I PREFETCH  ACCESS:     0  HIT:     0  MISS:     0  HIT %:     0  MISS %:     0  AVERAGE MISS PENALTY: 0
L1I WRITEBACK ACCESS:     0  HIT:     0  MISS:     0  HIT %:     0  MISS %:     0  AVERAGE MISS PENALTY: 0
L1I PREFETCH  REQUESTED:     0  ISSUED:     0  USEFUL:     0  USELESS:     0
 USEFUL LOAD PREFETCHES:          0 PREFETCH ISSUED TO LOWER LEVEL:          0  ACCURACY: -nan
 TIMELY PREFETCHES:          0 LATE PREFETCHES: 0 DROPPED PREFETCHES: 0
L1I AVERAGE MISS LATENCY: -nan cycles
L2C TOTAL     ACCESS: 30905448  HIT: 20915784  MISS: 9989664  HIT %: 67.6767  MISS %: 32.3233  AVERAGE MISS PENALTY: 1.94673e+07
L2C LOAD      ACCESS: 1268677  HIT: 447045  MISS: 821632  HIT %: 35.2371  MISS %: 64.7629  AVERAGE MISS PENALTY: 2.36682e+08
L2C RFO       ACCESS: 13316025  HIT: 5705237  MISS: 7610788  HIT %: 42.8449  MISS %: 57.1551  AVERAGE MISS PENALTY: 664.077
L2C PREFETCH  ACCESS: 3004713  HIT: 1447919  MISS: 1556794  HIT %: 48.1883  MISS %: 51.8117  AVERAGE MISS PENALTY: 617.158
L2C WRITEBACK ACCESS: 13316033  HIT: 13315583  MISS:   450  HIT %: 99.9966  MISS %: 0.00337938  AVERAGE MISS PENALTY: 0
L2C PREFETCH  REQUESTED: 7055655  ISSUED: 7055621  USEFUL: 447009  USELESS: 1111767
 USEFUL LOAD PREFETCHES:     447009 PREFETCH ISSUED TO LOWER LEVEL:    4770274  ACCURACY: 9.37072
 TIMELY PREFETCHES:     447009 LATE PREFETCHES: 1144426 DROPPED PREFETCHES: 34
L2C AVERAGE MISS LATENCY: 635.498 cycles
LLC0 TOTAL     ACCESS: 2199499  HIT: 1152849  MISS: 1046650  HIT %: 52.4142  MISS %: 47.5858  AVERAGE MISS PENALTY: 747.614
LLC0 LOAD      ACCESS: 48022  HIT:     0  MISS: 48022  HIT %:     0  MISS %:   100  AVERAGE MISS PENALTY: 643.741
LLC0 RFO       ACCESS: 951105  HIT: 217814  MISS: 733291  HIT %: 22.9012  MISS %: 77.0988  AVERAGE MISS PENALTY: 796.887
LLC0 PREFETCH  ACCESS: 249198  HIT:     0  MISS: 249198  HIT %:     0  MISS %:   100  AVERAGE MISS PENALTY: 671.06
LLC0 WRITEBACK ACCESS: 951174  HIT: 935035  MISS: 16139  HIT %: 98.3033  MISS %: 1.69675  AVERAGE MISS PENALTY: 0
LLC0 PREFETCH  REQUESTED:     0  ISSUED:     0  USEFUL:     0  USELESS: 249793
 USEFUL LOAD PREFETCHES:          0 PREFETCH ISSUED TO LOWER LEVEL:     249198  ACCURACY: 0
 TIMELY PREFETCHES:          0 LATE PREFETCHES: 0 DROPPED PREFETCHES: 0
LLC0 AVERAGE MISS LATENCY: 747.614 cycles
Deadblocks : 40084 Deadblock percentage : 83.4701

LLC1 TOTAL     ACCESS: 2199635  HIT: 1152507  MISS: 1047128  HIT %: 52.3954  MISS %: 47.6046  AVERAGE MISS PENALTY: 749.142
LLC1 LOAD      ACCESS: 34537  HIT:    54  MISS: 34483  HIT %: 0.156354  MISS %: 99.8436  AVERAGE MISS PENALTY: 625.671
LLC1 RFO       ACCESS: 951130  HIT: 217480  MISS: 733650  HIT %: 22.8654  MISS %: 77.1346  AVERAGE MISS PENALTY: 797.447
LLC1 PREFETCH  ACCESS: 262759  HIT:     0  MISS: 262759  HIT %:     0  MISS %:   100  AVERAGE MISS PENALTY: 676.764
LLC1 WRITEBACK ACCESS: 951209  HIT: 934973  MISS: 16236  HIT %: 98.2931  MISS %: 1.70688  AVERAGE MISS PENALTY: 0
LLC1 PREFETCH  REQUESTED:     0  ISSUED:     0  USEFUL:     0  USELESS: 263228
 USEFUL LOAD PREFETCHES:          0 PREFETCH ISSUED TO LOWER LEVEL:     262759  ACCURACY: 0
 TIMELY PREFETCHES:          0 LATE PREFETCHES: 0 DROPPED PREFETCHES: 0
LLC1 AVERAGE MISS LATENCY: 749.142 cycles
LLC2 TOTAL     ACCESS: 2199606  HIT: 1152178  MISS: 1047428  HIT %: 52.3811  MISS %: 47.6189  AVERAGE MISS PENALTY: 748.663
LLC2 LOAD      ACCESS: 23850  HIT:    60  MISS: 23790  HIT %: 0.251572  MISS %: 99.7484  AVERAGE MISS PENALTY: 643.481
LLC2 RFO       ACCESS: 951145  HIT: 217377  MISS: 733768  HIT %: 22.8542  MISS %: 77.1458  AVERAGE MISS PENALTY: 797.518
LLC2 PREFETCH  ACCESS: 273466  HIT:     8  MISS: 273458  HIT %: 0.00292541  MISS %: 99.9971  AVERAGE MISS PENALTY: 671.654
LLC2 WRITEBACK ACCESS: 951145  HIT: 934733  MISS: 16412  HIT %: 98.2745  MISS %: 1.7255  AVERAGE MISS PENALTY: 0
LLC2 PREFETCH  REQUESTED:     0  ISSUED:     0  USEFUL:     0  USELESS: 273834
 USEFUL LOAD PREFETCHES:          0 PREFETCH ISSUED TO LOWER LEVEL:     273458  ACCURACY: 0
 TIMELY PREFETCHES:          0 LATE PREFETCHES: 0 DROPPED PREFETCHES: 0
LLC2 AVERAGE MISS LATENCY: 748.663 cycles
LLC3 TOTAL     ACCESS: 2199614  HIT: 1152234  MISS: 1047380  HIT %: 52.3835  MISS %: 47.6165  AVERAGE MISS PENALTY: 822.346
LLC3 LOAD      ACCESS: 16677  HIT:    49  MISS: 16628  HIT %: 0.293818  MISS %: 99.7062  AVERAGE MISS PENALTY: 644.983
LLC3 RFO       ACCESS: 951145  HIT: 217005  MISS: 734140  HIT %: 22.8151  MISS %: 77.1849  AVERAGE MISS PENALTY: 902.594
LLC3 PREFETCH  ACCESS: 280647  HIT:    18  MISS: 280629  HIT %: 0.00641375  MISS %: 99.9936  AVERAGE MISS PENALTY: 669.756
LLC3 WRITEBACK ACCESS: 951145  HIT: 935162  MISS: 15983  HIT %: 98.3196  MISS %: 1.6804  AVERAGE MISS PENALTY: 0
LLC3 PREFETCH  REQUESTED:     0  ISSUED:     0  USEFUL:     5  USELESS: 281074
 USEFUL LOAD PREFETCHES:          5 PREFETCH ISSUED TO LOWER LEVEL:     280630  ACCURACY: 0.00178171
 TIMELY PREFETCHES:          5 LATE PREFETCHES: 0 DROPPED PREFETCHES: 0
LLC3 AVERAGE MISS LATENCY: 751.384 cycles
LLC4 TOTAL     ACCESS: 2201549  HIT: 1153938  MISS: 1047611  HIT %: 52.4148  MISS %: 47.5852  AVERAGE MISS PENALTY: 755.029
LLC4 LOAD      ACCESS: 14655  HIT:     0  MISS: 14655  HIT %:     0  MISS %:   100  AVERAGE MISS PENALTY: 649.05
LLC4 RFO       ACCESS: 952027  HIT: 217849  MISS: 734178  HIT %: 22.8826  MISS %: 77.1174  AVERAGE MISS PENALTY: 804.159
LLC4 PREFETCH  ACCESS: 282763  HIT:   170  MISS: 282593  HIT %: 0.060121  MISS %: 99.9399  AVERAGE MISS PENALTY: 676.126
LLC4 WRITEBACK ACCESS: 952104  HIT: 935919  MISS: 16185  HIT %: 98.3001  MISS %: 1.69992  AVERAGE MISS PENALTY: 0
LLC4 PREFETCH  REQUESTED:     0  ISSUED:     0  USEFUL:     0  USELESS: 283116
 USEFUL LOAD PREFETCHES:          0 PREFETCH ISSUED TO LOWER LEVEL:     282594  ACCURACY: 0
 TIMELY PREFETCHES:          0 LATE PREFETCHES: 0 DROPPED PREFETCHES: 0
LLC4 AVERAGE MISS LATENCY: 755.029 cycles
LLC5 TOTAL     ACCESS: 2201548  HIT: 1154623  MISS: 1046925  HIT %: 52.446  MISS %: 47.554  AVERAGE MISS PENALTY: 755.398
LLC5 LOAD      ACCESS: 15519  HIT:     0  MISS: 15519  HIT %:     0  MISS %:   100  AVERAGE MISS PENALTY: 654.452
LLC5 RFO       ACCESS: 952028  HIT: 218402  MISS: 733626  HIT %: 22.9407  MISS %: 77.0593  AVERAGE MISS PENALTY: 803.064
LLC5 PREFETCH  ACCESS: 281894  HIT:   167  MISS: 281727  HIT %: 0.0592421  MISS %: 99.9408  AVERAGE MISS PENALTY: 679.879
LLC5 WRITEBACK ACCESS: 952107  HIT: 936054  MISS: 16053  HIT %: 98.314  MISS %: 1.68605  AVERAGE MISS PENALTY: 0
LLC5 PREFETCH  REQUESTED:     0  ISSUED:     0  USEFUL:     0  USELESS: 282053
 USEFUL LOAD PREFETCHES:          0 PREFETCH ISSUED TO LOWER LEVEL:     281727  ACCURACY: 0
 TIMELY PREFETCHES:          0 LATE PREFETCHES: 0 DROPPED PREFETCHES: 0
LLC5 AVERAGE MISS LATENCY: 755.399 cycles
LLC6 TOTAL     ACCESS: 2199503  HIT: 1152519  MISS: 1046984  HIT %: 52.3991  MISS %: 47.6009  AVERAGE MISS PENALTY: 756.57
LLC6 LOAD      ACCESS: 15021  HIT:     0  MISS: 15021  HIT %:     0  MISS %:   100  AVERAGE MISS PENALTY: 648.616
LLC6 RFO       ACCESS: 951105  HIT: 217416  MISS: 733689  HIT %: 22.8593  MISS %: 77.1407  AVERAGE MISS PENALTY: 804.973
LLC6 PREFETCH  ACCESS: 282199  HIT:     0  MISS: 282199  HIT %:     0  MISS %:   100  AVERAGE MISS PENALTY: 679.57
LLC6 WRITEBACK ACCESS: 951178  HIT: 935103  MISS: 16075  HIT %: 98.31  MISS %: 1.69001  AVERAGE MISS PENALTY: 0
LLC6 PREFETCH  REQUESTED:     0  ISSUED:     0  USEFUL:     0  USELESS: 282579
 USEFUL LOAD PREFETCHES:          0 PREFETCH ISSUED TO LOWER LEVEL:     282199  ACCURACY: 0
 TIMELY PREFETCHES:          0 LATE PREFETCHES: 0 DROPPED PREFETCHES: 0
LLC6 AVERAGE MISS LATENCY: 756.57 cycles
LLC7 TOTAL     ACCESS: 2199502  HIT: 1152383  MISS: 1047119  HIT %: 52.3929  MISS %: 47.6071  AVERAGE MISS PENALTY: 754.794
LLC7 LOAD      ACCESS: 15406  HIT:     0  MISS: 15406  HIT %:     0  MISS %:   100  AVERAGE MISS PENALTY: 653.348
LLC7 RFO       ACCESS: 951104  HIT: 217410  MISS: 733694  HIT %: 22.8587  MISS %: 77.1413  AVERAGE MISS PENALTY: 805.331
LLC7 PREFETCH  ACCESS: 281813  HIT:     0  MISS: 281813  HIT %:     0  MISS %:   100  AVERAGE MISS PENALTY: 672.175
LLC7 WRITEBACK ACCESS: 951179  HIT: 934973  MISS: 16206  HIT %: 98.2962  MISS %: 1.70378  AVERAGE MISS PENALTY: 0
LLC7 PREFETCH  REQUESTED:     0  ISSUED:     0  USEFUL:     0  USELESS: 282150
 USEFUL LOAD PREFETCHES:          0 PREFETCH ISSUED TO LOWER LEVEL:     281813  ACCURACY: 0
 TIMELY PREFETCHES:          0 LATE PREFETCHES: 0 DROPPED PREFETCHES: 0
LLC7 AVERAGE MISS LATENCY: 754.794 cycles
ROI Average ROB Stall Cycles:	26.7215
ROI Total ROB Stalls Cycles:	342941319
ROI TOTAL ROB counter      :	12833902
ROI Average Load ROB Stall Cycles:	163.524
ROI Total Load ROB Stalls Cycle  :	281894790
ROI Total Load ROB stalls Counter:	1723871
Major fault: 0 Minor fault: 127856

