
*** ChampSim Multicore Out-of-Order Simulator ***

Warmup Instructions: 200000000
Simulation Instructions: 200000000
Number of CPUs: 1
threads:1

L1I Configuration:
L1I_SET:64
L1I_WAY:8
L1I_RQ_SIZE:64
L1I_WQ_SIZE:64
L1I_PQ_SIZE:8
L1I_MSHR_SIZE:8

L1D Configuration:
L1D_SET:64
L1D_WAY:12
L1D_RQ_SIZE:64
L1D_WQ_SIZE:64
L1D_PQ_SIZE:8
L1D_MSHR_SIZE:16

L2C Configuration:
L2C_SET:1024
L2C_WAY:8
L2C_RQ_SIZE:32
L2C_WQ_SIZE:32
L2C_PQ_SIZE:16
L2C_MSHR_SIZE:32

LLC Configuration:
LLC_SET:2048
LLC_WAY:16
LLC SLICES:8
LLC_RQ_SIZE:64
LLC_WQ_SIZE:64
LLC_PQ_SIZE:32
LLC_MSHR_SIZE:64

Interconnect OFF
Attacker deprioritize is: OFF
Off-chip DRAM Size: 4096 MB Channels: 1 Width: 64-bit Data Rate: 3200 MT/s
PAGE SIZE in KB: 4.000000 
PAGE SIZE in MB: 0.003906 
PAGE offset in bits: 12 
CEASER-S_LLC:0
MIRAGE : 1
CEASER_LATENCY:3
REMAP : OFF
Partitions : 1
Multi-Step : OFF
BFS : OFF

CPU 0 runs /home/anubhav/spec_2017/619.lbm_s-2677B.champsimtrace.xz
CPU 0 Bimodal branch predictor
Initialize Hawkeye state
Initialize Hawkeye state
Initialize Hawkeye state
Initialize Hawkeye state
Initialize Hawkeye state
Initialize Hawkeye state
Initialize Hawkeye state
Initialize Hawkeye state
Heartbeat CPU 0 instructions: 10000003 cycles: 4004239 heartbeat IPC: 2.49735 cumulative IPC: 2.49735 (Simulation time: 0 hr 2 min 17 sec) 
 Total Blocks : 262144 Invalid Blocks : 42133
Heartbeat CPU 0 instructions: 20000001 cycles: 7982655 heartbeat IPC: 2.51356 cumulative IPC: 2.50543 (Simulation time: 0 hr 4 min 43 sec) 
 Total Blocks : 262144 Invalid Blocks : 8619
Heartbeat CPU 0 instructions: 30000000 cycles: 11984759 heartbeat IPC: 2.49869 cumulative IPC: 2.50318 (Simulation time: 0 hr 7 min 23 sec) 
 Total Blocks : 262144 Invalid Blocks : 1733
Heartbeat CPU 0 instructions: 40000001 cycles: 15977235 heartbeat IPC: 2.50471 cumulative IPC: 2.50356 (Simulation time: 0 hr 10 min 9 sec) 
 Total Blocks : 262144 Invalid Blocks : 361
Heartbeat CPU 0 instructions: 50000000 cycles: 19987304 heartbeat IPC: 2.49372 cumulative IPC: 2.50159 (Simulation time: 0 hr 12 min 57 sec) 
 Total Blocks : 262144 Invalid Blocks : 70
Heartbeat CPU 0 instructions: 60000002 cycles: 23993996 heartbeat IPC: 2.49583 cumulative IPC: 2.50063 (Simulation time: 0 hr 15 min 58 sec) 
 Total Blocks : 262144 Invalid Blocks : 17
Heartbeat CPU 0 instructions: 70000001 cycles: 27988720 heartbeat IPC: 2.5033 cumulative IPC: 2.50101 (Simulation time: 0 hr 19 min 11 sec) 
 Total Blocks : 262144 Invalid Blocks : 6
Heartbeat CPU 0 instructions: 80000000 cycles: 31987331 heartbeat IPC: 2.50087 cumulative IPC: 2.50099 (Simulation time: 0 hr 22 min 39 sec) 
 Total Blocks : 262144 Invalid Blocks : 3
Heartbeat CPU 0 instructions: 90000001 cycles: 36006524 heartbeat IPC: 2.48806 cumulative IPC: 2.49955 (Simulation time: 0 hr 26 min 16 sec) 
 Total Blocks : 262144 Invalid Blocks : 0
Heartbeat CPU 0 instructions: 100000001 cycles: 40016779 heartbeat IPC: 2.49361 cumulative IPC: 2.49895 (Simulation time: 0 hr 29 min 56 sec) 
 Total Blocks : 262144 Invalid Blocks : 0
Heartbeat CPU 0 instructions: 110000000 cycles: 44040436 heartbeat IPC: 2.4853 cumulative IPC: 2.4977 (Simulation time: 0 hr 33 min 57 sec) 
 Total Blocks : 262144 Invalid Blocks : 0
Heartbeat CPU 0 instructions: 120000003 cycles: 48043713 heartbeat IPC: 2.49795 cumulative IPC: 2.49773 (Simulation time: 0 hr 37 min 52 sec) 
 Total Blocks : 262144 Invalid Blocks : 0
Heartbeat CPU 0 instructions: 130000001 cycles: 52046145 heartbeat IPC: 2.49848 cumulative IPC: 2.49778 (Simulation time: 0 hr 41 min 57 sec) 
 Total Blocks : 262144 Invalid Blocks : 0
Heartbeat CPU 0 instructions: 140000000 cycles: 56058308 heartbeat IPC: 2.49242 cumulative IPC: 2.4974 (Simulation time: 0 hr 46 min 21 sec) 
 Total Blocks : 262144 Invalid Blocks : 0
Heartbeat CPU 0 instructions: 150000000 cycles: 60077737 heartbeat IPC: 2.48792 cumulative IPC: 2.49677 (Simulation time: 0 hr 51 min 0 sec) 
 Total Blocks : 262144 Invalid Blocks : 0
Heartbeat CPU 0 instructions: 160000001 cycles: 64078420 heartbeat IPC: 2.49957 cumulative IPC: 2.49694 (Simulation time: 0 hr 55 min 52 sec) 
 Total Blocks : 262144 Invalid Blocks : 0
Heartbeat CPU 0 instructions: 170000002 cycles: 68075699 heartbeat IPC: 2.5017 cumulative IPC: 2.49722 (Simulation time: 1 hr 0 min 28 sec) 
 Total Blocks : 262144 Invalid Blocks : 0
Heartbeat CPU 0 instructions: 180000003 cycles: 72044333 heartbeat IPC: 2.51976 cumulative IPC: 2.49846 (Simulation time: 1 hr 5 min 16 sec) 
 Total Blocks : 262144 Invalid Blocks : 0
Heartbeat CPU 0 instruction.s: 190000003 cycles: 76051599 heartbeat IPC: 2.49547 cumulative IPC: 2.4983 (Simulation time: 1 hr 10 min 15 sec) 
 Total Blocks : 262144 Invalid Blocks : 0
Heartbeat CPU 0 instructions: 200000003 cycles: 80046145 heartbeat IPC: 2.50341 cumulative IPC: 2.49856 (Simulation time: 1 hr 15 min 29 sec) 
 Total Blocks : 262144 Invalid Blocks : 0

Warmup complete CPU 0 instructions: 200000003 cycles: 80046145 (Simulation time: 1 hr 15 min 29 sec) 

Heartbeat CPU 0 instructions: 210000002 cycles: 100156015 heartbeat IPC: 0.497268 cumulative IPC: 0.497268 (Simulation time: 1 hr 22 min 58 sec) 
 Total Blocks : 262144 Invalid Blocks : 0
Heartbeat CPU 0 instructions: 220000000 cycles: 120848279 heartbeat IPC: 0.483272 cumulative IPC: 0.49017 (Simulation time: 1 hr 29 min 48 sec) 
 Total Blocks : 262144 Invalid Blocks : 0
Heartbeat CPU 0 instructions: 230000003 cycles: 141721153 heartbeat IPC: 0.479091 cumulative IPC: 0.486421 (Simulation time: 1 hr 35 min 39 sec) 
 Total Blocks : 262144 Invalid Blocks : 0
Heartbeat CPU 0 instructions: 240000003 cycles: 163386327 heartbeat IPC: 0.46157 cumulative IPC: 0.479961 (Simulation time: 1 hr 41 min 58 sec) 
 Total Blocks : 262144 Invalid Blocks : 0
 Heartbeat CPU 0 instructions: 250000003 cycles: 184736556 heartbeat IPC: 0.468379 cumulative IPC: 0.477599 (Simulation time: 1 hr 48 min 13 sec) 
 Total Blocks : 262144 Invalid Blocks : Heartbeat CPU 0 instructions: 260000002 cycles: 205913803 heartbeat IPC: 0.472205 cumulative IPC: 0.476691 (Simulation time: 1 hr 54 min 25 sec) 
 Total Blocks : 262144 Invalid Blocks : 0
Heartbeat CPU 0 instructions: 270000000 cycles: 226840073 heartbeat IPC: 0.477868 cumulative IPC: 0.476859 (Simulation time: 2 hr 0 min 39 sec) 
 Total Blocks : 262144 Invalid Blocks : 0
Heartbeat CPU 0 instructions: 280000000 cycles: 247237896 heartbeat IPC: 0.490248 cumulative IPC: 0.478492 (Simulation time: 2 hr 6 min 52 sec) 
 Total Blocks : 262144 Invalid Blocks : 0
Heartbeat CPU 0 instructions: 290000003 cycles: 267332814 heartbeat IPC: 0.497638 cumulative IPC: 0.480547 (Simulation time: 2 hr 12 min 53 sec) 
 Total Blocks : 262144 Invalid Blocks : 0
Heartbeat CPU 0 instructions: 300000003 cycles: 287516211 heartbeat IPC: 0.495457 cumulative IPC: 0.481997 (Simulation time: 2 hr 18 min 44 sec) 
 Total Blocks : 262144 Invalid Blocks : 0
Heartbeat CPU 0 instructions: 310000002 cycles: 307614354 heartbeat IPC: 0.497558 cumulative IPC: 0.483372 (Simulation time: 2 hr 24 min 34 sec) 
 Total Blocks : 262144 Invalid Blocks : 0
Heartbeat CPU 0 instructions: 320000002 cycles: 327303700 heartbeat IPC: 0.507889 cumulative IPC: 0.485324 (Simulation time: 2 hr 30 min 13 sec) 
 Total Blocks : 262144 Invalid Blocks : 0
Heartbeat CPU 0 instructions: 330000000 cycles: 346847891 heartbeat IPC: 0.511661 cumulative IPC: 0.487253 (Simulation time: 2 hr 35 min 46 sec) 
 Total Blocks : 262144 Invalid Blocks : 0
Heartbeat CPU 0 instructions: 340000001 cycles: 366486657 heartbeat IPC: 0.509197 cumulative IPC: 0.488758 (Simulation time: 2 hr 41 min 21 sec) 
 Total Blocks : 262144 Invalid Blocks : 0
Heartbeat CPU 0 instructions: 350000000 cycles: 386702425 heartbeat IPC: 0.494663 cumulative IPC: 0.489147 (Simulation time: 2 hr 47 min 0 sec) 
 Total Blocks : 262144 Invalid Blocks : 0
Heartbeat CPU 0 instructions: 360000000 cycles: 407021097 heartbeat IPC: 0.492158 cumulative IPC: 0.489334 (Simulation time: 2 hr 52 min 43 sec) 
 Total Blocks : 262144 Invalid Blocks : 0
Heartbeat CPU 0 instructions: 370000000 cycles: 427642740 heartbeat IPC: 0.484927 cumulative IPC: 0.489073 (Simulation time: 2 hr 58 min 36 sec) 
 Total Blocks : 262144 Invalid Blocks : 0
Heartbeat CPU 0 instructions: 380000001 cycles: 448113572 heartbeat IPC: 0.4885 cumulative IPC: 0.489041 (Simulation time: 3 hr 4 min 33 sec) 
 Total Blocks : 262144 Invalid Blocks : 0
Heartbeat CPU 0 instructions: 390000000 cycles: 468175120 heartbeat IPC: 0.498466 cumulative IPC: 0.489528 (Simulation time: 3 hr 10 min 30 sec) 
 Total Blocks : 262144 Invalid Blocks : 0
Heartbeat CPU 0 instructions: 400000000 cycles: 488807615 heartbeat IPC: 0.484672 cumulative IPC: 0.489283 (Simulation time: 3 hr 16 min 41 sec) 
 Total Blocks : 262144 Invalid Blocks : 0
Finished CPU 0 instructions: 200000001 cycles: 408761471 cumulative IPC: 0.489283 (Simulation time: 3 hr 16 min 41 sec) 

CPU 0 Branch Prediction Accuracy: 94.958% MPKI: 0.90772 Average ROB Occupancy at Mispredict: 271.972

ChampSim completed all CPUs

Region of Interest Statistics

CPU 0 cumulative IPC: 0.489283 instructions: 200000001 cycles: 408761471
ITLB TOTAL     ACCESS: 30691841  HIT: 30691841  MISS:     0  HIT %:   100  MISS %:     0  AVERAGE MISS PENALTY: 0
ITLB LOAD      ACCESS: 30691841  HIT: 30691841  MISS:     0  HIT %:   100  MISS %:     0  AVERAGE MISS PENALTY: 0
ITLB RFO       ACCESS:     0  HIT:     0  MISS:     0  HIT %:     0  MISS %:     0  AVERAGE MISS PENALTY: 0
ITLB PREFETCH  ACCESS:     0  HIT:     0  MISS:     0  HIT %:     0  MISS %:     0  AVERAGE MISS PENALTY: 0
ITLB WRITEBACK ACCESS:     0  HIT:     0  MISS:     0  HIT %:     0  MISS %:     0  AVERAGE MISS PENALTY: 0
ITLB PREFETCH  REQUESTED:     0  ISSUED:     0  USEFUL:     0  USELESS:     0
 USEFUL LOAD PREFETCHES:          0 PREFETCH ISSUED TO LOWER LEVEL:          0  ACCURACY: -nan
 TIMELY PREFETCHES:          0 LATE PREFETCHES: 0 DROPPED PREFETCHES: 0
ITLB AVERAGE MISS LATENCY: -nan cycles
DTLB TOTAL     ACCESS: 40619455  HIT: 40344355  MISS: 275100  HIT %: 99.3227  MISS %: 0.677262  AVERAGE MISS PENALTY: 87.9832
DTLB LOAD      ACCESS: 19689952  HIT: 19652621  MISS: 37331  HIT %: 99.8104  MISS %: 0.189594  AVERAGE MISS PENALTY: 109.002
DTLB RFO       ACCESS: 20929503  HIT: 20691734  MISS: 237769  HIT %: 98.864  MISS %: 1.13605  AVERAGE MISS PENALTY: 84.6831
DTLB PREFETCH  ACCESS:     0  HIT:     0  MISS:     0  HIT %:     0  MISS %:     0  AVERAGE MISS PENALTY: 0
DTLB WRITEBACK ACCESS:     0  HIT:     0  MISS:     0  HIT %:     0  MISS %:     0  AVERAGE MISS PENALTY: 0
DTLB PREFETCH  REQUESTED:     0  ISSUED:     0  USEFUL:     0  USELESS:     0
 USEFUL LOAD PREFETCHES:          0 PREFETCH ISSUED TO LOWER LEVEL:          0  ACCURACY: -nan
 TIMELY PREFETCHES:          0 LATE PREFETCHES: 0 DROPPED PREFETCHES: 0
DTLB AVERAGE MISS LATENCY: 87.9832 cycles
STLB TOTAL     ACCESS: 275100  HIT: 125826  MISS: 149274  HIT %: 45.7383  MISS %: 54.2617  AVERAGE MISS PENALTY: 100
STLB LOAD      ACCESS: 37331  HIT:     0  MISS: 37331  HIT %:     0  MISS %:   100  AVERAGE MISS PENALTY: 100
STLB RFO       ACCESS: 237769  HIT: 125826  MISS: 111943  HIT %: 52.9194  MISS %: 47.0806  AVERAGE MISS PENALTY: 100
STLB PREFETCH  ACCESS:     0  HIT:     0  MISS:     0  HIT %:     0  MISS %:     0  AVERAGE MISS PENALTY: 0
STLB WRITEBACK ACCESS:     0  HIT:     0  MISS:     0  HIT %:     0  MISS %:     0  AVERAGE MISS PENALTY: 0
STLB PREFETCH  REQUESTED:     0  ISSUED:     0  USEFUL:     0  USELESS:     0
 USEFUL LOAD PREFETCHES:          0 PREFETCH ISSUED TO LOWER LEVEL:          0  ACCURACY: -nan
 TIMELY PREFETCHES:          0 LATE PREFETCHES: 0 DROPPED PREFETCHES: 0
STLB AVERAGE MISS LATENCY: 100 cycles
L1D TOTAL     ACCESS: 58526758  HIT: 42756481  MISS: 15770277  HIT %: 73.0546  MISS %: 26.9454  AVERAGE MISS PENALTY: 7.38306e+06
L1D LOAD      ACCESS: 15180967  HIT: 13881383  MISS: 1299584  HIT %: 91.4394  MISS %: 8.56061  AVERAGE MISS PENALTY: 8.95882e+07
L1D RFO       ACCESS: 33279416  HIT: 19908058  MISS: 13371358  HIT %: 59.8209  MISS %: 40.1791  AVERAGE MISS PENALTY: 396.054
L1D PREFETCH  ACCESS: 10066375  HIT: 8967040  MISS: 1099335  HIT %: 89.0791  MISS %: 10.9209  AVERAGE MISS PENALTY: 251.712
L1D WRITEBACK ACCESS:     0  HIT:     0  MISS:     0  HIT %:     0  MISS %:     0  AVERAGE MISS PENALTY: 0
L1D PREFETCH  REQUESTED: 38478408  ISSUED: 21349213  USEFUL: 1088419  USELESS: 10923
 USEFUL LOAD PREFETCHES:    1088419 PREFETCH ISSUED TO LOWER LEVEL:  528486553  ACCURACY: 0.20595
 TIMELY PREFETCHES:    1088419 LATE PREFETCHES: 1287464 DROPPED PREFETCHES: 17129195
L1D AVERAGE MISS LATENCY: 376.064 cycles
L1I TOTAL     ACCESS: 42420994  HIT: 42420994  MISS:     0  HIT %:   100  MISS %:     0  AVERAGE MISS PENALTY: 0
L1I LOAD      ACCESS: 42420994  HIT: 42420994  MISS:     0  HIT %:   100  MISS %:     0  AVERAGE MISS PENALTY: 0
L1I RFO       ACCESS:     0  HIT:     0  MISS:     0  HIT %:     0  MISS %:     0  AVERAGE MISS PENALTY: 0
L1I PREFETCH  ACCESS:     0  HIT:     0  MISS:     0  HIT %:     0  MISS %:     0  AVERAGE MISS PENALTY: 0
L1I WRITEBACK ACCESS:     0  HIT:     0  MISS:     0  HIT %:     0  MISS %:     0  AVERAGE MISS PENALTY: 0
L1I PREFETCH  REQUESTED:     0  ISSUED:     0  USEFUL:     0  USELESS:     0
 USEFUL LOAD PREFETCHES:          0 PREFETCH ISSUED TO LOWER LEVEL:          0  ACCURACY: -nan
 TIMELY PREFETCHES:          0 LATE PREFETCHES: 0 DROPPED PREFETCHES: 0
L1I AVERAGE MISS LATENCY: -nan cycles
L2C TOTAL     ACCESS: 31034112  HIT: 21002958  MISS: 10031154  HIT %: 67.677  MISS %: 32.323  AVERAGE MISS PENALTY: 1.99798e+07
L2C LOAD      ACCESS: 1276665  HIT: 449402  MISS: 827263  HIT %: 35.2012  MISS %: 64.7988  AVERAGE MISS PENALTY: 2.42262e+08
L2C RFO       ACCESS: 13371352  HIT: 5728999  MISS: 7642353  HIT %: 42.8453  MISS %: 57.1547  AVERAGE MISS PENALTY: 653.925
L2C PREFETCH  ACCESS: 3014745  HIT: 1453685  MISS: 1561060  HIT %: 48.2192  MISS %: 51.7808  AVERAGE MISS PENALTY: 617.332
L2C WRITEBACK ACCESS: 13371350  HIT: 13370872  MISS:   478  HIT %: 99.9964  MISS %: 0.00357481  AVERAGE MISS PENALTY: 0
L2C PREFETCH  REQUESTED: 7091063  ISSUED: 7091032  USEFUL: 449313  USELESS: 1113878
 USEFUL LOAD PREFETCHES:     449313 PREFETCH ISSUED TO LOWER LEVEL:    4788340  ACCURACY: 9.38348
 TIMELY PREFETCHES:     449313 LATE PREFETCHES: 1153166 DROPPED PREFETCHES: 31
L2C AVERAGE MISS LATENCY: 635.304 cycles
LLC0 TOTAL     ACCESS: 2208623  HIT: 1157161  MISS: 1051462  HIT %: 52.3929  MISS %: 47.6071  AVERAGE MISS PENALTY: 747.57
LLC0 LOAD      ACCESS: 48578  HIT:     0  MISS: 48578  HIT %:     0  MISS %:   100  AVERAGE MISS PENALTY: 644.231
LLC0 RFO       ACCESS: 955045  HIT: 218298  MISS: 736747  HIT %: 22.8574  MISS %: 77.1426  AVERAGE MISS PENALTY: 796.182
LLC0 PREFETCH  ACCESS: 249873  HIT:     0  MISS: 249873  HIT %:     0  MISS %:   100  AVERAGE MISS PENALTY: 672.986
LLC0 WRITEBACK ACCESS: 955127  HIT: 938863  MISS: 16264  HIT %: 98.2972  MISS %: 1.70281  AVERAGE MISS PENALTY: 0
LLC0 PREFETCH  REQUESTED:     0  ISSUED:     0  USEFUL:     0  USELESS: 250454
 USEFUL LOAD PREFETCHES:          0 PREFETCH ISSUED TO LOWER LEVEL:     249874  ACCURACY: 0
 TIMELY PREFETCHES:          0 LATE PREFETCHES: 0 DROPPED PREFETCHES: 0
LLC0 AVERAGE MISS LATENCY: 747.57 cycles
Deadblocks : 40600 Deadblock percentage : 83.5769

LLC1 TOTAL     ACCESS: 2208799  HIT: 1157580  MISS: 1051219  HIT %: 52.4077  MISS %: 47.5923  AVERAGE MISS PENALTY: 750.094
LLC1 LOAD      ACCESS: 35102  HIT:    73  MISS: 35029  HIT %: 0.207965  MISS %: 99.792  AVERAGE MISS PENALTY: 626.509
LLC1 RFO       ACCESS: 955084  HIT: 218616  MISS: 736468  HIT %: 22.8897  MISS %: 77.1103  AVERAGE MISS PENALTY: 798.215
LLC1 PREFETCH  ACCESS: 263446  HIT:     0  MISS: 263446  HIT %:     0  MISS %:   100  AVERAGE MISS PENALTY: 678.343
LLC1 WRITEBACK ACCESS: 955167  HIT: 938891  MISS: 16276  HIT %: 98.296  MISS %: 1.704  AVERAGE MISS PENALTY: 0
LLC1 PREFETCH  REQUESTED:     0  ISSUED:     0  USEFUL:     0  USELESS: 263976
 USEFUL LOAD PREFETCHES:          0 PREFETCH ISSUED TO LOWER LEVEL:     263447  ACCURACY: 0
 TIMELY PREFETCHES:          0 LATE PREFETCHES: 0 DROPPED PREFETCHES: 0
LLC1 AVERAGE MISS LATENCY: 750.094 cycles
LLC2 TOTAL     ACCESS: 2208828  HIT: 1157134  MISS: 1051694  HIT %: 52.3868  MISS %: 47.6132  AVERAGE MISS PENALTY: 749.199
LLC2 LOAD      ACCESS: 24203  HIT:    81  MISS: 24122  HIT %: 0.334669  MISS %: 99.6653  AVERAGE MISS PENALTY: 644.74
LLC2 RFO       ACCESS: 955098  HIT: 218223  MISS: 736875  HIT %: 22.8482  MISS %: 77.1518  AVERAGE MISS PENALTY: 797.663
LLC2 PREFETCH  ACCESS: 274349  HIT:     1  MISS: 274348  HIT %: 0.000364499  MISS %: 99.9996  AVERAGE MISS PENALTY: 672.862
LLC2 WRITEBACK ACCESS: 955178  HIT: 938829  MISS: 16349  HIT %: 98.2884  MISS %: 1.71162  AVERAGE MISS PENALTY: 0
LLC2 PREFETCH  REQUESTED:     0  ISSUED:     0  USEFUL:     0  USELESS: 274719
 USEFUL LOAD PREFETCHES:          0 PREFETCH ISSUED TO LOWER LEVEL:     274350  ACCURACY: 0
 TIMELY PREFETCHES:          0 LATE PREFETCHES: 0 DROPPED PREFETCHES: 0
LLC2 AVERAGE MISS LATENCY: 749.199 cycles
LLC3 TOTAL     ACCESS: 2208806  HIT: 1157198  MISS: 1051608  HIT %: 52.3902  MISS %: 47.6098  AVERAGE MISS PENALTY: 750.725
LLC3 LOAD      ACCESS: 16790  HIT:    61  MISS: 16729  HIT %: 0.363311  MISS %: 99.6367  AVERAGE MISS PENALTY: 646.473
LLC3 RFO       ACCESS: 955087  HIT: 218209  MISS: 736878  HIT %: 22.847  MISS %: 77.153  AVERAGE MISS PENALTY: 801.184
LLC3 PREFETCH  ACCESS: 281763  HIT:    16  MISS: 281747  HIT %: 0.00567853  MISS %: 99.9943  AVERAGE MISS PENALTY: 668.256
LLC3 WRITEBACK ACCESS: 955166  HIT: 938912  MISS: 16254  HIT %: 98.2983  MISS %: 1.70169  AVERAGE MISS PENALTY: 0
LLC3 PREFETCH  REQUESTED:     0  ISSUED:     0  USEFUL:     7  USELESS: 282267
 USEFUL LOAD PREFETCHES:          7 PREFETCH ISSUED TO LOWER LEVEL:     281747  ACCURACY: 0.0024845
 TIMELY PREFETCHES:          7 LATE PREFETCHES: 0 DROPPED PREFETCHES: 0
LLC3 AVERAGE MISS LATENCY: 750.725 cycles
LLC4 TOTAL     ACCESS: 2210671  HIT: 1158655  MISS: 1052016  HIT %: 52.4119  MISS %: 47.5881  AVERAGE MISS PENALTY: 753.425
LLC4 LOAD      ACCESS: 14868  HIT:     0  MISS: 14868  HIT %:     0  MISS %:   100  AVERAGE MISS PENALTY: 650.178
LLC4 RFO       ACCESS: 955975  HIT: 218837  MISS: 737138  HIT %: 22.8915  MISS %: 77.1085  AVERAGE MISS PENALTY: 802.043
LLC4 PREFETCH  ACCESS: 283776  HIT:   157  MISS: 283619  HIT %: 0.0553253  MISS %: 99.9447  AVERAGE MISS PENALTY: 676.02
LLC4 WRITEBACK ACCESS: 956052  HIT: 939661  MISS: 16391  HIT %: 98.2856  MISS %: 1.71445  AVERAGE MISS PENALTY: 0
LLC4 PREFETCH  REQUESTED:     0  ISSUED:     0  USEFUL:     0  USELESS: 284041
 USEFUL LOAD PREFETCHES:          0 PREFETCH ISSUED TO LOWER LEVEL:     283619  ACCURACY: 0
 TIMELY PREFETCHES:          0 LATE PREFETCHES: 0 DROPPED PREFETCHES: 0
LLC4 AVERAGE MISS LATENCY: 753.425 cycles
LLC5 TOTAL     ACCESS: 2210663  HIT: 1158479  MISS: 1052184  HIT %: 52.4041  MISS %: 47.5959  AVERAGE MISS PENALTY: 755.004
LLC5 LOAD      ACCESS: 15707  HIT:     0  MISS: 15707  HIT %:     0  MISS %:   100  AVERAGE MISS PENALTY: 652.472
LLC5 RFO       ACCESS: 955972  HIT: 218607  MISS: 737365  HIT %: 22.8675  MISS %: 77.1325  AVERAGE MISS PENALTY: 802.759
LLC5 PREFETCH  ACCESS: 282933  HIT:   153  MISS: 282780  HIT %: 0.0540764  MISS %: 99.9459  AVERAGE MISS PENALTY: 679.78
LLC5 WRITEBACK ACCESS: 956051  HIT: 939719  MISS: 16332  HIT %: 98.2917  MISS %: 1.70828  AVERAGE MISS PENALTY: 0
LLC5 PREFETCH  REQUESTED:     0  ISSUED:     0  USEFUL:     0  USELESS: 283297
 USEFUL LOAD PREFETCHES:          0 PREFETCH ISSUED TO LOWER LEVEL:     282781  ACCURACY: 0
 TIMELY PREFETCHES:          0 LATE PREFETCHES: 0 DROPPED PREFETCHES: 0
LLC5 AVERAGE MISS LATENCY: 755.004 cycles
LLC6 TOTAL     ACCESS: 2208554  HIT: 1156652  MISS: 1051902  HIT %: 52.3715  MISS %: 47.6285  AVERAGE MISS PENALTY: 755.374
LLC6 LOAD      ACCESS: 15311  HIT:     0  MISS: 15311  HIT %:     0  MISS %:   100  AVERAGE MISS PENALTY: 652.463
LLC6 RFO       ACCESS: 955043  HIT: 218089  MISS: 736954  HIT %: 22.8355  MISS %: 77.1645  AVERAGE MISS PENALTY: 803.872
LLC6 PREFETCH  ACCESS: 283157  HIT:     8  MISS: 283149  HIT %: 0.00282529  MISS %: 99.9972  AVERAGE MISS PENALTY: 678.699
LLC6 WRITEBACK ACCESS: 955043  HIT: 938555  MISS: 16488  HIT %: 98.2736  MISS %: 1.72641  AVERAGE MISS PENALTY: 0
LLC6 PREFETCH  REQUESTED:     0  ISSUED:     0  USEFUL:     0  USELESS: 283652
 USEFUL LOAD PREFETCHES:          0 PREFETCH ISSUED TO LOWER LEVEL:     283149  ACCURACY: 0
 TIMELY PREFETCHES:          0 LATE PREFETCHES: 0 DROPPED PREFETCHES: 0
LLC6 AVERAGE MISS LATENCY: 755.374 cycles
LLC7 TOTAL     ACCESS: 2208565  HIT: 1157090  MISS: 1051475  HIT %: 52.391  MISS %: 47.609  AVERAGE MISS PENALTY: 754.045
LLC7 LOAD      ACCESS: 15547  HIT:     0  MISS: 15547  HIT %:     0  MISS %:   100  AVERAGE MISS PENALTY: 653.728
LLC7 RFO       ACCESS: 955049  HIT: 218392  MISS: 736657  HIT %: 22.8671  MISS %: 77.1329  AVERAGE MISS PENALTY: 803.83
LLC7 PREFETCH  ACCESS: 282920  HIT:     7  MISS: 282913  HIT %: 0.0024742  MISS %: 99.9975  AVERAGE MISS PENALTY: 673.525
LLC7 WRITEBACK ACCESS: 955049  HIT: 938691  MISS: 16358  HIT %: 98.2872  MISS %: 1.71279  AVERAGE MISS PENALTY: 0
LLC7 PREFETCH  REQUESTED:     0  ISSUED:     0  USEFUL:     0  USELESS: 283365
 USEFUL LOAD PREFETCHES:          0 PREFETCH ISSUED TO LOWER LEVEL:     282914  ACCURACY: 0
 TIMELY PREFETCHES:          0 LATE PREFETCHES: 0 DROPPED PREFETCHES: 0
LLC7 AVERAGE MISS LATENCY: 754.045 cycles
ROI Average ROB Stall Cycles:	26.8743
ROI Total ROB Stalls Cycles:	344699488
ROI TOTAL ROB counter      :	12826373
ROI Average Load ROB Stall Cycles:	164.511
ROI Total Load ROB Stalls Cycle  :	283576704
ROI Total Load ROB stalls Counter:	1723755
Major fault: 0 Minor fault: 151938

