
*** ChampSim Multicore Out-of-Order Simulator ***

Warmup Instructions: 200000000
Simulation Instructions: 200000000
Number of CPUs: 1
threads:1

L1I Configuration:
L1I_SET:64
L1I_WAY:8
L1I_RQ_SIZE:64
L1I_WQ_SIZE:64
L1I_PQ_SIZE:8
L1I_MSHR_SIZE:8

L1D Configuration:
L1D_SET:64
L1D_WAY:12
L1D_RQ_SIZE:64
L1D_WQ_SIZE:64
L1D_PQ_SIZE:8
L1D_MSHR_SIZE:16

L2C Configuration:
L2C_SET:1024
L2C_WAY:8
L2C_RQ_SIZE:32
L2C_WQ_SIZE:32
L2C_PQ_SIZE:16
L2C_MSHR_SIZE:32

LLC Configuration:
LLC_SET:2048
LLC_WAY:16
LLC SLICES:8
LLC_RQ_SIZE:64
LLC_WQ_SIZE:64
LLC_PQ_SIZE:32
LLC_MSHR_SIZE:64

Interconnect OFF
Attacker deprioritize is: OFF
Off-chip DRAM Size: 4096 MB Channels: 1 Width: 64-bit Data Rate: 3200 MT/s
PAGE SIZE in KB: 4.000000 
PAGE SIZE in MB: 0.003906 
PAGE offset in bits: 12 
CEASER-S_LLC:0
MIRAGE : 1
CEASER_LATENCY:3
REMAP : OFF
Partitions : 1
Multi-Step : OFF
BFS : OFF

CPU 0 runs /home/anubhav/spec_2017/620.omnetpp_s-874B.champsimtrace.xz
CPU 0 Bimodal branch predictor
Initialize Hawkeye state
Initialize Hawkeye state
Initialize Hawkeye state
Initialize Hawkeye state
Initialize Hawkeye state
Initialize Hawkeye state
Initialize Hawkeye state
Initialize Hawkeye state
Heartbeat CPU 0 instructions: 10000000 cycles: 8846392 heartbeat IPC: 1.1304 cumulative IPC: 1.1304 (Simulation time: 0 hr 3 min 58 sec) 
 Total Blocks : 262144 Invalid Blocks : 124524
Heartbeat CPU 0 instructions: 20000003 cycles: 17573087 heartbeat IPC: 1.14591 cumulative IPC: 1.1381 (Simulation time: 0 hr 8 min 18 sec) 
 Total Blocks : 262144 Invalid Blocks : 64361
Heartbeat CPU 0 instructions: 30000001 cycles: 26316928 heartbeat IPC: 1.14366 cumulative IPC: 1.13995 (Simulation time: 0 hr 12 min 59 sec) 
 Total Blocks : 262144 Invalid Blocks : 33673
Heartbeat CPU 0 instructions: 40000000 cycles: 35123654 heartbeat IPC: 1.1355 cumulative IPC: 1.13883 (Simulation time: 0 hr 17 min 39 sec) 
 Total Blocks : 262144 Invalid Blocks : 17362
Heartbeat CPU 0 instructions: 50000000 cycles: 43964877 heartbeat IPC: 1.13107 cumulative IPC: 1.13727 (Simulation time: 0 hr 21 min 26 sec) 
 Total Blocks : 262144 Invalid Blocks : 9063
Heartbeat CPU 0 instructions: 60000000 cycles: 52808892 heartbeat IPC: 1.13071 cumulative IPC: 1.13617 (Simulation time: 0 hr 23 min 59 sec) 
 Total Blocks : 262144 Invalid Blocks : 4882
Heartbeat CPU 0 instructions: 70000000 cycles: 61609688 heartbeat IPC: 1.13626 cumulative IPC: 1.13618 (Simulation time: 0 hr 26 min 8 sec) 
 Total Blocks : 262144 Invalid Blocks : 2562
Heartbeat CPU 0 instructions: 80000000 cycles: 70399108 heartbeat IPC: 1.13773 cumulative IPC: 1.13638 (Simulation time: 0 hr 28 min 17 sec) 
 Total Blocks : 262144 Invalid Blocks : 1348
Heartbeat CPU 0 instructions: 90000000 cycles: 79227972 heartbeat IPC: 1.13265 cumulative IPC: 1.13596 (Simulation time: 0 hr 30 min 25 sec) 
 Total Blocks : 262144 Invalid Blocks : 700
Heartbeat CPU 0 instructions: 100000003 cycles: 88131510 heartbeat IPC: 1.12315 cumulative IPC: 1.13467 (Simulation time: 0 hr 32 min 30 sec) 
 Total Blocks : 262144 Invalid Blocks : 379
Heartbeat CPU 0 instructions: 110000000 cycles: 96937895 heartbeat IPC: 1.13554 cumulative IPC: 1.13475 (Simulation time: 0 hr 34 min 33 sec) 
 Total Blocks : 262144 Invalid Blocks : 196
Heartbeat CPU 0 instructions: 120000003 cycles: 105734906 heartbeat IPC: 1.13675 cumulative IPC: 1.13491 (Simulation time: 0 hr 36 min 37 sec) 
 Total Blocks : 262144 Invalid Blocks : 104
Heartbeat CPU 0 instructions: 130000000 cycles: 114549437 heartbeat IPC: 1.13449 cumulative IPC: 1.13488 (Simulation time: 0 hr 38 min 34 sec) 
 Total Blocks : 262144 Invalid Blocks : 62
Heartbeat CPU 0 instructions: 140000000 cycles: 123375593 heartbeat IPC: 1.133 cumulative IPC: 1.13475 (Simulation time: 0 hr 40 min 32 sec) 
 Total Blocks : 262144 Invalid Blocks : 38
Heartbeat CPU 0 instructions: 150000001 cycles: 132228018 heartbeat IPC: 1.12963 cumulative IPC: 1.1344 (Simulation time: 0 hr 42 min 40 sec) 
 Total Blocks : 262144 Invalid Blocks : 22
Heartbeat CPU 0 instructions: 160000000 cycles: 141046690 heartbeat IPC: 1.13396 cumulative IPC: 1.13438 (Simulation time: 0 hr 44 min 43 sec) 
 Total Blocks : 262144 Invalid Blocks : 13
Heartbeat CPU 0 instructions: 170000003 cycles: 149835177 heartbeat IPC: 1.13785 cumulative IPC: 1.13458 (Simulation time: 0 hr 46 min 47 sec) 
 Total Blocks : 262144 Invalid Blocks : 6
Heartbeat CPU 0 instructions: 180000000 cycles: 158621632 heartbeat IPC: 1.13812 cumulative IPC: 1.13478 (Simulation time: 0 hr 48 min 48 sec) 
 Total Blocks : 262144 Invalid Blocks : 2
Heartbeat CPU 0 instructions: 190000002 cycles: 167435905 heartbeat IPC: 1.13452 cumulative IPC: 1.13476 (Simulation time: 0 hr 50 min 54 sec) 
 Total Blocks : 262144 Invalid Blocks : 1
Heartbeat CPU 0 instructions: 200000000 cycles: 176221414 heartbeat IPC: 1.13824 cumulative IPC: 1.13494 (Simulation time: 0 hr 52 min 59 sec) 
 Total Blocks : 262144 Invalid Blocks : 1

Warmup complete CPU 0 instructions: 200000001 cycles: 176221416 (Simulation time: 0 hr 52 min 59 sec) 

Heartbeat CPU 0 instructions: 210000003 cycles: 218158270 heartbeat IPC: 0.238454 cumulative IPC: 0.238454 (Simulation time: 0 hr 58 min 32 sec) 
 Total Blocks : 262144 Invalid Blocks : 0
Heartbeat CPU 0 instructions: 220000000 cycles: 259913885 heartbeat IPC: 0.239489 cumulative IPC: 0.23897 (Simulation time: 1 hr 3 min 45 sec) 
 Total Blocks : 262144 Invalid Blocks : 0
Heartbeat CPU 0 instructions: 230000001 cycles: 301422464 heartbeat IPC: 0.240914 cumulative IPC: 0.239615 (Simulation time: 1 hr 8 min 35 sec) 
 Total Blocks : 262144 Invalid Blocks : 0
Heartbeat CPU 0 instructions: 240000000 cycles: 343219077 heartbeat IPC: 0.239254 cumulative IPC: 0.239524 (Simulation time: 1 hr 13 min 20 sec) 
 Total Blocks : 262144 Invalid Blocks : 0
Heartbeat CPU 0 instructions: 250000003 cycles: 385019268 heartbeat IPC: 0.239233 cumulative IPC: 0.239466 (Simulation time: 1 hr 17 min 53 sec) 
 Total Blocks : 262144 Invalid Blocks : 0
Heartbeat CPU 0 instructions: 260000001 cycles: 426982875 heartbeat IPC: 0.238302 cumulative IPC: 0.239271 (Simulation time: 1 hr 22 min 9 sec) 
 Total Blocks : 262144 Invalid Blocks : 0
Heartbeat CPU 0 instructions: 270000000 cycles: 469104223 heartbeat IPC: 0.237409 cumulative IPC: 0.239003 (Simulation time: 1 hr 26 min 58 sec) 
 Total Blocks : 262144 Invalid Blocks : 0
Heartbeat CPU 0 instructions: 280000000 cycles: 510979838 heartbeat IPC: 0.238802 cumulative IPC: 0.238978 (Simulation time: 1 hr 32 min 7 sec) 
 Total Blocks : 262144 Invalid Blocks : 0
Heartbeat CPU 0 instructions: 290000000 cycles: 553112684 heartbeat IPC: 0.237345 cumulative IPC: 0.238796 (Simulation time: 1 hr 35 min 39 sec) 
 Total Blocks : 262144 Invalid Blocks : 0
Heartbeat CPU 0 instructions: 300000001 cycles: 595057060 heartbeat IPC: 0.238411 cumulative IPC: 0.238757 (Simulation time: 1 hr 38 min 44 sec) 
 Total Blocks : 262144 Invalid Blocks : 0
Heartbeat CPU 0 instructions: 310000000 cycles: 636594009 heartbeat IPC: 0.240749 cumulative IPC: 0.238937 (Simulation time: 1 hr 41 min 48 sec) 
 Total Blocks : 262144 Invalid Blocks : 0
Heartbeat CPU 0 instructions: 320000001 cycles: 678481485 heartbeat IPC: 0.238735 cumulative IPC: 0.23892 (Simulation time: 1 hr 45 min 38 sec) 
 Total Blocks : 262144 Invalid Blocks : 0
Heartbeat CPU 0 instructions: 330000000 cycles: 720214820 heartbeat IPC: 0.239617 cumulative IPC: 0.238973 (Simulation time: 1 hr 48 min 45 sec) 
 Total Blocks : 262144 Invalid Blocks : 0
Heartbeat CPU 0 instructions: 340000000 cycles: 762380558 heartbeat IPC: 0.237159 cumulative IPC: 0.238843 (Simulation time: 1 hr 51 min 49 sec) 
 Total Blocks : 262144 Invalid Blocks : 0
Heartbeat CPU 0 instructions: 350000001 cycles: 804251289 heartbeat IPC: 0.23883 cumulative IPC: 0.238842 (Simulation time: 1 hr 54 min 50 sec) 
 Total Blocks : 262144 Invalid Blocks : 0
Heartbeat CPU 0 instructions: 360000002 cycles: 846167415 heartbeat IPC: 0.238572 cumulative IPC: 0.238825 (Simulation time: 1 hr 57 min 52 sec) 
 Total Blocks : 262144 Invalid Blocks : 0
Heartbeat CPU 0 instructions: 370000001 cycles: 887758471 heartbeat IPC: 0.240436 cumulative IPC: 0.238919 (Simulation time: 2 hr 0 min 51 sec) 
 Total Blocks : 262144 Invalid Blocks : 0
Heartbeat CPU 0 instructions: 380000001 cycles: 929554494 heartbeat IPC: 0.239257 cumulative IPC: 0.238938 (Simulation time: 2 hr 3 min 50 sec) 
 Total Blocks : 262144 Invalid Blocks : 0
Heartbeat CPU 0 instructions: 390000002 cycles: 971015016 heartbeat IPC: 0.241193 cumulative IPC: 0.239056 (Simulation time: 2 hr 6 min 48 sec) 
 Total Blocks : 262144 Invalid Blocks : 0
Heartbeat CPU 0 instructions: 400000001 cycles: 1013035260 heartbeat IPC: 0.237981 cumulative IPC: 0.239002 (Simulation time: 2 hr 9 min 45 sec) 
 Total Blocks : 262144 Invalid Blocks : 0
Finished CPU 0 instructions: 200000000 cycles: 836813844 cumulative IPC: 0.239002 (Simulation time: 2 hr 9 min 45 sec) 

CPU 0 Branch Prediction Accuracy: 94.2237% MPKI: 8.58578 Average ROB Occupancy at Mispredict: 101.513

ChampSim completed all CPUs

Region of Interest Statistics

CPU 0 cumulative IPC: 0.239002 instructions: 200000000 cycles: 836813844
ITLB TOTAL     ACCESS: 33287319  HIT: 32968297  MISS: 319022  HIT %: 99.0416  MISS %: 0.958389  AVERAGE MISS PENALTY: 11.4033
ITLB LOAD      ACCESS: 33287319  HIT: 32968297  MISS: 319022  HIT %: 99.0416  MISS %: 0.958389  AVERAGE MISS PENALTY: 11.4033
ITLB RFO       ACCESS:     0  HIT:     0  MISS:     0  HIT %:     0  MISS %:     0  AVERAGE MISS PENALTY: 0
ITLB PREFETCH  ACCESS:     0  HIT:     0  MISS:     0  HIT %:     0  MISS %:     0  AVERAGE MISS PENALTY: 0
ITLB WRITEBACK ACCESS:     0  HIT:     0  MISS:     0  HIT %:     0  MISS %:     0  AVERAGE MISS PENALTY: 0
ITLB PREFETCH  REQUESTED:     0  ISSUED:     0  USEFUL:     0  USELESS:     0
 USEFUL LOAD PREFETCHES:          0 PREFETCH ISSUED TO LOWER LEVEL:          0  ACCURACY: -nan
 TIMELY PREFETCHES:          0 LATE PREFETCHES: 0 DROPPED PREFETCHES: 0
ITLB AVERAGE MISS LATENCY: 11.4033 cycles
DTLB TOTAL     ACCESS: 80764665  HIT: 76940215  MISS: 3824450  HIT %: 95.2647  MISS %: 4.7353  AVERAGE MISS PENALTY: 36.2511
DTLB LOAD      ACCESS: 49742083  HIT: 46343969  MISS: 3398114  HIT %: 93.1685  MISS %: 6.83147  AVERAGE MISS PENALTY: 33.6778
DTLB RFO       ACCESS: 31022582  HIT: 30596246  MISS: 426336  HIT %: 98.6257  MISS %: 1.37428  AVERAGE MISS PENALTY: 56.762
DTLB PREFETCH  ACCESS:     0  HIT:     0  MISS:     0  HIT %:     0  MISS %:     0  AVERAGE MISS PENALTY: 0
DTLB WRITEBACK ACCESS:     0  HIT:     0  MISS:     0  HIT %:     0  MISS %:     0  AVERAGE MISS PENALTY: 0
DTLB PREFETCH  REQUESTED:     0  ISSUED:     0  USEFUL:     0  USELESS:     0
 USEFUL LOAD PREFETCHES:          0 PREFETCH ISSUED TO LOWER LEVEL:          0  ACCURACY: -nan
 TIMELY PREFETCHES:          0 LATE PREFETCHES: 0 DROPPED PREFETCHES: 0
DTLB AVERAGE MISS LATENCY: 36.2511 cycles
STLB TOTAL     ACCESS: 4143472  HIT: 3285599  MISS: 857873  HIT %: 79.2958  MISS %: 20.7042  AVERAGE MISS PENALTY: 100
STLB LOAD      ACCESS: 3717136  HIT: 3012880  MISS: 704256  HIT %: 81.0538  MISS %: 18.9462  AVERAGE MISS PENALTY: 100
STLB RFO       ACCESS: 426336  HIT: 272719  MISS: 153617  HIT %: 63.9681  MISS %: 36.0319  AVERAGE MISS PENALTY: 100
STLB PREFETCH  ACCESS:     0  HIT:     0  MISS:     0  HIT %:     0  MISS %:     0  AVERAGE MISS PENALTY: 0
STLB WRITEBACK ACCESS:     0  HIT:     0  MISS:     0  HIT %:     0  MISS %:     0  AVERAGE MISS PENALTY: 0
STLB PREFETCH  REQUESTED:     0  ISSUED:     0  USEFUL:     0  USELESS:     0
 USEFUL LOAD PREFETCHES:          0 PREFETCH ISSUED TO LOWER LEVEL:          0  ACCURACY: -nan
 TIMELY PREFETCHES:          0 LATE PREFETCHES: 0 DROPPED PREFETCHES: 0
STLB AVERAGE MISS LATENCY: 100 cycles
L1D TOTAL     ACCESS: 117946932  HIT: 110513082  MISS: 7433850  HIT %: 93.6973  MISS %: 6.30271  AVERAGE MISS PENALTY: 4.35902e+06
L1D LOAD      ACCESS: 51970875  HIT: 49014583  MISS: 2956292  HIT %: 94.3116  MISS %: 5.68836  AVERAGE MISS PENALTY: 9.19543e+06
L1D RFO       ACCESS: 36831680  HIT: 36524674  MISS: 307006  HIT %: 99.1665  MISS %: 0.833538  AVERAGE MISS PENALTY: 1.70012e+07
L1D PREFETCH  ACCESS: 29144377  HIT: 24973825  MISS: 4170552  HIT %: 85.69  MISS %: 14.31  AVERAGE MISS PENALTY: 110.24
L1D WRITEBACK ACCESS:     0  HIT:     0  MISS:     0  HIT %:     0  MISS %:     0  AVERAGE MISS PENALTY: 0
L1D PREFETCH  REQUESTED: 32500309  ISSUED: 32329180  USEFUL: 669564  USELESS: 3500990
 USEFUL LOAD PREFETCHES:     669564 PREFETCH ISSUED TO LOWER LEVEL:    4908264  ACCURACY: 13.6416
 TIMELY PREFETCHES:     669564 LATE PREFETCHES: 520321 DROPPED PREFETCHES: 171129
L1D AVERAGE MISS LATENCY: 702219 cycles
L1I TOTAL     ACCESS: 43571914  HIT: 43494197  MISS: 77717  HIT %: 99.8216  MISS %: 0.178365  AVERAGE MISS PENALTY: 31.8495
L1I LOAD      ACCESS: 43571914  HIT: 43494197  MISS: 77717  HIT %: 99.8216  MISS %: 0.178365  AVERAGE MISS PENALTY: 31.8495
L1I RFO       ACCESS:     0  HIT:     0  MISS:     0  HIT %:     0  MISS %:     0  AVERAGE MISS PENALTY: 0
L1I PREFETCH  ACCESS:     0  HIT:     0  MISS:     0  HIT %:     0  MISS %:     0  AVERAGE MISS PENALTY: 0
L1I WRITEBACK ACCESS:     0  HIT:     0  MISS:     0  HIT %:     0  MISS %:     0  AVERAGE MISS PENALTY: 0
L1I PREFETCH  REQUESTED:     0  ISSUED:     0  USEFUL:     0  USELESS:     0
 USEFUL LOAD PREFETCHES:          0 PREFETCH ISSUED TO LOWER LEVEL:          0  ACCURACY: -nan
 TIMELY PREFETCHES:          0 LATE PREFETCHES: 0 DROPPED PREFETCHES: 0
L1I AVERAGE MISS LATENCY: 31.8495 cycles
L2C TOTAL     ACCESS: 12499757  HIT: 6018698  MISS: 6481059  HIT %: 48.1505  MISS %: 51.8495  AVERAGE MISS PENALTY: 4.06584e+06
L2C LOAD      ACCESS: 3029396  HIT: 1225190  MISS: 1804206  HIT %: 40.4434  MISS %: 59.5566  AVERAGE MISS PENALTY: 1.40787e+07
L2C RFO       ACCESS: 298116  HIT: 105992  MISS: 192124  HIT %: 35.5539  MISS %: 64.4461  AVERAGE MISS PENALTY: 4.94151e+06
L2C PREFETCH  ACCESS: 7239768  HIT: 2762107  MISS: 4477661  HIT %: 38.1519  MISS %: 61.8481  AVERAGE MISS PENALTY: 136.128
L2C WRITEBACK ACCESS: 1932477  HIT: 1925409  MISS:  7068  HIT %: 99.6343  MISS %: 0.365748  AVERAGE MISS PENALTY: 0
L2C PREFETCH  REQUESTED: 5112636  ISSUED: 5043792  USEFUL: 392360  USELESS: 4084751
 USEFUL LOAD PREFETCHES:     392360 PREFETCH ISSUED TO LOWER LEVEL:    4713953  ACCURACY: 8.32338
 TIMELY PREFETCHES:     392360 LATE PREFETCHES: 203875 DROPPED PREFETCHES: 68844
L2C AVERAGE MISS LATENCY: 130.9 cycles
LLC0 TOTAL     ACCESS: 952802  HIT: 538748  MISS: 414054  HIT %: 56.5435  MISS %: 43.4565  AVERAGE MISS PENALTY: 169.775
LLC0 LOAD      ACCESS: 231613  HIT: 117182  MISS: 114431  HIT %: 50.5939  MISS %: 49.4061  AVERAGE MISS PENALTY: 168.11
LLC0 RFO       ACCESS: 25743  HIT: 16823  MISS:  8920  HIT %: 65.3498  MISS %: 34.6502  AVERAGE MISS PENALTY: 170.85
LLC0 PREFETCH  ACCESS: 515675  HIT: 228523  MISS: 287152  HIT %: 44.3153  MISS %: 55.6847  AVERAGE MISS PENALTY: 172.505
LLC0 WRITEBACK ACCESS: 179771  HIT: 176220  MISS:  3551  HIT %: 98.0247  MISS %: 1.97529  AVERAGE MISS PENALTY: 0
LLC0 PREFETCH  REQUESTED:     0  ISSUED:     0  USEFUL: 18322  USELESS: 267013
 USEFUL LOAD PREFETCHES:      18322 PREFETCH ISSUED TO LOWER LEVEL:     287152  ACCURACY: 6.38059
 TIMELY PREFETCHES:      18322 LATE PREFETCHES: 0 DROPPED PREFETCHES: 0
LLC0 AVERAGE MISS LATENCY: 169.775 cycles
Deadblocks : 95789 Deadblock percentage : 83.709

LLC1 TOTAL     ACCESS: 977316  HIT: 550272  MISS: 427044  HIT %: 56.3044  MISS %: 43.6956  AVERAGE MISS PENALTY: 170.156
LLC1 LOAD      ACCESS: 222364  HIT: 112164  MISS: 110200  HIT %: 50.4416  MISS %: 49.5584  AVERAGE MISS PENALTY: 168.267
LLC1 RFO       ACCESS: 24184  HIT: 15864  MISS:  8320  HIT %: 65.5971  MISS %: 34.4029  AVERAGE MISS PENALTY: 171.446
LLC1 PREFETCH  ACCESS: 551026  HIT: 245978  MISS: 305048  HIT %: 44.64  MISS %: 55.36  AVERAGE MISS PENALTY: 172.742
LLC1 WRITEBACK ACCESS: 179742  HIT: 176266  MISS:  3476  HIT %: 98.0661  MISS %: 1.93388  AVERAGE MISS PENALTY: 0
LLC1 PREFETCH  REQUESTED:     0  ISSUED:     0  USEFUL: 19428  USELESS: 283567
 USEFUL LOAD PREFETCHES:      19428 PREFETCH ISSUED TO LOWER LEVEL:     305048  ACCURACY: 6.36883
 TIMELY PREFETCHES:      19428 LATE PREFETCHES: 0 DROPPED PREFETCHES: 0
LLC1 AVERAGE MISS LATENCY: 170.156 cycles
LLC2 TOTAL     ACCESS: 993549  HIT: 557352  MISS: 436197  HIT %: 56.0971  MISS %: 43.9029  AVERAGE MISS PENALTY: 170.532
LLC2 LOAD      ACCESS: 221152  HIT: 112788  MISS: 108364  HIT %: 51.0002  MISS %: 48.9998  AVERAGE MISS PENALTY: 168.735
LLC2 RFO       ACCESS: 23126  HIT: 15041  MISS:  8085  HIT %: 65.0393  MISS %: 34.9607  AVERAGE MISS PENALTY: 171.643
LLC2 PREFETCH  ACCESS: 568610  HIT: 252204  MISS: 316406  HIT %: 44.3545  MISS %: 55.6455  AVERAGE MISS PENALTY: 172.921
LLC2 WRITEBACK ACCESS: 180661  HIT: 177319  MISS:  3342  HIT %: 98.1501  MISS %: 1.84987  AVERAGE MISS PENALTY: 0
LLC2 PREFETCH  REQUESTED:     0  ISSUED:     0  USEFUL: 19895  USELESS: 294387
 USEFUL LOAD PREFETCHES:      19895 PREFETCH ISSUED TO LOWER LEVEL:     316406  ACCURACY: 6.28781
 TIMELY PREFETCHES:      19895 LATE PREFETCHES: 0 DROPPED PREFETCHES: 0
LLC2 AVERAGE MISS LATENCY: 170.532 cycles
LLC3 TOTAL     ACCESS: 996725  HIT: 560428  MISS: 436297  HIT %: 56.2269  MISS %: 43.7731  AVERAGE MISS PENALTY: 170.329
LLC3 LOAD      ACCESS: 219801  HIT: 112062  MISS: 107739  HIT %: 50.9834  MISS %: 49.0166  AVERAGE MISS PENALTY: 168.247
LLC3 RFO       ACCESS: 23169  HIT: 15057  MISS:  8112  HIT %: 64.9877  MISS %: 35.0123  AVERAGE MISS PENALTY: 171.741
LLC3 PREFETCH  ACCESS: 572233  HIT: 255210  MISS: 317023  HIT %: 44.599  MISS %: 55.401  AVERAGE MISS PENALTY: 172.84
LLC3 WRITEBACK ACCESS: 181522  HIT: 178099  MISS:  3423  HIT %: 98.1143  MISS %: 1.88572  AVERAGE MISS PENALTY: 0
LLC3 PREFETCH  REQUESTED:     0  ISSUED:     0  USEFUL: 20245  USELESS: 294520
 USEFUL LOAD PREFETCHES:      20245 PREFETCH ISSUED TO LOWER LEVEL:     317023  ACCURACY: 6.38597
 TIMELY PREFETCHES:      20245 LATE PREFETCHES: 0 DROPPED PREFETCHES: 0
LLC3 AVERAGE MISS LATENCY: 170.329 cycles
LLC4 TOTAL     ACCESS: 1002459  HIT: 566727  MISS: 435732  HIT %: 56.5337  MISS %: 43.4663  AVERAGE MISS PENALTY: 170.406
LLC4 LOAD      ACCESS: 225466  HIT: 117133  MISS: 108333  HIT %: 51.9515  MISS %: 48.0485  AVERAGE MISS PENALTY: 168.684
LLC4 RFO       ACCESS: 23710  HIT: 15395  MISS:  8315  HIT %: 64.9304  MISS %: 35.0696  AVERAGE MISS PENALTY: 172.199
LLC4 PREFETCH  ACCESS: 570961  HIT: 255373  MISS: 315588  HIT %: 44.7269  MISS %: 55.2731  AVERAGE MISS PENALTY: 172.838
LLC4 WRITEBACK ACCESS: 182322  HIT: 178826  MISS:  3496  HIT %: 98.0825  MISS %: 1.91749  AVERAGE MISS PENALTY: 0
LLC4 PREFETCH  REQUESTED:     0  ISSUED:     0  USEFUL: 20374  USELESS: 293029
 USEFUL LOAD PREFETCHES:      20374 PREFETCH ISSUED TO LOWER LEVEL:     315588  ACCURACY: 6.45589
 TIMELY PREFETCHES:      20374 LATE PREFETCHES: 0 DROPPED PREFETCHES: 0
LLC4 AVERAGE MISS LATENCY: 170.406 cycles
LLC5 TOTAL     ACCESS: 1001436  HIT: 564560  MISS: 436876  HIT %: 56.375  MISS %: 43.625  AVERAGE MISS PENALTY: 170.579
LLC5 LOAD      ACCESS: 220626  HIT: 112269  MISS: 108357  HIT %: 50.8866  MISS %: 49.1134  AVERAGE MISS PENALTY: 168.434
LLC5 RFO       ACCESS: 23686  HIT: 15395  MISS:  8291  HIT %: 64.9962  MISS %: 35.0038  AVERAGE MISS PENALTY: 172.426
LLC5 PREFETCH  ACCESS: 576041  HIT: 259125  MISS: 316916  HIT %: 44.9838  MISS %: 55.0162  AVERAGE MISS PENALTY: 173.046
LLC5 WRITEBACK ACCESS: 181083  HIT: 177771  MISS:  3312  HIT %: 98.171  MISS %: 1.829  AVERAGE MISS PENALTY: 0
LLC5 PREFETCH  REQUESTED:     0  ISSUED:     0  USEFUL: 20000  USELESS: 294716
 USEFUL LOAD PREFETCHES:      20000 PREFETCH ISSUED TO LOWER LEVEL:     316916  ACCURACY: 6.31082
 TIMELY PREFETCHES:      20000 LATE PREFETCHES: 0 DROPPED PREFETCHES: 0
LLC5 AVERAGE MISS LATENCY: 170.579 cycles
LLC6 TOTAL     ACCESS: 1001664  HIT: 565281  MISS: 436383  HIT %: 56.4342  MISS %: 43.5658  AVERAGE MISS PENALTY: 170.614
LLC6 LOAD      ACCESS: 224253  HIT: 115256  MISS: 108997  HIT %: 51.3955  MISS %: 48.6045  AVERAGE MISS PENALTY: 168.86
LLC6 RFO       ACCESS: 23425  HIT: 15237  MISS:  8188  HIT %: 65.0459  MISS %: 34.9541  AVERAGE MISS PENALTY: 171.964
LLC6 PREFETCH  ACCESS: 571666  HIT: 255899  MISS: 315767  HIT %: 44.7637  MISS %: 55.2363  AVERAGE MISS PENALTY: 173.038
LLC6 WRITEBACK ACCESS: 182320  HIT: 178889  MISS:  3431  HIT %: 98.1181  MISS %: 1.88186  AVERAGE MISS PENALTY: 0
LLC6 PREFETCH  REQUESTED:     0  ISSUED:     0  USEFUL: 19961  USELESS: 293517
 USEFUL LOAD PREFETCHES:      19961 PREFETCH ISSUED TO LOWER LEVEL:     315767  ACCURACY: 6.32143
 TIMELY PREFETCHES:      19961 LATE PREFETCHES: 0 DROPPED PREFETCHES: 0
LLC6 AVERAGE MISS LATENCY: 170.614 cycles
LLC7 TOTAL     ACCESS: 996779  HIT: 559810  MISS: 436969  HIT %: 56.1619  MISS %: 43.8381  AVERAGE MISS PENALTY: 170.682
LLC7 LOAD      ACCESS: 220809  HIT: 111817  MISS: 108992  HIT %: 50.6397  MISS %: 49.3603  AVERAGE MISS PENALTY: 168.608
LLC7 RFO       ACCESS: 23469  HIT: 15264  MISS:  8205  HIT %: 65.039  MISS %: 34.961  AVERAGE MISS PENALTY: 173.067
LLC7 PREFETCH  ACCESS: 571168  HIT: 254878  MISS: 316290  HIT %: 44.624  MISS %: 55.376  AVERAGE MISS PENALTY: 173.214
LLC7 WRITEBACK ACCESS: 181333  HIT: 177851  MISS:  3482  HIT %: 98.0798  MISS %: 1.92022  AVERAGE MISS PENALTY: 0
LLC7 PREFETCH  REQUESTED:     0  ISSUED:     0  USEFUL: 19723  USELESS: 294503
 USEFUL LOAD PREFETCHES:      19723 PREFETCH ISSUED TO LOWER LEVEL:     316290  ACCURACY: 6.23573
 TIMELY PREFETCHES:      19723 LATE PREFETCHES: 0 DROPPED PREFETCHES: 0
LLC7 AVERAGE MISS LATENCY: 170.682 cycles
ROI Average ROB Stall Cycles:	10.7653
ROI Total ROB Stalls Cycles:	779308354
ROI TOTAL ROB counter      :	72390501
ROI Average Load ROB Stall Cycles:	20.6197
ROI Total Load ROB Stalls Cycle  :	189075717
ROI Total Load ROB stalls Counter:	9169665
Major fault: 0 Minor fault: 48109

