
*** ChampSim Multicore Out-of-Order Simulator ***

Warmup Instructions: 200000000
Simulation Instructions: 200000000
Number of CPUs: 1
threads:1

L1I Configuration:
L1I_SET:64
L1I_WAY:8
L1I_RQ_SIZE:64
L1I_WQ_SIZE:64
L1I_PQ_SIZE:8
L1I_MSHR_SIZE:8

L1D Configuration:
L1D_SET:64
L1D_WAY:12
L1D_RQ_SIZE:64
L1D_WQ_SIZE:64
L1D_PQ_SIZE:8
L1D_MSHR_SIZE:16

L2C Configuration:
L2C_SET:1024
L2C_WAY:8
L2C_RQ_SIZE:32
L2C_WQ_SIZE:32
L2C_PQ_SIZE:16
L2C_MSHR_SIZE:32

LLC Configuration:
LLC_SET:4096
LLC_WAY:16
LLC SLICES:8
LLC_RQ_SIZE:64
LLC_WQ_SIZE:64
LLC_PQ_SIZE:32
LLC_MSHR_SIZE:64

Interconnect OFF
Attacker deprioritize is: OFF
Off-chip DRAM Size: 4096 MB Channels: 1 Width: 64-bit Data Rate: 3200 MT/s
PAGE SIZE in KB: 4.000000 
PAGE SIZE in MB: 0.003906 
PAGE offset in bits: 12 
CEASER-S_LLC:0
MIRAGE : 1
CEASER_LATENCY:3
REMAP : OFF
Partitions : 1
Multi-Step : OFF
BFS : OFF

CPU 0 runs /home/anubhav/spec_2017/620.omnetpp_s-874B.champsimtrace.xz
CPU 0 Bimodal branch predictor
Initialize Hawkeye state
Initialize Hawkeye state
Initialize Hawkeye state
Initialize Hawkeye state
Initialize Hawkeye state
Initialize Hawkeye state
Initialize Hawkeye state
Initialize Hawkeye state
Heartbeat CPU 0 instructions: 10000000 cycles: 8845962 heartbeat IPC: 1.13046 cumulative IPC: 1.13046 (Simulation time: 0 hr 3 min 53 sec) 
 Total Blocks : 524288 Invalid Blocks : 364311
Heartbeat CPU 0 instructions: 20000003 cycles: 17571056 heartbeat IPC: 1.14612 cumulative IPC: 1.13824 (Simulation time: 0 hr 9 min 24 sec) 
 Total Blocks : 524288 Invalid Blocks : 266704
Heartbeat CPU 0 instructions: 30000001 cycles: 26313532 heartbeat IPC: 1.14384 cumulative IPC: 1.1401 (Simulation time: 0 hr 15 min 13 sec) 
 Total Blocks : 524288 Invalid Blocks : 196845
Heartbeat CPU 0 instructions: 40000000 cycles: 35118322 heartbeat IPC: 1.13575 cumulative IPC: 1.13901 (Simulation time: 0 hr 20 min 59 sec) 
 Total Blocks : 524288 Invalid Blocks : 144724
Heartbeat CPU 0 instructions: 50000000 cycles: 43957530 heartbeat IPC: 1.13132 cumulative IPC: 1.13746 (Simulation time: 0 hr 26 min 45 sec) 
 Total Blocks : 524288 Invalid Blocks : 108133
Heartbeat CPU 0 instructions: 60000000 cycles: 52798334 heartbeat IPC: 1.13112 cumulative IPC: 1.1364 (Simulation time: 0 hr 30 min 11 sec) 
 Total Blocks : 524288 Invalid Blocks : 83625
Heartbeat CPU 0 instructions: 70000000 cycles: 61595231 heartbeat IPC: 1.13676 cumulative IPC: 1.13645 (Simulation time: 0 hr 32 min 59 sec) 
 Total Blocks : 524288 Invalid Blocks : 64819
Heartbeat CPU 0 instructions: 80000000 cycles: 70380807 heartbeat IPC: 1.13823 cumulative IPC: 1.13667 (Simulation time: 0 hr 35 min 48 sec) 
 Total Blocks : 524288 Invalid Blocks : 49885
Heartbeat CPU 0 instructions: 90000000 cycles: 79205857 heartbeat IPC: 1.13314 cumulative IPC: 1.13628 (Simulation time: 0 hr 38 min 32 sec) 
 Total Blocks : 524288 Invalid Blocks : 39464
Heartbeat CPU 0 instructions: 100000003 cycles: 88104924 heartbeat IPC: 1.12371 cumulative IPC: 1.13501 (Simulation time: 0 hr 41 min 20 sec) 
 Total Blocks : 524288 Invalid Blocks : 30884
Heartbeat CPU 0 instructions: 110000000 cycles: 96906914 heartbeat IPC: 1.13611 cumulative IPC: 1.13511 (Simulation time: 0 hr 44 min 9 sec) 
 Total Blocks : 524288 Invalid Blocks : 24151
Heartbeat CPU 0 instructions: 120000003 cycles: 105699287 heartbeat IPC: 1.13735 cumulative IPC: 1.1353 (Simulation time: 0 hr 46 min 53 sec) 
 Total Blocks : 524288 Invalid Blocks : 19173
Heartbeat CPU 0 instructions: 130000000 cycles: 114508850 heartbeat IPC: 1.13513 cumulative IPC: 1.13528 (Simulation time: 0 hr 49 min 37 sec) 
 Total Blocks : 524288 Invalid Blocks : 15059
Heartbeat CPU 0 instructions: 140000000 cycles: 123330757 heartbeat IPC: 1.13354 cumulative IPC: 1.13516 (Simulation time: 0 hr 52 min 26 sec) 
 Total Blocks : 524288 Invalid Blocks : 11780
Heartbeat CPU 0 instructions: 150000001 cycles: 132178622 heartbeat IPC: 1.13022 cumulative IPC: 1.13483 (Simulation time: 0 hr 55 min 5 sec) 
 Total Blocks : 524288 Invalid Blocks : 9295
Heartbeat CPU 0 instructions: 160000000 cycles: 140992656 heartbeat IPC: 1.13455 cumulative IPC: 1.13481 (Simulation time: 0 hr 57 min 54 sec) 
 Total Blocks : 524288 Invalid Blocks : 7299
Heartbeat CPU 0 instructions: 170000003 cycles: 149776453 heartbeat IPC: 1.13846 cumulative IPC: 1.13502 (Simulation time: 1 hr 0 min 23 sec) 
 Total Blocks : 524288 Invalid Blocks : 5748
Heartbeat CPU 0 instructions: 180000000 cycles: 158558032 heartbeat IPC: 1.13875 cumulative IPC: 1.13523 (Simulation time: 1 hr 2 min 58 sec) 
 Total Blocks : 524288 Invalid Blocks : 4571
Heartbeat CPU 0 instructions: 190000002 cycles: 167367530 heartbeat IPC: 1.13514 cumulative IPC: 1.13523 (Simulation time: 1 hr 5 min 31 sec) 
 Total Blocks : 524288 Invalid Blocks : 3629
Heartbeat CPU 0 instructions: 200000000 cycles: 176148655 heartbeat IPC: 1.13881 cumulative IPC: 1.1354 (Simulation time: 1 hr 8 min 8 sec) 
 Total Blocks : 524288 Invalid Blocks : 2809

Warmup complete CPU 0 instructions: 200000001 cycles: 176148657 (Simulation time: 1 hr 8 min 8 sec) 

Heartbeat CPU 0 instructions: 210000003 cycles: 217148145 heartbeat IPC: 0.243906 cumulative IPC: 0.243906 (Simulation time: 1 hr 15 min 35 sec) 
 Total Blocks : 524288 Invalid Blocks : 2173
Heartbeat CPU 0 instructions: 220000000 cycles: 257967555 heartbeat IPC: 0.244981 cumulative IPC: 0.244442 (Simulation time: 1 hr 23 min 6 sec) 
 Total Blocks : 524288 Invalid Blocks : 1717
Heartbeat CPU 0 instructions: 230000001 cycles: 298555378 heartbeat IPC: 0.246379 cumulative IPC: 0.245085 (Simulation time: 1 hr 30 min 30 sec) 
 Total Blocks : 524288 Invalid Blocks : 1365
Heartbeat CPU 0 instructions: 240000000 cycles: 339457465 heartbeat IPC: 0.244486 cumulative IPC: 0.244935 (Simulation time: 1 hr 37 min 42 sec) 
 Total Blocks : 524288 Invalid Blocks : 1065
Heartbeat CPU 0 instructions: 250000003 cycles: 380365127 heartbeat IPC: 0.244453 cumulative IPC: 0.244838 (Simulation time: 1 hr 44 min 28 sec) 
 Total Blocks : 524288 Invalid Blocks : 813
Heartbeat CPU 0 instructions: 260000001 cycles: 421424249 heartbeat IPC: 0.243551 cumulative IPC: 0.244623 (Simulation time: 1 hr 51 min 4 sec) 
 Total Blocks : 524288 Invalid Blocks : 636
Heartbeat CPU 0 instructions: 270000000 cycles: 462640444 heartbeat IPC: 0.242623 cumulative IPC: 0.244335 (Simulation time: 1 hr 57 min 48 sec) 
 Total Blocks : 524288 Invalid Blocks : 495
Heartbeat CPU 0 instructions: 280000000 cycles: 503600857 heartbeat IPC: 0.244138 cumulative IPC: 0.24431 (Simulation time: 2 hr 4 min 17 sec) 
 Total Blocks : 524288 Invalid Blocks : 391
Heartbeat CPU 0 instructions: 290000000 cycles: 544754409 heartbeat IPC: 0.242992 cumulative IPC: 0.244163 (Simulation time: 2 hr 10 min 27 sec) 
 Total Blocks : 524288 Invalid Blocks : 302
Heartbeat CPU 0 instructions: 300000001 cycles: 585766254 heartbeat IPC: 0.243832 cumulative IPC: 0.24413 (Simulation time: 2 hr 16 min 12 sec) 
 Total Blocks : 524288 Invalid Blocks : 238
Heartbeat CPU 0 instructions: 310000000 cycles: 626364275 heartbeat IPC: 0.246317 cumulative IPC: 0.244327 (Simulation time: 2 hr 21 min 27 sec) 
 Total Blocks : 524288 Invalid Blocks : 178
Heartbeat CPU 0 instructions: 320000001 cycles: 667294553 heartbeat IPC: 0.244318 cumulative IPC: 0.244327 (Simulation time: 2 hr 26 min 44 sec) 
 Total Blocks : 524288 Invalid Blocks : 139
Heartbeat CPU 0 instructions: 330000000 cycles: 708103697 heartbeat IPC: 0.245043 cumulative IPC: 0.244382 (Simulation time: 2 hr 31 min 47 sec) 
 Total Blocks : 524288 Invalid Blocks : 104
Heartbeat CPU 0 instructions: 340000000 cycles: 749278968 heartbeat IPC: 0.242864 cumulative IPC: 0.244273 (Simulation time: 2 hr 36 min 23 sec) 
 Total Blocks : 524288 Invalid Blocks : 84
Heartbeat CPU 0 instructions: 350000001 cycles: 790139373 heartbeat IPC: 0.244736 cumulative IPC: 0.244303 (Simulation time: 2 hr 40 min 46 sec) 
 Total Blocks : 524288 Invalid Blocks : 61
Heartbeat CPU 0 instructions: 360000002 cycles: 831132783 heartbeat IPC: 0.243942 cumulative IPC: 0.244281 (Simulation time: 2 hr 45 min 1 sec) 
 Total Blocks : 524288 Invalid Blocks : 51
Heartbeat CPU 0 instructions: 370000001 cycles: 871759651 heartbeat IPC: 0.246143 cumulative IPC: 0.244389 (Simulation time: 2 hr 49 min 10 sec) 
 Total Blocks : 524288 Invalid Blocks : 40
Heartbeat CPU 0 instructions: 380000001 cycles: 912579363 heartbeat IPC: 0.24498 cumulative IPC: 0.244422 (Simulation time: 2 hr 53 min 26 sec) 
 Total Blocks : 524288 Invalid Blocks : 36
Heartbeat CPU 0 instructions: 390000002 cycles: 953125941 heartbeat IPC: 0.24663 cumulative IPC: 0.244537 (Simulation time: 2 hr 57 min 37 sec) 
 Total Blocks : 524288 Invalid Blocks : 26
Heartbeat CPU 0 instructions: 400000001 cycles: 994189018 heartbeat IPC: 0.243528 cumulative IPC: 0.244487 (Simulation time: 3 hr 1 min 50 sec) 
 Total Blocks : 524288 Invalid Blocks : 22
Finished CPU 0 instructions: 200000000 cycles: 818040361 cumulative IPC: 0.244487 (Simulation time: 3 hr 1 min 50 sec) 

CPU 0 Branch Prediction Accuracy: 94.2237% MPKI: 8.58578 Average ROB Occupancy at Mispredict: 101.292

ChampSim completed all CPUs

Region of Interest Statistics

CPU 0 cumulative IPC: 0.244487 instructions: 200000000 cycles: 818040361
ITLB TOTAL     ACCESS: 33296258  HIT: 32977236  MISS: 319022  HIT %: 99.0419  MISS %: 0.958132  AVERAGE MISS PENALTY: 11.2657
ITLB LOAD      ACCESS: 33296258  HIT: 32977236  MISS: 319022  HIT %: 99.0419  MISS %: 0.958132  AVERAGE MISS PENALTY: 11.2657
ITLB RFO       ACCESS:     0  HIT:     0  MISS:     0  HIT %:     0  MISS %:     0  AVERAGE MISS PENALTY: 0
ITLB PREFETCH  ACCESS:     0  HIT:     0  MISS:     0  HIT %:     0  MISS %:     0  AVERAGE MISS PENALTY: 0
ITLB WRITEBACK ACCESS:     0  HIT:     0  MISS:     0  HIT %:     0  MISS %:     0  AVERAGE MISS PENALTY: 0
ITLB PREFETCH  REQUESTED:     0  ISSUED:     0  USEFUL:     0  USELESS:     0
 USEFUL LOAD PREFETCHES:          0 PREFETCH ISSUED TO LOWER LEVEL:          0  ACCURACY: -nan
 TIMELY PREFETCHES:          0 LATE PREFETCHES: 0 DROPPED PREFETCHES: 0
ITLB AVERAGE MISS LATENCY: 11.2657 cycles
DTLB TOTAL     ACCESS: 80781751  HIT: 76957378  MISS: 3824373  HIT %: 95.2658  MISS %: 4.7342  AVERAGE MISS PENALTY: 36.4142
DTLB LOAD      ACCESS: 49780134  HIT: 46381641  MISS: 3398493  HIT %: 93.173  MISS %: 6.82701  AVERAGE MISS PENALTY: 33.8339
DTLB RFO       ACCESS: 31001617  HIT: 30575737  MISS: 425880  HIT %: 98.6263  MISS %: 1.37373  AVERAGE MISS PENALTY: 57.0048
DTLB PREFETCH  ACCESS:     0  HIT:     0  MISS:     0  HIT %:     0  MISS %:     0  AVERAGE MISS PENALTY: 0
DTLB WRITEBACK ACCESS:     0  HIT:     0  MISS:     0  HIT %:     0  MISS %:     0  AVERAGE MISS PENALTY: 0
DTLB PREFETCH  REQUESTED:     0  ISSUED:     0  USEFUL:     0  USELESS:     0
 USEFUL LOAD PREFETCHES:          0 PREFETCH ISSUED TO LOWER LEVEL:          0  ACCURACY: -nan
 TIMELY PREFETCHES:          0 LATE PREFETCHES: 0 DROPPED PREFETCHES: 0
DTLB AVERAGE MISS LATENCY: 36.4142 cycles
STLB TOTAL     ACCESS: 4143395  HIT: 3285522  MISS: 857873  HIT %: 79.2954  MISS %: 20.7046  AVERAGE MISS PENALTY: 100
STLB LOAD      ACCESS: 3717515  HIT: 3013267  MISS: 704248  HIT %: 81.0559  MISS %: 18.9441  AVERAGE MISS PENALTY: 100
STLB RFO       ACCESS: 425880  HIT: 272255  MISS: 153625  HIT %: 63.9276  MISS %: 36.0724  AVERAGE MISS PENALTY: 100
STLB PREFETCH  ACCESS:     0  HIT:     0  MISS:     0  HIT %:     0  MISS %:     0  AVERAGE MISS PENALTY: 0
STLB WRITEBACK ACCESS:     0  HIT:     0  MISS:     0  HIT %:     0  MISS %:     0  AVERAGE MISS PENALTY: 0
STLB PREFETCH  REQUESTED:     0  ISSUED:     0  USEFUL:     0  USELESS:     0
 USEFUL LOAD PREFETCHES:          0 PREFETCH ISSUED TO LOWER LEVEL:          0  ACCURACY: -nan
 TIMELY PREFETCHES:          0 LATE PREFETCHES: 0 DROPPED PREFETCHES: 0
STLB AVERAGE MISS LATENCY: 100 cycles
L1D TOTAL     ACCESS: 118053028  HIT: 110612977  MISS: 7440051  HIT %: 93.6977  MISS %: 6.3023  AVERAGE MISS PENALTY: 4.27903e+06
L1D LOAD      ACCESS: 52023155  HIT: 49064893  MISS: 2958262  HIT %: 94.3136  MISS %: 5.68643  AVERAGE MISS PENALTY: 9.3751e+06
L1D RFO       ACCESS: 36849268  HIT: 36544237  MISS: 305031  HIT %: 99.1722  MISS %: 0.82778  AVERAGE MISS PENALTY: 1.34471e+07
L1D PREFETCH  ACCESS: 29180605  HIT: 25003847  MISS: 4176758  HIT %: 85.6865  MISS %: 14.3135  AVERAGE MISS PENALTY: 99.3775
L1D WRITEBACK ACCESS:     0  HIT:     0  MISS:     0  HIT %:     0  MISS %:     0  AVERAGE MISS PENALTY: 0
L1D PREFETCH  REQUESTED: 32532679  ISSUED: 32361866  USEFUL: 669540  USELESS: 3507215
 USEFUL LOAD PREFETCHES:     669540 PREFETCH ISSUED TO LOWER LEVEL:    4903204  ACCURACY: 13.6552
 TIMELY PREFETCHES:     669540 LATE PREFETCHES: 517907 DROPPED PREFETCHES: 170813
L1D AVERAGE MISS LATENCY: 551397 cycles
L1I TOTAL     ACCESS: 43579229  HIT: 43501508  MISS: 77721  HIT %: 99.8217  MISS %: 0.178344  AVERAGE MISS PENALTY: 31.5278
L1I LOAD      ACCESS: 43579229  HIT: 43501508  MISS: 77721  HIT %: 99.8217  MISS %: 0.178344  AVERAGE MISS PENALTY: 31.5278
L1I RFO       ACCESS:     0  HIT:     0  MISS:     0  HIT %:     0  MISS %:     0  AVERAGE MISS PENALTY: 0
L1I PREFETCH  ACCESS:     0  HIT:     0  MISS:     0  HIT %:     0  MISS %:     0  AVERAGE MISS PENALTY: 0
L1I WRITEBACK ACCESS:     0  HIT:     0  MISS:     0  HIT %:     0  MISS %:     0  AVERAGE MISS PENALTY: 0
L1I PREFETCH  REQUESTED:     0  ISSUED:     0  USEFUL:     0  USELESS:     0
 USEFUL LOAD PREFETCHES:          0 PREFETCH ISSUED TO LOWER LEVEL:          0  ACCURACY: -nan
 TIMELY PREFETCHES:          0 LATE PREFETCHES: 0 DROPPED PREFETCHES: 0
L1I AVERAGE MISS LATENCY: 31.5278 cycles
L2C TOTAL     ACCESS: 12507931  HIT: 6023224  MISS: 6484707  HIT %: 48.1552  MISS %: 51.8448  AVERAGE MISS PENALTY: 4.07072e+06
L2C LOAD      ACCESS: 3031542  HIT: 1225539  MISS: 1806003  HIT %: 40.4263  MISS %: 59.5737  AVERAGE MISS PENALTY: 1.42358e+07
L2C RFO       ACCESS: 297946  HIT: 106118  MISS: 191828  HIT %: 35.6165  MISS %: 64.3835  AVERAGE MISS PENALTY: 3.581e+06
L2C PREFETCH  ACCESS: 7245694  HIT: 2765950  MISS: 4479744  HIT %: 38.1737  MISS %: 61.8263  AVERAGE MISS PENALTY: 116.94
L2C WRITEBACK ACCESS: 1932749  HIT: 1925617  MISS:  7132  HIT %: 99.631  MISS %: 0.369008  AVERAGE MISS PENALTY: 0
L2C PREFETCH  REQUESTED: 5107791  ISSUED: 5038928  USEFUL: 392402  USELESS: 4086801
 USEFUL LOAD PREFETCHES:     392402 PREFETCH ISSUED TO LOWER LEVEL:    4715213  ACCURACY: 8.32204
 TIMELY PREFETCHES:     392402 LATE PREFETCHES: 204288 DROPPED PREFETCHES: 68863
L2C AVERAGE MISS LATENCY: 111.156 cycles
LLC0 TOTAL     ACCESS: 952985  HIT: 654344  MISS: 298641  HIT %: 68.6626  MISS %: 31.3374  AVERAGE MISS PENALTY: 172.41
LLC0 LOAD      ACCESS: 232057  HIT: 155567  MISS: 76490  HIT %: 67.0383  MISS %: 32.9617  AVERAGE MISS PENALTY: 170.022
LLC0 RFO       ACCESS: 25781  HIT: 19835  MISS:  5946  HIT %: 76.9365  MISS %: 23.0635  AVERAGE MISS PENALTY: 173.584
LLC0 PREFETCH  ACCESS: 515382  HIT: 300420  MISS: 214962  HIT %: 58.2907  MISS %: 41.7093  AVERAGE MISS PENALTY: 174.225
LLC0 WRITEBACK ACCESS: 179765  HIT: 178522  MISS:  1243  HIT %: 99.3085  MISS %: 0.691458  AVERAGE MISS PENALTY: 0
LLC0 PREFETCH  REQUESTED:     0  ISSUED:     0  USEFUL: 16362  USELESS: 195654
 USEFUL LOAD PREFETCHES:      16362 PREFETCH ISSUED TO LOWER LEVEL:     214962  ACCURACY: 7.61158
 TIMELY PREFETCHES:      16362 LATE PREFETCHES: 0 DROPPED PREFETCHES: 0
LLC0 AVERAGE MISS LATENCY: 172.41 cycles
Deadblocks : 60077 Deadblock percentage : 78.5423

LLC1 TOTAL     ACCESS: 977536  HIT: 667264  MISS: 310272  HIT %: 68.2598  MISS %: 31.7402  AVERAGE MISS PENALTY: 172.447
LLC1 LOAD      ACCESS: 222992  HIT: 148657  MISS: 74335  HIT %: 66.6647  MISS %: 33.3353  AVERAGE MISS PENALTY: 169.83
LLC1 RFO       ACCESS: 24188  HIT: 18481  MISS:  5707  HIT %: 76.4057  MISS %: 23.5943  AVERAGE MISS PENALTY: 174.436
LLC1 PREFETCH  ACCESS: 550520  HIT: 321463  MISS: 229057  HIT %: 58.3926  MISS %: 41.6074  AVERAGE MISS PENALTY: 174.13
LLC1 WRITEBACK ACCESS: 179836  HIT: 178663  MISS:  1173  HIT %: 99.3477  MISS %: 0.652261  AVERAGE MISS PENALTY: 0
LLC1 PREFETCH  REQUESTED:     0  ISSUED:     0  USEFUL: 17512  USELESS: 208401
 USEFUL LOAD PREFETCHES:      17512 PREFETCH ISSUED TO LOWER LEVEL:     229057  ACCURACY: 7.64526
 TIMELY PREFETCHES:      17512 LATE PREFETCHES: 0 DROPPED PREFETCHES: 0
LLC1 AVERAGE MISS LATENCY: 172.447 cycles
LLC2 TOTAL     ACCESS: 994232  HIT: 676157  MISS: 318075  HIT %: 68.008  MISS %: 31.992  AVERAGE MISS PENALTY: 172.713
LLC2 LOAD      ACCESS: 221789  HIT: 148272  MISS: 73517  HIT %: 66.8527  MISS %: 33.1473  AVERAGE MISS PENALTY: 170.444
LLC2 RFO       ACCESS: 23156  HIT: 17665  MISS:  5491  HIT %: 76.2869  MISS %: 23.7131  AVERAGE MISS PENALTY: 173.923
LLC2 PREFETCH  ACCESS: 568600  HIT: 330779  MISS: 237821  HIT %: 58.1743  MISS %: 41.8257  AVERAGE MISS PENALTY: 174.291
LLC2 WRITEBACK ACCESS: 180687  HIT: 179441  MISS:  1246  HIT %: 99.3104  MISS %: 0.68959  AVERAGE MISS PENALTY: 0
LLC2 PREFETCH  REQUESTED:     0  ISSUED:     0  USEFUL: 18096  USELESS: 216273
 USEFUL LOAD PREFETCHES:      18096 PREFETCH ISSUED TO LOWER LEVEL:     237821  ACCURACY: 7.60908
 TIMELY PREFETCHES:      18096 LATE PREFETCHES: 0 DROPPED PREFETCHES: 0
LLC2 AVERAGE MISS LATENCY: 172.713 cycles
LLC3 TOTAL     ACCESS: 997141  HIT: 677519  MISS: 319622  HIT %: 67.9462  MISS %: 32.0538  AVERAGE MISS PENALTY: 172.698
LLC3 LOAD      ACCESS: 220301  HIT: 146923  MISS: 73378  HIT %: 66.6919  MISS %: 33.3081  AVERAGE MISS PENALTY: 170.207
LLC3 RFO       ACCESS: 23173  HIT: 17544  MISS:  5629  HIT %: 75.7088  MISS %: 24.2912  AVERAGE MISS PENALTY: 174.873
LLC3 PREFETCH  ACCESS: 572164  HIT: 332802  MISS: 239362  HIT %: 58.1655  MISS %: 41.8345  AVERAGE MISS PENALTY: 174.314
LLC3 WRITEBACK ACCESS: 181503  HIT: 180250  MISS:  1253  HIT %: 99.3097  MISS %: 0.690347  AVERAGE MISS PENALTY: 0
LLC3 PREFETCH  REQUESTED:     0  ISSUED:     0  USEFUL: 18442  USELESS: 217174
 USEFUL LOAD PREFETCHES:      18442 PREFETCH ISSUED TO LOWER LEVEL:     239362  ACCURACY: 7.70465
 TIMELY PREFETCHES:      18442 LATE PREFETCHES: 0 DROPPED PREFETCHES: 0
LLC3 AVERAGE MISS LATENCY: 172.698 cycles
LLC4 TOTAL     ACCESS: 1003001  HIT: 684900  MISS: 318101  HIT %: 68.2851  MISS %: 31.7149  AVERAGE MISS PENALTY: 172.683
LLC4 LOAD      ACCESS: 226005  HIT: 152406  MISS: 73599  HIT %: 67.4348  MISS %: 32.5652  AVERAGE MISS PENALTY: 170.197
LLC4 RFO       ACCESS: 23741  HIT: 18090  MISS:  5651  HIT %: 76.1973  MISS %: 23.8027  AVERAGE MISS PENALTY: 174.859
LLC4 PREFETCH  ACCESS: 570867  HIT: 333287  MISS: 237580  HIT %: 58.3826  MISS %: 41.6174  AVERAGE MISS PENALTY: 174.325
LLC4 WRITEBACK ACCESS: 182388  HIT: 181117  MISS:  1271  HIT %: 99.3031  MISS %: 0.696866  AVERAGE MISS PENALTY: 0
LLC4 PREFETCH  REQUESTED:     0  ISSUED:     0  USEFUL: 18434  USELESS: 215611
 USEFUL LOAD PREFETCHES:      18434 PREFETCH ISSUED TO LOWER LEVEL:     237580  ACCURACY: 7.75907
 TIMELY PREFETCHES:      18434 LATE PREFETCHES: 0 DROPPED PREFETCHES: 0
LLC4 AVERAGE MISS LATENCY: 172.683 cycles
LLC5 TOTAL     ACCESS: 1002242  HIT: 681587  MISS: 320655  HIT %: 68.0062  MISS %: 31.9938  AVERAGE MISS PENALTY: 172.783
LLC5 LOAD      ACCESS: 221294  HIT: 147487  MISS: 73807  HIT %: 66.6475  MISS %: 33.3525  AVERAGE MISS PENALTY: 170.219
LLC5 RFO       ACCESS: 23667  HIT: 17907  MISS:  5760  HIT %: 75.6623  MISS %: 24.3377  AVERAGE MISS PENALTY: 175.224
LLC5 PREFETCH  ACCESS: 576198  HIT: 336346  MISS: 239852  HIT %: 58.3733  MISS %: 41.6267  AVERAGE MISS PENALTY: 174.404
LLC5 WRITEBACK ACCESS: 181083  HIT: 179847  MISS:  1236  HIT %: 99.3174  MISS %: 0.68256  AVERAGE MISS PENALTY: 0
LLC5 PREFETCH  REQUESTED:     0  ISSUED:     0  USEFUL: 18300  USELESS: 218152
 USEFUL LOAD PREFETCHES:      18300 PREFETCH ISSUED TO LOWER LEVEL:     239852  ACCURACY: 7.6297
 TIMELY PREFETCHES:      18300 LATE PREFETCHES: 0 DROPPED PREFETCHES: 0
LLC5 AVERAGE MISS LATENCY: 172.783 cycles
LLC6 TOTAL     ACCESS: 1002132  HIT: 682712  MISS: 319420  HIT %: 68.126  MISS %: 31.874  AVERAGE MISS PENALTY: 172.798
LLC6 LOAD      ACCESS: 224743  HIT: 150666  MISS: 74077  HIT %: 67.0392  MISS %: 32.9608  AVERAGE MISS PENALTY: 170.618
LLC6 RFO       ACCESS: 23452  HIT: 17858  MISS:  5594  HIT %: 76.147  MISS %: 23.853  AVERAGE MISS PENALTY: 174.688
LLC6 PREFETCH  ACCESS: 571578  HIT: 333180  MISS: 238398  HIT %: 58.2913  MISS %: 41.7087  AVERAGE MISS PENALTY: 174.411
LLC6 WRITEBACK ACCESS: 182359  HIT: 181008  MISS:  1351  HIT %: 99.2592  MISS %: 0.740846  AVERAGE MISS PENALTY: 0
LLC6 PREFETCH  REQUESTED:     0  ISSUED:     0  USEFUL: 18242  USELESS: 216557
 USEFUL LOAD PREFETCHES:      18242 PREFETCH ISSUED TO LOWER LEVEL:     238398  ACCURACY: 7.65191
 TIMELY PREFETCHES:      18242 LATE PREFETCHES: 0 DROPPED PREFETCHES: 0
LLC6 AVERAGE MISS LATENCY: 172.798 cycles
LLC7 TOTAL     ACCESS: 997285  HIT: 678095  MISS: 319190  HIT %: 67.9941  MISS %: 32.0059  AVERAGE MISS PENALTY: 172.787
LLC7 LOAD      ACCESS: 221333  HIT: 147521  MISS: 73812  HIT %: 66.6512  MISS %: 33.3488  AVERAGE MISS PENALTY: 170.244
LLC7 RFO       ACCESS: 23494  HIT: 17955  MISS:  5539  HIT %: 76.4238  MISS %: 23.5762  AVERAGE MISS PENALTY: 175.771
LLC7 PREFETCH  ACCESS: 571088  HIT: 332519  MISS: 238569  HIT %: 58.2255  MISS %: 41.7745  AVERAGE MISS PENALTY: 174.424
LLC7 WRITEBACK ACCESS: 181370  HIT: 180100  MISS:  1270  HIT %: 99.2998  MISS %: 0.700226  AVERAGE MISS PENALTY: 0
LLC7 PREFETCH  REQUESTED:     0  ISSUED:     0  USEFUL: 18065  USELESS: 217021
 USEFUL LOAD PREFETCHES:      18065 PREFETCH ISSUED TO LOWER LEVEL:     238569  ACCURACY: 7.57223
 TIMELY PREFETCHES:      18065 LATE PREFETCHES: 0 DROPPED PREFETCHES: 0
LLC7 AVERAGE MISS LATENCY: 172.787 cycles
ROI Average ROB Stall Cycles:	10.4681
ROI Total ROB Stalls Cycles:	760393880
ROI TOTAL ROB counter      :	72639471
ROI Average Load ROB Stall Cycles:	18.9723
ROI Total Load ROB Stalls Cycle  :	173414123
ROI Total Load ROB stalls Counter:	9140394
Major fault: 0 Minor fault: 48109

