
*** ChampSim Multicore Out-of-Order Simulator ***

Warmup Instructions: 200000000
Simulation Instructions: 200000000
Number of CPUs: 1
threads:1

L1I Configuration:
L1I_SET:64
L1I_WAY:8
L1I_RQ_SIZE:64
L1I_WQ_SIZE:64
L1I_PQ_SIZE:8
L1I_MSHR_SIZE:8

L1D Configuration:
L1D_SET:64
L1D_WAY:12
L1D_RQ_SIZE:64
L1D_WQ_SIZE:64
L1D_PQ_SIZE:8
L1D_MSHR_SIZE:16

L2C Configuration:
L2C_SET:1024
L2C_WAY:8
L2C_RQ_SIZE:32
L2C_WQ_SIZE:32
L2C_PQ_SIZE:16
L2C_MSHR_SIZE:32

LLC Configuration:
LLC_SET:2048
LLC_WAY:16
LLC SLICES:8
LLC_RQ_SIZE:64
LLC_WQ_SIZE:64
LLC_PQ_SIZE:32
LLC_MSHR_SIZE:64

Interconnect OFF
Attacker deprioritize is: OFF
Off-chip DRAM Size: 4096 MB Channels: 1 Width: 64-bit Data Rate: 3200 MT/s
PAGE SIZE in KB: 4.000000 
PAGE SIZE in MB: 0.003906 
PAGE offset in bits: 12 
CEASER-S_LLC:0
MIRAGE : 1
CEASER_LATENCY:3
REMAP : OFF
Partitions : 1
Multi-Step : OFF
BFS : OFF

CPU 0 runs /home/anubhav/spec_2017/621.wrf_s-6673B.champsimtrace.xz
CPU 0 Bimodal branch predictor
Initialize Hawkeye state
Initialize Hawkeye state
Initialize Hawkeye state
Initialize Hawkeye state
Initialize Hawkeye state
Initialize Hawkeye state
Initialize Hawkeye state
Initialize Hawkeye state
Heartbeat CPU 0 instructions: 10000001 cycles: 5655808 heartbeat IPC: 1.76809 cumulative IPC: 1.76809 (Simulation time: 0 hr 1 min 56 sec) 
 Total Blocks : 262144 Invalid Blocks : 190938
Heartbeat CPU 0 instructions: 20000002 cycles: 9641957 heartbeat IPC: 2.50869 cumulative IPC: 2.07427 (Simulation time: 0 hr 3 min 43 sec) 
 Total Blocks : 262144 Invalid Blocks : 150080
Heartbeat CPU 0 instructions: 30000001 cycles: 13260876 heartbeat IPC: 2.76326 cumulative IPC: 2.26229 (Simulation time: 0 hr 5 min 7 sec) 
 Total Blocks : 262144 Invalid Blocks : 127859
Heartbeat CPU 0 instructions: 40000002 cycles: 17328694 heartbeat IPC: 2.45832 cumulative IPC: 2.30831 (Simulation time: 0 hr 6 min 49 sec) 
 Total Blocks : 262144 Invalid Blocks : 47375
Heartbeat CPU 0 instructions: 50000001 cycles: 21321766 heartbeat IPC: 2.50434 cumulative IPC: 2.34502 (Simulation time: 0 hr 8 min 23 sec) 
 Total Blocks : 262144 Invalid Blocks : 32388
Heartbeat CPU 0 instructions: 60000000 cycles: 26171775 heartbeat IPC: 2.06185 cumulative IPC: 2.29255 (Simulation time: 0 hr 10 min 4 sec) 
 Total Blocks : 262144 Invalid Blocks : 23981
Heartbeat CPU 0 instructions: 70000003 cycles: 30717408 heartbeat IPC: 2.19991 cumulative IPC: 2.27884 (Simulation time: 0 hr 11 min 51 sec) 
 Total Blocks : 262144 Invalid Blocks : 14548
Heartbeat CPU 0 instructions: 80000000 cycles: 35124541 heartbeat IPC: 2.26905 cumulative IPC: 2.27761 (Simulation time: 0 hr 13 min 36 sec) 
 Total Blocks : 262144 Invalid Blocks : 12028
Heartbeat CPU 0 instructions: 90000002 cycles: 39873690 heartbeat IPC: 2.10564 cumulative IPC: 2.25713 (Simulation time: 0 hr 15 min 26 sec) 
 Total Blocks : 262144 Invalid Blocks : 9457
Heartbeat CPU 0 instructions: 100000000 cycles: 44471042 heartbeat IPC: 2.17516 cumulative IPC: 2.24865 (Simulation time: 0 hr 17 min 16 sec) 
 Total Blocks : 262144 Invalid Blocks : 5876
Heartbeat CPU 0 instructions: 110000000 cycles: 49005781 heartbeat IPC: 2.2052 cumulative IPC: 2.24463 (Simulation time: 0 hr 19 min 4 sec) 
 Total Blocks : 262144 Invalid Blocks : 5338
Heartbeat CPU 0 instructions: 120000002 cycles: 53552199 heartbeat IPC: 2.19953 cumulative IPC: 2.2408 (Simulation time: 0 hr 20 min 57 sec) 
 Total Blocks : 262144 Invalid Blocks : 4376
Heartbeat CPU 0 instructions: 130000001 cycles: 58012200 heartbeat IPC: 2.24215 cumulative IPC: 2.24091 (Simulation time: 0 hr 22 min 50 sec) 
 Total Blocks : 262144 Invalid Blocks : 4240
Heartbeat CPU 0 instructions: 140000003 cycles: 62598281 heartbeat IPC: 2.18051 cumulative IPC: 2.23648 (Simulation time: 0 hr 24 min 44 sec) 
 Total Blocks : 262144 Invalid Blocks : 3718
Heartbeat CPU 0 instructions: 150000000 cycles: 67053141 heartbeat IPC: 2.24474 cumulative IPC: 2.23703 (Simulation time: 0 hr 26 min 37 sec) 
 Total Blocks : 262144 Invalid Blocks : 3519
Heartbeat CPU 0 instructions: 160000000 cycles: 71613229 heartbeat IPC: 2.19294 cumulative IPC: 2.23422 (Simulation time: 0 hr 28 min 31 sec) 
 Total Blocks : 262144 Invalid Blocks : 3206
Heartbeat CPU 0 instructions: 170000000 cycles: 76149888 heartbeat IPC: 2.20427 cumulative IPC: 2.23244 (Simulation time: 0 hr 30 min 23 sec) 
 Total Blocks : 262144 Invalid Blocks : 2888
Heartbeat CPU 0 instructions: 180000001 cycles: 80619089 heartbeat IPC: 2.23754 cumulative IPC: 2.23272 (Simulation time: 0 hr 32 min 14 sec) 
 Total Blocks : 262144 Invalid Blocks : 2809
Heartbeat CPU 0 instructions: 190000002 cycles: 85290481 heartbeat IPC: 2.14069 cumulative IPC: 2.22768 (Simulation time: 0 hr 34 min 3 sec) 
 Total Blocks : 262144 Invalid Blocks : 2401
Heartbeat CPU 0 instructions: 200000002 cycles: 90222034 heartbeat IPC: 2.02776 cumulative IPC: 2.21675 (Simulation time: 0 hr 35 min 53 sec) 
 Total Blocks : 262144 Invalid Blocks : 2345

Warmup complete CPU 0 instructions: 200000002 cycles: 90222034 (Simulation time: 0 hr 35 min 53 sec) 

Heartbeat CPU 0 instructions: 210000003 cycles: 105264764 heartbeat IPC: 0.664773 cumulative IPC: 0.664773 (Simulation time: 0 hr 39 min 16 sec) 
 Total Blocks : 262144 Invalid Blocks : 2277
Heartbeat CPU 0 instructions: 220000000 cycles: 120358872 heartbeat IPC: 0.66251 cumulative IPC: 0.66364 (Simulation time: 0 hr 42 min 31 sec) 
 Total Blocks : 262144 Invalid Blocks : 2166
Heartbeat CPU 0 instructions: 230000002 cycles: 128940360 heartbeat IPC: 1.1653 cumulative IPC: 0.774827 (Simulation time: 0 hr 44 min 45 sec) 
 Total Blocks : 262144 Invalid Blocks : 1441
Heartbeat CPU 0 instructions: 240000000 cycles: 139682444 heartbeat IPC: 0.930918 cumulative IPC: 0.808728 (Simulation time: 0 hr 47 min 3 sec) 
 Total Blocks : 262144 Invalid Blocks : 765
Heartbeat CPU 0 instructions: 250000003 cycles: 146327243 heartbeat IPC: 1.50494 cumulative IPC: 0.891183 (Simulation time: 0 hr 49 min 6 sec) 
 Total Blocks : 262144 Invalid Blocks : 744
Heartbeat CPU 0 instructions: 260000000 cycles: 153004695 heartbeat IPC: 1.49758 cumulative IPC: 0.955678 (Simulation time: 0 hr 51 min 19 sec) 
 Total Blocks : 262144 Invalid Blocks : 714
Heartbeat CPU 0 instructions: 270000000 cycles: 159590652 heartbeat IPC: 1.51838 cumulative IPC: 1.0091 (Simulation time: 0 hr 53 min 34 sec) 
 Total Blocks : 262144 Invalid Blocks : 688
Heartbeat CPU 0 instructions: 280000003 cycles: 165681972 heartbeat IPC: 1.64168 cumulative IPC: 1.06017 (Simulation time: 0 hr 55 min 40 sec) 
 Total Blocks : 262144 Invalid Blocks : 672
Heartbeat CPU 0 instructions: 290000003 cycles: 172150636 heartbeat IPC: 1.54591 cumulative IPC: 1.09852 (Simulation time: 0 hr 57 min 55 sec) 
 Total Blocks : 262144 Invalid Blocks : 644
Heartbeat CPU 0 instructions: 300000002 cycles: 178648091 heartbeat IPC: 1.53906 cumulative IPC: 1.13089 (Simulation time: 1 hr 0 min 2 sec) 
 Total Blocks : 262144 Invalid Blocks : 607
Heartbeat CPU 0 instructions: 310000001 cycles: 185362909 heartbeat IPC: 1.48924 cumulative IPC: 1.15618 (Simulation time: 1 hr 2 min 16 sec) 
 Total Blocks : 262144 Invalid Blocks : 505
Heartbeat CPU 0 instructions: 320000003 cycles: 198604093 heartbeat IPC: 0.75522 cumulative IPC: 1.10719 (Simulation time: 1 hr 5 min 11 sec) 
 Total Blocks : 262144 Invalid Blocks : 475
Heartbeat CPU 0 instructions: 330000000 cycles: 204692813 heartbeat IPC: 1.64238 cumulative IPC: 1.13566 (Simulation time: 1 hr 7 min 2 sec) 
 Total Blocks : 262144 Invalid Blocks : 433
Heartbeat CPU 0 instructions: 340000002 cycles: 211092800 heartbeat IPC: 1.5625 cumulative IPC: 1.15826 (Simulation time: 1 hr 8 min 50 sec) 
 Total Blocks : 262144 Invalid Blocks : 386
Heartbeat CPU 0 instructions: 350000001 cycles: 221402203 heartbeat IPC: 0.969988 cumulative IPC: 1.14347 (Simulation time: 1 hr 11 min 20 sec) 
 Total Blocks : 262144 Invalid Blocks : 153
Heartbeat CPU 0 instructions: 360000000 cycles: 228928701 heartbeat IPC: 1.32864 cumulative IPC: 1.15351 (Simulation time: 1 hr 13 min 27 sec) 
 Total Blocks : 262144 Invalid Blocks : 108
Heartbeat CPU 0 instructions: 370000003 cycles: 237088379 heartbeat IPC: 1.22554 cumulative IPC: 1.15752 (Simulation time: 1 hr 15 min 35 sec) 
 Total Blocks : 262144 Invalid Blocks : 86
Heartbeat CPU 0 instructions: 380000001 cycles: 245783852 heartbeat IPC: 1.15002 cumulative IPC: 1.1571 (Simulation time: 1 hr 17 min 46 sec) 
 Total Blocks : 262144 Invalid Blocks : 54
Heartbeat CPU 0 instructions: 390000000 cycles: 252914085 heartbeat IPC: 1.40248 cumulative IPC: 1.16785 (Simulation time: 1 hr 19 min 40 sec) 
 Total Blocks : 262144 Invalid Blocks : 44
Heartbeat CPU 0 instructions: 400000000 cycles: 260523148 heartbeat IPC: 1.31422 cumulative IPC: 1.17439 (Simulation time: 1 hr 21 min 40 sec) 
 Total Blocks : 262144 Invalid Blocks : 33
Finished CPU 0 instructions: 200000002 cycles: 170301115 cumulative IPC: 1.17439 (Simulation time: 1 hr 21 min 40 sec) 

CPU 0 Branch Prediction Accuracy: 96.739% MPKI: 1.7301 Average ROB Occupancy at Mispredict: 222.107

ChampSim completed all CPUs

Region of Interest Statistics

CPU 0 cumulative IPC: 1.17439 instructions: 200000002 cycles: 170301115
ITLB TOTAL     ACCESS: 34088576  HIT: 34088354  MISS:   222  HIT %: 99.9993  MISS %: 0.000651245  AVERAGE MISS PENALTY: 129.712
ITLB LOAD      ACCESS: 34088576  HIT: 34088354  MISS:   222  HIT %: 99.9993  MISS %: 0.000651245  AVERAGE MISS PENALTY: 129.712
ITLB RFO       ACCESS:     0  HIT:     0  MISS:     0  HIT %:     0  MISS %:     0  AVERAGE MISS PENALTY: 0
ITLB PREFETCH  ACCESS:     0  HIT:     0  MISS:     0  HIT %:     0  MISS %:     0  AVERAGE MISS PENALTY: 0
ITLB WRITEBACK ACCESS:     0  HIT:     0  MISS:     0  HIT %:     0  MISS %:     0  AVERAGE MISS PENALTY: 0
ITLB PREFETCH  REQUESTED:     0  ISSUED:     0  USEFUL:     0  USELESS:     0
 USEFUL LOAD PREFETCHES:          0 PREFETCH ISSUED TO LOWER LEVEL:          0  ACCURACY: -nan
 TIMELY PREFETCHES:          0 LATE PREFETCHES: 0 DROPPED PREFETCHES: 0
ITLB AVERAGE MISS LATENCY: 129.712 cycles
DTLB TOTAL     ACCESS: 50092524  HIT: 49934781  MISS: 157743  HIT %: 99.6851  MISS %: 0.314903  AVERAGE MISS PENALTY: 35.7111
DTLB LOAD      ACCESS: 43782121  HIT: 43646536  MISS: 135585  HIT %: 99.6903  MISS %: 0.309681  AVERAGE MISS PENALTY: 35.0871
DTLB RFO       ACCESS: 6310403  HIT: 6288245  MISS: 22158  HIT %: 99.6489  MISS %: 0.351134  AVERAGE MISS PENALTY: 39.5291
DTLB PREFETCH  ACCESS:     0  HIT:     0  MISS:     0  HIT %:     0  MISS %:     0  AVERAGE MISS PENALTY: 0
DTLB WRITEBACK ACCESS:     0  HIT:     0  MISS:     0  HIT %:     0  MISS %:     0  AVERAGE MISS PENALTY: 0
DTLB PREFETCH  REQUESTED:     0  ISSUED:     0  USEFUL:     0  USELESS:     0
 USEFUL LOAD PREFETCHES:          0 PREFETCH ISSUED TO LOWER LEVEL:          0  ACCURACY: -nan
 TIMELY PREFETCHES:          0 LATE PREFETCHES: 0 DROPPED PREFETCHES: 0
DTLB AVERAGE MISS LATENCY: 35.7111 cycles
STLB TOTAL     ACCESS: 157965  HIT: 128169  MISS: 29796  HIT %: 81.1376  MISS %: 18.8624  AVERAGE MISS PENALTY: 100
STLB LOAD      ACCESS: 135807  HIT: 112180  MISS: 23627  HIT %: 82.6025  MISS %: 17.3975  AVERAGE MISS PENALTY: 100
STLB RFO       ACCESS: 22158  HIT: 15989  MISS:  6169  HIT %: 72.159  MISS %: 27.841  AVERAGE MISS PENALTY: 100
STLB PREFETCH  ACCESS:     0  HIT:     0  MISS:     0  HIT %:     0  MISS %:     0  AVERAGE MISS PENALTY: 0
STLB WRITEBACK ACCESS:     0  HIT:     0  MISS:     0  HIT %:     0  MISS %:     0  AVERAGE MISS PENALTY: 0
STLB PREFETCH  REQUESTED:     0  ISSUED:     0  USEFUL:     0  USELESS:     0
 USEFUL LOAD PREFETCHES:          0 PREFETCH ISSUED TO LOWER LEVEL:          0  ACCURACY: -nan
 TIMELY PREFETCHES:          0 LATE PREFETCHES: 0 DROPPED PREFETCHES: 0
STLB AVERAGE MISS LATENCY: 100 cycles
L1D TOTAL     ACCESS: 64596856  HIT: 60466153  MISS: 4130703  HIT %: 93.6054  MISS %: 6.39459  AVERAGE MISS PENALTY: 7.62557e+06
L1D LOAD      ACCESS: 40565554  HIT: 39892219  MISS: 673335  HIT %: 98.3401  MISS %: 1.65987  AVERAGE MISS PENALTY: 4.65803e+07
L1D RFO       ACCESS: 8292160  HIT: 7725929  MISS: 566231  HIT %: 93.1715  MISS %: 6.82851  AVERAGE MISS PENALTY: 237875
L1D PREFETCH  ACCESS: 15739142  HIT: 12848005  MISS: 2891137  HIT %: 81.6309  MISS %: 18.3691  AVERAGE MISS PENALTY: 35.8201
L1D WRITEBACK ACCESS:     0  HIT:     0  MISS:     0  HIT %:     0  MISS %:     0  AVERAGE MISS PENALTY: 0
L1D PREFETCH  REQUESTED: 22025285  ISSUED: 17251481  USEFUL: 2662270  USELESS: 228848
 USEFUL LOAD PREFETCHES:    2662270 PREFETCH ISSUED TO LOWER LEVEL:    5566957  ACCURACY: 47.8227
 TIMELY PREFETCHES:    2662270 LATE PREFETCHES: 263413 DROPPED PREFETCHES: 4773804
L1D AVERAGE MISS LATENCY: 32643.4 cycles
L1I TOTAL     ACCESS: 44616556  HIT: 44609963  MISS:  6593  HIT %: 99.9852  MISS %: 0.014777  AVERAGE MISS PENALTY: 184.728
L1I LOAD      ACCESS: 44616556  HIT: 44609963  MISS:  6593  HIT %: 99.9852  MISS %: 0.014777  AVERAGE MISS PENALTY: 184.728
L1I RFO       ACCESS:     0  HIT:     0  MISS:     0  HIT %:     0  MISS %:     0  AVERAGE MISS PENALTY: 0
L1I PREFETCH  ACCESS:     0  HIT:     0  MISS:     0  HIT %:     0  MISS %:     0  AVERAGE MISS PENALTY: 0
L1I WRITEBACK ACCESS:     0  HIT:     0  MISS:     0  HIT %:     0  MISS %:     0  AVERAGE MISS PENALTY: 0
L1I PREFETCH  REQUESTED:     0  ISSUED:     0  USEFUL:     0  USELESS:     0
 USEFUL LOAD PREFETCHES:          0 PREFETCH ISSUED TO LOWER LEVEL:          0  ACCURACY: -nan
 TIMELY PREFETCHES:          0 LATE PREFETCHES: 0 DROPPED PREFETCHES: 0
L1I AVERAGE MISS LATENCY: 184.728 cycles
L2C TOTAL     ACCESS: 12275241  HIT: 9257172  MISS: 3018069  HIT %: 75.4134  MISS %: 24.5866  AVERAGE MISS PENALTY: 5.92832e+06
L2C LOAD      ACCESS: 660603  HIT: 391413  MISS: 269190  HIT %: 59.2509  MISS %: 40.7491  AVERAGE MISS PENALTY: 6.63713e+07
L2C RFO       ACCESS: 565379  HIT: 164746  MISS: 400633  HIT %: 29.139  MISS %: 70.861  AVERAGE MISS PENALTY: 63375.1
L2C PREFETCH  ACCESS: 9769833  HIT: 7423122  MISS: 2346711  HIT %: 75.98  MISS %: 24.02  AVERAGE MISS PENALTY: 94.4369
L2C WRITEBACK ACCESS: 1279426  HIT: 1277891  MISS:  1535  HIT %: 99.88  MISS %: 0.119976  AVERAGE MISS PENALTY: 0
L2C PREFETCH  REQUESTED: 11396484  ISSUED: 10863664  USEFUL: 248066  USELESS: 2099343
 USEFUL LOAD PREFETCHES:     248066 PREFETCH ISSUED TO LOWER LEVEL:    2951741  ACCURACY: 8.40406
 TIMELY PREFETCHES:     248066 LATE PREFETCHES: 152014 DROPPED PREFETCHES: 532820
L2C AVERAGE MISS LATENCY: 126.044 cycles
LLC0 TOTAL     ACCESS: 499630  HIT: 366817  MISS: 132813  HIT %: 73.4177  MISS %: 26.5823  AVERAGE MISS PENALTY: 267.329
LLC0 LOAD      ACCESS: 53095  HIT: 38392  MISS: 14703  HIT %: 72.3081  MISS %: 27.6919  AVERAGE MISS PENALTY: 226.35
LLC0 RFO       ACCESS: 50265  HIT: 10991  MISS: 39274  HIT %: 21.8661  MISS %: 78.1339  AVERAGE MISS PENALTY: 345.353
LLC0 PREFETCH  ACCESS: 271931  HIT: 194938  MISS: 76993  HIT %: 71.6866  MISS %: 28.3134  AVERAGE MISS PENALTY: 241.753
LLC0 WRITEBACK ACCESS: 124339  HIT: 122496  MISS:  1843  HIT %: 98.5178  MISS %: 1.48224  AVERAGE MISS PENALTY: 0
LLC0 PREFETCH  REQUESTED:     0  ISSUED:     0  USEFUL:  9253  USELESS: 66819
 USEFUL LOAD PREFETCHES:       9253 PREFETCH ISSUED TO LOWER LEVEL:      76993  ACCURACY: 12.018
 TIMELY PREFETCHES:       9253 LATE PREFETCHES: 0 DROPPED PREFETCHES: 0
LLC0 AVERAGE MISS LATENCY: 267.329 cycles
Deadblocks : 11729 Deadblock percentage : 79.7728

LLC1 TOTAL     ACCESS: 500591  HIT: 367275  MISS: 133316  HIT %: 73.3683  MISS %: 26.6317  AVERAGE MISS PENALTY: 268.25
LLC1 LOAD      ACCESS: 27314  HIT: 19725  MISS:  7589  HIT %: 72.2157  MISS %: 27.7843  AVERAGE MISS PENALTY: 249.245
LLC1 RFO       ACCESS: 50262  HIT: 11065  MISS: 39197  HIT %: 22.0146  MISS %: 77.9854  AVERAGE MISS PENALTY: 346.917
LLC1 PREFETCH  ACCESS: 298617  HIT: 213902  MISS: 84715  HIT %: 71.6309  MISS %: 28.3691  AVERAGE MISS PENALTY: 239.302
LLC1 WRITEBACK ACCESS: 124398  HIT: 122583  MISS:  1815  HIT %: 98.541  MISS %: 1.45903  AVERAGE MISS PENALTY: 0
LLC1 PREFETCH  REQUESTED:     0  ISSUED:     0  USEFUL: 11390  USELESS: 73283
 USEFUL LOAD PREFETCHES:      11390 PREFETCH ISSUED TO LOWER LEVEL:      84715  ACCURACY: 13.4451
 TIMELY PREFETCHES:      11390 LATE PREFETCHES: 0 DROPPED PREFETCHES: 0
LLC1 AVERAGE MISS LATENCY: 268.25 cycles
LLC2 TOTAL     ACCESS: 500989  HIT: 367835  MISS: 133154  HIT %: 73.4218  MISS %: 26.5782  AVERAGE MISS PENALTY: 270.392
LLC2 LOAD      ACCESS: 21138  HIT: 15523  MISS:  5615  HIT %: 73.4365  MISS %: 26.5635  AVERAGE MISS PENALTY: 257.91
LLC2 RFO       ACCESS: 50196  HIT: 11089  MISS: 39107  HIT %: 22.0914  MISS %: 77.9086  AVERAGE MISS PENALTY: 349.323
LLC2 PREFETCH  ACCESS: 305282  HIT: 218591  MISS: 86691  HIT %: 71.603  MISS %: 28.397  AVERAGE MISS PENALTY: 241.024
LLC2 WRITEBACK ACCESS: 124373  HIT: 122632  MISS:  1741  HIT %: 98.6002  MISS %: 1.39982  AVERAGE MISS PENALTY: 0
LLC2 PREFETCH  REQUESTED:     0  ISSUED:     0  USEFUL: 11005  USELESS: 75289
 USEFUL LOAD PREFETCHES:      11005 PREFETCH ISSUED TO LOWER LEVEL:      86691  ACCURACY: 12.6945
 TIMELY PREFETCHES:      11005 LATE PREFETCHES: 0 DROPPED PREFETCHES: 0
LLC2 AVERAGE MISS LATENCY: 270.392 cycles
LLC3 TOTAL     ACCESS: 500906  HIT: 367264  MISS: 133642  HIT %: 73.3199  MISS %: 26.6801  AVERAGE MISS PENALTY: 272.137
LLC3 LOAD      ACCESS: 19050  HIT: 14172  MISS:  4878  HIT %: 74.3937  MISS %: 25.6063  AVERAGE MISS PENALTY: 265.701
LLC3 RFO       ACCESS: 50126  HIT: 10738  MISS: 39388  HIT %: 21.422  MISS %: 78.578  AVERAGE MISS PENALTY: 351.719
LLC3 PREFETCH  ACCESS: 307344  HIT: 219647  MISS: 87697  HIT %: 71.4662  MISS %: 28.5338  AVERAGE MISS PENALTY: 241.961
LLC3 WRITEBACK ACCESS: 124386  HIT: 122707  MISS:  1679  HIT %: 98.6502  MISS %: 1.34983  AVERAGE MISS PENALTY: 0
LLC3 PREFETCH  REQUESTED:     0  ISSUED:     0  USEFUL: 10551  USELESS: 76262
 USEFUL LOAD PREFETCHES:      10551 PREFETCH ISSUED TO LOWER LEVEL:      87697  ACCURACY: 12.0312
 TIMELY PREFETCHES:      10551 LATE PREFETCHES: 0 DROPPED PREFETCHES: 0
LLC3 AVERAGE MISS LATENCY: 272.137 cycles
LLC4 TOTAL     ACCESS: 501663  HIT: 368361  MISS: 133302  HIT %: 73.428  MISS %: 26.572  AVERAGE MISS PENALTY: 271.467
LLC4 LOAD      ACCESS: 18587  HIT: 13997  MISS:  4590  HIT %: 75.3053  MISS %: 24.6947  AVERAGE MISS PENALTY: 261.939
LLC4 RFO       ACCESS: 50164  HIT: 10888  MISS: 39276  HIT %: 21.7048  MISS %: 78.2952  AVERAGE MISS PENALTY: 350.101
LLC4 PREFETCH  ACCESS: 308480  HIT: 220752  MISS: 87728  HIT %: 71.5612  MISS %: 28.4388  AVERAGE MISS PENALTY: 242.047
LLC4 WRITEBACK ACCESS: 124432  HIT: 122724  MISS:  1708  HIT %: 98.6274  MISS %: 1.37264  AVERAGE MISS PENALTY: 0
LLC4 PREFETCH  REQUESTED:     0  ISSUED:     0  USEFUL: 10508  USELESS: 76325
 USEFUL LOAD PREFETCHES:      10508 PREFETCH ISSUED TO LOWER LEVEL:      87728  ACCURACY: 11.9779
 TIMELY PREFETCHES:      10508 LATE PREFETCHES: 0 DROPPED PREFETCHES: 0
LLC4 AVERAGE MISS LATENCY: 271.467 cycles
LLC5 TOTAL     ACCESS: 502055  HIT: 368703  MISS: 133352  HIT %: 73.4388  MISS %: 26.5612  AVERAGE MISS PENALTY: 271.542
LLC5 LOAD      ACCESS: 18162  HIT: 13541  MISS:  4621  HIT %: 74.5568  MISS %: 25.4432  AVERAGE MISS PENALTY: 270.976
LLC5 RFO       ACCESS: 49859  HIT: 10773  MISS: 39086  HIT %: 21.6069  MISS %: 78.3931  AVERAGE MISS PENALTY: 350.313
LLC5 PREFETCH  ACCESS: 309704  HIT: 221792  MISS: 87912  HIT %: 71.6142  MISS %: 28.3858  AVERAGE MISS PENALTY: 241.903
LLC5 WRITEBACK ACCESS: 124330  HIT: 122597  MISS:  1733  HIT %: 98.6061  MISS %: 1.39387  AVERAGE MISS PENALTY: 0
LLC5 PREFETCH  REQUESTED:     0  ISSUED:     0  USEFUL: 10471  USELESS: 76595
 USEFUL LOAD PREFETCHES:      10471 PREFETCH ISSUED TO LOWER LEVEL:      87912  ACCURACY: 11.9108
 TIMELY PREFETCHES:      10471 LATE PREFETCHES: 0 DROPPED PREFETCHES: 0
LLC5 AVERAGE MISS LATENCY: 271.542 cycles
LLC6 TOTAL     ACCESS: 502622  HIT: 369445  MISS: 133177  HIT %: 73.5035  MISS %: 26.4965  AVERAGE MISS PENALTY: 272.163
LLC6 LOAD      ACCESS: 18077  HIT: 13615  MISS:  4462  HIT %: 75.3167  MISS %: 24.6833  AVERAGE MISS PENALTY: 269.298
LLC6 RFO       ACCESS: 49796  HIT: 10604  MISS: 39192  HIT %: 21.2949  MISS %: 78.7051  AVERAGE MISS PENALTY: 351.573
LLC6 PREFETCH  ACCESS: 310328  HIT: 222576  MISS: 87752  HIT %: 71.7228  MISS %: 28.2772  AVERAGE MISS PENALTY: 242.336
LLC6 WRITEBACK ACCESS: 124421  HIT: 122650  MISS:  1771  HIT %: 98.5766  MISS %: 1.42339  AVERAGE MISS PENALTY: 0
LLC6 PREFETCH  REQUESTED:     0  ISSUED:     0  USEFUL: 10536  USELESS: 76286
 USEFUL LOAD PREFETCHES:      10536 PREFETCH ISSUED TO LOWER LEVEL:      87752  ACCURACY: 12.0066
 TIMELY PREFETCHES:      10536 LATE PREFETCHES: 0 DROPPED PREFETCHES: 0
LLC6 AVERAGE MISS LATENCY: 272.163 cycles
LLC7 TOTAL     ACCESS: 503207  HIT: 369539  MISS: 133668  HIT %: 73.4368  MISS %: 26.5632  AVERAGE MISS PENALTY: 272.232
LLC7 LOAD      ACCESS: 17763  HIT: 13366  MISS:  4397  HIT %: 75.2463  MISS %: 24.7537  AVERAGE MISS PENALTY: 267.908
LLC7 RFO       ACCESS: 49831  HIT: 10803  MISS: 39028  HIT %: 21.6793  MISS %: 78.3207  AVERAGE MISS PENALTY: 351.405
LLC7 PREFETCH  ACCESS: 311156  HIT: 222583  MISS: 88573  HIT %: 71.5342  MISS %: 28.4658  AVERAGE MISS PENALTY: 242.693
LLC7 WRITEBACK ACCESS: 124457  HIT: 122787  MISS:  1670  HIT %: 98.6582  MISS %: 1.34183  AVERAGE MISS PENALTY: 0
LLC7 PREFETCH  REQUESTED:     0  ISSUED:     0  USEFUL: 10613  USELESS: 77016
 USEFUL LOAD PREFETCHES:      10613 PREFETCH ISSUED TO LOWER LEVEL:      88573  ACCURACY: 11.9822
 TIMELY PREFETCHES:      10613 LATE PREFETCHES: 0 DROPPED PREFETCHES: 0
LLC7 AVERAGE MISS LATENCY: 272.232 cycles
ROI Average ROB Stall Cycles:	5.41527
ROI Total ROB Stalls Cycles:	124339192
ROI TOTAL ROB counter      :	22960835
ROI Average Load ROB Stall Cycles:	11.9986
ROI Total Load ROB Stalls Cycle  :	38375403
ROI Total Load ROB stalls Counter:	3198336
Major fault: 0 Minor fault: 10640

