
*** ChampSim Multicore Out-of-Order Simulator ***

Warmup Instructions: 200000000
Simulation Instructions: 200000000
Number of CPUs: 1
threads:1

L1I Configuration:
L1I_SET:64
L1I_WAY:8
L1I_RQ_SIZE:64
L1I_WQ_SIZE:64
L1I_PQ_SIZE:8
L1I_MSHR_SIZE:8

L1D Configuration:
L1D_SET:64
L1D_WAY:12
L1D_RQ_SIZE:64
L1D_WQ_SIZE:64
L1D_PQ_SIZE:8
L1D_MSHR_SIZE:16

L2C Configuration:
L2C_SET:1024
L2C_WAY:8
L2C_RQ_SIZE:32
L2C_WQ_SIZE:32
L2C_PQ_SIZE:16
L2C_MSHR_SIZE:32

LLC Configuration:
LLC_SET:2048
LLC_WAY:16
LLC SLICES:8
LLC_RQ_SIZE:64
LLC_WQ_SIZE:64
LLC_PQ_SIZE:32
LLC_MSHR_SIZE:64

Interconnect OFF
Attacker deprioritize is: OFF
Off-chip DRAM Size: 4096 MB Channels: 1 Width: 64-bit Data Rate: 3200 MT/s
PAGE SIZE in KB: 4.000000 
PAGE SIZE in MB: 0.003906 
PAGE offset in bits: 12 
CEASER-S_LLC:0
MIRAGE : 1
CEASER_LATENCY:3
REMAP : OFF
Partitions : 1
Multi-Step : OFF
BFS : OFF

CPU 0 runs /home/anubhav/spec_2017/621.wrf_s-8065B.champsimtrace.xz
CPU 0 Bimodal branch predictor
Initialize Hawkeye state
Initialize Hawkeye state
Initialize Hawkeye state
Initialize Hawkeye state
Initialize Hawkeye state
Initialize Hawkeye state
Initialize Hawkeye state
Initialize Hawkeye state
Heartbeat CPU 0 instructions: 10000001 cycles: 4656673 heartbeat IPC: 2.14746 cumulative IPC: 2.14746 (Simulation time: 0 hr 1 min 57 sec) 
 Total Blocks : 262144 Invalid Blocks : 92864
Heartbeat CPU 0 instructions: 20000000 cycles: 9125908 heartbeat IPC: 2.23752 cumulative IPC: 2.19156 (Simulation time: 0 hr 3 min 47 sec) 
 Total Blocks : 262144 Invalid Blocks : 87434
Heartbeat CPU 0 instructions: 30000000 cycles: 13381292 heartbeat IPC: 2.34996 cumulative IPC: 2.24194 (Simulation time: 0 hr 5 min 34 sec) 
 Total Blocks : 262144 Invalid Blocks : 71330
Heartbeat CPU 0 instructions: 40000003 cycles: 17954570 heartbeat IPC: 2.18662 cumulative IPC: 2.22785 (Simulation time: 0 hr 7 min 26 sec) 
 Total Blocks : 262144 Invalid Blocks : 64429
Heartbeat CPU 0 instructions: 50000002 cycles: 22293513 heartbeat IPC: 2.30471 cumulative IPC: 2.24281 (Simulation time: 0 hr 9 min 11 sec) 
 Total Blocks : 262144 Invalid Blocks : 60477
Heartbeat CPU 0 instructions: 60000002 cycles: 26842956 heartbeat IPC: 2.19807 cumulative IPC: 2.23522 (Simulation time: 0 hr 10 min 55 sec) 
 Total Blocks : 262144 Invalid Blocks : 54980
Heartbeat CPU 0 instructions: 70000002 cycles: 31137548 heartbeat IPC: 2.32851 cumulative IPC: 2.24809 (Simulation time: 0 hr 12 min 41 sec) 
 Total Blocks : 262144 Invalid Blocks : 52658
Heartbeat CPU 0 instructions: 80000000 cycles: 35728572 heartbeat IPC: 2.17816 cumulative IPC: 2.2391 (Simulation time: 0 hr 14 min 31 sec) 
 Total Blocks : 262144 Invalid Blocks : 47700
Heartbeat CPU 0 instructions: 90000003 cycles: 40046487 heartbeat IPC: 2.31593 cumulative IPC: 2.24739 (Simulation time: 0 hr 16 min 18 sec) 
 Total Blocks : 262144 Invalid Blocks : 45965
Heartbeat CPU 0 instructions: 100000001 cycles: 44614455 heartbeat IPC: 2.18916 cumulative IPC: 2.24143 (Simulation time: 0 hr 18 min 0 sec) 
 Total Blocks : 262144 Invalid Blocks : 41435
Heartbeat CPU 0 instructions: 110000000 cycles: 48955661 heartbeat IPC: 2.30351 cumulative IPC: 2.24693 (Simulation time: 0 hr 19 min 40 sec) 
 Total Blocks : 262144 Invalid Blocks : 40106
Heartbeat CPU 0 instructions: 120000001 cycles: 53640897 heartbeat IPC: 2.13436 cumulative IPC: 2.2371 (Simulation time: 0 hr 21 min 18 sec) 
 Total Blocks : 262144 Invalid Blocks : 34200
Heartbeat CPU 0 instructions: 130000001 cycles: 58572940 heartbeat IPC: 2.02756 cumulative IPC: 2.21946 (Simulation time: 0 hr 23 min 0 sec) 
 Total Blocks : 262144 Invalid Blocks : 33195
Heartbeat CPU 0 instructions: 140000000 cycles: 63512740 heartbeat IPC: 2.02437 cumulative IPC: 2.20428 (Simulation time: 0 hr 24 min 40 sec) 
 Total Blocks : 262144 Invalid Blocks : 32215
Heartbeat CPU 0 instructions: 150000002 cycles: 68422793 heartbeat IPC: 2.03664 cumulative IPC: 2.19225 (Simulation time: 0 hr 26 min 23 sec) 
 Total Blocks : 262144 Invalid Blocks : 26547
Heartbeat CPU 0 instructions: 160000000 cycles: 72977271 heartbeat IPC: 2.19564 cumulative IPC: 2.19246 (Simulation time: 0 hr 27 min 50 sec) 
 Total Blocks : 262144 Invalid Blocks : 19976
Heartbeat CPU 0 instructions: 170000003 cycles: 77838681 heartbeat IPC: 2.05702 cumulative IPC: 2.184 (Simulation time: 0 hr 29 min 40 sec) 
 Total Blocks : 262144 Invalid Blocks : 10617
Heartbeat CPU 0 instructions: 180000003 cycles: 82633159 heartbeat IPC: 2.08573 cumulative IPC: 2.1783 (Simulation time: 0 hr 31 min 32 sec) 
 Total Blocks : 262144 Invalid Blocks : 10223
Heartbeat CPU 0 instructions: 190000000 cycles: 87504932 heartbeat IPC: 2.05264 cumulative IPC: 2.17131 (Simulation time: 0 hr 33 min 29 sec) 
 Total Blocks : 262144 Invalid Blocks : 9808
Heartbeat CPU 0 instructions: 200000000 cycles: 92292574 heartbeat IPC: 2.08871 cumulative IPC: 2.16702 (Simulation time: 0 hr 35 min 22 sec) 
 Total Blocks : 262144 Invalid Blocks : 9539

Warmup complete CPU 0 instructions: 200000004 cycles: 92292575 (Simulation time: 0 hr 35 min 22 sec) 

Heartbeat CPU 0 instructions: 210000003 cycles: 98471194 heartbeat IPC: 1.61848 cumulative IPC: 1.61848 (Simulation time: 0 hr 37 min 29 sec) 
 Total Blocks : 262144 Invalid Blocks : 9411
Heartbeat CPU 0 instructions: 220000000 cycles: 104829363 heartbeat IPC: 1.57278 cumulative IPC: 1.5953 (Simulation time: 0 hr 39 min 38 sec) 
 Total Blocks : 262144 Invalid Blocks : 9045
Heartbeat CPU 0 instructions: 230000000 cycles: 111418780 heartbeat IPC: 1.51758 cumulative IPC: 1.56853 (Simulation time: 0 hr 41 min 50 sec) 
 Total Blocks : 262144 Invalid Blocks : 8543
Heartbeat CPU 0 instructions: 240000001 cycles: 118073845 heartbeat IPC: 1.50262 cumulative IPC: 1.55151 (Simulation time: 0 hr 44 min 9 sec) 
 Total Blocks : 262144 Invalid Blocks : 6953
Heartbeat CPU 0 instructions: 250000001 cycles: 131333555 heartbeat IPC: 0.754164 cumulative IPC: 1.28071 (Simulation time: 0 hr 47 min 20 sec) 
 Total Blocks : 262144 Invalid Blocks : 6349
Heartbeat CPU 0 instructions: 260000001 cycles: 137434476 heartbeat IPC: 1.6391 cumulative IPC: 1.32914 (Simulation time: 0 hr 49 min 19 sec) 
 Total Blocks : 262144 Invalid Blocks : 5864
Heartbeat CPU 0 instructions: 270000000 cycles: 143921901 heartbeat IPC: 1.54144 cumulative IPC: 1.35582 (Simulation time: 0 hr 51 min 15 sec) 
 Total Blocks : 262144 Invalid Blocks : 4951
Heartbeat CPU 0 instructions: 280000001 cycles: 154778366 heartbeat IPC: 0.92111 cumulative IPC: 1.28029 (Simulation time: 0 hr 53 min 59 sec) 
 Total Blocks : 262144 Invalid Blocks : 2183
Heartbeat CPU 0 instructions: 290000002 cycles: 162383320 heartbeat IPC: 1.31493 cumulative IPC: 1.28405 (Simulation time: 0 hr 56 min 9 sec) 
 Total Blocks : 262144 Invalid Blocks : 1583
Heartbeat CPU 0 instructions: 300000001 cycles: 170562858 heartbeat IPC: 1.22256 cumulative IPC: 1.27762 (Simulation time: 0 hr 58 min 26 sec) 
 Total Blocks : 262144 Invalid Blocks : 1164
Heartbeat CPU 0 instructions: 310000003 cycles: 179025942 heartbeat IPC: 1.1816 cumulative IPC: 1.26825 (Simulation time: 1 hr 0 min 50 sec) 
 Total Blocks : 262144 Invalid Blocks : 740
Heartbeat CPU 0 instructions: 320000000 cycles: 186335410 heartbeat IPC: 1.36809 cumulative IPC: 1.27601 (Simulation time: 1 hr 3 min 6 sec) 
 Total Blocks : 262144 Invalid Blocks : 622
Heartbeat CPU 0 instructions: 330000000 cycles: 193933887 heartbeat IPC: 1.31605 cumulative IPC: 1.27901 (Simulation time: 1 hr 5 min 23 sec) 
 Total Blocks : 262144 Invalid Blocks : 483
Heartbeat CPU 0 instructions: 340000002 cycles: 202868408 heartbeat IPC: 1.11925 cumulative IPC: 1.2661 (Simulation time: 1 hr 7 min 54 sec) 
 Total Blocks : 262144 Invalid Blocks : 291
Heartbeat CPU 0 instructions: 350000000 cycles: 209031151 heartbeat IPC: 1.62265 cumulative IPC: 1.28492 (Simulation time: 1 hr 9 min 53 sec) 
 Total Blocks : 262144 Invalid Blocks : 283
Heartbeat CPU 0 instructions: 360000003 cycles: 216125688 heartbeat IPC: 1.40954 cumulative IPC: 1.29206 (Simulation time: 1 hr 11 min 50 sec) 
 Total Blocks : 262144 Invalid Blocks : 226
Heartbeat CPU 0 instructions: 370000001 cycles: 222263028 heartbeat IPC: 1.62937 cumulative IPC: 1.30799 (Simulation time: 1 hr 13 min 44 sec) 
 Total Blocks : 262144 Invalid Blocks : 220
Heartbeat CPU 0 instructions: 380000002 cycles: 229133366 heartbeat IPC: 1.45553 cumulative IPC: 1.3154 (Simulation time: 1 hr 15 min 43 sec) 
 Total Blocks : 262144 Invalid Blocks : 187
Heartbeat CPU 0 instructions: 390000001 cycles: 235942652 heartbeat IPC: 1.46858 cumulative IPC: 1.32266 (Simulation time: 1 hr 17 min 41 sec) 
 Total Blocks : 262144 Invalid Blocks : 172
Heartbeat CPU 0 instructions: 400000002 cycles: 242076210 heartbeat IPC: 1.63038 cumulative IPC: 1.33526 (Simulation time: 1 hr 19 min 36 sec) 
 Total Blocks : 262144 Invalid Blocks : 164
Finished CPU 0 instructions: 200000002 cycles: 149783636 cumulative IPC: 1.33526 (Simulation time: 1 hr 19 min 36 sec) 

CPU 0 Branch Prediction Accuracy: 96.1209% MPKI: 1.70133 Average ROB Occupancy at Mispredict: 230.983

ChampSim completed all CPUs

Region of Interest Statistics

CPU 0 cumulative IPC: 1.33526 instructions: 200000002 cycles: 149783636
ITLB TOTAL     ACCESS: 29505391  HIT: 29505211  MISS:   180  HIT %: 99.9994  MISS %: 0.000610058  AVERAGE MISS PENALTY: 126.944
ITLB LOAD      ACCESS: 29505391  HIT: 29505211  MISS:   180  HIT %: 99.9994  MISS %: 0.000610058  AVERAGE MISS PENALTY: 126.944
ITLB RFO       ACCESS:     0  HIT:     0  MISS:     0  HIT %:     0  MISS %:     0  AVERAGE MISS PENALTY: 0
ITLB PREFETCH  ACCESS:     0  HIT:     0  MISS:     0  HIT %:     0  MISS %:     0  AVERAGE MISS PENALTY: 0
ITLB WRITEBACK ACCESS:     0  HIT:     0  MISS:     0  HIT %:     0  MISS %:     0  AVERAGE MISS PENALTY: 0
ITLB PREFETCH  REQUESTED:     0  ISSUED:     0  USEFUL:     0  USELESS:     0
 USEFUL LOAD PREFETCHES:          0 PREFETCH ISSUED TO LOWER LEVEL:          0  ACCURACY: -nan
 TIMELY PREFETCHES:          0 LATE PREFETCHES: 0 DROPPED PREFETCHES: 0
ITLB AVERAGE MISS LATENCY: 126.944 cycles
DTLB TOTAL     ACCESS: 52229282  HIT: 52065326  MISS: 163956  HIT %: 99.6861  MISS %: 0.313916  AVERAGE MISS PENALTY: 38.3604
DTLB LOAD      ACCESS: 45813466  HIT: 45673656  MISS: 139810  HIT %: 99.6948  MISS %: 0.305172  AVERAGE MISS PENALTY: 39.601
DTLB RFO       ACCESS: 6415816  HIT: 6391670  MISS: 24146  HIT %: 99.6236  MISS %: 0.376351  AVERAGE MISS PENALTY: 31.1776
DTLB PREFETCH  ACCESS:     0  HIT:     0  MISS:     0  HIT %:     0  MISS %:     0  AVERAGE MISS PENALTY: 0
DTLB WRITEBACK ACCESS:     0  HIT:     0  MISS:     0  HIT %:     0  MISS %:     0  AVERAGE MISS PENALTY: 0
DTLB PREFETCH  REQUESTED:     0  ISSUED:     0  USEFUL:     0  USELESS:     0
 USEFUL LOAD PREFETCHES:          0 PREFETCH ISSUED TO LOWER LEVEL:          0  ACCURACY: -nan
 TIMELY PREFETCHES:          0 LATE PREFETCHES: 0 DROPPED PREFETCHES: 0
DTLB AVERAGE MISS LATENCY: 38.3604 cycles
STLB TOTAL     ACCESS: 164136  HIT: 133717  MISS: 30419  HIT %: 81.4672  MISS %: 18.5328  AVERAGE MISS PENALTY: 100
STLB LOAD      ACCESS: 139990  HIT: 114195  MISS: 25795  HIT %: 81.5737  MISS %: 18.4263  AVERAGE MISS PENALTY: 100
STLB RFO       ACCESS: 24146  HIT: 19522  MISS:  4624  HIT %: 80.8498  MISS %: 19.1502  AVERAGE MISS PENALTY: 100
STLB PREFETCH  ACCESS:     0  HIT:     0  MISS:     0  HIT %:     0  MISS %:     0  AVERAGE MISS PENALTY: 0
STLB WRITEBACK ACCESS:     0  HIT:     0  MISS:     0  HIT %:     0  MISS %:     0  AVERAGE MISS PENALTY: 0
STLB PREFETCH  REQUESTED:     0  ISSUED:     0  USEFUL:     0  USELESS:     0
 USEFUL LOAD PREFETCHES:          0 PREFETCH ISSUED TO LOWER LEVEL:          0  ACCURACY: -nan
 TIMELY PREFETCHES:          0 LATE PREFETCHES: 0 DROPPED PREFETCHES: 0
STLB AVERAGE MISS LATENCY: 100 cycles
L1D TOTAL     ACCESS: 66959007  HIT: 62515900  MISS: 4443107  HIT %: 93.3644  MISS %: 6.63556  AVERAGE MISS PENALTY: 6.03506e+06
L1D LOAD      ACCESS: 42039749  HIT: 41306118  MISS: 733631  HIT %: 98.2549  MISS %: 1.74509  AVERAGE MISS PENALTY: 3.64738e+07
L1D RFO       ACCESS: 8201519  HIT: 7607753  MISS: 593766  HIT %: 92.7603  MISS %: 7.23971  AVERAGE MISS PENALTY: 94235.5
L1D PREFETCH  ACCESS: 16717739  HIT: 13602029  MISS: 3115710  HIT %: 81.3629  MISS %: 18.6371  AVERAGE MISS PENALTY: 34.5428
L1D WRITEBACK ACCESS:     0  HIT:     0  MISS:     0  HIT %:     0  MISS %:     0  AVERAGE MISS PENALTY: 0
L1D PREFETCH  REQUESTED: 23721019  ISSUED: 18239109  USEFUL: 2904337  USELESS: 211375
 USEFUL LOAD PREFETCHES:    2904337 PREFETCH ISSUED TO LOWER LEVEL:    5259795  ACCURACY: 55.2177
 TIMELY PREFETCHES:    2904337 LATE PREFETCHES: 236792 DROPPED PREFETCHES: 5481910
L1D AVERAGE MISS LATENCY: 12627 cycles
L1I TOTAL     ACCESS: 41235708  HIT: 41228806  MISS:  6902  HIT %: 99.9833  MISS %: 0.0167379  AVERAGE MISS PENALTY: 165.833
L1I LOAD      ACCESS: 41235708  HIT: 41228806  MISS:  6902  HIT %: 99.9833  MISS %: 0.0167379  AVERAGE MISS PENALTY: 165.833
L1I RFO       ACCESS:     0  HIT:     0  MISS:     0  HIT %:     0  MISS %:     0  AVERAGE MISS PENALTY: 0
L1I PREFETCH  ACCESS:     0  HIT:     0  MISS:     0  HIT %:     0  MISS %:     0  AVERAGE MISS PENALTY: 0
L1I WRITEBACK ACCESS:     0  HIT:     0  MISS:     0  HIT %:     0  MISS %:     0  AVERAGE MISS PENALTY: 0
L1I PREFETCH  REQUESTED:     0  ISSUED:     0  USEFUL:     0  USELESS:     0
 USEFUL LOAD PREFETCHES:          0 PREFETCH ISSUED TO LOWER LEVEL:          0  ACCURACY: -nan
 TIMELY PREFETCHES:          0 LATE PREFETCHES: 0 DROPPED PREFETCHES: 0
L1I AVERAGE MISS LATENCY: 165.833 cycles
L2C TOTAL     ACCESS: 13458726  HIT: 10133817  MISS: 3324909  HIT %: 75.2955  MISS %: 24.7045  AVERAGE MISS PENALTY: 4.83398e+06
L2C LOAD      ACCESS: 721478  HIT: 442741  MISS: 278737  HIT %: 61.3658  MISS %: 38.6342  AVERAGE MISS PENALTY: 5.7609e+07
L2C RFO       ACCESS: 593411  HIT: 166171  MISS: 427240  HIT %: 28.0027  MISS %: 71.9973  AVERAGE MISS PENALTY: 34024.5
L2C PREFETCH  ACCESS: 10698215  HIT: 8081113  MISS: 2617102  HIT %: 75.537  MISS %: 24.463  AVERAGE MISS PENALTY: 91.8129
L2C WRITEBACK ACCESS: 1445622  HIT: 1443792  MISS:  1830  HIT %: 99.8734  MISS %: 0.126589  AVERAGE MISS PENALTY: 0
L2C PREFETCH  REQUESTED: 12393751  ISSUED: 11742283  USEFUL: 273073  USELESS: 2341008
 USEFUL LOAD PREFETCHES:     273073 PREFETCH ISSUED TO LOWER LEVEL:    3259418  ACCURACY: 8.37797
 TIMELY PREFETCHES:     273073 LATE PREFETCHES: 144463 DROPPED PREFETCHES: 651468
L2C AVERAGE MISS LATENCY: 108.073 cycles
LLC0 TOTAL     ACCESS: 559163  HIT: 429587  MISS: 129576  HIT %: 76.8268  MISS %: 23.1732  AVERAGE MISS PENALTY: 247.589
LLC0 LOAD      ACCESS: 57543  HIT: 42642  MISS: 14901  HIT %: 74.1046  MISS %: 25.8954  AVERAGE MISS PENALTY: 212.574
LLC0 RFO       ACCESS: 53499  HIT: 25824  MISS: 27675  HIT %: 48.2701  MISS %: 51.7299  AVERAGE MISS PENALTY: 328.022
LLC0 PREFETCH  ACCESS: 302957  HIT: 217655  MISS: 85302  HIT %: 71.8435  MISS %: 28.1565  AVERAGE MISS PENALTY: 232.539
LLC0 WRITEBACK ACCESS: 145164  HIT: 143466  MISS:  1698  HIT %: 98.8303  MISS %: 1.16971  AVERAGE MISS PENALTY: 0
LLC0 PREFETCH  REQUESTED:     0  ISSUED:     0  USEFUL: 10761  USELESS: 69439
 USEFUL LOAD PREFETCHES:      10761 PREFETCH ISSUED TO LOWER LEVEL:      85302  ACCURACY: 12.6152
 TIMELY PREFETCHES:      10761 LATE PREFETCHES: 0 DROPPED PREFETCHES: 0
LLC0 AVERAGE MISS LATENCY: 247.589 cycles
Deadblocks : 12104 Deadblock percentage : 81.2294

LLC1 TOTAL     ACCESS: 559850  HIT: 429744  MISS: 130106  HIT %: 76.7606  MISS %: 23.2394  AVERAGE MISS PENALTY: 247.849
LLC1 LOAD      ACCESS: 27687  HIT: 21033  MISS:  6654  HIT %: 75.9671  MISS %: 24.0329  AVERAGE MISS PENALTY: 229.658
LLC1 RFO       ACCESS: 53479  HIT: 25802  MISS: 27677  HIT %: 48.247  MISS %: 51.753  AVERAGE MISS PENALTY: 327.091
LLC1 PREFETCH  ACCESS: 333547  HIT: 239502  MISS: 94045  HIT %: 71.8046  MISS %: 28.1954  AVERAGE MISS PENALTY: 230.375
LLC1 WRITEBACK ACCESS: 145137  HIT: 143407  MISS:  1730  HIT %: 98.808  MISS %: 1.19198  AVERAGE MISS PENALTY: 0
LLC1 PREFETCH  REQUESTED:     0  ISSUED:     0  USEFUL: 13106  USELESS: 75874
 USEFUL LOAD PREFETCHES:      13106 PREFETCH ISSUED TO LOWER LEVEL:      94045  ACCURACY: 13.9359
 TIMELY PREFETCHES:      13106 LATE PREFETCHES: 0 DROPPED PREFETCHES: 0
LLC1 AVERAGE MISS LATENCY: 247.849 cycles
LLC2 TOTAL     ACCESS: 560296  HIT: 430280  MISS: 130016  HIT %: 76.7951  MISS %: 23.2049  AVERAGE MISS PENALTY: 248.649
LLC2 LOAD      ACCESS: 20816  HIT: 16255  MISS:  4561  HIT %: 78.089  MISS %: 21.911  AVERAGE MISS PENALTY: 230.535
LLC2 RFO       ACCESS: 53442  HIT: 25761  MISS: 27681  HIT %: 48.2037  MISS %: 51.7963  AVERAGE MISS PENALTY: 326.338
LLC2 PREFETCH  ACCESS: 340861  HIT: 244740  MISS: 96121  HIT %: 71.8005  MISS %: 28.1995  AVERAGE MISS PENALTY: 231.412
LLC2 WRITEBACK ACCESS: 145177  HIT: 143524  MISS:  1653  HIT %: 98.8614  MISS %: 1.13861  AVERAGE MISS PENALTY: 0
LLC2 PREFETCH  REQUESTED:     0  ISSUED:     0  USEFUL: 12640  USELESS: 77814
 USEFUL LOAD PREFETCHES:      12640 PREFETCH ISSUED TO LOWER LEVEL:      96121  ACCURACY: 13.1501
 TIMELY PREFETCHES:      12640 LATE PREFETCHES: 0 DROPPED PREFETCHES: 0
LLC2 AVERAGE MISS LATENCY: 248.649 cycles
LLC3 TOTAL     ACCESS: 560006  HIT: 430227  MISS: 129779  HIT %: 76.8254  MISS %: 23.1746  AVERAGE MISS PENALTY: 248.831
LLC3 LOAD      ACCESS: 18673  HIT: 14748  MISS:  3925  HIT %: 78.9803  MISS %: 21.0197  AVERAGE MISS PENALTY: 231.778
LLC3 RFO       ACCESS: 53440  HIT: 25714  MISS: 27726  HIT %: 48.1175  MISS %: 51.8825  AVERAGE MISS PENALTY: 326.372
LLC3 PREFETCH  ACCESS: 342708  HIT: 246204  MISS: 96504  HIT %: 71.8408  MISS %: 28.1592  AVERAGE MISS PENALTY: 231.434
LLC3 WRITEBACK ACCESS: 145185  HIT: 143561  MISS:  1624  HIT %: 98.8814  MISS %: 1.11857  AVERAGE MISS PENALTY: 0
LLC3 PREFETCH  REQUESTED:     0  ISSUED:     0  USEFUL: 12283  USELESS: 78370
 USEFUL LOAD PREFETCHES:      12283 PREFETCH ISSUED TO LOWER LEVEL:      96504  ACCURACY: 12.728
 TIMELY PREFETCHES:      12283 LATE PREFETCHES: 0 DROPPED PREFETCHES: 0
LLC3 AVERAGE MISS LATENCY: 248.831 cycles
LLC4 TOTAL     ACCESS: 560703  HIT: 430714  MISS: 129989  HIT %: 76.8168  MISS %: 23.1832  AVERAGE MISS PENALTY: 249.401
LLC4 LOAD      ACCESS: 18049  HIT: 14482  MISS:  3567  HIT %: 80.2371  MISS %: 19.7629  AVERAGE MISS PENALTY: 227.083
LLC4 RFO       ACCESS: 53435  HIT: 25774  MISS: 27661  HIT %: 48.2343  MISS %: 51.7657  AVERAGE MISS PENALTY: 327.451
LLC4 PREFETCH  ACCESS: 344101  HIT: 246991  MISS: 97110  HIT %: 71.7786  MISS %: 28.2214  AVERAGE MISS PENALTY: 232.228
LLC4 WRITEBACK ACCESS: 145118  HIT: 143467  MISS:  1651  HIT %: 98.8623  MISS %: 1.13769  AVERAGE MISS PENALTY: 0
LLC4 PREFETCH  REQUESTED:     0  ISSUED:     0  USEFUL: 12244  USELESS: 78894
 USEFUL LOAD PREFETCHES:      12244 PREFETCH ISSUED TO LOWER LEVEL:      97110  ACCURACY: 12.6084
 TIMELY PREFETCHES:      12244 LATE PREFETCHES: 0 DROPPED PREFETCHES: 0
LLC4 AVERAGE MISS LATENCY: 249.401 cycles
LLC5 TOTAL     ACCESS: 561096  HIT: 431510  MISS: 129586  HIT %: 76.9048  MISS %: 23.0952  AVERAGE MISS PENALTY: 250.332
LLC5 LOAD      ACCESS: 17915  HIT: 14417  MISS:  3498  HIT %: 80.4745  MISS %: 19.5255  AVERAGE MISS PENALTY: 237.252
LLC5 RFO       ACCESS: 53299  HIT: 25682  MISS: 27617  HIT %: 48.1848  MISS %: 51.8152  AVERAGE MISS PENALTY: 328.758
LLC5 PREFETCH  ACCESS: 344768  HIT: 247911  MISS: 96857  HIT %: 71.9066  MISS %: 28.0934  AVERAGE MISS PENALTY: 232.614
LLC5 WRITEBACK ACCESS: 145114  HIT: 143500  MISS:  1614  HIT %: 98.8878  MISS %: 1.11223  AVERAGE MISS PENALTY: 0
LLC5 PREFETCH  REQUESTED:     0  ISSUED:     0  USEFUL: 12306  USELESS: 78754
 USEFUL LOAD PREFETCHES:      12306 PREFETCH ISSUED TO LOWER LEVEL:      96857  ACCURACY: 12.7053
 TIMELY PREFETCHES:      12306 LATE PREFETCHES: 0 DROPPED PREFETCHES: 0
LLC5 AVERAGE MISS LATENCY: 250.332 cycles
LLC6 TOTAL     ACCESS: 561606  HIT: 431609  MISS: 129997  HIT %: 76.8526  MISS %: 23.1474  AVERAGE MISS PENALTY: 250.163
LLC6 LOAD      ACCESS: 17680  HIT: 14168  MISS:  3512  HIT %: 80.1357  MISS %: 19.8643  AVERAGE MISS PENALTY: 233.012
LLC6 RFO       ACCESS: 53300  HIT: 25618  MISS: 27682  HIT %: 48.0638  MISS %: 51.9362  AVERAGE MISS PENALTY: 327.836
LLC6 PREFETCH  ACCESS: 345451  HIT: 248230  MISS: 97221  HIT %: 71.8568  MISS %: 28.1432  AVERAGE MISS PENALTY: 232.738
LLC6 WRITEBACK ACCESS: 145175  HIT: 143593  MISS:  1582  HIT %: 98.9103  MISS %: 1.08972  AVERAGE MISS PENALTY: 0
LLC6 PREFETCH  REQUESTED:     0  ISSUED:     0  USEFUL: 12331  USELESS: 79409
 USEFUL LOAD PREFETCHES:      12331 PREFETCH ISSUED TO LOWER LEVEL:      97221  ACCURACY: 12.6835
 TIMELY PREFETCHES:      12331 LATE PREFETCHES: 0 DROPPED PREFETCHES: 0
LLC6 AVERAGE MISS LATENCY: 250.163 cycles
LLC7 TOTAL     ACCESS: 561571  HIT: 431022  MISS: 130549  HIT %: 76.7529  MISS %: 23.2471  AVERAGE MISS PENALTY: 250.629
LLC7 LOAD      ACCESS: 17438  HIT: 13925  MISS:  3513  HIT %: 79.8543  MISS %: 20.1457  AVERAGE MISS PENALTY: 227.967
LLC7 RFO       ACCESS: 53263  HIT: 25511  MISS: 27752  HIT %: 47.8963  MISS %: 52.1037  AVERAGE MISS PENALTY: 329.507
LLC7 PREFETCH  ACCESS: 345722  HIT: 248082  MISS: 97640  HIT %: 71.7577  MISS %: 28.2423  AVERAGE MISS PENALTY: 233.245
LLC7 WRITEBACK ACCESS: 145148  HIT: 143504  MISS:  1644  HIT %: 98.8674  MISS %: 1.13264  AVERAGE MISS PENALTY: 0
LLC7 PREFETCH  REQUESTED:     0  ISSUED:     0  USEFUL: 12259  USELESS: 79756
 USEFUL LOAD PREFETCHES:      12259 PREFETCH ISSUED TO LOWER LEVEL:      97640  ACCURACY: 12.5553
 TIMELY PREFETCHES:      12259 LATE PREFETCHES: 0 DROPPED PREFETCHES: 0
LLC7 AVERAGE MISS LATENCY: 250.629 cycles
ROI Average ROB Stall Cycles:	5.87052
ROI Total ROB Stalls Cycles:	103169318
ROI TOTAL ROB counter      :	17574140
ROI Average Load ROB Stall Cycles:	11.7488
ROI Total Load ROB Stalls Cycle  :	36721447
ROI Total Load ROB stalls Counter:	3125549
Major fault: 0 Minor fault: 10906

