
*** ChampSim Multicore Out-of-Order Simulator ***

Warmup Instructions: 200000000
Simulation Instructions: 200000000
Number of CPUs: 1
threads:1

L1I Configuration:
L1I_SET:64
L1I_WAY:8
L1I_RQ_SIZE:64
L1I_WQ_SIZE:64
L1I_PQ_SIZE:8
L1I_MSHR_SIZE:8

L1D Configuration:
L1D_SET:64
L1D_WAY:12
L1D_RQ_SIZE:64
L1D_WQ_SIZE:64
L1D_PQ_SIZE:8
L1D_MSHR_SIZE:16

L2C Configuration:
L2C_SET:1024
L2C_WAY:8
L2C_RQ_SIZE:32
L2C_WQ_SIZE:32
L2C_PQ_SIZE:16
L2C_MSHR_SIZE:32

LLC Configuration:
LLC_SET:2048
LLC_WAY:16
LLC SLICES:8
LLC_RQ_SIZE:64
LLC_WQ_SIZE:64
LLC_PQ_SIZE:32
LLC_MSHR_SIZE:64

Interconnect OFF
Attacker deprioritize is: OFF
Off-chip DRAM Size: 4096 MB Channels: 1 Width: 64-bit Data Rate: 3200 MT/s
PAGE SIZE in KB: 4.000000 
PAGE SIZE in MB: 0.003906 
PAGE offset in bits: 12 
CEASER-S_LLC:0
MIRAGE : 1
CEASER_LATENCY:3
REMAP : OFF
Partitions : 1
Multi-Step : OFF
BFS : OFF

CPU 0 runs /home/anubhav/spec_2017/623.xalancbmk_s-165B.champsimtrace.xz
CPU 0 Bimodal branch predictor
Initialize Hawkeye state
Initialize Hawkeye state
Initialize Hawkeye state
Initialize Hawkeye state
Initialize Hawkeye state
Initialize Hawkeye state
Initialize Hawkeye state
Initialize Hawkeye state
Heartbeat CPU 0 instructions: 10000001 cycles: 6032538 heartbeat IPC: 1.65768 cumulative IPC: 1.65768 (Simulation time: 0 hr 1 min 10 sec) 
 Total Blocks : 262144 Invalid Blocks : 224191
Heartbeat CPU 0 instructions: 20000000 cycles: 12062362 heartbeat IPC: 1.65842 cumulative IPC: 1.65805 (Simulation time: 0 hr 2 min 21 sec) 
 Total Blocks : 262144 Invalid Blocks : 223986
Heartbeat CPU 0 instructions: 30000001 cycles: 18082359 heartbeat IPC: 1.66113 cumulative IPC: 1.65908 (Simulation time: 0 hr 3 min 33 sec) 
 Total Blocks : 262144 Invalid Blocks : 223751
Heartbeat CPU 0 instructions: 40000001 cycles: 24106420 heartbeat IPC: 1.66001 cumulative IPC: 1.65931 (Simulation time: 0 hr 4 min 44 sec) 
 Total Blocks : 262144 Invalid Blocks : 223556
Heartbeat CPU 0 instructions: 50000000 cycles: 30131836 heartbeat IPC: 1.65964 cumulative IPC: 1.65937 (Simulation time: 0 hr 5 min 52 sec) 
 Total Blocks : 262144 Invalid Blocks : 223309
Heartbeat CPU 0 instructions: 60000000 cycles: 36160196 heartbeat IPC: 1.65883 cumulative IPC: 1.65928 (Simulation time: 0 hr 7 min 1 sec) 
 Total Blocks : 262144 Invalid Blocks : 223095
Heartbeat CPU 0 instructions: 70000002 cycles: 42192566 heartbeat IPC: 1.65772 cumulative IPC: 1.65906 (Simulation time: 0 hr 8 min 7 sec) 
 Total Blocks : 262144 Invalid Blocks : 222877
Heartbeat CPU 0 instructions: 80000000 cycles: 48216946 heartbeat IPC: 1.65992 cumulative IPC: 1.65917 (Simulation time: 0 hr 9 min 15 sec) 
 Total Blocks : 262144 Invalid Blocks : 222645
Heartbeat CPU 0 instructions: 90000000 cycles: 54237250 heartbeat IPC: 1.66105 cumulative IPC: 1.65938 (Simulation time: 0 hr 10 min 22 sec) 
 Total Blocks : 262144 Invalid Blocks : 222447
Heartbeat CPU 0 instructions: 100000000 cycles: 60266449 heartbeat IPC: 1.6586 cumulative IPC: 1.6593 (Simulation time: 0 hr 11 min 31 sec) 
 Total Blocks : 262144 Invalid Blocks : 222236
Heartbeat CPU 0 instructions: 110000000 cycles: 66286777 heartbeat IPC: 1.66104 cumulative IPC: 1.65946 (Simulation time: 0 hr 12 min 36 sec) 
 Total Blocks : 262144 Invalid Blocks : 222021
Heartbeat CPU 0 instructions: 120000003 cycles: 72315457 heartbeat IPC: 1.65874 cumulative IPC: 1.6594 (Simulation time: 0 hr 13 min 46 sec) 
 Total Blocks : 262144 Invalid Blocks : 221784
Heartbeat CPU 0 instructions: 130000001 cycles: 78343312 heartbeat IPC: 1.65896 cumulative IPC: 1.65936 (Simulation time: 0 hr 14 min 50 sec) 
 Total Blocks : 262144 Invalid Blocks : 221598
Heartbeat CPU 0 instructions: 140000003 cycles: 84361133 heartbeat IPC: 1.66173 cumulative IPC: 1.65953 (Simulation time: 0 hr 15 min 58 sec) 
 Total Blocks : 262144 Invalid Blocks : 221357
Heartbeat CPU 0 instructions: 150000001 cycles: 90390701 heartbeat IPC: 1.65849 cumulative IPC: 1.65946 (Simulation time: 0 hr 17 min 8 sec) 
 Total Blocks : 262144 Invalid Blocks : 221142
Heartbeat CPU 0 instructions: 160000001 cycles: 96418432 heartbeat IPC: 1.659 cumulative IPC: 1.65943 (Simulation time: 0 hr 18 min 15 sec) 
 Total Blocks : 262144 Invalid Blocks : 220899
Heartbeat CPU 0 instructions: 170000003 cycles: 102438686 heartbeat IPC: 1.66106 cumulative IPC: 1.65953 (Simulation time: 0 hr 19 min 21 sec) 
 Total Blocks : 262144 Invalid Blocks : 220702
Heartbeat CPU 0 instructions: 180000001 cycles: 108464209 heartbeat IPC: 1.65961 cumulative IPC: 1.65953 (Simulation time: 0 hr 20 min 29 sec) 
 Total Blocks : 262144 Invalid Blocks : 220483
Heartbeat CPU 0 instructions: 190000001 cycles: 114491677 heartbeat IPC: 1.65907 cumulative IPC: 1.65951 (Simulation time: 0 hr 21 min 34 sec) 
 Total Blocks : 262144 Invalid Blocks : 220207
Heartbeat CPU 0 instructions: 200000003 cycles: 120515730 heartbeat IPC: 1.66001 cumulative IPC: 1.65953 (Simulation time: 0 hr 22 min 45 sec) 
 Total Blocks : 262144 Invalid Blocks : 220017

Warmup complete CPU 0 instructions: 200000003 cycles: 120515730 (Simulation time: 0 hr 22 min 45 sec) 

Heartbeat CPU 0 instructions: 210000002 cycles: 133951579 heartbeat IPC: 0.744277 cumulative IPC: 0.744277 (Simulation time: 0 hr 25 min 0 sec) 
 Total Blocks : 262144 Invalid Blocks : 219777
Heartbeat CPU 0 instructions: 220000000 cycles: 148405182 heartbeat IPC: 0.691869 cumulative IPC: 0.717117 (Simulation time: 0 hr 27 min 20 sec) 
 Total Blocks : 262144 Invalid Blocks : 215806
Heartbeat CPU 0 instructions: 230000000 cycles: 164829847 heartbeat IPC: 0.60884 cumulative IPC: 0.676985 (Simulation time: 0 hr 29 min 50 sec) 
 Total Blocks : 262144 Invalid Blocks : 211685
Heartbeat CPU 0 instructions: 240000002 cycles: 181189580 heartbeat IPC: 0.611257 cumulative IPC: 0.659263 (Simulation time: 0 hr 32 min 15 sec) 
 Total Blocks : 262144 Invalid Blocks : 209164
Heartbeat CPU 0 instructions: 250000001 cycles: 197519738 heartbeat IPC: 0.612364 cumulative IPC: 0.649317 (Simulation time: 0 hr 34 min 42 sec) 
 Total Blocks : 262144 Invalid Blocks : 207239
Heartbeat CPU 0 instructions: 260000003 cycles: 213835796 heartbeat IPC: 0.612893 cumulative IPC: 0.642949 (Simulation time: 0 hr 37 min 1 sec) 
 Total Blocks : 262144 Invalid Blocks : 205591
Heartbeat CPU 0 instructions: 270000002 cycles: 230145189 heartbeat IPC: 0.613144 cumulative IPC: 0.638515 (Simulation time: 0 hr 39 min 26 sec) 
 Total Blocks : 262144 Invalid Blocks : 203634
Heartbeat CPU 0 instructions: 280000001 cycles: 246447868 heartbeat IPC: 0.613396 cumulative IPC: 0.635263 (Simulation time: 0 hr 41 min 54 sec) 
 Total Blocks : 262144 Invalid Blocks : 201857
Heartbeat CPU 0 instructions: 290000000 cycles: 262742518 heartbeat IPC: 0.613698 cumulative IPC: 0.632792 (Simulation time: 0 hr 44 min 17 sec) 
 Total Blocks : 262144 Invalid Blocks : 200354
Heartbeat CPU 0 instructions: 300000000 cycles: 279051731 heartbeat IPC: 0.61315 cumulative IPC: 0.630772 (Simulation time: 0 hr 46 min 40 sec) 
 Total Blocks : 262144 Invalid Blocks : 198948
Heartbeat CPU 0 instructions: 310000003 cycles: 295361182 heartbeat IPC: 0.613142 cumulative IPC: 0.629127 (Simulation time: 0 hr 49 min 3 sec) 
 Total Blocks : 262144 Invalid Blocks : 197664
Heartbeat CPU 0 instructions: 320000001 cycles: 311680534 heartbeat IPC: 0.612769 cumulative IPC: 0.627731 (Simulation time: 0 hr 51 min 28 sec) 
 Total Blocks : 262144 Invalid Blocks : 196439
Heartbeat CPU 0 instructions: 330000000 cycles: 327977814 heartbeat IPC: 0.613599 cumulative IPC: 0.626621 (Simulation time: 0 hr 53 min 55 sec) 
 Total Blocks : 262144 Invalid Blocks : 195220
Heartbeat CPU 0 instructions: 340000000 cycles: 344134830 heartbeat IPC: 0.618926 cumulative IPC: 0.626065 (Simulation time: 0 hr 56 min 18 sec) 
 Total Blocks : 262144 Invalid Blocks : 194076
Heartbeat CPU 0 instructions: 350000002 cycles: 360259564 heartbeat IPC: 0.620165 cumulative IPC: 0.625668 (Simulation time: 0 hr 58 min 46 sec) 
 Total Blocks : 262144 Invalid Blocks : 192931
Heartbeat CPU 0 instructions: 360000001 cycles: 376392518 heartbeat IPC: 0.619849 cumulative IPC: 0.625301 (Simulation time: 1 hr 1 min 13 sec) 
 Total Blocks : 262144 Invalid Blocks : 191870
Heartbeat CPU 0 instructions: 370000001 cycles: 392521729 heartbeat IPC: 0.619993 cumulative IPC: 0.624986 (Simulation time: 1 hr 3 min 30 sec) 
 Total Blocks : 262144 Invalid Blocks : 190814
Heartbeat CPU 0 instructions: 380000001 cycles: 408636172 heartbeat IPC: 0.620561 cumulative IPC: 0.624739 (Simulation time: 1 hr 5 min 35 sec) 
 Total Blocks : 262144 Invalid Blocks : 189823
Heartbeat CPU 0 instructions: 390000003 cycles: 424742486 heartbeat IPC: 0.620875 cumulative IPC: 0.624534 (Simulation time: 1 hr 7 min 47 sec) 
 Total Blocks : 262144 Invalid Blocks : 188855
Heartbeat CPU 0 instructions: 400000000 cycles: 440822087 heartbeat IPC: 0.621906 cumulative IPC: 0.624402 (Simulation time: 1 hr 9 min 53 sec) 
 Total Blocks : 262144 Invalid Blocks : 187941
Finished CPU 0 instructions: 200000000 cycles: 320306359 cumulative IPC: 0.624402 (Simulation time: 1 hr 9 min 53 sec) 

CPU 0 Branch Prediction Accuracy: 94.8788% MPKI: 13.125 Average ROB Occupancy at Mispredict: 72.3428

ChampSim completed all CPUs

Region of Interest Statistics

CPU 0 cumulative IPC: 0.624402 instructions: 200000000 cycles: 320306359
ITLB TOTAL     ACCESS: 25564122  HIT: 25564111  MISS:    11  HIT %:   100  MISS %: 4.30291e-05  AVERAGE MISS PENALTY: 171.545
ITLB LOAD      ACCESS: 25564122  HIT: 25564111  MISS:    11  HIT %:   100  MISS %: 4.30291e-05  AVERAGE MISS PENALTY: 171.545
ITLB RFO       ACCESS:     0  HIT:     0  MISS:     0  HIT %:     0  MISS %:     0  AVERAGE MISS PENALTY: 0
ITLB PREFETCH  ACCESS:     0  HIT:     0  MISS:     0  HIT %:     0  MISS %:     0  AVERAGE MISS PENALTY: 0
ITLB WRITEBACK ACCESS:     0  HIT:     0  MISS:     0  HIT %:     0  MISS %:     0  AVERAGE MISS PENALTY: 0
ITLB PREFETCH  REQUESTED:     0  ISSUED:     0  USEFUL:     0  USELESS:     0
 USEFUL LOAD PREFETCHES:          0 PREFETCH ISSUED TO LOWER LEVEL:          0  ACCURACY: -nan
 TIMELY PREFETCHES:          0 LATE PREFETCHES: 0 DROPPED PREFETCHES: 0
ITLB AVERAGE MISS LATENCY: 171.545 cycles
DTLB TOTAL     ACCESS: 50671685  HIT: 50589198  MISS: 82487  HIT %: 99.8372  MISS %: 0.162787  AVERAGE MISS PENALTY: 11.0425
DTLB LOAD      ACCESS: 46865670  HIT: 46783325  MISS: 82345  HIT %: 99.8243  MISS %: 0.175704  AVERAGE MISS PENALTY: 10.893
DTLB RFO       ACCESS: 3806015  HIT: 3805873  MISS:   142  HIT %: 99.9963  MISS %: 0.00373094  AVERAGE MISS PENALTY: 97.7324
DTLB PREFETCH  ACCESS:     0  HIT:     0  MISS:     0  HIT %:     0  MISS %:     0  AVERAGE MISS PENALTY: 0
DTLB WRITEBACK ACCESS:     0  HIT:     0  MISS:     0  HIT %:     0  MISS %:     0  AVERAGE MISS PENALTY: 0
DTLB PREFETCH  REQUESTED:     0  ISSUED:     0  USEFUL:     0  USELESS:     0
 USEFUL LOAD PREFETCHES:          0 PREFETCH ISSUED TO LOWER LEVEL:          0  ACCURACY: -nan
 TIMELY PREFETCHES:          0 LATE PREFETCHES: 0 DROPPED PREFETCHES: 0
DTLB AVERAGE MISS LATENCY: 11.0425 cycles
STLB TOTAL     ACCESS: 82498  HIT: 81164  MISS:  1334  HIT %: 98.383  MISS %: 1.61701  AVERAGE MISS PENALTY: 100
STLB LOAD      ACCESS: 82356  HIT: 81148  MISS:  1208  HIT %: 98.5332  MISS %: 1.4668  AVERAGE MISS PENALTY: 100
STLB RFO       ACCESS:   142  HIT:    16  MISS:   126  HIT %: 11.2676  MISS %: 88.7324  AVERAGE MISS PENALTY: 100
STLB PREFETCH  ACCESS:     0  HIT:     0  MISS:     0  HIT %:     0  MISS %:     0  AVERAGE MISS PENALTY: 0
STLB WRITEBACK ACCESS:     0  HIT:     0  MISS:     0  HIT %:     0  MISS %:     0  AVERAGE MISS PENALTY: 0
STLB PREFETCH  REQUESTED:     0  ISSUED:     0  USEFUL:     0  USELESS:     0
 USEFUL LOAD PREFETCHES:          0 PREFETCH ISSUED TO LOWER LEVEL:          0  ACCURACY: -nan
 TIMELY PREFETCHES:          0 LATE PREFETCHES: 0 DROPPED PREFETCHES: 0
STLB AVERAGE MISS LATENCY: 100 cycles
L1D TOTAL     ACCESS: 74870818  HIT: 69378085  MISS: 5492733  HIT %: 92.6637  MISS %: 7.33628  AVERAGE MISS PENALTY: 2.31855e+06
L1D LOAD      ACCESS: 34398365  HIT: 34019019  MISS: 379346  HIT %: 98.8972  MISS %: 1.1028  AVERAGE MISS PENALTY: 3.34545e+07
L1D RFO       ACCESS: 3935360  HIT: 3929923  MISS:  5437  HIT %: 99.8618  MISS %: 0.138158  AVERAGE MISS PENALTY: 8.13834e+06
L1D PREFETCH  ACCESS: 36537093  HIT: 31429143  MISS: 5107950  HIT %: 86.0198  MISS %: 13.9802  AVERAGE MISS PENALTY: 16.8587
L1D WRITEBACK ACCESS:     0  HIT:     0  MISS:     0  HIT %:     0  MISS %:     0  AVERAGE MISS PENALTY: 0
L1D PREFETCH  REQUESTED: 58560156  ISSUED: 53634842  USEFUL: 4517441  USELESS: 590442
 USEFUL LOAD PREFETCHES:    4517441 PREFETCH ISSUED TO LOWER LEVEL:    7279038  ACCURACY: 62.061
 TIMELY PREFETCHES:    4517441 LATE PREFETCHES: 155227 DROPPED PREFETCHES: 4925314
L1D AVERAGE MISS LATENCY: 8072.9 cycles
L1I TOTAL     ACCESS: 33153620  HIT: 33153528  MISS:    92  HIT %: 99.9997  MISS %: 0.000277496  AVERAGE MISS PENALTY: 145
L1I LOAD      ACCESS: 33153620  HIT: 33153528  MISS:    92  HIT %: 99.9997  MISS %: 0.000277496  AVERAGE MISS PENALTY: 145
L1I RFO       ACCESS:     0  HIT:     0  MISS:     0  HIT %:     0  MISS %:     0  AVERAGE MISS PENALTY: 0
L1I PREFETCH  ACCESS:     0  HIT:     0  MISS:     0  HIT %:     0  MISS %:     0  AVERAGE MISS PENALTY: 0
L1I WRITEBACK ACCESS:     0  HIT:     0  MISS:     0  HIT %:     0  MISS %:     0  AVERAGE MISS PENALTY: 0
L1I PREFETCH  REQUESTED:     0  ISSUED:     0  USEFUL:     0  USELESS:     0
 USEFUL LOAD PREFETCHES:          0 PREFETCH ISSUED TO LOWER LEVEL:          0  ACCURACY: -nan
 TIMELY PREFETCHES:          0 LATE PREFETCHES: 0 DROPPED PREFETCHES: 0
L1I AVERAGE MISS LATENCY: 145 cycles
L2C TOTAL     ACCESS: 10391519  HIT: 9236226  MISS: 1155293  HIT %: 88.8823  MISS %: 11.1177  AVERAGE MISS PENALTY: 576925
L2C LOAD      ACCESS: 376291  HIT: 333923  MISS: 42368  HIT %: 88.7406  MISS %: 11.2594  AVERAGE MISS PENALTY: 1.57306e+07
L2C RFO       ACCESS:  5260  HIT:  4599  MISS:   661  HIT %: 87.4335  MISS %: 12.5665  AVERAGE MISS PENALTY: 111.533
L2C PREFETCH  ACCESS: 9990930  HIT: 8878667  MISS: 1112263  HIT %: 88.8673  MISS %: 11.1327  AVERAGE MISS PENALTY: 37.3769
L2C WRITEBACK ACCESS: 19038  HIT: 19037  MISS:     1  HIT %: 99.9947  MISS %: 0.00525265  AVERAGE MISS PENALTY: 0
L2C PREFETCH  REQUESTED: 13018860  ISSUED: 13017059  USEFUL: 21996  USELESS: 1090802
 USEFUL LOAD PREFETCHES:      21996 PREFETCH ISSUED TO LOWER LEVEL:    1317166  ACCURACY: 1.66995
 TIMELY PREFETCHES:      21996 LATE PREFETCHES: 17134 DROPPED PREFETCHES: 1801
L2C AVERAGE MISS LATENCY: 37.8182 cycles
LLC0 TOTAL     ACCESS: 143410  HIT: 138361  MISS:  5049  HIT %: 96.4793  MISS %: 3.52067  AVERAGE MISS PENALTY: 104.745
LLC0 LOAD      ACCESS: 15583  HIT: 14819  MISS:   764  HIT %: 95.0972  MISS %: 4.90278  AVERAGE MISS PENALTY: 104.339
LLC0 RFO       ACCESS:   175  HIT:     1  MISS:   174  HIT %: 0.571429  MISS %: 99.4286  AVERAGE MISS PENALTY: 90.4885
LLC0 PREFETCH  ACCESS: 127004  HIT: 122923  MISS:  4081  HIT %: 96.7867  MISS %: 3.21328  AVERAGE MISS PENALTY: 106.198
LLC0 WRITEBACK ACCESS:   648  HIT:   618  MISS:    30  HIT %: 95.3704  MISS %: 4.62963  AVERAGE MISS PENALTY: 0
LLC0 PREFETCH  REQUESTED:     0  ISSUED:     0  USEFUL:    43  USELESS:   956
 USEFUL LOAD PREFETCHES:         43 PREFETCH ISSUED TO LOWER LEVEL:       4081  ACCURACY: 1.05366
 TIMELY PREFETCHES:         43 LATE PREFETCHES: 0 DROPPED PREFETCHES: 0
LLC0 AVERAGE MISS LATENCY: 104.745 cycles
Deadblocks : 752 Deadblock percentage : 98.4293

LLC1 TOTAL     ACCESS: 145908  HIT: 140792  MISS:  5116  HIT %: 96.4937  MISS %: 3.50632  AVERAGE MISS PENALTY: 103.291
LLC1 LOAD      ACCESS:  8761  HIT:  8009  MISS:   752  HIT %: 91.4165  MISS %: 8.5835  AVERAGE MISS PENALTY: 100.299
LLC1 RFO       ACCESS:    62  HIT:     0  MISS:    62  HIT %:     0  MISS %:   100  AVERAGE MISS PENALTY: 81.6452
LLC1 PREFETCH  ACCESS: 136391  HIT: 132120  MISS:  4271  HIT %: 96.8686  MISS %: 3.13144  AVERAGE MISS PENALTY: 104.882
LLC1 WRITEBACK ACCESS:   694  HIT:   663  MISS:    31  HIT %: 95.5331  MISS %: 4.46686  AVERAGE MISS PENALTY: 0
LLC1 PREFETCH  REQUESTED:     0  ISSUED:     0  USEFUL:   110  USELESS:  1006
 USEFUL LOAD PREFETCHES:        110 PREFETCH ISSUED TO LOWER LEVEL:       4271  ACCURACY: 2.57551
 TIMELY PREFETCHES:        110 LATE PREFETCHES: 0 DROPPED PREFETCHES: 0
LLC1 AVERAGE MISS LATENCY: 103.291 cycles
LLC2 TOTAL     ACCESS: 144424  HIT: 139271  MISS:  5153  HIT %: 96.432  MISS %: 3.56797  AVERAGE MISS PENALTY: 105.816
LLC2 LOAD      ACCESS:  5969  HIT:  5247  MISS:   722  HIT %: 87.9042  MISS %: 12.0958  AVERAGE MISS PENALTY: 104.321
LLC2 RFO       ACCESS:    62  HIT:     3  MISS:    59  HIT %: 4.83871  MISS %: 95.1613  AVERAGE MISS PENALTY: 84.4068
LLC2 PREFETCH  ACCESS: 137717  HIT: 133367  MISS:  4350  HIT %: 96.8413  MISS %: 3.15865  AVERAGE MISS PENALTY: 106.889
LLC2 WRITEBACK ACCESS:   676  HIT:   654  MISS:    22  HIT %: 96.7456  MISS %: 3.25444  AVERAGE MISS PENALTY: 0
LLC2 PREFETCH  REQUESTED:     0  ISSUED:     0  USEFUL:    56  USELESS:  1073
 USEFUL LOAD PREFETCHES:         56 PREFETCH ISSUED TO LOWER LEVEL:       4350  ACCURACY: 1.28736
 TIMELY PREFETCHES:         56 LATE PREFETCHES: 0 DROPPED PREFETCHES: 0
LLC2 AVERAGE MISS LATENCY: 105.816 cycles
LLC3 TOTAL     ACCESS: 145050  HIT: 139835  MISS:  5215  HIT %: 96.4047  MISS %: 3.59531  AVERAGE MISS PENALTY: 106.555
LLC3 LOAD      ACCESS:  4210  HIT:  3528  MISS:   682  HIT %: 83.8005  MISS %: 16.1995  AVERAGE MISS PENALTY: 104.255
LLC3 RFO       ACCESS:    77  HIT:    15  MISS:    62  HIT %: 19.4805  MISS %: 80.5195  AVERAGE MISS PENALTY: 84.1774
LLC3 PREFETCH  ACCESS: 140053  HIT: 135609  MISS:  4444  HIT %: 96.8269  MISS %: 3.17308  AVERAGE MISS PENALTY: 107.868
LLC3 WRITEBACK ACCESS:   710  HIT:   683  MISS:    27  HIT %: 96.1972  MISS %: 3.80282  AVERAGE MISS PENALTY: 0
LLC3 PREFETCH  REQUESTED:     0  ISSUED:     0  USEFUL:    53  USELESS:  1059
 USEFUL LOAD PREFETCHES:         53 PREFETCH ISSUED TO LOWER LEVEL:       4444  ACCURACY: 1.19262
 TIMELY PREFETCHES:         53 LATE PREFETCHES: 0 DROPPED PREFETCHES: 0
LLC3 AVERAGE MISS LATENCY: 106.555 cycles
LLC4 TOTAL     ACCESS: 144631  HIT: 139374  MISS:  5257  HIT %: 96.3652  MISS %: 3.63477  AVERAGE MISS PENALTY: 104.845
LLC4 LOAD      ACCESS:   979  HIT:   263  MISS:   716  HIT %: 26.8641  MISS %: 73.1359  AVERAGE MISS PENALTY: 103.709
LLC4 RFO       ACCESS:    74  HIT:    17  MISS:    57  HIT %: 22.973  MISS %: 77.027  AVERAGE MISS PENALTY: 85.8772
LLC4 PREFETCH  ACCESS: 142903  HIT: 138464  MISS:  4439  HIT %: 96.8937  MISS %: 3.1063  AVERAGE MISS PENALTY: 106.335
LLC4 WRITEBACK ACCESS:   675  HIT:   630  MISS:    45  HIT %: 93.3333  MISS %: 6.66667  AVERAGE MISS PENALTY: 0
LLC4 PREFETCH  REQUESTED:     0  ISSUED:     0  USEFUL:    46  USELESS:  1102
 USEFUL LOAD PREFETCHES:         46 PREFETCH ISSUED TO LOWER LEVEL:       4439  ACCURACY: 1.03627
 TIMELY PREFETCHES:         46 LATE PREFETCHES: 0 DROPPED PREFETCHES: 0
LLC4 AVERAGE MISS LATENCY: 104.845 cycles
LLC5 TOTAL     ACCESS: 145537  HIT: 140344  MISS:  5193  HIT %: 96.4318  MISS %: 3.56816  AVERAGE MISS PENALTY: 105.307
LLC5 LOAD      ACCESS:  2277  HIT:  1587  MISS:   690  HIT %: 69.697  MISS %: 30.303  AVERAGE MISS PENALTY: 104.106
LLC5 RFO       ACCESS:    80  HIT:    20  MISS:    60  HIT %:    25  MISS %:    75  AVERAGE MISS PENALTY: 80.6833
LLC5 PREFETCH  ACCESS: 142495  HIT: 138086  MISS:  4409  HIT %: 96.9059  MISS %: 3.09414  AVERAGE MISS PENALTY: 106.642
LLC5 WRITEBACK ACCESS:   685  HIT:   651  MISS:    34  HIT %: 95.0365  MISS %: 4.9635  AVERAGE MISS PENALTY: 0
LLC5 PREFETCH  REQUESTED:     0  ISSUED:     0  USEFUL:    56  USELESS:  1091
 USEFUL LOAD PREFETCHES:         56 PREFETCH ISSUED TO LOWER LEVEL:       4409  ACCURACY: 1.27013
 TIMELY PREFETCHES:         56 LATE PREFETCHES: 0 DROPPED PREFETCHES: 0
LLC5 AVERAGE MISS LATENCY: 105.307 cycles
LLC6 TOTAL     ACCESS: 145583  HIT: 140374  MISS:  5209  HIT %: 96.422  MISS %: 3.57803  AVERAGE MISS PENALTY: 105.884
LLC6 LOAD      ACCESS:  1764  HIT:  1092  MISS:   672  HIT %: 61.9048  MISS %: 38.0952  AVERAGE MISS PENALTY: 104.824
LLC6 RFO       ACCESS:    74  HIT:    15  MISS:    59  HIT %: 20.2703  MISS %: 79.7297  AVERAGE MISS PENALTY: 83.7119
LLC6 PREFETCH  ACCESS: 143089  HIT: 138639  MISS:  4450  HIT %: 96.89  MISS %: 3.10995  AVERAGE MISS PENALTY: 107.004
LLC6 WRITEBACK ACCESS:   656  HIT:   628  MISS:    28  HIT %: 95.7317  MISS %: 4.26829  AVERAGE MISS PENALTY: 0
LLC6 PREFETCH  REQUESTED:     0  ISSUED:     0  USEFUL:    51  USELESS:  1070
 USEFUL LOAD PREFETCHES:         51 PREFETCH ISSUED TO LOWER LEVEL:       4450  ACCURACY: 1.14607
 TIMELY PREFETCHES:         51 LATE PREFETCHES: 0 DROPPED PREFETCHES: 0
LLC6 AVERAGE MISS LATENCY: 105.884 cycles
LLC7 TOTAL     ACCESS: 146164  HIT: 140949  MISS:  5215  HIT %: 96.4321  MISS %: 3.56791  AVERAGE MISS PENALTY: 105.579
LLC7 LOAD      ACCESS:  1287  HIT:   610  MISS:   677  HIT %: 47.397  MISS %: 52.603  AVERAGE MISS PENALTY: 104.328
LLC7 RFO       ACCESS:    57  HIT:     0  MISS:    57  HIT %:     0  MISS %:   100  AVERAGE MISS PENALTY: 91.8772
LLC7 PREFETCH  ACCESS: 144149  HIT: 139705  MISS:  4444  HIT %: 96.9171  MISS %: 3.08292  AVERAGE MISS PENALTY: 106.824
LLC7 WRITEBACK ACCESS:   671  HIT:   634  MISS:    37  HIT %: 94.4858  MISS %: 5.51416  AVERAGE MISS PENALTY: 0
LLC7 PREFETCH  REQUESTED:     0  ISSUED:     0  USEFUL:    48  USELESS:  1119
 USEFUL LOAD PREFETCHES:         48 PREFETCH ISSUED TO LOWER LEVEL:       4444  ACCURACY: 1.08011
 TIMELY PREFETCHES:         48 LATE PREFETCHES: 0 DROPPED PREFETCHES: 0
LLC7 AVERAGE MISS LATENCY: 105.579 cycles
ROI Average ROB Stall Cycles:	3.87579
ROI Total ROB Stalls Cycles:	244258192
ROI TOTAL ROB counter      :	63021569
ROI Average Load ROB Stall Cycles:	7.40462
ROI Total Load ROB Stalls Cycle  :	84742018
ROI Total Load ROB stalls Counter:	11444485
Major fault: 0 Minor fault: 2191

