
*** ChampSim Multicore Out-of-Order Simulator ***

Warmup Instructions: 200000000
Simulation Instructions: 200000000
Number of CPUs: 1
threads:1

L1I Configuration:
L1I_SET:64
L1I_WAY:8
L1I_RQ_SIZE:64
L1I_WQ_SIZE:64
L1I_PQ_SIZE:8
L1I_MSHR_SIZE:8

L1D Configuration:
L1D_SET:64
L1D_WAY:12
L1D_RQ_SIZE:64
L1D_WQ_SIZE:64
L1D_PQ_SIZE:8
L1D_MSHR_SIZE:16

L2C Configuration:
L2C_SET:1024
L2C_WAY:8
L2C_RQ_SIZE:32
L2C_WQ_SIZE:32
L2C_PQ_SIZE:16
L2C_MSHR_SIZE:32

LLC Configuration:
LLC_SET:4096
LLC_WAY:16
LLC SLICES:8
LLC_RQ_SIZE:64
LLC_WQ_SIZE:64
LLC_PQ_SIZE:32
LLC_MSHR_SIZE:64

Interconnect OFF
Attacker deprioritize is: OFF
Off-chip DRAM Size: 4096 MB Channels: 1 Width: 64-bit Data Rate: 3200 MT/s
PAGE SIZE in KB: 4.000000 
PAGE SIZE in MB: 0.003906 
PAGE offset in bits: 12 
CEASER-S_LLC:0
MIRAGE : 1
CEASER_LATENCY:3
REMAP : OFF
Partitions : 1
Multi-Step : OFF
BFS : OFF

CPU 0 runs /home/anubhav/spec_2017/627.cam4_s-490B.champsimtrace.xz
CPU 0 Bimodal branch predictor
Initialize Hawkeye state
Initialize Hawkeye state
Initialize Hawkeye state
Initialize Hawkeye state
Initialize Hawkeye state
Initialize Hawkeye state
Initialize Hawkeye state
Initialize Hawkeye state
Heartbeat CPU 0 instructions: 10000001 cycles: 6489921 heartbeat IPC: 1.54085 cumulative IPC: 1.54085 (Simulation time: 0 hr 1 min 39 sec) 
 Total Blocks : 524288 Invalid Blocks : 471227
Heartbeat CPU 0 instructions: 20000002 cycles: 11686700 heartbeat IPC: 1.92427 cumulative IPC: 1.71135 (Simulation time: 0 hr 3 min 8 sec) 
 Total Blocks : 524288 Invalid Blocks : 462522
Heartbeat CPU 0 instructions: 30000002 cycles: 18214542 heartbeat IPC: 1.5319 cumulative IPC: 1.64704 (Simulation time: 0 hr 4 min 47 sec) 
 Total Blocks : 524288 Invalid Blocks : 448017
Heartbeat CPU 0 instructions: 40000000 cycles: 23908346 heartbeat IPC: 1.75629 cumulative IPC: 1.67306 (Simulation time: 0 hr 6 min 40 sec) 
 Total Blocks : 524288 Invalid Blocks : 444239
Heartbeat CPU 0 instructions: 50000000 cycles: 29636003 heartbeat IPC: 1.74591 cumulative IPC: 1.68714 (Simulation time: 0 hr 8 min 36 sec) 
 Total Blocks : 524288 Invalid Blocks : 430451
Heartbeat CPU 0 instructions: 60000003 cycles: 35642492 heartbeat IPC: 1.66487 cumulative IPC: 1.68338 (Simulation time: 0 hr 10 min 32 sec) 
 Total Blocks : 524288 Invalid Blocks : 422611
Heartbeat CPU 0 instructions: 70000000 cycles: 41425385 heartbeat IPC: 1.72924 cumulative IPC: 1.68979 (Simulation time: 0 hr 12 min 23 sec) 
 Total Blocks : 524288 Invalid Blocks : 412184
Heartbeat CPU 0 instructions: 80000002 cycles: 47504007 heartbeat IPC: 1.64511 cumulative IPC: 1.68407 (Simulation time: 0 hr 14 min 12 sec) 
 Total Blocks : 524288 Invalid Blocks : 406001
Heartbeat CPU 0 instructions: 90000000 cycles: 53348116 heartbeat IPC: 1.71112 cumulative IPC: 1.68703 (Simulation time: 0 hr 16 min 1 sec) 
 Total Blocks : 524288 Invalid Blocks : 395183
Heartbeat CPU 0 instructions: 100000001 cycles: 59655919 heartbeat IPC: 1.58534 cumulative IPC: 1.67628 (Simulation time: 0 hr 17 min 53 sec) 
 Total Blocks : 524288 Invalid Blocks : 390143
Heartbeat CPU 0 instructions: 110000000 cycles: 65347092 heartbeat IPC: 1.75711 cumulative IPC: 1.68332 (Simulation time: 0 hr 19 min 54 sec) 
 Total Blocks : 524288 Invalid Blocks : 378996
Heartbeat CPU 0 instructions: 120000000 cycles: 71761438 heartbeat IPC: 1.55901 cumulative IPC: 1.67221 (Simulation time: 0 hr 21 min 52 sec) 
 Total Blocks : 524288 Invalid Blocks : 367394
Heartbeat CPU 0 instructions: 130000000 cycles: 77842267 heartbeat IPC: 1.64451 cumulative IPC: 1.67004 (Simulation time: 0 hr 23 min 44 sec) 
 Total Blocks : 524288 Invalid Blocks : 364144
Heartbeat CPU 0 instructions: 140000003 cycles: 84173834 heartbeat IPC: 1.57939 cumulative IPC: 1.66322 (Simulation time: 0 hr 25 min 33 sec) 
 Total Blocks : 524288 Invalid Blocks : 352816
Heartbeat CPU 0 instructions: 150000001 cycles: 90987717 heartbeat IPC: 1.46759 cumulative IPC: 1.64857 (Simulation time: 0 hr 27 min 29 sec) 
 Total Blocks : 524288 Invalid Blocks : 349867
Heartbeat CPU 0 instructions: 160000001 cycles: 97317860 heartbeat IPC: 1.57974 cumulative IPC: 1.6441 (Simulation time: 0 hr 29 min 19 sec) 
 Total Blocks : 524288 Invalid Blocks : 337800
Heartbeat CPU 0 instructions: 170000001 cycles: 104106960 heartbeat IPC: 1.47295 cumulative IPC: 1.63294 (Simulation time: 0 hr 31 min 25 sec) 
 Total Blocks : 524288 Invalid Blocks : 332843
Heartbeat CPU 0 instructions: 180000001 cycles: 110636046 heartbeat IPC: 1.53161 cumulative IPC: 1.62696 (Simulation time: 0 hr 33 min 12 sec) 
 Total Blocks : 524288 Invalid Blocks : 324618
Heartbeat CPU 0 instructions: 190000000 cycles: 117345634 heartbeat IPC: 1.4904 cumulative IPC: 1.61915 (Simulation time: 0 hr 35 min 5 sec) 
 Total Blocks : 524288 Invalid Blocks : 319754
Heartbeat CPU 0 instructions: 200000000 cycles: 124248255 heartbeat IPC: 1.44873 cumulative IPC: 1.60968 (Simulation time: 0 hr 36 min 53 sec) 
 Total Blocks : 524288 Invalid Blocks : 310905

Warmup complete CPU 0 instructions: 200000004 cycles: 124248256 (Simulation time: 0 hr 36 min 53 sec) 

Heartbeat CPU 0 instructions: 210000002 cycles: 137051938 heartbeat IPC: 0.781025 cumulative IPC: 0.781025 (Simulation time: 0 hr 40 min 6 sec) 
 Total Blocks : 524288 Invalid Blocks : 305315
Heartbeat CPU 0 instructions: 220000000 cycles: 149338607 heartbeat IPC: 0.81389 cumulative IPC: 0.797119 (Simulation time: 0 hr 43 min 9 sec) 
 Total Blocks : 524288 Invalid Blocks : 298548
Heartbeat CPU 0 instructions: 230000001 cycles: 162304456 heartbeat IPC: 0.771257 cumulative IPC: 0.788308 (Simulation time: 0 hr 46 min 10 sec) 
 Total Blocks : 524288 Invalid Blocks : 289422
Heartbeat CPU 0 instructions: 240000000 cycles: 175046729 heartbeat IPC: 0.784789 cumulative IPC: 0.787425 (Simulation time: 0 hr 49 min 10 sec) 
 Total Blocks : 524288 Invalid Blocks : 286960
Heartbeat CPU 0 instructions: 250000000 cycles: 187952962 heartbeat IPC: 0.774819 cumulative IPC: 0.784871 (Simulation time: 0 hr 52 min 6 sec) 
 Total Blocks : 524288 Invalid Blocks : 278111
Heartbeat CPU 0 instructions: 260000002 cycles: 201740780 heartbeat IPC: 0.725278 cumulative IPC: 0.774268 (Simulation time: 0 hr 55 min 7 sec) 
 Total Blocks : 524288 Invalid Blocks : 274574
Heartbeat CPU 0 instructions: 270000000 cycles: 214292233 heartbeat IPC: 0.79672 cumulative IPC: 0.777398 (Simulation time: 0 hr 58 min 15 sec) 
 Total Blocks : 524288 Invalid Blocks : 266316
Heartbeat CPU 0 instructions: 280000002 cycles: 227744621 heartbeat IPC: 0.743363 cumulative IPC: 0.772974 (Simulation time: 1 hr 1 min 4 sec) 
 Total Blocks : 524288 Invalid Blocks : 262350
Heartbeat CPU 0 instructions: 290000001 cycles: 240484604 heartbeat IPC: 0.78493 cumulative IPC: 0.774284 (Simulation time: 1 hr 4 min 28 sec) 
 Total Blocks : 524288 Invalid Blocks : 255564
Heartbeat CPU 0 instructions: 300000001 cycles: 253401737 heartbeat IPC: 0.774166 cumulative IPC: 0.774273 (Simulation time: 1 hr 7 min 40 sec) 
 Total Blocks : 524288 Invalid Blocks : 252088
Heartbeat CPU 0 instructions: 310000000 cycles: 266295193 heartbeat IPC: 0.775587 cumulative IPC: 0.774392 (Simulation time: 1 hr 10 min 40 sec) 
 Total Blocks : 524288 Invalid Blocks : 244917
Heartbeat CPU 0 instructions: 320000002 cycles: 279379938 heartbeat IPC: 0.764249 cumulative IPC: 0.773536 (Simulation time: 1 hr 13 min 47 sec) 
 Total Blocks : 524288 Invalid Blocks : 237250
Heartbeat CPU 0 instructions: 330000000 cycles: 292490431 heartbeat IPC: 0.762748 cumulative IPC: 0.772696 (Simulation time: 1 hr 16 min 37 sec) 
 Total Blocks : 524288 Invalid Blocks : 235229
Heartbeat CPU 0 instructions: 340000001 cycles: 304934835 heartbeat IPC: 0.803574 cumulative IPC: 0.774822 (Simulation time: 1 hr 19 min 41 sec) 
 Total Blocks : 524288 Invalid Blocks : 227914
Heartbeat CPU 0 instructions: 350000001 cycles: 318451026 heartbeat IPC: 0.739853 cumulative IPC: 0.772389 (Simulation time: 1 hr 22 min 42 sec) 
 Total Blocks : 524288 Invalid Blocks : 226013
Heartbeat CPU 0 instructions: 360000001 cycles: 330925651 heartbeat IPC: 0.801627 cumulative IPC: 0.774153 (Simulation time: 1 hr 25 min 35 sec) 
 Total Blocks : 524288 Invalid Blocks : 219069
Heartbeat CPU 0 instructions: 370000000 cycles: 344273871 heartbeat IPC: 0.749164 cumulative IPC: 0.772637 (Simulation time: 1 hr 28 min 43 sec) 
 Total Blocks : 524288 Invalid Blocks : 215072
Heartbeat CPU 0 instructions: 380000003 cycles: 356595275 heartbeat IPC: 0.811596 cumulative IPC: 0.774703 (Simulation time: 1 hr 31 min 39 sec) 
 Total Blocks : 524288 Invalid Blocks : 209825
Heartbeat CPU 0 instructions: 390000002 cycles: 379975633 heartbeat IPC: 0.427709 cumulative IPC: 0.742979 (Simulation time: 1 hr 37 min 11 sec) 
 Total Blocks : 524288 Invalid Blocks : 159066
Heartbeat CPU 0 instructions: 400000000 cycles: 391041149 heartbeat IPC: 0.903708 cumulative IPC: 0.749645 (Simulation time: 1 hr 40 min 51 sec) 
 Total Blocks : 524288 Invalid Blocks : 154696
Finished CPU 0 instructions: 200000001 cycles: 266792904 cumulative IPC: 0.749645 (Simulation time: 1 hr 40 min 51 sec) 

CPU 0 Branch Prediction Accuracy: 85.8046% MPKI: 13.2481 Average ROB Occupancy at Mispredict: 47.501

ChampSim completed all CPUs

Region of Interest Statistics

CPU 0 cumulative IPC: 0.749645 instructions: 200000001 cycles: 266792904
ITLB TOTAL     ACCESS: 28372449  HIT: 28372441  MISS:     8  HIT %:   100  MISS %: 2.81964e-05  AVERAGE MISS PENALTY: 182.5
ITLB LOAD      ACCESS: 28372449  HIT: 28372441  MISS:     8  HIT %:   100  MISS %: 2.81964e-05  AVERAGE MISS PENALTY: 182.5
ITLB RFO       ACCESS:     0  HIT:     0  MISS:     0  HIT %:     0  MISS %:     0  AVERAGE MISS PENALTY: 0
ITLB PREFETCH  ACCESS:     0  HIT:     0  MISS:     0  HIT %:     0  MISS %:     0  AVERAGE MISS PENALTY: 0
ITLB WRITEBACK ACCESS:     0  HIT:     0  MISS:     0  HIT %:     0  MISS %:     0  AVERAGE MISS PENALTY: 0
ITLB PREFETCH  REQUESTED:     0  ISSUED:     0  USEFUL:     0  USELESS:     0
 USEFUL LOAD PREFETCHES:          0 PREFETCH ISSUED TO LOWER LEVEL:          0  ACCURACY: -nan
 TIMELY PREFETCHES:          0 LATE PREFETCHES: 0 DROPPED PREFETCHES: 0
ITLB AVERAGE MISS LATENCY: 182.5 cycles
DTLB TOTAL     ACCESS: 34109310  HIT: 34044768  MISS: 64542  HIT %: 99.8108  MISS %: 0.189221  AVERAGE MISS PENALTY: 19.0502
DTLB LOAD      ACCESS: 23225619  HIT: 23182379  MISS: 43240  HIT %: 99.8138  MISS %: 0.186174  AVERAGE MISS PENALTY: 19.7992
DTLB RFO       ACCESS: 10883691  HIT: 10862389  MISS: 21302  HIT %: 99.8043  MISS %: 0.195724  AVERAGE MISS PENALTY: 17.53
DTLB PREFETCH  ACCESS:     0  HIT:     0  MISS:     0  HIT %:     0  MISS %:     0  AVERAGE MISS PENALTY: 0
DTLB WRITEBACK ACCESS:     0  HIT:     0  MISS:     0  HIT %:     0  MISS %:     0  AVERAGE MISS PENALTY: 0
DTLB PREFETCH  REQUESTED:     0  ISSUED:     0  USEFUL:     0  USELESS:     0
 USEFUL LOAD PREFETCHES:          0 PREFETCH ISSUED TO LOWER LEVEL:          0  ACCURACY: -nan
 TIMELY PREFETCHES:          0 LATE PREFETCHES: 0 DROPPED PREFETCHES: 0
DTLB AVERAGE MISS LATENCY: 19.0502 cycles
STLB TOTAL     ACCESS: 64550  HIT: 58201  MISS:  6349  HIT %: 90.1642  MISS %: 9.83579  AVERAGE MISS PENALTY: 100
STLB LOAD      ACCESS: 43248  HIT: 38713  MISS:  4535  HIT %: 89.514  MISS %: 10.486  AVERAGE MISS PENALTY: 100
STLB RFO       ACCESS: 21302  HIT: 19488  MISS:  1814  HIT %: 91.4844  MISS %: 8.51563  AVERAGE MISS PENALTY: 100
STLB PREFETCH  ACCESS:     0  HIT:     0  MISS:     0  HIT %:     0  MISS %:     0  AVERAGE MISS PENALTY: 0
STLB WRITEBACK ACCESS:     0  HIT:     0  MISS:     0  HIT %:     0  MISS %:     0  AVERAGE MISS PENALTY: 0
STLB PREFETCH  REQUESTED:     0  ISSUED:     0  USEFUL:     0  USELESS:     0
 USEFUL LOAD PREFETCHES:          0 PREFETCH ISSUED TO LOWER LEVEL:          0  ACCURACY: -nan
 TIMELY PREFETCHES:          0 LATE PREFETCHES: 0 DROPPED PREFETCHES: 0
STLB AVERAGE MISS LATENCY: 100 cycles
L1D TOTAL     ACCESS: 46508728  HIT: 42777069  MISS: 3731659  HIT %: 91.9764  MISS %: 8.02357  AVERAGE MISS PENALTY: 1.10478e+07
L1D LOAD      ACCESS: 21759700  HIT: 21487790  MISS: 271910  HIT %: 98.7504  MISS %: 1.2496  AVERAGE MISS PENALTY: 1.51297e+08
L1D RFO       ACCESS: 10200821  HIT: 9047935  MISS: 1152886  HIT %: 88.6981  MISS %: 11.3019  AVERAGE MISS PENALTY: 75768.6
L1D PREFETCH  ACCESS: 14548207  HIT: 12241344  MISS: 2306863  HIT %: 84.1433  MISS %: 15.8567  AVERAGE MISS PENALTY: 25.349
L1D WRITEBACK ACCESS:     0  HIT:     0  MISS:     0  HIT %:     0  MISS %:     0  AVERAGE MISS PENALTY: 0
L1D PREFETCH  REQUESTED: 17735037  ISSUED: 16804769  USEFUL: 2231452  USELESS: 75439
 USEFUL LOAD PREFETCHES:    2231452 PREFETCH ISSUED TO LOWER LEVEL:    3199154  ACCURACY: 69.7513
 TIMELY PREFETCHES:    2231452 LATE PREFETCHES: 251577 DROPPED PREFETCHES: 930268
L1D AVERAGE MISS LATENCY: 23428.9 cycles
L1I TOTAL     ACCESS: 38457923  HIT: 38453447  MISS:  4476  HIT %: 99.9884  MISS %: 0.0116387  AVERAGE MISS PENALTY: 51.2373
L1I LOAD      ACCESS: 38457923  HIT: 38453447  MISS:  4476  HIT %: 99.9884  MISS %: 0.0116387  AVERAGE MISS PENALTY: 51.2373
L1I RFO       ACCESS:     0  HIT:     0  MISS:     0  HIT %:     0  MISS %:     0  AVERAGE MISS PENALTY: 0
L1I PREFETCH  ACCESS:     0  HIT:     0  MISS:     0  HIT %:     0  MISS %:     0  AVERAGE MISS PENALTY: 0
L1I WRITEBACK ACCESS:     0  HIT:     0  MISS:     0  HIT %:     0  MISS %:     0  AVERAGE MISS PENALTY: 0
L1I PREFETCH  REQUESTED:     0  ISSUED:     0  USEFUL:     0  USELESS:     0
 USEFUL LOAD PREFETCHES:          0 PREFETCH ISSUED TO LOWER LEVEL:          0  ACCURACY: -nan
 TIMELY PREFETCHES:          0 LATE PREFETCHES: 0 DROPPED PREFETCHES: 0
L1I AVERAGE MISS LATENCY: 51.2373 cycles
L2C TOTAL     ACCESS: 11083104  HIT: 8580386  MISS: 2502718  HIT %: 77.4186  MISS %: 22.5814  AVERAGE MISS PENALTY: 6.56667e+06
L2C LOAD      ACCESS: 241916  HIT: 123612  MISS: 118304  HIT %: 51.0971  MISS %: 48.9029  AVERAGE MISS PENALTY: 1.3889e+08
L2C RFO       ACCESS: 1152536  HIT: 55743  MISS: 1096793  HIT %: 4.83655  MISS %: 95.1634  AVERAGE MISS PENALTY: 2895.95
L2C PREFETCH  ACCESS: 8105233  HIT: 6820618  MISS: 1284615  HIT %: 84.1508  MISS %: 15.8492  AVERAGE MISS PENALTY: 69.5588
L2C WRITEBACK ACCESS: 1583419  HIT: 1580413  MISS:  3006  HIT %: 99.8102  MISS %: 0.189842  AVERAGE MISS PENALTY: 0
L2C PREFETCH  REQUESTED: 8598499  ISSUED: 8592630  USEFUL: 72807  USELESS: 1212391
 USEFUL LOAD PREFETCHES:      72807 PREFETCH ISSUED TO LOWER LEVEL:    1767828  ACCURACY: 4.11844
 TIMELY PREFETCHES:      72807 LATE PREFETCHES: 99159 DROPPED PREFETCHES: 5869
L2C AVERAGE MISS LATENCY: 67.1169 cycles
LLC0 TOTAL     ACCESS: 472650  HIT: 426918  MISS: 45732  HIT %: 90.3243  MISS %: 9.67566  AVERAGE MISS PENALTY: 208.692
LLC0 LOAD      ACCESS: 22772  HIT: 18625  MISS:  4147  HIT %: 81.789  MISS %: 18.211  AVERAGE MISS PENALTY: 192.108
LLC0 RFO       ACCESS: 137274  HIT: 122945  MISS: 14329  HIT %: 89.5618  MISS %: 10.4382  AVERAGE MISS PENALTY: 198.279
LLC0 PREFETCH  ACCESS: 151516  HIT: 124628  MISS: 26888  HIT %: 82.254  MISS %: 17.746  AVERAGE MISS PENALTY: 219.655
LLC0 WRITEBACK ACCESS: 161088  HIT: 160720  MISS:   368  HIT %: 99.7716  MISS %: 0.228447  AVERAGE MISS PENALTY: 0
LLC0 PREFETCH  REQUESTED:     0  ISSUED:     0  USEFUL:  6587  USELESS: 13974
 USEFUL LOAD PREFETCHES:       6587 PREFETCH ISSUED TO LOWER LEVEL:      26888  ACCURACY: 24.4979
 TIMELY PREFETCHES:       6587 LATE PREFETCHES: 0 DROPPED PREFETCHES: 0
LLC0 AVERAGE MISS LATENCY: 208.692 cycles
Deadblocks : 3259 Deadblock percentage : 78.5869

LLC1 TOTAL     ACCESS: 472551  HIT: 426724  MISS: 45827  HIT %: 90.3022  MISS %: 9.69779  AVERAGE MISS PENALTY: 210.301
LLC1 LOAD      ACCESS: 11543  HIT:  8927  MISS:  2616  HIT %: 77.3369  MISS %: 22.6631  AVERAGE MISS PENALTY: 193.59
LLC1 RFO       ACCESS: 137133  HIT: 122801  MISS: 14332  HIT %: 89.5488  MISS %: 10.4512  AVERAGE MISS PENALTY: 196.839
LLC1 PREFETCH  ACCESS: 163003  HIT: 134483  MISS: 28520  HIT %: 82.5034  MISS %: 17.4966  AVERAGE MISS PENALTY: 221.245
LLC1 WRITEBACK ACCESS: 160872  HIT: 160513  MISS:   359  HIT %: 99.7768  MISS %: 0.223159  AVERAGE MISS PENALTY: 0
LLC1 PREFETCH  REQUESTED:     0  ISSUED:     0  USEFUL:  7509  USELESS: 14652
 USEFUL LOAD PREFETCHES:       7509 PREFETCH ISSUED TO LOWER LEVEL:      28520  ACCURACY: 26.3289
 TIMELY PREFETCHES:       7509 LATE PREFETCHES: 0 DROPPED PREFETCHES: 0
LLC1 AVERAGE MISS LATENCY: 210.301 cycles
LLC2 TOTAL     ACCESS: 473118  HIT: 427359  MISS: 45759  HIT %: 90.3282  MISS %: 9.67179  AVERAGE MISS PENALTY: 211.319
LLC2 LOAD      ACCESS:  7250  HIT:  5775  MISS:  1475  HIT %: 79.6552  MISS %: 20.3448  AVERAGE MISS PENALTY: 210.987
LLC2 RFO       ACCESS: 137321  HIT: 122983  MISS: 14338  HIT %: 89.5588  MISS %: 10.4412  AVERAGE MISS PENALTY: 197.239
LLC2 PREFETCH  ACCESS: 167671  HIT: 138124  MISS: 29547  HIT %: 82.378  MISS %: 17.622  AVERAGE MISS PENALTY: 221.022
LLC2 WRITEBACK ACCESS: 160876  HIT: 160477  MISS:   399  HIT %: 99.752  MISS %: 0.248017  AVERAGE MISS PENALTY: 0
LLC2 PREFETCH  REQUESTED:     0  ISSUED:     0  USEFUL:  7702  USELESS: 15174
 USEFUL LOAD PREFETCHES:       7702 PREFETCH ISSUED TO LOWER LEVEL:      29547  ACCURACY: 26.0669
 TIMELY PREFETCHES:       7702 LATE PREFETCHES: 0 DROPPED PREFETCHES: 0
LLC2 AVERAGE MISS LATENCY: 211.319 cycles
LLC3 TOTAL     ACCESS: 473071  HIT: 427451  MISS: 45620  HIT %: 90.3566  MISS %: 9.64337  AVERAGE MISS PENALTY: 211.39
LLC3 LOAD      ACCESS:  5088  HIT:  3873  MISS:  1215  HIT %: 76.1203  MISS %: 23.8797  AVERAGE MISS PENALTY: 188.66
LLC3 RFO       ACCESS: 136956  HIT: 122771  MISS: 14185  HIT %: 89.6427  MISS %: 10.3573  AVERAGE MISS PENALTY: 198.7
LLC3 PREFETCH  ACCESS: 170152  HIT: 140314  MISS: 29838  HIT %: 82.4639  MISS %: 17.5361  AVERAGE MISS PENALTY: 221.055
LLC3 WRITEBACK ACCESS: 160875  HIT: 160493  MISS:   382  HIT %: 99.7625  MISS %: 0.237451  AVERAGE MISS PENALTY: 0
LLC3 PREFETCH  REQUESTED:     0  ISSUED:     0  USEFUL:  7531  USELESS: 15259
 USEFUL LOAD PREFETCHES:       7531 PREFETCH ISSUED TO LOWER LEVEL:      29838  ACCURACY: 25.2396
 TIMELY PREFETCHES:       7531 LATE PREFETCHES: 0 DROPPED PREFETCHES: 0
LLC3 AVERAGE MISS LATENCY: 211.39 cycles
LLC4 TOTAL     ACCESS: 473832  HIT: 428107  MISS: 45725  HIT %: 90.35  MISS %: 9.65004  AVERAGE MISS PENALTY: 209.759
LLC4 LOAD      ACCESS:  4248  HIT:  3641  MISS:   607  HIT %: 85.7109  MISS %: 14.2891  AVERAGE MISS PENALTY: 219.435
LLC4 RFO       ACCESS: 137108  HIT: 122811  MISS: 14297  HIT %: 89.5725  MISS %: 10.4275  AVERAGE MISS PENALTY: 196.513
LLC4 PREFETCH  ACCESS: 171427  HIT: 141006  MISS: 30421  HIT %: 82.2543  MISS %: 17.7457  AVERAGE MISS PENALTY: 218.549
LLC4 WRITEBACK ACCESS: 161049  HIT: 160649  MISS:   400  HIT %: 99.7516  MISS %: 0.248372  AVERAGE MISS PENALTY: 0
LLC4 PREFETCH  REQUESTED:     0  ISSUED:     0  USEFUL:  7656  USELESS: 15460
 USEFUL LOAD PREFETCHES:       7656 PREFETCH ISSUED TO LOWER LEVEL:      30421  ACCURACY: 25.1668
 TIMELY PREFETCHES:       7656 LATE PREFETCHES: 0 DROPPED PREFETCHES: 0
LLC4 AVERAGE MISS LATENCY: 209.759 cycles
LLC5 TOTAL     ACCESS: 474178  HIT: 428535  MISS: 45643  HIT %: 90.3743  MISS %: 9.62571  AVERAGE MISS PENALTY: 210.629
LLC5 LOAD      ACCESS:  4454  HIT:  3556  MISS:   898  HIT %: 79.8383  MISS %: 20.1617  AVERAGE MISS PENALTY: 180.841
LLC5 RFO       ACCESS: 136939  HIT: 122746  MISS: 14193  HIT %: 89.6355  MISS %: 10.3645  AVERAGE MISS PENALTY: 201.577
LLC5 PREFETCH  ACCESS: 171740  HIT: 141570  MISS: 30170  HIT %: 82.4327  MISS %: 17.5673  AVERAGE MISS PENALTY: 218.441
LLC5 WRITEBACK ACCESS: 161045  HIT: 160663  MISS:   382  HIT %: 99.7628  MISS %: 0.237201  AVERAGE MISS PENALTY: 0
LLC5 PREFETCH  REQUESTED:     0  ISSUED:     0  USEFUL:  7532  USELESS: 15293
 USEFUL LOAD PREFETCHES:       7532 PREFETCH ISSUED TO LOWER LEVEL:      30170  ACCURACY: 24.9652
 TIMELY PREFETCHES:       7532 LATE PREFETCHES: 0 DROPPED PREFETCHES: 0
LLC5 AVERAGE MISS LATENCY: 210.629 cycles
LLC6 TOTAL     ACCESS: 474490  HIT: 428779  MISS: 45711  HIT %: 90.3663  MISS %: 9.63371  AVERAGE MISS PENALTY: 211.23
LLC6 LOAD      ACCESS:  3297  HIT:  2925  MISS:   372  HIT %: 88.717  MISS %: 11.283  AVERAGE MISS PENALTY: 226.368
LLC6 RFO       ACCESS: 137159  HIT: 122913  MISS: 14246  HIT %: 89.6135  MISS %: 10.3865  AVERAGE MISS PENALTY: 201.725
LLC6 PREFETCH  ACCESS: 172933  HIT: 142217  MISS: 30716  HIT %: 82.2382  MISS %: 17.7618  AVERAGE MISS PENALTY: 218.047
LLC6 WRITEBACK ACCESS: 161101  HIT: 160724  MISS:   377  HIT %: 99.766  MISS %: 0.234015  AVERAGE MISS PENALTY: 0
LLC6 PREFETCH  REQUESTED:     0  ISSUED:     0  USEFUL:  7513  USELESS: 15732
 USEFUL LOAD PREFETCHES:       7513 PREFETCH ISSUED TO LOWER LEVEL:      30716  ACCURACY: 24.4596
 TIMELY PREFETCHES:       7513 LATE PREFETCHES: 0 DROPPED PREFETCHES: 0
LLC6 AVERAGE MISS LATENCY: 211.23 cycles
LLC7 TOTAL     ACCESS: 473732  HIT: 428014  MISS: 45718  HIT %: 90.3494  MISS %: 9.6506  AVERAGE MISS PENALTY: 210.376
LLC7 LOAD      ACCESS:  3662  HIT:  2798  MISS:   864  HIT %: 76.4063  MISS %: 23.5937  AVERAGE MISS PENALTY: 182.962
LLC7 RFO       ACCESS: 136903  HIT: 122690  MISS: 14213  HIT %: 89.6182  MISS %: 10.3818  AVERAGE MISS PENALTY: 198.005
LLC7 PREFETCH  ACCESS: 172141  HIT: 141880  MISS: 30261  HIT %: 82.4208  MISS %: 17.5792  AVERAGE MISS PENALTY: 219.611
LLC7 WRITEBACK ACCESS: 161026  HIT: 160646  MISS:   380  HIT %: 99.764  MISS %: 0.235987  AVERAGE MISS PENALTY: 0
LLC7 PREFETCH  REQUESTED:     0  ISSUED:     0  USEFUL:  7395  USELESS: 15456
 USEFUL LOAD PREFETCHES:       7395 PREFETCH ISSUED TO LOWER LEVEL:      30261  ACCURACY: 24.4374
 TIMELY PREFETCHES:       7395 LATE PREFETCHES: 0 DROPPED PREFETCHES: 0
LLC7 AVERAGE MISS LATENCY: 210.376 cycles
ROI Average ROB Stall Cycles:	4.70242
ROI Total ROB Stalls Cycles:	181252038
ROI TOTAL ROB counter      :	38544454
ROI Average Load ROB Stall Cycles:	5.86827
ROI Total Load ROB Stalls Cycle  :	21470547
ROI Total Load ROB stalls Counter:	3658751
Major fault: 0 Minor fault: 9002

