
*** ChampSim Multicore Out-of-Order Simulator ***

Warmup Instructions: 200000000
Simulation Instructions: 200000000
Number of CPUs: 1
threads:1

L1I Configuration:
L1I_SET:64
L1I_WAY:8
L1I_RQ_SIZE:64
L1I_WQ_SIZE:64
L1I_PQ_SIZE:8
L1I_MSHR_SIZE:8

L1D Configuration:
L1D_SET:64
L1D_WAY:12
L1D_RQ_SIZE:64
L1D_WQ_SIZE:64
L1D_PQ_SIZE:8
L1D_MSHR_SIZE:16

L2C Configuration:
L2C_SET:1024
L2C_WAY:8
L2C_RQ_SIZE:32
L2C_WQ_SIZE:32
L2C_PQ_SIZE:16
L2C_MSHR_SIZE:32

LLC Configuration:
LLC_SET:2048
LLC_WAY:16
LLC SLICES:8
LLC_RQ_SIZE:64
LLC_WQ_SIZE:64
LLC_PQ_SIZE:32
LLC_MSHR_SIZE:64

Interconnect OFF
Attacker deprioritize is: OFF
Off-chip DRAM Size: 4096 MB Channels: 1 Width: 64-bit Data Rate: 3200 MT/s
PAGE SIZE in KB: 4.000000 
PAGE SIZE in MB: 0.003906 
PAGE offset in bits: 12 
CEASER-S_LLC:0
MIRAGE : 1
CEASER_LATENCY:3
REMAP : OFF
Partitions : 1
Multi-Step : OFF
BFS : OFF

CPU 0 runs /home/anubhav/spec_2017/654.roms_s-293B.champsimtrace.xz
CPU 0 Bimodal branch predictor
Initialize Hawkeye state
Initialize Hawkeye state
Initialize Hawkeye state
Initialize Hawkeye state
Initialize Hawkeye state
Initialize Hawkeye state
Initialize Hawkeye state
Initialize Hawkeye state
Heartbeat CPU 0 instructions: 10000000 cycles: 4295617 heartbeat IPC: 2.32795 cumulative IPC: 2.32795 (Simulation time: 0 hr 1 min 55 sec) 
 Total Blocks : 262144 Invalid Blocks : 209915
Heartbeat CPU 0 instructions: 20000002 cycles: 8742264 heartbeat IPC: 2.24889 cumulative IPC: 2.28774 (Simulation time: 0 hr 3 min 51 sec) 
 Total Blocks : 262144 Invalid Blocks : 178158
Heartbeat CPU 0 instructions: 30000003 cycles: 13038575 heartbeat IPC: 2.32758 cumulative IPC: 2.30087 (Simulation time: 0 hr 5 min 41 sec) 
 Total Blocks : 262144 Invalid Blocks : 157972
Heartbeat CPU 0 instructions: 40000002 cycles: 17484272 heartbeat IPC: 2.24937 cumulative IPC: 2.28777 (Simulation time: 0 hr 7 min 29 sec) 
 Total Blocks : 262144 Invalid Blocks : 134094
Heartbeat CPU 0 instructions: 50000002 cycles: 21780561 heartbeat IPC: 2.32759 cumulative IPC: 2.29562 (Simulation time: 0 hr 9 min 17 sec) 
 Total Blocks : 262144 Invalid Blocks : 118906
Heartbeat CPU 0 instructions: 60000001 cycles: 26226810 heartbeat IPC: 2.24909 cumulative IPC: 2.28774 (Simulation time: 0 hr 11 min 14 sec) 
 Total Blocks : 262144 Invalid Blocks : 100942
Heartbeat CPU 0 instructions: 70000002 cycles: 30521770 heartbeat IPC: 2.32831 cumulative IPC: 2.29345 (Simulation time: 0 hr 13 min 16 sec) 
 Total Blocks : 262144 Invalid Blocks : 89673
Heartbeat CPU 0 instructions: 80000001 cycles: 34944367 heartbeat IPC: 2.26111 cumulative IPC: 2.28935 (Simulation time: 0 hr 15 min 20 sec) 
 Total Blocks : 262144 Invalid Blocks : 77685
Heartbeat CPU 0 instructions: 90000001 cycles: 39264556 heartbeat IPC: 2.31471 cumulative IPC: 2.29214 (Simulation time: 0 hr 17 min 22 sec) 
 Total Blocks : 262144 Invalid Blocks : 67407
Heartbeat CPU 0 instructions: 100000001 cycles: 43618010 heartbeat IPC: 2.29703 cumulative IPC: 2.29263 (Simulation time: 0 hr 19 min 27 sec) 
 Total Blocks : 262144 Invalid Blocks : 58938
Heartbeat CPU 0 instructions: 110000000 cycles: 48007385 heartbeat IPC: 2.27823 cumulative IPC: 2.29131 (Simulation time: 0 hr 21 min 28 sec) 
 Total Blocks : 262144 Invalid Blocks : 50745
Heartbeat CPU 0 instructions: 120000003 cycles: 52308983 heartbeat IPC: 2.32472 cumulative IPC: 2.29406 (Simulation time: 0 hr 23 min 22 sec) 
 Total Blocks : 262144 Invalid Blocks : 44826
Heartbeat CPU 0 instructions: 130000003 cycles: 56846897 heartbeat IPC: 2.20366 cumulative IPC: 2.28684 (Simulation time: 0 hr 25 min 29 sec) 
 Total Blocks : 262144 Invalid Blocks : 35281
Heartbeat CPU 0 instructions: 140000002 cycles: 61543263 heartbeat IPC: 2.12931 cumulative IPC: 2.27482 (Simulation time: 0 hr 27 min 56 sec) 
 Total Blocks : 262144 Invalid Blocks : 22503
Heartbeat CPU 0 instructions: 150000002 cycles: 66239556 heartbeat IPC: 2.12934 cumulative IPC: 2.26451 (Simulation time: 0 hr 30 min 26 sec) 
 Total Blocks : 262144 Invalid Blocks : 14391
Heartbeat CPU 0 instructions: 160000002 cycles: 70935874 heartbeat IPC: 2.12933 cumulative IPC: 2.25556 (Simulation time: 0 hr 33 min 17 sec) 
 Total Blocks : 262144 Invalid Blocks : 9184
Heartbeat CPU 0 instructions: 170000002 cycles: 75632266 heartbeat IPC: 2.12929 cumulative IPC: 2.24772 (Simulation time: 0 hr 36 min 20 sec) 
 Total Blocks : 262144 Invalid Blocks : 5882
Heartbeat CPU 0 instructions: 180000000 cycles: 80328686 heartbeat IPC: 2.12928 cumulative IPC: 2.24079 (Simulation time: 0 hr 39 min 32 sec) 
 Total Blocks : 262144 Invalid Blocks : 3746
Heartbeat CPU 0 instructions: 190000002 cycles: 85024990 heartbeat IPC: 2.12933 cumulative IPC: 2.23464 (Simulation time: 0 hr 42 min 53 sec) 
 Total Blocks : 262144 Invalid Blocks : 2379
Heartbeat CPU 0 instructions: 200000000 cycles: 89723030 heartbeat IPC: 2.12855 cumulative IPC: 2.22908 (Simulation time: 0 hr 46 min 13 sec) 
 Total Blocks : 262144 Invalid Blocks : 1540

Warmup complete CPU 0 instructions: 200000004 cycles: 89723031 (Simulation time: 0 hr 46 min 13 sec) 

Heartbeat CPU 0 instructions: 210000003 cycles: 98292317 heartbeat IPC: 1.16696 cumulative IPC: 1.16696 (Simulation time: 0 hr 50 min 23 sec) 
 Total Blocks : 262144 Invalid Blocks : 1005
Heartbeat CPU 0 instructions: 220000000 cycles: 106865009 heartbeat IPC: 1.16649 cumulative IPC: 1.16673 (Simulation time: 0 hr 54 min 25 sec) 
 Total Blocks : 262144 Invalid Blocks : 634
Heartbeat CPU 0 instructions: 230000000 cycles: 115439445 heartbeat IPC: 1.16626 cumulative IPC: 1.16657 (Simulation time: 0 hr 58 min 18 sec) 
 Total Blocks : 262144 Invalid Blocks : 422
Heartbeat CPU 0 instructions: 240000000 cycles: 124016584 heartbeat IPC: 1.16589 cumulative IPC: 1.1664 (Simulation time: 1 hr 2 min 29 sec) 
 Total Blocks : 262144 Invalid Blocks : 257
Heartbeat CPU 0 instructions: 250000000 cycles: 132586640 heartbeat IPC: 1.16685 cumulative IPC: 1.16649 (Simulation time: 1 hr 6 min 53 sec) 
 Total Blocks : 262144 Invalid Blocks : 159
Heartbeat CPU 0 instructions: 260000000 cycles: 141159313 heartbeat IPC: 1.1665 cumulative IPC: 1.16649 (Simulation time: 1 hr 11 min 27 sec) 
 Total Blocks : 262144 Invalid Blocks : 96
Heartbeat CPU 0 instructions: 270000000 cycles: 149732035 heartbeat IPC: 1.16649 cumulative IPC: 1.16649 (Simulation time: 1 hr 15 min 44 sec) 
 Total Blocks : 262144 Invalid Blocks : 66
Heartbeat CPU 0 instructions: 280000003 cycles: 158304957 heartbeat IPC: 1.16646 cumulative IPC: 1.16649 (Simulation time: 1 hr 20 min 38 sec) 
 Total Blocks : 262144 Invalid Blocks : 43
Heartbeat CPU 0 instructions: 290000003 cycles: 166874038 heartbeat IPC: 1.16699 cumulative IPC: 1.16654 (Simulation time: 1 hr 25 min 0 sec) 
 Total Blocks : 262144 Invalid Blocks : 29
Heartbeat CPU 0 instructions: 300000001 cycles: 175441142 heartbeat IPC: 1.16726 cumulative IPC: 1.16661 (Simulation time: 1 hr 28 min 39 sec) 
 Total Blocks : 262144 Invalid Blocks : 21
Heartbeat CPU 0 instructions: 310000003 cycles: 184010144 heartbeat IPC: 1.167 cumulative IPC: 1.16665 (Simulation time: 1 hr 32 min 23 sec) 
 Total Blocks : 262144 Invalid Blocks : 14
Heartbeat CPU 0 instructions: 320000003 cycles: 192575435 heartbeat IPC: 1.1675 cumulative IPC: 1.16672 (Simulation time: 1 hr 37 min 30 sec) 
 Total Blocks : 262144 Invalid Blocks : 11
Heartbeat CPU 0 instructions: 330000000 cycles: 201149084 heartbeat IPC: 1.16636 cumulative IPC: 1.16669 (Simulation time: 1 hr 42 min 4 sec) 
 Total Blocks : 262144 Invalid Blocks : 6
Heartbeat CPU 0 instructions: 340000002 cycles: 209725919 heartbeat IPC: 1.16593 cumulative IPC: 1.16664 (Simulation time: 1 hr 45 min 55 sec) 
 Total Blocks : 262144 Invalid Blocks : 6
Heartbeat CPU 0 instructions: 350000001 cycles: 218299745 heartbeat IPC: 1.16634 cumulative IPC: 1.16662 (Simulation time: 1 hr 49 min 51 sec) 
 Total Blocks : 262144 Invalid Blocks : 3
Heartbeat CPU 0 instructions: 360000000 cycles: 226872569 heartbeat IPC: 1.16648 cumulative IPC: 1.16661 (Simulation time: 1 hr 53 min 52 sec) 
 Total Blocks : 262144 Invalid Blocks : 1
Heartbeat CPU 0 instructions: 370000000 cycles: 235447315 heartbeat IPC: 1.16622 cumulative IPC: 1.16659 (Simulation time: 1 hr 57 min 58 sec) 
 Total Blocks : 262144 Invalid Blocks : 1
Heartbeat CPU 0 instructions: 380000003 cycles: 244017384 heartbeat IPC: 1.16685 cumulative IPC: 1.1666 (Simulation time: 2 hr 2 min 9 sec) 
 Total Blocks : 262144 Invalid Blocks : 0
Heartbeat CPU 0 instructions: 390000003 cycles: 252589737 heartbeat IPC: 1.16654 cumulative IPC: 1.1666 (Simulation time: 2 hr 6 min 26 sec) 
 Total Blocks : 262144 Invalid Blocks : 0
Heartbeat CPU 0 instructions: 400000003 cycles: 261159488 heartbeat IPC: 1.1669 cumulative IPC: 1.16661 (Simulation time: 2 hr 10 min 45 sec) 
 Total Blocks : 262144 Invalid Blocks : 0
Finished CPU 0 instructions: 200000003 cycles: 171436458 cumulative IPC: 1.16661 (Simulation time: 2 hr 10 min 45 sec) 

CPU 0 Branch Prediction Accuracy: 99.9303% MPKI: 0.03501 Average ROB Occupancy at Mispredict: 340.608

ChampSim completed all CPUs

Region of Interest Statistics

CPU 0 cumulative IPC: 1.16661 instructions: 200000003 cycles: 171436458
ITLB TOTAL     ACCESS: 37209664  HIT: 37209664  MISS:     0  HIT %:   100  MISS %:     0  AVERAGE MISS PENALTY: 0
ITLB LOAD      ACCESS: 37209664  HIT: 37209664  MISS:     0  HIT %:   100  MISS %:     0  AVERAGE MISS PENALTY: 0
ITLB RFO       ACCESS:     0  HIT:     0  MISS:     0  HIT %:     0  MISS %:     0  AVERAGE MISS PENALTY: 0
ITLB PREFETCH  ACCESS:     0  HIT:     0  MISS:     0  HIT %:     0  MISS %:     0  AVERAGE MISS PENALTY: 0
ITLB WRITEBACK ACCESS:     0  HIT:     0  MISS:     0  HIT %:     0  MISS %:     0  AVERAGE MISS PENALTY: 0
ITLB PREFETCH  REQUESTED:     0  ISSUED:     0  USEFUL:     0  USELESS:     0
 USEFUL LOAD PREFETCHES:          0 PREFETCH ISSUED TO LOWER LEVEL:          0  ACCURACY: -nan
 TIMELY PREFETCHES:          0 LATE PREFETCHES: 0 DROPPED PREFETCHES: 0
ITLB AVERAGE MISS LATENCY: -nan cycles
DTLB TOTAL     ACCESS: 58792829  HIT: 58710166  MISS: 82663  HIT %: 99.8594  MISS %: 0.1406  AVERAGE MISS PENALTY: 188.413
DTLB LOAD      ACCESS: 52109032  HIT: 52026761  MISS: 82271  HIT %: 99.8421  MISS %: 0.157882  AVERAGE MISS PENALTY: 188.87
DTLB RFO       ACCESS: 6683797  HIT: 6683405  MISS:   392  HIT %: 99.9941  MISS %: 0.00586493  AVERAGE MISS PENALTY: 92.4158
DTLB PREFETCH  ACCESS:     0  HIT:     0  MISS:     0  HIT %:     0  MISS %:     0  AVERAGE MISS PENALTY: 0
DTLB WRITEBACK ACCESS:     0  HIT:     0  MISS:     0  HIT %:     0  MISS %:     0  AVERAGE MISS PENALTY: 0
DTLB PREFETCH  REQUESTED:     0  ISSUED:     0  USEFUL:     0  USELESS:     0
 USEFUL LOAD PREFETCHES:          0 PREFETCH ISSUED TO LOWER LEVEL:          0  ACCURACY: -nan
 TIMELY PREFETCHES:          0 LATE PREFETCHES: 0 DROPPED PREFETCHES: 0
DTLB AVERAGE MISS LATENCY: 188.413 cycles
STLB TOTAL     ACCESS: 82663  HIT: 16926  MISS: 65737  HIT %: 20.4759  MISS %: 79.5241  AVERAGE MISS PENALTY: 100
STLB LOAD      ACCESS: 82271  HIT: 16859  MISS: 65412  HIT %: 20.492  MISS %: 79.508  AVERAGE MISS PENALTY: 100
STLB RFO       ACCESS:   392  HIT:    67  MISS:   325  HIT %: 17.0918  MISS %: 82.9082  AVERAGE MISS PENALTY: 100
STLB PREFETCH  ACCESS:     0  HIT:     0  MISS:     0  HIT %:     0  MISS %:     0  AVERAGE MISS PENALTY: 0
STLB WRITEBACK ACCESS:     0  HIT:     0  MISS:     0  HIT %:     0  MISS %:     0  AVERAGE MISS PENALTY: 0
STLB PREFETCH  REQUESTED:     0  ISSUED:     0  USEFUL:     0  USELESS:     0
 USEFUL LOAD PREFETCHES:          0 PREFETCH ISSUED TO LOWER LEVEL:          0  ACCURACY: -nan
 TIMELY PREFETCHES:          0 LATE PREFETCHES: 0 DROPPED PREFETCHES: 0
STLB AVERAGE MISS LATENCY: 100 cycles
L1D TOTAL     ACCESS: 68145376  HIT: 65425599  MISS: 2719777  HIT %: 96.0089  MISS %: 3.99114  AVERAGE MISS PENALTY: 219002
L1D LOAD      ACCESS: 51128426  HIT: 50864107  MISS: 264319  HIT %: 99.483  MISS %: 0.516971  AVERAGE MISS PENALTY: 2.25316e+06
L1D RFO       ACCESS: 6703435  HIT: 6683399  MISS: 20036  HIT %: 99.7011  MISS %: 0.298892  AVERAGE MISS PENALTY: 208.039
L1D PREFETCH  ACCESS: 10313515  HIT: 7878093  MISS: 2435422  HIT %: 76.3861  MISS %: 23.6139  AVERAGE MISS PENALTY: 32.0101
L1D WRITEBACK ACCESS:     0  HIT:     0  MISS:     0  HIT %:     0  MISS %:     0  AVERAGE MISS PENALTY: 0
L1D PREFETCH  REQUESTED: 12290041  ISSUED: 10442007  USEFUL: 2333940  USELESS: 101483
 USEFUL LOAD PREFETCHES:    2333940 PREFETCH ISSUED TO LOWER LEVEL:    3885778  ACCURACY: 60.0636
 TIMELY PREFETCHES:    2333940 LATE PREFETCHES: 10168 DROPPED PREFETCHES: 1848034
L1D AVERAGE MISS LATENCY: 37.7059 cycles
L1I TOTAL     ACCESS: 47924609  HIT: 47924609  MISS:     0  HIT %:   100  MISS %:     0  AVERAGE MISS PENALTY: 0
L1I LOAD      ACCESS: 47924609  HIT: 47924609  MISS:     0  HIT %:   100  MISS %:     0  AVERAGE MISS PENALTY: 0
L1I RFO       ACCESS:     0  HIT:     0  MISS:     0  HIT %:     0  MISS %:     0  AVERAGE MISS PENALTY: 0
L1I PREFETCH  ACCESS:     0  HIT:     0  MISS:     0  HIT %:     0  MISS %:     0  AVERAGE MISS PENALTY: 0
L1I WRITEBACK ACCESS:     0  HIT:     0  MISS:     0  HIT %:     0  MISS %:     0  AVERAGE MISS PENALTY: 0
L1I PREFETCH  REQUESTED:     0  ISSUED:     0  USEFUL:     0  USELESS:     0
 USEFUL LOAD PREFETCHES:          0 PREFETCH ISSUED TO LOWER LEVEL:          0  ACCURACY: -nan
 TIMELY PREFETCHES:          0 LATE PREFETCHES: 0 DROPPED PREFETCHES: 0
L1I AVERAGE MISS LATENCY: -nan cycles
L2C TOTAL     ACCESS: 10708135  HIT: 7888385  MISS: 2819750  HIT %: 73.6672  MISS %: 26.3328  AVERAGE MISS PENALTY: 207341
L2C LOAD      ACCESS: 263900  HIT: 173207  MISS: 90693  HIT %: 65.6336  MISS %: 34.3664  AVERAGE MISS PENALTY: 6.44254e+06
L2C RFO       ACCESS: 20036  HIT:  1080  MISS: 18956  HIT %: 5.3903  MISS %: 94.6097  AVERAGE MISS PENALTY: 202.073
L2C PREFETCH  ACCESS: 10370624  HIT: 7670944  MISS: 2699680  HIT %: 73.968  MISS %: 26.032  AVERAGE MISS PENALTY: 130.134
L2C WRITEBACK ACCESS: 53575  HIT: 43154  MISS: 10421  HIT %: 80.5488  MISS %: 19.4512  AVERAGE MISS PENALTY: 0
L2C PREFETCH  REQUESTED: 10213930  ISSUED: 9959674  USEFUL: 167808  USELESS: 2532095
 USEFUL LOAD PREFETCHES:     167808 PREFETCH ISSUED TO LOWER LEVEL:    2799793  ACCURACY: 5.99359
 TIMELY PREFETCHES:     167808 LATE PREFETCHES: 9831 DROPPED PREFETCHES: 254256
L2C AVERAGE MISS LATENCY: 131.054 cycles
LLC0 TOTAL     ACCESS: 351585  HIT: 57318  MISS: 294267  HIT %: 16.3027  MISS %: 83.6973  AVERAGE MISS PENALTY: 111.725
LLC0 LOAD      ACCESS: 45122  HIT:  7180  MISS: 37942  HIT %: 15.9124  MISS %: 84.0876  AVERAGE MISS PENALTY: 131.824
LLC0 RFO       ACCESS:  2370  HIT:    17  MISS:  2353  HIT %: 0.7173  MISS %: 99.2827  AVERAGE MISS PENALTY: 157.066
LLC0 PREFETCH  ACCESS: 301389  HIT: 47634  MISS: 253755  HIT %: 15.8048  MISS %: 84.1952  AVERAGE MISS PENALTY: 108.395
LLC0 WRITEBACK ACCESS:  2704  HIT:  2487  MISS:   217  HIT %: 91.9749  MISS %: 8.02515  AVERAGE MISS PENALTY: 0
LLC0 PREFETCH  REQUESTED:     0  ISSUED:     0  USEFUL:    79  USELESS: 253199
 USEFUL LOAD PREFETCHES:         79 PREFETCH ISSUED TO LOWER LEVEL:     253755  ACCURACY: 0.0311324
 TIMELY PREFETCHES:         79 LATE PREFETCHES: 0 DROPPED PREFETCHES: 0
LLC0 AVERAGE MISS LATENCY: 111.725 cycles
Deadblocks : 37020 Deadblock percentage : 97.57

LLC1 TOTAL     ACCESS: 352369  HIT: 57519  MISS: 294850  HIT %: 16.3235  MISS %: 83.6765  AVERAGE MISS PENALTY: 114.068
LLC1 LOAD      ACCESS:  6267  HIT:  1158  MISS:  5109  HIT %: 18.4777  MISS %: 81.5223  AVERAGE MISS PENALTY: 161.73
LLC1 RFO       ACCESS:  2366  HIT:    15  MISS:  2351  HIT %: 0.633981  MISS %: 99.366  AVERAGE MISS PENALTY: 159.46
LLC1 PREFETCH  ACCESS: 340936  HIT: 53738  MISS: 287198  HIT %: 15.7619  MISS %: 84.2381  AVERAGE MISS PENALTY: 112.925
LLC1 WRITEBACK ACCESS:  2800  HIT:  2608  MISS:   192  HIT %: 93.1429  MISS %: 6.85714  AVERAGE MISS PENALTY: 0
LLC1 PREFETCH  REQUESTED:     0  ISSUED:     0  USEFUL:   106  USELESS: 286491
 USEFUL LOAD PREFETCHES:        106 PREFETCH ISSUED TO LOWER LEVEL:     287198  ACCURACY: 0.0369083
 TIMELY PREFETCHES:        106 LATE PREFETCHES: 0 DROPPED PREFETCHES: 0
LLC1 AVERAGE MISS LATENCY: 114.068 cycles
LLC2 TOTAL     ACCESS: 353060  HIT: 57504  MISS: 295556  HIT %: 16.2873  MISS %: 83.7127  AVERAGE MISS PENALTY: 114.115
LLC2 LOAD      ACCESS:  6071  HIT:  1080  MISS:  4991  HIT %: 17.7895  MISS %: 82.2105  AVERAGE MISS PENALTY: 163.271
LLC2 RFO       ACCESS:  2356  HIT:    14  MISS:  2342  HIT %: 0.594228  MISS %: 99.4058  AVERAGE MISS PENALTY: 163.587
LLC2 PREFETCH  ACCESS: 341943  HIT: 53934  MISS: 288009  HIT %: 15.7728  MISS %: 84.2272  AVERAGE MISS PENALTY: 112.945
LLC2 WRITEBACK ACCESS:  2690  HIT:  2476  MISS:   214  HIT %: 92.0446  MISS %: 7.95539  AVERAGE MISS PENALTY: 0
LLC2 PREFETCH  REQUESTED:     0  ISSUED:     0  USEFUL:    98  USELESS: 287326
 USEFUL LOAD PREFETCHES:         98 PREFETCH ISSUED TO LOWER LEVEL:     288009  ACCURACY: 0.0340267
 TIMELY PREFETCHES:         98 LATE PREFETCHES: 0 DROPPED PREFETCHES: 0
LLC2 AVERAGE MISS LATENCY: 114.115 cycles
LLC3 TOTAL     ACCESS: 353860  HIT: 57767  MISS: 296093  HIT %: 16.3248  MISS %: 83.6752  AVERAGE MISS PENALTY: 115.234
LLC3 LOAD      ACCESS:  6203  HIT:  1150  MISS:  5053  HIT %: 18.5394  MISS %: 81.4606  AVERAGE MISS PENALTY: 164.307
LLC3 RFO       ACCESS:  2352  HIT:    17  MISS:  2335  HIT %: 0.722789  MISS %: 99.2772  AVERAGE MISS PENALTY: 166.574
LLC3 PREFETCH  ACCESS: 342526  HIT: 54035  MISS: 288491  HIT %: 15.7754  MISS %: 84.2246  AVERAGE MISS PENALTY: 114.044
LLC3 WRITEBACK ACCESS:  2779  HIT:  2565  MISS:   214  HIT %: 92.2994  MISS %: 7.70061  AVERAGE MISS PENALTY: 0
LLC3 PREFETCH  REQUESTED:     0  ISSUED:     0  USEFUL:   115  USELESS: 287827
 USEFUL LOAD PREFETCHES:        115 PREFETCH ISSUED TO LOWER LEVEL:     288491  ACCURACY: 0.0398626
 TIMELY PREFETCHES:        115 LATE PREFETCHES: 0 DROPPED PREFETCHES: 0
LLC3 AVERAGE MISS LATENCY: 115.234 cycles
LLC4 TOTAL     ACCESS: 354310  HIT: 57829  MISS: 296481  HIT %: 16.3216  MISS %: 83.6784  AVERAGE MISS PENALTY: 116.286
LLC4 LOAD      ACCESS:  5938  HIT:   929  MISS:  5009  HIT %: 15.645  MISS %: 84.355  AVERAGE MISS PENALTY: 162.185
LLC4 RFO       ACCESS:  2348  HIT:    19  MISS:  2329  HIT %: 0.809199  MISS %: 99.1908  AVERAGE MISS PENALTY: 161.635
LLC4 PREFETCH  ACCESS: 343356  HIT: 54424  MISS: 288932  HIT %: 15.8506  MISS %: 84.1494  AVERAGE MISS PENALTY: 115.209
LLC4 WRITEBACK ACCESS:  2668  HIT:  2457  MISS:   211  HIT %: 92.0915  MISS %: 7.90855  AVERAGE MISS PENALTY: 0
LLC4 PREFETCH  REQUESTED:     0  ISSUED:     0  USEFUL:   109  USELESS: 288294
 USEFUL LOAD PREFETCHES:        109 PREFETCH ISSUED TO LOWER LEVEL:     288932  ACCURACY: 0.0377251
 TIMELY PREFETCHES:        109 LATE PREFETCHES: 0 DROPPED PREFETCHES: 0
LLC4 AVERAGE MISS LATENCY: 116.286 cycles
LLC5 TOTAL     ACCESS: 355021  HIT: 58068  MISS: 296953  HIT %: 16.3562  MISS %: 83.6438  AVERAGE MISS PENALTY: 117.348
LLC5 LOAD      ACCESS:  6095  HIT:  1084  MISS:  5011  HIT %: 17.7851  MISS %: 82.2149  AVERAGE MISS PENALTY: 164.183
LLC5 RFO       ACCESS:  2340  HIT:    20  MISS:  2320  HIT %: 0.854701  MISS %: 99.1453  AVERAGE MISS PENALTY: 161.242
LLC5 PREFETCH  ACCESS: 343744  HIT: 54329  MISS: 289415  HIT %: 15.8051  MISS %: 84.1949  AVERAGE MISS PENALTY: 116.269
LLC5 WRITEBACK ACCESS:  2842  HIT:  2635  MISS:   207  HIT %: 92.7164  MISS %: 7.2836  AVERAGE MISS PENALTY: 0
LLC5 PREFETCH  REQUESTED:     0  ISSUED:     0  USEFUL:    96  USELESS: 288723
 USEFUL LOAD PREFETCHES:         96 PREFETCH ISSUED TO LOWER LEVEL:     289415  ACCURACY: 0.0331704
 TIMELY PREFETCHES:         96 LATE PREFETCHES: 0 DROPPED PREFETCHES: 0
LLC5 AVERAGE MISS LATENCY: 117.348 cycles
LLC6 TOTAL     ACCESS: 355272  HIT: 57913  MISS: 297359  HIT %: 16.301  MISS %: 83.699  AVERAGE MISS PENALTY: 115.695
LLC6 LOAD      ACCESS:  5981  HIT:  1029  MISS:  4952  HIT %: 17.2045  MISS %: 82.7955  AVERAGE MISS PENALTY: 163.425
LLC6 RFO       ACCESS:  2334  HIT:    15  MISS:  2319  HIT %: 0.642674  MISS %: 99.3573  AVERAGE MISS PENALTY: 161.74
LLC6 PREFETCH  ACCESS: 344241  HIT: 54343  MISS: 289898  HIT %: 15.7863  MISS %: 84.2137  AVERAGE MISS PENALTY: 114.587
LLC6 WRITEBACK ACCESS:  2716  HIT:  2526  MISS:   190  HIT %: 93.0044  MISS %: 6.99558  AVERAGE MISS PENALTY: 0
LLC6 PREFETCH  REQUESTED:     0  ISSUED:     0  USEFUL:   124  USELESS: 289131
 USEFUL LOAD PREFETCHES:        124 PREFETCH ISSUED TO LOWER LEVEL:     289899  ACCURACY: 0.0427735
 TIMELY PREFETCHES:        124 LATE PREFETCHES: 0 DROPPED PREFETCHES: 0
LLC6 AVERAGE MISS LATENCY: 115.695 cycles
LLC7 TOTAL     ACCESS: 355998  HIT: 58354  MISS: 297644  HIT %: 16.3917  MISS %: 83.6083  AVERAGE MISS PENALTY: 113.286
LLC7 LOAD      ACCESS:  5910  HIT:   923  MISS:  4987  HIT %: 15.6176  MISS %: 84.3824  AVERAGE MISS PENALTY: 162.943
LLC7 RFO       ACCESS:  2490  HIT:   170  MISS:  2320  HIT %: 6.82731  MISS %: 93.1727  AVERAGE MISS PENALTY: 165.492
LLC7 PREFETCH  ACCESS: 344650  HIT: 54543  MISS: 290107  HIT %: 15.8256  MISS %: 84.1744  AVERAGE MISS PENALTY: 112.104
LLC7 WRITEBACK ACCESS:  2948  HIT:  2718  MISS:   230  HIT %: 92.1981  MISS %: 7.8019  AVERAGE MISS PENALTY: 0
LLC7 PREFETCH  REQUESTED:     0  ISSUED:     0  USEFUL:    97  USELESS: 289469
 USEFUL LOAD PREFETCHES:         97 PREFETCH ISSUED TO LOWER LEVEL:     290107  ACCURACY: 0.0334359
 TIMELY PREFETCHES:         97 LATE PREFETCHES: 0 DROPPED PREFETCHES: 0
LLC7 AVERAGE MISS LATENCY: 113.286 cycles
ROI Average ROB Stall Cycles:	7.60362
ROI Total ROB Stalls Cycles:	125235600
ROI TOTAL ROB counter      :	16470525
ROI Average Load ROB Stall Cycles:	9.19266
ROI Total Load ROB Stalls Cycle  :	31496035
ROI Total Load ROB stalls Counter:	3426217
Major fault: 0 Minor fault: 101916

