
*** ChampSim Multicore Out-of-Order Simulator ***

Warmup Instructions: 200000000
Simulation Instructions: 200000000
Number of CPUs: 1
threads:1

L1I Configuration:
L1I_SET:64
L1I_WAY:8
L1I_RQ_SIZE:64
L1I_WQ_SIZE:64
L1I_PQ_SIZE:8
L1I_MSHR_SIZE:8

L1D Configuration:
L1D_SET:64
L1D_WAY:12
L1D_RQ_SIZE:64
L1D_WQ_SIZE:64
L1D_PQ_SIZE:8
L1D_MSHR_SIZE:16

L2C Configuration:
L2C_SET:1024
L2C_WAY:8
L2C_RQ_SIZE:32
L2C_WQ_SIZE:32
L2C_PQ_SIZE:16
L2C_MSHR_SIZE:32

LLC Configuration:
LLC_SET:2048
LLC_WAY:16
LLC SLICES:8
LLC_RQ_SIZE:64
LLC_WQ_SIZE:64
LLC_PQ_SIZE:32
LLC_MSHR_SIZE:64

Interconnect OFF
Attacker deprioritize is: OFF
Off-chip DRAM Size: 4096 MB Channels: 1 Width: 64-bit Data Rate: 3200 MT/s
PAGE SIZE in KB: 4.000000 
PAGE SIZE in MB: 0.003906 
PAGE offset in bits: 12 
CEASER-S_LLC:0
MIRAGE : 1
CEASER_LATENCY:3
REMAP : OFF
Partitions : 1
Multi-Step : OFF
BFS : OFF

CPU 0 runs /home/anubhav/spec_2017/654.roms_s-294B.champsimtrace.xz
CPU 0 Bimodal branch predictor
Initialize Hawkeye state
Initialize Hawkeye state
Initialize Hawkeye state
Initialize Hawkeye state
Initialize Hawkeye state
Initialize Hawkeye state
Initialize Hawkeye state
Initialize Hawkeye state
Heartbeat CPU 0 instructions: 10000000 cycles: 4652024 heartbeat IPC: 2.1496 cumulative IPC: 2.1496 (Simulation time: 0 hr 2 min 3 sec) 
 Total Blocks : 262144 Invalid Blocks : 164829
Heartbeat CPU 0 instructions: 20000003 cycles: 9303748 heartbeat IPC: 2.14974 cumulative IPC: 2.14967 (Simulation time: 0 hr 4 min 21 sec) 
 Total Blocks : 262144 Invalid Blocks : 104596
Heartbeat CPU 0 instructions: 30000002 cycles: 13955471 heartbeat IPC: 2.14974 cumulative IPC: 2.14969 (Simulation time: 0 hr 6 min 43 sec) 
 Total Blocks : 262144 Invalid Blocks : 66532
Heartbeat CPU 0 instructions: 40000000 cycles: 18607159 heartbeat IPC: 2.14976 cumulative IPC: 2.14971 (Simulation time: 0 hr 9 min 16 sec) 
 Total Blocks : 262144 Invalid Blocks : 42197
Heartbeat CPU 0 instructions: 50000001 cycles: 23258603 heartbeat IPC: 2.14987 cumulative IPC: 2.14974 (Simulation time: 0 hr 11 min 43 sec) 
 Total Blocks : 262144 Invalid Blocks : 26835
Heartbeat CPU 0 instructions: 60000000 cycles: 27911468 heartbeat IPC: 2.14921 cumulative IPC: 2.14965 (Simulation time: 0 hr 14 min 19 sec) 
 Total Blocks : 262144 Invalid Blocks : 17012
Heartbeat CPU 0 instructions: 70000000 cycles: 32562984 heartbeat IPC: 2.14984 cumulative IPC: 2.14968 (Simulation time: 0 hr 17 min 7 sec) 
 Total Blocks : 262144 Invalid Blocks : 10734
Heartbeat CPU 0 instructions: 80000001 cycles: 37214403 heartbeat IPC: 2.14988 cumulative IPC: 2.14971 (Simulation time: 0 hr 19 min 52 sec) 
 Total Blocks : 262144 Invalid Blocks : 6762
Heartbeat CPU 0 instructions: 90000000 cycles: 41865774 heartbeat IPC: 2.1499 cumulative IPC: 2.14973 (Simulation time: 0 hr 22 min 49 sec) 
 Total Blocks : 262144 Invalid Blocks : 4319
Heartbeat CPU 0 instructions: 100000003 cycles: 46517235 heartbeat IPC: 2.14986 cumulative IPC: 2.14974 (Simulation time: 0 hr 25 min 46 sec) 
 Total Blocks : 262144 Invalid Blocks : 2799
Heartbeat CPU 0 instructions: 110000000 cycles: 51168070 heartbeat IPC: 2.15015 cumulative IPC: 2.14978 (Simulation time: 0 hr 28 min 56 sec) 
 Total Blocks : 262144 Invalid Blocks : 1831
Heartbeat CPU 0 instructions: 120000001 cycles: 55819562 heartbeat IPC: 2.14985 cumulative IPC: 2.14978 (Simulation time: 0 hr 32 min 26 sec) 
 Total Blocks : 262144 Invalid Blocks : 1138
Heartbeat CPU 0 instructions: 130000000 cycles: 60471003 heartbeat IPC: 2.14987 cumulative IPC: 2.14979 (Simulation time: 0 hr 36 min 13 sec) 
 Total Blocks : 262144 Invalid Blocks : 725
Heartbeat CPU 0 instructions: 140000003 cycles: 65122436 heartbeat IPC: 2.14988 cumulative IPC: 2.1498 (Simulation time: 0 hr 40 min 5 sec) 
 Total Blocks : 262144 Invalid Blocks : 447
Heartbeat CPU 0 instructions: 150000003 cycles: 69773727 heartbeat IPC: 2.14994 cumulative IPC: 2.14981 (Simulation time: 0 hr 44 min 4 sec) 
 Total Blocks : 262144 Invalid Blocks : 275
Heartbeat CPU 0 instructions: 160000002 cycles: 74425198 heartbeat IPC: 2.14986 cumulative IPC: 2.14981 (Simulation time: 0 hr 47 min 53 sec) 
 Total Blocks : 262144 Invalid Blocks : 176
Heartbeat CPU 0 instructions: 170000003 cycles: 79076419 heartbeat IPC: 2.14997 cumulative IPC: 2.14982 (Simulation time: 0 hr 51 min 42 sec) 
 Total Blocks : 262144 Invalid Blocks : 113
Heartbeat CPU 0 instructions: 180000003 cycles: 83727711 heartbeat IPC: 2.14994 cumulative IPC: 2.14983 (Simulation time: 0 hr 55 min 37 sec) 
 Total Blocks : 262144 Invalid Blocks : 71
Heartbeat CPU 0 instructions: 190000001 cycles: 88379062 heartbeat IPC: 2.14991 cumulative IPC: 2.14983 (Simulation time: 0 hr 59 min 38 sec) 
 Total Blocks : 262144 Invalid Blocks : 45
Heartbeat CPU 0 instructions: 200000001 cycles: 93030650 heartbeat IPC: 2.1498 cumulative IPC: 2.14983 (Simulation time: 1 hr 3 min 46 sec) 
 Total Blocks : 262144 Invalid Blocks : 31

Warmup complete CPU 0 instructions: 200000001 cycles: 93030650 (Simulation time: 1 hr 3 min 46 sec) 

Heartbeat CPU 0 instructions: 210000000 cycles: 101577756 heartbeat IPC: 1.16999 cumulative IPC: 1.16999 (Simulation time: 1 hr 8 min 38 sec) 
 Total Blocks : 262144 Invalid Blocks : 20
Heartbeat CPU 0 instructions: 220000000 cycles: 110125461 heartbeat IPC: 1.1699 cumulative IPC: 1.16995 (Simulation time: 1 hr 13 min 14 sec) 
 Total Blocks : 262144 Invalid Blocks : 13
Heartbeat CPU 0 instructions: 230000001 cycles: 118672764 heartbeat IPC: 1.16996 cumulative IPC: 1.16995 (Simulation time: 1 hr 18 min 8 sec) 
 Total Blocks : 262144 Invalid Blocks : 5
Heartbeat CPU 0 instructions: 240000001 cycles: 127219481 heartbeat IPC: 1.17004 cumulative IPC: 1.16997 (Simulation time: 1 hr 22 min 32 sec) 
 Total Blocks : 262144 Invalid Blocks : 3
Heartbeat CPU 0 instructions: 250000003 cycles: 135761154 heartbeat IPC: 1.17073 cumulative IPC: 1.17012 (Simulation time: 1 hr 28 min 22 sec) 
 Total Blocks : 262144 Invalid Blocks : 1
Heartbeat CPU 0 instructions: 260000000 cycles: 144307254 heartbeat IPC: 1.17012 cumulative IPC: 1.17012 (Simulation time: 1 hr 33 min 23 sec) 
 Total Blocks : 262144 Invalid Blocks : 1
Heartbeat CPU 0 instructions: 270000000 cycles: 152849579 heartbeat IPC: 1.17064 cumulative IPC: 1.1702 (Simulation time: 1 hr 38 min 38 sec) 
 Total Blocks : 262144 Invalid Blocks : 1
Heartbeat CPU 0 instructions: 280000000 cycles: 161391266 heartbeat IPC: 1.17073 cumulative IPC: 1.17026 (Simulation time: 1 hr 42 min 45 sec) 
 Total Blocks : 262144 Invalid Blocks : 1
Heartbeat CPU 0 instructions: 290000002 cycles: 169931203 heartbeat IPC: 1.17097 cumulative IPC: 1.17034 (Simulation time: 1 hr 46 min 56 sec) 
 Total Blocks : 262144 Invalid Blocks : 0
Heartbeat CPU 0 instructions: 300000001 cycles: 178474585 heartbeat IPC: 1.1705 cumulative IPC: 1.17036 (Simulation time: 1 hr 51 min 14 sec) 
 Total Blocks : 262144 Invalid Blocks : 0
Heartbeat CPU 0 instructions: 310000002 cycles: 187021747 heartbeat IPC: 1.16998 cumulative IPC: 1.17032 (Simulation time: 1 hr 55 min 35 sec) 
 Total Blocks : 262144 Invalid Blocks : 0
Heartbeat CPU 0 instructions: 320000000 cycles: 195568122 heartbeat IPC: 1.17009 cumulative IPC: 1.1703 (Simulation time: 2 hr 0 min 2 sec) 
 Total Blocks : 262144 Invalid Blocks : 0
Heartbeat CPU 0 instructions: 330000000 cycles: 204112075 heartbeat IPC: 1.17042 cumulative IPC: 1.17031 (Simulation time: 2 hr 4 min 33 sec) 
 Total Blocks : 262144 Invalid Blocks : 0
Heartbeat CPU 0 instructions: 340000000 cycles: 212654331 heartbeat IPC: 1.17065 cumulative IPC: 1.17034 (Simulation time: 2 hr 9 min 7 sec) 
 Total Blocks : 262144 Invalid Blocks : 0
Heartbeat CPU 0 instructions: 350000001 cycles: 221197075 heartbeat IPC: 1.17058 cumulative IPC: 1.17035 (Simulation time: 2 hr 13 min 36 sec) 
 Total Blocks : 262144 Invalid Blocks : 0
Heartbeat CPU 0 instructions: 360000001 cycles: 229738276 heartbeat IPC: 1.1708 cumulative IPC: 1.17038 (Simulation time: 2 hr 18 min 1 sec) 
 Total Blocks : 262144 Invalid Blocks : 0
Heartbeat CPU 0 instructions: 370000001 cycles: 238279478 heartbeat IPC: 1.1708 cumulative IPC: 1.17041 (Simulation time: 2 hr 22 min 31 sec) 
 Total Blocks : 262144 Invalid Blocks : 0
Heartbeat CPU 0 instructions: 380000001 cycles: 246817352 heartbeat IPC: 1.17125 cumulative IPC: 1.17045 (Simulation time: 2 hr 27 min 1 sec) 
 Total Blocks : 262144 Invalid Blocks : 0
Heartbeat CPU 0 instructions: 390000001 cycles: 255353573 heartbeat IPC: 1.17148 cumulative IPC: 1.17051 (Simulation time: 2 hr 31 min 36 sec) 
 Total Blocks : 262144 Invalid Blocks : 0
Heartbeat CPU 0 instructions: 400000000 cycles: 263893861 heartbeat IPC: 1.17092 cumulative IPC: 1.17053 (Simulation time: 2 hr 36 min 5 sec) 
 Total Blocks : 262144 Invalid Blocks : 0
Finished CPU 0 instructions: 200000003 cycles: 170863212 cumulative IPC: 1.17053 (Simulation time: 2 hr 36 min 5 sec) 

CPU 0 Branch Prediction Accuracy: 99.93% MPKI: 0.03515 Average ROB Occupancy at Mispredict: 339.886

ChampSim completed all CPUs

Region of Interest Statistics

CPU 0 cumulative IPC: 1.17053 instructions: 200000003 cycles: 170863212
ITLB TOTAL     ACCESS: 37045845  HIT: 37045845  MISS:     0  HIT %:   100  MISS %:     0  AVERAGE MISS PENALTY: 0
ITLB LOAD      ACCESS: 37045845  HIT: 37045845  MISS:     0  HIT %:   100  MISS %:     0  AVERAGE MISS PENALTY: 0
ITLB RFO       ACCESS:     0  HIT:     0  MISS:     0  HIT %:     0  MISS %:     0  AVERAGE MISS PENALTY: 0
ITLB PREFETCH  ACCESS:     0  HIT:     0  MISS:     0  HIT %:     0  MISS %:     0  AVERAGE MISS PENALTY: 0
ITLB WRITEBACK ACCESS:     0  HIT:     0  MISS:     0  HIT %:     0  MISS %:     0  AVERAGE MISS PENALTY: 0
ITLB PREFETCH  REQUESTED:     0  ISSUED:     0  USEFUL:     0  USELESS:     0
 USEFUL LOAD PREFETCHES:          0 PREFETCH ISSUED TO LOWER LEVEL:          0  ACCURACY: -nan
 TIMELY PREFETCHES:          0 LATE PREFETCHES: 0 DROPPED PREFETCHES: 0
ITLB AVERAGE MISS LATENCY: -nan cycles
DTLB TOTAL     ACCESS: 58141278  HIT: 58058681  MISS: 82597  HIT %: 99.8579  MISS %: 0.142063  AVERAGE MISS PENALTY: 187.756
DTLB LOAD      ACCESS: 51457131  HIT: 51374910  MISS: 82221  HIT %: 99.8402  MISS %: 0.159785  AVERAGE MISS PENALTY: 188.174
DTLB RFO       ACCESS: 6684147  HIT: 6683771  MISS:   376  HIT %: 99.9944  MISS %: 0.00562525  AVERAGE MISS PENALTY: 96.4973
DTLB PREFETCH  ACCESS:     0  HIT:     0  MISS:     0  HIT %:     0  MISS %:     0  AVERAGE MISS PENALTY: 0
DTLB WRITEBACK ACCESS:     0  HIT:     0  MISS:     0  HIT %:     0  MISS %:     0  AVERAGE MISS PENALTY: 0
DTLB PREFETCH  REQUESTED:     0  ISSUED:     0  USEFUL:     0  USELESS:     0
 USEFUL LOAD PREFETCHES:          0 PREFETCH ISSUED TO LOWER LEVEL:          0  ACCURACY: -nan
 TIMELY PREFETCHES:          0 LATE PREFETCHES: 0 DROPPED PREFETCHES: 0
DTLB AVERAGE MISS LATENCY: 187.756 cycles
STLB TOTAL     ACCESS: 82597  HIT: 16836  MISS: 65761  HIT %: 20.3833  MISS %: 79.6167  AVERAGE MISS PENALTY: 100
STLB LOAD      ACCESS: 82221  HIT: 16787  MISS: 65434  HIT %: 20.4169  MISS %: 79.5831  AVERAGE MISS PENALTY: 100
STLB RFO       ACCESS:   376  HIT:    49  MISS:   327  HIT %: 13.0319  MISS %: 86.9681  AVERAGE MISS PENALTY: 100
STLB PREFETCH  ACCESS:     0  HIT:     0  MISS:     0  HIT %:     0  MISS %:     0  AVERAGE MISS PENALTY: 0
STLB WRITEBACK ACCESS:     0  HIT:     0  MISS:     0  HIT %:     0  MISS %:     0  AVERAGE MISS PENALTY: 0
STLB PREFETCH  REQUESTED:     0  ISSUED:     0  USEFUL:     0  USELESS:     0
 USEFUL LOAD PREFETCHES:          0 PREFETCH ISSUED TO LOWER LEVEL:          0  ACCURACY: -nan
 TIMELY PREFETCHES:          0 LATE PREFETCHES: 0 DROPPED PREFETCHES: 0
STLB AVERAGE MISS LATENCY: 100 cycles
L1D TOTAL     ACCESS: 67362277  HIT: 64639092  MISS: 2723185  HIT %: 95.9574  MISS %: 4.0426  AVERAGE MISS PENALTY: 213562
L1D LOAD      ACCESS: 50326417  HIT: 50062777  MISS: 263640  HIT %: 99.4761  MISS %: 0.52386  AVERAGE MISS PENALTY: 2.20561e+06
L1D RFO       ACCESS: 6703438  HIT: 6683279  MISS: 20159  HIT %: 99.6993  MISS %: 0.300726  AVERAGE MISS PENALTY: 193.568
L1D PREFETCH  ACCESS: 10332422  HIT: 7893036  MISS: 2439386  HIT %: 76.391  MISS %: 23.609  AVERAGE MISS PENALTY: 31.9754
L1D WRITEBACK ACCESS:     0  HIT:     0  MISS:     0  HIT %:     0  MISS %:     0  AVERAGE MISS PENALTY: 0
L1D PREFETCH  REQUESTED: 12289727  ISSUED: 10433838  USEFUL: 2337182  USELESS: 102218
 USEFUL LOAD PREFETCHES:    2337182 PREFETCH ISSUED TO LOWER LEVEL:    3724461  ACCURACY: 62.7522
 TIMELY PREFETCHES:    2337182 LATE PREFETCHES: 10328 DROPPED PREFETCHES: 1855889
L1D AVERAGE MISS LATENCY: 37.3819 cycles
L1I TOTAL     ACCESS: 47671624  HIT: 47671624  MISS:     0  HIT %:   100  MISS %:     0  AVERAGE MISS PENALTY: 0
L1I LOAD      ACCESS: 47671624  HIT: 47671624  MISS:     0  HIT %:   100  MISS %:     0  AVERAGE MISS PENALTY: 0
L1I RFO       ACCESS:     0  HIT:     0  MISS:     0  HIT %:     0  MISS %:     0  AVERAGE MISS PENALTY: 0
L1I PREFETCH  ACCESS:     0  HIT:     0  MISS:     0  HIT %:     0  MISS %:     0  AVERAGE MISS PENALTY: 0
L1I WRITEBACK ACCESS:     0  HIT:     0  MISS:     0  HIT %:     0  MISS %:     0  AVERAGE MISS PENALTY: 0
L1I PREFETCH  REQUESTED:     0  ISSUED:     0  USEFUL:     0  USELESS:     0
 USEFUL LOAD PREFETCHES:          0 PREFETCH ISSUED TO LOWER LEVEL:          0  ACCURACY: -nan
 TIMELY PREFETCHES:          0 LATE PREFETCHES: 0 DROPPED PREFETCHES: 0
L1I AVERAGE MISS LATENCY: -nan cycles
L2C TOTAL     ACCESS: 10831670  HIT: 8010263  MISS: 2821407  HIT %: 73.9522  MISS %: 26.0478  AVERAGE MISS PENALTY: 204048
L2C LOAD      ACCESS: 263141  HIT: 172451  MISS: 90690  HIT %: 65.5356  MISS %: 34.4644  AVERAGE MISS PENALTY: 6.34415e+06
L2C RFO       ACCESS: 20159  HIT:  1110  MISS: 19049  HIT %: 5.50623  MISS %: 94.4938  AVERAGE MISS PENALTY: 185.771
L2C PREFETCH  ACCESS: 10493330  HIT: 7792074  MISS: 2701256  HIT %: 74.2574  MISS %: 25.7426  AVERAGE MISS PENALTY: 128.366
L2C WRITEBACK ACCESS: 55040  HIT: 44628  MISS: 10412  HIT %: 81.0828  MISS %: 18.9172  AVERAGE MISS PENALTY: 0
L2C PREFETCH  REQUESTED: 10230180  ISSUED: 9999599  USEFUL: 166577  USELESS: 2535062
 USEFUL LOAD PREFETCHES:     166577 PREFETCH ISSUED TO LOWER LEVEL:    2848114  ACCURACY: 5.84868
 TIMELY PREFETCHES:     166577 LATE PREFETCHES: 10528 DROPPED PREFETCHES: 230581
L2C AVERAGE MISS LATENCY: 129.167 cycles
LLC0 TOTAL     ACCESS: 351852  HIT: 57484  MISS: 294368  HIT %: 16.3376  MISS %: 83.6624  AVERAGE MISS PENALTY: 109.19
LLC0 LOAD      ACCESS: 45141  HIT:  7238  MISS: 37903  HIT %: 16.0342  MISS %: 83.9658  AVERAGE MISS PENALTY: 130.706
LLC0 RFO       ACCESS:  2375  HIT:     6  MISS:  2369  HIT %: 0.252632  MISS %: 99.7474  AVERAGE MISS PENALTY: 136.324
LLC0 PREFETCH  ACCESS: 301648  HIT: 47739  MISS: 253909  HIT %: 15.8261  MISS %: 84.1739  AVERAGE MISS PENALTY: 105.805
LLC0 WRITEBACK ACCESS:  2688  HIT:  2501  MISS:   187  HIT %: 93.0432  MISS %: 6.95685  AVERAGE MISS PENALTY: 0
LLC0 PREFETCH  REQUESTED:     0  ISSUED:     0  USEFUL:   129  USELESS: 253981
 USEFUL LOAD PREFETCHES:        129 PREFETCH ISSUED TO LOWER LEVEL:     253909  ACCURACY: 0.0508056
 TIMELY PREFETCHES:        129 LATE PREFETCHES: 0 DROPPED PREFETCHES: 0
LLC0 AVERAGE MISS LATENCY: 109.19 cycles
Deadblocks : 37023 Deadblock percentage : 97.6783

LLC1 TOTAL     ACCESS: 352664  HIT: 57615  MISS: 295049  HIT %: 16.3371  MISS %: 83.6629  AVERAGE MISS PENALTY: 111.509
LLC1 LOAD      ACCESS:  6179  HIT:  1011  MISS:  5168  HIT %: 16.3619  MISS %: 83.6381  AVERAGE MISS PENALTY: 152.426
LLC1 RFO       ACCESS:  2369  HIT:     5  MISS:  2364  HIT %: 0.21106  MISS %: 99.7889  AVERAGE MISS PENALTY: 139.551
LLC1 PREFETCH  ACCESS: 341227  HIT: 53926  MISS: 287301  HIT %: 15.8036  MISS %: 84.1964  AVERAGE MISS PENALTY: 110.626
LLC1 WRITEBACK ACCESS:  2889  HIT:  2673  MISS:   216  HIT %: 92.5234  MISS %: 7.47664  AVERAGE MISS PENALTY: 0
LLC1 PREFETCH  REQUESTED:     0  ISSUED:     0  USEFUL:    80  USELESS: 287315
 USEFUL LOAD PREFETCHES:         80 PREFETCH ISSUED TO LOWER LEVEL:     287301  ACCURACY: 0.0278454
 TIMELY PREFETCHES:         80 LATE PREFETCHES: 0 DROPPED PREFETCHES: 0
LLC1 AVERAGE MISS LATENCY: 111.509 cycles
LLC2 TOTAL     ACCESS: 353478  HIT: 57915  MISS: 295563  HIT %: 16.3843  MISS %: 83.6157  AVERAGE MISS PENALTY: 111.676
LLC2 LOAD      ACCESS:  6117  HIT:  1095  MISS:  5022  HIT %: 17.9009  MISS %: 82.0991  AVERAGE MISS PENALTY: 152.226
LLC2 RFO       ACCESS:  2529  HIT:   163  MISS:  2366  HIT %: 6.44524  MISS %: 93.5548  AVERAGE MISS PENALTY: 146.467
LLC2 PREFETCH  ACCESS: 341940  HIT: 53989  MISS: 287951  HIT %: 15.789  MISS %: 84.211  AVERAGE MISS PENALTY: 110.77
LLC2 WRITEBACK ACCESS:  2892  HIT:  2668  MISS:   224  HIT %: 92.2545  MISS %: 7.7455  AVERAGE MISS PENALTY: 0
LLC2 PREFETCH  REQUESTED:     0  ISSUED:     0  USEFUL:   121  USELESS: 287903
 USEFUL LOAD PREFETCHES:        121 PREFETCH ISSUED TO LOWER LEVEL:     287951  ACCURACY: 0.042021
 TIMELY PREFETCHES:        121 LATE PREFETCHES: 0 DROPPED PREFETCHES: 0
LLC2 AVERAGE MISS LATENCY: 111.676 cycles
LLC3 TOTAL     ACCESS: 354018  HIT: 57852  MISS: 296166  HIT %: 16.3415  MISS %: 83.6585  AVERAGE MISS PENALTY: 112.523
LLC3 LOAD      ACCESS:  6097  HIT:  1062  MISS:  5035  HIT %: 17.4184  MISS %: 82.5816  AVERAGE MISS PENALTY: 153.179
LLC3 RFO       ACCESS:  2363  HIT:     7  MISS:  2356  HIT %: 0.296234  MISS %: 99.7038  AVERAGE MISS PENALTY: 145.181
LLC3 PREFETCH  ACCESS: 342627  HIT: 54058  MISS: 288569  HIT %: 15.7775  MISS %: 84.2225  AVERAGE MISS PENALTY: 111.627
LLC3 WRITEBACK ACCESS:  2931  HIT:  2725  MISS:   206  HIT %: 92.9717  MISS %: 7.02832  AVERAGE MISS PENALTY: 0
LLC3 PREFETCH  REQUESTED:     0  ISSUED:     0  USEFUL:   106  USELESS: 288524
 USEFUL LOAD PREFETCHES:        106 PREFETCH ISSUED TO LOWER LEVEL:     288569  ACCURACY: 0.036733
 TIMELY PREFETCHES:        106 LATE PREFETCHES: 0 DROPPED PREFETCHES: 0
LLC3 AVERAGE MISS LATENCY: 112.523 cycles
LLC4 TOTAL     ACCESS: 354543  HIT: 57852  MISS: 296691  HIT %: 16.3173  MISS %: 83.6827  AVERAGE MISS PENALTY: 114.058
LLC4 LOAD      ACCESS:  6106  HIT:  1098  MISS:  5008  HIT %: 17.9823  MISS %: 82.0177  AVERAGE MISS PENALTY: 158.248
LLC4 RFO       ACCESS:  2359  HIT:    10  MISS:  2349  HIT %: 0.423908  MISS %: 99.5761  AVERAGE MISS PENALTY: 144.32
LLC4 PREFETCH  ACCESS: 343359  HIT: 54209  MISS: 289150  HIT %: 15.7878  MISS %: 84.2122  AVERAGE MISS PENALTY: 113.12
LLC4 WRITEBACK ACCESS:  2719  HIT:  2535  MISS:   184  HIT %: 93.2328  MISS %: 6.76719  AVERAGE MISS PENALTY: 0
LLC4 PREFETCH  REQUESTED:     0  ISSUED:     0  USEFUL:   102  USELESS: 289106
 USEFUL LOAD PREFETCHES:        102 PREFETCH ISSUED TO LOWER LEVEL:     289150  ACCURACY: 0.0352758
 TIMELY PREFETCHES:        102 LATE PREFETCHES: 0 DROPPED PREFETCHES: 0
LLC4 AVERAGE MISS LATENCY: 114.058 cycles
LLC5 TOTAL     ACCESS: 355077  HIT: 57976  MISS: 297101  HIT %: 16.3277  MISS %: 83.6723  AVERAGE MISS PENALTY: 115.432
LLC5 LOAD      ACCESS:  6133  HIT:  1123  MISS:  5010  HIT %: 18.3108  MISS %: 81.6892  AVERAGE MISS PENALTY: 161.536
LLC5 RFO       ACCESS:  2353  HIT:     9  MISS:  2344  HIT %: 0.38249  MISS %: 99.6175  AVERAGE MISS PENALTY: 145.923
LLC5 PREFETCH  ACCESS: 343828  HIT: 54304  MISS: 289524  HIT %: 15.7939  MISS %: 84.2061  AVERAGE MISS PENALTY: 114.477
LLC5 WRITEBACK ACCESS:  2763  HIT:  2540  MISS:   223  HIT %: 91.9291  MISS %: 8.07094  AVERAGE MISS PENALTY: 0
LLC5 PREFETCH  REQUESTED:     0  ISSUED:     0  USEFUL:   123  USELESS: 289432
 USEFUL LOAD PREFETCHES:        123 PREFETCH ISSUED TO LOWER LEVEL:     289524  ACCURACY: 0.0424835
 TIMELY PREFETCHES:        123 LATE PREFETCHES: 0 DROPPED PREFETCHES: 0
LLC5 AVERAGE MISS LATENCY: 115.432 cycles
LLC6 TOTAL     ACCESS: 355657  HIT: 58003  MISS: 297654  HIT %: 16.3087  MISS %: 83.6913  AVERAGE MISS PENALTY: 113.876
LLC6 LOAD      ACCESS:  6022  HIT:  1072  MISS:  4950  HIT %: 17.8014  MISS %: 82.1986  AVERAGE MISS PENALTY: 160.578
LLC6 RFO       ACCESS:  2356  HIT:    16  MISS:  2340  HIT %: 0.679117  MISS %: 99.3209  AVERAGE MISS PENALTY: 147.115
LLC6 PREFETCH  ACCESS: 344573  HIT: 54422  MISS: 290151  HIT %: 15.794  MISS %: 84.206  AVERAGE MISS PENALTY: 112.894
LLC6 WRITEBACK ACCESS:  2706  HIT:  2493  MISS:   213  HIT %: 92.1286  MISS %: 7.8714  AVERAGE MISS PENALTY: 0
LLC6 PREFETCH  REQUESTED:     0  ISSUED:     0  USEFUL:   113  USELESS: 290027
 USEFUL LOAD PREFETCHES:        113 PREFETCH ISSUED TO LOWER LEVEL:     290151  ACCURACY: 0.0389452
 TIMELY PREFETCHES:        113 LATE PREFETCHES: 0 DROPPED PREFETCHES: 0
LLC6 AVERAGE MISS LATENCY: 113.876 cycles
LLC7 TOTAL     ACCESS: 356000  HIT: 58154  MISS: 297846  HIT %: 16.3354  MISS %: 83.6646  AVERAGE MISS PENALTY: 111.595
LLC7 LOAD      ACCESS:  5921  HIT:   940  MISS:  4981  HIT %: 15.8757  MISS %: 84.1243  AVERAGE MISS PENALTY: 160.923
LLC7 RFO       ACCESS:  2345  HIT:    11  MISS:  2334  HIT %: 0.469083  MISS %: 99.5309  AVERAGE MISS PENALTY: 151.333
LLC7 PREFETCH  ACCESS: 345027  HIT: 54676  MISS: 290351  HIT %: 15.8469  MISS %: 84.1531  AVERAGE MISS PENALTY: 110.498
LLC7 WRITEBACK ACCESS:  2707  HIT:  2527  MISS:   180  HIT %: 93.3506  MISS %: 6.64943  AVERAGE MISS PENALTY: 0
LLC7 PREFETCH  REQUESTED:     0  ISSUED:     0  USEFUL:   112  USELESS: 290277
 USEFUL LOAD PREFETCHES:        112 PREFETCH ISSUED TO LOWER LEVEL:     290351  ACCURACY: 0.038574
 TIMELY PREFETCHES:        112 LATE PREFETCHES: 0 DROPPED PREFETCHES: 0
LLC7 AVERAGE MISS LATENCY: 111.595 cycles
ROI Average ROB Stall Cycles:	7.64413
ROI Total ROB Stalls Cycles:	124836410
ROI TOTAL ROB counter      :	16331013
ROI Average Load ROB Stall Cycles:	10.1636
ROI Total Load ROB Stalls Cycle  :	30743876
ROI Total Load ROB stalls Counter:	3024911
Major fault: 0 Minor fault: 131518

