
*** ChampSim Multicore Out-of-Order Simulator ***

Warmup Instructions: 200000000
Simulation Instructions: 200000000
Number of CPUs: 1
threads:1

L1I Configuration:
L1I_SET:64
L1I_WAY:8
L1I_RQ_SIZE:64
L1I_WQ_SIZE:64
L1I_PQ_SIZE:8
L1I_MSHR_SIZE:8

L1D Configuration:
L1D_SET:64
L1D_WAY:12
L1D_RQ_SIZE:64
L1D_WQ_SIZE:64
L1D_PQ_SIZE:8
L1D_MSHR_SIZE:16

L2C Configuration:
L2C_SET:1024
L2C_WAY:8
L2C_RQ_SIZE:32
L2C_WQ_SIZE:32
L2C_PQ_SIZE:16
L2C_MSHR_SIZE:32

LLC Configuration:
LLC_SET:2048
LLC_WAY:16
LLC SLICES:8
LLC_RQ_SIZE:64
LLC_WQ_SIZE:64
LLC_PQ_SIZE:32
LLC_MSHR_SIZE:64

Interconnect OFF
Attacker deprioritize is: OFF
Off-chip DRAM Size: 4096 MB Channels: 1 Width: 64-bit Data Rate: 3200 MT/s
PAGE SIZE in KB: 4.000000 
PAGE SIZE in MB: 0.003906 
PAGE offset in bits: 12 
CEASER-S_LLC:0
MIRAGE : 1
CEASER_LATENCY:3
REMAP : OFF
Partitions : 1
Multi-Step : OFF
BFS : OFF

CPU 0 runs /home/anubhav/spec_2017/654.roms_s-1390B.champsimtrace.xz
CPU 0 Bimodal branch predictor
Initialize Hawkeye state
Initialize Hawkeye state
Initialize Hawkeye state
Initialize Hawkeye state
Initialize Hawkeye state
Initialize Hawkeye state
Initialize Hawkeye state
Initialize Hawkeye state
Heartbeat CPU 0 instructions: 10000001 cycles: 6408311 heartbeat IPC: 1.56047 cumulative IPC: 1.56047 (Simulation time: 0 hr 2 min 47 sec) 
 Total Blocks : 262144 Invalid Blocks : 88070
Heartbeat CPU 0 instructions: 20000001 cycles: 11137273 heartbeat IPC: 2.11463 cumulative IPC: 1.79577 (Simulation time: 0 hr 5 min 36 sec) 
 Total Blocks : 262144 Invalid Blocks : 23375
Heartbeat CPU 0 instructions: 30000001 cycles: 15398727 heartbeat IPC: 2.34662 cumulative IPC: 1.94821 (Simulation time: 0 hr 8 min 40 sec) 
 Total Blocks : 262144 Invalid Blocks : 7157
Heartbeat CPU 0 instructions: 40000001 cycles: 21043127 heartbeat IPC: 1.77167 cumulative IPC: 1.90086 (Simulation time: 0 hr 12 min 26 sec) 
 Total Blocks : 262144 Invalid Blocks : 1985
Heartbeat CPU 0 instructions: 50000003 cycles: 27310725 heartbeat IPC: 1.59551 cumulative IPC: 1.83078 (Simulation time: 0 hr 16 min 56 sec) 
 Total Blocks : 262144 Invalid Blocks : 438
Heartbeat CPU 0 instructions: 60000000 cycles: 30805215 heartbeat IPC: 2.86165 cumulative IPC: 1.94772 (Simulation time: 0 hr 18 min 34 sec) 
 Total Blocks : 262144 Invalid Blocks : 275
Heartbeat CPU 0 instructions: 70000002 cycles: 34292643 heartbeat IPC: 2.86744 cumulative IPC: 2.04125 (Simulation time: 0 hr 19 min 49 sec) 
 Total Blocks : 262144 Invalid Blocks : 175
Heartbeat CPU 0 instructions: 80000001 cycles: 37779891 heartbeat IPC: 2.86759 cumulative IPC: 2.11753 (Simulation time: 0 hr 21 min 9 sec) 
 Total Blocks : 262144 Invalid Blocks : 126
Heartbeat CPU 0 instructions: 90000000 cycles: 43001377 heartbeat IPC: 1.91516 cumulative IPC: 2.09296 (Simulation time: 0 hr 23 min 53 sec) 
 Total Blocks : 262144 Invalid Blocks : 60
Heartbeat CPU 0 instructions: 100000003 cycles: 47757166 heartbeat IPC: 2.1027 cumulative IPC: 2.09393 (Simulation time: 0 hr 26 min 10 sec) 
 Total Blocks : 262144 Invalid Blocks : 48
Heartbeat CPU 0 instructions: 110000000 cycles: 51742161 heartbeat IPC: 2.50941 cumulative IPC: 2.12593 (Simulation time: 0 hr 28 min 14 sec) 
 Total Blocks : 262144 Invalid Blocks : 32
Heartbeat CPU 0 instructions: 120000000 cycles: 55054116 heartbeat IPC: 3.01936 cumulative IPC: 2.17967 (Simulation time: 0 hr 29 min 49 sec) 
 Total Blocks : 262144 Invalid Blocks : 28
Heartbeat CPU 0 instructions: 130000003 cycles: 58607863 heartbeat IPC: 2.81393 cumulative IPC: 2.21813 (Simulation time: 0 hr 31 min 26 sec) 
 Total Blocks : 262144 Invalid Blocks : 25
Heartbeat CPU 0 instructions: 140000003 cycles: 64343209 heartbeat IPC: 1.74357 cumulative IPC: 2.17583 (Simulation time: 0 hr 34 min 43 sec) 
 Total Blocks : 262144 Invalid Blocks : 5
Heartbeat CPU 0 instructions: 150000003 cycles: 69436921 heartbeat IPC: 1.9632 cumulative IPC: 2.16023 (Simulation time: 0 hr 37 min 37 sec) 
 Total Blocks : 262144 Invalid Blocks : 1
Heartbeat CPU 0 instructions: 160000001 cycles: 77424540 heartbeat IPC: 1.25194 cumulative IPC: 2.06653 (Simulation time: 0 hr 42 min 1 sec) 
 Total Blocks : 262144 Invalid Blocks : 0
Heartbeat CPU 0 instructions: 170000003 cycles: 85506217 heartbeat IPC: 1.23737 cumulative IPC: 1.98816 (Simulation time: 0 hr 46 min 22 sec) 
 Total Blocks : 262144 Invalid Blocks : 0
Heartbeat CPU 0 instructions: 180000002 cycles: 93544692 heartbeat IPC: 1.24402 cumulative IPC: 1.92421 (Simulation time: 0 hr 50 min 40 sec) 
 Total Blocks : 262144 Invalid Blocks : 0
Heartbeat CPU 0 instructions: 190000001 cycles: 98349401 heartbeat IPC: 2.08129 cumulative IPC: 1.93189 (Simulation time: 0 hr 52 min 34 sec) 
 Total Blocks : 262144 Invalid Blocks : 0
Heartbeat CPU 0 instructions: 200000002 cycles: 101958323 heartbeat IPC: 2.77091 cumulative IPC: 1.96159 (Simulation time: 0 hr 55 min 22 sec) 
 Total Blocks : 262144 Invalid Blocks : 0

Warmup complete CPU 0 instructions: 200000002 cycles: 101958323 (Simulation time: 0 hr 55 min 22 sec) 

Heartbeat CPU 0 instructions: 210000000 cycles: 111082616 heartbeat IPC: 1.09598 cumulative IPC: 1.09598 (Simulation time: 0 hr 59 min 11 sec) 
 Total Blocks : 262144 Invalid Blocks : 0
Heartbeat CPU 0 instructions: 220000000 cycles: 121636029 heartbeat IPC: 0.947561 cumulative IPC: 1.01638 (Simulation time: 1 hr 3 min 2 sec) 
 Total Blocks : 262144 Invalid Blocks : 0
Heartbeat CPU 0 instructions: 230000001 cycles: 134090800 heartbeat IPC: 0.802905 cumulative IPC: 0.933635 (Simulation time: 1 hr 5 min 45 sec) 
 Total Blocks : 262144 Invalid Blocks : 0
Heartbeat CPU 0 instructions: 240000001 cycles: 145352345 heartbeat IPC: 0.887978 cumulative IPC: 0.921786 (Simulation time: 1 hr 8 min 57 sec) 
 Total Blocks : 262144 Invalid Blocks : 0
Heartbeat CPU 0 instructions: 250000003 cycles: 156543233 heartbeat IPC: 0.893584 cumulative IPC: 0.916004 (Simulation time: 1 hr 12 min 25 sec) 
 Total Blocks : 262144 Invalid Blocks : 0
Heartbeat CPU 0 instructions: 260000001 cycles: 166686448 heartbeat IPC: 0.98588 cumulative IPC: 0.926954 (Simulation time: 1 hr 15 min 41 sec) 
 Total Blocks : 262144 Invalid Blocks : 0
Heartbeat CPU 0 instructions: 270000000 cycles: 173160551 heartbeat IPC: 1.54462 cumulative IPC: 0.983115 (Simulation time: 1 hr 17 min 49 sec) 
 Total Blocks : 262144 Invalid Blocks : 0
Heartbeat CPU 0 instructions: 280000001 cycles: 179589710 heartbeat IPC: 1.55541 cumulative IPC: 1.03051 (Simulation time: 1 hr 19 min 55 sec) 
 Total Blocks : 262144 Invalid Blocks : 0
Heartbeat CPU 0 instructions: 290000001 cycles: 186687854 heartbeat IPC: 1.40882 cumulative IPC: 1.0622 (Simulation time: 1 hr 22 min 10 sec) 
 Total Blocks : 262144 Invalid Blocks : 0
Heartbeat CPU 0 instructions: 300000003 cycles: 196061943 heartbeat IPC: 1.06677 cumulative IPC: 1.06266 (Simulation time: 1 hr 25 min 4 sec) 
 Total Blocks : 262144 Invalid Blocks : 0
Heartbeat CPU 0 instructions: 310000002 cycles: 203336326 heartbeat IPC: 1.37469 cumulative IPC: 1.08505 (Simulation time: 1 hr 27 min 20 sec) 
 Total Blocks : 262144 Invalid Blocks : 0
Heartbeat CPU 0 instructions: 320000001 cycles: 210979383 heartbeat IPC: 1.30838 cumulative IPC: 1.1007 (Simulation time: 1 hr 29 min 38 sec) 
 Total Blocks : 262144 Invalid Blocks : 0
Heartbeat CPU 0 instructions: 330000000 cycles: 216468202 heartbeat IPC: 1.82189 cumulative IPC: 1.13527 (Simulation time: 1 hr 31 min 32 sec) 
 Total Blocks : 262144 Invalid Blocks : 0
Heartbeat CPU 0 instructions: 340000002 cycles: 227136631 heartbeat IPC: 0.937345 cumulative IPC: 1.1184 (Simulation time: 1 hr 34 min 15 sec) 
 Total Blocks : 262144 Invalid Blocks : 0
Heartbeat CPU 0 instructions: 350000003 cycles: 239474549 heartbeat IPC: 0.81051 cumulative IPC: 1.09078 (Simulation time: 1 hr 37 min 45 sec) 
 Total Blocks : 262144 Invalid Blocks : 0
Heartbeat CPU 0 instructions: 360000001 cycles: 249742698 heartbeat IPC: 0.973885 cumulative IPC: 1.08266 (Simulation time: 1 hr 40 min 43 sec) 
 Total Blocks : 262144 Invalid Blocks : 0
Heartbeat CPU 0 instructions: 370000001 cycles: 260629617 heartbeat IPC: 0.918534 cumulative IPC: 1.0714 (Simulation time: 1 hr 43 min 28 sec) 
 Total Blocks : 262144 Invalid Blocks : 0
Heartbeat CPU 0 instructions: 380000003 cycles: 271667803 heartbeat IPC: 0.905946 cumulative IPC: 1.06064 (Simulation time: 1 hr 46 min 3 sec) 
 Total Blocks : 262144 Invalid Blocks : 0
Heartbeat CPU 0 instructions: 390000000 cycles: 282513332 heartbeat IPC: 0.922039 cumulative IPC: 1.05231 (Simulation time: 1 hr 47 min 58 sec) 
 Total Blocks : 262144 Invalid Blocks : 0
Heartbeat CPU 0 instructions: 400000001 cycles: 289887685 heartbeat IPC: 1.35605 cumulative IPC: 1.06423 (Simulation time: 1 hr 49 min 17 sec) 
 Total Blocks : 262144 Invalid Blocks : 0
Finished CPU 0 instructions: 200000000 cycles: 187929564 cumulative IPC: 1.06423 (Simulation time: 1 hr 49 min 17 sec) 

CPU 0 Branch Prediction Accuracy: 99.7508% MPKI: 0.084845 Average ROB Occupancy at Mispredict: 348.806

ChampSim completed all CPUs

Region of Interest Statistics

CPU 0 cumulative IPC: 1.06423 instructions: 200000000 cycles: 187929564
ITLB TOTAL     ACCESS: 34774948  HIT: 34774948  MISS:     0  HIT %:   100  MISS %:     0  AVERAGE MISS PENALTY: 0
ITLB LOAD      ACCESS: 34774948  HIT: 34774948  MISS:     0  HIT %:   100  MISS %:     0  AVERAGE MISS PENALTY: 0
ITLB RFO       ACCESS:     0  HIT:     0  MISS:     0  HIT %:     0  MISS %:     0  AVERAGE MISS PENALTY: 0
ITLB PREFETCH  ACCESS:     0  HIT:     0  MISS:     0  HIT %:     0  MISS %:     0  AVERAGE MISS PENALTY: 0
ITLB WRITEBACK ACCESS:     0  HIT:     0  MISS:     0  HIT %:     0  MISS %:     0  AVERAGE MISS PENALTY: 0
ITLB PREFETCH  REQUESTED:     0  ISSUED:     0  USEFUL:     0  USELESS:     0
 USEFUL LOAD PREFETCHES:          0 PREFETCH ISSUED TO LOWER LEVEL:          0  ACCURACY: -nan
 TIMELY PREFETCHES:          0 LATE PREFETCHES: 0 DROPPED PREFETCHES: 0
ITLB AVERAGE MISS LATENCY: -nan cycles
DTLB TOTAL     ACCESS: 60811682  HIT: 60623157  MISS: 188525  HIT %: 99.69  MISS %: 0.310014  AVERAGE MISS PENALTY: 84.1339
DTLB LOAD      ACCESS: 53059193  HIT: 52919703  MISS: 139490  HIT %: 99.7371  MISS %: 0.262895  AVERAGE MISS PENALTY: 95.0676
DTLB RFO       ACCESS: 7752489  HIT: 7703454  MISS: 49035  HIT %: 99.3675  MISS %: 0.632507  AVERAGE MISS PENALTY: 53.031
DTLB PREFETCH  ACCESS:     0  HIT:     0  MISS:     0  HIT %:     0  MISS %:     0  AVERAGE MISS PENALTY: 0
DTLB WRITEBACK ACCESS:     0  HIT:     0  MISS:     0  HIT %:     0  MISS %:     0  AVERAGE MISS PENALTY: 0
DTLB PREFETCH  REQUESTED:     0  ISSUED:     0  USEFUL:     0  USELESS:     0
 USEFUL LOAD PREFETCHES:          0 PREFETCH ISSUED TO LOWER LEVEL:          0  ACCURACY: -nan
 TIMELY PREFETCHES:          0 LATE PREFETCHES: 0 DROPPED PREFETCHES: 0
DTLB AVERAGE MISS LATENCY: 84.1339 cycles
STLB TOTAL     ACCESS: 188525  HIT: 75588  MISS: 112937  HIT %: 40.0944  MISS %: 59.9056  AVERAGE MISS PENALTY: 100
STLB LOAD      ACCESS: 139490  HIT: 47219  MISS: 92271  HIT %: 33.8512  MISS %: 66.1488  AVERAGE MISS PENALTY: 100
STLB RFO       ACCESS: 49035  HIT: 28369  MISS: 20666  HIT %: 57.8546  MISS %: 42.1454  AVERAGE MISS PENALTY: 100
STLB PREFETCH  ACCESS:     0  HIT:     0  MISS:     0  HIT %:     0  MISS %:     0  AVERAGE MISS PENALTY: 0
STLB WRITEBACK ACCESS:     0  HIT:     0  MISS:     0  HIT %:     0  MISS %:     0  AVERAGE MISS PENALTY: 0
STLB PREFETCH  REQUESTED:     0  ISSUED:     0  USEFUL:     0  USELESS:     0
 USEFUL LOAD PREFETCHES:          0 PREFETCH ISSUED TO LOWER LEVEL:          0  ACCURACY: -nan
 TIMELY PREFETCHES:          0 LATE PREFETCHES: 0 DROPPED PREFETCHES: 0
STLB AVERAGE MISS LATENCY: 100 cycles
L1D TOTAL     ACCESS: 76276242  HIT: 70527382  MISS: 5748860  HIT %: 92.4631  MISS %: 7.53689  AVERAGE MISS PENALTY: 6.96679e+06
L1D LOAD      ACCESS: 48747348  HIT: 48365972  MISS: 381376  HIT %: 99.2176  MISS %: 0.782352  AVERAGE MISS PENALTY: 1.05015e+08
L1D RFO       ACCESS: 7675181  HIT: 6512022  MISS: 1163159  HIT %: 84.8452  MISS %: 15.1548  AVERAGE MISS PENALTY: 647.781
L1D PREFETCH  ACCESS: 19853713  HIT: 15649388  MISS: 4204325  HIT %: 78.8235  MISS %: 21.1765  AVERAGE MISS PENALTY: 49.6921
L1D WRITEBACK ACCESS:     0  HIT:     0  MISS:     0  HIT %:     0  MISS %:     0  AVERAGE MISS PENALTY: 0
L1D PREFETCH  REQUESTED: 23281359  ISSUED: 22048608  USEFUL: 4079400  USELESS: 124935
 USEFUL LOAD PREFETCHES:    4079400 PREFETCH ISSUED TO LOWER LEVEL:    7703663  ACCURACY: 52.954
 TIMELY PREFETCHES:    4079400 LATE PREFETCHES: 247541 DROPPED PREFETCHES: 1232751
L1D AVERAGE MISS LATENCY: 179.847 cycles
L1I TOTAL     ACCESS: 45969234  HIT: 45968500  MISS:   734  HIT %: 99.9984  MISS %: 0.00159672  AVERAGE MISS PENALTY: 303.85
L1I LOAD      ACCESS: 45969234  HIT: 45968500  MISS:   734  HIT %: 99.9984  MISS %: 0.00159672  AVERAGE MISS PENALTY: 303.85
L1I RFO       ACCESS:     0  HIT:     0  MISS:     0  HIT %:     0  MISS %:     0  AVERAGE MISS PENALTY: 0
L1I PREFETCH  ACCESS:     0  HIT:     0  MISS:     0  HIT %:     0  MISS %:     0  AVERAGE MISS PENALTY: 0
L1I WRITEBACK ACCESS:     0  HIT:     0  MISS:     0  HIT %:     0  MISS %:     0  AVERAGE MISS PENALTY: 0
L1I PREFETCH  REQUESTED:     0  ISSUED:     0  USEFUL:     0  USELESS:     0
 USEFUL LOAD PREFETCHES:          0 PREFETCH ISSUED TO LOWER LEVEL:          0  ACCURACY: -nan
 TIMELY PREFETCHES:          0 LATE PREFETCHES: 0 DROPPED PREFETCHES: 0
L1I AVERAGE MISS LATENCY: 303.85 cycles
L2C TOTAL     ACCESS: 18291531  HIT: 13039991  MISS: 5251540  HIT %: 71.2898  MISS %: 28.7102  AVERAGE MISS PENALTY: 6.6079e+06
L2C LOAD      ACCESS: 359220  HIT: 61136  MISS: 298084  HIT %: 17.0191  MISS %: 82.9809  AVERAGE MISS PENALTY: 1.16411e+08
L2C RFO       ACCESS: 1163157  HIT:    24  MISS: 1163133  HIT %: 0.00206335  MISS %: 99.9979  AVERAGE MISS PENALTY: 280.017
L2C PREFETCH  ACCESS: 15337238  HIT: 11547002  MISS: 3790236  HIT %: 75.2874  MISS %: 24.7126  AVERAGE MISS PENALTY: 270.561
L2C WRITEBACK ACCESS: 1431916  HIT: 1431829  MISS:    87  HIT %: 99.9939  MISS %: 0.00607578  AVERAGE MISS PENALTY: 0
L2C PREFETCH  REQUESTED: 15561172  ISSUED: 15539002  USEFUL: 23338  USELESS: 3764245
 USEFUL LOAD PREFETCHES:      23338 PREFETCH ISSUED TO LOWER LEVEL:    6190246  ACCURACY: 0.377012
 TIMELY PREFETCHES:      23338 LATE PREFETCHES: 212423 DROPPED PREFETCHES: 22170
L2C AVERAGE MISS LATENCY: 269.748 cycles
LLC0 TOTAL     ACCESS: 833126  HIT: 346975  MISS: 486151  HIT %: 41.6474  MISS %: 58.3526  AVERAGE MISS PENALTY: 315.616
LLC0 LOAD      ACCESS: 65996  HIT: 18820  MISS: 47176  HIT %: 28.5169  MISS %: 71.4831  AVERAGE MISS PENALTY: 262.993
LLC0 RFO       ACCESS: 145392  HIT: 27558  MISS: 117834  HIT %: 18.9543  MISS %: 81.0457  AVERAGE MISS PENALTY: 293.153
LLC0 PREFETCH  ACCESS: 443281  HIT: 126073  MISS: 317208  HIT %: 28.4409  MISS %: 71.5591  AVERAGE MISS PENALTY: 335.7
LLC0 WRITEBACK ACCESS: 178457  HIT: 174524  MISS:  3933  HIT %: 97.7961  MISS %: 2.20389  AVERAGE MISS PENALTY: 0
LLC0 PREFETCH  REQUESTED:     0  ISSUED:     0  USEFUL:  8086  USELESS: 307134
 USEFUL LOAD PREFETCHES:       8086 PREFETCH ISSUED TO LOWER LEVEL:     317209  ACCURACY: 2.54911
 TIMELY PREFETCHES:       8086 LATE PREFETCHES: 0 DROPPED PREFETCHES: 0
LLC0 AVERAGE MISS LATENCY: 315.616 cycles
Deadblocks : 44272 Deadblock percentage : 93.8443

LLC1 TOTAL     ACCESS: 833734  HIT: 346544  MISS: 487190  HIT %: 41.5653  MISS %: 58.4347  AVERAGE MISS PENALTY: 320.349
LLC1 LOAD      ACCESS: 14802  HIT:  4181  MISS: 10621  HIT %: 28.2462  MISS %: 71.7538  AVERAGE MISS PENALTY: 299.733
LLC1 RFO       ACCESS: 145393  HIT: 27570  MISS: 117823  HIT %: 18.9624  MISS %: 81.0376  AVERAGE MISS PENALTY: 298.034
LLC1 PREFETCH  ACCESS: 495085  HIT: 140356  MISS: 354729  HIT %: 28.3499  MISS %: 71.6501  AVERAGE MISS PENALTY: 332.005
LLC1 WRITEBACK ACCESS: 178454  HIT: 174437  MISS:  4017  HIT %: 97.749  MISS %: 2.251  AVERAGE MISS PENALTY: 0
LLC1 PREFETCH  REQUESTED:     0  ISSUED:     0  USEFUL:  9744  USELESS: 342759
 USEFUL LOAD PREFETCHES:       9744 PREFETCH ISSUED TO LOWER LEVEL:     354729  ACCURACY: 2.74689
 TIMELY PREFETCHES:       9744 LATE PREFETCHES: 0 DROPPED PREFETCHES: 0
LLC1 AVERAGE MISS LATENCY: 320.349 cycles
LLC2 TOTAL     ACCESS: 834186  HIT: 346199  MISS: 487987  HIT %: 41.5014  MISS %: 58.4986  AVERAGE MISS PENALTY: 321.74
LLC2 LOAD      ACCESS:  9144  HIT:  2531  MISS:  6613  HIT %: 27.6794  MISS %: 72.3206  AVERAGE MISS PENALTY: 322.348
LLC2 RFO       ACCESS: 145387  HIT: 27477  MISS: 117910  HIT %: 18.8992  MISS %: 81.1008  AVERAGE MISS PENALTY: 298.661
LLC2 PREFETCH  ACCESS: 501212  HIT: 141665  MISS: 359547  HIT %: 28.2645  MISS %: 71.7355  AVERAGE MISS PENALTY: 332.802
LLC2 WRITEBACK ACCESS: 178443  HIT: 174526  MISS:  3917  HIT %: 97.8049  MISS %: 2.1951  AVERAGE MISS PENALTY: 0
LLC2 PREFETCH  REQUESTED:     0  ISSUED:     0  USEFUL:  9429  USELESS: 347841
 USEFUL LOAD PREFETCHES:       9429 PREFETCH ISSUED TO LOWER LEVEL:     359549  ACCURACY: 2.62245
 TIMELY PREFETCHES:       9429 LATE PREFETCHES: 0 DROPPED PREFETCHES: 0
LLC2 AVERAGE MISS LATENCY: 321.74 cycles
LLC3 TOTAL     ACCESS: 834735  HIT: 346651  MISS: 488084  HIT %: 41.5283  MISS %: 58.4717  AVERAGE MISS PENALTY: 323.667
LLC3 LOAD      ACCESS:  6691  HIT:  1583  MISS:  5108  HIT %: 23.6586  MISS %: 76.3414  AVERAGE MISS PENALTY: 324.437
LLC3 RFO       ACCESS: 145389  HIT: 27541  MISS: 117848  HIT %: 18.943  MISS %: 81.057  AVERAGE MISS PENALTY: 299.396
LLC3 PREFETCH  ACCESS: 504221  HIT: 143018  MISS: 361203  HIT %: 28.3641  MISS %: 71.6359  AVERAGE MISS PENALTY: 335.092
LLC3 WRITEBACK ACCESS: 178434  HIT: 174509  MISS:  3925  HIT %: 97.8003  MISS %: 2.19969  AVERAGE MISS PENALTY: 0
LLC3 PREFETCH  REQUESTED:     0  ISSUED:     0  USEFUL:  9239  USELESS: 349705
 USEFUL LOAD PREFETCHES:       9239 PREFETCH ISSUED TO LOWER LEVEL:     361204  ACCURACY: 2.55783
 TIMELY PREFETCHES:       9239 LATE PREFETCHES: 0 DROPPED PREFETCHES: 0
LLC3 AVERAGE MISS LATENCY: 323.667 cycles
LLC4 TOTAL     ACCESS: 835191  HIT: 346428  MISS: 488763  HIT %: 41.4789  MISS %: 58.5211  AVERAGE MISS PENALTY: 325.123
LLC4 LOAD      ACCESS:  6126  HIT:  1357  MISS:  4769  HIT %: 22.1515  MISS %: 77.8485  AVERAGE MISS PENALTY: 331.738
LLC4 RFO       ACCESS: 145390  HIT: 27600  MISS: 117790  HIT %: 18.9834  MISS %: 81.0166  AVERAGE MISS PENALTY: 301.323
LLC4 PREFETCH  ACCESS: 505235  HIT: 142998  MISS: 362237  HIT %: 28.3033  MISS %: 71.6967  AVERAGE MISS PENALTY: 336.335
LLC4 WRITEBACK ACCESS: 178440  HIT: 174473  MISS:  3967  HIT %: 97.7768  MISS %: 2.22316  AVERAGE MISS PENALTY: 0
LLC4 PREFETCH  REQUESTED:     0  ISSUED:     0  USEFUL:  9250  USELESS: 350715
 USEFUL LOAD PREFETCHES:       9250 PREFETCH ISSUED TO LOWER LEVEL:     362238  ACCURACY: 2.55357
 TIMELY PREFETCHES:       9250 LATE PREFETCHES: 0 DROPPED PREFETCHES: 0
LLC4 AVERAGE MISS LATENCY: 325.123 cycles
LLC5 TOTAL     ACCESS: 835626  HIT: 346536  MISS: 489090  HIT %: 41.4702  MISS %: 58.5298  AVERAGE MISS PENALTY: 325.243
LLC5 LOAD      ACCESS:  6096  HIT:  1331  MISS:  4765  HIT %: 21.834  MISS %: 78.166  AVERAGE MISS PENALTY: 335.498
LLC5 RFO       ACCESS: 145393  HIT: 27645  MISS: 117748  HIT %: 19.014  MISS %: 80.986  AVERAGE MISS PENALTY: 300.685
LLC5 PREFETCH  ACCESS: 505708  HIT: 142941  MISS: 362767  HIT %: 28.2655  MISS %: 71.7345  AVERAGE MISS PENALTY: 336.496
LLC5 WRITEBACK ACCESS: 178429  HIT: 174619  MISS:  3810  HIT %: 97.8647  MISS %: 2.1353  AVERAGE MISS PENALTY: 0
LLC5 PREFETCH  REQUESTED:     0  ISSUED:     0  USEFUL:  9288  USELESS: 351262
 USEFUL LOAD PREFETCHES:       9288 PREFETCH ISSUED TO LOWER LEVEL:     362768  ACCURACY: 2.56031
 TIMELY PREFETCHES:       9288 LATE PREFETCHES: 0 DROPPED PREFETCHES: 0
LLC5 AVERAGE MISS LATENCY: 325.243 cycles
LLC6 TOTAL     ACCESS: 836007  HIT: 346323  MISS: 489684  HIT %: 41.4258  MISS %: 58.5742  AVERAGE MISS PENALTY: 326.034
LLC6 LOAD      ACCESS:  6085  HIT:  1344  MISS:  4741  HIT %: 22.0871  MISS %: 77.9129  AVERAGE MISS PENALTY: 332.55
LLC6 RFO       ACCESS: 145398  HIT: 27545  MISS: 117853  HIT %: 18.9446  MISS %: 81.0554  AVERAGE MISS PENALTY: 303.851
LLC6 PREFETCH  ACCESS: 506081  HIT: 142869  MISS: 363212  HIT %: 28.2305  MISS %: 71.7695  AVERAGE MISS PENALTY: 336.628
LLC6 WRITEBACK ACCESS: 178443  HIT: 174565  MISS:  3878  HIT %: 97.8268  MISS %: 2.17324  AVERAGE MISS PENALTY: 0
LLC6 PREFETCH  REQUESTED:     0  ISSUED:     0  USEFUL:  9204  USELESS: 351728
 USEFUL LOAD PREFETCHES:       9204 PREFETCH ISSUED TO LOWER LEVEL:     363213  ACCURACY: 2.53405
 TIMELY PREFETCHES:       9204 LATE PREFETCHES: 0 DROPPED PREFETCHES: 0
LLC6 AVERAGE MISS LATENCY: 326.034 cycles
LLC7 TOTAL     ACCESS: 836395  HIT: 346317  MISS: 490078  HIT %: 41.4059  MISS %: 58.5941  AVERAGE MISS PENALTY: 327.072
LLC7 LOAD      ACCESS:  6122  HIT:  1367  MISS:  4755  HIT %: 22.3293  MISS %: 77.6707  AVERAGE MISS PENALTY: 329.688
LLC7 RFO       ACCESS: 145391  HIT: 27448  MISS: 117943  HIT %: 18.8787  MISS %: 81.1213  AVERAGE MISS PENALTY: 303.865
LLC7 PREFETCH  ACCESS: 506436  HIT: 142983  MISS: 363453  HIT %: 28.2332  MISS %: 71.7668  AVERAGE MISS PENALTY: 338.103
LLC7 WRITEBACK ACCESS: 178446  HIT: 174519  MISS:  3927  HIT %: 97.7993  MISS %: 2.20067  AVERAGE MISS PENALTY: 0
LLC7 PREFETCH  REQUESTED:     0  ISSUED:     0  USEFUL:  9187  USELESS: 351877
 USEFUL LOAD PREFETCHES:       9187 PREFETCH ISSUED TO LOWER LEVEL:     363454  ACCURACY: 2.52769
 TIMELY PREFETCHES:       9187 LATE PREFETCHES: 0 DROPPED PREFETCHES: 0
LLC7 AVERAGE MISS LATENCY: 327.072 cycles
ROI Average ROB Stall Cycles:	8.79296
ROI Total ROB Stalls Cycles:	141410676
ROI TOTAL ROB counter      :	16082255
ROI Average Load ROB Stall Cycles:	16.2876
ROI Total Load ROB Stalls Cycle  :	57764709
ROI Total Load ROB stalls Counter:	3546538
Major fault: 0 Minor fault: 55264

