
*** ChampSim Multicore Out-of-Order Simulator ***

Warmup Instructions: 200000000
Simulation Instructions: 200000000
Number of CPUs: 1
threads:1

L1I Configuration:
L1I_SET:64
L1I_WAY:8
L1I_RQ_SIZE:64
L1I_WQ_SIZE:64
L1I_PQ_SIZE:8
L1I_MSHR_SIZE:8

L1D Configuration:
L1D_SET:64
L1D_WAY:12
L1D_RQ_SIZE:64
L1D_WQ_SIZE:64
L1D_PQ_SIZE:8
L1D_MSHR_SIZE:16

L2C Configuration:
L2C_SET:1024
L2C_WAY:8
L2C_RQ_SIZE:32
L2C_WQ_SIZE:32
L2C_PQ_SIZE:16
L2C_MSHR_SIZE:32

LLC Configuration:
LLC_SET:2048
LLC_WAY:16
LLC SLICES:8
LLC_RQ_SIZE:64
LLC_WQ_SIZE:64
LLC_PQ_SIZE:32
LLC_MSHR_SIZE:64

Interconnect OFF
Attacker deprioritize is: OFF
Off-chip DRAM Size: 4096 MB Channels: 1 Width: 64-bit Data Rate: 3200 MT/s
PAGE SIZE in KB: 4.000000 
PAGE SIZE in MB: 0.003906 
PAGE offset in bits: 12 
CEASER-S_LLC:0
MIRAGE : 1
CEASER_LATENCY:3
REMAP : OFF
Partitions : 1
Multi-Step : OFF
BFS : OFF

CPU 0 runs /home/anubhav/spec_2017/657.xz_s-2302B.champsimtrace.xz
CPU 0 Bimodal branch predictor
Initialize Hawkeye state
Initialize Hawkeye state
Initialize Hawkeye state
Initialize Hawkeye state
Initialize Hawkeye state
Initialize Hawkeye state
Initialize Hawkeye state
Initialize Hawkeye state
Heartbeat CPU 0 instructions: 10000001 cycles: 7435925 heartbeat IPC: 1.34482 cumulative IPC: 1.34482 (Simulation time: 0 hr 1 min 24 sec) 
 Total Blocks : 262144 Invalid Blocks : 210555
Heartbeat CPU 0 instructions: 20000001 cycles: 14761555 heartbeat IPC: 1.36507 cumulative IPC: 1.35487 (Simulation time: 0 hr 2 min 43 sec) 
 Total Blocks : 262144 Invalid Blocks : 189263
Heartbeat CPU 0 instructions: 30000003 cycles: 22217389 heartbeat IPC: 1.34123 cumulative IPC: 1.35029 (Simulation time: 0 hr 4 min 7 sec) 
 Total Blocks : 262144 Invalid Blocks : 172544
Heartbeat CPU 0 instructions: 40000000 cycles: 29796270 heartbeat IPC: 1.31946 cumulative IPC: 1.34245 (Simulation time: 0 hr 5 min 32 sec) 
 Total Blocks : 262144 Invalid Blocks : 160665
Heartbeat CPU 0 instructions: 50000003 cycles: 37381589 heartbeat IPC: 1.31834 cumulative IPC: 1.33756 (Simulation time: 0 hr 6 min 59 sec) 
 Total Blocks : 262144 Invalid Blocks : 150503
Heartbeat CPU 0 instructions: 60000000 cycles: 44881295 heartbeat IPC: 1.33339 cumulative IPC: 1.33686 (Simulation time: 0 hr 8 min 15 sec) 
 Total Blocks : 262144 Invalid Blocks : 140782
Heartbeat CPU 0 instructions: 70000000 cycles: 52193653 heartbeat IPC: 1.36755 cumulative IPC: 1.34116 (Simulation time: 0 hr 9 min 30 sec) 
 Total Blocks : 262144 Invalid Blocks : 133626
Heartbeat CPU 0 instructions: 80000002 cycles: 59567662 heartbeat IPC: 1.35611 cumulative IPC: 1.34301 (Simulation time: 0 hr 10 min 55 sec) 
 Total Blocks : 262144 Invalid Blocks : 126808
Heartbeat CPU 0 instructions: 90000003 cycles: 67101757 heartbeat IPC: 1.3273 cumulative IPC: 1.34125 (Simulation time: 0 hr 12 min 15 sec) 
 Total Blocks : 262144 Invalid Blocks : 120847
Heartbeat CPU 0 instructions: 100000002 cycles: 74264089 heartbeat IPC: 1.39619 cumulative IPC: 1.34655 (Simulation time: 0 hr 13 min 30 sec) 
 Total Blocks : 262144 Invalid Blocks : 114079
Heartbeat CPU 0 instructions: 110000000 cycles: 81483915 heartbeat IPC: 1.38507 cumulative IPC: 1.34996 (Simulation time: 0 hr 14 min 51 sec) 
 Total Blocks : 262144 Invalid Blocks : 107675
Heartbeat CPU 0 instructions: 120000002 cycles: 89021889 heartbeat IPC: 1.32662 cumulative IPC: 1.34798 (Simulation time: 0 hr 16 min 15 sec) 
 Total Blocks : 262144 Invalid Blocks : 102371
Heartbeat CPU 0 instructions: 130000001 cycles: 96244636 heartbeat IPC: 1.38451 cumulative IPC: 1.35072 (Simulation time: 0 hr 17 min 37 sec) 
 Total Blocks : 262144 Invalid Blocks : 97007
Heartbeat CPU 0 instructions: 140000003 cycles: 102942116 heartbeat IPC: 1.4931 cumulative IPC: 1.35999 (Simulation time: 0 hr 18 min 57 sec) 
 Total Blocks : 262144 Invalid Blocks : 91689
Heartbeat CPU 0 instructions: 150000000 cycles: 110113099 heartbeat IPC: 1.39451 cumulative IPC: 1.36224 (Simulation time: 0 hr 20 min 15 sec) 
 Total Blocks : 262144 Invalid Blocks : 86733
Heartbeat CPU 0 instructions: 160000000 cycles: 117334565 heartbeat IPC: 1.38476 cumulative IPC: 1.36362 (Simulation time: 0 hr 21 min 38 sec) 
 Total Blocks : 262144 Invalid Blocks : 81810
Heartbeat CPU 0 instructions: 170000003 cycles: 124318607 heartbeat IPC: 1.43184 cumulative IPC: 1.36745 (Simulation time: 0 hr 22 min 54 sec) 
 Total Blocks : 262144 Invalid Blocks : 77319
Heartbeat CPU 0 instructions: 180000000 cycles: 131265783 heartbeat IPC: 1.43943 cumulative IPC: 1.37126 (Simulation time: 0 hr 24 min 8 sec) 
 Total Blocks : 262144 Invalid Blocks : 74361
Heartbeat CPU 0 instructions: 190000001 cycles: 138397061 heartbeat IPC: 1.40227 cumulative IPC: 1.37286 (Simulation time: 0 hr 25 min 30 sec) 
 Total Blocks : 262144 Invalid Blocks : 72465
Heartbeat CPU 0 instructions: 200000002 cycles: 145654038 heartbeat IPC: 1.37798 cumulative IPC: 1.37312 (Simulation time: 0 hr 26 min 53 sec) 
 Total Blocks : 262144 Invalid Blocks : 70902

Warmup complete CPU 0 instructions: 200000002 cycles: 145654038 (Simulation time: 0 hr 26 min 53 sec) 

Heartbeat CPU 0 instructions: 210000003 cycles: 160811310 heartbeat IPC: 0.659749 cumulative IPC: 0.659749 (Simulation time: 0 hr 29 min 22 sec) 
 Total Blocks : 262144 Invalid Blocks : 69547
Heartbeat CPU 0 instructions: 220000000 cycles: 176142336 heartbeat IPC: 0.652272 cumulative IPC: 0.655989 (Simulation time: 0 hr 31 min 49 sec) 
 Total Blocks : 262144 Invalid Blocks : 68497
Heartbeat CPU 0 instructions: 230000001 cycles: 191747627 heartbeat IPC: 0.640808 cumulative IPC: 0.65085 (Simulation time: 0 hr 34 min 19 sec) 
 Total Blocks : 262144 Invalid Blocks : 67395
Heartbeat CPU 0 instructions: 240000001 cycles: 207281566 heartbeat IPC: 0.643752 cumulative IPC: 0.649061 (Simulation time: 0 hr 36 min 50 sec) 
 Total Blocks : 262144 Invalid Blocks : 66505
Heartbeat CPU 0 instructions: 250000002 cycles: 222719922 heartbeat IPC: 0.647737 cumulative IPC: 0.648796 (Simulation time: 0 hr 39 min 16 sec) 
 Total Blocks : 262144 Invalid Blocks : 65750
Heartbeat CPU 0 instructions: 260000001 cycles: 238199022 heartbeat IPC: 0.646032 cumulative IPC: 0.648333 (Simulation time: 0 hr 41 min 42 sec) 
 Total Blocks : 262144 Invalid Blocks : 65110
Heartbeat CPU 0 instructions: 270000003 cycles: 253911306 heartbeat IPC: 0.636445 cumulative IPC: 0.646608 (Simulation time: 0 hr 44 min 7 sec) 
 Total Blocks : 262144 Invalid Blocks : 64307
Heartbeat CPU 0 instructions: 280000003 cycles: 269653630 heartbeat IPC: 0.63523 cumulative IPC: 0.645163 (Simulation time: 0 hr 46 min 33 sec) 
 Total Blocks : 262144 Invalid Blocks : 63639
Heartbeat CPU 0 instructions: 290000000 cycles: 285562401 heartbeat IPC: 0.628584 cumulative IPC: 0.643278 (Simulation time: 0 hr 48 min 47 sec) 
 Total Blocks : 262144 Invalid Blocks : 62903
Heartbeat CPU 0 instructions: 300000001 cycles: 301699533 heartbeat IPC: 0.619689 cumulative IPC: 0.640839 (Simulation time: 0 hr 51 min 3 sec) 
 Total Blocks : 262144 Invalid Blocks : 60025
Heartbeat CPU 0 instructions: 310000001 cycles: 317230953 heartbeat IPC: 0.643856 cumulative IPC: 0.641112 (Simulation time: 0 hr 53 min 15 sec) 
 Total Blocks : 262144 Invalid Blocks : 57332
Heartbeat CPU 0 instructions: 320000002 cycles: 331473012 heartbeat IPC: 0.702146 cumulative IPC: 0.64579 (Simulation time: 0 hr 55 min 21 sec) 
 Total Blocks : 262144 Invalid Blocks : 55661
Heartbeat CPU 0 instructions: 330000000 cycles: 345553153 heartbeat IPC: 0.71022 cumulative IPC: 0.650328 (Simulation time: 0 hr 57 min 23 sec) 
 Total Blocks : 262144 Invalid Blocks : 54937
Heartbeat CPU 0 instructions: 340000000 cycles: 361516186 heartbeat IPC: 0.626447 cumulative IPC: 0.648562 (Simulation time: 0 hr 59 min 54 sec) 
 Total Blocks : 262144 Invalid Blocks : 38438
Heartbeat CPU 0 instructions: 350000000 cycles: 376014940 heartbeat IPC: 0.689714 cumulative IPC: 0.651152 (Simulation time: 1 hr 1 min 59 sec) 
 Total Blocks : 262144 Invalid Blocks : 37485
Heartbeat CPU 0 instructions: 360000000 cycles: 391837569 heartbeat IPC: 0.632006 cumulative IPC: 0.649922 (Simulation time: 1 hr 4 min 14 sec) 
 Total Blocks : 262144 Invalid Blocks : 36149
Heartbeat CPU 0 instructions: 370000000 cycles: 404783227 heartbeat IPC: 0.77246 cumulative IPC: 0.656043 (Simulation time: 1 hr 6 min 10 sec) 
 Total Blocks : 262144 Invalid Blocks : 35055
Heartbeat CPU 0 instructions: 380000001 cycles: 418733242 heartbeat IPC: 0.716845 cumulative IPC: 0.659149 (Simulation time: 1 hr 8 min 11 sec) 
 Total Blocks : 262144 Invalid Blocks : 34525
Heartbeat CPU 0 instructions: 390000000 cycles: 432699552 heartbeat IPC: 0.716009 cumulative IPC: 0.661916 (Simulation time: 1 hr 10 min 10 sec) 
 Total Blocks : 262144 Invalid Blocks : 34163
Heartbeat CPU 0 instructions: 400000001 cycles: 446572089 heartbeat IPC: 0.720849 cumulative IPC: 0.664633 (Simulation time: 1 hr 12 min 1 sec) 
 Total Blocks : 262144 Invalid Blocks : 33780
Finished CPU 0 instructions: 200000001 cycles: 300918052 cumulative IPC: 0.664633 (Simulation time: 1 hr 12 min 1 sec) 

CPU 0 Branch Prediction Accuracy: 87.6559% MPKI: 14.8159 Average ROB Occupancy at Mispredict: 65.3877

ChampSim completed all CPUs

Region of Interest Statistics

CPU 0 cumulative IPC: 0.664633 instructions: 200000001 cycles: 300918052
ITLB TOTAL     ACCESS: 22339695  HIT: 22339691  MISS:     4  HIT %:   100  MISS %: 1.79053e-05  AVERAGE MISS PENALTY: 109
ITLB LOAD      ACCESS: 22339695  HIT: 22339691  MISS:     4  HIT %:   100  MISS %: 1.79053e-05  AVERAGE MISS PENALTY: 109
ITLB RFO       ACCESS:     0  HIT:     0  MISS:     0  HIT %:     0  MISS %:     0  AVERAGE MISS PENALTY: 0
ITLB PREFETCH  ACCESS:     0  HIT:     0  MISS:     0  HIT %:     0  MISS %:     0  AVERAGE MISS PENALTY: 0
ITLB WRITEBACK ACCESS:     0  HIT:     0  MISS:     0  HIT %:     0  MISS %:     0  AVERAGE MISS PENALTY: 0
ITLB PREFETCH  REQUESTED:     0  ISSUED:     0  USEFUL:     0  USELESS:     0
 USEFUL LOAD PREFETCHES:          0 PREFETCH ISSUED TO LOWER LEVEL:          0  ACCURACY: -nan
 TIMELY PREFETCHES:          0 LATE PREFETCHES: 0 DROPPED PREFETCHES: 0
ITLB AVERAGE MISS LATENCY: 109 cycles
DTLB TOTAL     ACCESS: 37234880  HIT: 36629983  MISS: 604897  HIT %: 98.3755  MISS %: 1.62454  AVERAGE MISS PENALTY: 19.1811
DTLB LOAD      ACCESS: 26203280  HIT: 25668528  MISS: 534752  HIT %: 97.9592  MISS %: 2.04078  AVERAGE MISS PENALTY: 19.8919
DTLB RFO       ACCESS: 11031600  HIT: 10961455  MISS: 70145  HIT %: 99.3641  MISS %: 0.635855  AVERAGE MISS PENALTY: 13.7626
DTLB PREFETCH  ACCESS:     0  HIT:     0  MISS:     0  HIT %:     0  MISS %:     0  AVERAGE MISS PENALTY: 0
DTLB WRITEBACK ACCESS:     0  HIT:     0  MISS:     0  HIT %:     0  MISS %:     0  AVERAGE MISS PENALTY: 0
DTLB PREFETCH  REQUESTED:     0  ISSUED:     0  USEFUL:     0  USELESS:     0
 USEFUL LOAD PREFETCHES:          0 PREFETCH ISSUED TO LOWER LEVEL:          0  ACCURACY: -nan
 TIMELY PREFETCHES:          0 LATE PREFETCHES: 0 DROPPED PREFETCHES: 0
DTLB AVERAGE MISS LATENCY: 19.1811 cycles
STLB TOTAL     ACCESS: 604901  HIT: 562208  MISS: 42693  HIT %: 92.9422  MISS %: 7.05785  AVERAGE MISS PENALTY: 100
STLB LOAD      ACCESS: 534756  HIT: 493748  MISS: 41008  HIT %: 92.3315  MISS %: 7.66854  AVERAGE MISS PENALTY: 100
STLB RFO       ACCESS: 70145  HIT: 68460  MISS:  1685  HIT %: 97.5978  MISS %: 2.40217  AVERAGE MISS PENALTY: 100
STLB PREFETCH  ACCESS:     0  HIT:     0  MISS:     0  HIT %:     0  MISS %:     0  AVERAGE MISS PENALTY: 0
STLB WRITEBACK ACCESS:     0  HIT:     0  MISS:     0  HIT %:     0  MISS %:     0  AVERAGE MISS PENALTY: 0
STLB PREFETCH  REQUESTED:     0  ISSUED:     0  USEFUL:     0  USELESS:     0
 USEFUL LOAD PREFETCHES:          0 PREFETCH ISSUED TO LOWER LEVEL:          0  ACCURACY: -nan
 TIMELY PREFETCHES:          0 LATE PREFETCHES: 0 DROPPED PREFETCHES: 0
STLB AVERAGE MISS LATENCY: 100 cycles
L1D TOTAL     ACCESS: 57938866  HIT: 55811551  MISS: 2127315  HIT %: 96.3283  MISS %: 3.67165  AVERAGE MISS PENALTY: 2.83266e+06
L1D LOAD      ACCESS: 28850064  HIT: 28111595  MISS: 738469  HIT %: 97.4403  MISS %: 2.55968  AVERAGE MISS PENALTY: 8.02334e+06
L1D RFO       ACCESS: 17558775  HIT: 17409839  MISS: 148936  HIT %: 99.1518  MISS %: 0.848214  AVERAGE MISS PENALTY: 677704
L1D PREFETCH  ACCESS: 11530027  HIT: 10290117  MISS: 1239910  HIT %: 89.2463  MISS %: 10.7537  AVERAGE MISS PENALTY: 32.7328
L1D WRITEBACK ACCESS:     0  HIT:     0  MISS:     0  HIT %:     0  MISS %:     0  AVERAGE MISS PENALTY: 0
L1D PREFETCH  REQUESTED: 13719236  ISSUED: 13157064  USEFUL: 219597  USELESS: 1020328
 USEFUL LOAD PREFETCHES:     219597 PREFETCH ISSUED TO LOWER LEVEL:    3730783  ACCURACY: 5.88608
 TIMELY PREFETCHES:     219597 LATE PREFETCHES: 84277 DROPPED PREFETCHES: 562172
L1D AVERAGE MISS LATENCY: 47480.2 cycles
L1I TOTAL     ACCESS: 32366517  HIT: 32366105  MISS:   412  HIT %: 99.9987  MISS %: 0.00127292  AVERAGE MISS PENALTY: 56.301
L1I LOAD      ACCESS: 32366517  HIT: 32366105  MISS:   412  HIT %: 99.9987  MISS %: 0.00127292  AVERAGE MISS PENALTY: 56.301
L1I RFO       ACCESS:     0  HIT:     0  MISS:     0  HIT %:     0  MISS %:     0  AVERAGE MISS PENALTY: 0
L1I PREFETCH  ACCESS:     0  HIT:     0  MISS:     0  HIT %:     0  MISS %:     0  AVERAGE MISS PENALTY: 0
L1I WRITEBACK ACCESS:     0  HIT:     0  MISS:     0  HIT %:     0  MISS %:     0  AVERAGE MISS PENALTY: 0
L1I PREFETCH  REQUESTED:     0  ISSUED:     0  USEFUL:     0  USELESS:     0
 USEFUL LOAD PREFETCHES:          0 PREFETCH ISSUED TO LOWER LEVEL:          0  ACCURACY: -nan
 TIMELY PREFETCHES:          0 LATE PREFETCHES: 0 DROPPED PREFETCHES: 0
L1I AVERAGE MISS LATENCY: 56.301 cycles
L2C TOTAL     ACCESS: 3905165  HIT: 3063564  MISS: 841601  HIT %: 78.449  MISS %: 21.551  AVERAGE MISS PENALTY: 9.44832e+06
L2C LOAD      ACCESS: 736332  HIT: 515313  MISS: 221019  HIT %: 69.9838  MISS %: 30.0162  AVERAGE MISS PENALTY: 3.59763e+07
L2C RFO       ACCESS: 148547  HIT: 63330  MISS: 85217  HIT %: 42.633  MISS %: 57.367  AVERAGE MISS PENALTY: 2746.48
L2C PREFETCH  ACCESS: 2252789  HIT: 1718999  MISS: 533790  HIT %: 76.3054  MISS %: 23.6946  AVERAGE MISS PENALTY: 73.0739
L2C WRITEBACK ACCESS: 767497  HIT: 765922  MISS:  1575  HIT %: 99.7948  MISS %: 0.205213  AVERAGE MISS PENALTY: 0
L2C PREFETCH  REQUESTED: 1695432  ISSUED: 1670173  USEFUL: 72112  USELESS: 461319
 USEFUL LOAD PREFETCHES:      72112 PREFETCH ISSUED TO LOWER LEVEL:     617006  ACCURACY: 11.6874
 TIMELY PREFETCHES:      72112 LATE PREFETCHES: 43737 DROPPED PREFETCHES: 25259
L2C AVERAGE MISS LATENCY: 98.8492 cycles
LLC0 TOTAL     ACCESS: 138044  HIT: 113883  MISS: 24161  HIT %: 82.4976  MISS %: 17.5024  AVERAGE MISS PENALTY: 294.226
LLC0 LOAD      ACCESS: 27098  HIT: 22391  MISS:  4707  HIT %: 82.6297  MISS %: 17.3703  AVERAGE MISS PENALTY: 287.261
LLC0 RFO       ACCESS: 10865  HIT:  2576  MISS:  8289  HIT %: 23.7092  MISS %: 76.2908  AVERAGE MISS PENALTY: 343.202
LLC0 PREFETCH  ACCESS: 61161  HIT: 50322  MISS: 10839  HIT %: 82.2779  MISS %: 17.7221  AVERAGE MISS PENALTY: 268.647
LLC0 WRITEBACK ACCESS: 38920  HIT: 38594  MISS:   326  HIT %: 99.1624  MISS %: 0.837616  AVERAGE MISS PENALTY: 0
LLC0 PREFETCH  REQUESTED:     0  ISSUED:     0  USEFUL:  3068  USELESS:  7843
 USEFUL LOAD PREFETCHES:       3068 PREFETCH ISSUED TO LOWER LEVEL:      10839  ACCURACY: 28.3052
 TIMELY PREFETCHES:       3068 LATE PREFETCHES: 0 DROPPED PREFETCHES: 0
LLC0 AVERAGE MISS LATENCY: 294.226 cycles
Deadblocks : 3373 Deadblock percentage : 71.6592

LLC1 TOTAL     ACCESS: 144480  HIT: 119969  MISS: 24511  HIT %: 83.035  MISS %: 16.965  AVERAGE MISS PENALTY: 289.535
LLC1 LOAD      ACCESS: 25640  HIT: 22970  MISS:  2670  HIT %: 89.5866  MISS %: 10.4134  AVERAGE MISS PENALTY: 191.27
LLC1 RFO       ACCESS: 10770  HIT:  2582  MISS:  8188  HIT %: 23.974  MISS %: 76.026  AVERAGE MISS PENALTY: 347.112
LLC1 PREFETCH  ACCESS: 67720  HIT: 54420  MISS: 13300  HIT %: 80.3603  MISS %: 19.6397  AVERAGE MISS PENALTY: 281.499
LLC1 WRITEBACK ACCESS: 40350  HIT: 39997  MISS:   353  HIT %: 99.1252  MISS %: 0.874845  AVERAGE MISS PENALTY: 0
LLC1 PREFETCH  REQUESTED:     0  ISSUED:     0  USEFUL:  3647  USELESS:  8852
 USEFUL LOAD PREFETCHES:       3647 PREFETCH ISSUED TO LOWER LEVEL:      13300  ACCURACY: 27.4211
 TIMELY PREFETCHES:       3647 LATE PREFETCHES: 0 DROPPED PREFETCHES: 0
LLC1 AVERAGE MISS LATENCY: 289.535 cycles
LLC2 TOTAL     ACCESS: 148824  HIT: 124278  MISS: 24546  HIT %: 83.5067  MISS %: 16.4933  AVERAGE MISS PENALTY: 288.733
LLC2 LOAD      ACCESS: 27490  HIT: 23348  MISS:  4142  HIT %: 84.9327  MISS %: 15.0673  AVERAGE MISS PENALTY: 281.621
LLC2 RFO       ACCESS: 10754  HIT:  2622  MISS:  8132  HIT %: 24.3816  MISS %: 75.6184  AVERAGE MISS PENALTY: 344.965
LLC2 PREFETCH  ACCESS: 69711  HIT: 57794  MISS: 11917  HIT %: 82.9051  MISS %: 17.0949  AVERAGE MISS PENALTY: 261.434
LLC2 WRITEBACK ACCESS: 40869  HIT: 40514  MISS:   355  HIT %: 99.1314  MISS %: 0.868629  AVERAGE MISS PENALTY: 0
LLC2 PREFETCH  REQUESTED:     0  ISSUED:     0  USEFUL:  3485  USELESS:  8647
 USEFUL LOAD PREFETCHES:       3485 PREFETCH ISSUED TO LOWER LEVEL:      11917  ACCURACY: 29.2439
 TIMELY PREFETCHES:       3485 LATE PREFETCHES: 0 DROPPED PREFETCHES: 0
LLC2 AVERAGE MISS LATENCY: 288.733 cycles
LLC3 TOTAL     ACCESS: 151278  HIT: 126725  MISS: 24553  HIT %: 83.7696  MISS %: 16.2304  AVERAGE MISS PENALTY: 291.754
LLC3 LOAD      ACCESS: 25704  HIT: 23134  MISS:  2570  HIT %: 90.0016  MISS %: 9.99844  AVERAGE MISS PENALTY: 189.802
LLC3 RFO       ACCESS: 10763  HIT:  2595  MISS:  8168  HIT %: 24.1104  MISS %: 75.8896  AVERAGE MISS PENALTY: 351.214
LLC3 PREFETCH  ACCESS: 72792  HIT: 59325  MISS: 13467  HIT %: 81.4993  MISS %: 18.5007  AVERAGE MISS PENALTY: 282.686
LLC3 WRITEBACK ACCESS: 42019  HIT: 41671  MISS:   348  HIT %: 99.1718  MISS %: 0.828197  AVERAGE MISS PENALTY: 0
LLC3 PREFETCH  REQUESTED:     0  ISSUED:     0  USEFUL:  3743  USELESS:  8996
 USEFUL LOAD PREFETCHES:       3743 PREFETCH ISSUED TO LOWER LEVEL:      13467  ACCURACY: 27.7939
 TIMELY PREFETCHES:       3743 LATE PREFETCHES: 0 DROPPED PREFETCHES: 0
LLC3 AVERAGE MISS LATENCY: 291.754 cycles
LLC4 TOTAL     ACCESS: 146148  HIT: 121557  MISS: 24591  HIT %: 83.1739  MISS %: 16.8261  AVERAGE MISS PENALTY: 289.525
LLC4 LOAD      ACCESS: 25777  HIT: 21800  MISS:  3977  HIT %: 84.5715  MISS %: 15.4285  AVERAGE MISS PENALTY: 278.532
LLC4 RFO       ACCESS: 10609  HIT:  2413  MISS:  8196  HIT %: 22.7448  MISS %: 77.2552  AVERAGE MISS PENALTY: 345.252
LLC4 PREFETCH  ACCESS: 70249  HIT: 58181  MISS: 12068  HIT %: 82.8211  MISS %: 17.1789  AVERAGE MISS PENALTY: 263.698
LLC4 WRITEBACK ACCESS: 39513  HIT: 39163  MISS:   350  HIT %: 99.1142  MISS %: 0.885784  AVERAGE MISS PENALTY: 0
LLC4 PREFETCH  REQUESTED:     0  ISSUED:     0  USEFUL:  3530  USELESS:  8807
 USEFUL LOAD PREFETCHES:       3530 PREFETCH ISSUED TO LOWER LEVEL:      12068  ACCURACY: 29.2509
 TIMELY PREFETCHES:       3530 LATE PREFETCHES: 0 DROPPED PREFETCHES: 0
LLC4 AVERAGE MISS LATENCY: 289.525 cycles
LLC5 TOTAL     ACCESS: 144000  HIT: 119508  MISS: 24492  HIT %: 82.9917  MISS %: 17.0083  AVERAGE MISS PENALTY: 294.822
LLC5 LOAD      ACCESS: 23717  HIT: 21159  MISS:  2558  HIT %: 89.2145  MISS %: 10.7855  AVERAGE MISS PENALTY: 191.219
LLC5 RFO       ACCESS: 10464  HIT:  2314  MISS:  8150  HIT %: 22.1139  MISS %: 77.8861  AVERAGE MISS PENALTY: 354.127
LLC5 PREFETCH  ACCESS: 70272  HIT: 56836  MISS: 13436  HIT %: 80.88  MISS %: 19.12  AVERAGE MISS PENALTY: 286.208
LLC5 WRITEBACK ACCESS: 39547  HIT: 39199  MISS:   348  HIT %: 99.12  MISS %: 0.879966  AVERAGE MISS PENALTY: 0
LLC5 PREFETCH  REQUESTED:     0  ISSUED:     0  USEFUL:  3755  USELESS:  9078
 USEFUL LOAD PREFETCHES:       3755 PREFETCH ISSUED TO LOWER LEVEL:      13436  ACCURACY: 27.9473
 TIMELY PREFETCHES:       3755 LATE PREFETCHES: 0 DROPPED PREFETCHES: 0
LLC5 AVERAGE MISS LATENCY: 294.822 cycles
LLC6 TOTAL     ACCESS: 143833  HIT: 119226  MISS: 24607  HIT %: 82.892  MISS %: 17.108  AVERAGE MISS PENALTY: 293.925
LLC6 LOAD      ACCESS: 26227  HIT: 22233  MISS:  3994  HIT %: 84.7714  MISS %: 15.2286  AVERAGE MISS PENALTY: 276.383
LLC6 RFO       ACCESS: 10506  HIT:  2365  MISS:  8141  HIT %: 22.5109  MISS %: 77.4891  AVERAGE MISS PENALTY: 354.595
LLC6 PREFETCH  ACCESS: 67519  HIT: 55393  MISS: 12126  HIT %: 82.0406  MISS %: 17.9594  AVERAGE MISS PENALTY: 267.358
LLC6 WRITEBACK ACCESS: 39581  HIT: 39235  MISS:   346  HIT %: 99.1258  MISS %: 0.874157  AVERAGE MISS PENALTY: 0
LLC6 PREFETCH  REQUESTED:     0  ISSUED:     0  USEFUL:  3429  USELESS:  8716
 USEFUL LOAD PREFETCHES:       3429 PREFETCH ISSUED TO LOWER LEVEL:      12126  ACCURACY: 28.2781
 TIMELY PREFETCHES:       3429 LATE PREFETCHES: 0 DROPPED PREFETCHES: 0
LLC6 AVERAGE MISS LATENCY: 293.925 cycles
LLC7 TOTAL     ACCESS: 143220  HIT: 118678  MISS: 24542  HIT %: 82.8641  MISS %: 17.1359  AVERAGE MISS PENALTY: 295.919
LLC7 LOAD      ACCESS: 23499  HIT: 20903  MISS:  2596  HIT %: 88.9527  MISS %: 11.0473  AVERAGE MISS PENALTY: 189.632
LLC7 RFO       ACCESS: 10484  HIT:  2355  MISS:  8129  HIT %: 22.4628  MISS %: 77.5372  AVERAGE MISS PENALTY: 353.811
LLC7 PREFETCH  ACCESS: 70234  HIT: 56741  MISS: 13493  HIT %: 80.7885  MISS %: 19.2115  AVERAGE MISS PENALTY: 288.597
LLC7 WRITEBACK ACCESS: 39003  HIT: 38679  MISS:   324  HIT %: 99.1693  MISS %: 0.830705  AVERAGE MISS PENALTY: 0
LLC7 PREFETCH  REQUESTED:     0  ISSUED:     0  USEFUL:  3711  USELESS:  9101
 USEFUL LOAD PREFETCHES:       3711 PREFETCH ISSUED TO LOWER LEVEL:      13493  ACCURACY: 27.5031
 TIMELY PREFETCHES:       3711 LATE PREFETCHES: 0 DROPPED PREFETCHES: 0
LLC7 AVERAGE MISS LATENCY: 295.919 cycles
ROI Average ROB Stall Cycles:	5.81868
ROI Total ROB Stalls Cycles:	215480346
ROI TOTAL ROB counter      :	37032528
ROI Average Load ROB Stall Cycles:	9.18996
ROI Total Load ROB Stalls Cycle  :	62926816
ROI Total Load ROB stalls Counter:	6847344
Major fault: 0 Minor fault: 9188

