
*** ChampSim Multicore Out-of-Order Simulator ***

Warmup Instructions: 200000000
Simulation Instructions: 200000000
Number of CPUs: 1
threads:1

L1I Configuration:
L1I_SET:64
L1I_WAY:8
L1I_RQ_SIZE:64
L1I_WQ_SIZE:64
L1I_PQ_SIZE:8
L1I_MSHR_SIZE:8

L1D Configuration:
L1D_SET:64
L1D_WAY:12
L1D_RQ_SIZE:64
L1D_WQ_SIZE:64
L1D_PQ_SIZE:8
L1D_MSHR_SIZE:16

L2C Configuration:
L2C_SET:1024
L2C_WAY:8
L2C_RQ_SIZE:32
L2C_WQ_SIZE:32
L2C_PQ_SIZE:16
L2C_MSHR_SIZE:32

LLC Configuration:
LLC_SET:2048
LLC_WAY:12
LLC SLICES:8
LLC_RQ_SIZE:64
LLC_WQ_SIZE:64
LLC_PQ_SIZE:32
LLC_MSHR_SIZE:64

Interconnect OFF
Attacker deprioritize is: OFF
Off-chip DRAM Size: 4096 MB Channels: 1 Width: 64-bit Data Rate: 3200 MT/s
PAGE SIZE in KB: 4.000000 
PAGE SIZE in MB: 0.003906 
PAGE offset in bits: 12 
CEASER-S_LLC:0
MIRAGE : 1
CEASER_LATENCY:3
REMAP : OFF
Partitions : 1
Multi-Step : OFF
BFS : OFF

CPU 0 runs /home/anubhav/spec_2017/605.mcf_s-1536B.champsimtrace.xz
CPU 0 Bimodal branch predictor
Initialize Hawkeye state
Initialize Hawkeye state
Initialize Hawkeye state
Initialize Hawkeye state
Initialize Hawkeye state
Initialize Hawkeye state
Initialize Hawkeye state
Initialize Hawkeye state
Heartbeat CPU 0 instructions: 10000002 cycles: 3440014 heartbeat IPC: 2.90697 cumulative IPC: 2.90697 (Simulation time: 0 hr 4 min 18 sec) 
 Total Blocks : 196608 Invalid Blocks : 52504 Valid Blocks : 144104
 Total Tags : 491520 Threshold : 12288 Invalid Tags : 249117 Pr0 Tags : 98299 Pr1 Tags : 144104 num_pr0 : 12287
 SAE Count : 0
 Inter-Core Inteference in Data Store : 0
Heartbeat CPU 0 instructions: 20000001 cycles: 6872166 heartbeat IPC: 2.91362 cumulative IPC: 2.91029 (Simulation time: 0 hr 10 min 11 sec) 
 Total Blocks : 196608 Invalid Blocks : 14076 Valid Blocks : 182532
 Total Tags : 491520 Threshold : 12288 Invalid Tags : 210690 Pr0 Tags : 98298 Pr1 Tags : 182532 num_pr0 : 12286
 SAE Count : 0
 Inter-Core Inteference in Data Store : 0
Heartbeat CPU 0 instructions: 30000003 cycles: 10301500 heartbeat IPC: 2.91602 cumulative IPC: 2.9122 (Simulation time: 0 hr 24 min 57 sec) 
 Total Blocks : 196608 Invalid Blocks : 3750 Valid Blocks : 192858
 Total Tags : 491520 Threshold : 12288 Invalid Tags : 200365 Pr0 Tags : 98297 Pr1 Tags : 192858 num_pr0 : 12287
 SAE Count : 0
 Inter-Core Inteference in Data Store : 0
Heartbeat CPU 0 instructions: 40000000 cycles: 13740565 heartbeat IPC: 2.90777 cumulative IPC: 2.91109 (Simulation time: 0 hr 45 min 43 sec) 
 Total Blocks : 196608 Invalid Blocks : 1006 Valid Blocks : 195602
 Total Tags : 491520 Threshold : 12288 Invalid Tags : 197620 Pr0 Tags : 98298 Pr1 Tags : 195602 num_pr0 : 12287
 SAE Count : 0
 Inter-Core Inteference in Data Store : 0
Heartbeat CPU 0 instructions: 50000001 cycles: 17181692 heartbeat IPC: 2.90602 cumulative IPC: 2.91007 (Simulation time: 1 hr 36 min 26 sec) 
 Total Blocks : 196608 Invalid Blocks : 281 Valid Blocks : 196327
 Total Tags : 491520 Threshold : 12288 Invalid Tags : 196898 Pr0 Tags : 98295 Pr1 Tags : 196327 num_pr0 : 12287
 SAE Count : 0
 Inter-Core Inteference in Data Store : 0
Heartbeat CPU 0 instructions: 60000003 cycles: 20614848 heartbeat IPC: 2.91277 cumulative IPC: 2.91052 (Simulation time: 2 hr 34 min 29 sec) 
 Total Blocks : 196608 Invalid Blocks : 71 Valid Blocks : 196537
 Total Tags : 491520 Threshold : 12288 Invalid Tags : 196683 Pr0 Tags : 98300 Pr1 Tags : 196537 num_pr0 : 12287
 SAE Count : 0
 Inter-Core Inteference in Data Store : 0
Heartbeat CPU 0 instructions: 70000000 cycles: 24047866 heartbeat IPC: 2.91289 cumulative IPC: 2.91086 (Simulation time: 3 hr 22 min 24 sec) 
 Total Blocks : 196608 Invalid Blocks : 19 Valid Blocks : 196589
 Total Tags : 491520 Threshold : 12288 Invalid Tags : 196633 Pr0 Tags : 98298 Pr1 Tags : 196589 num_pr0 : 12286
 SAE Count : 0
 Inter-Core Inteference in Data Store : 0
Heartbeat CPU 0 instructions: 80000002 cycles: 27476641 heartbeat IPC: 2.91649 cumulative IPC: 2.91156 (Simulation time: 4 hr 1 min 16 sec) 
 Total Blocks : 196608 Invalid Blocks : 3 Valid Blocks : 196605
 Total Tags : 491520 Threshold : 12288 Invalid Tags : 196615 Pr0 Tags : 98300 Pr1 Tags : 196605 num_pr0 : 12288
 SAE Count : 0
 Inter-Core Inteference in Data Store : 0
Heartbeat CPU 0 instructions: 90000003 cycles: 30904291 heartbeat IPC: 2.91745 cumulative IPC: 2.91222 (Simulation time: 4 hr 44 min 42 sec) 
 Total Blocks : 196608 Invalid Blocks : 0 Valid Blocks : 196608
 Total Tags : 491520 Threshold : 12288 Invalid Tags : 196616 Pr0 Tags : 98296 Pr1 Tags : 196608 num_pr0 : 12287
 SAE Count : 0
 Inter-Core Inteference in Data Store : 0
Heartbeat CPU 0 instructions: 100000003 cycles: 34334089 heartbeat IPC: 2.91562 cumulative IPC: 2.91256 (Simulation time: 5 hr 24 min 50 sec) 
 Total Blocks : 196608 Invalid Blocks : 0 Valid Blocks : 196608
 Total Tags : 491520 Threshold : 12288 Invalid Tags : 196609 Pr0 Tags : 98303 Pr1 Tags : 196608 num_pr0 : 12288
 SAE Count : 0
 Inter-Core Inteference in Data Store : 0
Heartbeat CPU 0 instructions: 110000000 cycles: 37768169 heartbeat IPC: 2.91199 cumulative IPC: 2.91251 (Simulation time: 6 hr 8 min 35 sec) 
 Total Blocks : 196608 Invalid Blocks : 0 Valid Blocks : 196608
 Total Tags : 491520 Threshold : 12288 Invalid Tags : 196613 Pr0 Tags : 98299 Pr1 Tags : 196608 num_pr0 : 12288
 SAE Count : 0
 Inter-Core Inteference in Data Store : 0
Heartbeat CPU 0 instructions: 120000003 cycles: 41204807 heartbeat IPC: 2.90982 cumulative IPC: 2.91228 (Simulation time: 6 hr 51 min 40 sec) 
 Total Blocks : 196608 Invalid Blocks : 0 Valid Blocks : 196608
 Total Tags : 491520 Threshold : 12288 Invalid Tags : 196611 Pr0 Tags : 98301 Pr1 Tags : 196608 num_pr0 : 12287
 SAE Count : 0
 Inter-Core Inteference in Data Store : 0
Heartbeat CPU 0 instructions: 130000002 cycles: 44637599 heartbeat IPC: 2.91308 cumulative IPC: 2.91234 (Simulation time: 7 hr 37 min 25 sec) 
 Total Blocks : 196608 Invalid Blocks : 0 Valid Blocks : 196608
 Total Tags : 491520 Threshold : 12288 Invalid Tags : 196613 Pr0 Tags : 98299 Pr1 Tags : 196608 num_pr0 : 12288
 SAE Count : 0
 Inter-Core Inteference in Data Store : 0
Heartbeat CPU 0 instructions: 140000002 cycles: 48071469 heartbeat IPC: 2.91217 cumulative IPC: 2.91233 (Simulation time: 8 hr 22 min 53 sec) 
 Total Blocks : 196608 Invalid Blocks : 0 Valid Blocks : 196608
 Total Tags : 491520 Threshold : 12288 Invalid Tags : 196615 Pr0 Tags : 98297 Pr1 Tags : 196608 num_pr0 : 12287
 SAE Count : 0
 Inter-Core Inteference in Data Store : 0
Heartbeat CPU 0 instructions: 150000002 cycles: 51503377 heartbeat IPC: 2.91383 cumulative IPC: 2.91243 (Simulation time: 18 hr 1 min 23 sec) 
 Total Blocks : 196608 Invalid Blocks : 0 Valid Blocks : 196608
 Total Tags : 491520 Threshold : 12288 Invalid Tags : 196614 Pr0 Tags : 98298 Pr1 Tags : 196608 num_pr0 : 12288
 SAE Count : 0
 Inter-Core Inteference in Data Store : 0
Heartbeat CPU 0 instructions: 160000002 cycles: 54933853 heartbeat IPC: 2.91505 cumulative IPC: 2.91259 (Simulation time: 39 hr 28 min 1 sec) 
 Total Blocks : 196608 Invalid Blocks : 0 Valid Blocks : 196608
 Total Tags : 491520 Threshold : 12288 Invalid Tags : 196610 Pr0 Tags : 98302 Pr1 Tags : 196608 num_pr0 : 12288
 SAE Count : 0
 Inter-Core Inteference in Data Store : 0
Heartbeat CPU 0 instructions: 170000002 cycles: 58366167 heartbeat IPC: 2.91349 cumulative IPC: 2.91265 (Simulation time: 50 hr 54 min 51 sec) 
 Total Blocks : 196608 Invalid Blocks : 0 Valid Blocks : 196608
 Total Tags : 491520 Threshold : 12288 Invalid Tags : 196613 Pr0 Tags : 98299 Pr1 Tags : 196608 num_pr0 : 12287
 SAE Count : 0
 Inter-Core Inteference in Data Store : 0
Heartbeat CPU 0 instructions: 180000001 cycles: 61799891 heartbeat IPC: 2.91229 cumulative IPC: 2.91263 (Simulation time: 51 hr 10 min 10 sec) 
 Total Blocks : 196608 Invalid Blocks : 0 Valid Blocks : 196608
 Total Tags : 491520 Threshold : 12288 Invalid Tags : 196614 Pr0 Tags : 98298 Pr1 Tags : 196608 num_pr0 : 12288
 SAE Count : 0
 Inter-Core Inteference in Data Store : 0
Heartbeat CPU 0 instructions: 190000003 cycles: 65234773 heartbeat IPC: 2.91131 cumulative IPC: 2.91256 (Simulation time: 51 hr 25 min 50 sec) 
 Total Blocks : 196608 Invalid Blocks : 0 Valid Blocks : 196608
 Total Tags : 491520 Threshold : 12288 Invalid Tags : 196614 Pr0 Tags : 98298 Pr1 Tags : 196608 num_pr0 : 12288
 SAE Count : 0
 Inter-Core Inteference in Data Store : 0
Heartbeat CPU 0 instructions: 200000002 cycles: 68671816 heartbeat IPC: 2.90948 cumulative IPC: 2.9124 (Simulation time: 51 hr 42 min 22 sec) 
 Total Blocks : 196608 Invalid Blocks : 0 Valid Blocks : 196608
 Total Tags : 491520 Threshold : 12288 Invalid Tags : 196611 Pr0 Tags : 98301 Pr1 Tags : 196608 num_pr0 : 12288
 SAE Count : 0
 Inter-Core Inteference in Data Store : 0

Warmup complete CPU 0 instructions: 200000002 cycles: 68671816 (Simulation time: 51 hr 42 min 22 sec) 

Heartbeat CPU 0 instructions: 210000003 cycles: 116118490 heartbeat IPC: 0.210763 cumulative IPC: 0.210763 (Simulation time: 52 hr 13 min 4 sec) 
 Total Blocks : 196608 Invalid Blocks : 0 Valid Blocks : 196608
 Total Tags : 491520 Threshold : 12288 Invalid Tags : 196608 Pr0 Tags : 98304 Pr1 Tags : 196608 num_pr0 : 12288
 SAE Count : 0
 Inter-Core Inteference in Data Store : 0
Heartbeat CPU 0 instructions: 220000000 cycles: 163172757 heartbeat IPC: 0.212521 cumulative IPC: 0.211638 (Simulation time: 52 hr 42 min 53 sec) 
 Total Blocks : 196608 Invalid Blocks : 0 Valid Blocks : 196608
 Total Tags : 491520 Threshold : 12288 Invalid Tags : 196608 Pr0 Tags : 98304 Pr1 Tags : 196608 num_pr0 : 12288
 SAE Count : 0
 Inter-Core Inteference in Data Store : 0
Heartbeat CPU 0 instructions: 230000002 cycles: 210303862 heartbeat IPC: 0.212174 cumulative IPC: 0.211816 (Simulation time: 53 hr 14 min 45 sec) 
 Total Blocks : 196608 Invalid Blocks : 0 Valid Blocks : 196608
 Total Tags : 491520 Threshold : 12288 Invalid Tags : 196608 Pr0 Tags : 98304 Pr1 Tags : 196608 num_pr0 : 12288
 SAE Count : 0
 Inter-Core Inteference in Data Store : 0
Heartbeat CPU 0 instructions: 240000000 cycles: 257415586 heartbeat IPC: 0.212261 cumulative IPC: 0.211928 (Simulation time: 53 hr 45 min 15 sec) 
 Total Blocks : 196608 Invalid Blocks : 0 Valid Blocks : 196608
 Total Tags : 491520 Threshold : 12288 Invalid Tags : 196608 Pr0 Tags : 98304 Pr1 Tags : 196608 num_pr0 : 12288
 SAE Count : 0
 Inter-Core Inteference in Data Store : 0
Heartbeat CPU 0 instructions: 250000000 cycles: 304888196 heartbeat IPC: 0.210648 cumulative IPC: 0.21167 (Simulation time: 54 hr 16 min 32 sec) 
 Total Blocks : 196608 Invalid Blocks : 0 Valid Blocks : 196608
 Total Tags : 491520 Threshold : 12288 Invalid Tags : 196608 Pr0 Tags : 98304 Pr1 Tags : 196608 num_pr0 : 12288
 SAE Count : 0
 Inter-Core Inteference in Data Store : 0
Heartbeat CPU 0 instructions: 260000001 cycles: 352356250 heartbeat IPC: 0.210668 cumulative IPC: 0.211503 (Simulation time: 54 hr 49 min 17 sec) 
 Total Blocks : 196608 Invalid Blocks : 0 Valid Blocks : 196608
 Total Tags : 491520 Threshold : 12288 Invalid Tags : 196608 Pr0 Tags : 98304 Pr1 Tags : 196608 num_pr0 : 12288
 SAE Count : 0
 Inter-Core Inteference in Data Store : 0
Heartbeat CPU 0 instructions: 270000003 cycles: 399690103 heartbeat IPC: 0.211265 cumulative IPC: 0.211469 (Simulation time: 55 hr 21 min 20 sec) 
 Total Blocks : 196608 Invalid Blocks : 0 Valid Blocks : 196608
 Total Tags : 491520 Threshold : 12288 Invalid Tags : 196608 Pr0 Tags : 98304 Pr1 Tags : 196608 num_pr0 : 12288
 SAE Count : 0
 Inter-Core Inteference in Data Store : 0
Heartbeat CPU 0 instructions: 280000000 cycles: 447247804 heartbeat IPC: 0.210271 cumulative IPC: 0.211318 (Simulation time: 55 hr 53 min 43 sec) 
 Total Blocks : 196608 Invalid Blocks : 0 Valid Blocks : 196608
 Total Tags : 491520 Threshold : 12288 Invalid Tags : 196608 Pr0 Tags : 98304 Pr1 Tags : 196608 num_pr0 : 12288
 SAE Count : 0
 Inter-Core Inteference in Data Store : 0
Heartbeat CPU 0 instructions: 290000001 cycles: 494420816 heartbeat IPC: 0.211986 cumulative IPC: 0.211392 (Simulation time: 56 hr 25 min 53 sec) 
 Total Blocks : 196608 Invalid Blocks : 0 Valid Blocks : 196608
 Total Tags : 491520 Threshold : 12288 Invalid Tags : 196608 Pr0 Tags : 98304 Pr1 Tags : 196608 num_pr0 : 12288
 SAE Count : 0
 Inter-Core Inteference in Data Store : 0
Heartbeat CPU 0 instructions: 300000002 cycles: 541747351 heartbeat IPC: 0.211298 cumulative IPC: 0.211383 (Simulation time: 56 hr 56 min 8 sec) 
 Total Blocks : 196608 Invalid Blocks : 0 Valid Blocks : 196608
 Total Tags : 491520 Threshold : 12288 Invalid Tags : 196608 Pr0 Tags : 98304 Pr1 Tags : 196608 num_pr0 : 12288
 SAE Count : 0
 Inter-Core Inteference in Data Store : 0
Heartbeat CPU 0 instructions: 310000000 cycles: 589037470 heartbeat IPC: 0.211461 cumulative IPC: 0.21139 (Simulation time: 57 hr 26 min 31 sec) 
 Total Blocks : 196608 Invalid Blocks : 0 Valid Blocks : 196608
 Total Tags : 491520 Threshold : 12288 Invalid Tags : 196608 Pr0 Tags : 98304 Pr1 Tags : 196608 num_pr0 : 12288
 SAE Count : 0
 Inter-Core Inteference in Data Store : 0
Heartbeat CPU 0 instructions: 320000000 cycles: 636369240 heartbeat IPC: 0.211275 cumulative IPC: 0.21138 (Simulation time: 57 hr 57 min 13 sec) 
 Total Blocks : 196608 Invalid Blocks : 0 Valid Blocks : 196608
 Total Tags : 491520 Threshold : 12288 Invalid Tags : 196608 Pr0 Tags : 98304 Pr1 Tags : 196608 num_pr0 : 12288
 SAE Count : 0
 Inter-Core Inteference in Data Store : 0
Heartbeat CPU 0 instructions: 330000000 cycles: 683622200 heartbeat IPC: 0.211627 cumulative IPC: 0.211399 (Simulation time: 58 hr 28 min 56 sec) 
 Total Blocks : 196608 Invalid Blocks : 0 Valid Blocks : 196608
 Total Tags : 491520 Threshold : 12288 Invalid Tags : 196608 Pr0 Tags : 98304 Pr1 Tags : 196608 num_pr0 : 12288
 SAE Count : 0
 Inter-Core Inteference in Data Store : 0
Heartbeat CPU 0 instructions: 340000000 cycles: 730978355 heartbeat IPC: 0.211166 cumulative IPC: 0.211382 (Simulation time: 59 hr 0 min 16 sec) 
 Total Blocks : 196608 Invalid Blocks : 0 Valid Blocks : 196608
 Total Tags : 491520 Threshold : 12288 Invalid Tags : 196608 Pr0 Tags : 98304 Pr1 Tags : 196608 num_pr0 : 12288
 SAE Count : 0
 Inter-Core Inteference in Data Store : 0
Heartbeat CPU 0 instructions: 350000000 cycles: 778593178 heartbeat IPC: 0.210019 cumulative IPC: 0.211291 (Simulation time: 59 hr 32 min 21 sec) 
 Total Blocks : 196608 Invalid Blocks : 0 Valid Blocks : 196608
 Total Tags : 491520 Threshold : 12288 Invalid Tags : 196610 Pr0 Tags : 98302 Pr1 Tags : 196608 num_pr0 : 12288
 SAE Count : 0
 Inter-Core Inteference in Data Store : 0
Heartbeat CPU 0 instructions: 360000003 cycles: 826096894 heartbeat IPC: 0.21051 cumulative IPC: 0.211242 (Simulation time: 60 hr 4 min 27 sec) 
 Total Blocks : 196608 Invalid Blocks : 0 Valid Blocks : 196608
 Total Tags : 491520 Threshold : 12288 Invalid Tags : 196608 Pr0 Tags : 98304 Pr1 Tags : 196608 num_pr0 : 12288
 SAE Count : 0
 Inter-Core Inteference in Data Store : 0
Heartbeat CPU 0 instructions: 370000000 cycles: 873385951 heartbeat IPC: 0.211465 cumulative IPC: 0.211255 (Simulation time: 60 hr 35 min 13 sec) 
 Total Blocks : 196608 Invalid Blocks : 0 Valid Blocks : 196608
 Total Tags : 491520 Threshold : 12288 Invalid Tags : 196608 Pr0 Tags : 98304 Pr1 Tags : 196608 num_pr0 : 12288
 SAE Count : 0
 Inter-Core Inteference in Data Store : 0
Heartbeat CPU 0 instructions: 380000000 cycles: 920733931 heartbeat IPC: 0.211202 cumulative IPC: 0.211252 (Simulation time: 61 hr 6 min 46 sec) 
 Total Blocks : 196608 Invalid Blocks : 0 Valid Blocks : 196608
 Total Tags : 491520 Threshold : 12288 Invalid Tags : 196608 Pr0 Tags : 98304 Pr1 Tags : 196608 num_pr0 : 12288
 SAE Count : 0
 Inter-Core Inteference in Data Store : 0
Heartbeat CPU 0 instructions: 390000000 cycles: 968035814 heartbeat IPC: 0.211408 cumulative IPC: 0.21126 (Simulation time: 61 hr 37 min 53 sec) 
 Total Blocks : 196608 Invalid Blocks : 0 Valid Blocks : 196608
 Total Tags : 491520 Threshold : 12288 Invalid Tags : 196608 Pr0 Tags : 98304 Pr1 Tags : 196608 num_pr0 : 12288
 SAE Count : 0
 Inter-Core Inteference in Data Store : 0
Heartbeat CPU 0 instructions: 400000001 cycles: 1015476307 heartbeat IPC: 0.21079 cumulative IPC: 0.211237 (Simulation time: 62 hr 9 min 51 sec) 
 Total Blocks : 196608 Invalid Blocks : 0 Valid Blocks : 196608
 Total Tags : 491520 Threshold : 12288 Invalid Tags : 196608 Pr0 Tags : 98304 Pr1 Tags : 196608 num_pr0 : 12288
 SAE Count : 0
 Inter-Core Inteference in Data Store : 0
Finished CPU 0 instructions: 200000003 cycles: 946804492 cumulative IPC: 0.211237 (Simulation time: 62 hr 9 min 52 sec) 

CPU 0 Branch Prediction Accuracy: 99.9619% MPKI: 0.042435 Average ROB Occupancy at Mispredict: 188.164

ChampSim completed all CPUs

Region of Interest Statistics

CPU 0 cumulative IPC: 0.211237 instructions: 200000003 cycles: 946804492
ITLB TOTAL     ACCESS: 45561820  HIT: 45561820  MISS:     0  HIT %:   100  MISS %:     0  AVERAGE MISS PENALTY: 0
ITLB LOAD      ACCESS: 45561820  HIT: 45561820  MISS:     0  HIT %:   100  MISS %:     0  AVERAGE MISS PENALTY: 0
ITLB RFO       ACCESS:     0  HIT:     0  MISS:     0  HIT %:     0  MISS %:     0  AVERAGE MISS PENALTY: 0
ITLB PREFETCH  ACCESS:     0  HIT:     0  MISS:     0  HIT %:     0  MISS %:     0  AVERAGE MISS PENALTY: 0
ITLB WRITEBACK ACCESS:     0  HIT:     0  MISS:     0  HIT %:     0  MISS %:     0  AVERAGE MISS PENALTY: 0
ITLB PREFETCH  REQUESTED:     0  ISSUED:     0  USEFUL:     0  USELESS:     0
 USEFUL LOAD PREFETCHES:          0 PREFETCH ISSUED TO LOWER LEVEL:          0  ACCURACY: -nan
 TIMELY PREFETCHES:          0 LATE PREFETCHES: 0 DROPPED PREFETCHES: 0
ITLB AVERAGE MISS LATENCY: -nan cycles

ITLB Set Associative Eviction Count : 0
ITLB Priority 0 entries : 0
ITLB Inter-Core Interference : 0
DTLB TOTAL     ACCESS: 36823945  HIT: 32058778  MISS: 4765167  HIT %: 87.0596  MISS %: 12.9404  AVERAGE MISS PENALTY: 154.995
DTLB LOAD      ACCESS: 27955174  HIT: 23198671  MISS: 4756503  HIT %: 82.9852  MISS %: 17.0148  AVERAGE MISS PENALTY: 155.022
DTLB RFO       ACCESS: 8868771  HIT: 8860107  MISS:  8664  HIT %: 99.9023  MISS %: 0.0976911  AVERAGE MISS PENALTY: 139.978
DTLB PREFETCH  ACCESS:     0  HIT:     0  MISS:     0  HIT %:     0  MISS %:     0  AVERAGE MISS PENALTY: 0
DTLB WRITEBACK ACCESS:     0  HIT:     0  MISS:     0  HIT %:     0  MISS %:     0  AVERAGE MISS PENALTY: 0
DTLB PREFETCH  REQUESTED:     0  ISSUED:     0  USEFUL:     0  USELESS:     0
 USEFUL LOAD PREFETCHES:          0 PREFETCH ISSUED TO LOWER LEVEL:          0  ACCURACY: -nan
 TIMELY PREFETCHES:          0 LATE PREFETCHES: 0 DROPPED PREFETCHES: 0
DTLB AVERAGE MISS LATENCY: 154.995 cycles

DTLB Set Associative Eviction Count : 0
DTLB Priority 0 entries : 0
DTLB Inter-Core Interference : 0
STLB TOTAL     ACCESS: 4765167  HIT:    81  MISS: 4765086  HIT %: 0.00169984  MISS %: 99.9983  AVERAGE MISS PENALTY: 100
STLB LOAD      ACCESS: 4756503  HIT:    81  MISS: 4756422  HIT %: 0.00170293  MISS %: 99.9983  AVERAGE MISS PENALTY: 100
STLB RFO       ACCESS:  8664  HIT:     0  MISS:  8664  HIT %:     0  MISS %:   100  AVERAGE MISS PENALTY: 100
STLB PREFETCH  ACCESS:     0  HIT:     0  MISS:     0  HIT %:     0  MISS %:     0  AVERAGE MISS PENALTY: 0
STLB WRITEBACK ACCESS:     0  HIT:     0  MISS:     0  HIT %:     0  MISS %:     0  AVERAGE MISS PENALTY: 0
STLB PREFETCH  REQUESTED:     0  ISSUED:     0  USEFUL:     0  USELESS:     0
 USEFUL LOAD PREFETCHES:          0 PREFETCH ISSUED TO LOWER LEVEL:          0  ACCURACY: -nan
 TIMELY PREFETCHES:          0 LATE PREFETCHES: 0 DROPPED PREFETCHES: 0
STLB AVERAGE MISS LATENCY: 100 cycles

STLB Set Associative Eviction Count : 0
STLB Priority 0 entries : 0
STLB Inter-Core Interference : 0
L1D TOTAL     ACCESS: 48102902  HIT: 28677648  MISS: 19425254  HIT %: 59.6173  MISS %: 40.3827  AVERAGE MISS PENALTY: 1.03964e+06
L1D LOAD      ACCESS: 29657386  HIT: 19387717  MISS: 10269669  HIT %: 65.3723  MISS %: 34.6277  AVERAGE MISS PENALTY: 1.96452e+06
L1D RFO       ACCESS: 8868875  HIT: 8316270  MISS: 552605  HIT %: 93.7692  MISS %: 6.23084  AVERAGE MISS PENALTY: 33925.9
L1D PREFETCH  ACCESS: 9576641  HIT: 973661  MISS: 8602980  HIT %: 10.167  MISS %: 89.833  AVERAGE MISS PENALTY: 184.097
L1D WRITEBACK ACCESS:     0  HIT:     0  MISS:     0  HIT %:     0  MISS %:     0  AVERAGE MISS PENALTY: 0
L1D PREFETCH  REQUESTED: 11580175  ISSUED: 11467295  USEFUL: 263094  USELESS: 8339785
 USEFUL LOAD PREFETCHES:     263094 PREFETCH ISSUED TO LOWER LEVEL:   10473611  ACCURACY: 2.51197
 TIMELY PREFETCHES:     263094 LATE PREFETCHES: 1489602 DROPPED PREFETCHES: 112880
L1D AVERAGE MISS LATENCY: 1106.71 cycles

L1D Set Associative Eviction Count : 0
L1D Priority 0 entries : 0
L1D Inter-Core Interference : 0
L1I TOTAL     ACCESS: 54501801  HIT: 54501801  MISS:     0  HIT %:   100  MISS %:     0  AVERAGE MISS PENALTY: 0
L1I LOAD      ACCESS: 54501801  HIT: 54501801  MISS:     0  HIT %:   100  MISS %:     0  AVERAGE MISS PENALTY: 0
L1I RFO       ACCESS:     0  HIT:     0  MISS:     0  HIT %:     0  MISS %:     0  AVERAGE MISS PENALTY: 0
L1I PREFETCH  ACCESS:     0  HIT:     0  MISS:     0  HIT %:     0  MISS %:     0  AVERAGE MISS PENALTY: 0
L1I WRITEBACK ACCESS:     0  HIT:     0  MISS:     0  HIT %:     0  MISS %:     0  AVERAGE MISS PENALTY: 0
L1I PREFETCH  REQUESTED:     0  ISSUED:     0  USEFUL:     0  USELESS:     0
 USEFUL LOAD PREFETCHES:          0 PREFETCH ISSUED TO LOWER LEVEL:          0  ACCURACY: -nan
 TIMELY PREFETCHES:          0 LATE PREFETCHES: 0 DROPPED PREFETCHES: 0
L1I AVERAGE MISS LATENCY: -nan cycles

L1I Set Associative Eviction Count : 0
L1I Priority 0 entries : 0
L1I Inter-Core Interference : 0
L2C TOTAL     ACCESS: 31695223  HIT: 6086710  MISS: 25608513  HIT %: 19.2039  MISS %: 80.7961  AVERAGE MISS PENALTY: 544267
L2C LOAD      ACCESS: 10256069  HIT: 168342  MISS: 10087727  HIT %: 1.64139  MISS %: 98.3586  AVERAGE MISS PENALTY: 1.38141e+06
L2C RFO       ACCESS: 552576  HIT:  4746  MISS: 547830  HIT %: 0.858886  MISS %: 99.1411  AVERAGE MISS PENALTY: 79.3326
L2C PREFETCH  ACCESS: 16452092  HIT: 1479137  MISS: 14972955  HIT %: 8.99057  MISS %: 91.0094  AVERAGE MISS PENALTY: 169.148
L2C WRITEBACK ACCESS: 4434486  HIT: 4434485  MISS:     1  HIT %:   100  MISS %: 2.25505e-05  AVERAGE MISS PENALTY: 0
L2C PREFETCH  REQUESTED: 13908638  ISSUED: 13707606  USEFUL: 127025  USELESS: 14844081
 USEFUL LOAD PREFETCHES:     127025 PREFETCH ISSUED TO LOWER LEVEL:   15517094  ACCURACY: 0.818613
 TIMELY PREFETCHES:     127025 LATE PREFETCHES: 470470 DROPPED PREFETCHES: 201032
L2C AVERAGE MISS LATENCY: 138.412 cycles

L2C Set Associative Eviction Count : 0
L2C Priority 0 entries : 0
L2C Inter-Core Interference : 0
LLC0 TOTAL     ACCESS: 3599694  HIT: 2215208  MISS: 1384486  HIT %: 61.5388  MISS %: 38.4612  AVERAGE MISS PENALTY: 182.24
LLC0 LOAD      ACCESS: 1243304  HIT: 918056  MISS: 325248  HIT %: 73.84  MISS %: 26.16  AVERAGE MISS PENALTY: 185.428
LLC0 RFO       ACCESS: 64927  HIT: 58561  MISS:  6366  HIT %: 90.1951  MISS %: 9.80486  AVERAGE MISS PENALTY: 197.887
LLC0 PREFETCH  ACCESS: 1737050  HIT: 747152  MISS: 989898  HIT %: 43.0127  MISS %: 56.9873  AVERAGE MISS PENALTY: 192.685
LLC0 WRITEBACK ACCESS: 554413  HIT: 491439  MISS: 62974  HIT %: 88.6413  MISS %: 11.3587  AVERAGE MISS PENALTY: 0
LLC0 PREFETCH  REQUESTED:     0  ISSUED:     0  USEFUL: 340569  USELESS: 60844
 USEFUL LOAD PREFETCHES:     340569 PREFETCH ISSUED TO LOWER LEVEL:     989898  ACCURACY: 34.4045
 TIMELY PREFETCHES:     340569 LATE PREFETCHES: 0 DROPPED PREFETCHES: 0
LLC0 AVERAGE MISS LATENCY: 182.24 cycles

LLC0 Set Associative Eviction Count : 0
LLC0 Priority 0 entries : 12288
LLC0 Inter-Core Interference : 0
LLC1 TOTAL     ACCESS: 3733936  HIT: 2331955  MISS: 1401981  HIT %: 62.453  MISS %: 37.547  AVERAGE MISS PENALTY: 188.933
LLC1 LOAD      ACCESS: 1264280  HIT: 938064  MISS: 326216  HIT %: 74.1975  MISS %: 25.8025  AVERAGE MISS PENALTY: 185.583
LLC1 RFO       ACCESS: 68974  HIT: 66390  MISS:  2584  HIT %: 96.2537  MISS %: 3.74634  AVERAGE MISS PENALTY: 201.569
LLC1 PREFETCH  ACCESS: 1846251  HIT: 786348  MISS: 1059903  HIT %: 42.5916  MISS %: 57.4084  AVERAGE MISS PENALTY: 192.3
LLC1 WRITEBACK ACCESS: 554431  HIT: 541153  MISS: 13278  HIT %: 97.6051  MISS %: 2.39489  AVERAGE MISS PENALTY: 0
LLC1 PREFETCH  REQUESTED:     0  ISSUED:     0  USEFUL: 337693  USELESS: 59851
 USEFUL LOAD PREFETCHES:     337693 PREFETCH ISSUED TO LOWER LEVEL:    1059905  ACCURACY: 31.8607
 TIMELY PREFETCHES:     337693 LATE PREFETCHES: 0 DROPPED PREFETCHES: 0
LLC1 AVERAGE MISS LATENCY: 188.933 cycles

LLC1 Set Associative Eviction Count : 0
LLC1 Priority 0 entries : 12288
LLC1 Inter-Core Interference : 0
LLC2 TOTAL     ACCESS: 3858163  HIT: 2458955  MISS: 1399208  HIT %: 63.7338  MISS %: 36.2662  AVERAGE MISS PENALTY: 188.744
LLC2 LOAD      ACCESS: 1291406  HIT: 1031210  MISS: 260196  HIT %: 79.8517  MISS %: 20.1483  AVERAGE MISS PENALTY: 185.378
LLC2 RFO       ACCESS: 69003  HIT: 66985  MISS:  2018  HIT %: 97.0755  MISS %: 2.92451  AVERAGE MISS PENALTY: 202.13
LLC2 PREFETCH  ACCESS: 1943308  HIT: 816041  MISS: 1127267  HIT %: 41.9924  MISS %: 58.0076  AVERAGE MISS PENALTY: 191.125
LLC2 WRITEBACK ACCESS: 554446  HIT: 544719  MISS:  9727  HIT %: 98.2456  MISS %: 1.75436  AVERAGE MISS PENALTY: 0
LLC2 PREFETCH  REQUESTED:     0  ISSUED:     0  USEFUL: 396930  USELESS: 62515
 USEFUL LOAD PREFETCHES:     396930 PREFETCH ISSUED TO LOWER LEVEL:    1127268  ACCURACY: 35.2117
 TIMELY PREFETCHES:     396930 LATE PREFETCHES: 0 DROPPED PREFETCHES: 0
LLC2 AVERAGE MISS LATENCY: 188.744 cycles

LLC2 Set Associative Eviction Count : 0
LLC2 Priority 0 entries : 12288
LLC2 Inter-Core Interference : 0
LLC3 TOTAL     ACCESS: 3816969  HIT: 2438376  MISS: 1378593  HIT %: 63.8825  MISS %: 36.1175  AVERAGE MISS PENALTY: 187.739
LLC3 LOAD      ACCESS: 1251922  HIT: 987453  MISS: 264469  HIT %: 78.875  MISS %: 21.125  AVERAGE MISS PENALTY: 184.554
LLC3 RFO       ACCESS: 68942  HIT: 66771  MISS:  2171  HIT %: 96.851  MISS %: 3.14902  AVERAGE MISS PENALTY: 200.372
LLC3 PREFETCH  ACCESS: 1941654  HIT: 839589  MISS: 1102065  HIT %: 43.2409  MISS %: 56.7591  AVERAGE MISS PENALTY: 190.162
LLC3 WRITEBACK ACCESS: 554451  HIT: 544563  MISS:  9888  HIT %: 98.2166  MISS %: 1.78339  AVERAGE MISS PENALTY: 0
LLC3 PREFETCH  REQUESTED:     0  ISSUED:     0  USEFUL: 391266  USELESS: 53052
 USEFUL LOAD PREFETCHES:     391266 PREFETCH ISSUED TO LOWER LEVEL:    1102065  ACCURACY: 35.503
 TIMELY PREFETCHES:     391266 LATE PREFETCHES: 0 DROPPED PREFETCHES: 0
LLC3 AVERAGE MISS LATENCY: 187.739 cycles

LLC3 Set Associative Eviction Count : 0
LLC3 Priority 0 entries : 12288
LLC3 Inter-Core Interference : 0
LLC4 TOTAL     ACCESS: 3788732  HIT: 2407149  MISS: 1381583  HIT %: 63.5344  MISS %: 36.4656  AVERAGE MISS PENALTY: 187.906
LLC4 LOAD      ACCESS: 1249705  HIT: 978236  MISS: 271469  HIT %: 78.2774  MISS %: 21.7226  AVERAGE MISS PENALTY: 184.751
LLC4 RFO       ACCESS: 68965  HIT: 66539  MISS:  2426  HIT %: 96.4823  MISS %: 3.51773  AVERAGE MISS PENALTY: 202.317
LLC4 PREFETCH  ACCESS: 1915579  HIT: 818019  MISS: 1097560  HIT %: 42.7035  MISS %: 57.2965  AVERAGE MISS PENALTY: 190.389
LLC4 WRITEBACK ACCESS: 554483  HIT: 544355  MISS: 10128  HIT %: 98.1734  MISS %: 1.82657  AVERAGE MISS PENALTY: 0
LLC4 PREFETCH  REQUESTED:     0  ISSUED:     0  USEFUL: 384259  USELESS: 54184
 USEFUL LOAD PREFETCHES:     384259 PREFETCH ISSUED TO LOWER LEVEL:    1097560  ACCURACY: 35.0103
 TIMELY PREFETCHES:     384259 LATE PREFETCHES: 0 DROPPED PREFETCHES: 0
LLC4 AVERAGE MISS LATENCY: 187.906 cycles

LLC4 Set Associative Eviction Count : 0
LLC4 Priority 0 entries : 12288
LLC4 Inter-Core Interference : 0
LLC5 TOTAL     ACCESS: 3752278  HIT: 2367442  MISS: 1384836  HIT %: 63.0935  MISS %: 36.9065  AVERAGE MISS PENALTY: 188.149
LLC5 LOAD      ACCESS: 1250980  HIT: 975705  MISS: 275275  HIT %: 77.9953  MISS %: 22.0047  AVERAGE MISS PENALTY: 184.855
LLC5 RFO       ACCESS: 69030  HIT: 66617  MISS:  2413  HIT %: 96.5044  MISS %: 3.49558  AVERAGE MISS PENALTY: 200.204
LLC5 PREFETCH  ACCESS: 1877783  HIT: 781189  MISS: 1096594  HIT %: 41.6017  MISS %: 58.3983  AVERAGE MISS PENALTY: 190.761
LLC5 WRITEBACK ACCESS: 554485  HIT: 543931  MISS: 10554  HIT %: 98.0966  MISS %: 1.90339  AVERAGE MISS PENALTY: 0
LLC5 PREFETCH  REQUESTED:     0  ISSUED:     0  USEFUL: 380462  USELESS: 54884
 USEFUL LOAD PREFETCHES:     380462 PREFETCH ISSUED TO LOWER LEVEL:    1096594  ACCURACY: 34.6949
 TIMELY PREFETCHES:     380462 LATE PREFETCHES: 0 DROPPED PREFETCHES: 0
LLC5 AVERAGE MISS LATENCY: 188.149 cycles

LLC5 Set Associative Eviction Count : 0
LLC5 Priority 0 entries : 12288
LLC5 Inter-Core Interference : 0
LLC6 TOTAL     ACCESS: 3750009  HIT: 2364522  MISS: 1385487  HIT %: 63.0538  MISS %: 36.9462  AVERAGE MISS PENALTY: 188.11
LLC6 LOAD      ACCESS: 1250419  HIT: 975370  MISS: 275049  HIT %: 78.0035  MISS %: 21.9965  AVERAGE MISS PENALTY: 184.917
LLC6 RFO       ACCESS: 68991  HIT: 66694  MISS:  2297  HIT %: 96.6706  MISS %: 3.32942  AVERAGE MISS PENALTY: 199.057
LLC6 PREFETCH  ACCESS: 1876128  HIT: 778789  MISS: 1097339  HIT %: 41.5104  MISS %: 58.4896  AVERAGE MISS PENALTY: 190.74
LLC6 WRITEBACK ACCESS: 554471  HIT: 543669  MISS: 10802  HIT %: 98.0518  MISS %: 1.94816  AVERAGE MISS PENALTY: 0
LLC6 PREFETCH  REQUESTED:     0  ISSUED:     0  USEFUL: 381258  USELESS: 54250
 USEFUL LOAD PREFETCHES:     381258 PREFETCH ISSUED TO LOWER LEVEL:    1097339  ACCURACY: 34.7439
 TIMELY PREFETCHES:     381258 LATE PREFETCHES: 0 DROPPED PREFETCHES: 0
LLC6 AVERAGE MISS LATENCY: 188.11 cycles

LLC6 Set Associative Eviction Count : 0
LLC6 Priority 0 entries : 12288
LLC6 Inter-Core Interference : 0
LLC7 TOTAL     ACCESS: 3744380  HIT: 2359667  MISS: 1384713  HIT %: 63.0189  MISS %: 36.9811  AVERAGE MISS PENALTY: 188.161
LLC7 LOAD      ACCESS: 1275973  HIT: 987293  MISS: 288680  HIT %: 77.3757  MISS %: 22.6243  AVERAGE MISS PENALTY: 185.052
LLC7 RFO       ACCESS: 68998  HIT: 66528  MISS:  2470  HIT %: 96.4202  MISS %: 3.57981  AVERAGE MISS PENALTY: 197.381
LLC7 PREFETCH  ACCESS: 1844940  HIT: 762744  MISS: 1082196  HIT %: 41.3425  MISS %: 58.6575  AVERAGE MISS PENALTY: 190.946
LLC7 WRITEBACK ACCESS: 554469  HIT: 543102  MISS: 11367  HIT %: 97.9499  MISS %: 2.05007  AVERAGE MISS PENALTY: 0
LLC7 PREFETCH  REQUESTED:     0  ISSUED:     0  USEFUL: 369721  USELESS: 51607
 USEFUL LOAD PREFETCHES:     369721 PREFETCH ISSUED TO LOWER LEVEL:    1082196  ACCURACY: 34.164
 TIMELY PREFETCHES:     369721 LATE PREFETCHES: 0 DROPPED PREFETCHES: 0
LLC7 AVERAGE MISS LATENCY: 188.161 cycles

LLC7 Set Associative Eviction Count : 0
LLC7 Priority 0 entries : 12288
LLC7 Inter-Core Interference : 0
ROI Average ROB Stall Cycles:	37.0565
ROI Total ROB Stalls Cycles:	871719634
ROI TOTAL ROB counter      :	23524065
ROI Average Load ROB Stall Cycles:	103.003
ROI Total Load ROB Stalls Cycle  :	679150635
ROI Total Load ROB stalls Counter:	6593487
Major fault: 0 Minor fault: 159305

Interconnect Stats 
LINK 0 BW : 0LINK 1 BW : 0LINK 2 BW : 0LINK 3 BW : 0LINK 4 BW : 0LINK 5 BW : 0LINK 6 BW : 0LINK 7 BW : 0
DRAM Statistics
 CHANNEL 0
 RQ ROW_BUFFER_HIT: 93223  ROW_BUFFER_MISS: 10868929
 DBUS_CONGESTED: 7779040
 WQ ROW_BUFFER_HIT: 726884  ROW_BUFFER_MISS: 3719820  FULL:     0

 AVG_CONGESTED_CYCLE: 5
DRAM PAGES: 1048576
Allocated PAGES: 159305
L2C destructor called
L1D destructor called
L1I destructor called
STLB destructor called
DTLB destructor called
ITLB destructor called
