
*** ChampSim Multicore Out-of-Order Simulator ***

Warmup Instructions: 200000000
Simulation Instructions: 200000000
Number of CPUs: 8
threads:1

L1I Configuration:
L1I_SET:64
L1I_WAY:8
L1I_RQ_SIZE:64
L1I_WQ_SIZE:64
L1I_PQ_SIZE:8
L1I_MSHR_SIZE:8

L1D Configuration:
L1D_SET:64
L1D_WAY:12
L1D_RQ_SIZE:64
L1D_WQ_SIZE:64
L1D_PQ_SIZE:8
L1D_MSHR_SIZE:16

L2C Configuration:
L2C_SET:1024
L2C_WAY:8
L2C_RQ_SIZE:32
L2C_WQ_SIZE:32
L2C_PQ_SIZE:16
L2C_MSHR_SIZE:32

LLC Configuration:
LLC_SET:2048
LLC_WAY:12
LLC SLICES:8
LLC_RQ_SIZE:64
LLC_WQ_SIZE:64
LLC_PQ_SIZE:32
LLC_MSHR_SIZE:64

Interconnect OFF
Attacker deprioritize is: OFF
Off-chip DRAM Size: 8192 MB Channels: 2 Width: 64-bit Data Rate: 3200 MT/s
PAGE SIZE in KB: 4.000000 
PAGE SIZE in MB: 0.003906 
PAGE offset in bits: 12 
CEASER-S_LLC:0
MIRAGE : 1
CEASER_LATENCY:3
REMAP : OFF
Partitions : 1
Multi-Step : OFF
BFS : OFF

CPU 0 runs /home/anubhav/spec_2017/602.gcc_s-1850B.champsimtrace.xz
CPU 1 runs /home/anubhav/spec_2017/602.gcc_s-1850B.champsimtrace.xz
CPU 2 runs /home/anubhav/spec_2017/602.gcc_s-1850B.champsimtrace.xz
CPU 3 runs /home/anubhav/spec_2017/602.gcc_s-1850B.champsimtrace.xz
CPU 4 runs /home/anubhav/spec_2017/602.gcc_s-1850B.champsimtrace.xz
CPU 5 runs /home/anubhav/spec_2017/602.gcc_s-1850B.champsimtrace.xz
CPU 6 runs /home/anubhav/spec_2017/602.gcc_s-1850B.champsimtrace.xz
CPU 7 runs /home/anubhav/spec_2017/602.gcc_s-1850B.champsimtrace.xz
CPU 0 Bimodal branch predictor
Initialize Hawkeye state
Initialize Hawkeye state
Initialize Hawkeye state
Initialize Hawkeye state
Initialize Hawkeye state
Initialize Hawkeye state
Initialize Hawkeye state
Initialize Hawkeye state
CPU 1 Bimodal branch predictor
Initialize Hawkeye state
Initialize Hawkeye state
Initialize Hawkeye state
Initialize Hawkeye state
Initialize Hawkeye state
Initialize Hawkeye state
Initialize Hawkeye state
Initialize Hawkeye state
CPU 2 Bimodal branch predictor
Initialize Hawkeye state
Initialize Hawkeye state
Initialize Hawkeye state
Initialize Hawkeye state
Initialize Hawkeye state
Initialize Hawkeye state
Initialize Hawkeye state
Initialize Hawkeye state
CPU 3 Bimodal branch predictor
Initialize Hawkeye state
Initialize Hawkeye state
Initialize Hawkeye state
Initialize Hawkeye state
Initialize Hawkeye state
Initialize Hawkeye state
Initialize Hawkeye state
Initialize Hawkeye state
CPU 4 Bimodal branch predictor
Initialize Hawkeye state
Initialize Hawkeye state
Initialize Hawkeye state
Initialize Hawkeye state
Initialize Hawkeye state
Initialize Hawkeye state
Initialize Hawkeye state
Initialize Hawkeye state
CPU 5 Bimodal branch predictor
Initialize Hawkeye state
Initialize Hawkeye state
Initialize Hawkeye state
Initialize Hawkeye state
Initialize Hawkeye state
Initialize Hawkeye state
Initialize Hawkeye state
Initialize Hawkeye state
CPU 6 Bimodal branch predictor
Initialize Hawkeye state
Initialize Hawkeye state
Initialize Hawkeye state
Initialize Hawkeye state
Initialize Hawkeye state
Initialize Hawkeye state
Initialize Hawkeye state
Initialize Hawkeye state
CPU 7 Bimodal branch predictor
Initialize Hawkeye state
Initialize Hawkeye state
Initialize Hawkeye state
Initialize Hawkeye state
Initialize Hawkeye state
Initialize Hawkeye state
Initialize Hawkeye state
Initialize Hawkeye state
FILL
Heartbeat CPU 2 instructions: 10000001 cycles: 9673971 heartbeat IPC: 1.0337 cumulative IPC: 1.0337 (Simulation time: 0 hr 31 min 35 sec) 
 Total Blocks : 196608 Invalid Blocks : 181015 Valid Blocks : 15593
 Total Tags : 491520 Threshold : 12288 Invalid Tags : 377624 Pr0 Tags : 98303 Pr1 Tags : 15593 num_pr0 : 12288
 SAE Count : 0
 Inter-Core Inteference in Data Store : 582
Heartbeat CPU 0 instructions: 10000001 cycles: 9673991 heartbeat IPC: 1.0337 cumulative IPC: 1.0337 (Simulation time: 0 hr 31 min 35 sec) 
 Total Blocks : 196608 Invalid Blocks : 181013 Valid Blocks : 15595
 Total Tags : 491520 Threshold : 12288 Invalid Tags : 377624 Pr0 Tags : 98301 Pr1 Tags : 15595 num_pr0 : 12288
 SAE Count : 0
 Inter-Core Inteference in Data Store : 582
Heartbeat CPU 5 instructions: 10000001 cycles: 9674009 heartbeat IPC: 1.0337 cumulative IPC: 1.0337 (Simulation time: 0 hr 31 min 35 sec) 
 Total Blocks : 196608 Invalid Blocks : 181013 Valid Blocks : 15595
 Total Tags : 491520 Threshold : 12288 Invalid Tags : 377624 Pr0 Tags : 98301 Pr1 Tags : 15595 num_pr0 : 12288
 SAE Count : 0
 Inter-Core Inteference in Data Store : 582
Heartbeat CPU 1 instructions: 10000001 cycles: 9674021 heartbeat IPC: 1.0337 cumulative IPC: 1.0337 (Simulation time: 0 hr 31 min 35 sec) 
 Total Blocks : 196608 Invalid Blocks : 181013 Valid Blocks : 15595
 Total Tags : 491520 Threshold : 12288 Invalid Tags : 377624 Pr0 Tags : 98301 Pr1 Tags : 15595 num_pr0 : 12288
 SAE Count : 0
 Inter-Core Inteference in Data Store : 582
Heartbeat CPU 3 instructions: 10000001 cycles: 9674022 heartbeat IPC: 1.0337 cumulative IPC: 1.0337 (Simulation time: 0 hr 31 min 35 sec) 
 Total Blocks : 196608 Invalid Blocks : 181013 Valid Blocks : 15595
 Total Tags : 491520 Threshold : 12288 Invalid Tags : 377624 Pr0 Tags : 98301 Pr1 Tags : 15595 num_pr0 : 12288
 SAE Count : 0
 Inter-Core Inteference in Data Store : 582
Heartbeat CPU 4 instructions: 10000001 cycles: 9674024 heartbeat IPC: 1.0337 cumulative IPC: 1.0337 (Simulation time: 0 hr 31 min 35 sec) 
 Total Blocks : 196608 Invalid Blocks : 181013 Valid Blocks : 15595
 Total Tags : 491520 Threshold : 12288 Invalid Tags : 377624 Pr0 Tags : 98301 Pr1 Tags : 15595 num_pr0 : 12288
 SAE Count : 0
 Inter-Core Inteference in Data Store : 582
Heartbeat CPU 6 instructions: 10000001 cycles: 9674614 heartbeat IPC: 1.03363 cumulative IPC: 1.03363 (Simulation time: 0 hr 31 min 36 sec) 
 Total Blocks : 196608 Invalid Blocks : 181011 Valid Blocks : 15597
 Total Tags : 491520 Threshold : 12288 Invalid Tags : 377619 Pr0 Tags : 98304 Pr1 Tags : 15597 num_pr0 : 12288
 SAE Count : 0
 Inter-Core Inteference in Data Store : 582
Heartbeat CPU 7 instructions: 10000001 cycles: 9674643 heartbeat IPC: 1.03363 cumulative IPC: 1.03363 (Simulation time: 0 hr 31 min 36 sec) 
 Total Blocks : 196608 Invalid Blocks : 181011 Valid Blocks : 15597
 Total Tags : 491520 Threshold : 12288 Invalid Tags : 377619 Pr0 Tags : 98304 Pr1 Tags : 15597 num_pr0 : 12288
 SAE Count : 0
 Inter-Core Inteference in Data Store : 582
Heartbeat CPU 2 instructions: 20000003 cycles: 19343831 heartbeat IPC: 1.03414 cumulative IPC: 1.03392 (Simulation time: 1 hr 18 min 28 sec) 
 Total Blocks : 196608 Invalid Blocks : 177186 Valid Blocks : 19422
 Total Tags : 491520 Threshold : 12288 Invalid Tags : 373794 Pr0 Tags : 98304 Pr1 Tags : 19422 num_pr0 : 12288
 SAE Count : 0
 Inter-Core Inteference in Data Store : 902
Heartbeat CPU 0 instructions: 20000003 cycles: 19343841 heartbeat IPC: 1.03414 cumulative IPC: 1.03392 (Simulation time: 1 hr 18 min 28 sec) 
 Total Blocks : 196608 Invalid Blocks : 177186 Valid Blocks : 19422
 Total Tags : 491520 Threshold : 12288 Invalid Tags : 373794 Pr0 Tags : 98304 Pr1 Tags : 19422 num_pr0 : 12288
 SAE Count : 0
 Inter-Core Inteference in Data Store : 902
Heartbeat CPU 5 instructions: 20000003 cycles: 19343857 heartbeat IPC: 1.03414 cumulative IPC: 1.03392 (Simulation time: 1 hr 18 min 28 sec) 
 Total Blocks : 196608 Invalid Blocks : 177186 Valid Blocks : 19422
 Total Tags : 491520 Threshold : 12288 Invalid Tags : 373794 Pr0 Tags : 98304 Pr1 Tags : 19422 num_pr0 : 12288
 SAE Count : 0
 Inter-Core Inteference in Data Store : 902
Heartbeat CPU 1 instructions: 20000003 cycles: 19343890 heartbeat IPC: 1.03414 cumulative IPC: 1.03392 (Simulation time: 1 hr 18 min 28 sec) 
 Total Blocks : 196608 Invalid Blocks : 177186 Valid Blocks : 19422
 Total Tags : 491520 Threshold : 12288 Invalid Tags : 373794 Pr0 Tags : 98304 Pr1 Tags : 19422 num_pr0 : 12288
 SAE Count : 0
 Inter-Core Inteference in Data Store : 902
Heartbeat CPU 3 instructions: 20000003 cycles: 19343894 heartbeat IPC: 1.03414 cumulative IPC: 1.03392 (Simulation time: 1 hr 18 min 28 sec) 
 Total Blocks : 196608 Invalid Blocks : 177186 Valid Blocks : 19422
 Total Tags : 491520 Threshold : 12288 Invalid Tags : 373794 Pr0 Tags : 98304 Pr1 Tags : 19422 num_pr0 : 12288
 SAE Count : 0
 Inter-Core Inteference in Data Store : 902
Heartbeat CPU 4 instructions: 20000003 cycles: 19343904 heartbeat IPC: 1.03414 cumulative IPC: 1.03392 (Simulation time: 1 hr 18 min 28 sec) 
 Total Blocks : 196608 Invalid Blocks : 177186 Valid Blocks : 19422
 Total Tags : 491520 Threshold : 12288 Invalid Tags : 373794 Pr0 Tags : 98304 Pr1 Tags : 19422 num_pr0 : 12288
 SAE Count : 0
 Inter-Core Inteference in Data Store : 902
Heartbeat CPU 6 instructions: 20000003 cycles: 19345109 heartbeat IPC: 1.03407 cumulative IPC: 1.03385 (Simulation time: 1 hr 18 min 29 sec) 
 Total Blocks : 196608 Invalid Blocks : 177186 Valid Blocks : 19422
 Total Tags : 491520 Threshold : 12288 Invalid Tags : 373794 Pr0 Tags : 98304 Pr1 Tags : 19422 num_pr0 : 12288
 SAE Count : 0
 Inter-Core Inteference in Data Store : 902
Heartbeat CPU 7 instructions: 20000003 cycles: 19345141 heartbeat IPC: 1.03407 cumulative IPC: 1.03385 (Simulation time: 1 hr 18 min 29 sec) 
 Total Blocks : 196608 Invalid Blocks : 177186 Valid Blocks : 19422
 Total Tags : 491520 Threshold : 12288 Invalid Tags : 373794 Pr0 Tags : 98304 Pr1 Tags : 19422 num_pr0 : 12288
 SAE Count : 0
 Inter-Core Inteference in Data Store : 902
Heartbeat CPU 2 instructions: 30000003 cycles: 29016231 heartbeat IPC: 1.03387 cumulative IPC: 1.0339 (Simulation time: 2 hr 20 min 26 sec) 
 Total Blocks : 196608 Invalid Blocks : 172797 Valid Blocks : 23811
 Total Tags : 491520 Threshold : 12288 Invalid Tags : 369405 Pr0 Tags : 98304 Pr1 Tags : 23811 num_pr0 : 12288
 SAE Count : 0
 Inter-Core Inteference in Data Store : 1341
Heartbeat CPU 0 instructions: 30000003 cycles: 29016241 heartbeat IPC: 1.03387 cumulative IPC: 1.0339 (Simulation time: 2 hr 20 min 26 sec) 
 Total Blocks : 196608 Invalid Blocks : 172797 Valid Blocks : 23811
 Total Tags : 491520 Threshold : 12288 Invalid Tags : 369405 Pr0 Tags : 98304 Pr1 Tags : 23811 num_pr0 : 12288
 SAE Count : 0
 Inter-Core Inteference in Data Store : 1341
Heartbeat CPU 5 instructions: 30000003 cycles: 29016265 heartbeat IPC: 1.03387 cumulative IPC: 1.0339 (Simulation time: 2 hr 20 min 26 sec) 
 Total Blocks : 196608 Invalid Blocks : 172797 Valid Blocks : 23811
 Total Tags : 491520 Threshold : 12288 Invalid Tags : 369405 Pr0 Tags : 98304 Pr1 Tags : 23811 num_pr0 : 12288
 SAE Count : 0
 Inter-Core Inteference in Data Store : 1341
Heartbeat CPU 1 instructions: 30000003 cycles: 29016324 heartbeat IPC: 1.03387 cumulative IPC: 1.0339 (Simulation time: 2 hr 20 min 26 sec) 
 Total Blocks : 196608 Invalid Blocks : 172797 Valid Blocks : 23811
 Total Tags : 491520 Threshold : 12288 Invalid Tags : 369405 Pr0 Tags : 98304 Pr1 Tags : 23811 num_pr0 : 12288
 SAE Count : 0
 Inter-Core Inteference in Data Store : 1341
Heartbeat CPU 3 instructions: 30000003 cycles: 29016329 heartbeat IPC: 1.03387 cumulative IPC: 1.0339 (Simulation time: 2 hr 20 min 26 sec) 
 Total Blocks : 196608 Invalid Blocks : 172797 Valid Blocks : 23811
 Total Tags : 491520 Threshold : 12288 Invalid Tags : 369405 Pr0 Tags : 98304 Pr1 Tags : 23811 num_pr0 : 12288
 SAE Count : 0
 Inter-Core Inteference in Data Store : 1341
Heartbeat CPU 4 instructions: 30000003 cycles: 29016331 heartbeat IPC: 1.03387 cumulative IPC: 1.0339 (Simulation time: 2 hr 20 min 26 sec) 
 Total Blocks : 196608 Invalid Blocks : 172797 Valid Blocks : 23811
 Total Tags : 491520 Threshold : 12288 Invalid Tags : 369405 Pr0 Tags : 98304 Pr1 Tags : 23811 num_pr0 : 12288
 SAE Count : 0
 Inter-Core Inteference in Data Store : 1341
Heartbeat CPU 6 instructions: 30000003 cycles: 29018085 heartbeat IPC: 1.03381 cumulative IPC: 1.03384 (Simulation time: 2 hr 20 min 27 sec) 
 Total Blocks : 196608 Invalid Blocks : 172797 Valid Blocks : 23811
 Total Tags : 491520 Threshold : 12288 Invalid Tags : 369405 Pr0 Tags : 98304 Pr1 Tags : 23811 num_pr0 : 12288
 SAE Count : 0
 Inter-Core Inteference in Data Store : 1341
Heartbeat CPU 7 instructions: 30000003 cycles: 29018159 heartbeat IPC: 1.0338 cumulative IPC: 1.03384 (Simulation time: 2 hr 20 min 27 sec) 
 Total Blocks : 196608 Invalid Blocks : 172797 Valid Blocks : 23811
 Total Tags : 491520 Threshold : 12288 Invalid Tags : 369405 Pr0 Tags : 98304 Pr1 Tags : 23811 num_pr0 : 12288
 SAE Count : 0
 Inter-Core Inteference in Data Store : 1341
Heartbeat CPU 2 instructions: 40000003 cycles: 38686916 heartbeat IPC: 1.03405 cumulative IPC: 1.03394 (Simulation time: 3 hr 37 min 5 sec) 
 Total Blocks : 196608 Invalid Blocks : 168684 Valid Blocks : 27924
 Total Tags : 491520 Threshold : 12288 Invalid Tags : 365292 Pr0 Tags : 98304 Pr1 Tags : 27924 num_pr0 : 12288
 SAE Count : 0
 Inter-Core Inteference in Data Store : 1888
Heartbeat CPU 0 instructions: 40000003 cycles: 38686921 heartbeat IPC: 1.03405 cumulative IPC: 1.03394 (Simulation time: 3 hr 37 min 5 sec) 
 Total Blocks : 196608 Invalid Blocks : 168684 Valid Blocks : 27924
 Total Tags : 491520 Threshold : 12288 Invalid Tags : 365292 Pr0 Tags : 98304 Pr1 Tags : 27924 num_pr0 : 12288
 SAE Count : 0
 Inter-Core Inteference in Data Store : 1888
Heartbeat CPU 5 instructions: 40000003 cycles: 38686943 heartbeat IPC: 1.03405 cumulative IPC: 1.03394 (Simulation time: 3 hr 37 min 5 sec) 
 Total Blocks : 196608 Invalid Blocks : 168684 Valid Blocks : 27924
 Total Tags : 491520 Threshold : 12288 Invalid Tags : 365292 Pr0 Tags : 98304 Pr1 Tags : 27924 num_pr0 : 12288
 SAE Count : 0
 Inter-Core Inteference in Data Store : 1888
Heartbeat CPU 1 instructions: 40000003 cycles: 38687034 heartbeat IPC: 1.03405 cumulative IPC: 1.03394 (Simulation time: 3 hr 37 min 5 sec) 
 Total Blocks : 196608 Invalid Blocks : 168684 Valid Blocks : 27924
 Total Tags : 491520 Threshold : 12288 Invalid Tags : 365292 Pr0 Tags : 98304 Pr1 Tags : 27924 num_pr0 : 12288
 SAE Count : 0
 Inter-Core Inteference in Data Store : 1888
Heartbeat CPU 3 instructions: 40000003 cycles: 38687036 heartbeat IPC: 1.03405 cumulative IPC: 1.03394 (Simulation time: 3 hr 37 min 5 sec) 
 Total Blocks : 196608 Invalid Blocks : 168684 Valid Blocks : 27924
 Total Tags : 491520 Threshold : 12288 Invalid Tags : 365292 Pr0 Tags : 98304 Pr1 Tags : 27924 num_pr0 : 12288
 SAE Count : 0
 Inter-Core Inteference in Data Store : 1888
Heartbeat CPU 4 instructions: 40000003 cycles: 38687039 heartbeat IPC: 1.03405 cumulative IPC: 1.03394 (Simulation time: 3 hr 37 min 5 sec) 
 Total Blocks : 196608 Invalid Blocks : 168684 Valid Blocks : 27924
 Total Tags : 491520 Threshold : 12288 Invalid Tags : 365292 Pr0 Tags : 98304 Pr1 Tags : 27924 num_pr0 : 12288
 SAE Count : 0
 Inter-Core Inteference in Data Store : 1888
Heartbeat CPU 6 instructions: 40000003 cycles: 38689176 heartbeat IPC: 1.03401 cumulative IPC: 1.03388 (Simulation time: 3 hr 37 min 6 sec) 
 Total Blocks : 196608 Invalid Blocks : 168684 Valid Blocks : 27924
 Total Tags : 491520 Threshold : 12288 Invalid Tags : 365292 Pr0 Tags : 98304 Pr1 Tags : 27924 num_pr0 : 12288
 SAE Count : 0
 Inter-Core Inteference in Data Store : 1888
Heartbeat CPU 7 instructions: 40000003 cycles: 38689252 heartbeat IPC: 1.03401 cumulative IPC: 1.03388 (Simulation time: 3 hr 37 min 6 sec) 
 Total Blocks : 196608 Invalid Blocks : 168684 Valid Blocks : 27924
 Total Tags : 491520 Threshold : 12288 Invalid Tags : 365292 Pr0 Tags : 98304 Pr1 Tags : 27924 num_pr0 : 12288
 SAE Count : 0
 Inter-Core Inteference in Data Store : 1888
Heartbeat CPU 2 instructions: 50000003 cycles: 48357475 heartbeat IPC: 1.03407 cumulative IPC: 1.03397 (Simulation time: 5 hr 4 min 27 sec) 
 Total Blocks : 196608 Invalid Blocks : 164754 Valid Blocks : 31854
 Total Tags : 491520 Threshold : 12288 Invalid Tags : 361362 Pr0 Tags : 98304 Pr1 Tags : 31854 num_pr0 : 12288
 SAE Count : 0
 Inter-Core Inteference in Data Store : 2525
Heartbeat CPU 0 instructions: 50000003 cycles: 48357480 heartbeat IPC: 1.03407 cumulative IPC: 1.03397 (Simulation time: 5 hr 4 min 27 sec) 
 Total Blocks : 196608 Invalid Blocks : 164754 Valid Blocks : 31854
 Total Tags : 491520 Threshold : 12288 Invalid Tags : 361362 Pr0 Tags : 98304 Pr1 Tags : 31854 num_pr0 : 12288
 SAE Count : 0
 Inter-Core Inteference in Data Store : 2525
Heartbeat CPU 5 instructions: 50000003 cycles: 48357500 heartbeat IPC: 1.03407 cumulative IPC: 1.03397 (Simulation time: 5 hr 4 min 27 sec) 
 Total Blocks : 196608 Invalid Blocks : 164754 Valid Blocks : 31854
 Total Tags : 491520 Threshold : 12288 Invalid Tags : 361362 Pr0 Tags : 98304 Pr1 Tags : 31854 num_pr0 : 12288
 SAE Count : 0
 Inter-Core Inteference in Data Store : 2525
Heartbeat CPU 1 instructions: 50000003 cycles: 48357618 heartbeat IPC: 1.03406 cumulative IPC: 1.03396 (Simulation time: 5 hr 4 min 28 sec) 
 Total Blocks : 196608 Invalid Blocks : 164754 Valid Blocks : 31854
 Total Tags : 491520 Threshold : 12288 Invalid Tags : 361362 Pr0 Tags : 98304 Pr1 Tags : 31854 num_pr0 : 12288
 SAE Count : 0
 Inter-Core Inteference in Data Store : 2525
Heartbeat CPU 3 instructions: 50000003 cycles: 48357625 heartbeat IPC: 1.03406 cumulative IPC: 1.03396 (Simulation time: 5 hr 4 min 28 sec) 
 Total Blocks : 196608 Invalid Blocks : 164754 Valid Blocks : 31854
 Total Tags : 491520 Threshold : 12288 Invalid Tags : 361362 Pr0 Tags : 98304 Pr1 Tags : 31854 num_pr0 : 12288
 SAE Count : 0
 Inter-Core Inteference in Data Store : 2525
Heartbeat CPU 4 instructions: 50000003 cycles: 48357629 heartbeat IPC: 1.03406 cumulative IPC: 1.03396 (Simulation time: 5 hr 4 min 28 sec) 
 Total Blocks : 196608 Invalid Blocks : 164754 Valid Blocks : 31854
 Total Tags : 491520 Threshold : 12288 Invalid Tags : 361362 Pr0 Tags : 98304 Pr1 Tags : 31854 num_pr0 : 12288
 SAE Count : 0
 Inter-Core Inteference in Data Store : 2525
Heartbeat CPU 6 instructions: 50000003 cycles: 48360172 heartbeat IPC: 1.03402 cumulative IPC: 1.03391 (Simulation time: 5 hr 4 min 29 sec) 
 Total Blocks : 196608 Invalid Blocks : 164753 Valid Blocks : 31855
 Total Tags : 491520 Threshold : 12288 Invalid Tags : 361361 Pr0 Tags : 98304 Pr1 Tags : 31855 num_pr0 : 12288
 SAE Count : 0
 Inter-Core Inteference in Data Store : 2525
Heartbeat CPU 7 instructions: 50000003 cycles: 48360228 heartbeat IPC: 1.03402 cumulative IPC: 1.03391 (Simulation time: 5 hr 4 min 29 sec) 
 Total Blocks : 196608 Invalid Blocks : 164753 Valid Blocks : 31855
 Total Tags : 491520 Threshold : 12288 Invalid Tags : 361361 Pr0 Tags : 98304 Pr1 Tags : 31855 num_pr0 : 12288
 SAE Count : 0
 Inter-Core Inteference in Data Store : 2525
Heartbeat CPU 2 instructions: 60000002 cycles: 58029913 heartbeat IPC: 1.03387 cumulative IPC: 1.03395 (Simulation time: 6 hr 45 min 59 sec) 
 Total Blocks : 196608 Invalid Blocks : 161559 Valid Blocks : 35049
 Total Tags : 491520 Threshold : 12288 Invalid Tags : 358167 Pr0 Tags : 98304 Pr1 Tags : 35049 num_pr0 : 12288
 SAE Count : 0
 Inter-Core Inteference in Data Store : 3175
Heartbeat CPU 0 instructions: 60000002 cycles: 58029928 heartbeat IPC: 1.03386 cumulative IPC: 1.03395 (Simulation time: 6 hr 45 min 59 sec) 
 Total Blocks : 196608 Invalid Blocks : 161559 Valid Blocks : 35049
 Total Tags : 491520 Threshold : 12288 Invalid Tags : 358167 Pr0 Tags : 98304 Pr1 Tags : 35049 num_pr0 : 12288
 SAE Count : 0
 Inter-Core Inteference in Data Store : 3175
Heartbeat CPU 5 instructions: 60000002 cycles: 58029944 heartbeat IPC: 1.03386 cumulative IPC: 1.03395 (Simulation time: 6 hr 45 min 59 sec) 
 Total Blocks : 196608 Invalid Blocks : 161559 Valid Blocks : 35049
 Total Tags : 491520 Threshold : 12288 Invalid Tags : 358167 Pr0 Tags : 98304 Pr1 Tags : 35049 num_pr0 : 12288
 SAE Count : 0
 Inter-Core Inteference in Data Store : 3175
Heartbeat CPU 1 instructions: 60000002 cycles: 58030111 heartbeat IPC: 1.03386 cumulative IPC: 1.03395 (Simulation time: 6 hr 45 min 59 sec) 
 Total Blocks : 196608 Invalid Blocks : 161559 Valid Blocks : 35049
 Total Tags : 491520 Threshold : 12288 Invalid Tags : 358167 Pr0 Tags : 98304 Pr1 Tags : 35049 num_pr0 : 12288
 SAE Count : 0
 Inter-Core Inteference in Data Store : 3175
Heartbeat CPU 3 instructions: 60000002 cycles: 58030115 heartbeat IPC: 1.03386 cumulative IPC: 1.03395 (Simulation time: 6 hr 45 min 59 sec) 
 Total Blocks : 196608 Invalid Blocks : 161559 Valid Blocks : 35049
 Total Tags : 491520 Threshold : 12288 Invalid Tags : 358167 Pr0 Tags : 98304 Pr1 Tags : 35049 num_pr0 : 12288
 SAE Count : 0
 Inter-Core Inteference in Data Store : 3175
Heartbeat CPU 4 instructions: 60000002 cycles: 58030118 heartbeat IPC: 1.03386 cumulative IPC: 1.03395 (Simulation time: 6 hr 45 min 59 sec) 
 Total Blocks : 196608 Invalid Blocks : 161559 Valid Blocks : 35049
 Total Tags : 491520 Threshold : 12288 Invalid Tags : 358167 Pr0 Tags : 98304 Pr1 Tags : 35049 num_pr0 : 12288
 SAE Count : 0
 Inter-Core Inteference in Data Store : 3175
Heartbeat CPU 6 instructions: 60000002 cycles: 58032928 heartbeat IPC: 1.03383 cumulative IPC: 1.0339 (Simulation time: 6 hr 46 min 0 sec) 
 Total Blocks : 196608 Invalid Blocks : 161559 Valid Blocks : 35049
 Total Tags : 491520 Threshold : 12288 Invalid Tags : 358167 Pr0 Tags : 98304 Pr1 Tags : 35049 num_pr0 : 12288
 SAE Count : 0
 Inter-Core Inteference in Data Store : 3175
Heartbeat CPU 7 instructions: 60000002 cycles: 58032977 heartbeat IPC: 1.03383 cumulative IPC: 1.03389 (Simulation time: 6 hr 46 min 0 sec) 
 Total Blocks : 196608 Invalid Blocks : 161559 Valid Blocks : 35049
 Total Tags : 491520 Threshold : 12288 Invalid Tags : 358167 Pr0 Tags : 98304 Pr1 Tags : 35049 num_pr0 : 12288
 SAE Count : 0
 Inter-Core Inteference in Data Store : 3175
Heartbeat CPU 2 instructions: 70000001 cycles: 67699433 heartbeat IPC: 1.03418 cumulative IPC: 1.03398 (Simulation time: 8 hr 38 min 18 sec) 
 Total Blocks : 196608 Invalid Blocks : 158773 Valid Blocks : 37835
 Total Tags : 491520 Threshold : 12288 Invalid Tags : 355381 Pr0 Tags : 98304 Pr1 Tags : 37835 num_pr0 : 12288
 SAE Count : 0
 Inter-Core Inteference in Data Store : 3721
Heartbeat CPU 0 instructions: 70000001 cycles: 67699440 heartbeat IPC: 1.03418 cumulative IPC: 1.03398 (Simulation time: 8 hr 38 min 19 sec) 
 Total Blocks : 196608 Invalid Blocks : 158773 Valid Blocks : 37835
 Total Tags : 491520 Threshold : 12288 Invalid Tags : 355381 Pr0 Tags : 98304 Pr1 Tags : 37835 num_pr0 : 12288
 SAE Count : 0
 Inter-Core Inteference in Data Store : 3721
Heartbeat CPU 5 instructions: 70000001 cycles: 67699461 heartbeat IPC: 1.03418 cumulative IPC: 1.03398 (Simulation time: 8 hr 38 min 19 sec) 
 Total Blocks : 196608 Invalid Blocks : 158773 Valid Blocks : 37835
 Total Tags : 491520 Threshold : 12288 Invalid Tags : 355381 Pr0 Tags : 98304 Pr1 Tags : 37835 num_pr0 : 12288
 SAE Count : 0
 Inter-Core Inteference in Data Store : 3721
Heartbeat CPU 1 instructions: 70000001 cycles: 67699675 heartbeat IPC: 1.03417 cumulative IPC: 1.03398 (Simulation time: 8 hr 38 min 19 sec) 
 Total Blocks : 196608 Invalid Blocks : 158773 Valid Blocks : 37835
 Total Tags : 491520 Threshold : 12288 Invalid Tags : 355381 Pr0 Tags : 98304 Pr1 Tags : 37835 num_pr0 : 12288
 SAE Count : 0
 Inter-Core Inteference in Data Store : 3721
Heartbeat CPU 4 instructions: 70000001 cycles: 67699693 heartbeat IPC: 1.03417 cumulative IPC: 1.03398 (Simulation time: 8 hr 38 min 19 sec) 
 Total Blocks : 196608 Invalid Blocks : 158773 Valid Blocks : 37835
 Total Tags : 491520 Threshold : 12288 Invalid Tags : 355381 Pr0 Tags : 98304 Pr1 Tags : 37835 num_pr0 : 12288
 SAE Count : 0
 Inter-Core Inteference in Data Store : 3721
Heartbeat CPU 3 instructions: 70000001 cycles: 67699697 heartbeat IPC: 1.03417 cumulative IPC: 1.03398 (Simulation time: 8 hr 38 min 19 sec) 
 Total Blocks : 196608 Invalid Blocks : 158773 Valid Blocks : 37835
 Total Tags : 491520 Threshold : 12288 Invalid Tags : 355381 Pr0 Tags : 98304 Pr1 Tags : 37835 num_pr0 : 12288
 SAE Count : 0
 Inter-Core Inteference in Data Store : 3721
Heartbeat CPU 6 instructions: 70000001 cycles: 67702606 heartbeat IPC: 1.03416 cumulative IPC: 1.03393 (Simulation time: 8 hr 38 min 21 sec) 
 Total Blocks : 196608 Invalid Blocks : 158773 Valid Blocks : 37835
 Total Tags : 491520 Threshold : 12288 Invalid Tags : 355381 Pr0 Tags : 98304 Pr1 Tags : 37835 num_pr0 : 12288
 SAE Count : 0
 Inter-Core Inteference in Data Store : 3721
Heartbeat CPU 7 instructions: 70000001 cycles: 67702659 heartbeat IPC: 1.03416 cumulative IPC: 1.03393 (Simulation time: 8 hr 38 min 21 sec) 
 Total Blocks : 196608 Invalid Blocks : 158773 Valid Blocks : 37835
 Total Tags : 491520 Threshold : 12288 Invalid Tags : 355381 Pr0 Tags : 98304 Pr1 Tags : 37835 num_pr0 : 12288
 SAE Count : 0
 Inter-Core Inteference in Data Store : 3721
Heartbeat CPU 2 instructions: 80000002 cycles: 77371374 heartbeat IPC: 1.03392 cumulative IPC: 1.03397 (Simulation time: 10 hr 37 min 8 sec) 
 Total Blocks : 196608 Invalid Blocks : 156079 Valid Blocks : 40529
 Total Tags : 491520 Threshold : 12288 Invalid Tags : 352687 Pr0 Tags : 98304 Pr1 Tags : 40529 num_pr0 : 12288
 SAE Count : 0
 Inter-Core Inteference in Data Store : 4272
Heartbeat CPU 0 instructions: 80000002 cycles: 77371393 heartbeat IPC: 1.03392 cumulative IPC: 1.03397 (Simulation time: 10 hr 37 min 9 sec) 
 Total Blocks : 196608 Invalid Blocks : 156079 Valid Blocks : 40529
 Total Tags : 491520 Threshold : 12288 Invalid Tags : 352687 Pr0 Tags : 98304 Pr1 Tags : 40529 num_pr0 : 12288
 SAE Count : 0
 Inter-Core Inteference in Data Store : 4272
Heartbeat CPU 5 instructions: 80000002 cycles: 77371412 heartbeat IPC: 1.03392 cumulative IPC: 1.03397 (Simulation time: 10 hr 37 min 9 sec) 
 Total Blocks : 196608 Invalid Blocks : 156079 Valid Blocks : 40529
 Total Tags : 491520 Threshold : 12288 Invalid Tags : 352687 Pr0 Tags : 98304 Pr1 Tags : 40529 num_pr0 : 12288
 SAE Count : 0
 Inter-Core Inteference in Data Store : 4272
Heartbeat CPU 1 instructions: 80000002 cycles: 77371691 heartbeat IPC: 1.03391 cumulative IPC: 1.03397 (Simulation time: 10 hr 37 min 9 sec) 
 Total Blocks : 196608 Invalid Blocks : 156079 Valid Blocks : 40529
 Total Tags : 491520 Threshold : 12288 Invalid Tags : 352687 Pr0 Tags : 98304 Pr1 Tags : 40529 num_pr0 : 12288
 SAE Count : 0
 Inter-Core Inteference in Data Store : 4272
Heartbeat CPU 4 instructions: 80000002 cycles: 77371692 heartbeat IPC: 1.03391 cumulative IPC: 1.03397 (Simulation time: 10 hr 37 min 9 sec) 
 Total Blocks : 196608 Invalid Blocks : 156079 Valid Blocks : 40529
 Total Tags : 491520 Threshold : 12288 Invalid Tags : 352687 Pr0 Tags : 98304 Pr1 Tags : 40529 num_pr0 : 12288
 SAE Count : 0
 Inter-Core Inteference in Data Store : 4272
Heartbeat CPU 3 instructions: 80000002 cycles: 77371696 heartbeat IPC: 1.03391 cumulative IPC: 1.03397 (Simulation time: 10 hr 37 min 9 sec) 
 Total Blocks : 196608 Invalid Blocks : 156079 Valid Blocks : 40529
 Total Tags : 491520 Threshold : 12288 Invalid Tags : 352687 Pr0 Tags : 98304 Pr1 Tags : 40529 num_pr0 : 12288
 SAE Count : 0
 Inter-Core Inteference in Data Store : 4272
Heartbeat CPU 6 instructions: 80000002 cycles: 77374707 heartbeat IPC: 1.0339 cumulative IPC: 1.03393 (Simulation time: 10 hr 37 min 11 sec) 
 Total Blocks : 196608 Invalid Blocks : 156078 Valid Blocks : 40530
 Total Tags : 491520 Threshold : 12288 Invalid Tags : 352686 Pr0 Tags : 98304 Pr1 Tags : 40530 num_pr0 : 12288
 SAE Count : 0
 Inter-Core Inteference in Data Store : 4272
Heartbeat CPU 7 instructions: 80000002 cycles: 77374742 heartbeat IPC: 1.0339 cumulative IPC: 1.03393 (Simulation time: 10 hr 37 min 12 sec) 
 Total Blocks : 196608 Invalid Blocks : 156078 Valid Blocks : 40530
 Total Tags : 491520 Threshold : 12288 Invalid Tags : 352686 Pr0 Tags : 98304 Pr1 Tags : 40530 num_pr0 : 12288
 SAE Count : 0
 Inter-Core Inteference in Data Store : 4272
Heartbeat CPU 2 instructions: 90000000 cycles: 87043078 heartbeat IPC: 1.03394 cumulative IPC: 1.03397 (Simulation time: 12 hr 52 min 22 sec) 
 Total Blocks : 196608 Invalid Blocks : 153169 Valid Blocks : 43439
 Total Tags : 491520 Threshold : 12288 Invalid Tags : 349777 Pr0 Tags : 98304 Pr1 Tags : 43439 num_pr0 : 12288
 SAE Count : 0
 Inter-Core Inteference in Data Store : 4935
Heartbeat CPU 0 instructions: 90000000 cycles: 87043102 heartbeat IPC: 1.03394 cumulative IPC: 1.03397 (Simulation time: 12 hr 52 min 23 sec) 
 Total Blocks : 196608 Invalid Blocks : 153169 Valid Blocks : 43439
 Total Tags : 491520 Threshold : 12288 Invalid Tags : 349777 Pr0 Tags : 98304 Pr1 Tags : 43439 num_pr0 : 12288
 SAE Count : 0
 Inter-Core Inteference in Data Store : 4935
Heartbeat CPU 5 instructions: 90000000 cycles: 87043130 heartbeat IPC: 1.03394 cumulative IPC: 1.03397 (Simulation time: 12 hr 52 min 23 sec) 
 Total Blocks : 196608 Invalid Blocks : 153169 Valid Blocks : 43439
 Total Tags : 491520 Threshold : 12288 Invalid Tags : 349777 Pr0 Tags : 98304 Pr1 Tags : 43439 num_pr0 : 12288
 SAE Count : 0
 Inter-Core Inteference in Data Store : 4935
Heartbeat CPU 1 instructions: 90000000 cycles: 87043501 heartbeat IPC: 1.03393 cumulative IPC: 1.03397 (Simulation time: 12 hr 52 min 23 sec) 
 Total Blocks : 196608 Invalid Blocks : 153169 Valid Blocks : 43439
 Total Tags : 491520 Threshold : 12288 Invalid Tags : 349777 Pr0 Tags : 98304 Pr1 Tags : 43439 num_pr0 : 12288
 SAE Count : 0
 Inter-Core Inteference in Data Store : 4935
Heartbeat CPU 4 instructions: 90000000 cycles: 87043509 heartbeat IPC: 1.03393 cumulative IPC: 1.03397 (Simulation time: 12 hr 52 min 24 sec) 
 Total Blocks : 196608 Invalid Blocks : 153169 Valid Blocks : 43439
 Total Tags : 491520 Threshold : 12288 Invalid Tags : 349777 Pr0 Tags : 98304 Pr1 Tags : 43439 num_pr0 : 12288
 SAE Count : 0
 Inter-Core Inteference in Data Store : 4935
Heartbeat CPU 3 instructions: 90000000 cycles: 87043530 heartbeat IPC: 1.03393 cumulative IPC: 1.03397 (Simulation time: 12 hr 52 min 24 sec) 
 Total Blocks : 196608 Invalid Blocks : 153169 Valid Blocks : 43439
 Total Tags : 491520 Threshold : 12288 Invalid Tags : 349777 Pr0 Tags : 98304 Pr1 Tags : 43439 num_pr0 : 12288
 SAE Count : 0
 Inter-Core Inteference in Data Store : 4935
Heartbeat CPU 6 instructions: 90000000 cycles: 87046540 heartbeat IPC: 1.03393 cumulative IPC: 1.03393 (Simulation time: 12 hr 52 min 27 sec) 
 Total Blocks : 196608 Invalid Blocks : 153169 Valid Blocks : 43439
 Total Tags : 491520 Threshold : 12288 Invalid Tags : 349777 Pr0 Tags : 98304 Pr1 Tags : 43439 num_pr0 : 12288
 SAE Count : 0
 Inter-Core Inteference in Data Store : 4935
Heartbeat CPU 7 instructions: 90000000 cycles: 87046569 heartbeat IPC: 1.03393 cumulative IPC: 1.03393 (Simulation time: 12 hr 52 min 27 sec) 
 Total Blocks : 196608 Invalid Blocks : 153169 Valid Blocks : 43439
 Total Tags : 491520 Threshold : 12288 Invalid Tags : 349777 Pr0 Tags : 98304 Pr1 Tags : 43439 num_pr0 : 12288
 SAE Count : 0
 Inter-Core Inteference in Data Store : 4935
Heartbeat CPU 2 instructions: 100000000 cycles: 96714904 heartbeat IPC: 1.03393 cumulative IPC: 1.03397 (Simulation time: 15 hr 9 min 27 sec) 
 Total Blocks : 196608 Invalid Blocks : 149825 Valid Blocks : 46783
 Total Tags : 491520 Threshold : 12288 Invalid Tags : 346433 Pr0 Tags : 98304 Pr1 Tags : 46783 num_pr0 : 12288
 SAE Count : 0
 Inter-Core Inteference in Data Store : 5796
Heartbeat CPU 0 instructions: 100000000 cycles: 96714923 heartbeat IPC: 1.03393 cumulative IPC: 1.03397 (Simulation time: 15 hr 9 min 27 sec) 
 Total Blocks : 196608 Invalid Blocks : 149825 Valid Blocks : 46783
 Total Tags : 491520 Threshold : 12288 Invalid Tags : 346433 Pr0 Tags : 98304 Pr1 Tags : 46783 num_pr0 : 12288
 SAE Count : 0
 Inter-Core Inteference in Data Store : 5796
Heartbeat CPU 5 instructions: 100000000 cycles: 96714969 heartbeat IPC: 1.03393 cumulative IPC: 1.03397 (Simulation time: 15 hr 9 min 28 sec) 
 Total Blocks : 196608 Invalid Blocks : 149825 Valid Blocks : 46783
 Total Tags : 491520 Threshold : 12288 Invalid Tags : 346433 Pr0 Tags : 98304 Pr1 Tags : 46783 num_pr0 : 12288
 SAE Count : 0
 Inter-Core Inteference in Data Store : 5796
Heartbeat CPU 1 instructions: 100000000 cycles: 96715408 heartbeat IPC: 1.03392 cumulative IPC: 1.03396 (Simulation time: 15 hr 9 min 29 sec) 
 Total Blocks : 196608 Invalid Blocks : 149825 Valid Blocks : 46783
 Total Tags : 491520 Threshold : 12288 Invalid Tags : 346433 Pr0 Tags : 98304 Pr1 Tags : 46783 num_pr0 : 12288
 SAE Count : 0
 Inter-Core Inteference in Data Store : 5796
Heartbeat CPU 3 instructions: 100000000 cycles: 96715410 heartbeat IPC: 1.03393 cumulative IPC: 1.03396 (Simulation time: 15 hr 9 min 29 sec) 
 Total Blocks : 196608 Invalid Blocks : 149825 Valid Blocks : 46783
 Total Tags : 491520 Threshold : 12288 Invalid Tags : 346433 Pr0 Tags : 98304 Pr1 Tags : 46783 num_pr0 : 12288
 SAE Count : 0
 Inter-Core Inteference in Data Store : 5796
Heartbeat CPU 4 instructions: 100000000 cycles: 96715411 heartbeat IPC: 1.03392 cumulative IPC: 1.03396 (Simulation time: 15 hr 9 min 29 sec) 
 Total Blocks : 196608 Invalid Blocks : 149825 Valid Blocks : 46783
 Total Tags : 491520 Threshold : 12288 Invalid Tags : 346433 Pr0 Tags : 98304 Pr1 Tags : 46783 num_pr0 : 12288
 SAE Count : 0
 Inter-Core Inteference in Data Store : 5796
Heartbeat CPU 6 instructions: 100000000 cycles: 96718439 heartbeat IPC: 1.03392 cumulative IPC: 1.03393 (Simulation time: 15 hr 9 min 30 sec) 
 Total Blocks : 196608 Invalid Blocks : 149825 Valid Blocks : 46783
 Total Tags : 491520 Threshold : 12288 Invalid Tags : 346433 Pr0 Tags : 98304 Pr1 Tags : 46783 num_pr0 : 12288
 SAE Count : 0
 Inter-Core Inteference in Data Store : 5796
Heartbeat CPU 7 instructions: 100000000 cycles: 96718460 heartbeat IPC: 1.03392 cumulative IPC: 1.03393 (Simulation time: 15 hr 9 min 30 sec) 
 Total Blocks : 196608 Invalid Blocks : 149825 Valid Blocks : 46783
 Total Tags : 491520 Threshold : 12288 Invalid Tags : 346433 Pr0 Tags : 98304 Pr1 Tags : 46783 num_pr0 : 12288
 SAE Count : 0
 Inter-Core Inteference in Data Store : 5796
Heartbeat CPU 2 instructions: 110000000 cycles: 106386423 heartbeat IPC: 1.03396 cumulative IPC: 1.03397 (Simulation time: 17 hr 31 min 16 sec) 
 Total Blocks : 196608 Invalid Blocks : 147379 Valid Blocks : 49229
 Total Tags : 491520 Threshold : 12288 Invalid Tags : 343987 Pr0 Tags : 98304 Pr1 Tags : 49229 num_pr0 : 12288
 SAE Count : 0
 Inter-Core Inteference in Data Store : 6472
Heartbeat CPU 0 instructions: 110000000 cycles: 106386443 heartbeat IPC: 1.03396 cumulative IPC: 1.03397 (Simulation time: 17 hr 31 min 17 sec) 
 Total Blocks : 196608 Invalid Blocks : 147379 Valid Blocks : 49229
 Total Tags : 491520 Threshold : 12288 Invalid Tags : 343987 Pr0 Tags : 98304 Pr1 Tags : 49229 num_pr0 : 12288
 SAE Count : 0
 Inter-Core Inteference in Data Store : 6472
Heartbeat CPU 5 instructions: 110000000 cycles: 106386503 heartbeat IPC: 1.03396 cumulative IPC: 1.03397 (Simulation time: 17 hr 31 min 17 sec) 
 Total Blocks : 196608 Invalid Blocks : 147379 Valid Blocks : 49229
 Total Tags : 491520 Threshold : 12288 Invalid Tags : 343987 Pr0 Tags : 98304 Pr1 Tags : 49229 num_pr0 : 12288
 SAE Count : 0
 Inter-Core Inteference in Data Store : 6472
Heartbeat CPU 1 instructions: 110000000 cycles: 106386984 heartbeat IPC: 1.03396 cumulative IPC: 1.03396 (Simulation time: 17 hr 31 min 18 sec) 
 Total Blocks : 196608 Invalid Blocks : 147379 Valid Blocks : 49229
 Total Tags : 491520 Threshold : 12288 Invalid Tags : 343987 Pr0 Tags : 98304 Pr1 Tags : 49229 num_pr0 : 12288
 SAE Count : 0
 Inter-Core Inteference in Data Store : 6472
Heartbeat CPU 3 instructions: 110000000 cycles: 106386985 heartbeat IPC: 1.03396 cumulative IPC: 1.03396 (Simulation time: 17 hr 31 min 18 sec) 
 Total Blocks : 196608 Invalid Blocks : 147379 Valid Blocks : 49229
 Total Tags : 491520 Threshold : 12288 Invalid Tags : 343987 Pr0 Tags : 98304 Pr1 Tags : 49229 num_pr0 : 12288
 SAE Count : 0
 Inter-Core Inteference in Data Store : 6472
Heartbeat CPU 4 instructions: 110000000 cycles: 106386986 heartbeat IPC: 1.03396 cumulative IPC: 1.03396 (Simulation time: 17 hr 31 min 18 sec) 
 Total Blocks : 196608 Invalid Blocks : 147379 Valid Blocks : 49229
 Total Tags : 491520 Threshold : 12288 Invalid Tags : 343987 Pr0 Tags : 98304 Pr1 Tags : 49229 num_pr0 : 12288
 SAE Count : 0
 Inter-Core Inteference in Data Store : 6472
Heartbeat CPU 6 instructions: 110000000 cycles: 106390004 heartbeat IPC: 1.03396 cumulative IPC: 1.03393 (Simulation time: 17 hr 31 min 21 sec) 
 Total Blocks : 196608 Invalid Blocks : 147379 Valid Blocks : 49229
 Total Tags : 491520 Threshold : 12288 Invalid Tags : 343987 Pr0 Tags : 98304 Pr1 Tags : 49229 num_pr0 : 12288
 SAE Count : 0
 Inter-Core Inteference in Data Store : 6472
Heartbeat CPU 7 instructions: 110000000 cycles: 106390038 heartbeat IPC: 1.03396 cumulative IPC: 1.03393 (Simulation time: 17 hr 31 min 21 sec) 
 Total Blocks : 196608 Invalid Blocks : 147379 Valid Blocks : 49229
 Total Tags : 491520 Threshold : 12288 Invalid Tags : 343987 Pr0 Tags : 98304 Pr1 Tags : 49229 num_pr0 : 12288
 SAE Count : 0
 Inter-Core Inteference in Data Store : 6472
Heartbeat CPU 2 instructions: 120000002 cycles: 116057594 heartbeat IPC: 1.034 cumulative IPC: 1.03397 (Simulation time: 19 hr 53 min 8 sec) 
 Total Blocks : 196608 Invalid Blocks : 144667 Valid Blocks : 51941
 Total Tags : 491520 Threshold : 12288 Invalid Tags : 341275 Pr0 Tags : 98304 Pr1 Tags : 51941 num_pr0 : 12288
 SAE Count : 0
 Inter-Core Inteference in Data Store : 7253
Heartbeat CPU 0 instructions: 120000002 cycles: 116057608 heartbeat IPC: 1.034 cumulative IPC: 1.03397 (Simulation time: 19 hr 53 min 8 sec) 
 Total Blocks : 196608 Invalid Blocks : 144667 Valid Blocks : 51941
 Total Tags : 491520 Threshold : 12288 Invalid Tags : 341275 Pr0 Tags : 98304 Pr1 Tags : 51941 num_pr0 : 12288
 SAE Count : 0
 Inter-Core Inteference in Data Store : 7253
Heartbeat CPU 5 instructions: 120000002 cycles: 116057669 heartbeat IPC: 1.034 cumulative IPC: 1.03397 (Simulation time: 19 hr 53 min 8 sec) 
 Total Blocks : 196608 Invalid Blocks : 144667 Valid Blocks : 51941
 Total Tags : 491520 Threshold : 12288 Invalid Tags : 341275 Pr0 Tags : 98304 Pr1 Tags : 51941 num_pr0 : 12288
 SAE Count : 0
 Inter-Core Inteference in Data Store : 7253
Heartbeat CPU 4 instructions: 120000002 cycles: 116058143 heartbeat IPC: 1.034 cumulative IPC: 1.03396 (Simulation time: 19 hr 53 min 8 sec) 
 Total Blocks : 196608 Invalid Blocks : 144667 Valid Blocks : 51941
 Total Tags : 491520 Threshold : 12288 Invalid Tags : 341275 Pr0 Tags : 98304 Pr1 Tags : 51941 num_pr0 : 12288
 SAE Count : 0
 Inter-Core Inteference in Data Store : 7253
Heartbeat CPU 1 instructions: 120000002 cycles: 116058165 heartbeat IPC: 1.034 cumulative IPC: 1.03396 (Simulation time: 19 hr 53 min 8 sec) 
 Total Blocks : 196608 Invalid Blocks : 144667 Valid Blocks : 51941
 Total Tags : 491520 Threshold : 12288 Invalid Tags : 341275 Pr0 Tags : 98304 Pr1 Tags : 51941 num_pr0 : 12288
 SAE Count : 0
 Inter-Core Inteference in Data Store : 7253
Heartbeat CPU 3 instructions: 120000002 cycles: 116058252 heartbeat IPC: 1.03399 cumulative IPC: 1.03396 (Simulation time: 19 hr 53 min 8 sec) 
 Total Blocks : 196608 Invalid Blocks : 144667 Valid Blocks : 51941
 Total Tags : 491520 Threshold : 12288 Invalid Tags : 341275 Pr0 Tags : 98304 Pr1 Tags : 51941 num_pr0 : 12288
 SAE Count : 0
 Inter-Core Inteference in Data Store : 7253
Heartbeat CPU 6 instructions: 120000002 cycles: 116061224 heartbeat IPC: 1.034 cumulative IPC: 1.03394 (Simulation time: 19 hr 53 min 11 sec) 
 Total Blocks : 196608 Invalid Blocks : 144667 Valid Blocks : 51941
 Total Tags : 491520 Threshold : 12288 Invalid Tags : 341275 Pr0 Tags : 98304 Pr1 Tags : 51941 num_pr0 : 12288
 SAE Count : 0
 Inter-Core Inteference in Data Store : 7253
Heartbeat CPU 7 instructions: 120000002 cycles: 116061276 heartbeat IPC: 1.03399 cumulative IPC: 1.03394 (Simulation time: 19 hr 53 min 11 sec) 
 Total Blocks : 196608 Invalid Blocks : 144667 Valid Blocks : 51941
 Total Tags : 491520 Threshold : 12288 Invalid Tags : 341275 Pr0 Tags : 98304 Pr1 Tags : 51941 num_pr0 : 12288
 SAE Count : 0
 Inter-Core Inteference in Data Store : 7253
Heartbeat CPU 2 instructions: 130000002 cycles: 125730391 heartbeat IPC: 1.03383 cumulative IPC: 1.03396 (Simulation time: 22 hr 14 min 44 sec) 
 Total Blocks : 196608 Invalid Blocks : 142085 Valid Blocks : 54523
 Total Tags : 491520 Threshold : 12288 Invalid Tags : 338693 Pr0 Tags : 98304 Pr1 Tags : 54523 num_pr0 : 12288
 SAE Count : 0
 Inter-Core Inteference in Data Store : 8078
Heartbeat CPU 0 instructions: 130000002 cycles: 125730411 heartbeat IPC: 1.03383 cumulative IPC: 1.03396 (Simulation time: 22 hr 14 min 45 sec) 
 Total Blocks : 196608 Invalid Blocks : 142085 Valid Blocks : 54523
 Total Tags : 491520 Threshold : 12288 Invalid Tags : 338693 Pr0 Tags : 98304 Pr1 Tags : 54523 num_pr0 : 12288
 SAE Count : 0
 Inter-Core Inteference in Data Store : 8078
Heartbeat CPU 5 instructions: 130000002 cycles: 125730473 heartbeat IPC: 1.03383 cumulative IPC: 1.03396 (Simulation time: 22 hr 14 min 45 sec) 
 Total Blocks : 196608 Invalid Blocks : 142085 Valid Blocks : 54523
 Total Tags : 491520 Threshold : 12288 Invalid Tags : 338693 Pr0 Tags : 98304 Pr1 Tags : 54523 num_pr0 : 12288
 SAE Count : 0
 Inter-Core Inteference in Data Store : 8078
Heartbeat CPU 4 instructions: 130000002 cycles: 125730940 heartbeat IPC: 1.03383 cumulative IPC: 1.03395 (Simulation time: 22 hr 14 min 45 sec) 
 Total Blocks : 196608 Invalid Blocks : 142085 Valid Blocks : 54523
 Total Tags : 491520 Threshold : 12288 Invalid Tags : 338693 Pr0 Tags : 98304 Pr1 Tags : 54523 num_pr0 : 12288
 SAE Count : 0
 Inter-Core Inteference in Data Store : 8078
Heartbeat CPU 1 instructions: 130000002 cycles: 125730951 heartbeat IPC: 1.03383 cumulative IPC: 1.03395 (Simulation time: 22 hr 14 min 45 sec) 
 Total Blocks : 196608 Invalid Blocks : 142085 Valid Blocks : 54523
 Total Tags : 491520 Threshold : 12288 Invalid Tags : 338693 Pr0 Tags : 98304 Pr1 Tags : 54523 num_pr0 : 12288
 SAE Count : 0
 Inter-Core Inteference in Data Store : 8078
Heartbeat CPU 3 instructions: 130000002 cycles: 125731144 heartbeat IPC: 1.03382 cumulative IPC: 1.03395 (Simulation time: 22 hr 14 min 45 sec) 
 Total Blocks : 196608 Invalid Blocks : 142085 Valid Blocks : 54523
 Total Tags : 491520 Threshold : 12288 Invalid Tags : 338693 Pr0 Tags : 98304 Pr1 Tags : 54523 num_pr0 : 12288
 SAE Count : 0
 Inter-Core Inteference in Data Store : 8078
Heartbeat CPU 6 instructions: 130000002 cycles: 125734091 heartbeat IPC: 1.03382 cumulative IPC: 1.03393 (Simulation time: 22 hr 14 min 47 sec) 
 Total Blocks : 196608 Invalid Blocks : 142085 Valid Blocks : 54523
 Total Tags : 491520 Threshold : 12288 Invalid Tags : 338693 Pr0 Tags : 98304 Pr1 Tags : 54523 num_pr0 : 12288
 SAE Count : 0
 Inter-Core Inteference in Data Store : 8078
Heartbeat CPU 7 instructions: 130000002 cycles: 125734126 heartbeat IPC: 1.03382 cumulative IPC: 1.03393 (Simulation time: 22 hr 14 min 47 sec) 
 Total Blocks : 196608 Invalid Blocks : 142085 Valid Blocks : 54523
 Total Tags : 491520 Threshold : 12288 Invalid Tags : 338693 Pr0 Tags : 98304 Pr1 Tags : 54523 num_pr0 : 12288
 SAE Count : 0
 Inter-Core Inteference in Data Store : 8078
Heartbeat CPU 2 instructions: 140000002 cycles: 135399799 heartbeat IPC: 1.03419 cumulative IPC: 1.03398 (Simulation time: 24 hr 34 min 40 sec) 
 Total Blocks : 196608 Invalid Blocks : 140162 Valid Blocks : 56446
 Total Tags : 491520 Threshold : 12288 Invalid Tags : 336770 Pr0 Tags : 98304 Pr1 Tags : 56446 num_pr0 : 12288
 SAE Count : 0
 Inter-Core Inteference in Data Store : 8714
Heartbeat CPU 0 instructions: 140000002 cycles: 135399824 heartbeat IPC: 1.03419 cumulative IPC: 1.03397 (Simulation time: 24 hr 34 min 41 sec) 
 Total Blocks : 196608 Invalid Blocks : 140162 Valid Blocks : 56446
 Total Tags : 491520 Threshold : 12288 Invalid Tags : 336770 Pr0 Tags : 98304 Pr1 Tags : 56446 num_pr0 : 12288
 SAE Count : 0
 Inter-Core Inteference in Data Store : 8714
Heartbeat CPU 5 instructions: 140000002 cycles: 135399892 heartbeat IPC: 1.03419 cumulative IPC: 1.03397 (Simulation time: 24 hr 34 min 41 sec) 
 Total Blocks : 196608 Invalid Blocks : 140162 Valid Blocks : 56446
 Total Tags : 491520 Threshold : 12288 Invalid Tags : 336770 Pr0 Tags : 98304 Pr1 Tags : 56446 num_pr0 : 12288
 SAE Count : 0
 Inter-Core Inteference in Data Store : 8714
Heartbeat CPU 4 instructions: 140000002 cycles: 135400357 heartbeat IPC: 1.03419 cumulative IPC: 1.03397 (Simulation time: 24 hr 34 min 42 sec) 
 Total Blocks : 196608 Invalid Blocks : 140162 Valid Blocks : 56446
 Total Tags : 491520 Threshold : 12288 Invalid Tags : 336770 Pr0 Tags : 98304 Pr1 Tags : 56446 num_pr0 : 12288
 SAE Count : 0
 Inter-Core Inteference in Data Store : 8714
Heartbeat CPU 1 instructions: 140000002 cycles: 135400359 heartbeat IPC: 1.03419 cumulative IPC: 1.03397 (Simulation time: 24 hr 34 min 42 sec) 
 Total Blocks : 196608 Invalid Blocks : 140162 Valid Blocks : 56446
 Total Tags : 491520 Threshold : 12288 Invalid Tags : 336770 Pr0 Tags : 98304 Pr1 Tags : 56446 num_pr0 : 12288
 SAE Count : 0
 Inter-Core Inteference in Data Store : 8714
Heartbeat CPU 3 instructions: 140000002 cycles: 135400640 heartbeat IPC: 1.03418 cumulative IPC: 1.03397 (Simulation time: 24 hr 34 min 42 sec) 
 Total Blocks : 196608 Invalid Blocks : 140162 Valid Blocks : 56446
 Total Tags : 491520 Threshold : 12288 Invalid Tags : 336770 Pr0 Tags : 98304 Pr1 Tags : 56446 num_pr0 : 12288
 SAE Count : 0
 Inter-Core Inteference in Data Store : 8714
Heartbeat CPU 6 instructions: 140000002 cycles: 135403584 heartbeat IPC: 1.03418 cumulative IPC: 1.03395 (Simulation time: 24 hr 34 min 44 sec) 
 Total Blocks : 196608 Invalid Blocks : 140162 Valid Blocks : 56446
 Total Tags : 491520 Threshold : 12288 Invalid Tags : 336770 Pr0 Tags : 98304 Pr1 Tags : 56446 num_pr0 : 12288
 SAE Count : 0
 Inter-Core Inteference in Data Store : 8714
Heartbeat CPU 7 instructions: 140000002 cycles: 135403615 heartbeat IPC: 1.03418 cumulative IPC: 1.03395 (Simulation time: 24 hr 34 min 44 sec) 
 Total Blocks : 196608 Invalid Blocks : 140162 Valid Blocks : 56446
 Total Tags : 491520 Threshold : 12288 Invalid Tags : 336770 Pr0 Tags : 98304 Pr1 Tags : 56446 num_pr0 : 12288
 SAE Count : 0
 Inter-Core Inteference in Data Store : 8714
Heartbeat CPU 2 instructions: 150000000 cycles: 145069681 heartbeat IPC: 1.03414 cumulative IPC: 1.03399 (Simulation time: 26 hr 54 min 8 sec) 
 Total Blocks : 196608 Invalid Blocks : 137804 Valid Blocks : 58804
 Total Tags : 491520 Threshold : 12288 Invalid Tags : 334412 Pr0 Tags : 98304 Pr1 Tags : 58804 num_pr0 : 12288
 SAE Count : 0
 Inter-Core Inteference in Data Store : 9539
Heartbeat CPU 0 instructions: 150000000 cycles: 145069702 heartbeat IPC: 1.03414 cumulative IPC: 1.03399 (Simulation time: 26 hr 54 min 9 sec) 
 Total Blocks : 196608 Invalid Blocks : 137804 Valid Blocks : 58804
 Total Tags : 491520 Threshold : 12288 Invalid Tags : 334412 Pr0 Tags : 98304 Pr1 Tags : 58804 num_pr0 : 12288
 SAE Count : 0
 Inter-Core Inteference in Data Store : 9539
Heartbeat CPU 5 instructions: 150000000 cycles: 145069778 heartbeat IPC: 1.03414 cumulative IPC: 1.03399 (Simulation time: 26 hr 54 min 9 sec) 
 Total Blocks : 196608 Invalid Blocks : 137804 Valid Blocks : 58804
 Total Tags : 491520 Threshold : 12288 Invalid Tags : 334412 Pr0 Tags : 98304 Pr1 Tags : 58804 num_pr0 : 12288
 SAE Count : 0
 Inter-Core Inteference in Data Store : 9539
Heartbeat CPU 4 instructions: 150000000 cycles: 145070285 heartbeat IPC: 1.03413 cumulative IPC: 1.03398 (Simulation time: 26 hr 54 min 9 sec) 
 Total Blocks : 196608 Invalid Blocks : 137804 Valid Blocks : 58804
 Total Tags : 491520 Threshold : 12288 Invalid Tags : 334412 Pr0 Tags : 98304 Pr1 Tags : 58804 num_pr0 : 12288
 SAE Count : 0
 Inter-Core Inteference in Data Store : 9539
Heartbeat CPU 1 instructions: 150000000 cycles: 145070288 heartbeat IPC: 1.03413 cumulative IPC: 1.03398 (Simulation time: 26 hr 54 min 9 sec) 
 Total Blocks : 196608 Invalid Blocks : 137804 Valid Blocks : 58804
 Total Tags : 491520 Threshold : 12288 Invalid Tags : 334412 Pr0 Tags : 98304 Pr1 Tags : 58804 num_pr0 : 12288
 SAE Count : 0
 Inter-Core Inteference in Data Store : 9539
Heartbeat CPU 3 instructions: 150000000 cycles: 145070597 heartbeat IPC: 1.03413 cumulative IPC: 1.03398 (Simulation time: 26 hr 54 min 9 sec) 
 Total Blocks : 196608 Invalid Blocks : 137804 Valid Blocks : 58804
 Total Tags : 491520 Threshold : 12288 Invalid Tags : 334412 Pr0 Tags : 98304 Pr1 Tags : 58804 num_pr0 : 12288
 SAE Count : 0
 Inter-Core Inteference in Data Store : 9539
Heartbeat CPU 6 instructions: 150000000 cycles: 145073523 heartbeat IPC: 1.03413 cumulative IPC: 1.03396 (Simulation time: 26 hr 54 min 11 sec) 
 Total Blocks : 196608 Invalid Blocks : 137804 Valid Blocks : 58804
 Total Tags : 491520 Threshold : 12288 Invalid Tags : 334412 Pr0 Tags : 98304 Pr1 Tags : 58804 num_pr0 : 12288
 SAE Count : 0
 Inter-Core Inteference in Data Store : 9539
Heartbeat CPU 7 instructions: 150000000 cycles: 145073556 heartbeat IPC: 1.03413 cumulative IPC: 1.03396 (Simulation time: 26 hr 54 min 11 sec) 
 Total Blocks : 196608 Invalid Blocks : 137804 Valid Blocks : 58804
 Total Tags : 491520 Threshold : 12288 Invalid Tags : 334412 Pr0 Tags : 98304 Pr1 Tags : 58804 num_pr0 : 12288
 SAE Count : 0
 Inter-Core Inteference in Data Store : 9539
Heartbeat CPU 2 instructions: 160000003 cycles: 154740256 heartbeat IPC: 1.03407 cumulative IPC: 1.03399 (Simulation time: 29 hr 12 min 22 sec) 
 Total Blocks : 196608 Invalid Blocks : 135377 Valid Blocks : 61231
 Total Tags : 491520 Threshold : 12288 Invalid Tags : 331985 Pr0 Tags : 98304 Pr1 Tags : 61231 num_pr0 : 12288
 SAE Count : 0
 Inter-Core Inteference in Data Store : 10529
Heartbeat CPU 0 instructions: 160000003 cycles: 154740258 heartbeat IPC: 1.03407 cumulative IPC: 1.03399 (Simulation time: 29 hr 12 min 22 sec) 
 Total Blocks : 196608 Invalid Blocks : 135377 Valid Blocks : 61231
 Total Tags : 491520 Threshold : 12288 Invalid Tags : 331985 Pr0 Tags : 98304 Pr1 Tags : 61231 num_pr0 : 12288
 SAE Count : 0
 Inter-Core Inteference in Data Store : 10529
Heartbeat CPU 5 instructions: 160000003 cycles: 154740359 heartbeat IPC: 1.03406 cumulative IPC: 1.03399 (Simulation time: 29 hr 12 min 22 sec) 
 Total Blocks : 196608 Invalid Blocks : 135377 Valid Blocks : 61231
 Total Tags : 491520 Threshold : 12288 Invalid Tags : 331985 Pr0 Tags : 98304 Pr1 Tags : 61231 num_pr0 : 12288
 SAE Count : 0
 Inter-Core Inteference in Data Store : 10529
Heartbeat CPU 4 instructions: 160000003 cycles: 154740828 heartbeat IPC: 1.03407 cumulative IPC: 1.03399 (Simulation time: 29 hr 12 min 23 sec) 
 Total Blocks : 196608 Invalid Blocks : 135377 Valid Blocks : 61231
 Total Tags : 491520 Threshold : 12288 Invalid Tags : 331985 Pr0 Tags : 98304 Pr1 Tags : 61231 num_pr0 : 12288
 SAE Count : 0
 Inter-Core Inteference in Data Store : 10529
Heartbeat CPU 1 instructions: 160000003 cycles: 154740840 heartbeat IPC: 1.03407 cumulative IPC: 1.03399 (Simulation time: 29 hr 12 min 23 sec) 
 Total Blocks : 196608 Invalid Blocks : 135377 Valid Blocks : 61231
 Total Tags : 491520 Threshold : 12288 Invalid Tags : 331985 Pr0 Tags : 98304 Pr1 Tags : 61231 num_pr0 : 12288
 SAE Count : 0
 Inter-Core Inteference in Data Store : 10529
Heartbeat CPU 3 instructions: 160000003 cycles: 154741208 heartbeat IPC: 1.03406 cumulative IPC: 1.03398 (Simulation time: 29 hr 12 min 23 sec) 
 Total Blocks : 196608 Invalid Blocks : 135377 Valid Blocks : 61231
 Total Tags : 491520 Threshold : 12288 Invalid Tags : 331985 Pr0 Tags : 98304 Pr1 Tags : 61231 num_pr0 : 12288
 SAE Count : 0
 Inter-Core Inteference in Data Store : 10529
Heartbeat CPU 6 instructions: 160000003 cycles: 154744122 heartbeat IPC: 1.03406 cumulative IPC: 1.03396 (Simulation time: 29 hr 12 min 25 sec) 
 Total Blocks : 196608 Invalid Blocks : 135377 Valid Blocks : 61231
 Total Tags : 491520 Threshold : 12288 Invalid Tags : 331985 Pr0 Tags : 98304 Pr1 Tags : 61231 num_pr0 : 12288
 SAE Count : 0
 Inter-Core Inteference in Data Store : 10529
Heartbeat CPU 7 instructions: 160000003 cycles: 154744173 heartbeat IPC: 1.03406 cumulative IPC: 1.03396 (Simulation time: 29 hr 12 min 25 sec) 
 Total Blocks : 196608 Invalid Blocks : 135377 Valid Blocks : 61231
 Total Tags : 491520 Threshold : 12288 Invalid Tags : 331985 Pr0 Tags : 98304 Pr1 Tags : 61231 num_pr0 : 12288
 SAE Count : 0
 Inter-Core Inteference in Data Store : 10529
Heartbeat CPU 0 instructions: 170000000 cycles: 164412089 heartbeat IPC: 1.03393 cumulative IPC: 1.03399 (Simulation time: 31 hr 36 min 44 sec) 
 Total Blocks : 196608 Invalid Blocks : 132976 Valid Blocks : 63632
 Total Tags : 491520 Threshold : 12288 Invalid Tags : 329584 Pr0 Tags : 98304 Pr1 Tags : 63632 num_pr0 : 12288
 SAE Count : 0
 Inter-Core Inteference in Data Store : 11475
Heartbeat CPU 2 instructions: 170000000 cycles: 164412090 heartbeat IPC: 1.03393 cumulative IPC: 1.03399 (Simulation time: 31 hr 36 min 44 sec) 
 Total Blocks : 196608 Invalid Blocks : 132976 Valid Blocks : 63632
 Total Tags : 491520 Threshold : 12288 Invalid Tags : 329584 Pr0 Tags : 98304 Pr1 Tags : 63632 num_pr0 : 12288
 SAE Count : 0
 Inter-Core Inteference in Data Store : 11475
Heartbeat CPU 5 instructions: 170000000 cycles: 164412176 heartbeat IPC: 1.03393 cumulative IPC: 1.03399 (Simulation time: 31 hr 36 min 44 sec) 
 Total Blocks : 196608 Invalid Blocks : 132976 Valid Blocks : 63632
 Total Tags : 491520 Threshold : 12288 Invalid Tags : 329584 Pr0 Tags : 98304 Pr1 Tags : 63632 num_pr0 : 12288
 SAE Count : 0
 Inter-Core Inteference in Data Store : 11475
Heartbeat CPU 4 instructions: 170000000 cycles: 164412593 heartbeat IPC: 1.03394 cumulative IPC: 1.03398 (Simulation time: 31 hr 36 min 45 sec) 
 Total Blocks : 196608 Invalid Blocks : 132976 Valid Blocks : 63632
 Total Tags : 491520 Threshold : 12288 Invalid Tags : 329584 Pr0 Tags : 98304 Pr1 Tags : 63632 num_pr0 : 12288
 SAE Count : 0
 Inter-Core Inteference in Data Store : 11475
Heartbeat CPU 1 instructions: 170000000 cycles: 164412598 heartbeat IPC: 1.03394 cumulative IPC: 1.03398 (Simulation time: 31 hr 36 min 45 sec) 
 Total Blocks : 196608 Invalid Blocks : 132976 Valid Blocks : 63632
 Total Tags : 491520 Threshold : 12288 Invalid Tags : 329584 Pr0 Tags : 98304 Pr1 Tags : 63632 num_pr0 : 12288
 SAE Count : 0
 Inter-Core Inteference in Data Store : 11475
Heartbeat CPU 3 instructions: 170000000 cycles: 164413068 heartbeat IPC: 1.03393 cumulative IPC: 1.03398 (Simulation time: 31 hr 36 min 45 sec) 
 Total Blocks : 196608 Invalid Blocks : 132976 Valid Blocks : 63632
 Total Tags : 491520 Threshold : 12288 Invalid Tags : 329584 Pr0 Tags : 98304 Pr1 Tags : 63632 num_pr0 : 12288
 SAE Count : 0
 Inter-Core Inteference in Data Store : 11475
Heartbeat CPU 6 instructions: 170000000 cycles: 164415927 heartbeat IPC: 1.03393 cumulative IPC: 1.03396 (Simulation time: 31 hr 36 min 48 sec) 
 Total Blocks : 196608 Invalid Blocks : 132973 Valid Blocks : 63635
 Total Tags : 491520 Threshold : 12288 Invalid Tags : 329581 Pr0 Tags : 98304 Pr1 Tags : 63635 num_pr0 : 12288
 SAE Count : 0
 Inter-Core Inteference in Data Store : 11478
Heartbeat CPU 7 instructions: 170000000 cycles: 164415966 heartbeat IPC: 1.03393 cumulative IPC: 1.03396 (Simulation time: 31 hr 36 min 48 sec) 
 Total Blocks : 196608 Invalid Blocks : 132973 Valid Blocks : 63635
 Total Tags : 491520 Threshold : 12288 Invalid Tags : 329581 Pr0 Tags : 98304 Pr1 Tags : 63635 num_pr0 : 12288
 SAE Count : 0
 Inter-Core Inteference in Data Store : 11478
Heartbeat CPU 2 instructions: 180000000 cycles: 174083679 heartbeat IPC: 1.03396 cumulative IPC: 1.03399 (Simulation time: 57 hr 9 min 5 sec) 
 Total Blocks : 196608 Invalid Blocks : 130729 Valid Blocks : 65879
 Total Tags : 491520 Threshold : 12288 Invalid Tags : 327337 Pr0 Tags : 98304 Pr1 Tags : 65879 num_pr0 : 12288
 SAE Count : 0
 Inter-Core Inteference in Data Store : 12481
Heartbeat CPU 0 instructions: 180000000 cycles: 174083685 heartbeat IPC: 1.03396 cumulative IPC: 1.03399 (Simulation time: 57 hr 9 min 7 sec) 
 Total Blocks : 196608 Invalid Blocks : 130729 Valid Blocks : 65879
 Total Tags : 491520 Threshold : 12288 Invalid Tags : 327337 Pr0 Tags : 98304 Pr1 Tags : 65879 num_pr0 : 12288
 SAE Count : 0
 Inter-Core Inteference in Data Store : 12481
Heartbeat CPU 5 instructions: 180000000 cycles: 174083756 heartbeat IPC: 1.03396 cumulative IPC: 1.03399 (Simulation time: 57 hr 9 min 8 sec) 
 Total Blocks : 196608 Invalid Blocks : 130729 Valid Blocks : 65879
 Total Tags : 491520 Threshold : 12288 Invalid Tags : 327337 Pr0 Tags : 98304 Pr1 Tags : 65879 num_pr0 : 12288
 SAE Count : 0
 Inter-Core Inteference in Data Store : 12481
Heartbeat CPU 4 instructions: 180000000 cycles: 174084199 heartbeat IPC: 1.03395 cumulative IPC: 1.03398 (Simulation time: 57 hr 9 min 9 sec) 
 Total Blocks : 196608 Invalid Blocks : 130729 Valid Blocks : 65879
 Total Tags : 491520 Threshold : 12288 Invalid Tags : 327337 Pr0 Tags : 98304 Pr1 Tags : 65879 num_pr0 : 12288
 SAE Count : 0
 Inter-Core Inteference in Data Store : 12481
Heartbeat CPU 1 instructions: 180000000 cycles: 174084201 heartbeat IPC: 1.03395 cumulative IPC: 1.03398 (Simulation time: 57 hr 9 min 9 sec) 
 Total Blocks : 196608 Invalid Blocks : 130729 Valid Blocks : 65879
 Total Tags : 491520 Threshold : 12288 Invalid Tags : 327337 Pr0 Tags : 98304 Pr1 Tags : 65879 num_pr0 : 12288
 SAE Count : 0
 Inter-Core Inteference in Data Store : 12481
Heartbeat CPU 3 instructions: 180000000 cycles: 174084690 heartbeat IPC: 1.03395 cumulative IPC: 1.03398 (Simulation time: 57 hr 9 min 9 sec) 
 Total Blocks : 196608 Invalid Blocks : 130729 Valid Blocks : 65879
 Total Tags : 491520 Threshold : 12288 Invalid Tags : 327337 Pr0 Tags : 98304 Pr1 Tags : 65879 num_pr0 : 12288
 SAE Count : 0
 Inter-Core Inteference in Data Store : 12481
Heartbeat CPU 6 instructions: 180000000 cycles: 174087537 heartbeat IPC: 1.03395 cumulative IPC: 1.03396 (Simulation time: 57 hr 9 min 13 sec) 
 Total Blocks : 196608 Invalid Blocks : 130728 Valid Blocks : 65880
 Total Tags : 491520 Threshold : 12288 Invalid Tags : 327336 Pr0 Tags : 98304 Pr1 Tags : 65880 num_pr0 : 12288
 SAE Count : 0
 Inter-Core Inteference in Data Store : 12481
Heartbeat CPU 7 instructions: 180000000 cycles: 174087578 heartbeat IPC: 1.03395 cumulative IPC: 1.03396 (Simulation time: 57 hr 9 min 15 sec) 
 Total Blocks : 196608 Invalid Blocks : 130728 Valid Blocks : 65880
 Total Tags : 491520 Threshold : 12288 Invalid Tags : 327336 Pr0 Tags : 98304 Pr1 Tags : 65880 num_pr0 : 12288
 SAE Count : 0
 Inter-Core Inteference in Data Store : 12481
Heartbeat CPU 2 instructions: 190000002 cycles: 183755126 heartbeat IPC: 1.03397 cumulative IPC: 1.03398 (Simulation time: 62 hr 30 min 48 sec) 
 Total Blocks : 196608 Invalid Blocks : 128342 Valid Blocks : 68266
 Total Tags : 491520 Threshold : 12288 Invalid Tags : 324950 Pr0 Tags : 98304 Pr1 Tags : 68266 num_pr0 : 12288
 SAE Count : 0
 Inter-Core Inteference in Data Store : 13527
Heartbeat CPU 0 instructions: 190000002 cycles: 183755130 heartbeat IPC: 1.03397 cumulative IPC: 1.03398 (Simulation time: 62 hr 30 min 57 sec) 
 Total Blocks : 196608 Invalid Blocks : 128342 Valid Blocks : 68266
 Total Tags : 491520 Threshold : 12288 Invalid Tags : 324950 Pr0 Tags : 98304 Pr1 Tags : 68266 num_pr0 : 12288
 SAE Count : 0
 Inter-Core Inteference in Data Store : 13527
Heartbeat CPU 5 instructions: 190000002 cycles: 183755184 heartbeat IPC: 1.03397 cumulative IPC: 1.03398 (Simulation time: 62 hr 30 min 57 sec) 
 Total Blocks : 196608 Invalid Blocks : 128342 Valid Blocks : 68266
 Total Tags : 491520 Threshold : 12288 Invalid Tags : 324950 Pr0 Tags : 98304 Pr1 Tags : 68266 num_pr0 : 12288
 SAE Count : 0
 Inter-Core Inteference in Data Store : 13527
Heartbeat CPU 1 instructions: 190000002 cycles: 183755653 heartbeat IPC: 1.03397 cumulative IPC: 1.03398 (Simulation time: 62 hr 30 min 57 sec) 
 Total Blocks : 196608 Invalid Blocks : 128342 Valid Blocks : 68266
 Total Tags : 491520 Threshold : 12288 Invalid Tags : 324950 Pr0 Tags : 98304 Pr1 Tags : 68266 num_pr0 : 12288
 SAE Count : 0
 Inter-Core Inteference in Data Store : 13527
Heartbeat CPU 4 instructions: 190000002 cycles: 183755654 heartbeat IPC: 1.03397 cumulative IPC: 1.03398 (Simulation time: 62 hr 30 min 57 sec) 
 Total Blocks : 196608 Invalid Blocks : 128342 Valid Blocks : 68266
 Total Tags : 491520 Threshold : 12288 Invalid Tags : 324950 Pr0 Tags : 98304 Pr1 Tags : 68266 num_pr0 : 12288
 SAE Count : 0
 Inter-Core Inteference in Data Store : 13527
Heartbeat CPU 3 instructions: 190000002 cycles: 183756143 heartbeat IPC: 1.03397 cumulative IPC: 1.03398 (Simulation time: 62 hr 30 min 57 sec) 
 Total Blocks : 196608 Invalid Blocks : 128342 Valid Blocks : 68266
 Total Tags : 491520 Threshold : 12288 Invalid Tags : 324950 Pr0 Tags : 98304 Pr1 Tags : 68266 num_pr0 : 12288
 SAE Count : 0
 Inter-Core Inteference in Data Store : 13527
Heartbeat CPU 6 instructions: 190000002 cycles: 183759018 heartbeat IPC: 1.03397 cumulative IPC: 1.03396 (Simulation time: 62 hr 31 min 5 sec) 
 Total Blocks : 196608 Invalid Blocks : 128342 Valid Blocks : 68266
 Total Tags : 491520 Threshold : 12288 Invalid Tags : 324950 Pr0 Tags : 98304 Pr1 Tags : 68266 num_pr0 : 12288
 SAE Count : 0
 Inter-Core Inteference in Data Store : 13527
Heartbeat CPU 7 instructions: 190000002 cycles: 183759064 heartbeat IPC: 1.03397 cumulative IPC: 1.03396 (Simulation time: 62 hr 31 min 7 sec) 
 Total Blocks : 196608 Invalid Blocks : 128342 Valid Blocks : 68266
 Total Tags : 491520 Threshold : 12288 Invalid Tags : 324950 Pr0 Tags : 98304 Pr1 Tags : 68266 num_pr0 : 12288
 SAE Count : 0
 Inter-Core Inteference in Data Store : 13527
Heartbeat CPU 2 instructions: 200000003 cycles: 193427280 heartbeat IPC: 1.0339 cumulative IPC: 1.03398 (Simulation time: 67 hr 42 min 5 sec) 
 Total Blocks : 196608 Invalid Blocks : 126275 Valid Blocks : 70333
 Total Tags : 491520 Threshold : 12288 Invalid Tags : 322883 Pr0 Tags : 98304 Pr1 Tags : 70333 num_pr0 : 12288
 SAE Count : 0
 Inter-Core Inteference in Data Store : 14502
Heartbeat CPU 0 instructions: 200000003 cycles: 193427285 heartbeat IPC: 1.0339 cumulative IPC: 1.03398 (Simulation time: 67 hr 42 min 7 sec) 
 Total Blocks : 196608 Invalid Blocks : 126275 Valid Blocks : 70333
 Total Tags : 491520 Threshold : 12288 Invalid Tags : 322883 Pr0 Tags : 98304 Pr1 Tags : 70333 num_pr0 : 12288
 SAE Count : 0
 Inter-Core Inteference in Data Store : 14502
Heartbeat CPU 5 instructions: 200000003 cycles: 193427341 heartbeat IPC: 1.0339 cumulative IPC: 1.03398 (Simulation time: 67 hr 42 min 7 sec) 
 Total Blocks : 196608 Invalid Blocks : 126275 Valid Blocks : 70333
 Total Tags : 491520 Threshold : 12288 Invalid Tags : 322883 Pr0 Tags : 98304 Pr1 Tags : 70333 num_pr0 : 12288
 SAE Count : 0
 Inter-Core Inteference in Data Store : 14502
Heartbeat CPU 4 instructions: 200000003 cycles: 193427825 heartbeat IPC: 1.03389 cumulative IPC: 1.03398 (Simulation time: 67 hr 42 min 7 sec) 
 Total Blocks : 196608 Invalid Blocks : 126275 Valid Blocks : 70333
 Total Tags : 491520 Threshold : 12288 Invalid Tags : 322883 Pr0 Tags : 98304 Pr1 Tags : 70333 num_pr0 : 12288
 SAE Count : 0
 Inter-Core Inteference in Data Store : 14503
Heartbeat CPU 1 instructions: 200000003 cycles: 193427834 heartbeat IPC: 1.03389 cumulative IPC: 1.03398 (Simulation time: 67 hr 42 min 8 sec) 
 Total Blocks : 196608 Invalid Blocks : 126275 Valid Blocks : 70333
 Total Tags : 491520 Threshold : 12288 Invalid Tags : 322883 Pr0 Tags : 98304 Pr1 Tags : 70333 num_pr0 : 12288
 SAE Count : 0
 Inter-Core Inteference in Data Store : 14503
Heartbeat CPU 3 instructions: 200000003 cycles: 193428355 heartbeat IPC: 1.03389 cumulative IPC: 1.03397 (Simulation time: 67 hr 42 min 8 sec) 
 Total Blocks : 196608 Invalid Blocks : 126275 Valid Blocks : 70333
 Total Tags : 491520 Threshold : 12288 Invalid Tags : 322883 Pr0 Tags : 98304 Pr1 Tags : 70333 num_pr0 : 12288
 SAE Count : 0
 Inter-Core Inteference in Data Store : 14503
Heartbeat CPU 6 instructions: 200000003 cycles: 193431223 heartbeat IPC: 1.03389 cumulative IPC: 1.03396 (Simulation time: 67 hr 43 min 14 sec) 
 Total Blocks : 196608 Invalid Blocks : 126275 Valid Blocks : 70333
 Total Tags : 491520 Threshold : 12288 Invalid Tags : 322883 Pr0 Tags : 98304 Pr1 Tags : 70333 num_pr0 : 12288
 SAE Count : 0
 Inter-Core Inteference in Data Store : 14503
Heartbeat CPU 7 instructions: 200000003 cycles: 193431267 heartbeat IPC: 1.03389 cumulative IPC: 1.03396 (Simulation time: 67 hr 43 min 17 sec) 
 Total Blocks : 196608 Invalid Blocks : 126275 Valid Blocks : 70333
 Total Tags : 491520 Threshold : 12288 Invalid Tags : 322883 Pr0 Tags : 98304 Pr1 Tags : 70333 num_pr0 : 12288
 SAE Count : 0
 Inter-Core Inteference in Data Store : 14503

Warmup complete CPU 0 instructions: 200004319 cycles: 193431267 (Simulation time: 67 hr 43 min 17 sec) 
Warmup complete CPU 1 instructions: 200003831 cycles: 193431267 (Simulation time: 67 hr 43 min 17 sec) 
Warmup complete CPU 2 instructions: 200004330 cycles: 193431267 (Simulation time: 67 hr 43 min 17 sec) 
Warmup complete CPU 3 instructions: 200003354 cycles: 193431267 (Simulation time: 67 hr 43 min 17 sec) 
Warmup complete CPU 4 instructions: 200003849 cycles: 193431267 (Simulation time: 67 hr 43 min 17 sec) 
Warmup complete CPU 5 instructions: 200004266 cycles: 193431267 (Simulation time: 67 hr 43 min 17 sec) 
Warmup complete CPU 6 instructions: 200000042 cycles: 193431267 (Simulation time: 67 hr 43 min 17 sec) 
Warmup complete CPU 7 instructions: 200000003 cycles: 193431267 (Simulation time: 67 hr 43 min 17 sec) 

Heartbeat CPU 1 instructions: 210000001 cycles: 222385055 heartbeat IPC: 0.345337 cumulative IPC: 0.345246 (Simulation time: 74 hr 48 min 2 sec) 
 Total Blocks : 196608 Invalid Blocks : 124104 Valid Blocks : 72504
 Total Tags : 491520 Threshold : 12288 Invalid Tags : 320712 Pr0 Tags : 98304 Pr1 Tags : 72504 num_pr0 : 12288
 SAE Count : 0
 Inter-Core Inteference in Data Store : 1060
Heartbeat CPU 0 instructions: 210000001 cycles: 222386984 heartbeat IPC: 0.345307 cumulative IPC: 0.345206 (Simulation time: 74 hr 48 min 5 sec) 
 Total Blocks : 196608 Invalid Blocks : 124104 Valid Blocks : 72504
 Total Tags : 491520 Threshold : 12288 Invalid Tags : 320712 Pr0 Tags : 98304 Pr1 Tags : 72504 num_pr0 : 12288
 SAE Count : 0
 Inter-Core Inteference in Data Store : 1060
Heartbeat CPU 3 instructions: 210000001 cycles: 222391129 heartbeat IPC: 0.345271 cumulative IPC: 0.34519 (Simulation time: 74 hr 48 min 7 sec) 
 Total Blocks : 196608 Invalid Blocks : 124103 Valid Blocks : 72505
 Total Tags : 491520 Threshold : 12288 Invalid Tags : 320711 Pr0 Tags : 98304 Pr1 Tags : 72505 num_pr0 : 12288
 SAE Count : 0
 Inter-Core Inteference in Data Store : 1060
Heartbeat CPU 4 instructions: 210000001 cycles: 222394165 heartbeat IPC: 0.345228 cumulative IPC: 0.345136 (Simulation time: 74 hr 48 min 8 sec) 
 Total Blocks : 196608 Invalid Blocks : 124103 Valid Blocks : 72505
 Total Tags : 491520 Threshold : 12288 Invalid Tags : 320711 Pr0 Tags : 98304 Pr1 Tags : 72505 num_pr0 : 12288
 SAE Count : 0
 Inter-Core Inteference in Data Store : 1060
Heartbeat CPU 2 instructions: 210000001 cycles: 222396035 heartbeat IPC: 0.345199 cumulative IPC: 0.345098 (Simulation time: 74 hr 48 min 10 sec) 
 Total Blocks : 196608 Invalid Blocks : 124103 Valid Blocks : 72505
 Total Tags : 491520 Threshold : 12288 Invalid Tags : 320711 Pr0 Tags : 98304 Pr1 Tags : 72505 num_pr0 : 12288
 SAE Count : 0
 Inter-Core Inteference in Data Store : 1060
Heartbeat CPU 5 instructions: 210000001 cycles: 222396188 heartbeat IPC: 0.345198 cumulative IPC: 0.345098 (Simulation time: 74 hr 48 min 10 sec) 
 Total Blocks : 196608 Invalid Blocks : 124103 Valid Blocks : 72505
 Total Tags : 491520 Threshold : 12288 Invalid Tags : 320711 Pr0 Tags : 98304 Pr1 Tags : 72505 num_pr0 : 12288
 SAE Count : 0
 Inter-Core Inteference in Data Store : 1060
Heartbeat CPU 7 instructions: 210000001 cycles: 222424198 heartbeat IPC: 0.344912 cumulative IPC: 0.344912 (Simulation time: 74 hr 48 min 37 sec) 
 Total Blocks : 196608 Invalid Blocks : 124103 Valid Blocks : 72505
 Total Tags : 491520 Threshold : 12288 Invalid Tags : 320711 Pr0 Tags : 98304 Pr1 Tags : 72505 num_pr0 : 12288
 SAE Count : 0
 Inter-Core Inteference in Data Store : 1060
Heartbeat CPU 6 instructions: 210000001 cycles: 222427712 heartbeat IPC: 0.344869 cumulative IPC: 0.344868 (Simulation time: 74 hr 48 min 40 sec) 
 Total Blocks : 196608 Invalid Blocks : 124103 Valid Blocks : 72505
 Total Tags : 491520 Threshold : 12288 Invalid Tags : 320711 Pr0 Tags : 98304 Pr1 Tags : 72505 num_pr0 : 12288
 SAE Count : 0
 Inter-Core Inteference in Data Store : 1060
Heartbeat CPU 1 instructions: 220000000 cycles: 251388918 heartbeat IPC: 0.344782 cumulative IPC: 0.345013 (Simulation time: 80 hr 57 min 6 sec) 
 Total Blocks : 196608 Invalid Blocks : 122420 Valid Blocks : 74188
 Total Tags : 491520 Threshold : 12288 Invalid Tags : 319028 Pr0 Tags : 98304 Pr1 Tags : 74188 num_pr0 : 12288
 SAE Count : 0
 Inter-Core Inteference in Data Store : 1897
Heartbeat CPU 0 instructions: 220000000 cycles: 251390467 heartbeat IPC: 0.344786 cumulative IPC: 0.344996 (Simulation time: 80 hr 57 min 9 sec) 
 Total Blocks : 196608 Invalid Blocks : 122420 Valid Blocks : 74188
 Total Tags : 491520 Threshold : 12288 Invalid Tags : 319028 Pr0 Tags : 98304 Pr1 Tags : 74188 num_pr0 : 12288
 SAE Count : 0
 Inter-Core Inteference in Data Store : 1897
Heartbeat CPU 3 instructions: 220000000 cycles: 251393882 heartbeat IPC: 0.344795 cumulative IPC: 0.344992 (Simulation time: 80 hr 57 min 11 sec) 
 Total Blocks : 196608 Invalid Blocks : 122420 Valid Blocks : 74188
 Total Tags : 491520 Threshold : 12288 Invalid Tags : 319028 Pr0 Tags : 98304 Pr1 Tags : 74188 num_pr0 : 12288
 SAE Count : 0
 Inter-Core Inteference in Data Store : 1897
Heartbeat CPU 2 instructions: 220000000 cycles: 251395991 heartbeat IPC: 0.344828 cumulative IPC: 0.344963 (Simulation time: 80 hr 57 min 11 sec) 
 Total Blocks : 196608 Invalid Blocks : 122420 Valid Blocks : 74188
 Total Tags : 491520 Threshold : 12288 Invalid Tags : 319028 Pr0 Tags : 98304 Pr1 Tags : 74188 num_pr0 : 12288
 SAE Count : 0
 Inter-Core Inteference in Data Store : 1897
Heartbeat CPU 4 instructions: 220000000 cycles: 251397335 heartbeat IPC: 0.34479 cumulative IPC: 0.344963 (Simulation time: 80 hr 57 min 11 sec) 
 Total Blocks : 196608 Invalid Blocks : 122420 Valid Blocks : 74188
 Total Tags : 491520 Threshold : 12288 Invalid Tags : 319028 Pr0 Tags : 98304 Pr1 Tags : 74188 num_pr0 : 12288
 SAE Count : 0
 Inter-Core Inteference in Data Store : 1897
Heartbeat CPU 5 instructions: 220000000 cycles: 251432970 heartbeat IPC: 0.344391 cumulative IPC: 0.344744 (Simulation time: 80 hr 57 min 31 sec) 
 Total Blocks : 196608 Invalid Blocks : 122418 Valid Blocks : 74190
 Total Tags : 491520 Threshold : 12288 Invalid Tags : 319026 Pr0 Tags : 98304 Pr1 Tags : 74190 num_pr0 : 12288
 SAE Count : 0
 Inter-Core Inteference in Data Store : 1898
Heartbeat CPU 7 instructions: 220000000 cycles: 251455464 heartbeat IPC: 0.344456 cumulative IPC: 0.344684 (Simulation time: 80 hr 57 min 46 sec) 
 Total Blocks : 196608 Invalid Blocks : 122416 Valid Blocks : 74192
 Total Tags : 491520 Threshold : 12288 Invalid Tags : 319024 Pr0 Tags : 98304 Pr1 Tags : 74192 num_pr0 : 12288
 SAE Count : 0
 Inter-Core Inteference in Data Store : 1898
Heartbeat CPU 6 instructions: 220000000 cycles: 251455570 heartbeat IPC: 0.344497 cumulative IPC: 0.344682 (Simulation time: 80 hr 57 min 47 sec) 
 Total Blocks : 196608 Invalid Blocks : 122416 Valid Blocks : 74192
 Total Tags : 491520 Threshold : 12288 Invalid Tags : 319024 Pr0 Tags : 98304 Pr1 Tags : 74192 num_pr0 : 12288
 SAE Count : 0
 Inter-Core Inteference in Data Store : 1898
Heartbeat CPU 1 instructions: 230000002 cycles: 280382156 heartbeat IPC: 0.344908 cumulative IPC: 0.344978 (Simulation time: 87 hr 3 min 13 sec) 
 Total Blocks : 196608 Invalid Blocks : 120388 Valid Blocks : 76220
 Total Tags : 491520 Threshold : 12288 Invalid Tags : 316996 Pr0 Tags : 98304 Pr1 Tags : 76220 num_pr0 : 12288
 SAE Count : 0
 Inter-Core Inteference in Data Store : 3043
Heartbeat CPU 4 instructions: 230000002 cycles: 280384326 heartbeat IPC: 0.344982 cumulative IPC: 0.34497 (Simulation time: 87 hr 3 min 17 sec) 
 Total Blocks : 196608 Invalid Blocks : 120388 Valid Blocks : 76220
 Total Tags : 491520 Threshold : 12288 Invalid Tags : 316996 Pr0 Tags : 98304 Pr1 Tags : 76220 num_pr0 : 12288
 SAE Count : 0
 Inter-Core Inteference in Data Store : 3043
Heartbeat CPU 2 instructions: 230000002 cycles: 280387361 heartbeat IPC: 0.34493 cumulative IPC: 0.344952 (Simulation time: 87 hr 3 min 19 sec) 
 Total Blocks : 196608 Invalid Blocks : 120388 Valid Blocks : 76220
 Total Tags : 491520 Threshold : 12288 Invalid Tags : 316996 Pr0 Tags : 98304 Pr1 Tags : 76220 num_pr0 : 12288
 SAE Count : 0
 Inter-Core Inteference in Data Store : 3043
Heartbeat CPU 0 instructions: 230000002 cycles: 280401674 heartbeat IPC: 0.344694 cumulative IPC: 0.344895 (Simulation time: 87 hr 3 min 31 sec) 
 Total Blocks : 196608 Invalid Blocks : 120388 Valid Blocks : 76220
 Total Tags : 491520 Threshold : 12288 Invalid Tags : 316996 Pr0 Tags : 98304 Pr1 Tags : 76220 num_pr0 : 12288
 SAE Count : 0
 Inter-Core Inteference in Data Store : 3043
Heartbeat CPU 3 instructions: 230000002 cycles: 280408227 heartbeat IPC: 0.344657 cumulative IPC: 0.34488 (Simulation time: 87 hr 3 min 35 sec) 
 Total Blocks : 196608 Invalid Blocks : 120388 Valid Blocks : 76220
 Total Tags : 491520 Threshold : 12288 Invalid Tags : 316996 Pr0 Tags : 98304 Pr1 Tags : 76220 num_pr0 : 12288
 SAE Count : 0
 Inter-Core Inteference in Data Store : 3043
Heartbeat CPU 5 instructions: 230000002 cycles: 280439656 heartbeat IPC: 0.344748 cumulative IPC: 0.344745 (Simulation time: 87 hr 3 min 54 sec) 
 Total Blocks : 196608 Invalid Blocks : 120387 Valid Blocks : 76221
 Total Tags : 491520 Threshold : 12288 Invalid Tags : 316995 Pr0 Tags : 98304 Pr1 Tags : 76221 num_pr0 : 12288
 SAE Count : 0
 Inter-Core Inteference in Data Store : 3043
Heartbeat CPU 7 instructions: 230000002 cycles: 280465454 heartbeat IPC: 0.344709 cumulative IPC: 0.344692 (Simulation time: 87 hr 4 min 9 sec) 
 Total Blocks : 196608 Invalid Blocks : 120380 Valid Blocks : 76228
 Total Tags : 491520 Threshold : 12288 Invalid Tags : 316988 Pr0 Tags : 98304 Pr1 Tags : 76228 num_pr0 : 12288
 SAE Count : 0
 Inter-Core Inteference in Data Store : 3046
Heartbeat CPU 6 instructions: 230000002 cycles: 280465876 heartbeat IPC: 0.344705 cumulative IPC: 0.34469 (Simulation time: 87 hr 4 min 11 sec) 
 Total Blocks : 196608 Invalid Blocks : 120380 Valid Blocks : 76228
 Total Tags : 491520 Threshold : 12288 Invalid Tags : 316988 Pr0 Tags : 98304 Pr1 Tags : 76228 num_pr0 : 12288
 SAE Count : 0
 Inter-Core Inteference in Data Store : 3046
Heartbeat CPU 1 instructions: 240000001 cycles: 309354562 heartbeat IPC: 0.345156 cumulative IPC: 0.345023 (Simulation time: 92 hr 47 min 41 sec) 
 Total Blocks : 196608 Invalid Blocks : 118929 Valid Blocks : 77679
 Total Tags : 491520 Threshold : 12288 Invalid Tags : 315537 Pr0 Tags : 98304 Pr1 Tags : 77679 num_pr0 : 12288
 SAE Count : 0
 Inter-Core Inteference in Data Store : 3869
Heartbeat CPU 4 instructions: 240000001 cycles: 309356507 heartbeat IPC: 0.345159 cumulative IPC: 0.345017 (Simulation time: 92 hr 47 min 42 sec) 
 Total Blocks : 196608 Invalid Blocks : 118929 Valid Blocks : 77679
 Total Tags : 491520 Threshold : 12288 Invalid Tags : 315537 Pr0 Tags : 98304 Pr1 Tags : 77679 num_pr0 : 12288
 SAE Count : 0
 Inter-Core Inteference in Data Store : 3869
Heartbeat CPU 2 instructions: 240000001 cycles: 309366265 heartbeat IPC: 0.345079 cumulative IPC: 0.344984 (Simulation time: 92 hr 47 min 48 sec) 
 Total Blocks : 196608 Invalid Blocks : 118928 Valid Blocks : 77680
 Total Tags : 491520 Threshold : 12288 Invalid Tags : 315536 Pr0 Tags : 98304 Pr1 Tags : 77680 num_pr0 : 12288
 SAE Count : 0
 Inter-Core Inteference in Data Store : 3869
Heartbeat CPU 3 instructions: 240000001 cycles: 309388824 heartbeat IPC: 0.345058 cumulative IPC: 0.344925 (Simulation time: 92 hr 48 min 2 sec) 
 Total Blocks : 196608 Invalid Blocks : 118926 Valid Blocks : 77682
 Total Tags : 491520 Threshold : 12288 Invalid Tags : 315534 Pr0 Tags : 98304 Pr1 Tags : 77682 num_pr0 : 12288
 SAE Count : 0
 Inter-Core Inteference in Data Store : 3871
Heartbeat CPU 0 instructions: 240000001 cycles: 309389263 heartbeat IPC: 0.344975 cumulative IPC: 0.344915 (Simulation time: 92 hr 48 min 3 sec) 
 Total Blocks : 196608 Invalid Blocks : 118926 Valid Blocks : 77682
 Total Tags : 491520 Threshold : 12288 Invalid Tags : 315534 Pr0 Tags : 98304 Pr1 Tags : 77682 num_pr0 : 12288
 SAE Count : 0
 Inter-Core Inteference in Data Store : 3871
Heartbeat CPU 5 instructions: 240000001 cycles: 309418206 heartbeat IPC: 0.345083 cumulative IPC: 0.34483 (Simulation time: 92 hr 48 min 24 sec) 
 Total Blocks : 196608 Invalid Blocks : 118924 Valid Blocks : 77684
 Total Tags : 491520 Threshold : 12288 Invalid Tags : 315532 Pr0 Tags : 98304 Pr1 Tags : 77684 num_pr0 : 12288
 SAE Count : 0
 Inter-Core Inteference in Data Store : 3871
Heartbeat CPU 6 instructions: 240000001 cycles: 309431240 heartbeat IPC: 0.34524 cumulative IPC: 0.344827 (Simulation time: 92 hr 48 min 34 sec) 
 Total Blocks : 196608 Invalid Blocks : 118923 Valid Blocks : 77685
 Total Tags : 491520 Threshold : 12288 Invalid Tags : 315531 Pr0 Tags : 98304 Pr1 Tags : 77685 num_pr0 : 12288
 SAE Count : 0
 Inter-Core Inteference in Data Store : 3871
Heartbeat CPU 7 instructions: 240000001 cycles: 309433781 heartbeat IPC: 0.345205 cumulative IPC: 0.34482 (Simulation time: 92 hr 48 min 35 sec) 
 Total Blocks : 196608 Invalid Blocks : 118923 Valid Blocks : 77685
 Total Tags : 491520 Threshold : 12288 Invalid Tags : 315531 Pr0 Tags : 98304 Pr1 Tags : 77685 num_pr0 : 12288
 SAE Count : 0
 Inter-Core Inteference in Data Store : 3871
Heartbeat CPU 4 instructions: 250000003 cycles: 338383423 heartbeat IPC: 0.344508 cumulative IPC: 0.344915 (Simulation time: 98 hr 12 min 39 sec) 
 Total Blocks : 196608 Invalid Blocks : 117336 Valid Blocks : 79272
 Total Tags : 491520 Threshold : 12288 Invalid Tags : 313944 Pr0 Tags : 98304 Pr1 Tags : 79272 num_pr0 : 12288
 SAE Count : 0
 Inter-Core Inteference in Data Store : 4733
Heartbeat CPU 1 instructions: 250000003 cycles: 338386586 heartbeat IPC: 0.344447 cumulative IPC: 0.344907 (Simulation time: 98 hr 12 min 41 sec) 
 Total Blocks : 196608 Invalid Blocks : 117336 Valid Blocks : 79272
 Total Tags : 491520 Threshold : 12288 Invalid Tags : 313944 Pr0 Tags : 98304 Pr1 Tags : 79272 num_pr0 : 12288
 SAE Count : 0
 Inter-Core Inteference in Data Store : 4733
Heartbeat CPU 2 instructions: 250000003 cycles: 338386926 heartbeat IPC: 0.344582 cumulative IPC: 0.344903 (Simulation time: 98 hr 12 min 41 sec) 
 Total Blocks : 196608 Invalid Blocks : 117336 Valid Blocks : 79272
 Total Tags : 491520 Threshold : 12288 Invalid Tags : 313944 Pr0 Tags : 98304 Pr1 Tags : 79272 num_pr0 : 12288
 SAE Count : 0
 Inter-Core Inteference in Data Store : 4733
Heartbeat CPU 3 instructions: 250000003 cycles: 338410774 heartbeat IPC: 0.344567 cumulative IPC: 0.344853 (Simulation time: 98 hr 12 min 54 sec) 
 Total Blocks : 196608 Invalid Blocks : 117336 Valid Blocks : 79272
 Total Tags : 491520 Threshold : 12288 Invalid Tags : 313944 Pr0 Tags : 98304 Pr1 Tags : 79272 num_pr0 : 12288
 SAE Count : 0
 Inter-Core Inteference in Data Store : 4733
Heartbeat CPU 0 instructions: 250000003 cycles: 338418936 heartbeat IPC: 0.344475 cumulative IPC: 0.344827 (Simulation time: 98 hr 12 min 59 sec) 
 Total Blocks : 196608 Invalid Blocks : 117336 Valid Blocks : 79272
 Total Tags : 491520 Threshold : 12288 Invalid Tags : 313944 Pr0 Tags : 98304 Pr1 Tags : 79272 num_pr0 : 12288
 SAE Count : 0
 Inter-Core Inteference in Data Store : 4733
Heartbeat CPU 6 instructions: 250000003 cycles: 338445002 heartbeat IPC: 0.344664 cumulative IPC: 0.344795 (Simulation time: 98 hr 13 min 14 sec) 
 Total Blocks : 196608 Invalid Blocks : 117335 Valid Blocks : 79273
 Total Tags : 491520 Threshold : 12288 Invalid Tags : 313943 Pr0 Tags : 98304 Pr1 Tags : 79273 num_pr0 : 12288
 SAE Count : 0
 Inter-Core Inteference in Data Store : 4733
[...]
LLC3 AVERAGE MISS LATENCY: 102.753 cycles

LLC3 Set Associative Eviction Count : 0
LLC3 Priority 0 entries : 12288
LLC3 Inter-Core Interference : 2517
LLC4 TOTAL     ACCESS: 457849  HIT:  2094  MISS: 455755  HIT %: 0.457356  MISS %: 99.5426  AVERAGE MISS PENALTY: 101.362
LLC4 LOAD      ACCESS:  1784  HIT:    13  MISS:  1771  HIT %: 0.7287  MISS %: 99.2713  AVERAGE MISS PENALTY: 148.388
LLC4 RFO       ACCESS:     1  HIT:     0  MISS:     1  HIT %:     0  MISS %:   100  AVERAGE MISS PENALTY: 178
LLC4 PREFETCH  ACCESS: 455414  HIT:  2079  MISS: 453335  HIT %: 0.456508  MISS %: 99.5435  AVERAGE MISS PENALTY: 101.323
LLC4 WRITEBACK ACCESS:   650  HIT:     2  MISS:   648  HIT %: 0.307692  MISS %: 99.6923  AVERAGE MISS PENALTY: 0
LLC4 PREFETCH  REQUESTED:     0  ISSUED:     0  USEFUL:    54  USELESS:  1238
 USEFUL LOAD PREFETCHES:         54 PREFETCH ISSUED TO LOWER LEVEL:    3627571  ACCURACY: 0.0014886
 TIMELY PREFETCHES:         54 LATE PREFETCHES: 0 DROPPED PREFETCHES: 0
LLC4 AVERAGE MISS LATENCY: 101.362 cycles

LLC4 Set Associative Eviction Count : 0
LLC4 Priority 0 entries : 12288
LLC4 Inter-Core Interference : 2660
LLC5 TOTAL     ACCESS: 457314  HIT:  1584  MISS: 455730  HIT %: 0.34637  MISS %: 99.6536  AVERAGE MISS PENALTY: 102.087
LLC5 LOAD      ACCESS:  1881  HIT:    48  MISS:  1833  HIT %: 2.55183  MISS %: 97.4482  AVERAGE MISS PENALTY: 148.064
LLC5 RFO       ACCESS:     1  HIT:     0  MISS:     1  HIT %:     0  MISS %:   100  AVERAGE MISS PENALTY: 181
LLC5 PREFETCH  ACCESS: 454790  HIT:  1535  MISS: 453255  HIT %: 0.337518  MISS %: 99.6625  AVERAGE MISS PENALTY: 102.045
LLC5 WRITEBACK ACCESS:   642  HIT:     1  MISS:   641  HIT %: 0.155763  MISS %: 99.8442  AVERAGE MISS PENALTY: 0
LLC5 PREFETCH  REQUESTED:     0  ISSUED:     0  USEFUL:    40  USELESS:  1168
 USEFUL LOAD PREFETCHES:         40 PREFETCH ISSUED TO LOWER LEVEL:    3627087  ACCURACY: 0.00110281
 TIMELY PREFETCHES:         40 LATE PREFETCHES: 0 DROPPED PREFETCHES: 0
LLC5 AVERAGE MISS LATENCY: 102.087 cycles

LLC5 Set Associative Eviction Count : 0
LLC5 Priority 0 entries : 12288
LLC5 Inter-Core Interference : 2545
LLC6 TOTAL     ACCESS: 457522  HIT:  1654  MISS: 455868  HIT %: 0.361513  MISS %: 99.6385  AVERAGE MISS PENALTY: 109.423
LLC6 LOAD      ACCESS:  1971  HIT:   132  MISS:  1839  HIT %: 6.69711  MISS %: 93.3029  AVERAGE MISS PENALTY: 148.831
LLC6 RFO       ACCESS:     1  HIT:     0  MISS:     1  HIT %:     0  MISS %:   100  AVERAGE MISS PENALTY: 178
LLC6 PREFETCH  ACCESS: 454873  HIT:  1522  MISS: 453351  HIT %: 0.334599  MISS %: 99.6654  AVERAGE MISS PENALTY: 109.426
LLC6 WRITEBACK ACCESS:   677  HIT:     0  MISS:   677  HIT %:     0  MISS %:   100  AVERAGE MISS PENALTY: 0
LLC6 PREFETCH  REQUESTED:     0  ISSUED:     0  USEFUL:    20  USELESS:  1199
 USEFUL LOAD PREFETCHES:         20 PREFETCH ISSUED TO LOWER LEVEL:    3627606  ACCURACY: 0.000551328
 TIMELY PREFETCHES:         20 LATE PREFETCHES: 0 DROPPED PREFETCHES: 0
LLC6 AVERAGE MISS LATENCY: 109.423 cycles

LLC6 Set Associative Eviction Count : 0
LLC6 Priority 0 entries : 12288
LLC6 Inter-Core Interference : 2645
LLC7 TOTAL     ACCESS: 458259  HIT:  2475  MISS: 455784  HIT %: 0.540088  MISS %: 99.4599  AVERAGE MISS PENALTY: 109.972
LLC7 LOAD      ACCESS:  1941  HIT:   112  MISS:  1829  HIT %: 5.77022  MISS %: 94.2298  AVERAGE MISS PENALTY: 148.917
LLC7 RFO       ACCESS:     1  HIT:     0  MISS:     1  HIT %:     0  MISS %:   100  AVERAGE MISS PENALTY: 78
LLC7 PREFETCH  ACCESS: 455667  HIT:  2363  MISS: 453304  HIT %: 0.51858  MISS %: 99.4814  AVERAGE MISS PENALTY: 109.973
LLC7 WRITEBACK ACCESS:   650  HIT:     0  MISS:   650  HIT %:     0  MISS %:   100  AVERAGE MISS PENALTY: 0
LLC7 PREFETCH  REQUESTED:     0  ISSUED:     0  USEFUL:    42  USELESS:  1160
 USEFUL LOAD PREFETCHES:         42 PREFETCH ISSUED TO LOWER LEVEL:    3627196  ACCURACY: 0.00115792
 TIMELY PREFETCHES:         42 LATE PREFETCHES: 0 DROPPED PREFETCHES: 0
LLC7 AVERAGE MISS LATENCY: 109.972 cycles

LLC7 Set Associative Eviction Count : 0
LLC7 Priority 0 entries : 12288
LLC7 Inter-Core Interference : 2580
ROI Average ROB Stall Cycles:	7.99244
ROI Total ROB Stalls Cycles:	502753474
ROI TOTAL ROB counter      :	62903623
ROI Average Load ROB Stall Cycles:	12.3541
ROI Total Load ROB Stalls Cycle  :	66048255
ROI Total Load ROB stalls Counter:	5346256
Major fault: 0 Minor fault: 121197

CPU 7 cumulative IPC: 0.344856 instructions: 200000003 cycles: 579952494
ITLB TOTAL     ACCESS: 22896630  HIT: 22896630  MISS:     0  HIT %:   100  MISS %:     0  AVERAGE MISS PENALTY: 0
ITLB LOAD      ACCESS: 22896630  HIT: 22896630  MISS:     0  HIT %:   100  MISS %:     0  AVERAGE MISS PENALTY: 0
ITLB RFO       ACCESS:     0  HIT:     0  MISS:     0  HIT %:     0  MISS %:     0  AVERAGE MISS PENALTY: 0
ITLB PREFETCH  ACCESS:     0  HIT:     0  MISS:     0  HIT %:     0  MISS %:     0  AVERAGE MISS PENALTY: 0
ITLB WRITEBACK ACCESS:     0  HIT:     0  MISS:     0  HIT %:     0  MISS %:     0  AVERAGE MISS PENALTY: 0
ITLB PREFETCH  REQUESTED:     0  ISSUED:     0  USEFUL:     0  USELESS:     0
 USEFUL LOAD PREFETCHES:          0 PREFETCH ISSUED TO LOWER LEVEL:          0  ACCURACY: -nan
 TIMELY PREFETCHES:          0 LATE PREFETCHES: 0 DROPPED PREFETCHES: 0
ITLB AVERAGE MISS LATENCY: -nan cycles

ITLB Set Associative Eviction Count : 0
ITLB Priority 0 entries : 0
ITLB Inter-Core Interference : 0
DTLB TOTAL     ACCESS: 63256322  HIT: 63189524  MISS: 66798  HIT %: 99.8944  MISS %: 0.105599  AVERAGE MISS PENALTY: 100.785
DTLB LOAD      ACCESS: 43844842  HIT: 43778070  MISS: 66772  HIT %: 99.8477  MISS %: 0.152292  AVERAGE MISS PENALTY: 100.782
DTLB RFO       ACCESS: 19411480  HIT: 19411454  MISS:    26  HIT %: 99.9999  MISS %: 0.000133941  AVERAGE MISS PENALTY: 109
DTLB PREFETCH  ACCESS:     0  HIT:     0  MISS:     0  HIT %:     0  MISS %:     0  AVERAGE MISS PENALTY: 0
DTLB WRITEBACK ACCESS:     0  HIT:     0  MISS:     0  HIT %:     0  MISS %:     0  AVERAGE MISS PENALTY: 0
DTLB PREFETCH  REQUESTED:     0  ISSUED:     0  USEFUL:     0  USELESS:     0
 USEFUL LOAD PREFETCHES:          0 PREFETCH ISSUED TO LOWER LEVEL:          0  ACCURACY: -nan
 TIMELY PREFETCHES:          0 LATE PREFETCHES: 0 DROPPED PREFETCHES: 0
DTLB AVERAGE MISS LATENCY: 100.786 cycles

DTLB Set Associative Eviction Count : 0
DTLB Priority 0 entries : 0
DTLB Inter-Core Interference : 0
STLB TOTAL     ACCESS: 66798  HIT:  5492  MISS: 61306  HIT %: 8.2218  MISS %: 91.7782  AVERAGE MISS PENALTY: 100
STLB LOAD      ACCESS: 66772  HIT:  5492  MISS: 61280  HIT %: 8.225  MISS %: 91.775  AVERAGE MISS PENALTY: 100
STLB RFO       ACCESS:    26  HIT:     0  MISS:    26  HIT %:     0  MISS %:   100  AVERAGE MISS PENALTY: 100
STLB PREFETCH  ACCESS:     0  HIT:     0  MISS:     0  HIT %:     0  MISS %:     0  AVERAGE MISS PENALTY: 0
STLB WRITEBACK ACCESS:     0  HIT:     0  MISS:     0  HIT %:     0  MISS %:     0  AVERAGE MISS PENALTY: 0
STLB PREFETCH  REQUESTED:     0  ISSUED:     0  USEFUL:     0  USELESS:     0
 USEFUL LOAD PREFETCHES:          0 PREFETCH ISSUED TO LOWER LEVEL:          0  ACCURACY: -nan
 TIMELY PREFETCHES:          0 LATE PREFETCHES: 0 DROPPED PREFETCHES: 0
STLB AVERAGE MISS LATENCY: 100 cycles

STLB Set Associative Eviction Count : 0
STLB Priority 0 entries : 0
STLB Inter-Core Interference : 0
L1D TOTAL     ACCESS: 117965689  HIT: 112663279  MISS: 5302410  HIT %: 95.5051  MISS %: 4.49487  AVERAGE MISS PENALTY: 2.46715e+07
L1D LOAD      ACCESS: 41817144  HIT: 41136547  MISS: 680597  HIT %: 98.3724  MISS %: 1.62755  AVERAGE MISS PENALTY: 1.92189e+08
L1D RFO       ACCESS: 19411479  HIT: 19410580  MISS:   899  HIT %: 99.9954  MISS %: 0.00463128  AVERAGE MISS PENALTY: 1.63215e+07
L1D PREFETCH  ACCESS: 56737066  HIT: 52116152  MISS: 4620914  HIT %: 91.8556  MISS %: 8.14444  AVERAGE MISS PENALTY: 48.0887
L1D WRITEBACK ACCESS:     0  HIT:     0  MISS:     0  HIT %:     0  MISS %:     0  AVERAGE MISS PENALTY: 0
L1D PREFETCH  REQUESTED: 64421270  ISSUED: 64031137  USEFUL: 4229493  USELESS: 391422
 USEFUL LOAD PREFETCHES:    4229493 PREFETCH ISSUED TO LOWER LEVEL:    9298495  ACCURACY: 45.4858
 TIMELY PREFETCHES:    4229493 LATE PREFETCHES: 370109 DROPPED PREFETCHES: 390133
L1D AVERAGE MISS LATENCY: 2814.4 cycles

L1D Set Associative Eviction Count : 0
L1D Priority 0 entries : 0
L1D Inter-Core Interference : 0
L1I TOTAL     ACCESS: 32505802  HIT: 32505802  MISS:     0  HIT %:   100  MISS %:     0  AVERAGE MISS PENALTY: 0
L1I LOAD      ACCESS: 32505802  HIT: 32505802  MISS:     0  HIT %:   100  MISS %:     0  AVERAGE MISS PENALTY: 0
L1I RFO       ACCESS:     0  HIT:     0  MISS:     0  HIT %:     0  MISS %:     0  AVERAGE MISS PENALTY: 0
L1I PREFETCH  ACCESS:     0  HIT:     0  MISS:     0  HIT %:     0  MISS %:     0  AVERAGE MISS PENALTY: 0
L1I WRITEBACK ACCESS:     0  HIT:     0  MISS:     0  HIT %:     0  MISS %:     0  AVERAGE MISS PENALTY: 0
L1I PREFETCH  REQUESTED:     0  ISSUED:     0  USEFUL:     0  USELESS:     0
 USEFUL LOAD PREFETCHES:          0 PREFETCH ISSUED TO LOWER LEVEL:          0  ACCURACY: -nan
 TIMELY PREFETCHES:          0 LATE PREFETCHES: 0 DROPPED PREFETCHES: 0
L1I AVERAGE MISS LATENCY: -nan cycles

L1I Set Associative Eviction Count : 0
L1I Priority 0 entries : 0
L1I Inter-Core Interference : 0
L2C TOTAL     ACCESS: 9522053  HIT: 5866642  MISS: 3655411  HIT %: 61.6111  MISS %: 38.3889  AVERAGE MISS PENALTY: 2.21674e+07
L2C LOAD      ACCESS: 587219  HIT: 348894  MISS: 238325  HIT %: 59.4146  MISS %: 40.5854  AVERAGE MISS PENALTY: 3.39991e+08
L2C RFO       ACCESS:   865  HIT:   829  MISS:    36  HIT %: 95.8382  MISS %: 4.16185  AVERAGE MISS PENALTY: 5.49486e+07
L2C PREFETCH  ACCESS: 8921101  HIT: 5504051  MISS: 3417050  HIT %: 61.697  MISS %: 38.303  AVERAGE MISS PENALTY: 142.288
L2C WRITEBACK ACCESS: 12868  HIT: 12868  MISS:     0  HIT %:   100  MISS %:     0  AVERAGE MISS PENALTY: 0
L2C PREFETCH  REQUESTED: 6737578  ISSUED: 6725218  USEFUL: 27478  USELESS: 3389773
 USEFUL LOAD PREFETCHES:      27478 PREFETCH ISSUED TO LOWER LEVEL:    4962059  ACCURACY: 0.553762
 TIMELY PREFETCHES:      27478 LATE PREFETCHES: 168708 DROPPED PREFETCHES: 12360
L2C AVERAGE MISS LATENCY: 138.099 cycles

L2C Set Associative Eviction Count : 0
L2C Priority 0 entries : 0
L2C Inter-Core Interference : 0
LLC0 TOTAL     ACCESS: 456873  HIT:  1072  MISS: 455801  HIT %: 0.234639  MISS %: 99.7654  AVERAGE MISS PENALTY: 101.618
LLC0 LOAD      ACCESS: 56950  HIT:    39  MISS: 56911  HIT %: 0.0684811  MISS %: 99.9315  AVERAGE MISS PENALTY: 98.9437
LLC0 RFO       ACCESS:    26  HIT:     0  MISS:    26  HIT %:     0  MISS %:   100  AVERAGE MISS PENALTY: 105.962
LLC0 PREFETCH  ACCESS: 399273  HIT:  1032  MISS: 398241  HIT %: 0.25847  MISS %: 99.7415  AVERAGE MISS PENALTY: 102.159
LLC0 WRITEBACK ACCESS:   624  HIT:     1  MISS:   623  HIT %: 0.160256  MISS %: 99.8397  AVERAGE MISS PENALTY: 0
LLC0 PREFETCH  REQUESTED:     0  ISSUED:     0  USEFUL:    33  USELESS:  1095
 USEFUL LOAD PREFETCHES:         33 PREFETCH ISSUED TO LOWER LEVEL:    3186489  ACCURACY: 0.00103562
 TIMELY PREFETCHES:         33 LATE PREFETCHES: 0 DROPPED PREFETCHES: 0
LLC0 AVERAGE MISS LATENCY: 101.618 cycles

LLC0 Set Associative Eviction Count : 0
LLC0 Priority 0 entries : 12288
LLC0 Inter-Core Interference : 2507
LLC1 TOTAL     ACCESS: 457225  HIT:  1256  MISS: 455969  HIT %: 0.274701  MISS %: 99.7253  AVERAGE MISS PENALTY: 101.197
LLC1 LOAD      ACCESS:  2202  HIT:   130  MISS:  2072  HIT %: 5.90372  MISS %: 94.0963  AVERAGE MISS PENALTY: 134.94
LLC1 RFO       ACCESS:     0  HIT:     0  MISS:     0  HIT %:     0  MISS %:     0  AVERAGE MISS PENALTY: 0
LLC1 PREFETCH  ACCESS: 454366  HIT:  1125  MISS: 453241  HIT %: 0.247598  MISS %: 99.7524  AVERAGE MISS PENALTY: 101.189
LLC1 WRITEBACK ACCESS:   657  HIT:     1  MISS:   656  HIT %: 0.152207  MISS %: 99.8478  AVERAGE MISS PENALTY: 0
LLC1 PREFETCH  REQUESTED:     0  ISSUED:     0  USEFUL:    53  USELESS:  1106
 USEFUL LOAD PREFETCHES:         53 PREFETCH ISSUED TO LOWER LEVEL:    3626429  ACCURACY: 0.00146149
 TIMELY PREFETCHES:         53 LATE PREFETCHES: 0 DROPPED PREFETCHES: 0
LLC1 AVERAGE MISS LATENCY: 101.197 cycles

LLC1 Set Associative Eviction Count : 0
LLC1 Priority 0 entries : 12288
LLC1 Inter-Core Interference : 2505
LLC2 TOTAL     ACCESS: 457912  HIT:  2026  MISS: 455886  HIT %: 0.442443  MISS %: 99.5576  AVERAGE MISS PENALTY: 110.743
LLC2 LOAD      ACCESS:  2139  HIT:   417  MISS:  1722  HIT %: 19.4951  MISS %: 80.5049  AVERAGE MISS PENALTY: 145.291
LLC2 RFO       ACCESS:     1  HIT:     0  MISS:     1  HIT %:     0  MISS %:   100  AVERAGE MISS PENALTY: 78
LLC2 PREFETCH  ACCESS: 455134  HIT:  1608  MISS: 453526  HIT %: 0.353303  MISS %: 99.6467  AVERAGE MISS PENALTY: 110.768
LLC2 WRITEBACK ACCESS:   638  HIT:     1  MISS:   637  HIT %: 0.15674  MISS %: 99.8433  AVERAGE MISS PENALTY: 0
LLC2 PREFETCH  REQUESTED:     0  ISSUED:     0  USEFUL:    27  USELESS:  1261
 USEFUL LOAD PREFETCHES:         27 PREFETCH ISSUED TO LOWER LEVEL:    3628646  ACCURACY: 0.000744079
 TIMELY PREFETCHES:         27 LATE PREFETCHES: 0 DROPPED PREFETCHES: 0
LLC2 AVERAGE MISS LATENCY: 110.743 cycles

LLC2 Set Associative Eviction Count : 0
LLC2 Priority 0 entries : 12288
LLC2 Inter-Core Interference : 2603
LLC3 TOTAL     ACCESS: 457774  HIT:  2028  MISS: 455746  HIT %: 0.443013  MISS %: 99.557  AVERAGE MISS PENALTY: 103.077
LLC3 LOAD      ACCESS:  2184  HIT:   224  MISS:  1960  HIT %: 10.2564  MISS %: 89.7436  AVERAGE MISS PENALTY: 141.085
LLC3 RFO       ACCESS:     2  HIT:     0  MISS:     2  HIT %:     0  MISS %:   100  AVERAGE MISS PENALTY: 178
LLC3 PREFETCH  ACCESS: 454941  HIT:  1804  MISS: 453137  HIT %: 0.396535  MISS %: 99.6035  AVERAGE MISS PENALTY: 103.06
LLC3 WRITEBACK ACCESS:   647  HIT:     0  MISS:   647  HIT %:     0  MISS %:   100  AVERAGE MISS PENALTY: 0
LLC3 PREFETCH  REQUESTED:     0  ISSUED:     0  USEFUL:    47  USELESS:  1226
 USEFUL LOAD PREFETCHES:         47 PREFETCH ISSUED TO LOWER LEVEL:    3625777  ACCURACY: 0.00129627
 TIMELY PREFETCHES:         47 LATE PREFETCHES: 0 DROPPED PREFETCHES: 0
LLC3 AVERAGE MISS LATENCY: 103.077 cycles

LLC3 Set Associative Eviction Count : 0
LLC3 Priority 0 entries : 12288
LLC3 Inter-Core Interference : 2517
LLC4 TOTAL     ACCESS: 457829  HIT:  2042  MISS: 455787  HIT %: 0.446018  MISS %: 99.554  AVERAGE MISS PENALTY: 102.209
LLC4 LOAD      ACCESS:  1790  HIT:    18  MISS:  1772  HIT %: 1.00559  MISS %: 98.9944  AVERAGE MISS PENALTY: 145.308
LLC4 RFO       ACCESS:     1  HIT:     0  MISS:     1  HIT %:     0  MISS %:   100  AVERAGE MISS PENALTY: 178
LLC4 PREFETCH  ACCESS: 455393  HIT:  2024  MISS: 453369  HIT %: 0.444451  MISS %: 99.5555  AVERAGE MISS PENALTY: 102.186
LLC4 WRITEBACK ACCESS:   645  HIT:     0  MISS:   645  HIT %:     0  MISS %:   100  AVERAGE MISS PENALTY: 0
LLC4 PREFETCH  REQUESTED:     0  ISSUED:     0  USEFUL:    54  USELESS:  1238
 USEFUL LOAD PREFETCHES:         54 PREFETCH ISSUED TO LOWER LEVEL:    3627571  ACCURACY: 0.0014886
 TIMELY PREFETCHES:         54 LATE PREFETCHES: 0 DROPPED PREFETCHES: 0
LLC4 AVERAGE MISS LATENCY: 102.209 cycles

LLC4 Set Associative Eviction Count : 0
LLC4 Priority 0 entries : 12288
LLC4 Inter-Core Interference : 2660
LLC5 TOTAL     ACCESS: 457304  HIT:  1563  MISS: 455741  HIT %: 0.341786  MISS %: 99.6582  AVERAGE MISS PENALTY: 102.93
LLC5 LOAD      ACCESS:  1886  HIT:    45  MISS:  1841  HIT %: 2.386  MISS %: 97.614  AVERAGE MISS PENALTY: 149.285
LLC5 RFO       ACCESS:     1  HIT:     0  MISS:     1  HIT %:     0  MISS %:   100  AVERAGE MISS PENALTY: 178
LLC5 PREFETCH  ACCESS: 454784  HIT:  1516  MISS: 453268  HIT %: 0.333345  MISS %: 99.6667  AVERAGE MISS PENALTY: 102.885
LLC5 WRITEBACK ACCESS:   633  HIT:     2  MISS:   631  HIT %: 0.315956  MISS %: 99.684  AVERAGE MISS PENALTY: 0
LLC5 PREFETCH  REQUESTED:     0  ISSUED:     0  USEFUL:    40  USELESS:  1168
 USEFUL LOAD PREFETCHES:         40 PREFETCH ISSUED TO LOWER LEVEL:    3627087  ACCURACY: 0.00110281
 TIMELY PREFETCHES:         40 LATE PREFETCHES: 0 DROPPED PREFETCHES: 0
LLC5 AVERAGE MISS LATENCY: 102.93 cycles

LLC5 Set Associative Eviction Count : 0
LLC5 Priority 0 entries : 12288
LLC5 Inter-Core Interference : 2545
LLC6 TOTAL     ACCESS: 457484  HIT:  1626  MISS: 455858  HIT %: 0.355422  MISS %: 99.6446  AVERAGE MISS PENALTY: 109.858
LLC6 LOAD      ACCESS:  1963  HIT:   134  MISS:  1829  HIT %: 6.82629  MISS %: 93.1737  AVERAGE MISS PENALTY: 146.179
LLC6 RFO       ACCESS:     1  HIT:     0  MISS:     1  HIT %:     0  MISS %:   100  AVERAGE MISS PENALTY: 178
LLC6 PREFETCH  ACCESS: 454848  HIT:  1491  MISS: 453357  HIT %: 0.327802  MISS %: 99.6722  AVERAGE MISS PENALTY: 109.874
LLC6 WRITEBACK ACCESS:   672  HIT:     1  MISS:   671  HIT %: 0.14881  MISS %: 99.8512  AVERAGE MISS PENALTY: 0
LLC6 PREFETCH  REQUESTED:     0  ISSUED:     0  USEFUL:    20  USELESS:  1199
 USEFUL LOAD PREFETCHES:         20 PREFETCH ISSUED TO LOWER LEVEL:    3627606  ACCURACY: 0.000551328
 TIMELY PREFETCHES:         20 LATE PREFETCHES: 0 DROPPED PREFETCHES: 0
LLC6 AVERAGE MISS LATENCY: 109.858 cycles

LLC6 Set Associative Eviction Count : 0
LLC6 Priority 0 entries : 12288
LLC6 Inter-Core Interference : 2645
LLC7 TOTAL     ACCESS: 458171  HIT:  2333  MISS: 455838  HIT %: 0.509199  MISS %: 99.4908  AVERAGE MISS PENALTY: 110.553
LLC7 LOAD      ACCESS:  1945  HIT:   111  MISS:  1834  HIT %: 5.70694  MISS %: 94.2931  AVERAGE MISS PENALTY: 146.874
LLC7 RFO       ACCESS:     1  HIT:     0  MISS:     1  HIT %:     0  MISS %:   100  AVERAGE MISS PENALTY: 178
LLC7 PREFETCH  ACCESS: 455580  HIT:  2222  MISS: 453358  HIT %: 0.48773  MISS %: 99.5123  AVERAGE MISS PENALTY: 110.563
LLC7 WRITEBACK ACCESS:   645  HIT:     0  MISS:   645  HIT %:     0  MISS %:   100  AVERAGE MISS PENALTY: 0
LLC7 PREFETCH  REQUESTED:     0  ISSUED:     0  USEFUL:    42  USELESS:  1160
 USEFUL LOAD PREFETCHES:         42 PREFETCH ISSUED TO LOWER LEVEL:    3627196  ACCURACY: 0.00115792
 TIMELY PREFETCHES:         42 LATE PREFETCHES: 0 DROPPED PREFETCHES: 0
LLC7 AVERAGE MISS LATENCY: 110.553 cycles

LLC7 Set Associative Eviction Count : 0
LLC7 Priority 0 entries : 12288
LLC7 Inter-Core Interference : 2580
ROI Average ROB Stall Cycles:	7.99319
ROI Total ROB Stalls Cycles:	502799249
ROI TOTAL ROB counter      :	62903442
ROI Average Load ROB Stall Cycles:	12.3621
ROI Total Load ROB Stalls Cycle  :	66088061
ROI Total Load ROB stalls Counter:	5346030
Major fault: 0 Minor fault: 121192








Interconnect Stats 
LINK 0 BW : 0LINK 1 BW : 0LINK 2 BW : 0LINK 3 BW : 0LINK 4 BW : 0LINK 5 BW : 0LINK 6 BW : 0LINK 7 BW : 0
DRAM Statistics
 CHANNEL 0
 RQ ROW_BUFFER_HIT: 13265399  ROW_BUFFER_MISS: 1303119
 DBUS_CONGESTED: 4661290
 WQ ROW_BUFFER_HIT:  3273  ROW_BUFFER_MISS:  3297  FULL:     0

 CHANNEL 1
 RQ ROW_BUFFER_HIT: 13229163  ROW_BUFFER_MISS: 1339101
 DBUS_CONGESTED: 4661290
 WQ ROW_BUFFER_HIT:  3301  ROW_BUFFER_MISS:  3142  FULL:     0

 AVG_CONGESTED_CYCLE: 4
DRAM PAGES: 2097152
Allocated PAGES: 969574
L2C destructor called
L1D destructor called
L1I destructor called
STLB destructor called
DTLB destructor called
ITLB destructor called
L2C destructor called
L1D destructor called
L1I destructor called
STLB destructor called
DTLB destructor called
ITLB destructor called
L2C destructor called
L1D destructor called
L1I destructor called
STLB destructor called
DTLB destructor called
ITLB destructor called
L2C destructor called
L1D destructor called
L1I destructor called
STLB destructor called
DTLB destructor called
ITLB destructor called
L2C destructor called
L1D destructor called
L1I destructor called
STLB destructor called
DTLB destructor called
ITLB destructor called
L2C destructor called
L1D destructor called
L1I destructor called
STLB destructor called
DTLB destructor called
ITLB destructor called
L2C destructor called
L1D destructor called
L1I destructor called
STLB destructor called
DTLB destructor called
ITLB destructor called
L2C destructor called
L1D destructor called
L1I destructor called
STLB destructor called
DTLB destructor called
ITLB destructor called
