
*** ChampSim Multicore Out-of-Order Simulator ***

Warmup Instructions: 200000000
Simulation Instructions: 200000000
Number of CPUs: 8
threads:1

L1I Configuration:
L1I_SET:64
L1I_WAY:8
L1I_RQ_SIZE:64
L1I_WQ_SIZE:64
L1I_PQ_SIZE:8
L1I_MSHR_SIZE:8

L1D Configuration:
L1D_SET:64
L1D_WAY:12
L1D_RQ_SIZE:64
L1D_WQ_SIZE:64
L1D_PQ_SIZE:8
L1D_MSHR_SIZE:16

L2C Configuration:
L2C_SET:1024
L2C_WAY:8
L2C_RQ_SIZE:32
L2C_WQ_SIZE:32
L2C_PQ_SIZE:16
L2C_MSHR_SIZE:32

LLC Configuration:
LLC_SET:2048
LLC_WAY:12
LLC SLICES:8
LLC_RQ_SIZE:64
LLC_WQ_SIZE:64
LLC_PQ_SIZE:32
LLC_MSHR_SIZE:64

Interconnect OFF
Attacker deprioritize is: OFF
Off-chip DRAM Size: 8192 MB Channels: 2 Width: 64-bit Data Rate: 3200 MT/s
PAGE SIZE in KB: 4.000000 
PAGE SIZE in MB: 0.003906 
PAGE offset in bits: 12 
CEASER-S_LLC:0
MIRAGE : 1
CEASER_LATENCY:3
REMAP : OFF
Partitions : 1
Multi-Step : OFF
BFS : OFF

CPU 0 runs /home/anubhav/spec_2017/602.gcc_s-2226B.champsimtrace.xz
CPU 1 runs /home/anubhav/spec_2017/602.gcc_s-2226B.champsimtrace.xz
CPU 2 runs /home/anubhav/spec_2017/602.gcc_s-2226B.champsimtrace.xz
CPU 3 runs /home/anubhav/spec_2017/602.gcc_s-2226B.champsimtrace.xz
CPU 4 runs /home/anubhav/spec_2017/602.gcc_s-2226B.champsimtrace.xz
CPU 5 runs /home/anubhav/spec_2017/602.gcc_s-2226B.champsimtrace.xz
CPU 6 runs /home/anubhav/spec_2017/602.gcc_s-2226B.champsimtrace.xz
CPU 7 runs /home/anubhav/spec_2017/602.gcc_s-2226B.champsimtrace.xz
CPU 0 Bimodal branch predictor
Initialize Hawkeye state
Initialize Hawkeye state
Initialize Hawkeye state
Initialize Hawkeye state
Initialize Hawkeye state
Initialize Hawkeye state
Initialize Hawkeye state
Initialize Hawkeye state
CPU 1 Bimodal branch predictor
Initialize Hawkeye state
Initialize Hawkeye state
Initialize Hawkeye state
Initialize Hawkeye state
Initialize Hawkeye state
Initialize Hawkeye state
Initialize Hawkeye state
Initialize Hawkeye state
CPU 2 Bimodal branch predictor
Initialize Hawkeye state
Initialize Hawkeye state
Initialize Hawkeye state
Initialize Hawkeye state
Initialize Hawkeye state
Initialize Hawkeye state
Initialize Hawkeye state
Initialize Hawkeye state
CPU 3 Bimodal branch predictor
Initialize Hawkeye state
Initialize Hawkeye state
Initialize Hawkeye state
Initialize Hawkeye state
Initialize Hawkeye state
Initialize Hawkeye state
Initialize Hawkeye state
Initialize Hawkeye state
CPU 4 Bimodal branch predictor
Initialize Hawkeye state
Initialize Hawkeye state
Initialize Hawkeye state
Initialize Hawkeye state
Initialize Hawkeye state
Initialize Hawkeye state
Initialize Hawkeye state
Initialize Hawkeye state
CPU 5 Bimodal branch predictor
Initialize Hawkeye state
Initialize Hawkeye state
Initialize Hawkeye state
Initialize Hawkeye state
Initialize Hawkeye state
Initialize Hawkeye state
Initialize Hawkeye state
Initialize Hawkeye state
CPU 6 Bimodal branch predictor
Initialize Hawkeye state
Initialize Hawkeye state
Initialize Hawkeye state
Initialize Hawkeye state
Initialize Hawkeye state
Initialize Hawkeye state
Initialize Hawkeye state
Initialize Hawkeye state
CPU 7 Bimodal branch predictor
Initialize Hawkeye state
Initialize Hawkeye state
Initialize Hawkeye state
Initialize Hawkeye state
Initialize Hawkeye state
Initialize Hawkeye state
Initialize Hawkeye state
Initialize Hawkeye state
Heartbeat CPU 0 instructions: 10000001 cycles: 4876071 heartbeat IPC: 2.05083 cumulative IPC: 2.05083 (Simulation time: 3 hr 19 min 4 sec) 
 Total Blocks : 196608 Invalid Blocks : 182640 Valid Blocks : 13968
 Total Tags : 491520 Threshold : 12288 Invalid Tags : 379248 Pr0 Tags : 98304 Pr1 Tags : 13968 num_pr0 : 12288
 SAE Count : 0
 Inter-Core Inteference in Data Store : 454
Heartbeat CPU 1 instructions: 10000001 cycles: 4876209 heartbeat IPC: 2.05077 cumulative IPC: 2.05077 (Simulation time: 3 hr 19 min 5 sec) 
 Total Blocks : 196608 Invalid Blocks : 182640 Valid Blocks : 13968
 Total Tags : 491520 Threshold : 12288 Invalid Tags : 379248 Pr0 Tags : 98304 Pr1 Tags : 13968 num_pr0 : 12288
 SAE Count : 0
 Inter-Core Inteference in Data Store : 454
Heartbeat CPU 2 instructions: 10000001 cycles: 4876335 heartbeat IPC: 2.05072 cumulative IPC: 2.05072 (Simulation time: 3 hr 19 min 6 sec) 
 Total Blocks : 196608 Invalid Blocks : 182640 Valid Blocks : 13968
 Total Tags : 491520 Threshold : 12288 Invalid Tags : 379248 Pr0 Tags : 98304 Pr1 Tags : 13968 num_pr0 : 12288
 SAE Count : 0
 Inter-Core Inteference in Data Store : 454
Heartbeat CPU 3 instructions: 10000001 cycles: 4876398 heartbeat IPC: 2.05069 cumulative IPC: 2.05069 (Simulation time: 3 hr 19 min 6 sec) 
 Total Blocks : 196608 Invalid Blocks : 182640 Valid Blocks : 13968
 Total Tags : 491520 Threshold : 12288 Invalid Tags : 379248 Pr0 Tags : 98304 Pr1 Tags : 13968 num_pr0 : 12288
 SAE Count : 0
 Inter-Core Inteference in Data Store : 454
Heartbeat CPU 4 instructions: 10000001 cycles: 4876474 heartbeat IPC: 2.05066 cumulative IPC: 2.05066 (Simulation time: 3 hr 19 min 6 sec) 
 Total Blocks : 196608 Invalid Blocks : 182639 Valid Blocks : 13969
 Total Tags : 491520 Threshold : 12288 Invalid Tags : 379247 Pr0 Tags : 98304 Pr1 Tags : 13969 num_pr0 : 12288
 SAE Count : 0
 Inter-Core Inteference in Data Store : 454
Heartbeat CPU 5 instructions: 10000001 cycles: 4876578 heartbeat IPC: 2.05062 cumulative IPC: 2.05062 (Simulation time: 3 hr 19 min 6 sec) 
 Total Blocks : 196608 Invalid Blocks : 182639 Valid Blocks : 13969
 Total Tags : 491520 Threshold : 12288 Invalid Tags : 379247 Pr0 Tags : 98304 Pr1 Tags : 13969 num_pr0 : 12288
 SAE Count : 0
 Inter-Core Inteference in Data Store : 454
Heartbeat CPU 6 instructions: 10000001 cycles: 4876634 heartbeat IPC: 2.0506 cumulative IPC: 2.0506 (Simulation time: 3 hr 19 min 6 sec) 
 Total Blocks : 196608 Invalid Blocks : 182639 Valid Blocks : 13969
 Total Tags : 491520 Threshold : 12288 Invalid Tags : 379247 Pr0 Tags : 98304 Pr1 Tags : 13969 num_pr0 : 12288
 SAE Count : 0
 Inter-Core Inteference in Data Store : 454
Heartbeat CPU 7 instructions: 10000001 cycles: 4876730 heartbeat IPC: 2.05055 cumulative IPC: 2.05055 (Simulation time: 3 hr 19 min 7 sec) 
 Total Blocks : 196608 Invalid Blocks : 182639 Valid Blocks : 13969
 Total Tags : 491520 Threshold : 12288 Invalid Tags : 379247 Pr0 Tags : 98304 Pr1 Tags : 13969 num_pr0 : 12288
 SAE Count : 0
 Inter-Core Inteference in Data Store : 454
Heartbeat CPU 0 instructions: 20000000 cycles: 9742420 heartbeat IPC: 2.05493 cumulative IPC: 2.05288 (Simulation time: 11 hr 9 min 6 sec) 
 Total Blocks : 196608 Invalid Blocks : 172903 Valid Blocks : 23705
 Total Tags : 491520 Threshold : 12288 Invalid Tags : 369511 Pr0 Tags : 98304 Pr1 Tags : 23705 num_pr0 : 12288
 SAE Count : 0
 Inter-Core Inteference in Data Store : 1387
Heartbeat CPU 1 instructions: 20000000 cycles: 9742584 heartbeat IPC: 2.05492 cumulative IPC: 2.05284 (Simulation time: 11 hr 9 min 7 sec) 
 Total Blocks : 196608 Invalid Blocks : 172903 Valid Blocks : 23705
 Total Tags : 491520 Threshold : 12288 Invalid Tags : 369511 Pr0 Tags : 98304 Pr1 Tags : 23705 num_pr0 : 12288
 SAE Count : 0
 Inter-Core Inteference in Data Store : 1387
Heartbeat CPU 2 instructions: 20000000 cycles: 9742938 heartbeat IPC: 2.05482 cumulative IPC: 2.05277 (Simulation time: 11 hr 9 min 10 sec) 
 Total Blocks : 196608 Invalid Blocks : 172903 Valid Blocks : 23705
 Total Tags : 491520 Threshold : 12288 Invalid Tags : 369511 Pr0 Tags : 98304 Pr1 Tags : 23705 num_pr0 : 12288
 SAE Count : 0
 Inter-Core Inteference in Data Store : 1387
Heartbeat CPU 3 instructions: 20000000 cycles: 9743052 heartbeat IPC: 2.0548 cumulative IPC: 2.05274 (Simulation time: 11 hr 9 min 10 sec) 
 Total Blocks : 196608 Invalid Blocks : 172903 Valid Blocks : 23705
 Total Tags : 491520 Threshold : 12288 Invalid Tags : 369511 Pr0 Tags : 98304 Pr1 Tags : 23705 num_pr0 : 12288
 SAE Count : 0
 Inter-Core Inteference in Data Store : 1387
Heartbeat CPU 4 instructions: 20000000 cycles: 9743182 heartbeat IPC: 2.05478 cumulative IPC: 2.05272 (Simulation time: 11 hr 9 min 11 sec) 
 Total Blocks : 196608 Invalid Blocks : 172903 Valid Blocks : 23705
 Total Tags : 491520 Threshold : 12288 Invalid Tags : 369511 Pr0 Tags : 98304 Pr1 Tags : 23705 num_pr0 : 12288
 SAE Count : 0
 Inter-Core Inteference in Data Store : 1387
Heartbeat CPU 5 instructions: 20000000 cycles: 9743403 heartbeat IPC: 2.05473 cumulative IPC: 2.05267 (Simulation time: 11 hr 9 min 13 sec) 
 Total Blocks : 196608 Invalid Blocks : 172903 Valid Blocks : 23705
 Total Tags : 491520 Threshold : 12288 Invalid Tags : 369511 Pr0 Tags : 98304 Pr1 Tags : 23705 num_pr0 : 12288
 SAE Count : 0
 Inter-Core Inteference in Data Store : 1387
Heartbeat CPU 6 instructions: 20000000 cycles: 9743575 heartbeat IPC: 2.05468 cumulative IPC: 2.05263 (Simulation time: 11 hr 9 min 13 sec) 
 Total Blocks : 196608 Invalid Blocks : 172903 Valid Blocks : 23705
 Total Tags : 491520 Threshold : 12288 Invalid Tags : 369511 Pr0 Tags : 98304 Pr1 Tags : 23705 num_pr0 : 12288
 SAE Count : 0
 Inter-Core Inteference in Data Store : 1387
Heartbeat CPU 7 instructions: 20000000 cycles: 9743846 heartbeat IPC: 2.0546 cumulative IPC: 2.05258 (Simulation time: 11 hr 9 min 15 sec) 
 Total Blocks : 196608 Invalid Blocks : 172903 Valid Blocks : 23705
 Total Tags : 491520 Threshold : 12288 Invalid Tags : 369511 Pr0 Tags : 98304 Pr1 Tags : 23705 num_pr0 : 12288
 SAE Count : 0
 Inter-Core Inteference in Data Store : 1387
Heartbeat CPU 0 instructions: 30000000 cycles: 14591019 heartbeat IPC: 2.06245 cumulative IPC: 2.05606 (Simulation time: 21 hr 3 min 21 sec) 
 Total Blocks : 196608 Invalid Blocks : 165203 Valid Blocks : 31405
 Total Tags : 491520 Threshold : 12288 Invalid Tags : 361811 Pr0 Tags : 98304 Pr1 Tags : 31405 num_pr0 : 12288
 SAE Count : 0
 Inter-Core Inteference in Data Store : 2483
Heartbeat CPU 1 instructions: 30000000 cycles: 14591272 heartbeat IPC: 2.06241 cumulative IPC: 2.05602 (Simulation time: 21 hr 3 min 23 sec) 
 Total Blocks : 196608 Invalid Blocks : 165203 Valid Blocks : 31405
 Total Tags : 491520 Threshold : 12288 Invalid Tags : 361811 Pr0 Tags : 98304 Pr1 Tags : 31405 num_pr0 : 12288
 SAE Count : 0
 Inter-Core Inteference in Data Store : 2483
Heartbeat CPU 2 instructions: 30000000 cycles: 14591722 heartbeat IPC: 2.06237 cumulative IPC: 2.05596 (Simulation time: 21 hr 3 min 26 sec) 
 Total Blocks : 196608 Invalid Blocks : 165202 Valid Blocks : 31406
 Total Tags : 491520 Threshold : 12288 Invalid Tags : 361810 Pr0 Tags : 98304 Pr1 Tags : 31406 num_pr0 : 12288
 SAE Count : 0
 Inter-Core Inteference in Data Store : 2483
Heartbeat CPU 3 instructions: 30000000 cycles: 14591845 heartbeat IPC: 2.06237 cumulative IPC: 2.05594 (Simulation time: 21 hr 3 min 26 sec) 
 Total Blocks : 196608 Invalid Blocks : 165202 Valid Blocks : 31406
 Total Tags : 491520 Threshold : 12288 Invalid Tags : 361810 Pr0 Tags : 98304 Pr1 Tags : 31406 num_pr0 : 12288
 SAE Count : 0
 Inter-Core Inteference in Data Store : 2483
Heartbeat CPU 4 instructions: 30000000 cycles: 14592086 heartbeat IPC: 2.06232 cumulative IPC: 2.05591 (Simulation time: 21 hr 3 min 29 sec) 
 Total Blocks : 196608 Invalid Blocks : 165201 Valid Blocks : 31407
 Total Tags : 491520 Threshold : 12288 Invalid Tags : 361810 Pr0 Tags : 98303 Pr1 Tags : 31407 num_pr0 : 12287
 SAE Count : 0
 Inter-Core Inteference in Data Store : 2483
Heartbeat CPU 5 instructions: 30000000 cycles: 14592414 heartbeat IPC: 2.06228 cumulative IPC: 2.05586 (Simulation time: 21 hr 3 min 31 sec) 
 Total Blocks : 196608 Invalid Blocks : 165197 Valid Blocks : 31411
 Total Tags : 491520 Threshold : 12288 Invalid Tags : 361805 Pr0 Tags : 98304 Pr1 Tags : 31411 num_pr0 : 12288
 SAE Count : 0
 Inter-Core Inteference in Data Store : 2484
Heartbeat CPU 6 instructions: 30000000 cycles: 14592637 heartbeat IPC: 2.06225 cumulative IPC: 2.05583 (Simulation time: 21 hr 3 min 33 sec) 
 Total Blocks : 196608 Invalid Blocks : 165197 Valid Blocks : 31411
 Total Tags : 491520 Threshold : 12288 Invalid Tags : 361805 Pr0 Tags : 98304 Pr1 Tags : 31411 num_pr0 : 12288
 SAE Count : 0
 Inter-Core Inteference in Data Store : 2484
Heartbeat CPU 7 instructions: 30000000 cycles: 14593011 heartbeat IPC: 2.06221 cumulative IPC: 2.05578 (Simulation time: 21 hr 3 min 37 sec) 
 Total Blocks : 196608 Invalid Blocks : 165197 Valid Blocks : 31411
 Total Tags : 491520 Threshold : 12288 Invalid Tags : 361805 Pr0 Tags : 98304 Pr1 Tags : 31411 num_pr0 : 12288
 SAE Count : 0
 Inter-Core Inteference in Data Store : 2484
Heartbeat CPU 0 instructions: 40000001 cycles: 19441379 heartbeat IPC: 2.0617 cumulative IPC: 2.05747 (Simulation time: 27 hr 28 min 20 sec) 
 Total Blocks : 196608 Invalid Blocks : 159147 Valid Blocks : 37461
 Total Tags : 491520 Threshold : 12288 Invalid Tags : 355755 Pr0 Tags : 98304 Pr1 Tags : 37461 num_pr0 : 12288
 SAE Count : 0
 Inter-Core Inteference in Data Store : 3635
Heartbeat CPU 1 instructions: 40000001 cycles: 19441777 heartbeat IPC: 2.06164 cumulative IPC: 2.05743 (Simulation time: 27 hr 28 min 20 sec) 
 Total Blocks : 196608 Invalid Blocks : 159147 Valid Blocks : 37461
 Total Tags : 491520 Threshold : 12288 Invalid Tags : 355755 Pr0 Tags : 98304 Pr1 Tags : 37461 num_pr0 : 12288
 SAE Count : 0
 Inter-Core Inteference in Data Store : 3635
Heartbeat CPU 2 instructions: 40000001 cycles: 19442241 heartbeat IPC: 2.06164 cumulative IPC: 2.05738 (Simulation time: 27 hr 28 min 20 sec) 
 Total Blocks : 196608 Invalid Blocks : 159147 Valid Blocks : 37461
 Total Tags : 491520 Threshold : 12288 Invalid Tags : 355755 Pr0 Tags : 98304 Pr1 Tags : 37461 num_pr0 : 12288
 SAE Count : 0
 Inter-Core Inteference in Data Store : 3635
Heartbeat CPU 3 instructions: 40000001 cycles: 19442348 heartbeat IPC: 2.06164 cumulative IPC: 2.05736 (Simulation time: 27 hr 28 min 20 sec) 
 Total Blocks : 196608 Invalid Blocks : 159147 Valid Blocks : 37461
 Total Tags : 491520 Threshold : 12288 Invalid Tags : 355755 Pr0 Tags : 98304 Pr1 Tags : 37461 num_pr0 : 12288
 SAE Count : 0
 Inter-Core Inteference in Data Store : 3635
Heartbeat CPU 4 instructions: 40000001 cycles: 19442774 heartbeat IPC: 2.06156 cumulative IPC: 2.05732 (Simulation time: 27 hr 28 min 20 sec) 
 Total Blocks : 196608 Invalid Blocks : 159147 Valid Blocks : 37461
 Total Tags : 491520 Threshold : 12288 Invalid Tags : 355755 Pr0 Tags : 98304 Pr1 Tags : 37461 num_pr0 : 12288
 SAE Count : 0
 Inter-Core Inteference in Data Store : 3635
Heartbeat CPU 5 instructions: 40000001 cycles: 19443156 heartbeat IPC: 2.06154 cumulative IPC: 2.05728 (Simulation time: 27 hr 28 min 21 sec) 
 Total Blocks : 196608 Invalid Blocks : 159147 Valid Blocks : 37461
 Total Tags : 491520 Threshold : 12288 Invalid Tags : 355755 Pr0 Tags : 98304 Pr1 Tags : 37461 num_pr0 : 12288
 SAE Count : 0
 Inter-Core Inteference in Data Store : 3635
Heartbeat CPU 6 instructions: 40000001 cycles: 19443351 heartbeat IPC: 2.06155 cumulative IPC: 2.05726 (Simulation time: 27 hr 28 min 21 sec) 
 Total Blocks : 196608 Invalid Blocks : 159147 Valid Blocks : 37461
 Total Tags : 491520 Threshold : 12288 Invalid Tags : 355755 Pr0 Tags : 98304 Pr1 Tags : 37461 num_pr0 : 12288
 SAE Count : 0
 Inter-Core Inteference in Data Store : 3635
Heartbeat CPU 7 instructions: 40000001 cycles: 19443794 heartbeat IPC: 2.06152 cumulative IPC: 2.05721 (Simulation time: 27 hr 28 min 21 sec) 
 Total Blocks : 196608 Invalid Blocks : 159147 Valid Blocks : 37461
 Total Tags : 491520 Threshold : 12288 Invalid Tags : 355755 Pr0 Tags : 98304 Pr1 Tags : 37461 num_pr0 : 12288
 SAE Count : 0
 Inter-Core Inteference in Data Store : 3635
Heartbeat CPU 0 instructions: 50000000 cycles: 24315755 heartbeat IPC: 2.05154 cumulative IPC: 2.05628 (Simulation time: 27 hr 46 min 26 sec) 
 Total Blocks : 196608 Invalid Blocks : 156881 Valid Blocks : 39727
 Total Tags : 491520 Threshold : 12288 Invalid Tags : 353489 Pr0 Tags : 98304 Pr1 Tags : 39727 num_pr0 : 12288
 SAE Count : 0
 Inter-Core Inteference in Data Store : 4108
Heartbeat CPU 1 instructions: 50000000 cycles: 24316281 heartbeat IPC: 2.05149 cumulative IPC: 2.05624 (Simulation time: 27 hr 46 min 26 sec) 
 Total Blocks : 196608 Invalid Blocks : 156881 Valid Blocks : 39727
 Total Tags : 491520 Threshold : 12288 Invalid Tags : 353489 Pr0 Tags : 98304 Pr1 Tags : 39727 num_pr0 : 12288
 SAE Count : 0
 Inter-Core Inteference in Data Store : 4108
Heartbeat CPU 2 instructions: 50000000 cycles: 24316755 heartbeat IPC: 2.05149 cumulative IPC: 2.0562 (Simulation time: 27 hr 46 min 27 sec) 
 Total Blocks : 196608 Invalid Blocks : 156881 Valid Blocks : 39727
 Total Tags : 491520 Threshold : 12288 Invalid Tags : 353489 Pr0 Tags : 98304 Pr1 Tags : 39727 num_pr0 : 12288
 SAE Count : 0
 Inter-Core Inteference in Data Store : 4108
Heartbeat CPU 3 instructions: 50000000 cycles: 24316887 heartbeat IPC: 2.05148 cumulative IPC: 2.05618 (Simulation time: 27 hr 46 min 27 sec) 
 Total Blocks : 196608 Invalid Blocks : 156881 Valid Blocks : 39727
 Total Tags : 491520 Threshold : 12288 Invalid Tags : 353489 Pr0 Tags : 98304 Pr1 Tags : 39727 num_pr0 : 12288
 SAE Count : 0
 Inter-Core Inteference in Data Store : 4108
Heartbeat CPU 4 instructions: 50000000 cycles: 24317468 heartbeat IPC: 2.05141 cumulative IPC: 2.05614 (Simulation time: 27 hr 46 min 27 sec) 
 Total Blocks : 196608 Invalid Blocks : 156881 Valid Blocks : 39727
 Total Tags : 491520 Threshold : 12288 Invalid Tags : 353489 Pr0 Tags : 98304 Pr1 Tags : 39727 num_pr0 : 12288
 SAE Count : 0
 Inter-Core Inteference in Data Store : 4108
Heartbeat CPU 5 instructions: 50000000 cycles: 24318046 heartbeat IPC: 2.05133 cumulative IPC: 2.05609 (Simulation time: 27 hr 46 min 27 sec) 
 Total Blocks : 196608 Invalid Blocks : 156881 Valid Blocks : 39727
 Total Tags : 491520 Threshold : 12288 Invalid Tags : 353489 Pr0 Tags : 98304 Pr1 Tags : 39727 num_pr0 : 12288
 SAE Count : 0
 Inter-Core Inteference in Data Store : 4108
Heartbeat CPU 6 instructions: 50000000 cycles: 24318108 heartbeat IPC: 2.05138 cumulative IPC: 2.05608 (Simulation time: 27 hr 46 min 27 sec) 
 Total Blocks : 196608 Invalid Blocks : 156881 Valid Blocks : 39727
 Total Tags : 491520 Threshold : 12288 Invalid Tags : 353489 Pr0 Tags : 98304 Pr1 Tags : 39727 num_pr0 : 12288
 SAE Count : 0
 Inter-Core Inteference in Data Store : 4108
Heartbeat CPU 7 instructions: 50000000 cycles: 24318688 heartbeat IPC: 2.05133 cumulative IPC: 2.05603 (Simulation time: 27 hr 46 min 27 sec) 
 Total Blocks : 196608 Invalid Blocks : 156880 Valid Blocks : 39728
 Total Tags : 491520 Threshold : 12288 Invalid Tags : 353488 Pr0 Tags : 98304 Pr1 Tags : 39728 num_pr0 : 12288
 SAE Count : 0
 Inter-Core Inteference in Data Store : 4108
Heartbeat CPU 0 instructions: 60000001 cycles: 29183770 heartbeat IPC: 2.05423 cumulative IPC: 2.05594 (Simulation time: 28 hr 2 min 59 sec) 
 Total Blocks : 196608 Invalid Blocks : 155720 Valid Blocks : 40888
 Total Tags : 491520 Threshold : 12288 Invalid Tags : 352328 Pr0 Tags : 98304 Pr1 Tags : 40888 num_pr0 : 12288
 SAE Count : 0
 Inter-Core Inteference in Data Store : 4350
Heartbeat CPU 1 instructions: 60000001 cycles: 29184384 heartbeat IPC: 2.05419 cumulative IPC: 2.05589 (Simulation time: 28 hr 2 min 59 sec) 
 Total Blocks : 196608 Invalid Blocks : 155720 Valid Blocks : 40888
 Total Tags : 491520 Threshold : 12288 Invalid Tags : 352328 Pr0 Tags : 98304 Pr1 Tags : 40888 num_pr0 : 12288
 SAE Count : 0
 Inter-Core Inteference in Data Store : 4350
Heartbeat CPU 2 instructions: 60000001 cycles: 29184991 heartbeat IPC: 2.05413 cumulative IPC: 2.05585 (Simulation time: 28 hr 3 min 0 sec) 
 Total Blocks : 196608 Invalid Blocks : 155718 Valid Blocks : 40890
 Total Tags : 491520 Threshold : 12288 Invalid Tags : 352326 Pr0 Tags : 98304 Pr1 Tags : 40890 num_pr0 : 12288
 SAE Count : 0
 Inter-Core Inteference in Data Store : 4352
Heartbeat CPU 3 instructions: 60000001 cycles: 29185130 heartbeat IPC: 2.05413 cumulative IPC: 2.05584 (Simulation time: 28 hr 3 min 0 sec) 
 Total Blocks : 196608 Invalid Blocks : 155718 Valid Blocks : 40890
 Total Tags : 491520 Threshold : 12288 Invalid Tags : 352326 Pr0 Tags : 98304 Pr1 Tags : 40890 num_pr0 : 12288
 SAE Count : 0
 Inter-Core Inteference in Data Store : 4352
Heartbeat CPU 4 instructions: 60000001 cycles: 29185919 heartbeat IPC: 2.05404 cumulative IPC: 2.05579 (Simulation time: 28 hr 3 min 0 sec) 
 Total Blocks : 196608 Invalid Blocks : 155718 Valid Blocks : 40890
 Total Tags : 491520 Threshold : 12288 Invalid Tags : 352326 Pr0 Tags : 98304 Pr1 Tags : 40890 num_pr0 : 12288
 SAE Count : 0
 Inter-Core Inteference in Data Store : 4352
Heartbeat CPU 5 instructions: 60000001 cycles: 29186484 heartbeat IPC: 2.05405 cumulative IPC: 2.05575 (Simulation time: 28 hr 3 min 0 sec) 
 Total Blocks : 196608 Invalid Blocks : 155718 Valid Blocks : 40890
 Total Tags : 491520 Threshold : 12288 Invalid Tags : 352326 Pr0 Tags : 98304 Pr1 Tags : 40890 num_pr0 : 12288
 SAE Count : 0
 Inter-Core Inteference in Data Store : 4352
Heartbeat CPU 6 instructions: 60000001 cycles: 29186546 heartbeat IPC: 2.05405 cumulative IPC: 2.05574 (Simulation time: 28 hr 3 min 0 sec) 
 Total Blocks : 196608 Invalid Blocks : 155718 Valid Blocks : 40890
 Total Tags : 491520 Threshold : 12288 Invalid Tags : 352326 Pr0 Tags : 98304 Pr1 Tags : 40890 num_pr0 : 12288
 SAE Count : 0
 Inter-Core Inteference in Data Store : 4352
Heartbeat CPU 7 instructions: 60000001 cycles: 29187257 heartbeat IPC: 2.05399 cumulative IPC: 2.05569 (Simulation time: 28 hr 3 min 0 sec) 
 Total Blocks : 196608 Invalid Blocks : 155718 Valid Blocks : 40890
 Total Tags : 491520 Threshold : 12288 Invalid Tags : 352326 Pr0 Tags : 98304 Pr1 Tags : 40890 num_pr0 : 12288
 SAE Count : 0
 Inter-Core Inteference in Data Store : 4352
Heartbeat CPU 0 instructions: 70000000 cycles: 34023869 heartbeat IPC: 2.06607 cumulative IPC: 2.05738 (Simulation time: 28 hr 19 min 3 sec) 
 Total Blocks : 196608 Invalid Blocks : 155100 Valid Blocks : 41508
 Total Tags : 491520 Threshold : 12288 Invalid Tags : 351708 Pr0 Tags : 98304 Pr1 Tags : 41508 num_pr0 : 12288
 SAE Count : 0
 Inter-Core Inteference in Data Store : 4487
Heartbeat CPU 1 instructions: 70000000 cycles: 34024468 heartbeat IPC: 2.06608 cumulative IPC: 2.05734 (Simulation time: 28 hr 19 min 3 sec) 
 Total Blocks : 196608 Invalid Blocks : 155100 Valid Blocks : 41508
 Total Tags : 491520 Threshold : 12288 Invalid Tags : 351708 Pr0 Tags : 98304 Pr1 Tags : 41508 num_pr0 : 12288
 SAE Count : 0
 Inter-Core Inteference in Data Store : 4487
Heartbeat CPU 2 instructions: 70000000 cycles: 34025105 heartbeat IPC: 2.06607 cumulative IPC: 2.0573 (Simulation time: 28 hr 19 min 3 sec) 
 Total Blocks : 196608 Invalid Blocks : 155100 Valid Blocks : 41508
 Total Tags : 491520 Threshold : 12288 Invalid Tags : 351708 Pr0 Tags : 98304 Pr1 Tags : 41508 num_pr0 : 12288
 SAE Count : 0
 Inter-Core Inteference in Data Store : 4487
Heartbeat CPU 3 instructions: 70000000 cycles: 34025238 heartbeat IPC: 2.06607 cumulative IPC: 2.0573 (Simulation time: 28 hr 19 min 3 sec) 
 Total Blocks : 196608 Invalid Blocks : 155100 Valid Blocks : 41508
 Total Tags : 491520 Threshold : 12288 Invalid Tags : 351708 Pr0 Tags : 98304 Pr1 Tags : 41508 num_pr0 : 12288
 SAE Count : 0
 Inter-Core Inteference in Data Store : 4487
Heartbeat CPU 4 instructions: 70000000 cycles: 34026266 heartbeat IPC: 2.06597 cumulative IPC: 2.05723 (Simulation time: 28 hr 19 min 3 sec) 
 Total Blocks : 196608 Invalid Blocks : 155100 Valid Blocks : 41508
 Total Tags : 491520 Threshold : 12288 Invalid Tags : 351708 Pr0 Tags : 98304 Pr1 Tags : 41508 num_pr0 : 12288
 SAE Count : 0
 Inter-Core Inteference in Data Store : 4487
Heartbeat CPU 5 instructions: 70000000 cycles: 34026809 heartbeat IPC: 2.06598 cumulative IPC: 2.0572 (Simulation time: 28 hr 19 min 4 sec) 
 Total Blocks : 196608 Invalid Blocks : 155100 Valid Blocks : 41508
 Total Tags : 491520 Threshold : 12288 Invalid Tags : 351708 Pr0 Tags : 98304 Pr1 Tags : 41508 num_pr0 : 12288
 SAE Count : 0
 Inter-Core Inteference in Data Store : 4487
Heartbeat CPU 6 instructions: 70000000 cycles: 34026903 heartbeat IPC: 2.06596 cumulative IPC: 2.0572 (Simulation time: 28 hr 19 min 4 sec) 
 Total Blocks : 196608 Invalid Blocks : 155100 Valid Blocks : 41508
 Total Tags : 491520 Threshold : 12288 Invalid Tags : 351708 Pr0 Tags : 98304 Pr1 Tags : 41508 num_pr0 : 12288
 SAE Count : 0
 Inter-Core Inteference in Data Store : 4487
Heartbeat CPU 7 instructions: 70000000 cycles: 34027682 heartbeat IPC: 2.06593 cumulative IPC: 2.05715 (Simulation time: 28 hr 19 min 4 sec) 
 Total Blocks : 196608 Invalid Blocks : 155100 Valid Blocks : 41508
 Total Tags : 491520 Threshold : 12288 Invalid Tags : 351708 Pr0 Tags : 98304 Pr1 Tags : 41508 num_pr0 : 12288
 SAE Count : 0
 Inter-Core Inteference in Data Store : 4487
Heartbeat CPU 0 instructions: 80000003 cycles: 38889011 heartbeat IPC: 2.05544 cumulative IPC: 2.05714 (Simulation time: 28 hr 36 min 3 sec) 
 Total Blocks : 196608 Invalid Blocks : 154159 Valid Blocks : 42449
 Total Tags : 491520 Threshold : 12288 Invalid Tags : 350767 Pr0 Tags : 98304 Pr1 Tags : 42449 num_pr0 : 12288
 SAE Count : 0
 Inter-Core Inteference in Data Store : 4700
Heartbeat CPU 1 instructions: 80000003 cycles: 38889644 heartbeat IPC: 2.05542 cumulative IPC: 2.0571 (Simulation time: 28 hr 36 min 4 sec) 
 Total Blocks : 196608 Invalid Blocks : 154159 Valid Blocks : 42449
 Total Tags : 491520 Threshold : 12288 Invalid Tags : 350767 Pr0 Tags : 98304 Pr1 Tags : 42449 num_pr0 : 12288
 SAE Count : 0
 Inter-Core Inteference in Data Store : 4700
Heartbeat CPU 2 instructions: 80000003 cycles: 38890416 heartbeat IPC: 2.05537 cumulative IPC: 2.05706 (Simulation time: 28 hr 36 min 4 sec) 
 Total Blocks : 196608 Invalid Blocks : 154159 Valid Blocks : 42449
 Total Tags : 491520 Threshold : 12288 Invalid Tags : 350767 Pr0 Tags : 98304 Pr1 Tags : 42449 num_pr0 : 12288
 SAE Count : 0
 Inter-Core Inteference in Data Store : 4701
Heartbeat CPU 3 instructions: 80000003 cycles: 38890517 heartbeat IPC: 2.05538 cumulative IPC: 2.05706 (Simulation time: 28 hr 36 min 4 sec) 
 Total Blocks : 196608 Invalid Blocks : 154159 Valid Blocks : 42449
 Total Tags : 491520 Threshold : 12288 Invalid Tags : 350767 Pr0 Tags : 98304 Pr1 Tags : 42449 num_pr0 : 12288
 SAE Count : 0
 Inter-Core Inteference in Data Store : 4701
Heartbeat CPU 4 instructions: 80000003 cycles: 38891700 heartbeat IPC: 2.05532 cumulative IPC: 2.05699 (Simulation time: 28 hr 36 min 4 sec) 
 Total Blocks : 196608 Invalid Blocks : 154158 Valid Blocks : 42450
 Total Tags : 491520 Threshold : 12288 Invalid Tags : 350766 Pr0 Tags : 98304 Pr1 Tags : 42450 num_pr0 : 12288
 SAE Count : 0
 Inter-Core Inteference in Data Store : 4701
Heartbeat CPU 5 instructions: 80000003 cycles: 38892200 heartbeat IPC: 2.05533 cumulative IPC: 2.05697 (Simulation time: 28 hr 36 min 4 sec) 
 Total Blocks : 196608 Invalid Blocks : 154158 Valid Blocks : 42450
 Total Tags : 491520 Threshold : 12288 Invalid Tags : 350766 Pr0 Tags : 98304 Pr1 Tags : 42450 num_pr0 : 12288
 SAE Count : 0
 Inter-Core Inteference in Data Store : 4701
Heartbeat CPU 6 instructions: 80000003 cycles: 38892344 heartbeat IPC: 2.05531 cumulative IPC: 2.05696 (Simulation time: 28 hr 36 min 4 sec) 
 Total Blocks : 196608 Invalid Blocks : 154158 Valid Blocks : 42450
 Total Tags : 491520 Threshold : 12288 Invalid Tags : 350766 Pr0 Tags : 98304 Pr1 Tags : 42450 num_pr0 : 12288
 SAE Count : 0
 Inter-Core Inteference in Data Store : 4701
Heartbeat CPU 7 instructions: 80000003 cycles: 38893322 heartbeat IPC: 2.05523 cumulative IPC: 2.05691 (Simulation time: 28 hr 36 min 4 sec) 
 Total Blocks : 196608 Invalid Blocks : 154158 Valid Blocks : 42450
 Total Tags : 491520 Threshold : 12288 Invalid Tags : 350766 Pr0 Tags : 98304 Pr1 Tags : 42450 num_pr0 : 12288
 SAE Count : 0
 Inter-Core Inteference in Data Store : 4701
Heartbeat CPU 0 instructions: 90000000 cycles: 43755787 heartbeat IPC: 2.05475 cumulative IPC: 2.05687 (Simulation time: 28 hr 51 min 54 sec) 
 Total Blocks : 196608 Invalid Blocks : 153808 Valid Blocks : 42800
 Total Tags : 491520 Threshold : 12288 Invalid Tags : 350416 Pr0 Tags : 98304 Pr1 Tags : 42800 num_pr0 : 12288
 SAE Count : 0
 Inter-Core Inteference in Data Store : 4787
Heartbeat CPU 1 instructions: 90000000 cycles: 43756408 heartbeat IPC: 2.05475 cumulative IPC: 2.05684 (Simulation time: 28 hr 51 min 54 sec) 
 Total Blocks : 196608 Invalid Blocks : 153808 Valid Blocks : 42800
 Total Tags : 491520 Threshold : 12288 Invalid Tags : 350416 Pr0 Tags : 98304 Pr1 Tags : 42800 num_pr0 : 12288
 SAE Count : 0
 Inter-Core Inteference in Data Store : 4787
Heartbeat CPU 2 instructions: 90000000 cycles: 43757357 heartbeat IPC: 2.05468 cumulative IPC: 2.0568 (Simulation time: 28 hr 51 min 54 sec) 
 Total Blocks : 196608 Invalid Blocks : 153808 Valid Blocks : 42800
 Total Tags : 491520 Threshold : 12288 Invalid Tags : 350416 Pr0 Tags : 98304 Pr1 Tags : 42800 num_pr0 : 12288
 SAE Count : 0
 Inter-Core Inteference in Data Store : 4787
Heartbeat CPU 3 instructions: 90000000 cycles: 43757464 heartbeat IPC: 2.05468 cumulative IPC: 2.05679 (Simulation time: 28 hr 51 min 54 sec) 
 Total Blocks : 196608 Invalid Blocks : 153808 Valid Blocks : 42800
 Total Tags : 491520 Threshold : 12288 Invalid Tags : 350416 Pr0 Tags : 98304 Pr1 Tags : 42800 num_pr0 : 12288
 SAE Count : 0
 Inter-Core Inteference in Data Store : 4787
Heartbeat CPU 4 instructions: 90000000 cycles: 43758733 heartbeat IPC: 2.05464 cumulative IPC: 2.05673 (Simulation time: 28 hr 51 min 55 sec) 
 Total Blocks : 196608 Invalid Blocks : 153808 Valid Blocks : 42800
 Total Tags : 491520 Threshold : 12288 Invalid Tags : 350416 Pr0 Tags : 98304 Pr1 Tags : 42800 num_pr0 : 12288
 SAE Count : 0
 Inter-Core Inteference in Data Store : 4787
Heartbeat CPU 5 instructions: 90000000 cycles: 43759354 heartbeat IPC: 2.05459 cumulative IPC: 2.0567 (Simulation time: 28 hr 51 min 55 sec) 
 Total Blocks : 196608 Invalid Blocks : 153808 Valid Blocks : 42800
 Total Tags : 491520 Threshold : 12288 Invalid Tags : 350416 Pr0 Tags : 98304 Pr1 Tags : 42800 num_pr0 : 12288
 SAE Count : 0
 Inter-Core Inteference in Data Store : 4787
Heartbeat CPU 6 instructions: 90000000 cycles: 43759485 heartbeat IPC: 2.05459 cumulative IPC: 2.0567 (Simulation time: 28 hr 51 min 55 sec) 
 Total Blocks : 196608 Invalid Blocks : 153808 Valid Blocks : 42800
 Total Tags : 491520 Threshold : 12288 Invalid Tags : 350416 Pr0 Tags : 98304 Pr1 Tags : 42800 num_pr0 : 12288
 SAE Count : 0
 Inter-Core Inteference in Data Store : 4787
Heartbeat CPU 7 instructions: 90000000 cycles: 43760651 heartbeat IPC: 2.05451 cumulative IPC: 2.05664 (Simulation time: 28 hr 51 min 55 sec) 
 Total Blocks : 196608 Invalid Blocks : 153808 Valid Blocks : 42800
 Total Tags : 491520 Threshold : 12288 Invalid Tags : 350416 Pr0 Tags : 98304 Pr1 Tags : 42800 num_pr0 : 12288
 SAE Count : 0
 Inter-Core Inteference in Data Store : 4787
Heartbeat CPU 0 instructions: 100000001 cycles: 48612193 heartbeat IPC: 2.05914 cumulative IPC: 2.0571 (Simulation time: 29 hr 7 min 58 sec) 
 Total Blocks : 196608 Invalid Blocks : 153570 Valid Blocks : 43038
 Total Tags : 491520 Threshold : 12288 Invalid Tags : 350178 Pr0 Tags : 98304 Pr1 Tags : 43038 num_pr0 : 12288
 SAE Count : 0
 Inter-Core Inteference in Data Store : 4872
Heartbeat CPU 1 instructions: 100000001 cycles: 48612854 heartbeat IPC: 2.05912 cumulative IPC: 2.05707 (Simulation time: 29 hr 7 min 58 sec) 
 Total Blocks : 196608 Invalid Blocks : 153570 Valid Blocks : 43038
 Total Tags : 491520 Threshold : 12288 Invalid Tags : 350178 Pr0 Tags : 98304 Pr1 Tags : 43038 num_pr0 : 12288
 SAE Count : 0
 Inter-Core Inteference in Data Store : 4872
Heartbeat CPU 2 instructions: 100000001 cycles: 48614003 heartbeat IPC: 2.05903 cumulative IPC: 2.05702 (Simulation time: 29 hr 7 min 58 sec) 
 Total Blocks : 196608 Invalid Blocks : 153570 Valid Blocks : 43038
 Total Tags : 491520 Threshold : 12288 Invalid Tags : 350178 Pr0 Tags : 98304 Pr1 Tags : 43038 num_pr0 : 12288
 SAE Count : 0
 Inter-Core Inteference in Data Store : 4872
Heartbeat CPU 3 instructions: 100000001 cycles: 48614124 heartbeat IPC: 2.05903 cumulative IPC: 2.05702 (Simulation time: 29 hr 7 min 58 sec) 
 Total Blocks : 196608 Invalid Blocks : 153570 Valid Blocks : 43038
 Total Tags : 491520 Threshold : 12288 Invalid Tags : 350178 Pr0 Tags : 98304 Pr1 Tags : 43038 num_pr0 : 12288
 SAE Count : 0
 Inter-Core Inteference in Data Store : 4872
Heartbeat CPU 4 instructions: 100000001 cycles: 48615406 heartbeat IPC: 2.05902 cumulative IPC: 2.05696 (Simulation time: 29 hr 7 min 59 sec) 
 Total Blocks : 196608 Invalid Blocks : 153570 Valid Blocks : 43038
 Total Tags : 491520 Threshold : 12288 Invalid Tags : 350178 Pr0 Tags : 98304 Pr1 Tags : 43038 num_pr0 : 12288
 SAE Count : 0
 Inter-Core Inteference in Data Store : 4872
Heartbeat CPU 5 instructions: 100000001 cycles: 48616055 heartbeat IPC: 2.05901 cumulative IPC: 2.05693 (Simulation time: 29 hr 7 min 59 sec) 
 Total Blocks : 196608 Invalid Blocks : 153570 Valid Blocks : 43038
 Total Tags : 491520 Threshold : 12288 Invalid Tags : 350178 Pr0 Tags : 98304 Pr1 Tags : 43038 num_pr0 : 12288
 SAE Count : 0
 Inter-Core Inteference in Data Store : 4872
Heartbeat CPU 6 instructions: 100000001 cycles: 48616259 heartbeat IPC: 2.05898 cumulative IPC: 2.05693 (Simulation time: 29 hr 7 min 59 sec) 
 Total Blocks : 196608 Invalid Blocks : 153570 Valid Blocks : 43038
 Total Tags : 491520 Threshold : 12288 Invalid Tags : 350178 Pr0 Tags : 98304 Pr1 Tags : 43038 num_pr0 : 12288
 SAE Count : 0
 Inter-Core Inteference in Data Store : 4872
Heartbeat CPU 7 instructions: 100000001 cycles: 48617619 heartbeat IPC: 2.0589 cumulative IPC: 2.05687 (Simulation time: 29 hr 7 min 59 sec) 
 Total Blocks : 196608 Invalid Blocks : 153570 Valid Blocks : 43038
 Total Tags : 491520 Threshold : 12288 Invalid Tags : 350178 Pr0 Tags : 98304 Pr1 Tags : 43038 num_pr0 : 12288
 SAE Count : 0
 Inter-Core Inteference in Data Store : 4872
Heartbeat CPU 0 instructions: 110000000 cycles: 53453231 heartbeat IPC: 2.06567 cumulative IPC: 2.05787 (Simulation time: 29 hr 24 min 0 sec) 
 Total Blocks : 196608 Invalid Blocks : 153345 Valid Blocks : 43263
 Total Tags : 491520 Threshold : 12288 Invalid Tags : 349953 Pr0 Tags : 98304 Pr1 Tags : 43263 num_pr0 : 12288
 SAE Count : 0
 Inter-Core Inteference in Data Store : 4935
Heartbeat CPU 1 instructions: 110000000 cycles: 53453918 heartbeat IPC: 2.06566 cumulative IPC: 2.05785 (Simulation time: 29 hr 24 min 0 sec) 
 Total Blocks : 196608 Invalid Blocks : 153345 Valid Blocks : 43263
 Total Tags : 491520 Threshold : 12288 Invalid Tags : 349953 Pr0 Tags : 98304 Pr1 Tags : 43263 num_pr0 : 12288
 SAE Count : 0
 Inter-Core Inteference in Data Store : 4935
Heartbeat CPU 2 instructions: 110000000 cycles: 53455175 heartbeat IPC: 2.06562 cumulative IPC: 2.0578 (Simulation time: 29 hr 24 min 0 sec) 
 Total Blocks : 196608 Invalid Blocks : 153345 Valid Blocks : 43263
 Total Tags : 491520 Threshold : 12288 Invalid Tags : 349953 Pr0 Tags : 98304 Pr1 Tags : 43263 num_pr0 : 12288
 SAE Count : 0
 Inter-Core Inteference in Data Store : 4935
Heartbeat CPU 3 instructions: 110000000 cycles: 53455279 heartbeat IPC: 2.06562 cumulative IPC: 2.05779 (Simulation time: 29 hr 24 min 0 sec) 
 Total Blocks : 196608 Invalid Blocks : 153345 Valid Blocks : 43263
 Total Tags : 491520 Threshold : 12288 Invalid Tags : 349953 Pr0 Tags : 98304 Pr1 Tags : 43263 num_pr0 : 12288
 SAE Count : 0
 Inter-Core Inteference in Data Store : 4935
Heartbeat CPU 4 instructions: 110000000 cycles: 53456575 heartbeat IPC: 2.06562 cumulative IPC: 2.05774 (Simulation time: 29 hr 24 min 1 sec) 
 Total Blocks : 196608 Invalid Blocks : 153345 Valid Blocks : 43263
 Total Tags : 491520 Threshold : 12288 Invalid Tags : 349953 Pr0 Tags : 98304 Pr1 Tags : 43263 num_pr0 : 12288
 SAE Count : 0
 Inter-Core Inteference in Data Store : 4935
Heartbeat CPU 5 instructions: 110000000 cycles: 53457335 heartbeat IPC: 2.06557 cumulative IPC: 2.05772 (Simulation time: 29 hr 24 min 1 sec) 
 Total Blocks : 196608 Invalid Blocks : 153345 Valid Blocks : 43263
 Total Tags : 491520 Threshold : 12288 Invalid Tags : 349953 Pr0 Tags : 98304 Pr1 Tags : 43263 num_pr0 : 12288
 SAE Count : 0
 Inter-Core Inteference in Data Store : 4935
Heartbeat CPU 6 instructions: 110000000 cycles: 53457571 heartbeat IPC: 2.06556 cumulative IPC: 2.05771 (Simulation time: 29 hr 24 min 1 sec) 
 Total Blocks : 196608 Invalid Blocks : 153345 Valid Blocks : 43263
 Total Tags : 491520 Threshold : 12288 Invalid Tags : 349953 Pr0 Tags : 98304 Pr1 Tags : 43263 num_pr0 : 12288
 SAE Count : 0
 Inter-Core Inteference in Data Store : 4935
Heartbeat CPU 7 instructions: 110000000 cycles: 53458968 heartbeat IPC: 2.06554 cumulative IPC: 2.05765 (Simulation time: 29 hr 24 min 1 sec) 
 Total Blocks : 196608 Invalid Blocks : 153345 Valid Blocks : 43263
 Total Tags : 491520 Threshold : 12288 Invalid Tags : 349953 Pr0 Tags : 98304 Pr1 Tags : 43263 num_pr0 : 12288
 SAE Count : 0
 Inter-Core Inteference in Data Store : 4935
Heartbeat CPU 0 instructions: 120000002 cycles: 58387123 heartbeat IPC: 2.0268 cumulative IPC: 2.05525 (Simulation time: 29 hr 43 min 57 sec) 
 Total Blocks : 196608 Invalid Blocks : 152644 Valid Blocks : 43964
 Total Tags : 491520 Threshold : 12288 Invalid Tags : 349252 Pr0 Tags : 98304 Pr1 Tags : 43964 num_pr0 : 12288
 SAE Count : 0
 Inter-Core Inteference in Data Store : 5124
Heartbeat CPU 1 instructions: 120000002 cycles: 58388011 heartbeat IPC: 2.02672 cumulative IPC: 2.05522 (Simulation time: 29 hr 43 min 57 sec) 
 Total Blocks : 196608 Invalid Blocks : 152644 Valid Blocks : 43964
 Total Tags : 491520 Threshold : 12288 Invalid Tags : 349252 Pr0 Tags : 98304 Pr1 Tags : 43964 num_pr0 : 12288
 SAE Count : 0
 Inter-Core Inteference in Data Store : 5124
Heartbeat CPU 2 instructions: 120000002 cycles: 58389352 heartbeat IPC: 2.02668 cumulative IPC: 2.05517 (Simulation time: 29 hr 43 min 57 sec) 
 Total Blocks : 196608 Invalid Blocks : 152644 Valid Blocks : 43964
 Total Tags : 491520 Threshold : 12288 Invalid Tags : 349252 Pr0 Tags : 98304 Pr1 Tags : 43964 num_pr0 : 12288
 SAE Count : 0
 Inter-Core Inteference in Data Store : 5124
Heartbeat CPU 3 instructions: 120000002 cycles: 58389386 heartbeat IPC: 2.02671 cumulative IPC: 2.05517 (Simulation time: 29 hr 43 min 57 sec) 
 Total Blocks : 196608 Invalid Blocks : 152644 Valid Blocks : 43964
 Total Tags : 491520 Threshold : 12288 Invalid Tags : 349252 Pr0 Tags : 98304 Pr1 Tags : 43964 num_pr0 : 12288
 SAE Count : 0
 Inter-Core Inteference in Data Store : 5124
Heartbeat CPU 4 instructions: 120000002 cycles: 58390715 heartbeat IPC: 2.0267 cumulative IPC: 2.05512 (Simulation time: 29 hr 43 min 57 sec) 
 Total Blocks : 196608 Invalid Blocks : 152644 Valid Blocks : 43964
 Total Tags : 491520 Threshold : 12288 Invalid Tags : 349252 Pr0 Tags : 98304 Pr1 Tags : 43964 num_pr0 : 12288
 SAE Count : 0
 Inter-Core Inteference in Data Store : 5124
Heartbeat CPU 5 instructions: 120000002 cycles: 58391623 heartbeat IPC: 2.02664 cumulative IPC: 2.05509 (Simulation time: 29 hr 43 min 57 sec) 
 Total Blocks : 196608 Invalid Blocks : 152644 Valid Blocks : 43964
 Total Tags : 491520 Threshold : 12288 Invalid Tags : 349252 Pr0 Tags : 98304 Pr1 Tags : 43964 num_pr0 : 12288
 SAE Count : 0
 Inter-Core Inteference in Data Store : 5124
Heartbeat CPU 6 instructions: 120000002 cycles: 58392119 heartbeat IPC: 2.02653 cumulative IPC: 2.05507 (Simulation time: 29 hr 43 min 58 sec) 
 Total Blocks : 196608 Invalid Blocks : 152644 Valid Blocks : 43964
 Total Tags : 491520 Threshold : 12288 Invalid Tags : 349252 Pr0 Tags : 98304 Pr1 Tags : 43964 num_pr0 : 12288
 SAE Count : 0
 Inter-Core Inteference in Data Store : 5124
Heartbeat CPU 7 instructions: 120000002 cycles: 58393501 heartbeat IPC: 2.02653 cumulative IPC: 2.05502 (Simulation time: 29 hr 43 min 58 sec) 
 Total Blocks : 196608 Invalid Blocks : 152644 Valid Blocks : 43964
 Total Tags : 491520 Threshold : 12288 Invalid Tags : 349252 Pr0 Tags : 98304 Pr1 Tags : 43964 num_pr0 : 12288
 SAE Count : 0
 Inter-Core Inteference in Data Store : 5124
Heartbeat CPU 0 instructions: 130000000 cycles: 63253314 heartbeat IPC: 2.055 cumulative IPC: 2.05523 (Simulation time: 30 hr 0 min 12 sec) 
 Total Blocks : 196608 Invalid Blocks : 152432 Valid Blocks : 44176
 Total Tags : 491520 Threshold : 12288 Invalid Tags : 349040 Pr0 Tags : 98304 Pr1 Tags : 44176 num_pr0 : 12288
 SAE Count : 0
 Inter-Core Inteference in Data Store : 5184
Heartbeat CPU 1 instructions: 130000000 cycles: 63254356 heartbeat IPC: 2.05493 cumulative IPC: 2.05519 (Simulation time: 30 hr 0 min 12 sec) 
 Total Blocks : 196608 Invalid Blocks : 152432 Valid Blocks : 44176
 Total Tags : 491520 Threshold : 12288 Invalid Tags : 349040 Pr0 Tags : 98304 Pr1 Tags : 44176 num_pr0 : 12288
 SAE Count : 0
 Inter-Core Inteference in Data Store : 5184
Heartbeat CPU 2 instructions: 130000000 cycles: 63255678 heartbeat IPC: 2.05494 cumulative IPC: 2.05515 (Simulation time: 30 hr 0 min 12 sec) 
 Total Blocks : 196608 Invalid Blocks : 152432 Valid Blocks : 44176
 Total Tags : 491520 Threshold : 12288 Invalid Tags : 349040 Pr0 Tags : 98304 Pr1 Tags : 44176 num_pr0 : 12288
 SAE Count : 0
 Inter-Core Inteference in Data Store : 5184
Heartbeat CPU 3 instructions: 130000000 cycles: 63255821 heartbeat IPC: 2.05489 cumulative IPC: 2.05515 (Simulation time: 30 hr 0 min 12 sec) 
 Total Blocks : 196608 Invalid Blocks : 152432 Valid Blocks : 44176
 Total Tags : 491520 Threshold : 12288 Invalid Tags : 349040 Pr0 Tags : 98304 Pr1 Tags : 44176 num_pr0 : 12288
 SAE Count : 0
 Inter-Core Inteference in Data Store : 5184
Heartbeat CPU 4 instructions: 130000000 cycles: 63257187 heartbeat IPC: 2.05488 cumulative IPC: 2.0551 (Simulation time: 30 hr 0 min 13 sec) 
 Total Blocks : 196608 Invalid Blocks : 152432 Valid Blocks : 44176
 Total Tags : 491520 Threshold : 12288 Invalid Tags : 349040 Pr0 Tags : 98304 Pr1 Tags : 44176 num_pr0 : 12288
 SAE Count : 0
 Inter-Core Inteference in Data Store : 5184
Heartbeat CPU 5 instructions: 130000000 cycles: 63258300 heartbeat IPC: 2.05479 cumulative IPC: 2.05507 (Simulation time: 30 hr 0 min 13 sec) 
 Total Blocks : 196608 Invalid Blocks : 152432 Valid Blocks : 44176
 Total Tags : 491520 Threshold : 12288 Invalid Tags : 349040 Pr0 Tags : 98304 Pr1 Tags : 44176 num_pr0 : 12288
 SAE Count : 0
 Inter-Core Inteference in Data Store : 5184
Heartbeat CPU 6 instructions: 130000000 cycles: 63258811 heartbeat IPC: 2.05478 cumulative IPC: 2.05505 (Simulation time: 30 hr 0 min 13 sec) 
 Total Blocks : 196608 Invalid Blocks : 152432 Valid Blocks : 44176
 Total Tags : 491520 Threshold : 12288 Invalid Tags : 349040 Pr0 Tags : 98304 Pr1 Tags : 44176 num_pr0 : 12288
 SAE Count : 0
 Inter-Core Inteference in Data Store : 5184
Heartbeat CPU 7 instructions: 130000000 cycles: 63260258 heartbeat IPC: 2.05476 cumulative IPC: 2.055 (Simulation time: 30 hr 0 min 13 sec) 
 Total Blocks : 196608 Invalid Blocks : 152432 Valid Blocks : 44176
 Total Tags : 491520 Threshold : 12288 Invalid Tags : 349040 Pr0 Tags : 98304 Pr1 Tags : 44176 num_pr0 : 12288
 SAE Count : 0
 Inter-Core Inteference in Data Store : 5184
Heartbeat CPU 0 instructions: 140000003 cycles: 68101461 heartbeat IPC: 2.06264 cumulative IPC: 2.05576 (Simulation time: 30 hr 15 min 38 sec) 
 Total Blocks : 196608 Invalid Blocks : 152265 Valid Blocks : 44343
 Total Tags : 491520 Threshold : 12288 Invalid Tags : 348873 Pr0 Tags : 98304 Pr1 Tags : 44343 num_pr0 : 12288
 SAE Count : 0
 Inter-Core Inteference in Data Store : 5237
Heartbeat CPU 1 instructions: 140000003 cycles: 68102568 heartbeat IPC: 2.06262 cumulative IPC: 2.05572 (Simulation time: 30 hr 15 min 39 sec) 
 Total Blocks : 196608 Invalid Blocks : 152265 Valid Blocks : 44343
 Total Tags : 491520 Threshold : 12288 Invalid Tags : 348873 Pr0 Tags : 98304 Pr1 Tags : 44343 num_pr0 : 12288
 SAE Count : 0
 Inter-Core Inteference in Data Store : 5237
Heartbeat CPU 2 instructions: 140000003 cycles: 68103950 heartbeat IPC: 2.06259 cumulative IPC: 2.05568 (Simulation time: 30 hr 15 min 39 sec) 
 Total Blocks : 196608 Invalid Blocks : 152265 Valid Blocks : 44343
 Total Tags : 491520 Threshold : 12288 Invalid Tags : 348873 Pr0 Tags : 98304 Pr1 Tags : 44343 num_pr0 : 12288
 SAE Count : 0
 Inter-Core Inteference in Data Store : 5237
Heartbeat CPU 3 instructions: 140000003 cycles: 68104087 heartbeat IPC: 2.06259 cumulative IPC: 2.05568 (Simulation time: 30 hr 15 min 39 sec) 
 Total Blocks : 196608 Invalid Blocks : 152265 Valid Blocks : 44343
 Total Tags : 491520 Threshold : 12288 Invalid Tags : 348873 Pr0 Tags : 98304 Pr1 Tags : 44343 num_pr0 : 12288
 SAE Count : 0
 Inter-Core Inteference in Data Store : 5237
Heartbeat CPU 4 instructions: 140000003 cycles: 68105592 heartbeat IPC: 2.06253 cumulative IPC: 2.05563 (Simulation time: 30 hr 15 min 39 sec) 
 Total Blocks : 196608 Invalid Blocks : 152265 Valid Blocks : 44343
 Total Tags : 491520 Threshold : 12288 Invalid Tags : 348873 Pr0 Tags : 98304 Pr1 Tags : 44343 num_pr0 : 12288
 SAE Count : 0
 Inter-Core Inteference in Data Store : 5237
Heartbeat CPU 5 instructions: 140000003 cycles: 68106770 heartbeat IPC: 2.06251 cumulative IPC: 2.0556 (Simulation time: 30 hr 15 min 40 sec) 
 Total Blocks : 196608 Invalid Blocks : 152265 Valid Blocks : 44343
 Total Tags : 491520 Threshold : 12288 Invalid Tags : 348873 Pr0 Tags : 98304 Pr1 Tags : 44343 num_pr0 : 12288
 SAE Count : 0
 Inter-Core Inteference in Data Store : 5237
Heartbeat CPU 6 instructions: 140000003 cycles: 68107241 heartbeat IPC: 2.06252 cumulative IPC: 2.05558 (Simulation time: 30 hr 15 min 40 sec) 
 Total Blocks : 196608 Invalid Blocks : 152265 Valid Blocks : 44343
 Total Tags : 491520 Threshold : 12288 Invalid Tags : 348873 Pr0 Tags : 98304 Pr1 Tags : 44343 num_pr0 : 12288
 SAE Count : 0
 Inter-Core Inteference in Data Store : 5237
Heartbeat CPU 7 instructions: 140000003 cycles: 68108804 heartbeat IPC: 2.06247 cumulative IPC: 2.05553 (Simulation time: 30 hr 15 min 40 sec) 
 Total Blocks : 196608 Invalid Blocks : 152265 Valid Blocks : 44343
 Total Tags : 491520 Threshold : 12288 Invalid Tags : 348873 Pr0 Tags : 98304 Pr1 Tags : 44343 num_pr0 : 12288
 SAE Count : 0
 Inter-Core Inteference in Data Store : 5237
Heartbeat CPU 0 instructions: 150000000 cycles: 72954027 heartbeat IPC: 2.06076 cumulative IPC: 2.05609 (Simulation time: 30 hr 31 min 42 sec) 
 Total Blocks : 196608 Invalid Blocks : 151895 Valid Blocks : 44713
 Total Tags : 491520 Threshold : 12288 Invalid Tags : 348503 Pr0 Tags : 98304 Pr1 Tags : 44713 num_pr0 : 12288
 SAE Count : 0
 Inter-Core Inteference in Data Store : 5337
Heartbeat CPU 1 instructions: 150000000 cycles: 72955252 heartbeat IPC: 2.06071 cumulative IPC: 2.05605 (Simulation time: 30 hr 31 min 43 sec) 
 Total Blocks : 196608 Invalid Blocks : 151895 Valid Blocks : 44713
 Total Tags : 491520 Threshold : 12288 Invalid Tags : 348503 Pr0 Tags : 98304 Pr1 Tags : 44713 num_pr0 : 12288
 SAE Count : 0
 Inter-Core Inteference in Data Store : 5337
Heartbeat CPU 2 instructions: 150000000 cycles: 72956627 heartbeat IPC: 2.06072 cumulative IPC: 2.05602 (Simulation time: 30 hr 31 min 43 sec) 
 Total Blocks : 196608 Invalid Blocks : 151895 Valid Blocks : 44713
 Total Tags : 491520 Threshold : 12288 Invalid Tags : 348503 Pr0 Tags : 98304 Pr1 Tags : 44713 num_pr0 : 12288
 SAE Count : 0
 Inter-Core Inteference in Data Store : 5337
Heartbeat CPU 3 instructions: 150000000 cycles: 72956782 heartbeat IPC: 2.06071 cumulative IPC: 2.05601 (Simulation time: 30 hr 31 min 43 sec) 
 Total Blocks : 196608 Invalid Blocks : 151895 Valid Blocks : 44713
 Total Tags : 491520 Threshold : 12288 Invalid Tags : 348503 Pr0 Tags : 98304 Pr1 Tags : 44713 num_pr0 : 12288
 SAE Count : 0
 Inter-Core Inteference in Data Store : 5337
Heartbeat CPU 4 instructions: 150000000 cycles: 72958398 heartbeat IPC: 2.06066 cumulative IPC: 2.05597 (Simulation time: 30 hr 31 min 43 sec) 
 Total Blocks : 196608 Invalid Blocks : 151895 Valid Blocks : 44713
 Total Tags : 491520 Threshold : 12288 Invalid Tags : 348503 Pr0 Tags : 98304 Pr1 Tags : 44713 num_pr0 : 12288
 SAE Count : 0
 Inter-Core Inteference in Data Store : 5337
Heartbeat CPU 5 instructions: 150000000 cycles: 72959639 heartbeat IPC: 2.06064 cumulative IPC: 2.05593 (Simulation time: 30 hr 31 min 43 sec) 
 Total Blocks : 196608 Invalid Blocks : 151895 Valid Blocks : 44713
 Total Tags : 491520 Threshold : 12288 Invalid Tags : 348503 Pr0 Tags : 98304 Pr1 Tags : 44713 num_pr0 : 12288
 SAE Count : 0
 Inter-Core Inteference in Data Store : 5337
Heartbeat CPU 6 instructions: 150000000 cycles: 72960168 heartbeat IPC: 2.06061 cumulative IPC: 2.05592 (Simulation time: 30 hr 31 min 43 sec) 
 Total Blocks : 196608 Invalid Blocks : 151895 Valid Blocks : 44713
 Total Tags : 491520 Threshold : 12288 Invalid Tags : 348503 Pr0 Tags : 98304 Pr1 Tags : 44713 num_pr0 : 12288
 SAE Count : 0
 Inter-Core Inteference in Data Store : 5337
Heartbeat CPU 7 instructions: 150000000 cycles: 72961826 heartbeat IPC: 2.06057 cumulative IPC: 2.05587 (Simulation time: 30 hr 31 min 44 sec) 
 Total Blocks : 196608 Invalid Blocks : 151894 Valid Blocks : 44714
 Total Tags : 491520 Threshold : 12288 Invalid Tags : 348502 Pr0 Tags : 98304 Pr1 Tags : 44714 num_pr0 : 12288
 SAE Count : 0
 Inter-Core Inteference in Data Store : 5337
Heartbeat CPU 0 instructions: 160000001 cycles: 77826794 heartbeat IPC: 2.05222 cumulative IPC: 2.05585 (Simulation time: 30 hr 48 min 36 sec) 
 Total Blocks : 196608 Invalid Blocks : 151556 Valid Blocks : 45052
 Total Tags : 491520 Threshold : 12288 Invalid Tags : 348164 Pr0 Tags : 98304 Pr1 Tags : 45052 num_pr0 : 12288
 SAE Count : 0
 Inter-Core Inteference in Data Store : 5435
Heartbeat CPU 1 instructions: 160000001 cycles: 77828108 heartbeat IPC: 2.05218 cumulative IPC: 2.05581 (Simulation time: 30 hr 48 min 36 sec) 
 Total Blocks : 196608 Invalid Blocks : 151556 Valid Blocks : 45052
 Total Tags : 491520 Threshold : 12288 Invalid Tags : 348164 Pr0 Tags : 98304 Pr1 Tags : 45052 num_pr0 : 12288
 SAE Count : 0
 Inter-Core Inteference in Data Store : 5436
Heartbeat CPU 2 instructions: 160000001 cycles: 77829457 heartbeat IPC: 2.0522 cumulative IPC: 2.05578 (Simulation time: 30 hr 48 min 36 sec) 
 Total Blocks : 196608 Invalid Blocks : 151556 Valid Blocks : 45052
 Total Tags : 491520 Threshold : 12288 Invalid Tags : 348164 Pr0 Tags : 98304 Pr1 Tags : 45052 num_pr0 : 12288
 SAE Count : 0
 Inter-Core Inteference in Data Store : 5436
Heartbeat CPU 3 instructions: 160000001 cycles: 77829765 heartbeat IPC: 2.05213 cumulative IPC: 2.05577 (Simulation time: 30 hr 48 min 36 sec) 
 Total Blocks : 196608 Invalid Blocks : 151556 Valid Blocks : 45052
 Total Tags : 491520 Threshold : 12288 Invalid Tags : 348164 Pr0 Tags : 98304 Pr1 Tags : 45052 num_pr0 : 12288
 SAE Count : 0
 Inter-Core Inteference in Data Store : 5436
Heartbeat CPU 4 instructions: 160000001 cycles: 77831434 heartbeat IPC: 2.05211 cumulative IPC: 2.05572 (Simulation time: 30 hr 48 min 37 sec) 
 Total Blocks : 196608 Invalid Blocks : 151556 Valid Blocks : 45052
 Total Tags : 491520 Threshold : 12288 Invalid Tags : 348164 Pr0 Tags : 98304 Pr1 Tags : 45052 num_pr0 : 12288
 SAE Count : 0
 Inter-Core Inteference in Data Store : 5436
Heartbeat CPU 5 instructions: 160000001 cycles: 77832787 heartbeat IPC: 2.05206 cumulative IPC: 2.05569 (Simulation time: 30 hr 48 min 37 sec) 
 Total Blocks : 196608 Invalid Blocks : 151556 Valid Blocks : 45052
 Total Tags : 491520 Threshold : 12288 Invalid Tags : 348164 Pr0 Tags : 98304 Pr1 Tags : 45052 num_pr0 : 12288
 SAE Count : 0
 Inter-Core Inteference in Data Store : 5436
Heartbeat CPU 6 instructions: 160000001 cycles: 77833380 heartbeat IPC: 2.05203 cumulative IPC: 2.05567 (Simulation time: 30 hr 48 min 37 sec) 
 Total Blocks : 196608 Invalid Blocks : 151556 Valid Blocks : 45052
 Total Tags : 491520 Threshold : 12288 Invalid Tags : 348164 Pr0 Tags : 98304 Pr1 Tags : 45052 num_pr0 : 12288
 SAE Count : 0
 Inter-Core Inteference in Data Store : 5436
Heartbeat CPU 7 instructions: 160000001 cycles: 77835085 heartbeat IPC: 2.05202 cumulative IPC: 2.05563 (Simulation time: 30 hr 48 min 37 sec) 
 Total Blocks : 196608 Invalid Blocks : 151556 Valid Blocks : 45052
 Total Tags : 491520 Threshold : 12288 Invalid Tags : 348164 Pr0 Tags : 98304 Pr1 Tags : 45052 num_pr0 : 12288
 SAE Count : 0
 Inter-Core Inteference in Data Store : 5436
Heartbeat CPU 0 instructions: 170000000 cycles: 82691913 heartbeat IPC: 2.05545 cumulative IPC: 2.05582 (Simulation time: 31 hr 4 min 23 sec) 
 Total Blocks : 196608 Invalid Blocks : 151372 Valid Blocks : 45236
 Total Tags : 491520 Threshold : 12288 Invalid Tags : 347980 Pr0 Tags : 98304 Pr1 Tags : 45236 num_pr0 : 12288
 SAE Count : 0
 Inter-Core Inteference in Data Store : 5473
Heartbeat CPU 1 instructions: 170000000 cycles: 82693316 heartbeat IPC: 2.05541 cumulative IPC: 2.05579 (Simulation time: 31 hr 4 min 23 sec) 
 Total Blocks : 196608 Invalid Blocks : 151372 Valid Blocks : 45236
 Total Tags : 491520 Threshold : 12288 Invalid Tags : 347980 Pr0 Tags : 98304 Pr1 Tags : 45236 num_pr0 : 12288
 SAE Count : 0
 Inter-Core Inteference in Data Store : 5473
Heartbeat CPU 2 instructions: 170000000 cycles: 82694702 heartbeat IPC: 2.05539 cumulative IPC: 2.05575 (Simulation time: 31 hr 4 min 23 sec) 
 Total Blocks : 196608 Invalid Blocks : 151372 Valid Blocks : 45236
 Total Tags : 491520 Threshold : 12288 Invalid Tags : 347980 Pr0 Tags : 98304 Pr1 Tags : 45236 num_pr0 : 12288
 SAE Count : 0
 Inter-Core Inteference in Data Store : 5473
Heartbeat CPU 3 instructions: 170000000 cycles: 82695157 heartbeat IPC: 2.05533 cumulative IPC: 2.05574 (Simulation time: 31 hr 4 min 23 sec) 
 Total Blocks : 196608 Invalid Blocks : 151372 Valid Blocks : 45236
 Total Tags : 491520 Threshold : 12288 Invalid Tags : 347980 Pr0 Tags : 98304 Pr1 Tags : 45236 num_pr0 : 12288
 SAE Count : 0
 Inter-Core Inteference in Data Store : 5473
Heartbeat CPU 4 instructions: 170000000 cycles: 82696949 heartbeat IPC: 2.05528 cumulative IPC: 2.0557 (Simulation time: 31 hr 4 min 24 sec) 
 Total Blocks : 196608 Invalid Blocks : 151372 Valid Blocks : 45236
 Total Tags : 491520 Threshold : 12288 Invalid Tags : 347980 Pr0 Tags : 98304 Pr1 Tags : 45236 num_pr0 : 12288
 SAE Count : 0
 Inter-Core Inteference in Data Store : 5473
Heartbeat CPU 5 instructions: 170000000 cycles: 82698286 heartbeat IPC: 2.05529 cumulative IPC: 2.05567 (Simulation time: 31 hr 4 min 24 sec) 
 Total Blocks : 196608 Invalid Blocks : 151372 Valid Blocks : 45236
 Total Tags : 491520 Threshold : 12288 Invalid Tags : 347980 Pr0 Tags : 98304 Pr1 Tags : 45236 num_pr0 : 12288
 SAE Count : 0
 Inter-Core Inteference in Data Store : 5473
Heartbeat CPU 6 instructions: 170000000 cycles: 82698886 heartbeat IPC: 2.05528 cumulative IPC: 2.05565 (Simulation time: 31 hr 4 min 24 sec) 
 Total Blocks : 196608 Invalid Blocks : 151372 Valid Blocks : 45236
 Total Tags : 491520 Threshold : 12288 Invalid Tags : 347980 Pr0 Tags : 98304 Pr1 Tags : 45236 num_pr0 : 12288
 SAE Count : 0
 Inter-Core Inteference in Data Store : 5473
Heartbeat CPU 7 instructions: 170000000 cycles: 82700818 heartbeat IPC: 2.05519 cumulative IPC: 2.0556 (Simulation time: 31 hr 4 min 25 sec) 
 Total Blocks : 196608 Invalid Blocks : 151372 Valid Blocks : 45236
 Total Tags : 491520 Threshold : 12288 Invalid Tags : 347980 Pr0 Tags : 98304 Pr1 Tags : 45236 num_pr0 : 12288
 SAE Count : 0
 Inter-Core Inteference in Data Store : 5473
Heartbeat CPU 0 instructions: 180000003 cycles: 87532362 heartbeat IPC: 2.06592 cumulative IPC: 2.05638 (Simulation time: 31 hr 19 min 51 sec) 
 Total Blocks : 196608 Invalid Blocks : 151240 Valid Blocks : 45368
 Total Tags : 491520 Threshold : 12288 Invalid Tags : 347848 Pr0 Tags : 98304 Pr1 Tags : 45368 num_pr0 : 12288
 SAE Count : 0
 Inter-Core Inteference in Data Store : 5515
Heartbeat CPU 1 instructions: 180000003 cycles: 87533805 heartbeat IPC: 2.06591 cumulative IPC: 2.05635 (Simulation time: 31 hr 19 min 51 sec) 
 Total Blocks : 196608 Invalid Blocks : 151239 Valid Blocks : 45369
 Total Tags : 491520 Threshold : 12288 Invalid Tags : 347847 Pr0 Tags : 98304 Pr1 Tags : 45369 num_pr0 : 12288
 SAE Count : 0
 Inter-Core Inteference in Data Store : 5515
Heartbeat CPU 2 instructions: 180000003 cycles: 87535191 heartbeat IPC: 2.06591 cumulative IPC: 2.05632 (Simulation time: 31 hr 19 min 51 sec) 
 Total Blocks : 196608 Invalid Blocks : 151239 Valid Blocks : 45369
 Total Tags : 491520 Threshold : 12288 Invalid Tags : 347847 Pr0 Tags : 98304 Pr1 Tags : 45369 num_pr0 : 12288
 SAE Count : 0
 Inter-Core Inteference in Data Store : 5515
Heartbeat CPU 3 instructions: 180000003 cycles: 87535769 heartbeat IPC: 2.06586 cumulative IPC: 2.0563 (Simulation time: 31 hr 19 min 52 sec) 
 Total Blocks : 196608 Invalid Blocks : 151239 Valid Blocks : 45369
 Total Tags : 491520 Threshold : 12288 Invalid Tags : 347847 Pr0 Tags : 98304 Pr1 Tags : 45369 num_pr0 : 12288
 SAE Count : 0
 Inter-Core Inteference in Data Store : 5516
Heartbeat CPU 4 instructions: 180000003 cycles: 87537631 heartbeat IPC: 2.06583 cumulative IPC: 2.05626 (Simulation time: 31 hr 19 min 52 sec) 
 Total Blocks : 196608 Invalid Blocks : 151239 Valid Blocks : 45369
 Total Tags : 491520 Threshold : 12288 Invalid Tags : 347847 Pr0 Tags : 98304 Pr1 Tags : 45369 num_pr0 : 12288
 SAE Count : 0
 Inter-Core Inteference in Data Store : 5516
Heartbeat CPU 5 instructions: 180000003 cycles: 87538888 heartbeat IPC: 2.06586 cumulative IPC: 2.05623 (Simulation time: 31 hr 19 min 52 sec) 
 Total Blocks : 196608 Invalid Blocks : 151239 Valid Blocks : 45369
 Total Tags : 491520 Threshold : 12288 Invalid Tags : 347847 Pr0 Tags : 98304 Pr1 Tags : 45369 num_pr0 : 12288
 SAE Count : 0
 Inter-Core Inteference in Data Store : 5517
Heartbeat CPU 6 instructions: 180000003 cycles: 87539578 heartbeat IPC: 2.06582 cumulative IPC: 2.05621 (Simulation time: 31 hr 19 min 52 sec) 
 Total Blocks : 196608 Invalid Blocks : 151239 Valid Blocks : 45369
 Total Tags : 491520 Threshold : 12288 Invalid Tags : 347847 Pr0 Tags : 98304 Pr1 Tags : 45369 num_pr0 : 12288
 SAE Count : 0
 Inter-Core Inteference in Data Store : 5517
Heartbeat CPU 7 instructions: 180000003 cycles: 87541610 heartbeat IPC: 2.06578 cumulative IPC: 2.05616 (Simulation time: 31 hr 19 min 53 sec) 
 Total Blocks : 196608 Invalid Blocks : 151238 Valid Blocks : 45370
 Total Tags : 491520 Threshold : 12288 Invalid Tags : 347846 Pr0 Tags : 98304 Pr1 Tags : 45370 num_pr0 : 12288
 SAE Count : 0
 Inter-Core Inteference in Data Store : 5518
Heartbeat CPU 0 instructions: 190000001 cycles: 92456569 heartbeat IPC: 2.03078 cumulative IPC: 2.05502 (Simulation time: 31 hr 36 min 42 sec) 
 Total Blocks : 196608 Invalid Blocks : 150806 Valid Blocks : 45802
 Total Tags : 491520 Threshold : 12288 Invalid Tags : 347414 Pr0 Tags : 98304 Pr1 Tags : 45802 num_pr0 : 12288
 SAE Count : 0
 Inter-Core Inteference in Data Store : 5633
Heartbeat CPU 1 instructions: 190000001 cycles: 92458126 heartbeat IPC: 2.03074 cumulative IPC: 2.05498 (Simulation time: 31 hr 36 min 42 sec) 
 Total Blocks : 196608 Invalid Blocks : 150806 Valid Blocks : 45802
 Total Tags : 491520 Threshold : 12288 Invalid Tags : 347414 Pr0 Tags : 98304 Pr1 Tags : 45802 num_pr0 : 12288
 SAE Count : 0
 Inter-Core Inteference in Data Store : 5633
Heartbeat CPU 2 instructions: 190000001 cycles: 92459474 heartbeat IPC: 2.03075 cumulative IPC: 2.05495 (Simulation time: 31 hr 36 min 42 sec) 
 Total Blocks : 196608 Invalid Blocks : 150806 Valid Blocks : 45802
 Total Tags : 491520 Threshold : 12288 Invalid Tags : 347414 Pr0 Tags : 98304 Pr1 Tags : 45802 num_pr0 : 12288
 SAE Count : 0
 Inter-Core Inteference in Data Store : 5633
Heartbeat CPU 3 instructions: 190000001 cycles: 92460107 heartbeat IPC: 2.03073 cumulative IPC: 2.05494 (Simulation time: 31 hr 36 min 42 sec) 
 Total Blocks : 196608 Invalid Blocks : 150806 Valid Blocks : 45802
 Total Tags : 491520 Threshold : 12288 Invalid Tags : 347414 Pr0 Tags : 98304 Pr1 Tags : 45802 num_pr0 : 12288
 SAE Count : 0
 Inter-Core Inteference in Data Store : 5633
Heartbeat CPU 4 instructions: 190000001 cycles: 92462099 heartbeat IPC: 2.03068 cumulative IPC: 2.0549 (Simulation time: 31 hr 36 min 43 sec) 
 Total Blocks : 196608 Invalid Blocks : 150806 Valid Blocks : 45802
 Total Tags : 491520 Threshold : 12288 Invalid Tags : 347414 Pr0 Tags : 98304 Pr1 Tags : 45802 num_pr0 : 12288
 SAE Count : 0
 Inter-Core Inteference in Data Store : 5633
Heartbeat CPU 5 instructions: 190000001 cycles: 92463351 heartbeat IPC: 2.03068 cumulative IPC: 2.05487 (Simulation time: 31 hr 36 min 43 sec) 
 Total Blocks : 196608 Invalid Blocks : 150806 Valid Blocks : 45802
 Total Tags : 491520 Threshold : 12288 Invalid Tags : 347414 Pr0 Tags : 98304 Pr1 Tags : 45802 num_pr0 : 12288
 SAE Count : 0
 Inter-Core Inteference in Data Store : 5633
Heartbeat CPU 6 instructions: 190000001 cycles: 92464134 heartbeat IPC: 2.03064 cumulative IPC: 2.05485 (Simulation time: 31 hr 36 min 43 sec) 
 Total Blocks : 196608 Invalid Blocks : 150806 Valid Blocks : 45802
 Total Tags : 491520 Threshold : 12288 Invalid Tags : 347414 Pr0 Tags : 98304 Pr1 Tags : 45802 num_pr0 : 12288
 SAE Count : 0
 Inter-Core Inteference in Data Store : 5633
Heartbeat CPU 7 instructions: 190000001 cycles: 92466278 heartbeat IPC: 2.03059 cumulative IPC: 2.0548 (Simulation time: 31 hr 36 min 44 sec) 
 Total Blocks : 196608 Invalid Blocks : 150806 Valid Blocks : 45802
 Total Tags : 491520 Threshold : 12288 Invalid Tags : 347414 Pr0 Tags : 98304 Pr1 Tags : 45802 num_pr0 : 12288
 SAE Count : 0
 Inter-Core Inteference in Data Store : 5633
Heartbeat CPU 0 instructions: 200000000 cycles: 97322756 heartbeat IPC: 2.055 cumulative IPC: 2.05502 (Simulation time: 31 hr 52 min 24 sec) 
 Total Blocks : 196608 Invalid Blocks : 150635 Valid Blocks : 45973
 Total Tags : 491520 Threshold : 12288 Invalid Tags : 347243 Pr0 Tags : 98304 Pr1 Tags : 45973 num_pr0 : 12288
 SAE Count : 0
 Inter-Core Inteference in Data Store : 5674
Heartbeat CPU 1 instructions: 200000000 cycles: 97324328 heartbeat IPC: 2.05499 cumulative IPC: 2.05498 (Simulation time: 31 hr 52 min 24 sec) 
 Total Blocks : 196608 Invalid Blocks : 150635 Valid Blocks : 45973
 Total Tags : 491520 Threshold : 12288 Invalid Tags : 347243 Pr0 Tags : 98304 Pr1 Tags : 45973 num_pr0 : 12288
 SAE Count : 0
 Inter-Core Inteference in Data Store : 5674
Heartbeat CPU 2 instructions: 200000000 cycles: 97325679 heartbeat IPC: 2.05499 cumulative IPC: 2.05496 (Simulation time: 31 hr 52 min 24 sec) 
 Total Blocks : 196608 Invalid Blocks : 150635 Valid Blocks : 45973
 Total Tags : 491520 Threshold : 12288 Invalid Tags : 347243 Pr0 Tags : 98304 Pr1 Tags : 45973 num_pr0 : 12288
 SAE Count : 0
 Inter-Core Inteference in Data Store : 5674
Heartbeat CPU 3 instructions: 200000000 cycles: 97326480 heartbeat IPC: 2.05492 cumulative IPC: 2.05494 (Simulation time: 31 hr 52 min 24 sec) 
 Total Blocks : 196608 Invalid Blocks : 150635 Valid Blocks : 45973
 Total Tags : 491520 Threshold : 12288 Invalid Tags : 347243 Pr0 Tags : 98304 Pr1 Tags : 45973 num_pr0 : 12288
 SAE Count : 0
 Inter-Core Inteference in Data Store : 5674
Heartbeat CPU 4 instructions: 200000000 cycles: 97328553 heartbeat IPC: 2.05488 cumulative IPC: 2.0549 (Simulation time: 31 hr 52 min 25 sec) 
 Total Blocks : 196608 Invalid Blocks : 150635 Valid Blocks : 45973
 Total Tags : 491520 Threshold : 12288 Invalid Tags : 347243 Pr0 Tags : 98304 Pr1 Tags : 45973 num_pr0 : 12288
 SAE Count : 0
 Inter-Core Inteference in Data Store : 5674
Heartbeat CPU 5 instructions: 200000000 cycles: 97329802 heartbeat IPC: 2.05489 cumulative IPC: 2.05487 (Simulation time: 31 hr 52 min 25 sec) 
 Total Blocks : 196608 Invalid Blocks : 150635 Valid Blocks : 45973
 Total Tags : 491520 Threshold : 12288 Invalid Tags : 347243 Pr0 Tags : 98304 Pr1 Tags : 45973 num_pr0 : 12288
 SAE Count : 0
 Inter-Core Inteference in Data Store : 5674
Heartbeat CPU 6 instructions: 200000000 cycles: 97330762 heartbeat IPC: 2.05481 cumulative IPC: 2.05485 (Simulation time: 31 hr 52 min 25 sec) 
 Total Blocks : 196608 Invalid Blocks : 150635 Valid Blocks : 45973
 Total Tags : 491520 Threshold : 12288 Invalid Tags : 347243 Pr0 Tags : 98304 Pr1 Tags : 45973 num_pr0 : 12288
 SAE Count : 0
 Inter-Core Inteference in Data Store : 5674
Heartbeat CPU 7 instructions: 200000000 cycles: 97332850 heartbeat IPC: 2.05483 cumulative IPC: 2.0548 (Simulation time: 31 hr 52 min 26 sec) 
 Total Blocks : 196608 Invalid Blocks : 150635 Valid Blocks : 45973
 Total Tags : 491520 Threshold : 12288 Invalid Tags : 347243 Pr0 Tags : 98304 Pr1 Tags : 45973 num_pr0 : 12288
 SAE Count : 0
 Inter-Core Inteference in Data Store : 5674

Warmup complete CPU 0 instructions: 200021297 cycles: 97332852 (Simulation time: 31 hr 52 min 26 sec) 
Warmup complete CPU 1 instructions: 200017610 cycles: 97332852 (Simulation time: 31 hr 52 min 26 sec) 
Warmup complete CPU 2 instructions: 200014947 cycles: 97332852 (Simulation time: 31 hr 52 min 26 sec) 
Warmup complete CPU 3 instructions: 200013668 cycles: 97332852 (Simulation time: 31 hr 52 min 26 sec) 
Warmup complete CPU 4 instructions: 200008784 cycles: 97332852 (Simulation time: 31 hr 52 min 26 sec) 
Warmup complete CPU 5 instructions: 200006779 cycles: 97332852 (Simulation time: 31 hr 52 min 26 sec) 
Warmup complete CPU 6 instructions: 200004758 cycles: 97332852 (Simulation time: 31 hr 52 min 26 sec) 
Warmup complete CPU 7 instructions: 200000001 cycles: 97332852 (Simulation time: 31 hr 52 min 26 sec) 

Heartbeat CPU 0 instructions: 210000002 cycles: 151212657 heartbeat IPC: 0.185564 cumulative IPC: 0.185203 (Simulation time: 36 hr 33 min 14 sec) 
 Total Blocks : 196608 Invalid Blocks : 150448 Valid Blocks : 46160
 Total Tags : 491520 Threshold : 12288 Invalid Tags : 347056 Pr0 Tags : 98304 Pr1 Tags : 46160 num_pr0 : 12288
 SAE Count : 0
 Inter-Core Inteference in Data Store : 38
Heartbeat CPU 2 instructions: 210000002 cycles: 151212872 heartbeat IPC: 0.185573 cumulative IPC: 0.18532 (Simulation time: 36 hr 33 min 17 sec) 
 Total Blocks : 196608 Invalid Blocks : 150448 Valid Blocks : 46160
 Total Tags : 491520 Threshold : 12288 Invalid Tags : 347056 Pr0 Tags : 98304 Pr1 Tags : 46160 num_pr0 : 12288
 SAE Count : 0
 Inter-Core Inteference in Data Store : 38
Heartbeat CPU 3 instructions: 210000002 cycles: 151888253 heartbeat IPC: 0.183279 cumulative IPC: 0.183049 (Simulation time: 36 hr 44 min 5 sec) 
 Total Blocks : 196608 Invalid Blocks : 150444 Valid Blocks : 46164
 Total Tags : 491520 Threshold : 12288 Invalid Tags : 347052 Pr0 Tags : 98304 Pr1 Tags : 46164 num_pr0 : 12288
 SAE Count : 0
 Inter-Core Inteference in Data Store : 39
Heartbeat CPU 1 instructions: 210000002 cycles: 151947754 heartbeat IPC: 0.183072 cumulative IPC: 0.182778 (Simulation time: 36 hr 45 min 9 sec) 
 Total Blocks : 196608 Invalid Blocks : 150443 Valid Blocks : 46165
 Total Tags : 491520 Threshold : 12288 Invalid Tags : 347051 Pr0 Tags : 98304 Pr1 Tags : 46165 num_pr0 : 12288
 SAE Count : 0
 Inter-Core Inteference in Data Store : 39
Heartbeat CPU 5 instructions: 210000002 cycles: 152133800 heartbeat IPC: 0.182468 cumulative IPC: 0.182355 (Simulation time: 36 hr 48 min 4 sec) 
 Total Blocks : 196608 Invalid Blocks : 150442 Valid Blocks : 46166
 Total Tags : 491520 Threshold : 12288 Invalid Tags : 347050 Pr0 Tags : 98304 Pr1 Tags : 46166 num_pr0 : 12288
 SAE Count : 0
 Inter-Core Inteference in Data Store : 39
Heartbeat CPU 4 instructions: 210000002 cycles: 152321887 heartbeat IPC: 0.18184 cumulative IPC: 0.181695 (Simulation time: 36 hr 51 min 28 sec) 
 Total Blocks : 196608 Invalid Blocks : 150442 Valid Blocks : 46166
 Total Tags : 491520 Threshold : 12288 Invalid Tags : 347050 Pr0 Tags : 98304 Pr1 Tags : 46166 num_pr0 : 12288
 SAE Count : 0
 Inter-Core Inteference in Data Store : 39
Heartbeat CPU 6 instructions: 210000002 cycles: 152434690 heartbeat IPC: 0.181475 cumulative IPC: 0.181396 (Simulation time: 36 hr 53 min 21 sec) 
 Total Blocks : 196608 Invalid Blocks : 150442 Valid Blocks : 46166
 Total Tags : 491520 Threshold : 12288 Invalid Tags : 347050 Pr0 Tags : 98304 Pr1 Tags : 46166 num_pr0 : 12288
 SAE Count : 0
 Inter-Core Inteference in Data Store : 39
Heartbeat CPU 7 instructions: 210000002 cycles: 152501183 heartbeat IPC: 0.181263 cumulative IPC: 0.181263 (Simulation time: 36 hr 54 min 45 sec) 
 Total Blocks : 196608 Invalid Blocks : 150442 Valid Blocks : 46166
 Total Tags : 491520 Threshold : 12288 Invalid Tags : 347050 Pr0 Tags : 98304 Pr1 Tags : 46166 num_pr0 : 12288
 SAE Count : 0
 Inter-Core Inteference in Data Store : 39
Heartbeat CPU 0 instructions: 220000000 cycles: 205328718 heartbeat IPC: 0.184788 cumulative IPC: 0.184995 (Simulation time: 47 hr 51 min 46 sec) 
 Total Blocks : 196608 Invalid Blocks : 150201 Valid Blocks : 46407
 Total Tags : 491520 Threshold : 12288 Invalid Tags : 346809 Pr0 Tags : 98304 Pr1 Tags : 46407 num_pr0 : 12288
 SAE Count : 0
 Inter-Core Inteference in Data Store : 92
Heartbeat CPU 2 instructions: 220000000 cycles: 205331643 heartbeat IPC: 0.184779 cumulative IPC: 0.185049 (Simulation time: 47 hr 51 min 51 sec) 
 Total Blocks : 196608 Invalid Blocks : 150201 Valid Blocks : 46407
 Total Tags : 491520 Threshold : 12288 Invalid Tags : 346809 Pr0 Tags : 98304 Pr1 Tags : 46407 num_pr0 : 12288
 SAE Count : 0
 Inter-Core Inteference in Data Store : 92
Heartbeat CPU 1 instructions: 220000000 cycles: 206118718 heartbeat IPC: 0.184601 cumulative IPC: 0.183686 (Simulation time: 47 hr 57 min 36 sec) 
 Total Blocks : 196608 Invalid Blocks : 150188 Valid Blocks : 46420
 Total Tags : 491520 Threshold : 12288 Invalid Tags : 346796 Pr0 Tags : 98304 Pr1 Tags : 46420 num_pr0 : 12288
 SAE Count : 0
 Inter-Core Inteference in Data Store : 98
Heartbeat CPU 3 instructions: 220000000 cycles: 206200729 heartbeat IPC: 0.18412 cumulative IPC: 0.183583 (Simulation time: 47 hr 58 min 0 sec) 
 Total Blocks : 196608 Invalid Blocks : 150185 Valid Blocks : 46423
 Total Tags : 491520 Threshold : 12288 Invalid Tags : 346793 Pr0 Tags : 98304 Pr1 Tags : 46423 num_pr0 : 12288
 SAE Count : 0
 Inter-Core Inteference in Data Store : 99
Heartbeat CPU 4 instructions: 220000000 cycles: 206737849 heartbeat IPC: 0.18377 cumulative IPC: 0.182727 (Simulation time: 48 hr 1 min 28 sec) 
 Total Blocks : 196608 Invalid Blocks : 150174 Valid Blocks : 46434
 Total Tags : 491520 Threshold : 12288 Invalid Tags : 346782 Pr0 Tags : 98304 Pr1 Tags : 46434 num_pr0 : 12288
 SAE Count : 0
 Inter-Core Inteference in Data Store : 101
Heartbeat CPU 5 instructions: 220000000 cycles: 206742265 heartbeat IPC: 0.183122 cumulative IPC: 0.182738 (Simulation time: 48 hr 1 min 31 sec) 
 Total Blocks : 196608 Invalid Blocks : 150174 Valid Blocks : 46434
 Total Tags : 491520 Threshold : 12288 Invalid Tags : 346782 Pr0 Tags : 98304 Pr1 Tags : 46434 num_pr0 : 12288
 SAE Count : 0
 Inter-Core Inteference in Data Store : 101
Heartbeat CPU 6 instructions: 220000000 cycles: 206976731 heartbeat IPC: 0.183345 cumulative IPC: 0.182365 (Simulation time: 48 hr 2 min 54 sec) 
 Total Blocks : 196608 Invalid Blocks : 150166 Valid Blocks : 46442
 Total Tags : 491520 Threshold : 12288 Invalid Tags : 346774 Pr0 Tags : 98304 Pr1 Tags : 46442 num_pr0 : 12288
 SAE Count : 0
 Inter-Core Inteference in Data Store : 103
Heartbeat CPU 7 instructions: 220000000 cycles: 207276159 heartbeat IPC: 0.182565 cumulative IPC: 0.181912 (Simulation time: 48 hr 5 min 2 sec) 
 Total Blocks : 196608 Invalid Blocks : 150163 Valid Blocks : 46445
 Total Tags : 491520 Threshold : 12288 Invalid Tags : 346771 Pr0 Tags : 98304 Pr1 Tags : 46445 num_pr0 : 12288
 SAE Count : 0
 Inter-Core Inteference in Data Store : 104
Heartbeat CPU 0 instructions: 230000000 cycles: 260328124 heartbeat IPC: 0.18182 cumulative IPC: 0.183924 (Simulation time: 54 hr 43 min 23 sec) 
 Total Blocks : 196608 Invalid Blocks : 149626 Valid Blocks : 46982
 Total Tags : 491520 Threshold : 12288 Invalid Tags : 346234 Pr0 Tags : 98304 Pr1 Tags : 46982 num_pr0 : 12288
 SAE Count : 0
 Inter-Core Inteference in Data Store : 263
Heartbeat CPU 2 instructions: 230000000 cycles: 260400538 heartbeat IPC: 0.181591 cumulative IPC: 0.183881 (Simulation time: 54 hr 43 min 41 sec) 
 Total Blocks : 196608 Invalid Blocks : 149625 Valid Blocks : 46983
 Total Tags : 491520 Threshold : 12288 Invalid Tags : 346233 Pr0 Tags : 98304 Pr1 Tags : 46983 num_pr0 : 12288
 SAE Count : 0
 Inter-Core Inteference in Data Store : 263
Heartbeat CPU 1 instructions: 230000000 cycles: 261076237 heartbeat IPC: 0.181959 cumulative IPC: 0.183106 (Simulation time: 54 hr 47 min 31 sec) 
 Total Blocks : 196608 Invalid Blocks : 149624 Valid Blocks : 46984
 Total Tags : 491520 Threshold : 12288 Invalid Tags : 346232 Pr0 Tags : 98304 Pr1 Tags : 46984 num_pr0 : 12288
 SAE Count : 0
 Inter-Core Inteference in Data Store : 263
Heartbeat CPU 4 instructions: 230000000 cycles: 261104405 heartbeat IPC: 0.183937 cumulative IPC: 0.183128 (Simulation time: 54 hr 47 min 39 sec) 
 Total Blocks : 196608 Invalid Blocks : 149624 Valid Blocks : 46984
 Total Tags : 491520 Threshold : 12288 Invalid Tags : 346232 Pr0 Tags : 98304 Pr1 Tags : 46984 num_pr0 : 12288
 SAE Count : 0
 Inter-Core Inteference in Data Store : 263
Heartbeat CPU 3 instructions: 230000000 cycles: 261397685 heartbeat IPC: 0.181169 cumulative IPC: 0.182771 (Simulation time: 54 hr 49 min 6 sec) 
 Total Blocks : 196608 Invalid Blocks : 149623 Valid Blocks : 46985
 Total Tags : 491520 Threshold : 12288 Invalid Tags : 346231 Pr0 Tags : 98304 Pr1 Tags : 46985 num_pr0 : 12288
 SAE Count : 0
 Inter-Core Inteference in Data Store : 263
Heartbeat CPU 5 instructions: 230000000 cycles: 261532530 heartbeat IPC: 0.182514 cumulative IPC: 0.182663 (Simulation time: 54 hr 49 min 49 sec) 
 Total Blocks : 196608 Invalid Blocks : 149623 Valid Blocks : 46985
 Total Tags : 491520 Threshold : 12288 Invalid Tags : 346231 Pr0 Tags : 98304 Pr1 Tags : 46985 num_pr0 : 12288
 SAE Count : 0
 Inter-Core Inteference in Data Store : 263
Heartbeat CPU 6 instructions: 230000000 cycles: 262293166 heartbeat IPC: 0.180778 cumulative IPC: 0.181833 (Simulation time: 54 hr 54 min 4 sec) 
 Total Blocks : 196608 Invalid Blocks : 149621 Valid Blocks : 46987
 Total Tags : 491520 Threshold : 12288 Invalid Tags : 346229 Pr0 Tags : 98304 Pr1 Tags : 46987 num_pr0 : 12288
 SAE Count : 0
 Inter-Core Inteference in Data Store : 263
Heartbeat CPU 7 instructions: 230000000 cycles: 262654257 heartbeat IPC: 0.180577 cumulative IPC: 0.181465 (Simulation time: 54 hr 56 min 12 sec) 
 Total Blocks : 196608 Invalid Blocks : 149620 Valid Blocks : 46988
 Total Tags : 491520 Threshold : 12288 Invalid Tags : 346228 Pr0 Tags : 98304 Pr1 Tags : 46988 num_pr0 : 12288
 SAE Count : 0
 Inter-Core Inteference in Data Store : 263
Heartbeat CPU 0 instructions: 240000000 cycles: 315677080 heartbeat IPC: 0.180672 cumulative IPC: 0.183099 (Simulation time: 60 hr 0 min 47 sec) 
 Total Blocks : 196608 Invalid Blocks : 149426 Valid Blocks : 47182
 Total Tags : 491520 Threshold : 12288 Invalid Tags : 346034 Pr0 Tags : 98304 Pr1 Tags : 47182 num_pr0 : 12288
 SAE Count : 0
 Inter-Core Inteference in Data Store : 319
Heartbeat CPU 2 instructions: 240000000 cycles: 315753602 heartbeat IPC: 0.180658 cumulative IPC: 0.183064 (Simulation time: 60 hr 1 min 20 sec) 
 Total Blocks : 196608 Invalid Blocks : 149426 Valid Blocks : 47182
 Total Tags : 491520 Threshold : 12288 Invalid Tags : 346034 Pr0 Tags : 98304 Pr1 Tags : 47182 num_pr0 : 12288
 SAE Count : 0
 Inter-Core Inteference in Data Store : 319
Heartbeat CPU 1 instructions: 240000000 cycles: 316292752 heartbeat IPC: 0.181105 cumulative IPC: 0.182601 (Simulation time: 60 hr 4 min 17 sec) 
 Total Blocks : 196608 Invalid Blocks : 149425 Valid Blocks : 47183
 Total Tags : 491520 Threshold : 12288 Invalid Tags : 346033 Pr0 Tags : 98304 Pr1 Tags : 47183 num_pr0 : 12288
 SAE Count : 0
 Inter-Core Inteference in Data Store : 320
Heartbeat CPU 4 instructions: 240000000 cycles: 316348718 heartbeat IPC: 0.181014 cumulative IPC: 0.182595 (Simulation time: 60 hr 4 min 28 sec) 
 Total Blocks : 196608 Invalid Blocks : 149425 Valid Blocks : 47183
 Total Tags : 491520 Threshold : 12288 Invalid Tags : 346033 Pr0 Tags : 98304 Pr1 Tags : 47183 num_pr0 : 12288
 SAE Count : 0
 Inter-Core Inteference in Data Store : 320
Heartbeat CPU 3 instructions: 240000000 cycles: 317179276 heartbeat IPC: 0.179271 cumulative IPC: 0.181883 (Simulation time: 60 hr 8 min 43 sec) 
 Total Blocks : 196608 Invalid Blocks : 149423 Valid Blocks : 47185
 Total Tags : 491520 Threshold : 12288 Invalid Tags : 346031 Pr0 Tags : 98304 Pr1 Tags : 47185 num_pr0 : 12288
 SAE Count : 0
 Inter-Core Inteference in Data Store : 322
Heartbeat CPU 5 instructions: 240000000 cycles: 317354943 heartbeat IPC: 0.17914 cumulative IPC: 0.181769 (Simulation time: 60 hr 9 min 12 sec) 
 Total Blocks : 196608 Invalid Blocks : 149423 Valid Blocks : 47185
 Total Tags : 491520 Threshold : 12288 Invalid Tags : 346031 Pr0 Tags : 98304 Pr1 Tags : 47185 num_pr0 : 12288
 SAE Count : 0
 Inter-Core Inteference in Data Store : 322
Heartbeat CPU 6 instructions: 240000000 cycles: 318072246 heartbeat IPC: 0.179279 cumulative IPC: 0.181188 (Simulation time: 60 hr 12 min 40 sec) 
 Total Blocks : 196608 Invalid Blocks : 149420 Valid Blocks : 47188
 Total Tags : 491520 Threshold : 12288 Invalid Tags : 346028 Pr0 Tags : 98304 Pr1 Tags : 47188 num_pr0 : 12288
 SAE Count : 0
 Inter-Core Inteference in Data Store : 323
Heartbeat CPU 7 instructions: 240000000 cycles: 318457638 heartbeat IPC: 0.179201 cumulative IPC: 0.180893 (Simulation time: 60 hr 14 min 38 sec) 
 Total Blocks : 196608 Invalid Blocks : 149418 Valid Blocks : 47190
 Total Tags : 491520 Threshold : 12288 Invalid Tags : 346026 Pr0 Tags : 98304 Pr1 Tags : 47190 num_pr0 : 12288
 SAE Count : 0
 Inter-Core Inteference in Data Store : 323
Heartbeat CPU 0 instructions: 250000003 cycles: 371089288 heartbeat IPC: 0.180466 cumulative IPC: 0.182566 (Simulation time: 64 hr 47 min 23 sec) 
 Total Blocks : 196608 Invalid Blocks : 149276 Valid Blocks : 47332
 Total Tags : 491520 Threshold : 12288 Invalid Tags : 345884 Pr0 Tags : 98304 Pr1 Tags : 47332 num_pr0 : 12288
 SAE Count : 0
 Inter-Core Inteference in Data Store : 374
Heartbeat CPU 2 instructions: 250000003 cycles: 371175408 heartbeat IPC: 0.180434 cumulative IPC: 0.182532 (Simulation time: 64 hr 47 min 55 sec) 
 Total Blocks : 196608 Invalid Blocks : 149276 Valid Blocks : 47332
 Total Tags : 491520 Threshold : 12288 Invalid Tags : 345884 Pr0 Tags : 98304 Pr1 Tags : 47332 num_pr0 : 12288
 SAE Count : 0
 Inter-Core Inteference in Data Store : 374
Heartbeat CPU 4 instructions: 250000003 cycles: 371504015 heartbeat IPC: 0.181306 cumulative IPC: 0.182336 (Simulation time: 64 hr 49 min 29 sec) 
 Total Blocks : 196608 Invalid Blocks : 149274 Valid Blocks : 47334
 Total Tags : 491520 Threshold : 12288 Invalid Tags : 345882 Pr0 Tags : 98304 Pr1 Tags : 47334 num_pr0 : 12288
 SAE Count : 0
 Inter-Core Inteference in Data Store : 374
Heartbeat CPU 1 instructions: 250000003 cycles: 371520175 heartbeat IPC: 0.18107 cumulative IPC: 0.182293 (Simulation time: 64 hr 49 min 33 sec) 
 Total Blocks : 196608 Invalid Blocks : 149274 Valid Blocks : 47334
 Total Tags : 491520 Threshold : 12288 Invalid Tags : 345882 Pr0 Tags : 98304 Pr1 Tags : 47334 num_pr0 : 12288
 SAE Count : 0
 Inter-Core Inteference in Data Store : 374
Heartbeat CPU 3 instructions: 250000003 cycles: 372570418 heartbeat IPC: 0.180534 cumulative IPC: 0.181612 (Simulation time: 64 hr 54 min 38 sec) 
 Total Blocks : 196608 Invalid Blocks : 149269 Valid Blocks : 47339
 Total Tags : 491520 Threshold : 12288 Invalid Tags : 345877 Pr0 Tags : 98304 Pr1 Tags : 47339 num_pr0 : 12288
 SAE Count : 0
 Inter-Core Inteference in Data Store : 376
Heartbeat CPU 5 instructions: 250000003 cycles: 372742669 heartbeat IPC: 0.180545 cumulative IPC: 0.181523 (Simulation time: 64 hr 55 min 35 sec) 
 Total Blocks : 196608 Invalid Blocks : 149269 Valid Blocks : 47339
 Total Tags : 491520 Threshold : 12288 Invalid Tags : 345877 Pr0 Tags : 98304 Pr1 Tags : 47339 num_pr0 : 12288
 SAE Count : 0
 Inter-Core Inteference in Data Store : 376
Heartbeat CPU 6 instructions: 250000003 cycles: 373420121 heartbeat IPC: 0.180675 cumulative IPC: 0.181085 (Simulation time: 64 hr 58 min 25 sec) 
 Total Blocks : 196608 Invalid Blocks : 149268 Valid Blocks : 47340
[...]
LLC4 LOAD      ACCESS: 12193  HIT:  1131  MISS: 11062  HIT %: 9.27581  MISS %: 90.7242  AVERAGE MISS PENALTY: 301.854
LLC4 RFO       ACCESS:    53  HIT:    52  MISS:     1  HIT %: 98.1132  MISS %: 1.88679  AVERAGE MISS PENALTY: 28
LLC4 PREFETCH  ACCESS: 1800174  HIT:  4428  MISS: 1795746  HIT %: 0.245976  MISS %: 99.754  AVERAGE MISS PENALTY: 272.041
LLC4 WRITEBACK ACCESS:  2726  HIT:  2705  MISS:    21  HIT %: 99.2296  MISS %: 0.77036  AVERAGE MISS PENALTY: 0
LLC4 PREFETCH  REQUESTED:     0  ISSUED:     0  USEFUL:    25  USELESS:    36
 USEFUL LOAD PREFETCHES:         25 PREFETCH ISSUED TO LOWER LEVEL:   14409775  ACCURACY: 0.000173493
 TIMELY PREFETCHES:         25 LATE PREFETCHES: 0 DROPPED PREFETCHES: 0
LLC4 AVERAGE MISS LATENCY: 272.22 cycles

LLC4 Set Associative Eviction Count : 0
LLC4 Priority 0 entries : 12288
LLC4 Inter-Core Interference : 141
LLC5 TOTAL     ACCESS: 1815226  HIT:  7905  MISS: 1807321  HIT %: 0.435483  MISS %: 99.5645  AVERAGE MISS PENALTY: 273.05
LLC5 LOAD      ACCESS: 12131  HIT:  1200  MISS: 10931  HIT %: 9.89201  MISS %: 90.108  AVERAGE MISS PENALTY: 298.534
LLC5 RFO       ACCESS:    55  HIT:    54  MISS:     1  HIT %: 98.1818  MISS %: 1.81818  AVERAGE MISS PENALTY: 28
LLC5 PREFETCH  ACCESS: 1800211  HIT:  3848  MISS: 1796363  HIT %: 0.213753  MISS %: 99.7862  AVERAGE MISS PENALTY: 272.899
LLC5 WRITEBACK ACCESS:  2829  HIT:  2803  MISS:    26  HIT %: 99.0809  MISS %: 0.919053  AVERAGE MISS PENALTY: 0
LLC5 PREFETCH  REQUESTED:     0  ISSUED:     0  USEFUL:    24  USELESS:    28
 USEFUL LOAD PREFETCHES:         24 PREFETCH ISSUED TO LOWER LEVEL:   14413415  ACCURACY: 0.000166512
 TIMELY PREFETCHES:         24 LATE PREFETCHES: 0 DROPPED PREFETCHES: 0
LLC5 AVERAGE MISS LATENCY: 273.05 cycles

LLC5 Set Associative Eviction Count : 0
LLC5 Priority 0 entries : 12288
LLC5 Inter-Core Interference : 150
LLC6 TOTAL     ACCESS: 1814855  HIT:  7839  MISS: 1807016  HIT %: 0.431935  MISS %: 99.5681  AVERAGE MISS PENALTY: 265.63
LLC6 LOAD      ACCESS: 12035  HIT:  1200  MISS: 10835  HIT %: 9.97092  MISS %: 90.0291  AVERAGE MISS PENALTY: 299.736
LLC6 RFO       ACCESS:    59  HIT:    58  MISS:     1  HIT %: 98.3051  MISS %: 1.69492  AVERAGE MISS PENALTY: 431
LLC6 PREFETCH  ACCESS: 1800002  HIT:  3840  MISS: 1796162  HIT %: 0.213333  MISS %: 99.7867  AVERAGE MISS PENALTY: 265.427
LLC6 WRITEBACK ACCESS:  2759  HIT:  2741  MISS:    18  HIT %: 99.3476  MISS %: 0.65241  AVERAGE MISS PENALTY: 0
LLC6 PREFETCH  REQUESTED:     0  ISSUED:     0  USEFUL:    39  USELESS:    31
 USEFUL LOAD PREFETCHES:         39 PREFETCH ISSUED TO LOWER LEVEL:   14412068  ACCURACY: 0.000270607
 TIMELY PREFETCHES:         39 LATE PREFETCHES: 0 DROPPED PREFETCHES: 0
LLC6 AVERAGE MISS LATENCY: 265.63 cycles

LLC6 Set Associative Eviction Count : 0
LLC6 Priority 0 entries : 12288
LLC6 Inter-Core Interference : 141
LLC7 TOTAL     ACCESS: 1814977  HIT:  7874  MISS: 1807103  HIT %: 0.433835  MISS %: 99.5662  AVERAGE MISS PENALTY: 262.626
LLC7 LOAD      ACCESS: 12152  HIT:  1166  MISS: 10986  HIT %: 9.59513  MISS %: 90.4049  AVERAGE MISS PENALTY: 302.26
LLC7 RFO       ACCESS:    35  HIT:    34  MISS:     1  HIT %: 97.1429  MISS %: 2.85714  AVERAGE MISS PENALTY: 306
LLC7 PREFETCH  ACCESS: 1799895  HIT:  3802  MISS: 1796093  HIT %: 0.211235  MISS %: 99.7888  AVERAGE MISS PENALTY: 262.387
LLC7 WRITEBACK ACCESS:  2895  HIT:  2872  MISS:    23  HIT %: 99.2055  MISS %: 0.794473  AVERAGE MISS PENALTY: 0
LLC7 PREFETCH  REQUESTED:     0  ISSUED:     0  USEFUL:    35  USELESS:    30
 USEFUL LOAD PREFETCHES:         35 PREFETCH ISSUED TO LOWER LEVEL:   14411362  ACCURACY: 0.000242864
 TIMELY PREFETCHES:         35 LATE PREFETCHES: 0 DROPPED PREFETCHES: 0
LLC7 AVERAGE MISS LATENCY: 262.626 cycles

LLC7 Set Associative Eviction Count : 0
LLC7 Priority 0 entries : 12288
LLC7 Inter-Core Interference : 179
ROI Average ROB Stall Cycles:	11.4689
ROI Total ROB Stalls Cycles:	1074780406
ROI TOTAL ROB counter      :	93712715
ROI Average Load ROB Stall Cycles:	44.4561
ROI Total Load ROB Stalls Cycle  :	879640033
ROI Total Load ROB stalls Counter:	19786725
Major fault: 0 Minor fault: 48355

CPU 7 cumulative IPC: 0.180456 instructions: 200000001 cycles: 1108306494
ITLB TOTAL     ACCESS: 64648310  HIT: 64648305  MISS:     5  HIT %:   100  MISS %: 7.73415e-06  AVERAGE MISS PENALTY: 148.6
ITLB LOAD      ACCESS: 64648310  HIT: 64648305  MISS:     5  HIT %:   100  MISS %: 7.73415e-06  AVERAGE MISS PENALTY: 148.6
ITLB RFO       ACCESS:     0  HIT:     0  MISS:     0  HIT %:     0  MISS %:     0  AVERAGE MISS PENALTY: 0
ITLB PREFETCH  ACCESS:     0  HIT:     0  MISS:     0  HIT %:     0  MISS %:     0  AVERAGE MISS PENALTY: 0
ITLB WRITEBACK ACCESS:     0  HIT:     0  MISS:     0  HIT %:     0  MISS %:     0  AVERAGE MISS PENALTY: 0
ITLB PREFETCH  REQUESTED:     0  ISSUED:     0  USEFUL:     0  USELESS:     0
 USEFUL LOAD PREFETCHES:          0 PREFETCH ISSUED TO LOWER LEVEL:          0  ACCURACY: -nan
 TIMELY PREFETCHES:          0 LATE PREFETCHES: 0 DROPPED PREFETCHES: 0
ITLB AVERAGE MISS LATENCY: 148.6 cycles

ITLB Set Associative Eviction Count : 0
ITLB Priority 0 entries : 0
ITLB Inter-Core Interference : 5
DTLB TOTAL     ACCESS: 52024089  HIT: 51750885  MISS: 273204  HIT %: 99.4749  MISS %: 0.525149  AVERAGE MISS PENALTY: 105.547
DTLB LOAD      ACCESS: 49123019  HIT: 48849910  MISS: 273109  HIT %: 99.444  MISS %: 0.555969  AVERAGE MISS PENALTY: 105.548
DTLB RFO       ACCESS: 2901070  HIT: 2900975  MISS:    95  HIT %: 99.9967  MISS %: 0.00327465  AVERAGE MISS PENALTY: 102.684
DTLB PREFETCH  ACCESS:     0  HIT:     0  MISS:     0  HIT %:     0  MISS %:     0  AVERAGE MISS PENALTY: 0
DTLB WRITEBACK ACCESS:     0  HIT:     0  MISS:     0  HIT %:     0  MISS %:     0  AVERAGE MISS PENALTY: 0
DTLB PREFETCH  REQUESTED:     0  ISSUED:     0  USEFUL:     0  USELESS:     0
 USEFUL LOAD PREFETCHES:          0 PREFETCH ISSUED TO LOWER LEVEL:          0  ACCURACY: -nan
 TIMELY PREFETCHES:          0 LATE PREFETCHES: 0 DROPPED PREFETCHES: 0
DTLB AVERAGE MISS LATENCY: 105.547 cycles

DTLB Set Associative Eviction Count : 0
DTLB Priority 0 entries : 0
DTLB Inter-Core Interference : 0
STLB TOTAL     ACCESS: 273209  HIT:  9711  MISS: 263498  HIT %: 3.55442  MISS %: 96.4456  AVERAGE MISS PENALTY: 100
STLB LOAD      ACCESS: 273114  HIT:  9705  MISS: 263409  HIT %: 3.55346  MISS %: 96.4465  AVERAGE MISS PENALTY: 100
STLB RFO       ACCESS:    95  HIT:     6  MISS:    89  HIT %: 6.31579  MISS %: 93.6842  AVERAGE MISS PENALTY: 100
STLB PREFETCH  ACCESS:     0  HIT:     0  MISS:     0  HIT %:     0  MISS %:     0  AVERAGE MISS PENALTY: 0
STLB WRITEBACK ACCESS:     0  HIT:     0  MISS:     0  HIT %:     0  MISS %:     0  AVERAGE MISS PENALTY: 0
STLB PREFETCH  REQUESTED:     0  ISSUED:     0  USEFUL:     0  USELESS:     0
 USEFUL LOAD PREFETCHES:          0 PREFETCH ISSUED TO LOWER LEVEL:          0  ACCURACY: -nan
 TIMELY PREFETCHES:          0 LATE PREFETCHES: 0 DROPPED PREFETCHES: 0
STLB AVERAGE MISS LATENCY: 100 cycles

STLB Set Associative Eviction Count : 0
STLB Priority 0 entries : 0
STLB Inter-Core Interference : 0
L1D TOTAL     ACCESS: 61173007  HIT: 46747434  MISS: 14425573  HIT %: 76.4184  MISS %: 23.5816  AVERAGE MISS PENALTY: 2.5898e+08
L1D LOAD      ACCESS: 31747659  HIT: 25406314  MISS: 6341345  HIT %: 80.0258  MISS %: 19.9742  AVERAGE MISS PENALTY: 5.89124e+08
L1D RFO       ACCESS: 2919673  HIT: 2917959  MISS:  1714  HIT %: 99.9413  MISS %: 0.0587052  AVERAGE MISS PENALTY: 5.81924e+07
L1D PREFETCH  ACCESS: 26505675  HIT: 18423161  MISS: 8082514  HIT %: 69.5065  MISS %: 30.4935  AVERAGE MISS PENALTY: 218.328
L1D WRITEBACK ACCESS:     0  HIT:     0  MISS:     0  HIT %:     0  MISS %:     0  AVERAGE MISS PENALTY: 0
L1D PREFETCH  REQUESTED: 82853599  ISSUED: 82848723  USEFUL: 7674937  USELESS: 407589
 USEFUL LOAD PREFETCHES:    7674937 PREFETCH ISSUED TO LOWER LEVEL:   49867338  ACCURACY: 15.3907
 TIMELY PREFETCHES:    7674937 LATE PREFETCHES: 7930111 DROPPED PREFETCHES: 4876
L1D AVERAGE MISS LATENCY: 7088.91 cycles

L1D Set Associative Eviction Count : 0
L1D Priority 0 entries : 0
L1D Inter-Core Interference : 0
L1I TOTAL     ACCESS: 66004343  HIT: 66004317  MISS:    26  HIT %:   100  MISS %: 3.93913e-05  AVERAGE MISS PENALTY: 268.462
L1I LOAD      ACCESS: 66004343  HIT: 66004317  MISS:    26  HIT %:   100  MISS %: 3.93913e-05  AVERAGE MISS PENALTY: 268.462
L1I RFO       ACCESS:     0  HIT:     0  MISS:     0  HIT %:     0  MISS %:     0  AVERAGE MISS PENALTY: 0
L1I PREFETCH  ACCESS:     0  HIT:     0  MISS:     0  HIT %:     0  MISS %:     0  AVERAGE MISS PENALTY: 0
L1I WRITEBACK ACCESS:     0  HIT:     0  MISS:     0  HIT %:     0  MISS %:     0  AVERAGE MISS PENALTY: 0
L1I PREFETCH  REQUESTED:     0  ISSUED:     0  USEFUL:     0  USELESS:     0
 USEFUL LOAD PREFETCHES:          0 PREFETCH ISSUED TO LOWER LEVEL:          0  ACCURACY: -nan
 TIMELY PREFETCHES:          0 LATE PREFETCHES: 0 DROPPED PREFETCHES: 0
L1I AVERAGE MISS LATENCY: 268.462 cycles

L1I Set Associative Eviction Count : 0
L1I Priority 0 entries : 0
L1I Inter-Core Interference : 26
L2C TOTAL     ACCESS: 16571120  HIT: 2071204  MISS: 14499916  HIT %: 12.4989  MISS %: 87.5011  AVERAGE MISS PENALTY: 1.88037e+08
L2C LOAD      ACCESS: 4701435  HIT: 196090  MISS: 4505345  HIT %: 4.17085  MISS %: 95.8291  AVERAGE MISS PENALTY: 6.05173e+08
L2C RFO       ACCESS:  1562  HIT:   998  MISS:   564  HIT %: 63.8924  MISS %: 36.1076  AVERAGE MISS PENALTY: 43.9344
L2C PREFETCH  ACCESS: 11845693  HIT: 1852705  MISS: 9992988  HIT %: 15.6403  MISS %: 84.3597  AVERAGE MISS PENALTY: 287.352
L2C WRITEBACK ACCESS: 22430  HIT: 21411  MISS:  1019  HIT %: 95.457  MISS %: 4.54302  AVERAGE MISS PENALTY: 0
L2C PREFETCH  REQUESTED: 20003987  ISSUED: 20003984  USEFUL: 192213  USELESS: 9803041
 USEFUL LOAD PREFETCHES:     192213 PREFETCH ISSUED TO LOWER LEVEL:   28641859  ACCURACY: 0.671091
 TIMELY PREFETCHES:     192213 LATE PREFETCHES: 4192322 DROPPED PREFETCHES: 3
L2C AVERAGE MISS LATENCY: 245.203 cycles

L2C Set Associative Eviction Count : 0
L2C Priority 0 entries : 0
L2C Inter-Core Interference : 0
LLC0 TOTAL     ACCESS: 1814049  HIT:  7430  MISS: 1806619  HIT %: 0.409581  MISS %: 99.5904  AVERAGE MISS PENALTY: 267.863
LLC0 LOAD      ACCESS: 229550  HIT:  1310  MISS: 228240  HIT %: 0.570682  MISS %: 99.4293  AVERAGE MISS PENALTY: 262.954
LLC0 RFO       ACCESS:   127  HIT:   124  MISS:     3  HIT %: 97.6378  MISS %: 2.3622  AVERAGE MISS PENALTY: 228.667
LLC0 PREFETCH  ACCESS: 1581680  HIT:  3328  MISS: 1578352  HIT %: 0.210409  MISS %: 99.7896  AVERAGE MISS PENALTY: 268.578
LLC0 WRITEBACK ACCESS:  2692  HIT:  2668  MISS:    24  HIT %: 99.1085  MISS %: 0.89153  AVERAGE MISS PENALTY: 0
LLC0 PREFETCH  REQUESTED:     0  ISSUED:     0  USEFUL:    12  USELESS:    25
 USEFUL LOAD PREFETCHES:         12 PREFETCH ISSUED TO LOWER LEVEL:   12665365  ACCURACY: 9.47466e-05
 TIMELY PREFETCHES:         12 LATE PREFETCHES: 0 DROPPED PREFETCHES: 0
LLC0 AVERAGE MISS LATENCY: 267.863 cycles

LLC0 Set Associative Eviction Count : 0
LLC0 Priority 0 entries : 12288
LLC0 Inter-Core Interference : 157
LLC1 TOTAL     ACCESS: 1815390  HIT:  7842  MISS: 1807548  HIT %: 0.431973  MISS %: 99.568  AVERAGE MISS PENALTY: 281.402
LLC1 LOAD      ACCESS: 15378  HIT:  1150  MISS: 14228  HIT %: 7.47822  MISS %: 92.5218  AVERAGE MISS PENALTY: 307.211
LLC1 RFO       ACCESS:    90  HIT:    88  MISS:     2  HIT %: 97.7778  MISS %: 2.22222  AVERAGE MISS PENALTY: 209.5
LLC1 PREFETCH  ACCESS: 1797124  HIT:  3833  MISS: 1793291  HIT %: 0.213285  MISS %: 99.7867  AVERAGE MISS PENALTY: 281.202
LLC1 WRITEBACK ACCESS:  2798  HIT:  2771  MISS:    27  HIT %: 99.035  MISS %: 0.964975  AVERAGE MISS PENALTY: 0
LLC1 PREFETCH  REQUESTED:     0  ISSUED:     0  USEFUL:    19  USELESS:    36
 USEFUL LOAD PREFETCHES:         19 PREFETCH ISSUED TO LOWER LEVEL:   14390530  ACCURACY: 0.000132031
 TIMELY PREFETCHES:         19 LATE PREFETCHES: 0 DROPPED PREFETCHES: 0
LLC1 AVERAGE MISS LATENCY: 281.402 cycles

LLC1 Set Associative Eviction Count : 0
LLC1 Priority 0 entries : 12288
LLC1 Inter-Core Interference : 177
LLC2 TOTAL     ACCESS: 1815622  HIT:  7625  MISS: 1807997  HIT %: 0.419966  MISS %: 99.58  AVERAGE MISS PENALTY: 266.416
LLC2 LOAD      ACCESS: 12127  HIT:  1174  MISS: 10953  HIT %: 9.68088  MISS %: 90.3191  AVERAGE MISS PENALTY: 301.1
LLC2 RFO       ACCESS:    55  HIT:    53  MISS:     2  HIT %: 96.3636  MISS %: 3.63636  AVERAGE MISS PENALTY: 382.5
LLC2 PREFETCH  ACCESS: 1800622  HIT:  3610  MISS: 1797012  HIT %: 0.200486  MISS %: 99.7995  AVERAGE MISS PENALTY: 266.209
LLC2 WRITEBACK ACCESS:  2818  HIT:  2788  MISS:    30  HIT %: 98.9354  MISS %: 1.06458  AVERAGE MISS PENALTY: 0
LLC2 PREFETCH  REQUESTED:     0  ISSUED:     0  USEFUL:    18  USELESS:    38
 USEFUL LOAD PREFETCHES:         18 PREFETCH ISSUED TO LOWER LEVEL:   14419626  ACCURACY: 0.00012483
 TIMELY PREFETCHES:         18 LATE PREFETCHES: 0 DROPPED PREFETCHES: 0
LLC2 AVERAGE MISS LATENCY: 266.416 cycles

LLC2 Set Associative Eviction Count : 0
LLC2 Priority 0 entries : 12288
LLC2 Inter-Core Interference : 175
LLC3 TOTAL     ACCESS: 1815489  HIT:  8494  MISS: 1806995  HIT %: 0.467863  MISS %: 99.5321  AVERAGE MISS PENALTY: 270.765
LLC3 LOAD      ACCESS: 12564  HIT:  1451  MISS: 11113  HIT %: 11.5489  MISS %: 88.4511  AVERAGE MISS PENALTY: 309.85
LLC3 RFO       ACCESS:    83  HIT:    81  MISS:     2  HIT %: 97.5904  MISS %: 2.40964  AVERAGE MISS PENALTY: 244
LLC3 PREFETCH  ACCESS: 1799954  HIT:  4103  MISS: 1795851  HIT %: 0.22795  MISS %: 99.772  AVERAGE MISS PENALTY: 270.528
LLC3 WRITEBACK ACCESS:  2888  HIT:  2859  MISS:    29  HIT %: 98.9958  MISS %: 1.00416  AVERAGE MISS PENALTY: 0
LLC3 PREFETCH  REQUESTED:     0  ISSUED:     0  USEFUL:    17  USELESS:    29
 USEFUL LOAD PREFETCHES:         17 PREFETCH ISSUED TO LOWER LEVEL:   14409905  ACCURACY: 0.000117974
 TIMELY PREFETCHES:         17 LATE PREFETCHES: 0 DROPPED PREFETCHES: 0
LLC3 AVERAGE MISS LATENCY: 270.765 cycles

LLC3 Set Associative Eviction Count : 0
LLC3 Priority 0 entries : 12288
LLC3 Inter-Core Interference : 175
LLC4 TOTAL     ACCESS: 1815239  HIT:  8384  MISS: 1806855  HIT %: 0.461868  MISS %: 99.5381  AVERAGE MISS PENALTY: 272.343
LLC4 LOAD      ACCESS: 12209  HIT:  1149  MISS: 11060  HIT %: 9.41109  MISS %: 90.5889  AVERAGE MISS PENALTY: 300.569
LLC4 RFO       ACCESS:    53  HIT:    53  MISS:     0  HIT %:   100  MISS %:     0  AVERAGE MISS PENALTY: 0
LLC4 PREFETCH  ACCESS: 1800253  HIT:  4486  MISS: 1795767  HIT %: 0.249187  MISS %: 99.7508  AVERAGE MISS PENALTY: 272.173
LLC4 WRITEBACK ACCESS:  2724  HIT:  2696  MISS:    28  HIT %: 98.9721  MISS %: 1.0279  AVERAGE MISS PENALTY: 0
LLC4 PREFETCH  REQUESTED:     0  ISSUED:     0  USEFUL:    25  USELESS:    36
 USEFUL LOAD PREFETCHES:         25 PREFETCH ISSUED TO LOWER LEVEL:   14409775  ACCURACY: 0.000173493
 TIMELY PREFETCHES:         25 LATE PREFETCHES: 0 DROPPED PREFETCHES: 0
LLC4 AVERAGE MISS LATENCY: 272.343 cycles

LLC4 Set Associative Eviction Count : 0
LLC4 Priority 0 entries : 12288
LLC4 Inter-Core Interference : 141
LLC5 TOTAL     ACCESS: 1815296  HIT:  8186  MISS: 1807110  HIT %: 0.450946  MISS %: 99.5491  AVERAGE MISS PENALTY: 273.346
LLC5 LOAD      ACCESS: 12201  HIT:  1275  MISS: 10926  HIT %: 10.45  MISS %: 89.55  AVERAGE MISS PENALTY: 300.973
LLC5 RFO       ACCESS:    55  HIT:    54  MISS:     1  HIT %: 98.1818  MISS %: 1.81818  AVERAGE MISS PENALTY: 28
LLC5 PREFETCH  ACCESS: 1800212  HIT:  4055  MISS: 1796157  HIT %: 0.225251  MISS %: 99.7747  AVERAGE MISS PENALTY: 273.182
LLC5 WRITEBACK ACCESS:  2828  HIT:  2802  MISS:    26  HIT %: 99.0806  MISS %: 0.919378  AVERAGE MISS PENALTY: 0
LLC5 PREFETCH  REQUESTED:     0  ISSUED:     0  USEFUL:    24  USELESS:    28
 USEFUL LOAD PREFETCHES:         24 PREFETCH ISSUED TO LOWER LEVEL:   14413415  ACCURACY: 0.000166512
 TIMELY PREFETCHES:         24 LATE PREFETCHES: 0 DROPPED PREFETCHES: 0
LLC5 AVERAGE MISS LATENCY: 273.346 cycles

LLC5 Set Associative Eviction Count : 0
LLC5 Priority 0 entries : 12288
LLC5 Inter-Core Interference : 150
LLC6 TOTAL     ACCESS: 1815004  HIT:  8018  MISS: 1806986  HIT %: 0.441762  MISS %: 99.5582  AVERAGE MISS PENALTY: 265.692
LLC6 LOAD      ACCESS: 12105  HIT:  1276  MISS: 10829  HIT %: 10.5411  MISS %: 89.4589  AVERAGE MISS PENALTY: 299.876
LLC6 RFO       ACCESS:    60  HIT:    59  MISS:     1  HIT %: 98.3333  MISS %: 1.66667  AVERAGE MISS PENALTY: 283
LLC6 PREFETCH  ACCESS: 1800085  HIT:  3952  MISS: 1796133  HIT %: 0.219545  MISS %: 99.7805  AVERAGE MISS PENALTY: 265.489
LLC6 WRITEBACK ACCESS:  2754  HIT:  2731  MISS:    23  HIT %: 99.1649  MISS %: 0.835149  AVERAGE MISS PENALTY: 0
LLC6 PREFETCH  REQUESTED:     0  ISSUED:     0  USEFUL:    39  USELESS:    31
 USEFUL LOAD PREFETCHES:         39 PREFETCH ISSUED TO LOWER LEVEL:   14412068  ACCURACY: 0.000270607
 TIMELY PREFETCHES:         39 LATE PREFETCHES: 0 DROPPED PREFETCHES: 0
LLC6 AVERAGE MISS LATENCY: 265.692 cycles

LLC6 Set Associative Eviction Count : 0
LLC6 Priority 0 entries : 12288
LLC6 Inter-Core Interference : 141
LLC7 TOTAL     ACCESS: 1815200  HIT:  8192  MISS: 1807008  HIT %: 0.4513  MISS %: 99.5487  AVERAGE MISS PENALTY: 262.755
LLC7 LOAD      ACCESS: 12221  HIT:  1235  MISS: 10986  HIT %: 10.1056  MISS %: 89.8944  AVERAGE MISS PENALTY: 303.617
LLC7 RFO       ACCESS:    41  HIT:    40  MISS:     1  HIT %: 97.561  MISS %: 2.43902  AVERAGE MISS PENALTY: 592
LLC7 PREFETCH  ACCESS: 1800048  HIT:  4054  MISS: 1795994  HIT %: 0.225216  MISS %: 99.7748  AVERAGE MISS PENALTY: 262.509
LLC7 WRITEBACK ACCESS:  2890  HIT:  2863  MISS:    27  HIT %: 99.0657  MISS %: 0.934256  AVERAGE MISS PENALTY: 0
LLC7 PREFETCH  REQUESTED:     0  ISSUED:     0  USEFUL:    35  USELESS:    30
 USEFUL LOAD PREFETCHES:         35 PREFETCH ISSUED TO LOWER LEVEL:   14411362  ACCURACY: 0.000242864
 TIMELY PREFETCHES:         35 LATE PREFETCHES: 0 DROPPED PREFETCHES: 0
LLC7 AVERAGE MISS LATENCY: 262.755 cycles

LLC7 Set Associative Eviction Count : 0
LLC7 Priority 0 entries : 12288
LLC7 Inter-Core Interference : 179
ROI Average ROB Stall Cycles:	11.4698
ROI Total ROB Stalls Cycles:	1074896155
ROI TOTAL ROB counter      :	93715046
ROI Average Load ROB Stall Cycles:	44.4575
ROI Total Load ROB Stalls Cycle  :	879726807
ROI Total Load ROB stalls Counter:	19788040
Major fault: 0 Minor fault: 48355








Interconnect Stats 
LINK 0 BW : 0LINK 1 BW : 0LINK 2 BW : 0LINK 3 BW : 0LINK 4 BW : 0LINK 5 BW : 0LINK 6 BW : 0LINK 7 BW : 0
DRAM Statistics
 CHANNEL 0
 RQ ROW_BUFFER_HIT: 24607234  ROW_BUFFER_MISS: 33393962
 DBUS_CONGESTED: 28813920
 WQ ROW_BUFFER_HIT:     5  ROW_BUFFER_MISS:   420  FULL:     0

 CHANNEL 1
 RQ ROW_BUFFER_HIT: 23335818  ROW_BUFFER_MISS: 34667940
 DBUS_CONGESTED: 28813920
 WQ ROW_BUFFER_HIT:     7  ROW_BUFFER_MISS:   486  FULL:     0

 AVG_CONGESTED_CYCLE: 4
DRAM PAGES: 2097152
Allocated PAGES: 386840
L2C destructor called
L1D destructor called
L1I destructor called
STLB destructor called
DTLB destructor called
ITLB destructor called
L2C destructor called
L1D destructor called
L1I destructor called
STLB destructor called
DTLB destructor called
ITLB destructor called
L2C destructor called
L1D destructor called
L1I destructor called
STLB destructor called
DTLB destructor called
ITLB destructor called
L2C destructor called
L1D destructor called
L1I destructor called
STLB destructor called
DTLB destructor called
ITLB destructor called
L2C destructor called
L1D destructor called
L1I destructor called
STLB destructor called
DTLB destructor called
ITLB destructor called
L2C destructor called
L1D destructor called
L1I destructor called
STLB destructor called
DTLB destructor called
ITLB destructor called
L2C destructor called
L1D destructor called
L1I destructor called
STLB destructor called
DTLB destructor called
ITLB destructor called
L2C destructor called
L1D destructor called
L1I destructor called
STLB destructor called
DTLB destructor called
ITLB destructor called
