
*** ChampSim Multicore Out-of-Order Simulator ***

Warmup Instructions: 200000000
Simulation Instructions: 200000000
Number of CPUs: 8
threads:1

L1I Configuration:
L1I_SET:64
L1I_WAY:8
L1I_RQ_SIZE:64
L1I_WQ_SIZE:64
L1I_PQ_SIZE:8
L1I_MSHR_SIZE:8

L1D Configuration:
L1D_SET:64
L1D_WAY:12
L1D_RQ_SIZE:64
L1D_WQ_SIZE:64
L1D_PQ_SIZE:8
L1D_MSHR_SIZE:16

L2C Configuration:
L2C_SET:1024
L2C_WAY:8
L2C_RQ_SIZE:32
L2C_WQ_SIZE:32
L2C_PQ_SIZE:16
L2C_MSHR_SIZE:32

LLC Configuration:
LLC_SET:2048
LLC_WAY:12
LLC SLICES:8
LLC_RQ_SIZE:64
LLC_WQ_SIZE:64
LLC_PQ_SIZE:32
LLC_MSHR_SIZE:64

Interconnect OFF
Attacker deprioritize is: OFF
Off-chip DRAM Size: 8192 MB Channels: 2 Width: 64-bit Data Rate: 3200 MT/s
PAGE SIZE in KB: 4.000000 
PAGE SIZE in MB: 0.003906 
PAGE offset in bits: 12 
CEASER-S_LLC:0
MIRAGE : 1
CEASER_LATENCY:3
REMAP : OFF
Partitions : 1
Multi-Step : OFF
BFS : OFF

CPU 0 runs /home/anubhav/spec_2017/603.bwaves_s-2931B.champsimtrace.xz
CPU 1 runs /home/anubhav/spec_2017/603.bwaves_s-2931B.champsimtrace.xz
CPU 2 runs /home/anubhav/spec_2017/603.bwaves_s-2931B.champsimtrace.xz
CPU 3 runs /home/anubhav/spec_2017/603.bwaves_s-2931B.champsimtrace.xz
CPU 4 runs /home/anubhav/spec_2017/603.bwaves_s-2931B.champsimtrace.xz
CPU 5 runs /home/anubhav/spec_2017/603.bwaves_s-2931B.champsimtrace.xz
CPU 6 runs /home/anubhav/spec_2017/603.bwaves_s-2931B.champsimtrace.xz
CPU 7 runs /home/anubhav/spec_2017/603.bwaves_s-2931B.champsimtrace.xz
CPU 0 Bimodal branch predictor
Initialize Hawkeye state
Initialize Hawkeye state
Initialize Hawkeye state
Initialize Hawkeye state
Initialize Hawkeye state
Initialize Hawkeye state
Initialize Hawkeye state
Initialize Hawkeye state
CPU 1 Bimodal branch predictor
Initialize Hawkeye state
Initialize Hawkeye state
Initialize Hawkeye state
Initialize Hawkeye state
Initialize Hawkeye state
Initialize Hawkeye state
Initialize Hawkeye state
Initialize Hawkeye state
CPU 2 Bimodal branch predictor
Initialize Hawkeye state
Initialize Hawkeye state
Initialize Hawkeye state
Initialize Hawkeye state
Initialize Hawkeye state
Initialize Hawkeye state
Initialize Hawkeye state
Initialize Hawkeye state
CPU 3 Bimodal branch predictor
Initialize Hawkeye state
Initialize Hawkeye state
Initialize Hawkeye state
Initialize Hawkeye state
Initialize Hawkeye state
Initialize Hawkeye state
Initialize Hawkeye state
Initialize Hawkeye state
CPU 4 Bimodal branch predictor
Initialize Hawkeye state
Initialize Hawkeye state
Initialize Hawkeye state
Initialize Hawkeye state
Initialize Hawkeye state
Initialize Hawkeye state
Initialize Hawkeye state
Initialize Hawkeye state
CPU 5 Bimodal branch predictor
Initialize Hawkeye state
Initialize Hawkeye state
Initialize Hawkeye state
Initialize Hawkeye state
Initialize Hawkeye state
Initialize Hawkeye state
Initialize Hawkeye state
Initialize Hawkeye state
CPU 6 Bimodal branch predictor
Initialize Hawkeye state
Initialize Hawkeye state
Initialize Hawkeye state
Initialize Hawkeye state
Initialize Hawkeye state
Initialize Hawkeye state
Initialize Hawkeye state
Initialize Hawkeye state
CPU 7 Bimodal branch predictor
Initialize Hawkeye state
Initialize Hawkeye state
Initialize Hawkeye state
Initialize Hawkeye state
Initialize Hawkeye state
Initialize Hawkeye state
Initialize Hawkeye state
Initialize Hawkeye state
FILL
Heartbeat CPU 3 instructions: 10000003 cycles: 4141003 heartbeat IPC: 2.41487 cumulative IPC: 2.41487 (Simulation time: 0 hr 40 min 42 sec) 
 Total Blocks : 196608 Invalid Blocks : 16415 Valid Blocks : 180193
 Total Tags : 491520 Threshold : 12288 Invalid Tags : 213024 Pr0 Tags : 98303 Pr1 Tags : 180193 num_pr0 : 12288
 SAE Count : 0
 Inter-Core Inteference in Data Store : 270746
Heartbeat CPU 5 instructions: 10000003 cycles: 4141011 heartbeat IPC: 2.41487 cumulative IPC: 2.41487 (Simulation time: 0 hr 40 min 42 sec) 
 Total Blocks : 196608 Invalid Blocks : 16415 Valid Blocks : 180193
 Total Tags : 491520 Threshold : 12288 Invalid Tags : 213025 Pr0 Tags : 98302 Pr1 Tags : 180193 num_pr0 : 12287
 SAE Count : 0
 Inter-Core Inteference in Data Store : 270747
Heartbeat CPU 1 instructions: 10000003 cycles: 4141053 heartbeat IPC: 2.41485 cumulative IPC: 2.41485 (Simulation time: 0 hr 40 min 42 sec) 
 Total Blocks : 196608 Invalid Blocks : 16414 Valid Blocks : 180194
 Total Tags : 491520 Threshold : 12288 Invalid Tags : 213022 Pr0 Tags : 98304 Pr1 Tags : 180194 num_pr0 : 12288
 SAE Count : 0
 Inter-Core Inteference in Data Store : 270754
Heartbeat CPU 7 instructions: 10000003 cycles: 4141069 heartbeat IPC: 2.41484 cumulative IPC: 2.41484 (Simulation time: 0 hr 40 min 42 sec) 
 Total Blocks : 196608 Invalid Blocks : 16414 Valid Blocks : 180194
 Total Tags : 491520 Threshold : 12288 Invalid Tags : 213022 Pr0 Tags : 98304 Pr1 Tags : 180194 num_pr0 : 12288
 SAE Count : 0
 Inter-Core Inteference in Data Store : 270757
Heartbeat CPU 0 instructions: 10000003 cycles: 4141108 heartbeat IPC: 2.41481 cumulative IPC: 2.41481 (Simulation time: 0 hr 40 min 42 sec) 
 Total Blocks : 196608 Invalid Blocks : 16413 Valid Blocks : 180195
 Total Tags : 491520 Threshold : 12288 Invalid Tags : 213021 Pr0 Tags : 98304 Pr1 Tags : 180195 num_pr0 : 12288
 SAE Count : 0
 Inter-Core Inteference in Data Store : 270764
Heartbeat CPU 2 instructions: 10000003 cycles: 4141123 heartbeat IPC: 2.4148 cumulative IPC: 2.4148 (Simulation time: 0 hr 40 min 42 sec) 
 Total Blocks : 196608 Invalid Blocks : 16411 Valid Blocks : 180197
 Total Tags : 491520 Threshold : 12288 Invalid Tags : 213020 Pr0 Tags : 98303 Pr1 Tags : 180197 num_pr0 : 12288
 SAE Count : 0
 Inter-Core Inteference in Data Store : 270767
Heartbeat CPU 6 instructions: 10000003 cycles: 4141151 heartbeat IPC: 2.41479 cumulative IPC: 2.41479 (Simulation time: 0 hr 40 min 42 sec) 
 Total Blocks : 196608 Invalid Blocks : 16411 Valid Blocks : 180197
 Total Tags : 491520 Threshold : 12288 Invalid Tags : 213021 Pr0 Tags : 98302 Pr1 Tags : 180197 num_pr0 : 12288
 SAE Count : 0
 Inter-Core Inteference in Data Store : 270773
Heartbeat CPU 4 instructions: 10000003 cycles: 4141183 heartbeat IPC: 2.41477 cumulative IPC: 2.41477 (Simulation time: 0 hr 40 min 42 sec) 
 Total Blocks : 196608 Invalid Blocks : 16411 Valid Blocks : 180197
 Total Tags : 491520 Threshold : 12288 Invalid Tags : 213020 Pr0 Tags : 98303 Pr1 Tags : 180197 num_pr0 : 12288
 SAE Count : 0
 Inter-Core Inteference in Data Store : 270775
Heartbeat CPU 3 instructions: 20000002 cycles: 8281551 heartbeat IPC: 2.41514 cumulative IPC: 2.41501 (Simulation time: 1 hr 27 min 3 sec) 
 Total Blocks : 196608 Invalid Blocks : 1150 Valid Blocks : 195458
 Total Tags : 491520 Threshold : 12288 Invalid Tags : 197760 Pr0 Tags : 98302 Pr1 Tags : 195458 num_pr0 : 12287
 SAE Count : 0
 Inter-Core Inteference in Data Store : 708774
Heartbeat CPU 5 instructions: 20000002 cycles: 8281574 heartbeat IPC: 2.41513 cumulative IPC: 2.415 (Simulation time: 1 hr 27 min 3 sec) 
 Total Blocks : 196608 Invalid Blocks : 1150 Valid Blocks : 195458
 Total Tags : 491520 Threshold : 12288 Invalid Tags : 197759 Pr0 Tags : 98303 Pr1 Tags : 195458 num_pr0 : 12288
 SAE Count : 0
 Inter-Core Inteference in Data Store : 708774
Heartbeat CPU 7 instructions: 20000002 cycles: 8281646 heartbeat IPC: 2.41512 cumulative IPC: 2.41498 (Simulation time: 1 hr 27 min 3 sec) 
 Total Blocks : 196608 Invalid Blocks : 1150 Valid Blocks : 195458
 Total Tags : 491520 Threshold : 12288 Invalid Tags : 197760 Pr0 Tags : 98302 Pr1 Tags : 195458 num_pr0 : 12288
 SAE Count : 0
 Inter-Core Inteference in Data Store : 708775
Heartbeat CPU 1 instructions: 20000002 cycles: 8281647 heartbeat IPC: 2.41511 cumulative IPC: 2.41498 (Simulation time: 1 hr 27 min 3 sec) 
 Total Blocks : 196608 Invalid Blocks : 1150 Valid Blocks : 195458
 Total Tags : 491520 Threshold : 12288 Invalid Tags : 197760 Pr0 Tags : 98302 Pr1 Tags : 195458 num_pr0 : 12288
 SAE Count : 0
 Inter-Core Inteference in Data Store : 708775
Heartbeat CPU 0 instructions: 20000002 cycles: 8281706 heartbeat IPC: 2.41511 cumulative IPC: 2.41496 (Simulation time: 1 hr 27 min 3 sec) 
 Total Blocks : 196608 Invalid Blocks : 1150 Valid Blocks : 195458
 Total Tags : 491520 Threshold : 12288 Invalid Tags : 197758 Pr0 Tags : 98304 Pr1 Tags : 195458 num_pr0 : 12288
 SAE Count : 0
 Inter-Core Inteference in Data Store : 708776
Heartbeat CPU 2 instructions: 20000002 cycles: 8281745 heartbeat IPC: 2.4151 cumulative IPC: 2.41495 (Simulation time: 1 hr 27 min 3 sec) 
 Total Blocks : 196608 Invalid Blocks : 1149 Valid Blocks : 195459
 Total Tags : 491520 Threshold : 12288 Invalid Tags : 197757 Pr0 Tags : 98304 Pr1 Tags : 195459 num_pr0 : 12288
 SAE Count : 0
 Inter-Core Inteference in Data Store : 708778
Heartbeat CPU 6 instructions: 20000002 cycles: 8281757 heartbeat IPC: 2.41511 cumulative IPC: 2.41495 (Simulation time: 1 hr 27 min 3 sec) 
 Total Blocks : 196608 Invalid Blocks : 1149 Valid Blocks : 195459
 Total Tags : 491520 Threshold : 12288 Invalid Tags : 197758 Pr0 Tags : 98303 Pr1 Tags : 195459 num_pr0 : 12288
 SAE Count : 0
 Inter-Core Inteference in Data Store : 708782
Heartbeat CPU 4 instructions: 20000002 cycles: 8281800 heartbeat IPC: 2.4151 cumulative IPC: 2.41493 (Simulation time: 1 hr 27 min 3 sec) 
 Total Blocks : 196608 Invalid Blocks : 1149 Valid Blocks : 195459
 Total Tags : 491520 Threshold : 12288 Invalid Tags : 197757 Pr0 Tags : 98304 Pr1 Tags : 195459 num_pr0 : 12288
 SAE Count : 0
 Inter-Core Inteference in Data Store : 708789
Heartbeat CPU 3 instructions: 30000001 cycles: 12422057 heartbeat IPC: 2.41516 cumulative IPC: 2.41506 (Simulation time: 2 hr 19 min 8 sec) 
 Total Blocks : 196608 Invalid Blocks : 72 Valid Blocks : 196536
 Total Tags : 491520 Threshold : 12288 Invalid Tags : 196680 Pr0 Tags : 98304 Pr1 Tags : 196536 num_pr0 : 12288
 SAE Count : 0
 Inter-Core Inteference in Data Store : 1156861
Heartbeat CPU 5 instructions: 30000001 cycles: 12422077 heartbeat IPC: 2.41517 cumulative IPC: 2.41506 (Simulation time: 2 hr 19 min 9 sec) 
 Total Blocks : 196608 Invalid Blocks : 72 Valid Blocks : 196536
 Total Tags : 491520 Threshold : 12288 Invalid Tags : 196680 Pr0 Tags : 98304 Pr1 Tags : 196536 num_pr0 : 12288
 SAE Count : 0
 Inter-Core Inteference in Data Store : 1156864
Heartbeat CPU 1 instructions: 30000001 cycles: 12422131 heartbeat IPC: 2.41518 cumulative IPC: 2.41504 (Simulation time: 2 hr 19 min 9 sec) 
 Total Blocks : 196608 Invalid Blocks : 72 Valid Blocks : 196536
 Total Tags : 491520 Threshold : 12288 Invalid Tags : 196680 Pr0 Tags : 98304 Pr1 Tags : 196536 num_pr0 : 12288
 SAE Count : 0
 Inter-Core Inteference in Data Store : 1156868
Heartbeat CPU 7 instructions: 30000001 cycles: 12422189 heartbeat IPC: 2.41514 cumulative IPC: 2.41503 (Simulation time: 2 hr 19 min 9 sec) 
 Total Blocks : 196608 Invalid Blocks : 72 Valid Blocks : 196536
 Total Tags : 491520 Threshold : 12288 Invalid Tags : 196680 Pr0 Tags : 98304 Pr1 Tags : 196536 num_pr0 : 12288
 SAE Count : 0
 Inter-Core Inteference in Data Store : 1156873
Heartbeat CPU 0 instructions: 30000001 cycles: 12422190 heartbeat IPC: 2.41518 cumulative IPC: 2.41503 (Simulation time: 2 hr 19 min 9 sec) 
 Total Blocks : 196608 Invalid Blocks : 72 Valid Blocks : 196536
 Total Tags : 491520 Threshold : 12288 Invalid Tags : 196680 Pr0 Tags : 98304 Pr1 Tags : 196536 num_pr0 : 12288
 SAE Count : 0
 Inter-Core Inteference in Data Store : 1156874
Heartbeat CPU 2 instructions: 30000001 cycles: 12422242 heartbeat IPC: 2.41517 cumulative IPC: 2.41502 (Simulation time: 2 hr 19 min 9 sec) 
 Total Blocks : 196608 Invalid Blocks : 72 Valid Blocks : 196536
 Total Tags : 491520 Threshold : 12288 Invalid Tags : 196680 Pr0 Tags : 98304 Pr1 Tags : 196536 num_pr0 : 12288
 SAE Count : 0
 Inter-Core Inteference in Data Store : 1156880
Heartbeat CPU 4 instructions: 30000001 cycles: 12422283 heartbeat IPC: 2.41518 cumulative IPC: 2.41501 (Simulation time: 2 hr 19 min 9 sec) 
 Total Blocks : 196608 Invalid Blocks : 72 Valid Blocks : 196536
 Total Tags : 491520 Threshold : 12288 Invalid Tags : 196680 Pr0 Tags : 98304 Pr1 Tags : 196536 num_pr0 : 12288
 SAE Count : 0
 Inter-Core Inteference in Data Store : 1156884
Heartbeat CPU 6 instructions: 30000001 cycles: 12422309 heartbeat IPC: 2.41514 cumulative IPC: 2.41501 (Simulation time: 2 hr 19 min 9 sec) 
 Total Blocks : 196608 Invalid Blocks : 72 Valid Blocks : 196536
 Total Tags : 491520 Threshold : 12288 Invalid Tags : 196680 Pr0 Tags : 98304 Pr1 Tags : 196536 num_pr0 : 12288
 SAE Count : 0
 Inter-Core Inteference in Data Store : 1156887
Heartbeat CPU 3 instructions: 40000002 cycles: 16562592 heartbeat IPC: 2.41515 cumulative IPC: 2.41508 (Simulation time: 3 hr 16 min 34 sec) 
 Total Blocks : 196608 Invalid Blocks : 5 Valid Blocks : 196603
 Total Tags : 491520 Threshold : 12288 Invalid Tags : 196616 Pr0 Tags : 98301 Pr1 Tags : 196603 num_pr0 : 12288
 SAE Count : 0
 Inter-Core Inteference in Data Store : 1608278
Heartbeat CPU 5 instructions: 40000002 cycles: 16562599 heartbeat IPC: 2.41515 cumulative IPC: 2.41508 (Simulation time: 3 hr 16 min 34 sec) 
 Total Blocks : 196608 Invalid Blocks : 5 Valid Blocks : 196603
 Total Tags : 491520 Threshold : 12288 Invalid Tags : 196616 Pr0 Tags : 98301 Pr1 Tags : 196603 num_pr0 : 12288
 SAE Count : 0
 Inter-Core Inteference in Data Store : 1608281
Heartbeat CPU 1 instructions: 40000002 cycles: 16562649 heartbeat IPC: 2.41516 cumulative IPC: 2.41507 (Simulation time: 3 hr 16 min 34 sec) 
 Total Blocks : 196608 Invalid Blocks : 5 Valid Blocks : 196603
 Total Tags : 491520 Threshold : 12288 Invalid Tags : 196616 Pr0 Tags : 98301 Pr1 Tags : 196603 num_pr0 : 12287
 SAE Count : 0
 Inter-Core Inteference in Data Store : 1608292
Heartbeat CPU 0 instructions: 40000002 cycles: 16562702 heartbeat IPC: 2.41516 cumulative IPC: 2.41507 (Simulation time: 3 hr 16 min 35 sec) 
 Total Blocks : 196608 Invalid Blocks : 5 Valid Blocks : 196603
 Total Tags : 491520 Threshold : 12288 Invalid Tags : 196616 Pr0 Tags : 98301 Pr1 Tags : 196603 num_pr0 : 12287
 SAE Count : 0
 Inter-Core Inteference in Data Store : 1608294
Heartbeat CPU 7 instructions: 40000002 cycles: 16562727 heartbeat IPC: 2.41515 cumulative IPC: 2.41506 (Simulation time: 3 hr 16 min 35 sec) 
 Total Blocks : 196608 Invalid Blocks : 5 Valid Blocks : 196603
 Total Tags : 491520 Threshold : 12288 Invalid Tags : 196615 Pr0 Tags : 98302 Pr1 Tags : 196603 num_pr0 : 12287
 SAE Count : 0
 Inter-Core Inteference in Data Store : 1608294
Heartbeat CPU 2 instructions: 40000002 cycles: 16562798 heartbeat IPC: 2.41513 cumulative IPC: 2.41505 (Simulation time: 3 hr 16 min 35 sec) 
 Total Blocks : 196608 Invalid Blocks : 5 Valid Blocks : 196603
 Total Tags : 491520 Threshold : 12288 Invalid Tags : 196616 Pr0 Tags : 98301 Pr1 Tags : 196603 num_pr0 : 12287
 SAE Count : 0
 Inter-Core Inteference in Data Store : 1608296
Heartbeat CPU 4 instructions: 40000002 cycles: 16562857 heartbeat IPC: 2.41512 cumulative IPC: 2.41504 (Simulation time: 3 hr 16 min 35 sec) 
 Total Blocks : 196608 Invalid Blocks : 5 Valid Blocks : 196603
 Total Tags : 491520 Threshold : 12288 Invalid Tags : 196615 Pr0 Tags : 98302 Pr1 Tags : 196603 num_pr0 : 12287
 SAE Count : 0
 Inter-Core Inteference in Data Store : 1608299
Heartbeat CPU 6 instructions: 40000002 cycles: 16562880 heartbeat IPC: 2.41513 cumulative IPC: 2.41504 (Simulation time: 3 hr 16 min 35 sec) 
 Total Blocks : 196608 Invalid Blocks : 5 Valid Blocks : 196603
 Total Tags : 491520 Threshold : 12288 Invalid Tags : 196615 Pr0 Tags : 98302 Pr1 Tags : 196603 num_pr0 : 12287
 SAE Count : 0
 Inter-Core Inteference in Data Store : 1608301
Heartbeat CPU 3 instructions: 50000001 cycles: 20702989 heartbeat IPC: 2.41523 cumulative IPC: 2.41511 (Simulation time: 4 hr 20 min 4 sec) 
 Total Blocks : 196608 Invalid Blocks : 0 Valid Blocks : 196608
 Total Tags : 491520 Threshold : 12288 Invalid Tags : 196608 Pr0 Tags : 98304 Pr1 Tags : 196608 num_pr0 : 12288
 SAE Count : 0
 Inter-Core Inteference in Data Store : 2062047
Heartbeat CPU 5 instructions: 50000001 cycles: 20703004 heartbeat IPC: 2.41522 cumulative IPC: 2.41511 (Simulation time: 4 hr 20 min 4 sec) 
 Total Blocks : 196608 Invalid Blocks : 0 Valid Blocks : 196608
 Total Tags : 491520 Threshold : 12288 Invalid Tags : 196608 Pr0 Tags : 98304 Pr1 Tags : 196608 num_pr0 : 12288
 SAE Count : 0
 Inter-Core Inteference in Data Store : 2062049
Heartbeat CPU 1 instructions: 50000001 cycles: 20703063 heartbeat IPC: 2.41522 cumulative IPC: 2.4151 (Simulation time: 4 hr 20 min 4 sec) 
 Total Blocks : 196608 Invalid Blocks : 0 Valid Blocks : 196608
 Total Tags : 491520 Threshold : 12288 Invalid Tags : 196608 Pr0 Tags : 98304 Pr1 Tags : 196608 num_pr0 : 12288
 SAE Count : 0
 Inter-Core Inteference in Data Store : 2062057
Heartbeat CPU 0 instructions: 50000001 cycles: 20703090 heartbeat IPC: 2.41523 cumulative IPC: 2.4151 (Simulation time: 4 hr 20 min 4 sec) 
 Total Blocks : 196608 Invalid Blocks : 0 Valid Blocks : 196608
 Total Tags : 491520 Threshold : 12288 Invalid Tags : 196608 Pr0 Tags : 98304 Pr1 Tags : 196608 num_pr0 : 12288
 SAE Count : 0
 Inter-Core Inteference in Data Store : 2062062
Heartbeat CPU 7 instructions: 50000001 cycles: 20703108 heartbeat IPC: 2.41524 cumulative IPC: 2.4151 (Simulation time: 4 hr 20 min 4 sec) 
 Total Blocks : 196608 Invalid Blocks : 0 Valid Blocks : 196608
 Total Tags : 491520 Threshold : 12288 Invalid Tags : 196608 Pr0 Tags : 98304 Pr1 Tags : 196608 num_pr0 : 12288
 SAE Count : 0
 Inter-Core Inteference in Data Store : 2062069
Heartbeat CPU 2 instructions: 50000001 cycles: 20703191 heartbeat IPC: 2.41523 cumulative IPC: 2.41509 (Simulation time: 4 hr 20 min 5 sec) 
 Total Blocks : 196608 Invalid Blocks : 0 Valid Blocks : 196608
 Total Tags : 491520 Threshold : 12288 Invalid Tags : 196608 Pr0 Tags : 98304 Pr1 Tags : 196608 num_pr0 : 12288
 SAE Count : 0
 Inter-Core Inteference in Data Store : 2062077
Heartbeat CPU 4 instructions: 50000001 cycles: 20703250 heartbeat IPC: 2.41523 cumulative IPC: 2.41508 (Simulation time: 4 hr 20 min 5 sec) 
 Total Blocks : 196608 Invalid Blocks : 0 Valid Blocks : 196608
 Total Tags : 491520 Threshold : 12288 Invalid Tags : 196608 Pr0 Tags : 98304 Pr1 Tags : 196608 num_pr0 : 12288
 SAE Count : 0
 Inter-Core Inteference in Data Store : 2062085
Heartbeat CPU 6 instructions: 50000001 cycles: 20703282 heartbeat IPC: 2.41522 cumulative IPC: 2.41508 (Simulation time: 4 hr 20 min 5 sec) 
 Total Blocks : 196608 Invalid Blocks : 0 Valid Blocks : 196608
 Total Tags : 491520 Threshold : 12288 Invalid Tags : 196608 Pr0 Tags : 98304 Pr1 Tags : 196608 num_pr0 : 12288
 SAE Count : 0
 Inter-Core Inteference in Data Store : 2062087
Heartbeat CPU 3 instructions: 60000002 cycles: 24843535 heartbeat IPC: 2.41514 cumulative IPC: 2.41512 (Simulation time: 5 hr 26 min 31 sec) 
 Total Blocks : 196608 Invalid Blocks : 0 Valid Blocks : 196608
 Total Tags : 491520 Threshold : 12288 Invalid Tags : 196609 Pr0 Tags : 98303 Pr1 Tags : 196608 num_pr0 : 12288
 SAE Count : 0
 Inter-Core Inteference in Data Store : 2503829
Heartbeat CPU 5 instructions: 60000002 cycles: 24843554 heartbeat IPC: 2.41514 cumulative IPC: 2.41511 (Simulation time: 5 hr 26 min 32 sec) 
 Total Blocks : 196608 Invalid Blocks : 0 Valid Blocks : 196608
 Total Tags : 491520 Threshold : 12288 Invalid Tags : 196609 Pr0 Tags : 98303 Pr1 Tags : 196608 num_pr0 : 12288
 SAE Count : 0
 Inter-Core Inteference in Data Store : 2503831
Heartbeat CPU 1 instructions: 60000002 cycles: 24843586 heartbeat IPC: 2.41515 cumulative IPC: 2.41511 (Simulation time: 5 hr 26 min 32 sec) 
 Total Blocks : 196608 Invalid Blocks : 0 Valid Blocks : 196608
 Total Tags : 491520 Threshold : 12288 Invalid Tags : 196609 Pr0 Tags : 98303 Pr1 Tags : 196608 num_pr0 : 12288
 SAE Count : 0
 Inter-Core Inteference in Data Store : 2503832
Heartbeat CPU 0 instructions: 60000002 cycles: 24843641 heartbeat IPC: 2.41514 cumulative IPC: 2.41511 (Simulation time: 5 hr 26 min 32 sec) 
 Total Blocks : 196608 Invalid Blocks : 0 Valid Blocks : 196608
 Total Tags : 491520 Threshold : 12288 Invalid Tags : 196609 Pr0 Tags : 98303 Pr1 Tags : 196608 num_pr0 : 12288
 SAE Count : 0
 Inter-Core Inteference in Data Store : 2503836
Heartbeat CPU 7 instructions: 60000002 cycles: 24843668 heartbeat IPC: 2.41513 cumulative IPC: 2.4151 (Simulation time: 5 hr 26 min 32 sec) 
 Total Blocks : 196608 Invalid Blocks : 0 Valid Blocks : 196608
 Total Tags : 491520 Threshold : 12288 Invalid Tags : 196609 Pr0 Tags : 98303 Pr1 Tags : 196608 num_pr0 : 12288
 SAE Count : 0
 Inter-Core Inteference in Data Store : 2503836
Heartbeat CPU 2 instructions: 60000002 cycles: 24843757 heartbeat IPC: 2.41513 cumulative IPC: 2.41509 (Simulation time: 5 hr 26 min 32 sec) 
 Total Blocks : 196608 Invalid Blocks : 0 Valid Blocks : 196608
 Total Tags : 491520 Threshold : 12288 Invalid Tags : 196609 Pr0 Tags : 98303 Pr1 Tags : 196608 num_pr0 : 12288
 SAE Count : 0
 Inter-Core Inteference in Data Store : 2503837
Heartbeat CPU 4 instructions: 60000002 cycles: 24843827 heartbeat IPC: 2.41512 cumulative IPC: 2.41509 (Simulation time: 5 hr 26 min 32 sec) 
 Total Blocks : 196608 Invalid Blocks : 0 Valid Blocks : 196608
 Total Tags : 491520 Threshold : 12288 Invalid Tags : 196610 Pr0 Tags : 98302 Pr1 Tags : 196608 num_pr0 : 12287
 SAE Count : 0
 Inter-Core Inteference in Data Store : 2503842
Heartbeat CPU 6 instructions: 60000002 cycles: 24843856 heartbeat IPC: 2.41512 cumulative IPC: 2.41508 (Simulation time: 5 hr 26 min 32 sec) 
 Total Blocks : 196608 Invalid Blocks : 0 Valid Blocks : 196608
 Total Tags : 491520 Threshold : 12288 Invalid Tags : 196611 Pr0 Tags : 98301 Pr1 Tags : 196608 num_pr0 : 12288
 SAE Count : 0
 Inter-Core Inteference in Data Store : 2503852
Heartbeat CPU 3 instructions: 70000001 cycles: 28983764 heartbeat IPC: 2.41533 cumulative IPC: 2.41515 (Simulation time: 6 hr 40 min 42 sec) 
 Total Blocks : 196608 Invalid Blocks : 0 Valid Blocks : 196608
 Total Tags : 491520 Threshold : 12288 Invalid Tags : 196609 Pr0 Tags : 98303 Pr1 Tags : 196608 num_pr0 : 12288
 SAE Count : 0
 Inter-Core Inteference in Data Store : 2945115
Heartbeat CPU 5 instructions: 70000001 cycles: 28983786 heartbeat IPC: 2.41532 cumulative IPC: 2.41514 (Simulation time: 6 hr 40 min 42 sec) 
 Total Blocks : 196608 Invalid Blocks : 0 Valid Blocks : 196608
 Total Tags : 491520 Threshold : 12288 Invalid Tags : 196609 Pr0 Tags : 98303 Pr1 Tags : 196608 num_pr0 : 12288
 SAE Count : 0
 Inter-Core Inteference in Data Store : 2945124
Heartbeat CPU 1 instructions: 70000001 cycles: 28983817 heartbeat IPC: 2.41532 cumulative IPC: 2.41514 (Simulation time: 6 hr 40 min 43 sec) 
 Total Blocks : 196608 Invalid Blocks : 0 Valid Blocks : 196608
 Total Tags : 491520 Threshold : 12288 Invalid Tags : 196608 Pr0 Tags : 98304 Pr1 Tags : 196608 num_pr0 : 12288
 SAE Count : 0
 Inter-Core Inteference in Data Store : 2945126
Heartbeat CPU 0 instructions: 70000001 cycles: 28983871 heartbeat IPC: 2.41532 cumulative IPC: 2.41514 (Simulation time: 6 hr 40 min 43 sec) 
 Total Blocks : 196608 Invalid Blocks : 0 Valid Blocks : 196608
 Total Tags : 491520 Threshold : 12288 Invalid Tags : 196608 Pr0 Tags : 98304 Pr1 Tags : 196608 num_pr0 : 12288
 SAE Count : 0
 Inter-Core Inteference in Data Store : 2945135
Heartbeat CPU 7 instructions: 70000001 cycles: 28983896 heartbeat IPC: 2.41533 cumulative IPC: 2.41513 (Simulation time: 6 hr 40 min 43 sec) 
 Total Blocks : 196608 Invalid Blocks : 0 Valid Blocks : 196608
 Total Tags : 491520 Threshold : 12288 Invalid Tags : 196609 Pr0 Tags : 98303 Pr1 Tags : 196608 num_pr0 : 12288
 SAE Count : 0
 Inter-Core Inteference in Data Store : 2945139
Heartbeat CPU 2 instructions: 70000001 cycles: 28983991 heartbeat IPC: 2.41532 cumulative IPC: 2.41513 (Simulation time: 6 hr 40 min 43 sec) 
 Total Blocks : 196608 Invalid Blocks : 0 Valid Blocks : 196608
 Total Tags : 491520 Threshold : 12288 Invalid Tags : 196611 Pr0 Tags : 98301 Pr1 Tags : 196608 num_pr0 : 12287
 SAE Count : 0
 Inter-Core Inteference in Data Store : 2945148
Heartbeat CPU 4 instructions: 70000001 cycles: 28984051 heartbeat IPC: 2.41533 cumulative IPC: 2.41512 (Simulation time: 6 hr 40 min 43 sec) 
 Total Blocks : 196608 Invalid Blocks : 0 Valid Blocks : 196608
 Total Tags : 491520 Threshold : 12288 Invalid Tags : 196612 Pr0 Tags : 98300 Pr1 Tags : 196608 num_pr0 : 12287
 SAE Count : 0
 Inter-Core Inteference in Data Store : 2945158
Heartbeat CPU 6 instructions: 70000001 cycles: 28984104 heartbeat IPC: 2.41531 cumulative IPC: 2.41512 (Simulation time: 6 hr 40 min 43 sec) 
 Total Blocks : 196608 Invalid Blocks : 0 Valid Blocks : 196608
 Total Tags : 491520 Threshold : 12288 Invalid Tags : 196611 Pr0 Tags : 98301 Pr1 Tags : 196608 num_pr0 : 12287
 SAE Count : 0
 Inter-Core Inteference in Data Store : 2945166
Heartbeat CPU 3 instructions: 80000002 cycles: 33124122 heartbeat IPC: 2.41525 cumulative IPC: 2.41516 (Simulation time: 8 hr 3 min 12 sec) 
 Total Blocks : 196608 Invalid Blocks : 0 Valid Blocks : 196608
 Total Tags : 491520 Threshold : 12288 Invalid Tags : 196608 Pr0 Tags : 98304 Pr1 Tags : 196608 num_pr0 : 12288
 SAE Count : 0
 Inter-Core Inteference in Data Store : 3384938
Heartbeat CPU 5 instructions: 80000002 cycles: 33124148 heartbeat IPC: 2.41525 cumulative IPC: 2.41516 (Simulation time: 8 hr 3 min 12 sec) 
 Total Blocks : 196608 Invalid Blocks : 0 Valid Blocks : 196608
 Total Tags : 491520 Threshold : 12288 Invalid Tags : 196608 Pr0 Tags : 98304 Pr1 Tags : 196608 num_pr0 : 12288
 SAE Count : 0
 Inter-Core Inteference in Data Store : 3384941
Heartbeat CPU 1 instructions: 80000002 cycles: 33124205 heartbeat IPC: 2.41523 cumulative IPC: 2.41515 (Simulation time: 8 hr 3 min 12 sec) 
 Total Blocks : 196608 Invalid Blocks : 0 Valid Blocks : 196608
 Total Tags : 491520 Threshold : 12288 Invalid Tags : 196608 Pr0 Tags : 98304 Pr1 Tags : 196608 num_pr0 : 12288
 SAE Count : 0
 Inter-Core Inteference in Data Store : 3384944
Heartbeat CPU 0 instructions: 80000002 cycles: 33124258 heartbeat IPC: 2.41523 cumulative IPC: 2.41515 (Simulation time: 8 hr 3 min 12 sec) 
 Total Blocks : 196608 Invalid Blocks : 0 Valid Blocks : 196608
 Total Tags : 491520 Threshold : 12288 Invalid Tags : 196608 Pr0 Tags : 98304 Pr1 Tags : 196608 num_pr0 : 12288
 SAE Count : 0
 Inter-Core Inteference in Data Store : 3384951
Heartbeat CPU 7 instructions: 80000002 cycles: 33124287 heartbeat IPC: 2.41523 cumulative IPC: 2.41515 (Simulation time: 8 hr 3 min 12 sec) 
 Total Blocks : 196608 Invalid Blocks : 0 Valid Blocks : 196608
 Total Tags : 491520 Threshold : 12288 Invalid Tags : 196608 Pr0 Tags : 98304 Pr1 Tags : 196608 num_pr0 : 12288
 SAE Count : 0
 Inter-Core Inteference in Data Store : 3384952
Heartbeat CPU 2 instructions: 80000002 cycles: 33124384 heartbeat IPC: 2.41523 cumulative IPC: 2.41514 (Simulation time: 8 hr 3 min 12 sec) 
 Total Blocks : 196608 Invalid Blocks : 0 Valid Blocks : 196608
 Total Tags : 491520 Threshold : 12288 Invalid Tags : 196609 Pr0 Tags : 98303 Pr1 Tags : 196608 num_pr0 : 12288
 SAE Count : 0
 Inter-Core Inteference in Data Store : 3384967
Heartbeat CPU 4 instructions: 80000002 cycles: 33124446 heartbeat IPC: 2.41523 cumulative IPC: 2.41513 (Simulation time: 8 hr 3 min 12 sec) 
 Total Blocks : 196608 Invalid Blocks : 0 Valid Blocks : 196608
 Total Tags : 491520 Threshold : 12288 Invalid Tags : 196608 Pr0 Tags : 98304 Pr1 Tags : 196608 num_pr0 : 12288
 SAE Count : 0
 Inter-Core Inteference in Data Store : 3384976
Heartbeat CPU 6 instructions: 80000002 cycles: 33124489 heartbeat IPC: 2.41523 cumulative IPC: 2.41513 (Simulation time: 8 hr 3 min 12 sec) 
 Total Blocks : 196608 Invalid Blocks : 0 Valid Blocks : 196608
 Total Tags : 491520 Threshold : 12288 Invalid Tags : 196609 Pr0 Tags : 98303 Pr1 Tags : 196608 num_pr0 : 12288
 SAE Count : 0
 Inter-Core Inteference in Data Store : 3384980
Heartbeat CPU 3 instructions: 90000002 cycles: 37264763 heartbeat IPC: 2.41509 cumulative IPC: 2.41515 (Simulation time: 9 hr 28 min 36 sec) 
 Total Blocks : 196608 Invalid Blocks : 0 Valid Blocks : 196608
 Total Tags : 491520 Threshold : 12288 Invalid Tags : 196608 Pr0 Tags : 98304 Pr1 Tags : 196608 num_pr0 : 12288
 SAE Count : 0
 Inter-Core Inteference in Data Store : 3825845
Heartbeat CPU 5 instructions: 90000002 cycles: 37264794 heartbeat IPC: 2.41508 cumulative IPC: 2.41515 (Simulation time: 9 hr 28 min 36 sec) 
 Total Blocks : 196608 Invalid Blocks : 0 Valid Blocks : 196608
 Total Tags : 491520 Threshold : 12288 Invalid Tags : 196608 Pr0 Tags : 98304 Pr1 Tags : 196608 num_pr0 : 12288
 SAE Count : 0
 Inter-Core Inteference in Data Store : 3825849
Heartbeat CPU 1 instructions: 90000002 cycles: 37264852 heartbeat IPC: 2.41508 cumulative IPC: 2.41514 (Simulation time: 9 hr 28 min 37 sec) 
 Total Blocks : 196608 Invalid Blocks : 0 Valid Blocks : 196608
 Total Tags : 491520 Threshold : 12288 Invalid Tags : 196608 Pr0 Tags : 98304 Pr1 Tags : 196608 num_pr0 : 12288
 SAE Count : 0
 Inter-Core Inteference in Data Store : 3825856
Heartbeat CPU 0 instructions: 90000002 cycles: 37264905 heartbeat IPC: 2.41508 cumulative IPC: 2.41514 (Simulation time: 9 hr 28 min 37 sec) 
 Total Blocks : 196608 Invalid Blocks : 0 Valid Blocks : 196608
 Total Tags : 491520 Threshold : 12288 Invalid Tags : 196608 Pr0 Tags : 98304 Pr1 Tags : 196608 num_pr0 : 12288
 SAE Count : 0
 Inter-Core Inteference in Data Store : 3825862
Heartbeat CPU 7 instructions: 90000002 cycles: 37264931 heartbeat IPC: 2.41508 cumulative IPC: 2.41514 (Simulation time: 9 hr 28 min 37 sec) 
 Total Blocks : 196608 Invalid Blocks : 0 Valid Blocks : 196608
 Total Tags : 491520 Threshold : 12288 Invalid Tags : 196609 Pr0 Tags : 98303 Pr1 Tags : 196608 num_pr0 : 12288
 SAE Count : 0
 Inter-Core Inteference in Data Store : 3825863
Heartbeat CPU 2 instructions: 90000002 cycles: 37265037 heartbeat IPC: 2.41508 cumulative IPC: 2.41513 (Simulation time: 9 hr 28 min 37 sec) 
 Total Blocks : 196608 Invalid Blocks : 0 Valid Blocks : 196608
 Total Tags : 491520 Threshold : 12288 Invalid Tags : 196609 Pr0 Tags : 98303 Pr1 Tags : 196608 num_pr0 : 12288
 SAE Count : 0
 Inter-Core Inteference in Data Store : 3825881
Heartbeat CPU 4 instructions: 90000002 cycles: 37265101 heartbeat IPC: 2.41508 cumulative IPC: 2.41513 (Simulation time: 9 hr 28 min 37 sec) 
 Total Blocks : 196608 Invalid Blocks : 0 Valid Blocks : 196608
 Total Tags : 491520 Threshold : 12288 Invalid Tags : 196609 Pr0 Tags : 98303 Pr1 Tags : 196608 num_pr0 : 12288
 SAE Count : 0
 Inter-Core Inteference in Data Store : 3825884
Heartbeat CPU 6 instructions: 90000002 cycles: 37265154 heartbeat IPC: 2.41507 cumulative IPC: 2.41512 (Simulation time: 9 hr 28 min 37 sec) 
 Total Blocks : 196608 Invalid Blocks : 0 Valid Blocks : 196608
 Total Tags : 491520 Threshold : 12288 Invalid Tags : 196609 Pr0 Tags : 98303 Pr1 Tags : 196608 num_pr0 : 12288
 SAE Count : 0
 Inter-Core Inteference in Data Store : 3825890
Heartbeat CPU 3 instructions: 100000001 cycles: 41405269 heartbeat IPC: 2.41516 cumulative IPC: 2.41515 (Simulation time: 10 hr 59 min 51 sec) 
 Total Blocks : 196608 Invalid Blocks : 0 Valid Blocks : 196608
 Total Tags : 491520 Threshold : 12288 Invalid Tags : 196608 Pr0 Tags : 98304 Pr1 Tags : 196608 num_pr0 : 12288
 SAE Count : 0
 Inter-Core Inteference in Data Store : 4267480
Heartbeat CPU 5 instructions: 100000001 cycles: 41405284 heartbeat IPC: 2.41517 cumulative IPC: 2.41515 (Simulation time: 10 hr 59 min 53 sec) 
 Total Blocks : 196608 Invalid Blocks : 0 Valid Blocks : 196608
 Total Tags : 491520 Threshold : 12288 Invalid Tags : 196608 Pr0 Tags : 98304 Pr1 Tags : 196608 num_pr0 : 12288
 SAE Count : 0
 Inter-Core Inteference in Data Store : 4267480
Heartbeat CPU 1 instructions: 100000001 cycles: 41405342 heartbeat IPC: 2.41517 cumulative IPC: 2.41515 (Simulation time: 10 hr 59 min 53 sec) 
 Total Blocks : 196608 Invalid Blocks : 0 Valid Blocks : 196608
 Total Tags : 491520 Threshold : 12288 Invalid Tags : 196609 Pr0 Tags : 98303 Pr1 Tags : 196608 num_pr0 : 12288
 SAE Count : 0
 Inter-Core Inteference in Data Store : 4267485
Heartbeat CPU 0 instructions: 100000001 cycles: 41405400 heartbeat IPC: 2.41517 cumulative IPC: 2.41514 (Simulation time: 10 hr 59 min 53 sec) 
 Total Blocks : 196608 Invalid Blocks : 0 Valid Blocks : 196608
 Total Tags : 491520 Threshold : 12288 Invalid Tags : 196609 Pr0 Tags : 98303 Pr1 Tags : 196608 num_pr0 : 12288
 SAE Count : 0
 Inter-Core Inteference in Data Store : 4267492
Heartbeat CPU 7 instructions: 100000001 cycles: 41405423 heartbeat IPC: 2.41517 cumulative IPC: 2.41514 (Simulation time: 10 hr 59 min 53 sec) 
 Total Blocks : 196608 Invalid Blocks : 0 Valid Blocks : 196608
 Total Tags : 491520 Threshold : 12288 Invalid Tags : 196609 Pr0 Tags : 98303 Pr1 Tags : 196608 num_pr0 : 12288
 SAE Count : 0
 Inter-Core Inteference in Data Store : 4267496
Heartbeat CPU 2 instructions: 100000001 cycles: 41405551 heartbeat IPC: 2.41516 cumulative IPC: 2.41514 (Simulation time: 10 hr 59 min 53 sec) 
 Total Blocks : 196608 Invalid Blocks : 0 Valid Blocks : 196608
 Total Tags : 491520 Threshold : 12288 Invalid Tags : 196608 Pr0 Tags : 98304 Pr1 Tags : 196608 num_pr0 : 12288
 SAE Count : 0
 Inter-Core Inteference in Data Store : 4267513
Heartbeat CPU 4 instructions: 100000001 cycles: 41405610 heartbeat IPC: 2.41516 cumulative IPC: 2.41513 (Simulation time: 10 hr 59 min 53 sec) 
 Total Blocks : 196608 Invalid Blocks : 0 Valid Blocks : 196608
 Total Tags : 491520 Threshold : 12288 Invalid Tags : 196608 Pr0 Tags : 98304 Pr1 Tags : 196608 num_pr0 : 12288
 SAE Count : 0
 Inter-Core Inteference in Data Store : 4267523
Heartbeat CPU 6 instructions: 100000001 cycles: 41405662 heartbeat IPC: 2.41516 cumulative IPC: 2.41513 (Simulation time: 10 hr 59 min 53 sec) 
 Total Blocks : 196608 Invalid Blocks : 0 Valid Blocks : 196608
 Total Tags : 491520 Threshold : 12288 Invalid Tags : 196608 Pr0 Tags : 98304 Pr1 Tags : 196608 num_pr0 : 12288
 SAE Count : 0
 Inter-Core Inteference in Data Store : 4267531
Heartbeat CPU 3 instructions: 110000000 cycles: 45545965 heartbeat IPC: 2.41505 cumulative IPC: 2.41514 (Simulation time: 12 hr 35 min 30 sec) 
 Total Blocks : 196608 Invalid Blocks : 0 Valid Blocks : 196608
 Total Tags : 491520 Threshold : 12288 Invalid Tags : 196608 Pr0 Tags : 98304 Pr1 Tags : 196608 num_pr0 : 12288
 SAE Count : 0
 Inter-Core Inteference in Data Store : 4711876
Heartbeat CPU 5 instructions: 110000000 cycles: 45546002 heartbeat IPC: 2.41504 cumulative IPC: 2.41514 (Simulation time: 12 hr 35 min 30 sec) 
 Total Blocks : 196608 Invalid Blocks : 0 Valid Blocks : 196608
 Total Tags : 491520 Threshold : 12288 Invalid Tags : 196609 Pr0 Tags : 98303 Pr1 Tags : 196608 num_pr0 : 12288
 SAE Count : 0
 Inter-Core Inteference in Data Store : 4711881
Heartbeat CPU 1 instructions: 110000000 cycles: 45546061 heartbeat IPC: 2.41504 cumulative IPC: 2.41514 (Simulation time: 12 hr 35 min 30 sec) 
 Total Blocks : 196608 Invalid Blocks : 0 Valid Blocks : 196608
 Total Tags : 491520 Threshold : 12288 Invalid Tags : 196609 Pr0 Tags : 98303 Pr1 Tags : 196608 num_pr0 : 12287
 SAE Count : 0
 Inter-Core Inteference in Data Store : 4711890
Heartbeat CPU 0 instructions: 110000000 cycles: 45546110 heartbeat IPC: 2.41504 cumulative IPC: 2.41513 (Simulation time: 12 hr 35 min 30 sec) 
 Total Blocks : 196608 Invalid Blocks : 0 Valid Blocks : 196608
 Total Tags : 491520 Threshold : 12288 Invalid Tags : 196609 Pr0 Tags : 98303 Pr1 Tags : 196608 num_pr0 : 12288
 SAE Count : 0
 Inter-Core Inteference in Data Store : 4711897
Heartbeat CPU 7 instructions: 110000000 cycles: 45546127 heartbeat IPC: 2.41505 cumulative IPC: 2.41513 (Simulation time: 12 hr 35 min 30 sec) 
 Total Blocks : 196608 Invalid Blocks : 0 Valid Blocks : 196608
 Total Tags : 491520 Threshold : 12288 Invalid Tags : 196609 Pr0 Tags : 98303 Pr1 Tags : 196608 num_pr0 : 12288
 SAE Count : 0
 Inter-Core Inteference in Data Store : 4711897
Heartbeat CPU 2 instructions: 110000000 cycles: 45546275 heartbeat IPC: 2.41504 cumulative IPC: 2.41513 (Simulation time: 12 hr 35 min 31 sec) 
 Total Blocks : 196608 Invalid Blocks : 0 Valid Blocks : 196608
 Total Tags : 491520 Threshold : 12288 Invalid Tags : 196608 Pr0 Tags : 98304 Pr1 Tags : 196608 num_pr0 : 12288
 SAE Count : 0
 Inter-Core Inteference in Data Store : 4711916
Heartbeat CPU 4 instructions: 110000000 cycles: 45546332 heartbeat IPC: 2.41504 cumulative IPC: 2.41512 (Simulation time: 12 hr 35 min 31 sec) 
 Total Blocks : 196608 Invalid Blocks : 0 Valid Blocks : 196608
 Total Tags : 491520 Threshold : 12288 Invalid Tags : 196608 Pr0 Tags : 98304 Pr1 Tags : 196608 num_pr0 : 12288
 SAE Count : 0
 Inter-Core Inteference in Data Store : 4711917
Heartbeat CPU 6 instructions: 110000000 cycles: 45546396 heartbeat IPC: 2.41503 cumulative IPC: 2.41512 (Simulation time: 12 hr 35 min 31 sec) 
 Total Blocks : 196608 Invalid Blocks : 0 Valid Blocks : 196608
 Total Tags : 491520 Threshold : 12288 Invalid Tags : 196609 Pr0 Tags : 98303 Pr1 Tags : 196608 num_pr0 : 12288
 SAE Count : 0
 Inter-Core Inteference in Data Store : 4711925
Heartbeat CPU 3 instructions: 120000000 cycles: 49686574 heartbeat IPC: 2.4151 cumulative IPC: 2.41514 (Simulation time: 14 hr 9 min 10 sec) 
 Total Blocks : 196608 Invalid Blocks : 0 Valid Blocks : 196608
 Total Tags : 491520 Threshold : 12288 Invalid Tags : 196609 Pr0 Tags : 98303 Pr1 Tags : 196608 num_pr0 : 12288
 SAE Count : 0
 Inter-Core Inteference in Data Store : 5160418
Heartbeat CPU 5 instructions: 120000000 cycles: 49686631 heartbeat IPC: 2.41509 cumulative IPC: 2.41514 (Simulation time: 14 hr 9 min 10 sec) 
 Total Blocks : 196608 Invalid Blocks : 0 Valid Blocks : 196608
 Total Tags : 491520 Threshold : 12288 Invalid Tags : 196609 Pr0 Tags : 98303 Pr1 Tags : 196608 num_pr0 : 12288
 SAE Count : 0
 Inter-Core Inteference in Data Store : 5160418
Heartbeat CPU 1 instructions: 120000000 cycles: 49686691 heartbeat IPC: 2.41509 cumulative IPC: 2.41513 (Simulation time: 14 hr 9 min 10 sec) 
 Total Blocks : 196608 Invalid Blocks : 0 Valid Blocks : 196608
 Total Tags : 491520 Threshold : 12288 Invalid Tags : 196608 Pr0 Tags : 98304 Pr1 Tags : 196608 num_pr0 : 12288
 SAE Count : 0
 Inter-Core Inteference in Data Store : 5160419
Heartbeat CPU 0 instructions: 120000000 cycles: 49686721 heartbeat IPC: 2.4151 cumulative IPC: 2.41513 (Simulation time: 14 hr 9 min 10 sec) 
 Total Blocks : 196608 Invalid Blocks : 0 Valid Blocks : 196608
 Total Tags : 491520 Threshold : 12288 Invalid Tags : 196608 Pr0 Tags : 98304 Pr1 Tags : 196608 num_pr0 : 12288
 SAE Count : 0
 Inter-Core Inteference in Data Store : 5160427
Heartbeat CPU 7 instructions: 120000000 cycles: 49686745 heartbeat IPC: 2.4151 cumulative IPC: 2.41513 (Simulation time: 14 hr 9 min 10 sec) 
 Total Blocks : 196608 Invalid Blocks : 0 Valid Blocks : 196608
 Total Tags : 491520 Threshold : 12288 Invalid Tags : 196609 Pr0 Tags : 98303 Pr1 Tags : 196608 num_pr0 : 12288
 SAE Count : 0
 Inter-Core Inteference in Data Store : 5160431
Heartbeat CPU 2 instructions: 120000000 cycles: 49686891 heartbeat IPC: 2.4151 cumulative IPC: 2.41512 (Simulation time: 14 hr 9 min 11 sec) 
 Total Blocks : 196608 Invalid Blocks : 0 Valid Blocks : 196608
 Total Tags : 491520 Threshold : 12288 Invalid Tags : 196610 Pr0 Tags : 98302 Pr1 Tags : 196608 num_pr0 : 12288
 SAE Count : 0
 Inter-Core Inteference in Data Store : 5160455
Heartbeat CPU 4 instructions: 120000000 cycles: 49686949 heartbeat IPC: 2.4151 cumulative IPC: 2.41512 (Simulation time: 14 hr 9 min 11 sec) 
 Total Blocks : 196608 Invalid Blocks : 0 Valid Blocks : 196608
 Total Tags : 491520 Threshold : 12288 Invalid Tags : 196610 Pr0 Tags : 98302 Pr1 Tags : 196608 num_pr0 : 12288
 SAE Count : 0
 Inter-Core Inteference in Data Store : 5160470
Heartbeat CPU 6 instructions: 120000000 cycles: 49687019 heartbeat IPC: 2.4151 cumulative IPC: 2.41512 (Simulation time: 14 hr 9 min 11 sec) 
 Total Blocks : 196608 Invalid Blocks : 0 Valid Blocks : 196608
 Total Tags : 491520 Threshold : 12288 Invalid Tags : 196609 Pr0 Tags : 98303 Pr1 Tags : 196608 num_pr0 : 12288
 SAE Count : 0
 Inter-Core Inteference in Data Store : 5160475
Heartbeat CPU 3 instructions: 130000003 cycles: 53827317 heartbeat IPC: 2.41503 cumulative IPC: 2.41513 (Simulation time: 15 hr 42 min 51 sec) 
 Total Blocks : 196608 Invalid Blocks : 0 Valid Blocks : 196608
 Total Tags : 491520 Threshold : 12288 Invalid Tags : 196608 Pr0 Tags : 98304 Pr1 Tags : 196608 num_pr0 : 12288
 SAE Count : 0
 Inter-Core Inteference in Data Store : 5604199
Heartbeat CPU 5 instructions: 130000003 cycles: 53827367 heartbeat IPC: 2.41503 cumulative IPC: 2.41513 (Simulation time: 15 hr 42 min 52 sec) 
 Total Blocks : 196608 Invalid Blocks : 0 Valid Blocks : 196608
 Total Tags : 491520 Threshold : 12288 Invalid Tags : 196608 Pr0 Tags : 98304 Pr1 Tags : 196608 num_pr0 : 12288
 SAE Count : 0
 Inter-Core Inteference in Data Store : 5604204
Heartbeat CPU 1 instructions: 130000003 cycles: 53827403 heartbeat IPC: 2.41504 cumulative IPC: 2.41513 (Simulation time: 15 hr 42 min 52 sec) 
 Total Blocks : 196608 Invalid Blocks : 0 Valid Blocks : 196608
 Total Tags : 491520 Threshold : 12288 Invalid Tags : 196608 Pr0 Tags : 98304 Pr1 Tags : 196608 num_pr0 : 12288
 SAE Count : 0
 Inter-Core Inteference in Data Store : 5604209
Heartbeat CPU 0 instructions: 130000003 cycles: 53827475 heartbeat IPC: 2.41502 cumulative IPC: 2.41512 (Simulation time: 15 hr 42 min 52 sec) 
 Total Blocks : 196608 Invalid Blocks : 0 Valid Blocks : 196608
 Total Tags : 491520 Threshold : 12288 Invalid Tags : 196608 Pr0 Tags : 98304 Pr1 Tags : 196608 num_pr0 : 12288
 SAE Count : 0
 Inter-Core Inteference in Data Store : 5604220
Heartbeat CPU 7 instructions: 130000003 cycles: 53827493 heartbeat IPC: 2.41502 cumulative IPC: 2.41512 (Simulation time: 15 hr 42 min 52 sec) 
 Total Blocks : 196608 Invalid Blocks : 0 Valid Blocks : 196608
 Total Tags : 491520 Threshold : 12288 Invalid Tags : 196609 Pr0 Tags : 98303 Pr1 Tags : 196608 num_pr0 : 12288
 SAE Count : 0
 Inter-Core Inteference in Data Store : 5604221
Heartbeat CPU 2 instructions: 130000003 cycles: 53827649 heartbeat IPC: 2.41502 cumulative IPC: 2.41512 (Simulation time: 15 hr 42 min 52 sec) 
 Total Blocks : 196608 Invalid Blocks : 0 Valid Blocks : 196608
 Total Tags : 491520 Threshold : 12288 Invalid Tags : 196608 Pr0 Tags : 98304 Pr1 Tags : 196608 num_pr0 : 12288
 SAE Count : 0
 Inter-Core Inteference in Data Store : 5604234
Heartbeat CPU 4 instructions: 130000003 cycles: 53827696 heartbeat IPC: 2.41502 cumulative IPC: 2.41511 (Simulation time: 15 hr 42 min 52 sec) 
 Total Blocks : 196608 Invalid Blocks : 0 Valid Blocks : 196608
 Total Tags : 491520 Threshold : 12288 Invalid Tags : 196608 Pr0 Tags : 98304 Pr1 Tags : 196608 num_pr0 : 12288
 SAE Count : 0
 Inter-Core Inteference in Data Store : 5604234
Heartbeat CPU 6 instructions: 130000003 cycles: 53827765 heartbeat IPC: 2.41502 cumulative IPC: 2.41511 (Simulation time: 15 hr 42 min 52 sec) 
 Total Blocks : 196608 Invalid Blocks : 0 Valid Blocks : 196608
 Total Tags : 491520 Threshold : 12288 Invalid Tags : 196608 Pr0 Tags : 98304 Pr1 Tags : 196608 num_pr0 : 12288
 SAE Count : 0
 Inter-Core Inteference in Data Store : 5604244
Heartbeat CPU 3 instructions: 140000001 cycles: 57968090 heartbeat IPC: 2.41501 cumulative IPC: 2.41512 (Simulation time: 17 hr 11 min 11 sec) 
 Total Blocks : 196608 Invalid Blocks : 0 Valid Blocks : 196608
 Total Tags : 491520 Threshold : 12288 Invalid Tags : 196609 Pr0 Tags : 98303 Pr1 Tags : 196608 num_pr0 : 12288
 SAE Count : 0
 Inter-Core Inteference in Data Store : 6050919
Heartbeat CPU 5 instructions: 140000001 cycles: 57968122 heartbeat IPC: 2.41502 cumulative IPC: 2.41512 (Simulation time: 17 hr 11 min 11 sec) 
 Total Blocks : 196608 Invalid Blocks : 0 Valid Blocks : 196608
 Total Tags : 491520 Threshold : 12288 Invalid Tags : 196609 Pr0 Tags : 98303 Pr1 Tags : 196608 num_pr0 : 12288
 SAE Count : 0
 Inter-Core Inteference in Data Store : 6050919
Heartbeat CPU 1 instructions: 140000001 cycles: 57968192 heartbeat IPC: 2.415 cumulative IPC: 2.41512 (Simulation time: 17 hr 11 min 11 sec) 
 Total Blocks : 196608 Invalid Blocks : 0 Valid Blocks : 196608
 Total Tags : 491520 Threshold : 12288 Invalid Tags : 196608 Pr0 Tags : 98304 Pr1 Tags : 196608 num_pr0 : 12288
 SAE Count : 0
 Inter-Core Inteference in Data Store : 6050922
Heartbeat CPU 0 instructions: 140000001 cycles: 57968268 heartbeat IPC: 2.415 cumulative IPC: 2.41511 (Simulation time: 17 hr 11 min 11 sec) 
 Total Blocks : 196608 Invalid Blocks : 0 Valid Blocks : 196608
 Total Tags : 491520 Threshold : 12288 Invalid Tags : 196608 Pr0 Tags : 98304 Pr1 Tags : 196608 num_pr0 : 12288
 SAE Count : 0
 Inter-Core Inteference in Data Store : 6050928
Heartbeat CPU 7 instructions: 140000001 cycles: 57968289 heartbeat IPC: 2.41499 cumulative IPC: 2.41511 (Simulation time: 17 hr 11 min 12 sec) 
 Total Blocks : 196608 Invalid Blocks : 0 Valid Blocks : 196608
 Total Tags : 491520 Threshold : 12288 Invalid Tags : 196608 Pr0 Tags : 98304 Pr1 Tags : 196608 num_pr0 : 12288
 SAE Count : 0
 Inter-Core Inteference in Data Store : 6050928
Heartbeat CPU 2 instructions: 140000001 cycles: 57968452 heartbeat IPC: 2.41499 cumulative IPC: 2.41511 (Simulation time: 17 hr 11 min 12 sec) 
 Total Blocks : 196608 Invalid Blocks : 0 Valid Blocks : 196608
 Total Tags : 491520 Threshold : 12288 Invalid Tags : 196610 Pr0 Tags : 98302 Pr1 Tags : 196608 num_pr0 : 12287
 SAE Count : 0
 Inter-Core Inteference in Data Store : 6050952
Heartbeat CPU 4 instructions: 140000001 cycles: 57968506 heartbeat IPC: 2.41499 cumulative IPC: 2.4151 (Simulation time: 17 hr 11 min 12 sec) 
 Total Blocks : 196608 Invalid Blocks : 0 Valid Blocks : 196608
 Total Tags : 491520 Threshold : 12288 Invalid Tags : 196609 Pr0 Tags : 98303 Pr1 Tags : 196608 num_pr0 : 12288
 SAE Count : 0
 Inter-Core Inteference in Data Store : 6050957
Heartbeat CPU 6 instructions: 140000001 cycles: 57968563 heartbeat IPC: 2.41499 cumulative IPC: 2.4151 (Simulation time: 17 hr 11 min 12 sec) 
 Total Blocks : 196608 Invalid Blocks : 0 Valid Blocks : 196608
 Total Tags : 491520 Threshold : 12288 Invalid Tags : 196610 Pr0 Tags : 98302 Pr1 Tags : 196608 num_pr0 : 12287
 SAE Count : 0
 Inter-Core Inteference in Data Store : 6050959
Heartbeat CPU 3 instructions: 150000001 cycles: 62108331 heartbeat IPC: 2.41532 cumulative IPC: 2.41513 (Simulation time: 18 hr 35 min 58 sec) 
 Total Blocks : 196608 Invalid Blocks : 0 Valid Blocks : 196608
 Total Tags : 491520 Threshold : 12288 Invalid Tags : 196609 Pr0 Tags : 98303 Pr1 Tags : 196608 num_pr0 : 12288
 SAE Count : 0
 Inter-Core Inteference in Data Store : 6495947
Heartbeat CPU 5 instructions: 150000001 cycles: 62108377 heartbeat IPC: 2.41531 cumulative IPC: 2.41513 (Simulation time: 18 hr 35 min 59 sec) 
 Total Blocks : 196608 Invalid Blocks : 0 Valid Blocks : 196608
 Total Tags : 491520 Threshold : 12288 Invalid Tags : 196611 Pr0 Tags : 98301 Pr1 Tags : 196608 num_pr0 : 12287
 SAE Count : 0
 Inter-Core Inteference in Data Store : 6495955
Heartbeat CPU 1 instructions: 150000001 cycles: 62108434 heartbeat IPC: 2.41532 cumulative IPC: 2.41513 (Simulation time: 18 hr 35 min 59 sec) 
 Total Blocks : 196608 Invalid Blocks : 0 Valid Blocks : 196608
 Total Tags : 491520 Threshold : 12288 Invalid Tags : 196609 Pr0 Tags : 98303 Pr1 Tags : 196608 num_pr0 : 12288
 SAE Count : 0
 Inter-Core Inteference in Data Store : 6495968
Heartbeat CPU 0 instructions: 150000001 cycles: 62108507 heartbeat IPC: 2.41532 cumulative IPC: 2.41513 (Simulation time: 18 hr 35 min 59 sec) 
 Total Blocks : 196608 Invalid Blocks : 0 Valid Blocks : 196608
 Total Tags : 491520 Threshold : 12288 Invalid Tags : 196609 Pr0 Tags : 98303 Pr1 Tags : 196608 num_pr0 : 12288
 SAE Count : 0
 Inter-Core Inteference in Data Store : 6495977
Heartbeat CPU 7 instructions: 150000001 cycles: 62108533 heartbeat IPC: 2.41532 cumulative IPC: 2.41513 (Simulation time: 18 hr 35 min 59 sec) 
 Total Blocks : 196608 Invalid Blocks : 0 Valid Blocks : 196608
 Total Tags : 491520 Threshold : 12288 Invalid Tags : 196609 Pr0 Tags : 98303 Pr1 Tags : 196608 num_pr0 : 12288
 SAE Count : 0
 Inter-Core Inteference in Data Store : 6495979
Heartbeat CPU 2 instructions: 150000001 cycles: 62108694 heartbeat IPC: 2.41532 cumulative IPC: 2.41512 (Simulation time: 18 hr 35 min 59 sec) 
 Total Blocks : 196608 Invalid Blocks : 0 Valid Blocks : 196608
 Total Tags : 491520 Threshold : 12288 Invalid Tags : 196609 Pr0 Tags : 98303 Pr1 Tags : 196608 num_pr0 : 12287
 SAE Count : 0
 Inter-Core Inteference in Data Store : 6495991
Heartbeat CPU 4 instructions: 150000001 cycles: 62108755 heartbeat IPC: 2.41531 cumulative IPC: 2.41512 (Simulation time: 18 hr 35 min 59 sec) 
 Total Blocks : 196608 Invalid Blocks : 0 Valid Blocks : 196608
 Total Tags : 491520 Threshold : 12288 Invalid Tags : 196610 Pr0 Tags : 98302 Pr1 Tags : 196608 num_pr0 : 12288
 SAE Count : 0
 Inter-Core Inteference in Data Store : 6495998
Heartbeat CPU 6 instructions: 150000001 cycles: 62108808 heartbeat IPC: 2.41532 cumulative IPC: 2.41512 (Simulation time: 18 hr 35 min 59 sec) 
 Total Blocks : 196608 Invalid Blocks : 0 Valid Blocks : 196608
 Total Tags : 491520 Threshold : 12288 Invalid Tags : 196608 Pr0 Tags : 98304 Pr1 Tags : 196608 num_pr0 : 12288
 SAE Count : 0
 Inter-Core Inteference in Data Store : 6496003
Heartbeat CPU 3 instructions: 160000000 cycles: 66248930 heartbeat IPC: 2.41511 cumulative IPC: 2.41513 (Simulation time: 19 hr 56 min 7 sec) 
 Total Blocks : 196608 Invalid Blocks : 0 Valid Blocks : 196608
 Total Tags : 491520 Threshold : 12288 Invalid Tags : 196608 Pr0 Tags : 98304 Pr1 Tags : 196608 num_pr0 : 12288
 SAE Count : 0
 Inter-Core Inteference in Data Store : 6941673
Heartbeat CPU 5 instructions: 160000000 cycles: 66248990 heartbeat IPC: 2.4151 cumulative IPC: 2.41513 (Simulation time: 19 hr 56 min 7 sec) 
 Total Blocks : 196608 Invalid Blocks : 0 Valid Blocks : 196608
 Total Tags : 491520 Threshold : 12288 Invalid Tags : 196608 Pr0 Tags : 98304 Pr1 Tags : 196608 num_pr0 : 12288
 SAE Count : 0
 Inter-Core Inteference in Data Store : 6941685
Heartbeat CPU 1 instructions: 160000000 cycles: 66249026 heartbeat IPC: 2.41511 cumulative IPC: 2.41513 (Simulation time: 19 hr 56 min 8 sec) 
 Total Blocks : 196608 Invalid Blocks : 0 Valid Blocks : 196608
 Total Tags : 491520 Threshold : 12288 Invalid Tags : 196608 Pr0 Tags : 98304 Pr1 Tags : 196608 num_pr0 : 12288
 SAE Count : 0
 Inter-Core Inteference in Data Store : 6941685
Heartbeat CPU 0 instructions: 160000000 cycles: 66249116 heartbeat IPC: 2.4151 cumulative IPC: 2.41513 (Simulation time: 19 hr 56 min 8 sec) 
 Total Blocks : 196608 Invalid Blocks : 0 Valid Blocks : 196608
 Total Tags : 491520 Threshold : 12288 Invalid Tags : 196609 Pr0 Tags : 98303 Pr1 Tags : 196608 num_pr0 : 12288
 SAE Count : 0
 Inter-Core Inteference in Data Store : 6941687
Heartbeat CPU 7 instructions: 160000000 cycles: 66249142 heartbeat IPC: 2.4151 cumulative IPC: 2.41513 (Simulation time: 19 hr 56 min 8 sec) 
 Total Blocks : 196608 Invalid Blocks : 0 Valid Blocks : 196608
 Total Tags : 491520 Threshold : 12288 Invalid Tags : 196609 Pr0 Tags : 98303 Pr1 Tags : 196608 num_pr0 : 12288
 SAE Count : 0
 Inter-Core Inteference in Data Store : 6941693
Heartbeat CPU 2 instructions: 160000000 cycles: 66249296 heartbeat IPC: 2.41511 cumulative IPC: 2.41512 (Simulation time: 19 hr 56 min 8 sec) 
 Total Blocks : 196608 Invalid Blocks : 0 Valid Blocks : 196608
 Total Tags : 491520 Threshold : 12288 Invalid Tags : 196608 Pr0 Tags : 98304 Pr1 Tags : 196608 num_pr0 : 12288
 SAE Count : 0
 Inter-Core Inteference in Data Store : 6941716
Heartbeat CPU 4 instructions: 160000000 cycles: 66249352 heartbeat IPC: 2.41511 cumulative IPC: 2.41512 (Simulation time: 19 hr 56 min 8 sec) 
 Total Blocks : 196608 Invalid Blocks : 0 Valid Blocks : 196608
 Total Tags : 491520 Threshold : 12288 Invalid Tags : 196609 Pr0 Tags : 98303 Pr1 Tags : 196608 num_pr0 : 12288
 SAE Count : 0
 Inter-Core Inteference in Data Store : 6941725
Heartbeat CPU 6 instructions: 160000000 cycles: 66249422 heartbeat IPC: 2.4151 cumulative IPC: 2.41512 (Simulation time: 19 hr 56 min 8 sec) 
 Total Blocks : 196608 Invalid Blocks : 0 Valid Blocks : 196608
 Total Tags : 491520 Threshold : 12288 Invalid Tags : 196608 Pr0 Tags : 98304 Pr1 Tags : 196608 num_pr0 : 12288
 SAE Count : 0
 Inter-Core Inteference in Data Store : 6941728
Heartbeat CPU 3 instructions: 170000003 cycles: 70389302 heartbeat IPC: 2.41524 cumulative IPC: 2.41514 (Simulation time: 21 hr 17 min 44 sec) 
 Total Blocks : 196608 Invalid Blocks : 0 Valid Blocks : 196608
 Total Tags : 491520 Threshold : 12288 Invalid Tags : 196609 Pr0 Tags : 98303 Pr1 Tags : 196608 num_pr0 : 12288
 SAE Count : 0
 Inter-Core Inteference in Data Store : 7386853
Heartbeat CPU 5 instructions: 170000003 cycles: 70389315 heartbeat IPC: 2.41527 cumulative IPC: 2.41514 (Simulation time: 21 hr 17 min 44 sec) 
 Total Blocks : 196608 Invalid Blocks : 0 Valid Blocks : 196608
 Total Tags : 491520 Threshold : 12288 Invalid Tags : 196609 Pr0 Tags : 98303 Pr1 Tags : 196608 num_pr0 : 12288
 SAE Count : 0
 Inter-Core Inteference in Data Store : 7386853
Heartbeat CPU 1 instructions: 170000003 cycles: 70389399 heartbeat IPC: 2.41524 cumulative IPC: 2.41514 (Simulation time: 21 hr 17 min 44 sec) 
 Total Blocks : 196608 Invalid Blocks : 0 Valid Blocks : 196608
 Total Tags : 491520 Threshold : 12288 Invalid Tags : 196610 Pr0 Tags : 98302 Pr1 Tags : 196608 num_pr0 : 12288
 SAE Count : 0
 Inter-Core Inteference in Data Store : 7386868
Heartbeat CPU 0 instructions: 170000003 cycles: 70389492 heartbeat IPC: 2.41524 cumulative IPC: 2.41513 (Simulation time: 21 hr 17 min 44 sec) 
 Total Blocks : 196608 Invalid Blocks : 0 Valid Blocks : 196608
 Total Tags : 491520 Threshold : 12288 Invalid Tags : 196609 Pr0 Tags : 98303 Pr1 Tags : 196608 num_pr0 : 12288
 SAE Count : 0
 Inter-Core Inteference in Data Store : 7386879
Heartbeat CPU 7 instructions: 170000003 cycles: 70389513 heartbeat IPC: 2.41524 cumulative IPC: 2.41513 (Simulation time: 21 hr 17 min 44 sec) 
 Total Blocks : 196608 Invalid Blocks : 0 Valid Blocks : 196608
 Total Tags : 491520 Threshold : 12288 Invalid Tags : 196609 Pr0 Tags : 98303 Pr1 Tags : 196608 num_pr0 : 12288
 SAE Count : 0
 Inter-Core Inteference in Data Store : 7386882
Heartbeat CPU 2 instructions: 170000003 cycles: 70389669 heartbeat IPC: 2.41524 cumulative IPC: 2.41513 (Simulation time: 21 hr 17 min 44 sec) 
 Total Blocks : 196608 Invalid Blocks : 0 Valid Blocks : 196608
 Total Tags : 491520 Threshold : 12288 Invalid Tags : 196608 Pr0 Tags : 98304 Pr1 Tags : 196608 num_pr0 : 12288
 SAE Count : 0
 Inter-Core Inteference in Data Store : 7386897
Heartbeat CPU 4 instructions: 170000003 cycles: 70389723 heartbeat IPC: 2.41524 cumulative IPC: 2.41513 (Simulation time: 21 hr 17 min 44 sec) 
 Total Blocks : 196608 Invalid Blocks : 0 Valid Blocks : 196608
 Total Tags : 491520 Threshold : 12288 Invalid Tags : 196608 Pr0 Tags : 98304 Pr1 Tags : 196608 num_pr0 : 12288
 SAE Count : 0
 Inter-Core Inteference in Data Store : 7386899
Heartbeat CPU 6 instructions: 170000003 cycles: 70389778 heartbeat IPC: 2.41525 cumulative IPC: 2.41512 (Simulation time: 21 hr 17 min 44 sec) 
 Total Blocks : 196608 Invalid Blocks : 0 Valid Blocks : 196608
 Total Tags : 491520 Threshold : 12288 Invalid Tags : 196609 Pr0 Tags : 98303 Pr1 Tags : 196608 num_pr0 : 12288
 SAE Count : 0
 Inter-Core Inteference in Data Store : 7386909
Heartbeat CPU 3 instructions: 180000001 cycles: 74529896 heartbeat IPC: 2.41511 cumulative IPC: 2.41514 (Simulation time: 22 hr 43 min 35 sec) 
 Total Blocks : 196608 Invalid Blocks : 0 Valid Blocks : 196608
 Total Tags : 491520 Threshold : 12288 Invalid Tags : 196608 Pr0 Tags : 98304 Pr1 Tags : 196608 num_pr0 : 12288
 SAE Count : 0
 Inter-Core Inteference in Data Store : 7828657
Heartbeat CPU 5 instructions: 180000001 cycles: 74529911 heartbeat IPC: 2.41511 cumulative IPC: 2.41514 (Simulation time: 22 hr 43 min 35 sec) 
 Total Blocks : 196608 Invalid Blocks : 0 Valid Blocks : 196608
 Total Tags : 491520 Threshold : 12288 Invalid Tags : 196608 Pr0 Tags : 98304 Pr1 Tags : 196608 num_pr0 : 12288
 SAE Count : 0
 Inter-Core Inteference in Data Store : 7828659
Heartbeat CPU 1 instructions: 180000001 cycles: 74530001 heartbeat IPC: 2.41511 cumulative IPC: 2.41513 (Simulation time: 22 hr 43 min 35 sec) 
 Total Blocks : 196608 Invalid Blocks : 0 Valid Blocks : 196608
 Total Tags : 491520 Threshold : 12288 Invalid Tags : 196609 Pr0 Tags : 98303 Pr1 Tags : 196608 num_pr0 : 12287
 SAE Count : 0
 Inter-Core Inteference in Data Store : 7828666
Heartbeat CPU 0 instructions: 180000001 cycles: 74530091 heartbeat IPC: 2.41511 cumulative IPC: 2.41513 (Simulation time: 22 hr 43 min 36 sec) 
 Total Blocks : 196608 Invalid Blocks : 0 Valid Blocks : 196608
 Total Tags : 491520 Threshold : 12288 Invalid Tags : 196608 Pr0 Tags : 98304 Pr1 Tags : 196608 num_pr0 : 12288
 SAE Count : 0
 Inter-Core Inteference in Data Store : 7828677
Heartbeat CPU 7 instructions: 180000001 cycles: 74530114 heartbeat IPC: 2.41511 cumulative IPC: 2.41513 (Simulation time: 22 hr 43 min 36 sec) 
 Total Blocks : 196608 Invalid Blocks : 0 Valid Blocks : 196608
 Total Tags : 491520 Threshold : 12288 Invalid Tags : 196608 Pr0 Tags : 98304 Pr1 Tags : 196608 num_pr0 : 12288
 SAE Count : 0
 Inter-Core Inteference in Data Store : 7828677
Heartbeat CPU 2 instructions: 180000001 cycles: 74530268 heartbeat IPC: 2.41511 cumulative IPC: 2.41513 (Simulation time: 22 hr 43 min 36 sec) 
 Total Blocks : 196608 Invalid Blocks : 0 Valid Blocks : 196608
 Total Tags : 491520 Threshold : 12288 Invalid Tags : 196609 Pr0 Tags : 98303 Pr1 Tags : 196608 num_pr0 : 12288
 SAE Count : 0
 Inter-Core Inteference in Data Store : 7828688
Heartbeat CPU 4 instructions: 180000001 cycles: 74530327 heartbeat IPC: 2.41511 cumulative IPC: 2.41512 (Simulation time: 22 hr 43 min 36 sec) 
 Total Blocks : 196608 Invalid Blocks : 0 Valid Blocks : 196608
 Total Tags : 491520 Threshold : 12288 Invalid Tags : 196609 Pr0 Tags : 98303 Pr1 Tags : 196608 num_pr0 : 12288
 SAE Count : 0
 Inter-Core Inteference in Data Store : 7828702
Heartbeat CPU 6 instructions: 180000001 cycles: 74530391 heartbeat IPC: 2.4151 cumulative IPC: 2.41512 (Simulation time: 22 hr 43 min 36 sec) 
 Total Blocks : 196608 Invalid Blocks : 0 Valid Blocks : 196608
 Total Tags : 491520 Threshold : 12288 Invalid Tags : 196608 Pr0 Tags : 98304 Pr1 Tags : 196608 num_pr0 : 12288
 SAE Count : 0
 Inter-Core Inteference in Data Store : 7828705
Heartbeat CPU 3 instructions: 190000002 cycles: 78670452 heartbeat IPC: 2.41513 cumulative IPC: 2.41514 (Simulation time: 24 hr 12 min 52 sec) 
 Total Blocks : 196608 Invalid Blocks : 0 Valid Blocks : 196608
 Total Tags : 491520 Threshold : 12288 Invalid Tags : 196608 Pr0 Tags : 98304 Pr1 Tags : 196608 num_pr0 : 12288
 SAE Count : 0
 Inter-Core Inteference in Data Store : 8277526
Heartbeat CPU 5 instructions: 190000002 cycles: 78670468 heartbeat IPC: 2.41513 cumulative IPC: 2.41514 (Simulation time: 24 hr 12 min 52 sec) 
 Total Blocks : 196608 Invalid Blocks : 0 Valid Blocks : 196608
 Total Tags : 491520 Threshold : 12288 Invalid Tags : 196608 Pr0 Tags : 98304 Pr1 Tags : 196608 num_pr0 : 12288
 SAE Count : 0
 Inter-Core Inteference in Data Store : 8277526
Heartbeat CPU 1 instructions: 190000002 cycles: 78670556 heartbeat IPC: 2.41514 cumulative IPC: 2.41513 (Simulation time: 24 hr 12 min 53 sec) 
 Total Blocks : 196608 Invalid Blocks : 0 Valid Blocks : 196608
 Total Tags : 491520 Threshold : 12288 Invalid Tags : 196610 Pr0 Tags : 98302 Pr1 Tags : 196608 num_pr0 : 12288
 SAE Count : 0
 Inter-Core Inteference in Data Store : 8277542
Heartbeat CPU 0 instructions: 190000002 cycles: 78670642 heartbeat IPC: 2.41514 cumulative IPC: 2.41513 (Simulation time: 24 hr 12 min 53 sec) 
 Total Blocks : 196608 Invalid Blocks : 0 Valid Blocks : 196608
 Total Tags : 491520 Threshold : 12288 Invalid Tags : 196609 Pr0 Tags : 98303 Pr1 Tags : 196608 num_pr0 : 12288
 SAE Count : 0
 Inter-Core Inteference in Data Store : 8277561
Heartbeat CPU 7 instructions: 190000002 cycles: 78670666 heartbeat IPC: 2.41514 cumulative IPC: 2.41513 (Simulation time: 24 hr 12 min 53 sec) 
 Total Blocks : 196608 Invalid Blocks : 0 Valid Blocks : 196608
 Total Tags : 491520 Threshold : 12288 Invalid Tags : 196609 Pr0 Tags : 98303 Pr1 Tags : 196608 num_pr0 : 12288
 SAE Count : 0
 Inter-Core Inteference in Data Store : 8277562
Heartbeat CPU 2 instructions: 190000002 cycles: 78670815 heartbeat IPC: 2.41514 cumulative IPC: 2.41513 (Simulation time: 24 hr 12 min 54 sec) 
 Total Blocks : 196608 Invalid Blocks : 0 Valid Blocks : 196608
 Total Tags : 491520 Threshold : 12288 Invalid Tags : 196610 Pr0 Tags : 98302 Pr1 Tags : 196608 num_pr0 : 12288
 SAE Count : 0
 Inter-Core Inteference in Data Store : 8277579
Heartbeat CPU 4 instructions: 190000002 cycles: 78670889 heartbeat IPC: 2.41513 cumulative IPC: 2.41512 (Simulation time: 24 hr 12 min 54 sec) 
 Total Blocks : 196608 Invalid Blocks : 0 Valid Blocks : 196608
 Total Tags : 491520 Threshold : 12288 Invalid Tags : 196609 Pr0 Tags : 98303 Pr1 Tags : 196608 num_pr0 : 12288
 SAE Count : 0
 Inter-Core Inteference in Data Store : 8277579
Heartbeat CPU 6 instructions: 190000002 cycles: 78670944 heartbeat IPC: 2.41514 cumulative IPC: 2.41512 (Simulation time: 24 hr 12 min 54 sec) 
 Total Blocks : 196608 Invalid Blocks : 0 Valid Blocks : 196608
 Total Tags : 491520 Threshold : 12288 Invalid Tags : 196609 Pr0 Tags : 98303 Pr1 Tags : 196608 num_pr0 : 12288
 SAE Count : 0
 Inter-Core Inteference in Data Store : 8277584
Heartbeat CPU 3 instructions: 200000003 cycles: 82810907 heartbeat IPC: 2.41519 cumulative IPC: 2.41514 (Simulation time: 25 hr 38 min 47 sec) 
 Total Blocks : 196608 Invalid Blocks : 0 Valid Blocks : 196608
 Total Tags : 491520 Threshold : 12288 Invalid Tags : 196609 Pr0 Tags : 98303 Pr1 Tags : 196608 num_pr0 : 12287
 SAE Count : 0
 Inter-Core Inteference in Data Store : 8726706
Heartbeat CPU 5 instructions: 200000003 cycles: 82810923 heartbeat IPC: 2.41519 cumulative IPC: 2.41514 (Simulation time: 25 hr 38 min 47 sec) 
 Total Blocks : 196608 Invalid Blocks : 0 Valid Blocks : 196608
 Total Tags : 491520 Threshold : 12288 Invalid Tags : 196610 Pr0 Tags : 98302 Pr1 Tags : 196608 num_pr0 : 12287
 SAE Count : 0
 Inter-Core Inteference in Data Store : 8726707
Heartbeat CPU 1 instructions: 200000003 cycles: 82811006 heartbeat IPC: 2.4152 cumulative IPC: 2.41514 (Simulation time: 25 hr 38 min 47 sec) 
 Total Blocks : 196608 Invalid Blocks : 0 Valid Blocks : 196608
 Total Tags : 491520 Threshold : 12288 Invalid Tags : 196608 Pr0 Tags : 98304 Pr1 Tags : 196608 num_pr0 : 12288
 SAE Count : 0
 Inter-Core Inteference in Data Store : 8726716
Heartbeat CPU 0 instructions: 200000003 cycles: 82811094 heartbeat IPC: 2.4152 cumulative IPC: 2.41514 (Simulation time: 25 hr 38 min 47 sec) 
 Total Blocks : 196608 Invalid Blocks : 0 Valid Blocks : 196608
 Total Tags : 491520 Threshold : 12288 Invalid Tags : 196608 Pr0 Tags : 98304 Pr1 Tags : 196608 num_pr0 : 12288
 SAE Count : 0
 Inter-Core Inteference in Data Store : 8726716
Heartbeat CPU 7 instructions: 200000003 cycles: 82811125 heartbeat IPC: 2.41519 cumulative IPC: 2.41513 (Simulation time: 25 hr 38 min 47 sec) 
 Total Blocks : 196608 Invalid Blocks : 0 Valid Blocks : 196608
 Total Tags : 491520 Threshold : 12288 Invalid Tags : 196608 Pr0 Tags : 98304 Pr1 Tags : 196608 num_pr0 : 12288
 SAE Count : 0
 Inter-Core Inteference in Data Store : 8726716
Heartbeat CPU 2 instructions: 200000003 cycles: 82811274 heartbeat IPC: 2.41519 cumulative IPC: 2.41513 (Simulation time: 25 hr 38 min 47 sec) 
 Total Blocks : 196608 Invalid Blocks : 0 Valid Blocks : 196608
 Total Tags : 491520 Threshold : 12288 Invalid Tags : 196609 Pr0 Tags : 98303 Pr1 Tags : 196608 num_pr0 : 12287
 SAE Count : 0
 Inter-Core Inteference in Data Store : 8726736
Heartbeat CPU 4 instructions: 200000003 cycles: 82811338 heartbeat IPC: 2.4152 cumulative IPC: 2.41513 (Simulation time: 25 hr 38 min 47 sec) 
 Total Blocks : 196608 Invalid Blocks : 0 Valid Blocks : 196608
 Total Tags : 491520 Threshold : 12288 Invalid Tags : 196609 Pr0 Tags : 98303 Pr1 Tags : 196608 num_pr0 : 12287
 SAE Count : 0
 Inter-Core Inteference in Data Store : 8726746
Heartbeat CPU 6 instructions: 200000003 cycles: 82811405 heartbeat IPC: 2.41519 cumulative IPC: 2.41513 (Simulation time: 25 hr 38 min 47 sec) 
 Total Blocks : 196608 Invalid Blocks : 0 Valid Blocks : 196608
 Total Tags : 491520 Threshold : 12288 Invalid Tags : 196608 Pr0 Tags : 98304 Pr1 Tags : 196608 num_pr0 : 12288
 SAE Count : 0
 Inter-Core Inteference in Data Store : 8726751

Warmup complete CPU 0 instructions: 200000770 cycles: 82811405 (Simulation time: 25 hr 38 min 47 sec) 
Warmup complete CPU 1 instructions: 200000931 cycles: 82811405 (Simulation time: 25 hr 38 min 47 sec) 
Warmup complete CPU 2 instructions: 200000338 cycles: 82811405 (Simulation time: 25 hr 38 min 47 sec) 
Warmup complete CPU 3 instructions: 200001145 cycles: 82811405 (Simulation time: 25 hr 38 min 47 sec) 
Warmup complete CPU 4 instructions: 200000118 cycles: 82811405 (Simulation time: 25 hr 38 min 47 sec) 
Warmup complete CPU 5 instructions: 200001132 cycles: 82811405 (Simulation time: 25 hr 38 min 47 sec) 
Warmup complete CPU 6 instructions: 200000003 cycles: 82811405 (Simulation time: 25 hr 38 min 47 sec) 
Warmup complete CPU 7 instructions: 200000670 cycles: 82811404 (Simulation time: 25 hr 38 min 47 sec) 

Heartbeat CPU 3 instructions: 210000002 cycles: 98257800 heartbeat IPC: 0.647379 cumulative IPC: 0.647326 (Simulation time: 28 hr 54 min 22 sec) 
 Total Blocks : 196608 Invalid Blocks : 0 Valid Blocks : 196608
 Total Tags : 491520 Threshold : 12288 Invalid Tags : 196611 Pr0 Tags : 98301 Pr1 Tags : 196608 num_pr0 : 12288
 SAE Count : 0
 Inter-Core Inteference in Data Store : 446492
Heartbeat CPU 0 instructions: 210000002 cycles: 98273089 heartbeat IPC: 0.646747 cumulative IPC: 0.64671 (Simulation time: 28 hr 54 min 32 sec) 
 Total Blocks : 196608 Invalid Blocks : 0 Valid Blocks : 196608
 Total Tags : 491520 Threshold : 12288 Invalid Tags : 196611 Pr0 Tags : 98301 Pr1 Tags : 196608 num_pr0 : 12288
 SAE Count : 0
 Inter-Core Inteference in Data Store : 446920
Heartbeat CPU 6 instructions: 210000002 cycles: 98312256 heartbeat IPC: 0.645126 cumulative IPC: 0.645126 (Simulation time: 28 hr 54 min 53 sec) 
 Total Blocks : 196608 Invalid Blocks : 0 Valid Blocks : 196608
 Total Tags : 491520 Threshold : 12288 Invalid Tags : 196614 Pr0 Tags : 98298 Pr1 Tags : 196608 num_pr0 : 12288
 SAE Count : 0
 Inter-Core Inteference in Data Store : 448025
Heartbeat CPU 1 instructions: 210000002 cycles: 98342898 heartbeat IPC: 0.643836 cumulative IPC: 0.643793 (Simulation time: 28 hr 55 min 12 sec) 
 Total Blocks : 196608 Invalid Blocks : 0 Valid Blocks : 196608
 Total Tags : 491520 Threshold : 12288 Invalid Tags : 196608 Pr0 Tags : 98304 Pr1 Tags : 196608 num_pr0 : 12288
 SAE Count : 0
 Inter-Core Inteference in Data Store : 448880
Heartbeat CPU 5 instructions: 210000002 cycles: 98377287 heartbeat IPC: 0.642411 cumulative IPC: 0.642358 (Simulation time: 28 hr 55 min 35 sec) 
 Total Blocks : 196608 Invalid Blocks : 0 Valid Blocks : 196608
 Total Tags : 491520 Threshold : 12288 Invalid Tags : 196608 Pr0 Tags : 98304 Pr1 Tags : 196608 num_pr0 : 12288
 SAE Count : 0
 Inter-Core Inteference in Data Store : 449827
Heartbeat CPU 4 instructions: 210000002 cycles: 98395730 heartbeat IPC: 0.641668 cumulative IPC: 0.641663 (Simulation time: 28 hr 55 min 46 sec) 
 Total Blocks : 196608 Invalid Blocks : 0 Valid Blocks : 196608
 Total Tags : 491520 Threshold : 12288 Invalid Tags : 196610 Pr0 Tags : 98302 Pr1 Tags : 196608 num_pr0 : 12288
 SAE Count : 0
 Inter-Core Inteference in Data Store : 450330
Heartbeat CPU 7 instructions: 210000002 cycles: 98413238 heartbeat IPC: 0.640939 cumulative IPC: 0.640907 (Simulation time: 28 hr 55 min 58 sec) 
 Total Blocks : 196608 Invalid Blocks : 0 Valid Blocks : 196608
 Total Tags : 491520 Threshold : 12288 Invalid Tags : 196609 Pr0 Tags : 98303 Pr1 Tags : 196608 num_pr0 : 12288
 SAE Count : 0
 Inter-Core Inteference in Data Store : 450825
Heartbeat CPU 2 instructions: 210000002 cycles: 98479382 heartbeat IPC: 0.638239 cumulative IPC: 0.638223 (Simulation time: 28 hr 56 min 44 sec) 
 Total Blocks : 196608 Invalid Blocks : 0 Valid Blocks : 196608
 Total Tags : 491520 Threshold : 12288 Invalid Tags : 196610 Pr0 Tags : 98302 Pr1 Tags : 196608 num_pr0 : 12288
 SAE Count : 0
 Inter-Core Inteference in Data Store : 452561
Heartbeat CPU 6 instructions: 220000000 cycles: 113838169 heartbeat IPC: 0.644084 cumulative IPC: 0.644605 (Simulation time: 31 hr 56 min 39 sec) 
 Total Blocks : 196608 Invalid Blocks : 0 Valid Blocks : 196608
 Total Tags : 491520 Threshold : 12288 Invalid Tags : 196612 Pr0 Tags : 98300 Pr1 Tags : 196608 num_pr0 : 12287
 SAE Count : 0
 Inter-Core Inteference in Data Store : 889286
Heartbeat CPU 3 instructions: 220000000 cycles: 113893711 heartbeat IPC: 0.639553 cumulative IPC: 0.643416 (Simulation time: 31 hr 57 min 19 sec) 
 Total Blocks : 196608 Invalid Blocks : 0 Valid Blocks : 196608
 Total Tags : 491520 Threshold : 12288 Invalid Tags : 196611 Pr0 Tags : 98301 Pr1 Tags : 196608 num_pr0 : 12288
 SAE Count : 0
 Inter-Core Inteference in Data Store : 890905
Heartbeat CPU 1 instructions: 220000000 cycles: 113906895 heartbeat IPC: 0.642508 cumulative IPC: 0.64315 (Simulation time: 31 hr 57 min 29 sec) 
 Total Blocks : 196608 Invalid Blocks : 0 Valid Blocks : 196608
 Total Tags : 491520 Threshold : 12288 Invalid Tags : 196608 Pr0 Tags : 98304 Pr1 Tags : 196608 num_pr0 : 12288
 SAE Count : 0
 Inter-Core Inteference in Data Store : 891315
Heartbeat CPU 0 instructions: 220000000 cycles: 113916566 heartbeat IPC: 0.639244 cumulative IPC: 0.642955 (Simulation time: 31 hr 57 min 32 sec) 
 Total Blocks : 196608 Invalid Blocks : 0 Valid Blocks : 196608
 Total Tags : 491520 Threshold : 12288 Invalid Tags : 196610 Pr0 Tags : 98302 Pr1 Tags : 196608 num_pr0 : 12288
 SAE Count : 0
 Inter-Core Inteference in Data Store : 891591
Heartbeat CPU 5 instructions: 220000000 cycles: 113986458 heartbeat IPC: 0.640649 cumulative IPC: 0.641502 (Simulation time: 31 hr 58 min 18 sec) 
 Total Blocks : 196608 Invalid Blocks : 0 Valid Blocks : 196608
 Total Tags : 491520 Threshold : 12288 Invalid Tags : 196613 Pr0 Tags : 98299 Pr1 Tags : 196608 num_pr0 : 12288
 SAE Count : 0
 Inter-Core Inteference in Data Store : 893641
Heartbeat CPU 7 instructions: 220000000 cycles: 113989253 heartbeat IPC: 0.642013 cumulative IPC: 0.64146 (Simulation time: 31 hr 58 min 20 sec) 
 Total Blocks : 196608 Invalid Blocks : 0 Valid Blocks : 196608
 Total Tags : 491520 Threshold : 12288 Invalid Tags : 196610 Pr0 Tags : 98302 Pr1 Tags : 196608 num_pr0 : 12287
 SAE Count : 0
 Inter-Core Inteference in Data Store : 893718
Heartbeat CPU 4 instructions: 220000000 cycles: 114000844 heartbeat IPC: 0.640815 cumulative IPC: 0.641239 (Simulation time: 31 hr 58 min 32 sec) 
 Total Blocks : 196608 Invalid Blocks : 0 Valid Blocks : 196608
 Total Tags : 491520 Threshold : 12288 Invalid Tags : 196612 Pr0 Tags : 98300 Pr1 Tags : 196608 num_pr0 : 12288
 SAE Count : 0
 Inter-Core Inteference in Data Store : 894031
Heartbeat CPU 2 instructions: 220000000 cycles: 114122996 heartbeat IPC: 0.639238 cumulative IPC: 0.63873 (Simulation time: 32 hr 0 min 2 sec) 
 Total Blocks : 196608 Invalid Blocks : 0 Valid Blocks : 196608
 Total Tags : 491520 Threshold : 12288 Invalid Tags : 196613 Pr0 Tags : 98299 Pr1 Tags : 196608 num_pr0 : 12288
 SAE Count : 0
 Inter-Core Inteference in Data Store : 897338
Heartbeat CPU 6 instructions: 230000003 cycles: 129439713 heartbeat IPC: 0.640962 cumulative IPC: 0.643386 (Simulation time: 67 hr 57 min 9 sec) 
 Total Blocks : 196608 Invalid Blocks : 0 Valid Blocks : 196608
 Total Tags : 491520 Threshold : 12288 Invalid Tags : 196611 Pr0 Tags : 98301 Pr1 Tags : 196608 num_pr0 : 12288
 SAE Count : 0
 Inter-Core Inteference in Data Store : 1329084
Heartbeat CPU 0 instructions: 230000003 cycles: 129452779 heartbeat IPC: 0.643658 cumulative IPC: 0.643189 (Simulation time: 67 hr 58 min 36 sec) 
 Total Blocks : 196608 Invalid Blocks : 0 Valid Blocks : 196608
 Total Tags : 491520 Threshold : 12288 Invalid Tags : 196612 Pr0 Tags : 98300 Pr1 Tags : 196608 num_pr0 : 12286
 SAE Count : 0
 Inter-Core Inteference in Data Store : 1329463
Heartbeat CPU 3 instructions: 230000003 cycles: 129530405 heartbeat IPC: 0.639522 cumulative IPC: 0.642113 (Simulation time: 68 hr 4 min 41 sec) 
 Total Blocks : 196608 Invalid Blocks : 0 Valid Blocks : 196608
 Total Tags : 491520 Threshold : 12288 Invalid Tags : 196609 Pr0 Tags : 98303 Pr1 Tags : 196608 num_pr0 : 12288
 SAE Count : 0
 Inter-Core Inteference in Data Store : 1331777
Heartbeat CPU 7 instructions: 230000003 cycles: 129547719 heartbeat IPC: 0.642737 cumulative IPC: 0.641885 (Simulation time: 68 hr 5 min 59 sec) 
 Total Blocks : 196608 Invalid Blocks : 0 Valid Blocks : 196608
 Total Tags : 491520 Threshold : 12288 Invalid Tags : 196613 Pr0 Tags : 98299 Pr1 Tags : 196608 num_pr0 : 12288
 SAE Count : 0
 Inter-Core Inteference in Data Store : 1332293
Heartbeat CPU 1 instructions: 230000003 cycles: 129558815 heartbeat IPC: 0.638899 cumulative IPC: 0.641727 (Simulation time: 68 hr 6 min 48 sec) 
 Total Blocks : 196608 Invalid Blocks : 0 Valid Blocks : 196608
 Total Tags : 491520 Threshold : 12288 Invalid Tags : 196609 Pr0 Tags : 98303 Pr1 Tags : 196608 num_pr0 : 12288
 SAE Count : 0
 Inter-Core Inteference in Data Store : 1332621
Heartbeat CPU 5 instructions: 230000003 cycles: 129659094 heartbeat IPC: 0.638055 cumulative IPC: 0.640349 (Simulation time: 68 hr 13 min 25 sec) 
 Total Blocks : 196608 Invalid Blocks : 0 Valid Blocks : 196608
 Total Tags : 491520 Threshold : 12288 Invalid Tags : 196611 Pr0 Tags : 98301 Pr1 Tags : 196608 num_pr0 : 12288
 SAE Count : 0
 Inter-Core Inteference in Data Store : 1335509
Heartbeat CPU 4 instructions: 230000003 cycles: 129664318 heartbeat IPC: 0.638428 cumulative IPC: 0.640299 (Simulation time: 68 hr 13 min 58 sec) 
 Total Blocks : 196608 Invalid Blocks : 0 Valid Blocks : 196608
 Total Tags : 491520 Threshold : 12288 Invalid Tags : 196611 Pr0 Tags : 98301 Pr1 Tags : 196608 num_pr0 : 12288
 SAE Count : 0
 Inter-Core Inteference in Data Store : 1335658
Heartbeat CPU 2 instructions: 230000003 cycles: 129841722 heartbeat IPC: 0.636184 cumulative IPC: 0.637879 (Simulation time: 68 hr 27 min 4 sec) 
 Total Blocks : 196608 Invalid Blocks : 0 Valid Blocks : 196608
 Total Tags : 491520 Threshold : 12288 Invalid Tags : 196608 Pr0 Tags : 98304 Pr1 Tags : 196608 num_pr0 : 12288
 SAE Count : 0
 Inter-Core Inteference in Data Store : 1340626
Heartbeat CPU 6 instructions: 240000003 cycles: 145018252 heartbeat IPC: 0.641909 cumulative IPC: 0.643016 (Simulation time: 84 hr 4 min 34 sec) 
 Total Blocks : 196608 Invalid Blocks : 0 Valid Blocks : 196608
 Total Tags : 491520 Threshold : 12288 Invalid Tags : 196611 Pr0 Tags : 98301 Pr1 Tags : 196608 num_pr0 : 12287
 SAE Count : 0
 Inter-Core Inteference in Data Store : 1769026
Heartbeat CPU 3 instructions: 240000003 cycles: 145094066 heartbeat IPC: 0.642522 cumulative IPC: 0.642215 (Simulation time: 84 hr 8 min 30 sec) 
 Total Blocks : 196608 Invalid Blocks : 0 Valid Blocks : 196608
 Total Tags : 491520 Threshold : 12288 Invalid Tags : 196610 Pr0 Tags : 98302 Pr1 Tags : 196608 num_pr0 : 12288
 SAE Count : 0
 Inter-Core Inteference in Data Store : 1771091
Heartbeat CPU 0 instructions: 240000003 cycles: 145101543 heartbeat IPC: 0.639028 cumulative IPC: 0.642144 (Simulation time: 84 hr 8 min 43 sec) 
 Total Blocks : 196608 Invalid Blocks : 0 Valid Blocks : 196608
 Total Tags : 491520 Threshold : 12288 Invalid Tags : 196610 Pr0 Tags : 98302 Pr1 Tags : 196608 num_pr0 : 12288
 SAE Count : 0
 Inter-Core Inteference in Data Store : 1771282
Heartbeat CPU 7 instructions: 240000003 cycles: 145170333 heartbeat IPC: 0.640098 cumulative IPC: 0.641437 (Simulation time: 84 hr 11 min 49 sec) 
 Total Blocks : 196608 Invalid Blocks : 0 Valid Blocks : 196608
 Total Tags : 491520 Threshold : 12288 Invalid Tags : 196608 Pr0 Tags : 98304 Pr1 Tags : 196608 num_pr0 : 12288
 SAE Count : 0
 Inter-Core Inteference in Data Store : 1773245
Heartbeat CPU 1 instructions: 240000003 cycles: 145239330 heartbeat IPC: 0.637734 cumulative IPC: 0.640724 (Simulation time: 84 hr 14 min 48 sec) 
 Total Blocks : 196608 Invalid Blocks : 0 Valid Blocks : 196608
 Total Tags : 491520 Threshold : 12288 Invalid Tags : 196612 Pr0 Tags : 98300 Pr1 Tags : 196608 num_pr0 : 12288
 SAE Count : 0
 Inter-Core Inteference in Data Store : 1775295
Heartbeat CPU 5 instructions: 240000003 cycles: 145243523 heartbeat IPC: 0.641666 cumulative IPC: 0.640678 (Simulation time: 84 hr 15 min 6 sec) 
 Total Blocks : 196608 Invalid Blocks : 0 Valid Blocks : 196608
 Total Tags : 491520 Threshold : 12288 Invalid Tags : 196611 Pr0 Tags : 98301 Pr1 Tags : 196608 num_pr0 : 12288
 SAE Count : 0
 Inter-Core Inteference in Data Store : 1775424
Heartbeat CPU 4 instructions: 240000003 cycles: 145268487 heartbeat IPC: 0.640854 cumulative IPC: 0.640438 (Simulation time: 84 hr 16 min 19 sec) 
 Total Blocks : 196608 Invalid Blocks : 0 Valid Blocks : 196608
 Total Tags : 491520 Threshold : 12288 Invalid Tags : 196608 Pr0 Tags : 98304 Pr1 Tags : 196608 num_pr0 : 12288
 SAE Count : 0
 Inter-Core Inteference in Data Store : 1776124
Heartbeat CPU 2 instructions: 240000003 cycles: 145495306 heartbeat IPC: 0.638831 cumulative IPC: 0.638117 (Simulation time: 84 hr 26 min 5 sec) 
 Total Blocks : 196608 Invalid Blocks : 0 Valid Blocks : 196608
 Total Tags : 491520 Threshold : 12288 Invalid Tags : 196609 Pr0 Tags : 98303 Pr1 Tags : 196608 num_pr0 : 12288
 SAE Count : 0
 Inter-Core Inteference in Data Store : 1782623
Heartbeat CPU 6 instructions: 250000003 cycles: 160617789 heartbeat IPC: 0.641045 cumulative IPC: 0.642621 (Simulation time: 94 hr 11 min 40 sec) 
 Total Blocks : 196608 Invalid Blocks : 0 Valid Blocks : 196608
 Total Tags : 491520 Threshold : 12288 Invalid Tags : 196609 Pr0 Tags : 98303 Pr1 Tags : 196608 num_pr0 : 12287
 SAE Count : 0
 Inter-Core Inteference in Data Store : 2210703
Heartbeat CPU 3 instructions: 250000000 cycles: 160637720 heartbeat IPC: 0.643349 cumulative IPC: 0.642442 (Simulation time: 94 hr 12 min 24 sec) 
 Total Blocks : 196608 Invalid Blocks : 0 Valid Blocks : 196608
 Total Tags : 491520 Threshold : 12288 Invalid Tags : 196611 Pr0 Tags : 98301 Pr1 Tags : 196608 num_pr0 : 12288
 SAE Count : 0
 Inter-Core Inteference in Data Store : 2211265
Heartbeat CPU 0 instructions: 250000003 cycles: 160705941 heartbeat IPC: 0.640845 cumulative IPC: 0.641884 (Simulation time: 94 hr 14 min 19 sec) 
 Total Blocks : 196608 Invalid Blocks : 0 Valid Blocks : 196608
 Total Tags : 491520 Threshold : 12288 Invalid Tags : 196610 Pr0 Tags : 98302 Pr1 Tags : 196608 num_pr0 : 12288
 SAE Count : 0
 Inter-Core Inteference in Data Store : 2213137
Heartbeat CPU 7 instructions: 250000003 cycles: 160802369 heartbeat IPC: 0.639712 cumulative IPC: 0.641091 (Simulation time: 94 hr 17 min 48 sec) 
 Total Blocks : 196608 Invalid Blocks : 0 Valid Blocks : 196608
 Total Tags : 491520 Threshold : 12288 Invalid Tags : 196610 Pr0 Tags : 98302 Pr1 Tags : 196608 num_pr0 : 12288
 SAE Count : 0
 Inter-Core Inteference in Data Store : 2215729
Heartbeat CPU 1 instructions: 250000003 cycles: 160829502 heartbeat IPC: 0.64143 cumulative IPC: 0.640865 (Simulation time: 94 hr 18 min 37 sec) 
 Total Blocks : 196608 Invalid Blocks : 0 Valid Blocks : 196608
 Total Tags : 491520 Threshold : 12288 Invalid Tags : 196609 Pr0 Tags : 98303 Pr1 Tags : 196608 num_pr0 : 12287
 SAE Count : 0
 Inter-Core Inteference in Data Store : 2216439
Heartbeat CPU 4 instructions: 250000003 cycles: 160922371 heartbeat IPC: 0.638819 cumulative IPC: 0.640114 (Simulation time: 94 hr 21 min 49 sec) 
 Total Blocks : 196608 Invalid Blocks : 0 Valid Blocks : 196608
 Total Tags : 491520 Threshold : 12288 Invalid Tags : 196611 Pr0 Tags : 98301 Pr1 Tags : 196608 num_pr0 : 12288
 SAE Count : 0
 Inter-Core Inteference in Data Store : 2219125
Heartbeat CPU 5 instructions: 250000000 cycles: 161060861 heartbeat IPC: 0.632217 cumulative IPC: 0.638968 (Simulation time: 94 hr 26 min 42 sec) 
[...]
LLC4 LOAD      ACCESS:   821  HIT:    53  MISS:   768  HIT %: 6.45554  MISS %: 93.5445  AVERAGE MISS PENALTY: 1811.35
LLC4 RFO       ACCESS: 148844  HIT:     0  MISS: 148844  HIT %:     0  MISS %:   100  AVERAGE MISS PENALTY: 1937.61
LLC4 PREFETCH  ACCESS: 215082  HIT:     7  MISS: 215075  HIT %: 0.00325457  MISS %: 99.9967  AVERAGE MISS PENALTY: 1640.96
LLC4 WRITEBACK ACCESS: 148933  HIT:    55  MISS: 148878  HIT %: 0.0369294  MISS %: 99.9631  AVERAGE MISS PENALTY: 0
LLC4 PREFETCH  REQUESTED:     0  ISSUED:     0  USEFUL:    16  USELESS: 72496
 USEFUL LOAD PREFETCHES:         16 PREFETCH ISSUED TO LOWER LEVEL: 1211361412  ACCURACY: 1.32083e-06
 TIMELY PREFETCHES:         16 LATE PREFETCHES: 0 DROPPED PREFETCHES: 0
LLC4 AVERAGE MISS LATENCY: 1251.49 cycles

LLC4 Set Associative Eviction Count : 0
LLC4 Priority 0 entries : 12288
LLC4 Inter-Core Interference : 1108973
LLC5 TOTAL     ACCESS: 513593  HIT:    61  MISS: 513532  HIT %: 0.0118771  MISS %: 99.9881  AVERAGE MISS PENALTY: 1241.9
LLC5 LOAD      ACCESS:   845  HIT:    54  MISS:   791  HIT %: 6.39053  MISS %: 93.6095  AVERAGE MISS PENALTY: 1643.77
LLC5 RFO       ACCESS: 148841  HIT:     0  MISS: 148841  HIT %:     0  MISS %:   100  AVERAGE MISS PENALTY: 1919.57
LLC5 PREFETCH  ACCESS: 215056  HIT:     4  MISS: 215052  HIT %: 0.00185998  MISS %: 99.9981  AVERAGE MISS PENALTY: 1630.97
LLC5 WRITEBACK ACCESS: 148851  HIT:     3  MISS: 148848  HIT %: 0.00201544  MISS %: 99.998  AVERAGE MISS PENALTY: 0
LLC5 PREFETCH  REQUESTED:     0  ISSUED:     0  USEFUL:    24  USELESS: 71850
 USEFUL LOAD PREFETCHES:         24 PREFETCH ISSUED TO LOWER LEVEL: 1277262220  ACCURACY: 1.87902e-06
 TIMELY PREFETCHES:         24 LATE PREFETCHES: 0 DROPPED PREFETCHES: 0
LLC5 AVERAGE MISS LATENCY: 1241.9 cycles

LLC5 Set Associative Eviction Count : 0
LLC5 Priority 0 entries : 12288
LLC5 Inter-Core Interference : 1108249
LLC6 TOTAL     ACCESS: 513703  HIT:   181  MISS: 513522  HIT %: 0.0352344  MISS %: 99.9648  AVERAGE MISS PENALTY: 1107.45
LLC6 LOAD      ACCESS:  6684  HIT:   106  MISS:  6578  HIT %: 1.58588  MISS %: 98.4141  AVERAGE MISS PENALTY: 1764.62
LLC6 RFO       ACCESS: 148841  HIT:     0  MISS: 148841  HIT %:     0  MISS %:   100  AVERAGE MISS PENALTY: 1753.83
LLC6 PREFETCH  ACCESS: 209238  HIT:     7  MISS: 209231  HIT %: 0.00334547  MISS %: 99.9967  AVERAGE MISS PENALTY: 1414.95
LLC6 WRITEBACK ACCESS: 148940  HIT:    68  MISS: 148872  HIT %: 0.045656  MISS %: 99.9543  AVERAGE MISS PENALTY: 0
LLC6 PREFETCH  REQUESTED:     0  ISSUED:     0  USEFUL:    25  USELESS: 70169
 USEFUL LOAD PREFETCHES:         25 PREFETCH ISSUED TO LOWER LEVEL: 1703982560  ACCURACY: 1.46715e-06
 TIMELY PREFETCHES:         25 LATE PREFETCHES: 0 DROPPED PREFETCHES: 0
LLC6 AVERAGE MISS LATENCY: 1107.45 cycles

LLC6 Set Associative Eviction Count : 0
LLC6 Priority 0 entries : 12288
LLC6 Inter-Core Interference : 1109181
LLC7 TOTAL     ACCESS: 513480  HIT:    40  MISS: 513440  HIT %: 0.00778998  MISS %: 99.9922  AVERAGE MISS PENALTY: 1085.94
LLC7 LOAD      ACCESS:  7996  HIT:     4  MISS:  7992  HIT %: 0.050025  MISS %: 99.95  AVERAGE MISS PENALTY: 1771.51
LLC7 RFO       ACCESS: 148841  HIT:     0  MISS: 148841  HIT %:     0  MISS %:   100  AVERAGE MISS PENALTY: 1707.16
LLC7 PREFETCH  ACCESS: 207757  HIT:     6  MISS: 207751  HIT %: 0.00288799  MISS %: 99.9971  AVERAGE MISS PENALTY: 1392.58
LLC7 WRITEBACK ACCESS: 148886  HIT:    30  MISS: 148856  HIT %: 0.0201496  MISS %: 99.9799  AVERAGE MISS PENALTY: 0
LLC7 PREFETCH  REQUESTED:     0  ISSUED:     0  USEFUL:    30  USELESS: 69396
 USEFUL LOAD PREFETCHES:         30 PREFETCH ISSUED TO LOWER LEVEL: 1790209208  ACCURACY: 1.67578e-06
 TIMELY PREFETCHES:         30 LATE PREFETCHES: 0 DROPPED PREFETCHES: 0
LLC7 AVERAGE MISS LATENCY: 1085.94 cycles

LLC7 Set Associative Eviction Count : 0
LLC7 Priority 0 entries : 12288
LLC7 Inter-Core Interference : 1108966
ROI Average ROB Stall Cycles:	15.8083
ROI Total ROB Stalls Cycles:	247206041
ROI TOTAL ROB counter      :	15637749
ROI Average Load ROB Stall Cycles:	84.1507
ROI Total Load ROB Stalls Cycle  :	170374887
ROI Total Load ROB stalls Counter:	2024639
Major fault: 0 Minor fault: 76652

CPU 7 cumulative IPC: 0.637969 instructions: 200000000 cycles: 313495056
ITLB TOTAL     ACCESS: 24534363  HIT: 24534363  MISS:     0  HIT %:   100  MISS %:     0  AVERAGE MISS PENALTY: 0
ITLB LOAD      ACCESS: 24534363  HIT: 24534363  MISS:     0  HIT %:   100  MISS %:     0  AVERAGE MISS PENALTY: 0
ITLB RFO       ACCESS:     0  HIT:     0  MISS:     0  HIT %:     0  MISS %:     0  AVERAGE MISS PENALTY: 0
ITLB PREFETCH  ACCESS:     0  HIT:     0  MISS:     0  HIT %:     0  MISS %:     0  AVERAGE MISS PENALTY: 0
ITLB WRITEBACK ACCESS:     0  HIT:     0  MISS:     0  HIT %:     0  MISS %:     0  AVERAGE MISS PENALTY: 0
ITLB PREFETCH  REQUESTED:     0  ISSUED:     0  USEFUL:     0  USELESS:     0
 USEFUL LOAD PREFETCHES:          0 PREFETCH ISSUED TO LOWER LEVEL:          0  ACCURACY: -nan
 TIMELY PREFETCHES:          0 LATE PREFETCHES: 0 DROPPED PREFETCHES: 0
ITLB AVERAGE MISS LATENCY: -nan cycles

ITLB Set Associative Eviction Count : 0
ITLB Priority 0 entries : 0
ITLB Inter-Core Interference : 0
DTLB TOTAL     ACCESS: 47683333  HIT: 47371943  MISS: 311390  HIT %: 99.347  MISS %: 0.653037  AVERAGE MISS PENALTY: 44.8357
DTLB LOAD      ACCESS: 30302526  HIT: 30103164  MISS: 199362  HIT %: 99.3421  MISS %: 0.657906  AVERAGE MISS PENALTY: 29.123
DTLB RFO       ACCESS: 17380807  HIT: 17268779  MISS: 112028  HIT %: 99.3554  MISS %: 0.64455  AVERAGE MISS PENALTY: 72.7977
DTLB PREFETCH  ACCESS:     0  HIT:     0  MISS:     0  HIT %:     0  MISS %:     0  AVERAGE MISS PENALTY: 0
DTLB WRITEBACK ACCESS:     0  HIT:     0  MISS:     0  HIT %:     0  MISS %:     0  AVERAGE MISS PENALTY: 0
DTLB PREFETCH  REQUESTED:     0  ISSUED:     0  USEFUL:     0  USELESS:     0
 USEFUL LOAD PREFETCHES:          0 PREFETCH ISSUED TO LOWER LEVEL:          0  ACCURACY: -nan
 TIMELY PREFETCHES:          0 LATE PREFETCHES: 0 DROPPED PREFETCHES: 0
DTLB AVERAGE MISS LATENCY: 44.8357 cycles

DTLB Set Associative Eviction Count : 0
DTLB Priority 0 entries : 0
DTLB Inter-Core Interference : 0
STLB TOTAL     ACCESS: 311390  HIT: 268787  MISS: 42603  HIT %: 86.3184  MISS %: 13.6816  AVERAGE MISS PENALTY: 100
STLB LOAD      ACCESS: 199362  HIT: 175365  MISS: 23997  HIT %: 87.9631  MISS %: 12.0369  AVERAGE MISS PENALTY: 100
STLB RFO       ACCESS: 112028  HIT: 93422  MISS: 18606  HIT %: 83.3917  MISS %: 16.6083  AVERAGE MISS PENALTY: 100
STLB PREFETCH  ACCESS:     0  HIT:     0  MISS:     0  HIT %:     0  MISS %:     0  AVERAGE MISS PENALTY: 0
STLB WRITEBACK ACCESS:     0  HIT:     0  MISS:     0  HIT %:     0  MISS %:     0  AVERAGE MISS PENALTY: 0
STLB PREFETCH  REQUESTED:     0  ISSUED:     0  USEFUL:     0  USELESS:     0
 USEFUL LOAD PREFETCHES:          0 PREFETCH ISSUED TO LOWER LEVEL:          0  ACCURACY: -nan
 TIMELY PREFETCHES:          0 LATE PREFETCHES: 0 DROPPED PREFETCHES: 0
STLB AVERAGE MISS LATENCY: 100 cycles

STLB Set Associative Eviction Count : 0
STLB Priority 0 entries : 0
STLB Inter-Core Interference : 0
L1D TOTAL     ACCESS: 60045352  HIT: 56905986  MISS: 3139366  HIT %: 94.7717  MISS %: 5.22832  AVERAGE MISS PENALTY: 8.23405e+06
L1D LOAD      ACCESS: 31963875  HIT: 31730630  MISS: 233245  HIT %: 99.2703  MISS %: 0.729714  AVERAGE MISS PENALTY: 1.10812e+08
L1D RFO       ACCESS: 24729102  HIT: 23535888  MISS: 1193214  HIT %: 95.1749  MISS %: 4.82514  AVERAGE MISS PENALTY: 2176.83
L1D PREFETCH  ACCESS: 3352375  HIT: 1639468  MISS: 1712907  HIT %: 48.9047  MISS %: 51.0953  AVERAGE MISS PENALTY: 478.61
L1D WRITEBACK ACCESS:     0  HIT:     0  MISS:     0  HIT %:     0  MISS %:     0  AVERAGE MISS PENALTY: 0
L1D PREFETCH  REQUESTED: 4455048  ISSUED: 3640647  USEFUL: 1709803  USELESS:  3111
 USEFUL LOAD PREFETCHES:    1709803 PREFETCH ISSUED TO LOWER LEVEL:  214094496  ACCURACY: 0.798621
 TIMELY PREFETCHES:    1709803 LATE PREFETCHES: 113650 DROPPED PREFETCHES: 814401
L1D AVERAGE MISS LATENCY: 1124.12 cycles

L1D Set Associative Eviction Count : 0
L1D Priority 0 entries : 0
L1D Inter-Core Interference : 0
L1I TOTAL     ACCESS: 36107581  HIT: 36107581  MISS:     0  HIT %:   100  MISS %:     0  AVERAGE MISS PENALTY: 0
L1I LOAD      ACCESS: 36107581  HIT: 36107581  MISS:     0  HIT %:   100  MISS %:     0  AVERAGE MISS PENALTY: 0
L1I RFO       ACCESS:     0  HIT:     0  MISS:     0  HIT %:     0  MISS %:     0  AVERAGE MISS PENALTY: 0
L1I PREFETCH  ACCESS:     0  HIT:     0  MISS:     0  HIT %:     0  MISS %:     0  AVERAGE MISS PENALTY: 0
L1I WRITEBACK ACCESS:     0  HIT:     0  MISS:     0  HIT %:     0  MISS %:     0  AVERAGE MISS PENALTY: 0
L1I PREFETCH  REQUESTED:     0  ISSUED:     0  USEFUL:     0  USELESS:     0
 USEFUL LOAD PREFETCHES:          0 PREFETCH ISSUED TO LOWER LEVEL:          0  ACCURACY: -nan
 TIMELY PREFETCHES:          0 LATE PREFETCHES: 0 DROPPED PREFETCHES: 0
L1I AVERAGE MISS LATENCY: -nan cycles

L1I Set Associative Eviction Count : 0
L1I Priority 0 entries : 0
L1I Inter-Core Interference : 0
L2C TOTAL     ACCESS: 6037154  HIT: 3116412  MISS: 2920742  HIT %: 51.6205  MISS %: 48.3795  AVERAGE MISS PENALTY: 9.04992e+06
L2C LOAD      ACCESS: 231843  HIT: 89825  MISS: 142018  HIT %: 38.7439  MISS %: 61.2561  AVERAGE MISS PENALTY: 1.86081e+08
L2C RFO       ACCESS: 1192143  HIT:  1383  MISS: 1190760  HIT %: 0.11601  MISS %: 99.884  AVERAGE MISS PENALTY: 2161.64
L2C PREFETCH  ACCESS: 3414169  HIT: 1826629  MISS: 1587540  HIT %: 53.5014  MISS %: 46.4986  AVERAGE MISS PENALTY: 1929.15
L2C WRITEBACK ACCESS: 1198999  HIT: 1198575  MISS:   424  HIT %: 99.9646  MISS %: 0.0353628  AVERAGE MISS PENALTY: 0
L2C PREFETCH  REQUESTED: 3004280  ISSUED: 3001773  USEFUL: 73477  USELESS: 1513185
 USEFUL LOAD PREFETCHES:      73477 PREFETCH ISSUED TO LOWER LEVEL:    4474768  ACCURACY: 1.64203
 TIMELY PREFETCHES:      73477 LATE PREFETCHES: 110271 DROPPED PREFETCHES: 2507
L2C AVERAGE MISS LATENCY: 1995.14 cycles

L2C Set Associative Eviction Count : 0
L2C Priority 0 entries : 0
L2C Inter-Core Interference : 0
LLC0 TOTAL     ACCESS: 513978  HIT:    85  MISS: 513893  HIT %: 0.0165377  MISS %: 99.9835  AVERAGE MISS PENALTY: 1186.54
LLC0 LOAD      ACCESS: 27569  HIT:     1  MISS: 27568  HIT %: 0.00362726  MISS %: 99.9964  AVERAGE MISS PENALTY: 1452.99
LLC0 RFO       ACCESS: 148841  HIT:     0  MISS: 148841  HIT %:     0  MISS %:   100  AVERAGE MISS PENALTY: 1845.34
LLC0 PREFETCH  ACCESS: 188452  HIT:    11  MISS: 188441  HIT %: 0.00583703  MISS %: 99.9942  AVERAGE MISS PENALTY: 1565.66
LLC0 WRITEBACK ACCESS: 149116  HIT:    73  MISS: 149043  HIT %: 0.0489552  MISS %: 99.951  AVERAGE MISS PENALTY: 0
LLC0 PREFETCH  REQUESTED:     0  ISSUED:     0  USEFUL:    22  USELESS: 63496
 USEFUL LOAD PREFETCHES:         22 PREFETCH ISSUED TO LOWER LEVEL:  711345550  ACCURACY: 3.09273e-06
 TIMELY PREFETCHES:         22 LATE PREFETCHES: 0 DROPPED PREFETCHES: 0
LLC0 AVERAGE MISS LATENCY: 1186.54 cycles

LLC0 Set Associative Eviction Count : 0
LLC0 Priority 0 entries : 12288
LLC0 Inter-Core Interference : 1108852
LLC1 TOTAL     ACCESS: 514108  HIT:    58  MISS: 514050  HIT %: 0.0112817  MISS %: 99.9887  AVERAGE MISS PENALTY: 1225.32
LLC1 LOAD      ACCESS:   579  HIT:    55  MISS:   524  HIT %: 9.49914  MISS %: 90.5009  AVERAGE MISS PENALTY: 1726.77
LLC1 RFO       ACCESS: 148848  HIT:     0  MISS: 148848  HIT %:     0  MISS %:   100  AVERAGE MISS PENALTY: 1932.75
LLC1 PREFETCH  ACCESS: 215695  HIT:     3  MISS: 215692  HIT %: 0.00139085  MISS %: 99.9986  AVERAGE MISS PENALTY: 1582.28
LLC1 WRITEBACK ACCESS: 148986  HIT:     0  MISS: 148986  HIT %:     0  MISS %:   100  AVERAGE MISS PENALTY: 0
LLC1 PREFETCH  REQUESTED:     0  ISSUED:     0  USEFUL:    21  USELESS: 72732
 USEFUL LOAD PREFETCHES:         21 PREFETCH ISSUED TO LOWER LEVEL:  812803650  ACCURACY: 2.58365e-06
 TIMELY PREFETCHES:         21 LATE PREFETCHES: 0 DROPPED PREFETCHES: 0
LLC1 AVERAGE MISS LATENCY: 1225.32 cycles

LLC1 Set Associative Eviction Count : 0
LLC1 Priority 0 entries : 12287
LLC1 Inter-Core Interference : 1108353
LLC2 TOTAL     ACCESS: 514128  HIT:    61  MISS: 514067  HIT %: 0.0118647  MISS %: 99.9881  AVERAGE MISS PENALTY: 1204.83
LLC2 LOAD      ACCESS:   494  HIT:    17  MISS:   477  HIT %: 3.4413  MISS %: 96.5587  AVERAGE MISS PENALTY: 1690.75
LLC2 RFO       ACCESS: 148848  HIT:     0  MISS: 148848  HIT %:     0  MISS %:   100  AVERAGE MISS PENALTY: 1839.95
LLC2 PREFETCH  ACCESS: 215792  HIT:    44  MISS: 215748  HIT %: 0.02039  MISS %: 99.9796  AVERAGE MISS PENALTY: 1597.62
LLC2 WRITEBACK ACCESS: 148994  HIT:     0  MISS: 148994  HIT %:     0  MISS %:   100  AVERAGE MISS PENALTY: 0
LLC2 PREFETCH  REQUESTED:     0  ISSUED:     0  USEFUL:    22  USELESS: 72552
 USEFUL LOAD PREFETCHES:         22 PREFETCH ISSUED TO LOWER LEVEL:  934951815  ACCURACY: 2.35306e-06
 TIMELY PREFETCHES:         22 LATE PREFETCHES: 0 DROPPED PREFETCHES: 0
LLC2 AVERAGE MISS LATENCY: 1204.83 cycles

LLC2 Set Associative Eviction Count : 0
LLC2 Priority 0 entries : 12287
LLC2 Inter-Core Interference : 1108616
LLC3 TOTAL     ACCESS: 513957  HIT:    94  MISS: 513863  HIT %: 0.0182895  MISS %: 99.9817  AVERAGE MISS PENALTY: 1224.3
LLC3 LOAD      ACCESS:   496  HIT:     3  MISS:   493  HIT %: 0.604839  MISS %: 99.3952  AVERAGE MISS PENALTY: 1774.94
LLC3 RFO       ACCESS: 148848  HIT:     0  MISS: 148848  HIT %:     0  MISS %:   100  AVERAGE MISS PENALTY: 1886.22
LLC3 PREFETCH  ACCESS: 215505  HIT:     7  MISS: 215498  HIT %: 0.00324818  MISS %: 99.9968  AVERAGE MISS PENALTY: 1612.48
LLC3 WRITEBACK ACCESS: 149108  HIT:    84  MISS: 149024  HIT %: 0.056335  MISS %: 99.9437  AVERAGE MISS PENALTY: 0
LLC3 PREFETCH  REQUESTED:     0  ISSUED:     0  USEFUL:    17  USELESS: 72295
 USEFUL LOAD PREFETCHES:         17 PREFETCH ISSUED TO LOWER LEVEL:  957279350  ACCURACY: 1.77587e-06
 TIMELY PREFETCHES:         17 LATE PREFETCHES: 0 DROPPED PREFETCHES: 0
LLC3 AVERAGE MISS LATENCY: 1224.3 cycles

LLC3 Set Associative Eviction Count : 0
LLC3 Priority 0 entries : 12288
LLC3 Inter-Core Interference : 1108002
LLC4 TOTAL     ACCESS: 514245  HIT:   294  MISS: 513951  HIT %: 0.0571712  MISS %: 99.9428  AVERAGE MISS PENALTY: 1248.86
LLC4 LOAD      ACCESS:   948  HIT:   216  MISS:   732  HIT %: 22.7848  MISS %: 77.2152  AVERAGE MISS PENALTY: 1801.81
LLC4 RFO       ACCESS: 148848  HIT:     0  MISS: 148848  HIT %:     0  MISS %:   100  AVERAGE MISS PENALTY: 1938.91
LLC4 PREFETCH  ACCESS: 215362  HIT:     6  MISS: 215356  HIT %: 0.00278601  MISS %: 99.9972  AVERAGE MISS PENALTY: 1634.18
LLC4 WRITEBACK ACCESS: 149087  HIT:    72  MISS: 149015  HIT %: 0.0482939  MISS %: 99.9517  AVERAGE MISS PENALTY: 0
LLC4 PREFETCH  REQUESTED:     0  ISSUED:     0  USEFUL:    16  USELESS: 72496
 USEFUL LOAD PREFETCHES:         16 PREFETCH ISSUED TO LOWER LEVEL: 1211361412  ACCURACY: 1.32083e-06
 TIMELY PREFETCHES:         16 LATE PREFETCHES: 0 DROPPED PREFETCHES: 0
LLC4 AVERAGE MISS LATENCY: 1248.86 cycles

LLC4 Set Associative Eviction Count : 0
LLC4 Priority 0 entries : 12288
LLC4 Inter-Core Interference : 1108973
LLC5 TOTAL     ACCESS: 514134  HIT:   223  MISS: 513911  HIT %: 0.0433739  MISS %: 99.9566  AVERAGE MISS PENALTY: 1240.12
LLC5 LOAD      ACCESS:   971  HIT:   213  MISS:   758  HIT %: 21.9361  MISS %: 78.0639  AVERAGE MISS PENALTY: 1768.65
LLC5 RFO       ACCESS: 148845  HIT:     0  MISS: 148845  HIT %:     0  MISS %:   100  AVERAGE MISS PENALTY: 1922.22
LLC5 PREFETCH  ACCESS: 215327  HIT:     8  MISS: 215319  HIT %: 0.00371528  MISS %: 99.9963  AVERAGE MISS PENALTY: 1624.84
LLC5 WRITEBACK ACCESS: 148991  HIT:     2  MISS: 148989  HIT %: 0.00134236  MISS %: 99.9987  AVERAGE MISS PENALTY: 0
LLC5 PREFETCH  REQUESTED:     0  ISSUED:     0  USEFUL:    24  USELESS: 71850
 USEFUL LOAD PREFETCHES:         24 PREFETCH ISSUED TO LOWER LEVEL: 1277262220  ACCURACY: 1.87902e-06
 TIMELY PREFETCHES:         24 LATE PREFETCHES: 0 DROPPED PREFETCHES: 0
LLC5 AVERAGE MISS LATENCY: 1240.12 cycles

LLC5 Set Associative Eviction Count : 0
LLC5 Priority 0 entries : 12288
LLC5 Inter-Core Interference : 1108249
LLC6 TOTAL     ACCESS: 514454  HIT:   526  MISS: 513928  HIT %: 0.102244  MISS %: 99.8978  AVERAGE MISS PENALTY: 1109.07
LLC6 LOAD      ACCESS:  7018  HIT:   280  MISS:  6738  HIT %: 3.98974  MISS %: 96.0103  AVERAGE MISS PENALTY: 1804.33
LLC6 RFO       ACCESS: 148841  HIT:     0  MISS: 148841  HIT %:     0  MISS %:   100  AVERAGE MISS PENALTY: 1763.08
LLC6 PREFETCH  ACCESS: 209329  HIT:     5  MISS: 209324  HIT %: 0.00238858  MISS %: 99.9976  AVERAGE MISS PENALTY: 1411.24
LLC6 WRITEBACK ACCESS: 149266  HIT:   241  MISS: 149025  HIT %: 0.161457  MISS %: 99.8385  AVERAGE MISS PENALTY: 0
LLC6 PREFETCH  REQUESTED:     0  ISSUED:     0  USEFUL:    25  USELESS: 70169
 USEFUL LOAD PREFETCHES:         25 PREFETCH ISSUED TO LOWER LEVEL: 1703982560  ACCURACY: 1.46715e-06
 TIMELY PREFETCHES:         25 LATE PREFETCHES: 0 DROPPED PREFETCHES: 0
LLC6 AVERAGE MISS LATENCY: 1109.07 cycles

LLC6 Set Associative Eviction Count : 0
LLC6 Priority 0 entries : 12288
LLC6 Inter-Core Interference : 1109181
LLC7 TOTAL     ACCESS: 513911  HIT:    55  MISS: 513856  HIT %: 0.0107022  MISS %: 99.9893  AVERAGE MISS PENALTY: 1088.77
LLC7 LOAD      ACCESS:  7959  HIT:     7  MISS:  7952  HIT %: 0.0879507  MISS %: 99.912  AVERAGE MISS PENALTY: 1804.46
LLC7 RFO       ACCESS: 148841  HIT:     0  MISS: 148841  HIT %:     0  MISS %:   100  AVERAGE MISS PENALTY: 1721.52
LLC7 PREFETCH  ACCESS: 208062  HIT:     8  MISS: 208054  HIT %: 0.00384501  MISS %: 99.9962  AVERAGE MISS PENALTY: 1388.54
LLC7 WRITEBACK ACCESS: 149049  HIT:    40  MISS: 149009  HIT %: 0.0268368  MISS %: 99.9732  AVERAGE MISS PENALTY: 0
LLC7 PREFETCH  REQUESTED:     0  ISSUED:     0  USEFUL:    30  USELESS: 69396
 USEFUL LOAD PREFETCHES:         30 PREFETCH ISSUED TO LOWER LEVEL: 1790209208  ACCURACY: 1.67578e-06
 TIMELY PREFETCHES:         30 LATE PREFETCHES: 0 DROPPED PREFETCHES: 0
LLC7 AVERAGE MISS LATENCY: 1088.77 cycles

LLC7 Set Associative Eviction Count : 0
LLC7 Priority 0 entries : 12288
LLC7 Inter-Core Interference : 1108966
ROI Average ROB Stall Cycles:	15.8025
ROI Total ROB Stalls Cycles:	247029586
ROI TOTAL ROB counter      :	15632264
ROI Average Load ROB Stall Cycles:	84.0799
ROI Total Load ROB Stalls Cycle  :	170123370
ROI Total Load ROB stalls Counter:	2023353
Major fault: 0 Minor fault: 76612








Interconnect Stats 
LINK 0 BW : 0LINK 1 BW : 0LINK 2 BW : 0LINK 3 BW : 0LINK 4 BW : 0LINK 5 BW : 0LINK 6 BW : 0LINK 7 BW : 0
DRAM Statistics
 CHANNEL 0
 RQ ROW_BUFFER_HIT: 6720659  ROW_BUFFER_MISS: 4971953
 DBUS_CONGESTED: 18637709
 WQ ROW_BUFFER_HIT: 140081  ROW_BUFFER_MISS: 4635494  FULL:   121

 CHANNEL 1
 RQ ROW_BUFFER_HIT: 6674179  ROW_BUFFER_MISS: 5017998
 DBUS_CONGESTED: 18637709
 WQ ROW_BUFFER_HIT: 136393  ROW_BUFFER_MISS: 4638683  FULL:   237

 AVG_CONGESTED_CYCLE: 6
DRAM PAGES: 2097152
Allocated PAGES: 612850
L2C destructor called
L1D destructor called
L1I destructor called
STLB destructor called
DTLB destructor called
ITLB destructor called
L2C destructor called
L1D destructor called
L1I destructor called
STLB destructor called
DTLB destructor called
ITLB destructor called
L2C destructor called
L1D destructor called
L1I destructor called
STLB destructor called
DTLB destructor called
ITLB destructor called
L2C destructor called
L1D destructor called
L1I destructor called
STLB destructor called
DTLB destructor called
ITLB destructor called
L2C destructor called
L1D destructor called
L1I destructor called
STLB destructor called
DTLB destructor called
ITLB destructor called
L2C destructor called
L1D destructor called
L1I destructor called
STLB destructor called
DTLB destructor called
ITLB destructor called
L2C destructor called
L1D destructor called
L1I destructor called
STLB destructor called
DTLB destructor called
ITLB destructor called
L2C destructor called
L1D destructor called
L1I destructor called
STLB destructor called
DTLB destructor called
ITLB destructor called
