
*** ChampSim Multicore Out-of-Order Simulator ***

Warmup Instructions: 200000000
Simulation Instructions: 200000000
Number of CPUs: 8
threads:1

L1I Configuration:
L1I_SET:64
L1I_WAY:8
L1I_RQ_SIZE:64
L1I_WQ_SIZE:64
L1I_PQ_SIZE:8
L1I_MSHR_SIZE:8

L1D Configuration:
L1D_SET:64
L1D_WAY:12
L1D_RQ_SIZE:64
L1D_WQ_SIZE:64
L1D_PQ_SIZE:8
L1D_MSHR_SIZE:16

L2C Configuration:
L2C_SET:1024
L2C_WAY:8
L2C_RQ_SIZE:32
L2C_WQ_SIZE:32
L2C_PQ_SIZE:16
L2C_MSHR_SIZE:32

LLC Configuration:
LLC_SET:2048
LLC_WAY:12
LLC SLICES:8
LLC_RQ_SIZE:64
LLC_WQ_SIZE:64
LLC_PQ_SIZE:32
LLC_MSHR_SIZE:64

Interconnect OFF
Attacker deprioritize is: OFF
Off-chip DRAM Size: 8192 MB Channels: 2 Width: 64-bit Data Rate: 3200 MT/s
PAGE SIZE in KB: 4.000000 
PAGE SIZE in MB: 0.003906 
PAGE offset in bits: 12 
CEASER-S_LLC:0
MIRAGE : 1
CEASER_LATENCY:3
REMAP : OFF
Partitions : 1
Multi-Step : OFF
BFS : OFF

CPU 0 runs /home/anubhav/spec_2017/605.mcf_s-1554B.champsimtrace.xz
CPU 1 runs /home/anubhav/spec_2017/605.mcf_s-1554B.champsimtrace.xz
CPU 2 runs /home/anubhav/spec_2017/605.mcf_s-1554B.champsimtrace.xz
CPU 3 runs /home/anubhav/spec_2017/605.mcf_s-1554B.champsimtrace.xz
CPU 4 runs /home/anubhav/spec_2017/605.mcf_s-1554B.champsimtrace.xz
CPU 5 runs /home/anubhav/spec_2017/605.mcf_s-1554B.champsimtrace.xz
CPU 6 runs /home/anubhav/spec_2017/605.mcf_s-1554B.champsimtrace.xz
CPU 7 runs /home/anubhav/spec_2017/605.mcf_s-1554B.champsimtrace.xz
CPU 0 Bimodal branch predictor
Initialize Hawkeye state
Initialize Hawkeye state
Initialize Hawkeye state
Initialize Hawkeye state
Initialize Hawkeye state
Initialize Hawkeye state
Initialize Hawkeye state
Initialize Hawkeye state
CPU 1 Bimodal branch predictor
Initialize Hawkeye state
Initialize Hawkeye state
Initialize Hawkeye state
Initialize Hawkeye state
Initialize Hawkeye state
Initialize Hawkeye state
Initialize Hawkeye state
Initialize Hawkeye state
CPU 2 Bimodal branch predictor
Initialize Hawkeye state
Initialize Hawkeye state
Initialize Hawkeye state
Initialize Hawkeye state
Initialize Hawkeye state
Initialize Hawkeye state
Initialize Hawkeye state
Initialize Hawkeye state
CPU 3 Bimodal branch predictor
Initialize Hawkeye state
Initialize Hawkeye state
Initialize Hawkeye state
Initialize Hawkeye state
Initialize Hawkeye state
Initialize Hawkeye state
Initialize Hawkeye state
Initialize Hawkeye state
CPU 4 Bimodal branch predictor
Initialize Hawkeye state
Initialize Hawkeye state
Initialize Hawkeye state
Initialize Hawkeye state
Initialize Hawkeye state
Initialize Hawkeye state
Initialize Hawkeye state
Initialize Hawkeye state
CPU 5 Bimodal branch predictor
Initialize Hawkeye state
Initialize Hawkeye state
Initialize Hawkeye state
Initialize Hawkeye state
Initialize Hawkeye state
Initialize Hawkeye state
Initialize Hawkeye state
Initialize Hawkeye state
CPU 6 Bimodal branch predictor
Initialize Hawkeye state
Initialize Hawkeye state
Initialize Hawkeye state
Initialize Hawkeye state
Initialize Hawkeye state
Initialize Hawkeye state
Initialize Hawkeye state
Initialize Hawkeye state
CPU 7 Bimodal branch predictor
Initialize Hawkeye state
Initialize Hawkeye state
Initialize Hawkeye state
Initialize Hawkeye state
Initialize Hawkeye state
Initialize Hawkeye state
Initialize Hawkeye state
Initialize Hawkeye state
Heartbeat CPU 0 instructions: 10000000 cycles: 5939250 heartbeat IPC: 1.68371 cumulative IPC: 1.68371 (Simulation time: 0 hr 55 min 47 sec) 
 Total Blocks : 196608 Invalid Blocks : 0 Valid Blocks : 196608
 Total Tags : 491520 Threshold : 12288 Invalid Tags : 196608 Pr0 Tags : 98304 Pr1 Tags : 196608 num_pr0 : 12288
 SAE Count : 0
 Inter-Core Inteference in Data Store : 2815784
Heartbeat CPU 2 instructions: 10000000 cycles: 5939623 heartbeat IPC: 1.68361 cumulative IPC: 1.68361 (Simulation time: 0 hr 55 min 48 sec) 
 Total Blocks : 196608 Invalid Blocks : 0 Valid Blocks : 196608
 Total Tags : 491520 Threshold : 12288 Invalid Tags : 196608 Pr0 Tags : 98304 Pr1 Tags : 196608 num_pr0 : 12288
 SAE Count : 0
 Inter-Core Inteference in Data Store : 2816075
Heartbeat CPU 3 instructions: 10000000 cycles: 5939670 heartbeat IPC: 1.6836 cumulative IPC: 1.6836 (Simulation time: 0 hr 55 min 48 sec) 
 Total Blocks : 196608 Invalid Blocks : 0 Valid Blocks : 196608
 Total Tags : 491520 Threshold : 12288 Invalid Tags : 196608 Pr0 Tags : 98304 Pr1 Tags : 196608 num_pr0 : 12288
 SAE Count : 0
 Inter-Core Inteference in Data Store : 2816109
Heartbeat CPU 1 instructions: 10000000 cycles: 5939679 heartbeat IPC: 1.68359 cumulative IPC: 1.68359 (Simulation time: 0 hr 55 min 48 sec) 
 Total Blocks : 196608 Invalid Blocks : 0 Valid Blocks : 196608
 Total Tags : 491520 Threshold : 12288 Invalid Tags : 196608 Pr0 Tags : 98304 Pr1 Tags : 196608 num_pr0 : 12288
 SAE Count : 0
 Inter-Core Inteference in Data Store : 2816119
Heartbeat CPU 4 instructions: 10000000 cycles: 5940132 heartbeat IPC: 1.68346 cumulative IPC: 1.68346 (Simulation time: 0 hr 55 min 49 sec) 
 Total Blocks : 196608 Invalid Blocks : 0 Valid Blocks : 196608
 Total Tags : 491520 Threshold : 12288 Invalid Tags : 196608 Pr0 Tags : 98304 Pr1 Tags : 196608 num_pr0 : 12288
 SAE Count : 0
 Inter-Core Inteference in Data Store : 2816459
Heartbeat CPU 5 instructions: 10000000 cycles: 5940245 heartbeat IPC: 1.68343 cumulative IPC: 1.68343 (Simulation time: 0 hr 55 min 49 sec) 
 Total Blocks : 196608 Invalid Blocks : 0 Valid Blocks : 196608
 Total Tags : 491520 Threshold : 12288 Invalid Tags : 196608 Pr0 Tags : 98304 Pr1 Tags : 196608 num_pr0 : 12288
 SAE Count : 0
 Inter-Core Inteference in Data Store : 2816547
Heartbeat CPU 6 instructions: 10000000 cycles: 5940320 heartbeat IPC: 1.68341 cumulative IPC: 1.68341 (Simulation time: 0 hr 55 min 49 sec) 
 Total Blocks : 196608 Invalid Blocks : 0 Valid Blocks : 196608
 Total Tags : 491520 Threshold : 12288 Invalid Tags : 196608 Pr0 Tags : 98304 Pr1 Tags : 196608 num_pr0 : 12288
 SAE Count : 0
 Inter-Core Inteference in Data Store : 2816613
Heartbeat CPU 7 instructions: 10000000 cycles: 5940639 heartbeat IPC: 1.68332 cumulative IPC: 1.68332 (Simulation time: 0 hr 55 min 50 sec) 
 Total Blocks : 196608 Invalid Blocks : 0 Valid Blocks : 196608
 Total Tags : 491520 Threshold : 12288 Invalid Tags : 196608 Pr0 Tags : 98304 Pr1 Tags : 196608 num_pr0 : 12288
 SAE Count : 0
 Inter-Core Inteference in Data Store : 2816842
FILL
Heartbeat CPU 0 instructions: 20000003 cycles: 11785512 heartbeat IPC: 1.7105 cumulative IPC: 1.697 (Simulation time: 1 hr 47 min 45 sec) 
 Total Blocks : 196608 Invalid Blocks : 0 Valid Blocks : 196608
 Total Tags : 491520 Threshold : 12288 Invalid Tags : 196608 Pr0 Tags : 98304 Pr1 Tags : 196608 num_pr0 : 12288
 SAE Count : 0
 Inter-Core Inteference in Data Store : 6372125
Heartbeat CPU 3 instructions: 20000003 cycles: 11786126 heartbeat IPC: 1.71044 cumulative IPC: 1.69691 (Simulation time: 1 hr 47 min 45 sec) 
 Total Blocks : 196608 Invalid Blocks : 0 Valid Blocks : 196608
 Total Tags : 491520 Threshold : 12288 Invalid Tags : 196608 Pr0 Tags : 98304 Pr1 Tags : 196608 num_pr0 : 12288
 SAE Count : 0
 Inter-Core Inteference in Data Store : 6372738
Heartbeat CPU 2 instructions: 20000003 cycles: 11786293 heartbeat IPC: 1.71038 cumulative IPC: 1.69689 (Simulation time: 1 hr 47 min 46 sec) 
 Total Blocks : 196608 Invalid Blocks : 0 Valid Blocks : 196608
 Total Tags : 491520 Threshold : 12288 Invalid Tags : 196608 Pr0 Tags : 98304 Pr1 Tags : 196608 num_pr0 : 12288
 SAE Count : 0
 Inter-Core Inteference in Data Store : 6372893
Heartbeat CPU 1 instructions: 20000003 cycles: 11786432 heartbeat IPC: 1.71035 cumulative IPC: 1.69687 (Simulation time: 1 hr 47 min 46 sec) 
 Total Blocks : 196608 Invalid Blocks : 0 Valid Blocks : 196608
 Total Tags : 491520 Threshold : 12288 Invalid Tags : 196608 Pr0 Tags : 98304 Pr1 Tags : 196608 num_pr0 : 12288
 SAE Count : 0
 Inter-Core Inteference in Data Store : 6373030
Heartbeat CPU 4 instructions: 20000003 cycles: 11787135 heartbeat IPC: 1.71028 cumulative IPC: 1.69677 (Simulation time: 1 hr 47 min 46 sec) 
 Total Blocks : 196608 Invalid Blocks : 0 Valid Blocks : 196608
 Total Tags : 491520 Threshold : 12288 Invalid Tags : 196608 Pr0 Tags : 98304 Pr1 Tags : 196608 num_pr0 : 12288
 SAE Count : 0
 Inter-Core Inteference in Data Store : 6373795
Heartbeat CPU 5 instructions: 20000003 cycles: 11787790 heartbeat IPC: 1.71012 cumulative IPC: 1.69667 (Simulation time: 1 hr 47 min 46 sec) 
 Total Blocks : 196608 Invalid Blocks : 0 Valid Blocks : 196608
 Total Tags : 491520 Threshold : 12288 Invalid Tags : 196608 Pr0 Tags : 98304 Pr1 Tags : 196608 num_pr0 : 12288
 SAE Count : 0
 Inter-Core Inteference in Data Store : 6374490
Heartbeat CPU 6 instructions: 20000003 cycles: 11787880 heartbeat IPC: 1.71012 cumulative IPC: 1.69666 (Simulation time: 1 hr 47 min 46 sec) 
 Total Blocks : 196608 Invalid Blocks : 0 Valid Blocks : 196608
 Total Tags : 491520 Threshold : 12288 Invalid Tags : 196608 Pr0 Tags : 98304 Pr1 Tags : 196608 num_pr0 : 12288
 SAE Count : 0
 Inter-Core Inteference in Data Store : 6374575
Heartbeat CPU 7 instructions: 20000003 cycles: 11788187 heartbeat IPC: 1.71012 cumulative IPC: 1.69661 (Simulation time: 1 hr 47 min 47 sec) 
 Total Blocks : 196608 Invalid Blocks : 0 Valid Blocks : 196608
 Total Tags : 491520 Threshold : 12288 Invalid Tags : 196608 Pr0 Tags : 98304 Pr1 Tags : 196608 num_pr0 : 12288
 SAE Count : 0
 Inter-Core Inteference in Data Store : 6374895
Heartbeat CPU 0 instructions: 30000002 cycles: 17518189 heartbeat IPC: 1.74439 cumulative IPC: 1.71251 (Simulation time: 2 hr 39 min 15 sec) 
 Total Blocks : 196608 Invalid Blocks : 0 Valid Blocks : 196608
 Total Tags : 491520 Threshold : 12288 Invalid Tags : 196608 Pr0 Tags : 98304 Pr1 Tags : 196608 num_pr0 : 12288
 SAE Count : 0
 Inter-Core Inteference in Data Store : 10167004
Heartbeat CPU 3 instructions: 30000002 cycles: 17519293 heartbeat IPC: 1.74424 cumulative IPC: 1.7124 (Simulation time: 2 hr 39 min 16 sec) 
 Total Blocks : 196608 Invalid Blocks : 0 Valid Blocks : 196608
 Total Tags : 491520 Threshold : 12288 Invalid Tags : 196608 Pr0 Tags : 98304 Pr1 Tags : 196608 num_pr0 : 12288
 SAE Count : 0
 Inter-Core Inteference in Data Store : 10167993
Heartbeat CPU 2 instructions: 30000002 cycles: 17519530 heartbeat IPC: 1.74422 cumulative IPC: 1.71237 (Simulation time: 2 hr 39 min 16 sec) 
 Total Blocks : 196608 Invalid Blocks : 0 Valid Blocks : 196608
 Total Tags : 491520 Threshold : 12288 Invalid Tags : 196608 Pr0 Tags : 98304 Pr1 Tags : 196608 num_pr0 : 12288
 SAE Count : 0
 Inter-Core Inteference in Data Store : 10168200
Heartbeat CPU 1 instructions: 30000002 cycles: 17519759 heartbeat IPC: 1.74419 cumulative IPC: 1.71235 (Simulation time: 2 hr 39 min 16 sec) 
 Total Blocks : 196608 Invalid Blocks : 0 Valid Blocks : 196608
 Total Tags : 491520 Threshold : 12288 Invalid Tags : 196608 Pr0 Tags : 98304 Pr1 Tags : 196608 num_pr0 : 12288
 SAE Count : 0
 Inter-Core Inteference in Data Store : 10168422
Heartbeat CPU 4 instructions: 30000002 cycles: 17520758 heartbeat IPC: 1.7441 cumulative IPC: 1.71225 (Simulation time: 2 hr 39 min 17 sec) 
 Total Blocks : 196608 Invalid Blocks : 0 Valid Blocks : 196608
 Total Tags : 491520 Threshold : 12288 Invalid Tags : 196608 Pr0 Tags : 98304 Pr1 Tags : 196608 num_pr0 : 12288
 SAE Count : 0
 Inter-Core Inteference in Data Store : 10169324
Heartbeat CPU 5 instructions: 30000002 cycles: 17521531 heartbeat IPC: 1.74406 cumulative IPC: 1.71218 (Simulation time: 2 hr 39 min 18 sec) 
 Total Blocks : 196608 Invalid Blocks : 0 Valid Blocks : 196608
 Total Tags : 491520 Threshold : 12288 Invalid Tags : 196608 Pr0 Tags : 98304 Pr1 Tags : 196608 num_pr0 : 12288
 SAE Count : 0
 Inter-Core Inteference in Data Store : 10170016
Heartbeat CPU 6 instructions: 30000002 cycles: 17522183 heartbeat IPC: 1.74389 cumulative IPC: 1.71212 (Simulation time: 2 hr 39 min 19 sec) 
 Total Blocks : 196608 Invalid Blocks : 0 Valid Blocks : 196608
 Total Tags : 491520 Threshold : 12288 Invalid Tags : 196608 Pr0 Tags : 98304 Pr1 Tags : 196608 num_pr0 : 12288
 SAE Count : 0
 Inter-Core Inteference in Data Store : 10170580
Heartbeat CPU 7 instructions: 30000002 cycles: 17522732 heartbeat IPC: 1.74382 cumulative IPC: 1.71206 (Simulation time: 2 hr 39 min 19 sec) 
 Total Blocks : 196608 Invalid Blocks : 0 Valid Blocks : 196608
 Total Tags : 491520 Threshold : 12288 Invalid Tags : 196608 Pr0 Tags : 98304 Pr1 Tags : 196608 num_pr0 : 12288
 SAE Count : 0
 Inter-Core Inteference in Data Store : 10171071
Heartbeat CPU 0 instructions: 40000003 cycles: 23335582 heartbeat IPC: 1.71898 cumulative IPC: 1.71412 (Simulation time: 3 hr 29 min 9 sec) 
 Total Blocks : 196608 Invalid Blocks : 0 Valid Blocks : 196608
 Total Tags : 491520 Threshold : 12288 Invalid Tags : 196608 Pr0 Tags : 98304 Pr1 Tags : 196608 num_pr0 : 12288
 SAE Count : 0
 Inter-Core Inteference in Data Store : 13664475
Heartbeat CPU 3 instructions: 40000003 cycles: 23337103 heartbeat IPC: 1.71886 cumulative IPC: 1.71401 (Simulation time: 3 hr 29 min 10 sec) 
 Total Blocks : 196608 Invalid Blocks : 0 Valid Blocks : 196608
 Total Tags : 491520 Threshold : 12288 Invalid Tags : 196608 Pr0 Tags : 98304 Pr1 Tags : 196608 num_pr0 : 12288
 SAE Count : 0
 Inter-Core Inteference in Data Store : 13665654
Heartbeat CPU 2 instructions: 40000003 cycles: 23337303 heartbeat IPC: 1.71887 cumulative IPC: 1.71399 (Simulation time: 3 hr 29 min 10 sec) 
 Total Blocks : 196608 Invalid Blocks : 0 Valid Blocks : 196608
 Total Tags : 491520 Threshold : 12288 Invalid Tags : 196608 Pr0 Tags : 98304 Pr1 Tags : 196608 num_pr0 : 12288
 SAE Count : 0
 Inter-Core Inteference in Data Store : 13665819
Heartbeat CPU 1 instructions: 40000003 cycles: 23337752 heartbeat IPC: 1.71881 cumulative IPC: 1.71396 (Simulation time: 3 hr 29 min 10 sec) 
 Total Blocks : 196608 Invalid Blocks : 0 Valid Blocks : 196608
 Total Tags : 491520 Threshold : 12288 Invalid Tags : 196608 Pr0 Tags : 98304 Pr1 Tags : 196608 num_pr0 : 12288
 SAE Count : 0
 Inter-Core Inteference in Data Store : 13666215
Heartbeat CPU 4 instructions: 40000003 cycles: 23339007 heartbeat IPC: 1.71873 cumulative IPC: 1.71387 (Simulation time: 3 hr 29 min 11 sec) 
 Total Blocks : 196608 Invalid Blocks : 0 Valid Blocks : 196608
 Total Tags : 491520 Threshold : 12288 Invalid Tags : 196608 Pr0 Tags : 98304 Pr1 Tags : 196608 num_pr0 : 12288
 SAE Count : 0
 Inter-Core Inteference in Data Store : 13667187
Heartbeat CPU 5 instructions: 40000003 cycles: 23339921 heartbeat IPC: 1.71869 cumulative IPC: 1.7138 (Simulation time: 3 hr 29 min 12 sec) 
 Total Blocks : 196608 Invalid Blocks : 0 Valid Blocks : 196608
 Total Tags : 491520 Threshold : 12288 Invalid Tags : 196608 Pr0 Tags : 98304 Pr1 Tags : 196608 num_pr0 : 12288
 SAE Count : 0
 Inter-Core Inteference in Data Store : 13667863
Heartbeat CPU 6 instructions: 40000003 cycles: 23340979 heartbeat IPC: 1.71857 cumulative IPC: 1.71372 (Simulation time: 3 hr 29 min 13 sec) 
 Total Blocks : 196608 Invalid Blocks : 0 Valid Blocks : 196608
 Total Tags : 491520 Threshold : 12288 Invalid Tags : 196608 Pr0 Tags : 98304 Pr1 Tags : 196608 num_pr0 : 12288
 SAE Count : 0
 Inter-Core Inteference in Data Store : 13668716
Heartbeat CPU 7 instructions: 40000003 cycles: 23341624 heartbeat IPC: 1.71854 cumulative IPC: 1.71368 (Simulation time: 3 hr 29 min 14 sec) 
 Total Blocks : 196608 Invalid Blocks : 0 Valid Blocks : 196608
 Total Tags : 491520 Threshold : 12288 Invalid Tags : 196608 Pr0 Tags : 98304 Pr1 Tags : 196608 num_pr0 : 12288
 SAE Count : 0
 Inter-Core Inteference in Data Store : 13669207
Heartbeat CPU 0 instructions: 50000003 cycles: 29163027 heartbeat IPC: 1.71602 cumulative IPC: 1.7145 (Simulation time: 4 hr 17 min 38 sec) 
 Total Blocks : 196608 Invalid Blocks : 0 Valid Blocks : 196608
 Total Tags : 491520 Threshold : 12288 Invalid Tags : 196608 Pr0 Tags : 98304 Pr1 Tags : 196608 num_pr0 : 12288
 SAE Count : 0
 Inter-Core Inteference in Data Store : 17130571
Heartbeat CPU 3 instructions: 50000003 cycles: 29164987 heartbeat IPC: 1.71589 cumulative IPC: 1.71438 (Simulation time: 4 hr 17 min 38 sec) 
 Total Blocks : 196608 Invalid Blocks : 0 Valid Blocks : 196608
 Total Tags : 491520 Threshold : 12288 Invalid Tags : 196609 Pr0 Tags : 98303 Pr1 Tags : 196608 num_pr0 : 12288
 SAE Count : 0
 Inter-Core Inteference in Data Store : 17131272
Heartbeat CPU 2 instructions: 50000003 cycles: 29165373 heartbeat IPC: 1.71583 cumulative IPC: 1.71436 (Simulation time: 4 hr 17 min 38 sec) 
 Total Blocks : 196608 Invalid Blocks : 0 Valid Blocks : 196608
 Total Tags : 491520 Threshold : 12288 Invalid Tags : 196608 Pr0 Tags : 98304 Pr1 Tags : 196608 num_pr0 : 12288
 SAE Count : 0
 Inter-Core Inteference in Data Store : 17131406
Heartbeat CPU 1 instructions: 50000003 cycles: 29165820 heartbeat IPC: 1.71583 cumulative IPC: 1.71434 (Simulation time: 4 hr 17 min 39 sec) 
 Total Blocks : 196608 Invalid Blocks : 0 Valid Blocks : 196608
 Total Tags : 491520 Threshold : 12288 Invalid Tags : 196610 Pr0 Tags : 98302 Pr1 Tags : 196608 num_pr0 : 12288
 SAE Count : 0
 Inter-Core Inteference in Data Store : 17131604
Heartbeat CPU 4 instructions: 50000003 cycles: 29167535 heartbeat IPC: 1.7157 cumulative IPC: 1.71423 (Simulation time: 4 hr 17 min 40 sec) 
 Total Blocks : 196608 Invalid Blocks : 0 Valid Blocks : 196608
 Total Tags : 491520 Threshold : 12288 Invalid Tags : 196611 Pr0 Tags : 98301 Pr1 Tags : 196608 num_pr0 : 12287
 SAE Count : 0
 Inter-Core Inteference in Data Store : 17132186
Heartbeat CPU 5 instructions: 50000003 cycles: 29168405 heartbeat IPC: 1.71571 cumulative IPC: 1.71418 (Simulation time: 4 hr 17 min 40 sec) 
 Total Blocks : 196608 Invalid Blocks : 0 Valid Blocks : 196608
 Total Tags : 491520 Threshold : 12288 Invalid Tags : 196610 Pr0 Tags : 98302 Pr1 Tags : 196608 num_pr0 : 12288
 SAE Count : 0
 Inter-Core Inteference in Data Store : 17132513
Heartbeat CPU 6 instructions: 50000003 cycles: 29169651 heartbeat IPC: 1.71566 cumulative IPC: 1.71411 (Simulation time: 4 hr 17 min 41 sec) 
 Total Blocks : 196608 Invalid Blocks : 0 Valid Blocks : 196608
 Total Tags : 491520 Threshold : 12288 Invalid Tags : 196608 Pr0 Tags : 98304 Pr1 Tags : 196608 num_pr0 : 12288
 SAE Count : 0
 Inter-Core Inteference in Data Store : 17133009
Heartbeat CPU 7 instructions: 50000003 cycles: 29170291 heartbeat IPC: 1.71566 cumulative IPC: 1.71407 (Simulation time: 4 hr 17 min 41 sec) 
 Total Blocks : 196608 Invalid Blocks : 0 Valid Blocks : 196608
 Total Tags : 491520 Threshold : 12288 Invalid Tags : 196609 Pr0 Tags : 98303 Pr1 Tags : 196608 num_pr0 : 12288
 SAE Count : 0
 Inter-Core Inteference in Data Store : 17133262
Heartbeat CPU 0 instructions: 60000001 cycles: 34919679 heartbeat IPC: 1.73712 cumulative IPC: 1.71823 (Simulation time: 5 hr 5 min 25 sec) 
 Total Blocks : 196608 Invalid Blocks : 0 Valid Blocks : 196608
 Total Tags : 491520 Threshold : 12288 Invalid Tags : 196608 Pr0 Tags : 98304 Pr1 Tags : 196608 num_pr0 : 12288
 SAE Count : 0
 Inter-Core Inteference in Data Store : 20563253
Heartbeat CPU 3 instructions: 60000001 cycles: 34921417 heartbeat IPC: 1.73719 cumulative IPC: 1.71814 (Simulation time: 5 hr 5 min 26 sec) 
 Total Blocks : 196608 Invalid Blocks : 0 Valid Blocks : 196608
 Total Tags : 491520 Threshold : 12288 Invalid Tags : 196608 Pr0 Tags : 98304 Pr1 Tags : 196608 num_pr0 : 12288
 SAE Count : 0
 Inter-Core Inteference in Data Store : 20564398
Heartbeat CPU 2 instructions: 60000001 cycles: 34922078 heartbeat IPC: 1.7371 cumulative IPC: 1.71811 (Simulation time: 5 hr 5 min 26 sec) 
 Total Blocks : 196608 Invalid Blocks : 0 Valid Blocks : 196608
 Total Tags : 491520 Threshold : 12288 Invalid Tags : 196608 Pr0 Tags : 98304 Pr1 Tags : 196608 num_pr0 : 12288
 SAE Count : 0
 Inter-Core Inteference in Data Store : 20564807
Heartbeat CPU 1 instructions: 60000001 cycles: 34923087 heartbeat IPC: 1.73693 cumulative IPC: 1.71806 (Simulation time: 5 hr 5 min 27 sec) 
 Total Blocks : 196608 Invalid Blocks : 0 Valid Blocks : 196608
 Total Tags : 491520 Threshold : 12288 Invalid Tags : 196608 Pr0 Tags : 98304 Pr1 Tags : 196608 num_pr0 : 12288
 SAE Count : 0
 Inter-Core Inteference in Data Store : 20565496
Heartbeat CPU 4 instructions: 60000001 cycles: 34925011 heartbeat IPC: 1.73687 cumulative IPC: 1.71797 (Simulation time: 5 hr 5 min 29 sec) 
 Total Blocks : 196608 Invalid Blocks : 0 Valid Blocks : 196608
 Total Tags : 491520 Threshold : 12288 Invalid Tags : 196608 Pr0 Tags : 98304 Pr1 Tags : 196608 num_pr0 : 12288
 SAE Count : 0
 Inter-Core Inteference in Data Store : 20566820
Heartbeat CPU 5 instructions: 60000001 cycles: 34925961 heartbeat IPC: 1.73685 cumulative IPC: 1.71792 (Simulation time: 5 hr 5 min 29 sec) 
 Total Blocks : 196608 Invalid Blocks : 0 Valid Blocks : 196608
 Total Tags : 491520 Threshold : 12288 Invalid Tags : 196608 Pr0 Tags : 98304 Pr1 Tags : 196608 num_pr0 : 12288
 SAE Count : 0
 Inter-Core Inteference in Data Store : 20567435
Heartbeat CPU 6 instructions: 60000000 cycles: 34927671 heartbeat IPC: 1.73671 cumulative IPC: 1.71784 (Simulation time: 5 hr 5 min 31 sec) 
 Total Blocks : 196608 Invalid Blocks : 0 Valid Blocks : 196608
 Total Tags : 491520 Threshold : 12288 Invalid Tags : 196608 Pr0 Tags : 98304 Pr1 Tags : 196608 num_pr0 : 12288
 SAE Count : 0
 Inter-Core Inteference in Data Store : 20568573
Heartbeat CPU 7 instructions: 60000001 cycles: 34928116 heartbeat IPC: 1.73677 cumulative IPC: 1.71781 (Simulation time: 5 hr 5 min 31 sec) 
 Total Blocks : 196608 Invalid Blocks : 0 Valid Blocks : 196608
 Total Tags : 491520 Threshold : 12288 Invalid Tags : 196608 Pr0 Tags : 98304 Pr1 Tags : 196608 num_pr0 : 12288
 SAE Count : 0
 Inter-Core Inteference in Data Store : 20568876
Heartbeat CPU 0 instructions: 70000001 cycles: 40793178 heartbeat IPC: 1.70256 cumulative IPC: 1.71597 (Simulation time: 5 hr 54 min 30 sec) 
 Total Blocks : 196608 Invalid Blocks : 0 Valid Blocks : 196608
 Total Tags : 491520 Threshold : 12288 Invalid Tags : 196608 Pr0 Tags : 98304 Pr1 Tags : 196608 num_pr0 : 12288
 SAE Count : 0
 Inter-Core Inteference in Data Store : 23836688
Heartbeat CPU 3 instructions: 70000001 cycles: 40795116 heartbeat IPC: 1.7025 cumulative IPC: 1.71589 (Simulation time: 5 hr 54 min 31 sec) 
 Total Blocks : 196608 Invalid Blocks : 0 Valid Blocks : 196608
 Total Tags : 491520 Threshold : 12288 Invalid Tags : 196608 Pr0 Tags : 98304 Pr1 Tags : 196608 num_pr0 : 12288
 SAE Count : 0
 Inter-Core Inteference in Data Store : 23837673
Heartbeat CPU 2 instructions: 70000001 cycles: 40796045 heartbeat IPC: 1.70243 cumulative IPC: 1.71585 (Simulation time: 5 hr 54 min 32 sec) 
 Total Blocks : 196608 Invalid Blocks : 0 Valid Blocks : 196608
 Total Tags : 491520 Threshold : 12288 Invalid Tags : 196608 Pr0 Tags : 98304 Pr1 Tags : 196608 num_pr0 : 12288
 SAE Count : 0
 Inter-Core Inteference in Data Store : 23838195
Heartbeat CPU 1 instructions: 70000001 cycles: 40797101 heartbeat IPC: 1.70241 cumulative IPC: 1.71581 (Simulation time: 5 hr 54 min 33 sec) 
 Total Blocks : 196608 Invalid Blocks : 0 Valid Blocks : 196608
 Total Tags : 491520 Threshold : 12288 Invalid Tags : 196608 Pr0 Tags : 98304 Pr1 Tags : 196608 num_pr0 : 12288
 SAE Count : 0
 Inter-Core Inteference in Data Store : 23838765
Heartbeat CPU 4 instructions: 70000001 cycles: 40799124 heartbeat IPC: 1.70238 cumulative IPC: 1.71572 (Simulation time: 5 hr 54 min 34 sec) 
 Total Blocks : 196608 Invalid Blocks : 0 Valid Blocks : 196608
 Total Tags : 491520 Threshold : 12288 Invalid Tags : 196608 Pr0 Tags : 98304 Pr1 Tags : 196608 num_pr0 : 12288
 SAE Count : 0
 Inter-Core Inteference in Data Store : 23839775
Heartbeat CPU 5 instructions: 70000001 cycles: 40800519 heartbeat IPC: 1.70226 cumulative IPC: 1.71566 (Simulation time: 5 hr 54 min 35 sec) 
 Total Blocks : 196608 Invalid Blocks : 0 Valid Blocks : 196608
 Total Tags : 491520 Threshold : 12288 Invalid Tags : 196608 Pr0 Tags : 98304 Pr1 Tags : 196608 num_pr0 : 12288
 SAE Count : 0
 Inter-Core Inteference in Data Store : 23840530
Heartbeat CPU 6 instructions: 70000001 cycles: 40801845 heartbeat IPC: 1.70237 cumulative IPC: 1.71561 (Simulation time: 5 hr 54 min 36 sec) 
 Total Blocks : 196608 Invalid Blocks : 0 Valid Blocks : 196608
 Total Tags : 491520 Threshold : 12288 Invalid Tags : 196608 Pr0 Tags : 98304 Pr1 Tags : 196608 num_pr0 : 12288
 SAE Count : 0
 Inter-Core Inteference in Data Store : 23841241
Heartbeat CPU 7 instructions: 70000001 cycles: 40802745 heartbeat IPC: 1.70224 cumulative IPC: 1.71557 (Simulation time: 5 hr 54 min 37 sec) 
 Total Blocks : 196608 Invalid Blocks : 0 Valid Blocks : 196608
 Total Tags : 491520 Threshold : 12288 Invalid Tags : 196608 Pr0 Tags : 98304 Pr1 Tags : 196608 num_pr0 : 12288
 SAE Count : 0
 Inter-Core Inteference in Data Store : 23841712
Heartbeat CPU 0 instructions: 80000000 cycles: 46676785 heartbeat IPC: 1.69964 cumulative IPC: 1.71391 (Simulation time: 6 hr 43 min 37 sec) 
 Total Blocks : 196608 Invalid Blocks : 0 Valid Blocks : 196608
 Total Tags : 491520 Threshold : 12288 Invalid Tags : 196609 Pr0 Tags : 98303 Pr1 Tags : 196608 num_pr0 : 12288
 SAE Count : 0
 Inter-Core Inteference in Data Store : 26956796
Heartbeat CPU 3 instructions: 80000000 cycles: 46679294 heartbeat IPC: 1.69947 cumulative IPC: 1.71382 (Simulation time: 6 hr 43 min 38 sec) 
 Total Blocks : 196608 Invalid Blocks : 0 Valid Blocks : 196608
 Total Tags : 491520 Threshold : 12288 Invalid Tags : 196609 Pr0 Tags : 98303 Pr1 Tags : 196608 num_pr0 : 12288
 SAE Count : 0
 Inter-Core Inteference in Data Store : 26958285
Heartbeat CPU 2 instructions: 80000000 cycles: 46679916 heartbeat IPC: 1.69956 cumulative IPC: 1.7138 (Simulation time: 6 hr 43 min 39 sec) 
 Total Blocks : 196608 Invalid Blocks : 0 Valid Blocks : 196608
 Total Tags : 491520 Threshold : 12288 Invalid Tags : 196608 Pr0 Tags : 98304 Pr1 Tags : 196608 num_pr0 : 12288
 SAE Count : 0
 Inter-Core Inteference in Data Store : 26958660
Heartbeat CPU 1 instructions: 80000000 cycles: 46680995 heartbeat IPC: 1.69955 cumulative IPC: 1.71376 (Simulation time: 6 hr 43 min 39 sec) 
 Total Blocks : 196608 Invalid Blocks : 0 Valid Blocks : 196608
 Total Tags : 491520 Threshold : 12288 Invalid Tags : 196613 Pr0 Tags : 98299 Pr1 Tags : 196608 num_pr0 : 12287
 SAE Count : 0
 Inter-Core Inteference in Data Store : 26959380
Heartbeat CPU 4 instructions: 80000000 cycles: 46683348 heartbeat IPC: 1.69946 cumulative IPC: 1.71367 (Simulation time: 6 hr 43 min 40 sec) 
 Total Blocks : 196608 Invalid Blocks : 0 Valid Blocks : 196608
 Total Tags : 491520 Threshold : 12288 Invalid Tags : 196608 Pr0 Tags : 98304 Pr1 Tags : 196608 num_pr0 : 12288
 SAE Count : 0
 Inter-Core Inteference in Data Store : 26960660
Heartbeat CPU 5 instructions: 80000000 cycles: 46685035 heartbeat IPC: 1.69937 cumulative IPC: 1.71361 (Simulation time: 6 hr 43 min 41 sec) 
 Total Blocks : 196608 Invalid Blocks : 0 Valid Blocks : 196608
 Total Tags : 491520 Threshold : 12288 Invalid Tags : 196609 Pr0 Tags : 98303 Pr1 Tags : 196608 num_pr0 : 12288
 SAE Count : 0
 Inter-Core Inteference in Data Store : 26961647
Heartbeat CPU 6 instructions: 80000000 cycles: 46686618 heartbeat IPC: 1.6993 cumulative IPC: 1.71355 (Simulation time: 6 hr 43 min 42 sec) 
 Total Blocks : 196608 Invalid Blocks : 0 Valid Blocks : 196608
 Total Tags : 491520 Threshold : 12288 Invalid Tags : 196611 Pr0 Tags : 98301 Pr1 Tags : 196608 num_pr0 : 12287
 SAE Count : 0
 Inter-Core Inteference in Data Store : 26962552
Heartbeat CPU 7 instructions: 80000000 cycles: 46687475 heartbeat IPC: 1.69931 cumulative IPC: 1.71352 (Simulation time: 6 hr 43 min 42 sec) 
 Total Blocks : 196608 Invalid Blocks : 0 Valid Blocks : 196608
 Total Tags : 491520 Threshold : 12288 Invalid Tags : 196611 Pr0 Tags : 98301 Pr1 Tags : 196608 num_pr0 : 12288
 SAE Count : 0
 Inter-Core Inteference in Data Store : 26962997
Heartbeat CPU 0 instructions: 90000002 cycles: 52442371 heartbeat IPC: 1.73443 cumulative IPC: 1.71617 (Simulation time: 7 hr 33 min 13 sec) 
 Total Blocks : 196608 Invalid Blocks : 0 Valid Blocks : 196608
 Total Tags : 491520 Threshold : 12288 Invalid Tags : 196608 Pr0 Tags : 98304 Pr1 Tags : 196608 num_pr0 : 12288
 SAE Count : 0
 Inter-Core Inteference in Data Store : 30197541
Heartbeat CPU 3 instructions: 90000002 cycles: 52444548 heartbeat IPC: 1.73453 cumulative IPC: 1.7161 (Simulation time: 7 hr 33 min 14 sec) 
 Total Blocks : 196608 Invalid Blocks : 0 Valid Blocks : 196608
 Total Tags : 491520 Threshold : 12288 Invalid Tags : 196608 Pr0 Tags : 98304 Pr1 Tags : 196608 num_pr0 : 12288
 SAE Count : 0
 Inter-Core Inteference in Data Store : 30199014
Heartbeat CPU 2 instructions: 90000002 cycles: 52445505 heartbeat IPC: 1.73443 cumulative IPC: 1.71607 (Simulation time: 7 hr 33 min 14 sec) 
 Total Blocks : 196608 Invalid Blocks : 0 Valid Blocks : 196608
 Total Tags : 491520 Threshold : 12288 Invalid Tags : 196608 Pr0 Tags : 98304 Pr1 Tags : 196608 num_pr0 : 12288
 SAE Count : 0
 Inter-Core Inteference in Data Store : 30199644
Heartbeat CPU 1 instructions: 90000002 cycles: 52446745 heartbeat IPC: 1.73438 cumulative IPC: 1.71603 (Simulation time: 7 hr 33 min 15 sec) 
 Total Blocks : 196608 Invalid Blocks : 0 Valid Blocks : 196608
 Total Tags : 491520 Threshold : 12288 Invalid Tags : 196608 Pr0 Tags : 98304 Pr1 Tags : 196608 num_pr0 : 12288
 SAE Count : 0
 Inter-Core Inteference in Data Store : 30200488
Heartbeat CPU 4 instructions: 90000002 cycles: 52449323 heartbeat IPC: 1.73431 cumulative IPC: 1.71594 (Simulation time: 7 hr 33 min 16 sec) 
 Total Blocks : 196608 Invalid Blocks : 0 Valid Blocks : 196608
 Total Tags : 491520 Threshold : 12288 Invalid Tags : 196608 Pr0 Tags : 98304 Pr1 Tags : 196608 num_pr0 : 12288
 SAE Count : 0
 Inter-Core Inteference in Data Store : 30202137
Heartbeat CPU 5 instructions: 90000002 cycles: 52451392 heartbeat IPC: 1.7342 cumulative IPC: 1.71587 (Simulation time: 7 hr 33 min 17 sec) 
 Total Blocks : 196608 Invalid Blocks : 0 Valid Blocks : 196608
 Total Tags : 491520 Threshold : 12288 Invalid Tags : 196608 Pr0 Tags : 98304 Pr1 Tags : 196608 num_pr0 : 12288
 SAE Count : 0
 Inter-Core Inteference in Data Store : 30203631
Heartbeat CPU 6 instructions: 90000002 cycles: 52453251 heartbeat IPC: 1.73411 cumulative IPC: 1.71581 (Simulation time: 7 hr 33 min 18 sec) 
 Total Blocks : 196608 Invalid Blocks : 0 Valid Blocks : 196608
 Total Tags : 491520 Threshold : 12288 Invalid Tags : 196608 Pr0 Tags : 98304 Pr1 Tags : 196608 num_pr0 : 12288
 SAE Count : 0
 Inter-Core Inteference in Data Store : 30204903
Heartbeat CPU 7 instructions: 90000002 cycles: 52453802 heartbeat IPC: 1.73421 cumulative IPC: 1.7158 (Simulation time: 7 hr 33 min 18 sec) 
 Total Blocks : 196608 Invalid Blocks : 0 Valid Blocks : 196608
 Total Tags : 491520 Threshold : 12288 Invalid Tags : 196608 Pr0 Tags : 98304 Pr1 Tags : 196608 num_pr0 : 12288
 SAE Count : 0
 Inter-Core Inteference in Data Store : 30205248
Heartbeat CPU 0 instructions: 100000003 cycles: 58192082 heartbeat IPC: 1.73922 cumulative IPC: 1.71845 (Simulation time: 8 hr 21 min 3 sec) 
 Total Blocks : 196608 Invalid Blocks : 0 Valid Blocks : 196608
 Total Tags : 491520 Threshold : 12288 Invalid Tags : 196608 Pr0 Tags : 98304 Pr1 Tags : 196608 num_pr0 : 12288
 SAE Count : 0
 Inter-Core Inteference in Data Store : 33588553
Heartbeat CPU 3 instructions: 100000000 cycles: 58194513 heartbeat IPC: 1.73914 cumulative IPC: 1.71838 (Simulation time: 8 hr 21 min 4 sec) 
 Total Blocks : 196608 Invalid Blocks : 0 Valid Blocks : 196608
 Total Tags : 491520 Threshold : 12288 Invalid Tags : 196608 Pr0 Tags : 98304 Pr1 Tags : 196608 num_pr0 : 12288
 SAE Count : 0
 Inter-Core Inteference in Data Store : 33589888
Heartbeat CPU 2 instructions: 100000003 cycles: 58195855 heartbeat IPC: 1.73902 cumulative IPC: 1.71834 (Simulation time: 8 hr 21 min 5 sec) 
 Total Blocks : 196608 Invalid Blocks : 0 Valid Blocks : 196608
 Total Tags : 491520 Threshold : 12288 Invalid Tags : 196608 Pr0 Tags : 98304 Pr1 Tags : 196608 num_pr0 : 12288
 SAE Count : 0
 Inter-Core Inteference in Data Store : 33590610
Heartbeat CPU 1 instructions: 100000000 cycles: 58197100 heartbeat IPC: 1.73902 cumulative IPC: 1.7183 (Simulation time: 8 hr 21 min 6 sec) 
 Total Blocks : 196608 Invalid Blocks : 0 Valid Blocks : 196608
 Total Tags : 491520 Threshold : 12288 Invalid Tags : 196608 Pr0 Tags : 98304 Pr1 Tags : 196608 num_pr0 : 12288
 SAE Count : 0
 Inter-Core Inteference in Data Store : 33591339
Heartbeat CPU 4 instructions: 100000000 cycles: 58199555 heartbeat IPC: 1.73906 cumulative IPC: 1.71823 (Simulation time: 8 hr 21 min 7 sec) 
 Total Blocks : 196608 Invalid Blocks : 0 Valid Blocks : 196608
 Total Tags : 491520 Threshold : 12288 Invalid Tags : 196608 Pr0 Tags : 98304 Pr1 Tags : 196608 num_pr0 : 12288
 SAE Count : 0
 Inter-Core Inteference in Data Store : 33592735
Heartbeat CPU 5 instructions: 100000000 cycles: 58202293 heartbeat IPC: 1.73886 cumulative IPC: 1.71815 (Simulation time: 8 hr 21 min 8 sec) 
 Total Blocks : 196608 Invalid Blocks : 0 Valid Blocks : 196608
 Total Tags : 491520 Threshold : 12288 Invalid Tags : 196608 Pr0 Tags : 98304 Pr1 Tags : 196608 num_pr0 : 12288
 SAE Count : 0
 Inter-Core Inteference in Data Store : 33594297
Heartbeat CPU 6 instructions: 100000003 cycles: 58204017 heartbeat IPC: 1.7389 cumulative IPC: 1.71809 (Simulation time: 8 hr 21 min 9 sec) 
 Total Blocks : 196608 Invalid Blocks : 0 Valid Blocks : 196608
 Total Tags : 491520 Threshold : 12288 Invalid Tags : 196608 Pr0 Tags : 98304 Pr1 Tags : 196608 num_pr0 : 12288
 SAE Count : 0
 Inter-Core Inteference in Data Store : 33595290
Heartbeat CPU 7 instructions: 100000003 cycles: 58204706 heartbeat IPC: 1.73886 cumulative IPC: 1.71807 (Simulation time: 8 hr 21 min 9 sec) 
 Total Blocks : 196608 Invalid Blocks : 0 Valid Blocks : 196608
 Total Tags : 491520 Threshold : 12288 Invalid Tags : 196608 Pr0 Tags : 98304 Pr1 Tags : 196608 num_pr0 : 12288
 SAE Count : 0
 Inter-Core Inteference in Data Store : 33595674
Heartbeat CPU 0 instructions: 110000000 cycles: 63926359 heartbeat IPC: 1.7439 cumulative IPC: 1.72073 (Simulation time: 9 hr 9 min 33 sec) 
 Total Blocks : 196608 Invalid Blocks : 0 Valid Blocks : 196608
 Total Tags : 491520 Threshold : 12288 Invalid Tags : 196608 Pr0 Tags : 98304 Pr1 Tags : 196608 num_pr0 : 12288
 SAE Count : 0
 Inter-Core Inteference in Data Store : 36798324
Heartbeat CPU 3 instructions: 110000000 cycles: 63929717 heartbeat IPC: 1.74362 cumulative IPC: 1.72064 (Simulation time: 9 hr 9 min 34 sec) 
 Total Blocks : 196608 Invalid Blocks : 0 Valid Blocks : 196608
 Total Tags : 491520 Threshold : 12288 Invalid Tags : 196608 Pr0 Tags : 98304 Pr1 Tags : 196608 num_pr0 : 12288
 SAE Count : 0
 Inter-Core Inteference in Data Store : 36800515
Heartbeat CPU 2 instructions: 110000000 cycles: 63930308 heartbeat IPC: 1.74384 cumulative IPC: 1.72062 (Simulation time: 9 hr 9 min 35 sec) 
 Total Blocks : 196608 Invalid Blocks : 0 Valid Blocks : 196608
 Total Tags : 491520 Threshold : 12288 Invalid Tags : 196608 Pr0 Tags : 98304 Pr1 Tags : 196608 num_pr0 : 12288
 SAE Count : 0
 Inter-Core Inteference in Data Store : 36800888
Heartbeat CPU 1 instructions: 110000000 cycles: 63932566 heartbeat IPC: 1.74354 cumulative IPC: 1.72056 (Simulation time: 9 hr 9 min 36 sec) 
 Total Blocks : 196608 Invalid Blocks : 0 Valid Blocks : 196608
 Total Tags : 491520 Threshold : 12288 Invalid Tags : 196608 Pr0 Tags : 98304 Pr1 Tags : 196608 num_pr0 : 12288
 SAE Count : 0
 Inter-Core Inteference in Data Store : 36802233
Heartbeat CPU 4 instructions: 110000000 cycles: 63934438 heartbeat IPC: 1.74371 cumulative IPC: 1.72051 (Simulation time: 9 hr 9 min 37 sec) 
 Total Blocks : 196608 Invalid Blocks : 0 Valid Blocks : 196608
 Total Tags : 491520 Threshold : 12288 Invalid Tags : 196608 Pr0 Tags : 98304 Pr1 Tags : 196608 num_pr0 : 12288
 SAE Count : 0
 Inter-Core Inteference in Data Store : 36803398
Heartbeat CPU 5 instructions: 110000000 cycles: 63937323 heartbeat IPC: 1.74367 cumulative IPC: 1.72043 (Simulation time: 9 hr 9 min 39 sec) 
 Total Blocks : 196608 Invalid Blocks : 0 Valid Blocks : 196608
 Total Tags : 491520 Threshold : 12288 Invalid Tags : 196608 Pr0 Tags : 98304 Pr1 Tags : 196608 num_pr0 : 12288
 SAE Count : 0
 Inter-Core Inteference in Data Store : 36805128
Heartbeat CPU 6 instructions: 110000000 cycles: 63939375 heartbeat IPC: 1.74357 cumulative IPC: 1.72038 (Simulation time: 9 hr 9 min 39 sec) 
 Total Blocks : 196608 Invalid Blocks : 0 Valid Blocks : 196608
 Total Tags : 491520 Threshold : 12288 Invalid Tags : 196608 Pr0 Tags : 98304 Pr1 Tags : 196608 num_pr0 : 12288
 SAE Count : 0
 Inter-Core Inteference in Data Store : 36806346
Heartbeat CPU 7 instructions: 110000000 cycles: 63940597 heartbeat IPC: 1.74341 cumulative IPC: 1.72035 (Simulation time: 9 hr 9 min 40 sec) 
 Total Blocks : 196608 Invalid Blocks : 0 Valid Blocks : 196608
 Total Tags : 491520 Threshold : 12288 Invalid Tags : 196608 Pr0 Tags : 98304 Pr1 Tags : 196608 num_pr0 : 12288
 SAE Count : 0
 Inter-Core Inteference in Data Store : 36807099
Heartbeat CPU 0 instructions: 120000000 cycles: 69464861 heartbeat IPC: 1.80554 cumulative IPC: 1.72749 (Simulation time: 9 hr 53 min 33 sec) 
 Total Blocks : 196608 Invalid Blocks : 0 Valid Blocks : 196608
 Total Tags : 491520 Threshold : 12288 Invalid Tags : 196608 Pr0 Tags : 98304 Pr1 Tags : 196608 num_pr0 : 12288
 SAE Count : 0
 Inter-Core Inteference in Data Store : 40548070
Heartbeat CPU 3 instructions: 120000000 cycles: 69468143 heartbeat IPC: 1.80557 cumulative IPC: 1.72741 (Simulation time: 9 hr 53 min 34 sec) 
 Total Blocks : 196608 Invalid Blocks : 0 Valid Blocks : 196608
 Total Tags : 491520 Threshold : 12288 Invalid Tags : 196608 Pr0 Tags : 98304 Pr1 Tags : 196608 num_pr0 : 12288
 SAE Count : 0
 Inter-Core Inteference in Data Store : 40549883
Heartbeat CPU 2 instructions: 120000000 cycles: 69468785 heartbeat IPC: 1.80555 cumulative IPC: 1.72739 (Simulation time: 9 hr 53 min 35 sec) 
 Total Blocks : 196608 Invalid Blocks : 0 Valid Blocks : 196608
 Total Tags : 491520 Threshold : 12288 Invalid Tags : 196608 Pr0 Tags : 98304 Pr1 Tags : 196608 num_pr0 : 12288
 SAE Count : 0
 Inter-Core Inteference in Data Store : 40550217
Heartbeat CPU 1 instructions: 120000000 cycles: 69472342 heartbeat IPC: 1.80513 cumulative IPC: 1.72731 (Simulation time: 9 hr 53 min 36 sec) 
 Total Blocks : 196608 Invalid Blocks : 0 Valid Blocks : 196608
 Total Tags : 491520 Threshold : 12288 Invalid Tags : 196608 Pr0 Tags : 98304 Pr1 Tags : 196608 num_pr0 : 12288
 SAE Count : 0
 Inter-Core Inteference in Data Store : 40552117
Heartbeat CPU 4 instructions: 120000000 cycles: 69473417 heartbeat IPC: 1.80539 cumulative IPC: 1.72728 (Simulation time: 9 hr 53 min 37 sec) 
 Total Blocks : 196608 Invalid Blocks : 0 Valid Blocks : 196608
 Total Tags : 491520 Threshold : 12288 Invalid Tags : 196608 Pr0 Tags : 98304 Pr1 Tags : 196608 num_pr0 : 12288
 SAE Count : 0
 Inter-Core Inteference in Data Store : 40552689
Heartbeat CPU 5 instructions: 120000000 cycles: 69477152 heartbeat IPC: 1.80511 cumulative IPC: 1.72719 (Simulation time: 9 hr 53 min 38 sec) 
 Total Blocks : 196608 Invalid Blocks : 0 Valid Blocks : 196608
 Total Tags : 491520 Threshold : 12288 Invalid Tags : 196608 Pr0 Tags : 98304 Pr1 Tags : 196608 num_pr0 : 12288
 SAE Count : 0
 Inter-Core Inteference in Data Store : 40554780
Heartbeat CPU 6 instructions: 120000000 cycles: 69478427 heartbeat IPC: 1.80536 cumulative IPC: 1.72715 (Simulation time: 9 hr 53 min 39 sec) 
 Total Blocks : 196608 Invalid Blocks : 0 Valid Blocks : 196608
 Total Tags : 491520 Threshold : 12288 Invalid Tags : 196608 Pr0 Tags : 98304 Pr1 Tags : 196608 num_pr0 : 12288
 SAE Count : 0
 Inter-Core Inteference in Data Store : 40555491
Heartbeat CPU 7 instructions: 120000000 cycles: 69480347 heartbeat IPC: 1.80514 cumulative IPC: 1.72711 (Simulation time: 9 hr 53 min 40 sec) 
 Total Blocks : 196608 Invalid Blocks : 0 Valid Blocks : 196608
 Total Tags : 491520 Threshold : 12288 Invalid Tags : 196608 Pr0 Tags : 98304 Pr1 Tags : 196608 num_pr0 : 12288
 SAE Count : 0
 Inter-Core Inteference in Data Store : 40556588
Heartbeat CPU 0 instructions: 130000003 cycles: 75152299 heartbeat IPC: 1.75826 cumulative IPC: 1.72982 (Simulation time: 10 hr 39 min 40 sec) 
 Total Blocks : 196608 Invalid Blocks : 0 Valid Blocks : 196608
 Total Tags : 491520 Threshold : 12288 Invalid Tags : 196608 Pr0 Tags : 98304 Pr1 Tags : 196608 num_pr0 : 12288
 SAE Count : 0
 Inter-Core Inteference in Data Store : 43815169
Heartbeat CPU 3 instructions: 130000003 cycles: 75155647 heartbeat IPC: 1.75824 cumulative IPC: 1.72974 (Simulation time: 10 hr 39 min 41 sec) 
 Total Blocks : 196608 Invalid Blocks : 0 Valid Blocks : 196608
 Total Tags : 491520 Threshold : 12288 Invalid Tags : 196609 Pr0 Tags : 98303 Pr1 Tags : 196608 num_pr0 : 12288
 SAE Count : 0
 Inter-Core Inteference in Data Store : 43817258
Heartbeat CPU 2 instructions: 130000003 cycles: 75157026 heartbeat IPC: 1.75801 cumulative IPC: 1.72971 (Simulation time: 10 hr 39 min 42 sec) 
 Total Blocks : 196608 Invalid Blocks : 0 Valid Blocks : 196608
 Total Tags : 491520 Threshold : 12288 Invalid Tags : 196608 Pr0 Tags : 98304 Pr1 Tags : 196608 num_pr0 : 12288
 SAE Count : 0
 Inter-Core Inteference in Data Store : 43818121
Heartbeat CPU 1 instructions: 130000003 cycles: 75161331 heartbeat IPC: 1.75778 cumulative IPC: 1.72961 (Simulation time: 10 hr 39 min 44 sec) 
 Total Blocks : 196608 Invalid Blocks : 0 Valid Blocks : 196608
 Total Tags : 491520 Threshold : 12288 Invalid Tags : 196608 Pr0 Tags : 98304 Pr1 Tags : 196608 num_pr0 : 12288
 SAE Count : 0
 Inter-Core Inteference in Data Store : 43820825
Heartbeat CPU 4 instructions: 130000003 cycles: 75161666 heartbeat IPC: 1.75801 cumulative IPC: 1.72961 (Simulation time: 10 hr 39 min 45 sec) 
 Total Blocks : 196608 Invalid Blocks : 0 Valid Blocks : 196608
 Total Tags : 491520 Threshold : 12288 Invalid Tags : 196608 Pr0 Tags : 98304 Pr1 Tags : 196608 num_pr0 : 12288
 SAE Count : 0
 Inter-Core Inteference in Data Store : 43821066
Heartbeat CPU 5 instructions: 130000003 cycles: 75165756 heartbeat IPC: 1.7579 cumulative IPC: 1.72951 (Simulation time: 10 hr 39 min 46 sec) 
 Total Blocks : 196608 Invalid Blocks : 0 Valid Blocks : 196608
 Total Tags : 491520 Threshold : 12288 Invalid Tags : 196608 Pr0 Tags : 98304 Pr1 Tags : 196608 num_pr0 : 12288
 SAE Count : 0
 Inter-Core Inteference in Data Store : 43823723
Heartbeat CPU 6 instructions: 130000003 cycles: 75168754 heartbeat IPC: 1.75737 cumulative IPC: 1.72944 (Simulation time: 10 hr 39 min 48 sec) 
 Total Blocks : 196608 Invalid Blocks : 0 Valid Blocks : 196608
 Total Tags : 491520 Threshold : 12288 Invalid Tags : 196608 Pr0 Tags : 98304 Pr1 Tags : 196608 num_pr0 : 12288
 SAE Count : 0
 Inter-Core Inteference in Data Store : 43825537
Heartbeat CPU 7 instructions: 130000003 cycles: 75169050 heartbeat IPC: 1.75787 cumulative IPC: 1.72944 (Simulation time: 10 hr 39 min 48 sec) 
 Total Blocks : 196608 Invalid Blocks : 0 Valid Blocks : 196608
 Total Tags : 491520 Threshold : 12288 Invalid Tags : 196608 Pr0 Tags : 98304 Pr1 Tags : 196608 num_pr0 : 12288
 SAE Count : 0
 Inter-Core Inteference in Data Store : 43825729
Heartbeat CPU 0 instructions: 140000003 cycles: 80761384 heartbeat IPC: 1.78282 cumulative IPC: 1.7335 (Simulation time: 11 hr 30 min 32 sec) 
 Total Blocks : 196608 Invalid Blocks : 0 Valid Blocks : 196608
 Total Tags : 491520 Threshold : 12288 Invalid Tags : 196608 Pr0 Tags : 98304 Pr1 Tags : 196608 num_pr0 : 12288
 SAE Count : 0
 Inter-Core Inteference in Data Store : 47230332
Heartbeat CPU 3 instructions: 140000003 cycles: 80765589 heartbeat IPC: 1.78255 cumulative IPC: 1.73341 (Simulation time: 11 hr 30 min 35 sec) 
 Total Blocks : 196608 Invalid Blocks : 0 Valid Blocks : 196608
 Total Tags : 491520 Threshold : 12288 Invalid Tags : 196608 Pr0 Tags : 98304 Pr1 Tags : 196608 num_pr0 : 12288
 SAE Count : 0
 Inter-Core Inteference in Data Store : 47231684
Heartbeat CPU 2 instructions: 140000003 cycles: 80766601 heartbeat IPC: 1.78267 cumulative IPC: 1.73339 (Simulation time: 11 hr 30 min 36 sec) 
 Total Blocks : 196608 Invalid Blocks : 0 Valid Blocks : 196608
 Total Tags : 491520 Threshold : 12288 Invalid Tags : 196608 Pr0 Tags : 98304 Pr1 Tags : 196608 num_pr0 : 12288
 SAE Count : 0
 Inter-Core Inteference in Data Store : 47231989
Heartbeat CPU 1 instructions: 140000003 cycles: 80771576 heartbeat IPC: 1.78245 cumulative IPC: 1.73328 (Simulation time: 11 hr 30 min 40 sec) 
 Total Blocks : 196608 Invalid Blocks : 0 Valid Blocks : 196608
 Total Tags : 491520 Threshold : 12288 Invalid Tags : 196608 Pr0 Tags : 98304 Pr1 Tags : 196608 num_pr0 : 12288
 SAE Count : 0
 Inter-Core Inteference in Data Store : 47233709
Heartbeat CPU 4 instructions: 140000003 cycles: 80771750 heartbeat IPC: 1.7825 cumulative IPC: 1.73328 (Simulation time: 11 hr 30 min 40 sec) 
 Total Blocks : 196608 Invalid Blocks : 0 Valid Blocks : 196608
 Total Tags : 491520 Threshold : 12288 Invalid Tags : 196609 Pr0 Tags : 98303 Pr1 Tags : 196608 num_pr0 : 12288
 SAE Count : 0
 Inter-Core Inteference in Data Store : 47233756
Heartbeat CPU 5 instructions: 140000003 cycles: 80776326 heartbeat IPC: 1.78235 cumulative IPC: 1.73318 (Simulation time: 11 hr 30 min 43 sec) 
 Total Blocks : 196608 Invalid Blocks : 0 Valid Blocks : 196608
 Total Tags : 491520 Threshold : 12288 Invalid Tags : 196608 Pr0 Tags : 98304 Pr1 Tags : 196608 num_pr0 : 12288
 SAE Count : 0
 Inter-Core Inteference in Data Store : 47235324
Heartbeat CPU 6 instructions: 140000003 cycles: 80779192 heartbeat IPC: 1.78239 cumulative IPC: 1.73312 (Simulation time: 11 hr 30 min 44 sec) 
 Total Blocks : 196608 Invalid Blocks : 0 Valid Blocks : 196608
 Total Tags : 491520 Threshold : 12288 Invalid Tags : 196609 Pr0 Tags : 98303 Pr1 Tags : 196608 num_pr0 : 12288
 SAE Count : 0
 Inter-Core Inteference in Data Store : 47236322
Heartbeat CPU 7 instructions: 140000003 cycles: 80779888 heartbeat IPC: 1.78226 cumulative IPC: 1.7331 (Simulation time: 11 hr 30 min 44 sec) 
 Total Blocks : 196608 Invalid Blocks : 0 Valid Blocks : 196608
 Total Tags : 491520 Threshold : 12288 Invalid Tags : 196609 Pr0 Tags : 98303 Pr1 Tags : 196608 num_pr0 : 12288
 SAE Count : 0
 Inter-Core Inteference in Data Store : 47236582
Heartbeat CPU 0 instructions: 150000000 cycles: 86353094 heartbeat IPC: 1.78836 cumulative IPC: 1.73705 (Simulation time: 12 hr 19 min 9 sec) 
 Total Blocks : 196608 Invalid Blocks : 0 Valid Blocks : 196608
 Total Tags : 491520 Threshold : 12288 Invalid Tags : 196608 Pr0 Tags : 98304 Pr1 Tags : 196608 num_pr0 : 12288
 SAE Count : 0
 Inter-Core Inteference in Data Store : 50648182
Heartbeat CPU 3 instructions: 150000000 cycles: 86357237 heartbeat IPC: 1.78838 cumulative IPC: 1.73697 (Simulation time: 12 hr 19 min 11 sec) 
 Total Blocks : 196608 Invalid Blocks : 0 Valid Blocks : 196608
 Total Tags : 491520 Threshold : 12288 Invalid Tags : 196608 Pr0 Tags : 98304 Pr1 Tags : 196608 num_pr0 : 12288
 SAE Count : 0
 Inter-Core Inteference in Data Store : 50651892
Heartbeat CPU 2 instructions: 150000000 cycles: 86358622 heartbeat IPC: 1.78826 cumulative IPC: 1.73694 (Simulation time: 12 hr 19 min 11 sec) 
 Total Blocks : 196608 Invalid Blocks : 0 Valid Blocks : 196608
 Total Tags : 491520 Threshold : 12288 Invalid Tags : 196608 Pr0 Tags : 98304 Pr1 Tags : 196608 num_pr0 : 12288
 SAE Count : 0
 Inter-Core Inteference in Data Store : 50653087
Heartbeat CPU 1 instructions: 150000000 cycles: 86363712 heartbeat IPC: 1.78822 cumulative IPC: 1.73684 (Simulation time: 12 hr 19 min 13 sec) 
 Total Blocks : 196608 Invalid Blocks : 0 Valid Blocks : 196608
 Total Tags : 491520 Threshold : 12288 Invalid Tags : 196608 Pr0 Tags : 98304 Pr1 Tags : 196608 num_pr0 : 12288
 SAE Count : 0
 Inter-Core Inteference in Data Store : 50657553
Heartbeat CPU 4 instructions: 150000000 cycles: 86364224 heartbeat IPC: 1.78812 cumulative IPC: 1.73683 (Simulation time: 12 hr 19 min 13 sec) 
 Total Blocks : 196608 Invalid Blocks : 0 Valid Blocks : 196608
 Total Tags : 491520 Threshold : 12288 Invalid Tags : 196608 Pr0 Tags : 98304 Pr1 Tags : 196608 num_pr0 : 12288
 SAE Count : 0
 Inter-Core Inteference in Data Store : 50657986
Heartbeat CPU 5 instructions: 150000000 cycles: 86368919 heartbeat IPC: 1.78808 cumulative IPC: 1.73674 (Simulation time: 12 hr 19 min 16 sec) 
 Total Blocks : 196608 Invalid Blocks : 0 Valid Blocks : 196608
 Total Tags : 491520 Threshold : 12288 Invalid Tags : 196608 Pr0 Tags : 98304 Pr1 Tags : 196608 num_pr0 : 12288
 SAE Count : 0
 Inter-Core Inteference in Data Store : 50662115
Heartbeat CPU 6 instructions: 150000000 cycles: 86372049 heartbeat IPC: 1.78799 cumulative IPC: 1.73667 (Simulation time: 12 hr 19 min 17 sec) 
 Total Blocks : 196608 Invalid Blocks : 0 Valid Blocks : 196608
 Total Tags : 491520 Threshold : 12288 Invalid Tags : 196608 Pr0 Tags : 98304 Pr1 Tags : 196608 num_pr0 : 12288
 SAE Count : 0
 Inter-Core Inteference in Data Store : 50664955
Heartbeat CPU 7 instructions: 150000000 cycles: 86372690 heartbeat IPC: 1.78801 cumulative IPC: 1.73666 (Simulation time: 12 hr 19 min 18 sec) 
 Total Blocks : 196608 Invalid Blocks : 0 Valid Blocks : 196608
 Total Tags : 491520 Threshold : 12288 Invalid Tags : 196608 Pr0 Tags : 98304 Pr1 Tags : 196608 num_pr0 : 12288
 SAE Count : 0
 Inter-Core Inteference in Data Store : 50665530
Heartbeat CPU 0 instructions: 160000001 cycles: 91767155 heartbeat IPC: 1.84704 cumulative IPC: 1.74354 (Simulation time: 13 hr 4 min 32 sec) 
 Total Blocks : 196608 Invalid Blocks : 0 Valid Blocks : 196608
 Total Tags : 491520 Threshold : 12288 Invalid Tags : 196610 Pr0 Tags : 98302 Pr1 Tags : 196608 num_pr0 : 12287
 SAE Count : 0
 Inter-Core Inteference in Data Store : 55234976
Heartbeat CPU 3 instructions: 160000001 cycles: 91771583 heartbeat IPC: 1.84695 cumulative IPC: 1.74346 (Simulation time: 13 hr 4 min 35 sec) 
 Total Blocks : 196608 Invalid Blocks : 0 Valid Blocks : 196608
 Total Tags : 491520 Threshold : 12288 Invalid Tags : 196610 Pr0 Tags : 98302 Pr1 Tags : 196608 num_pr0 : 12286
 SAE Count : 0
 Inter-Core Inteference in Data Store : 55236340
Heartbeat CPU 2 instructions: 160000001 cycles: 91772999 heartbeat IPC: 1.84693 cumulative IPC: 1.74343 (Simulation time: 13 hr 4 min 35 sec) 
 Total Blocks : 196608 Invalid Blocks : 0 Valid Blocks : 196608
 Total Tags : 491520 Threshold : 12288 Invalid Tags : 196610 Pr0 Tags : 98302 Pr1 Tags : 196608 num_pr0 : 12288
 SAE Count : 0
 Inter-Core Inteference in Data Store : 55236742
Heartbeat CPU 1 instructions: 160000001 cycles: 91778397 heartbeat IPC: 1.84683 cumulative IPC: 1.74333 (Simulation time: 13 hr 4 min 38 sec) 
 Total Blocks : 196608 Invalid Blocks : 0 Valid Blocks : 196608
 Total Tags : 491520 Threshold : 12288 Invalid Tags : 196612 Pr0 Tags : 98300 Pr1 Tags : 196608 num_pr0 : 12288
 SAE Count : 0
 Inter-Core Inteference in Data Store : 55238588
Heartbeat CPU 4 instructions: 160000001 cycles: 91779118 heartbeat IPC: 1.84676 cumulative IPC: 1.74332 (Simulation time: 13 hr 4 min 38 sec) 
 Total Blocks : 196608 Invalid Blocks : 0 Valid Blocks : 196608
 Total Tags : 491520 Threshold : 12288 Invalid Tags : 196611 Pr0 Tags : 98301 Pr1 Tags : 196608 num_pr0 : 12288
 SAE Count : 0
 Inter-Core Inteference in Data Store : 55238868
Heartbeat CPU 5 instructions: 160000001 cycles: 91783810 heartbeat IPC: 1.84676 cumulative IPC: 1.74323 (Simulation time: 13 hr 4 min 40 sec) 
 Total Blocks : 196608 Invalid Blocks : 0 Valid Blocks : 196608
 Total Tags : 491520 Threshold : 12288 Invalid Tags : 196610 Pr0 Tags : 98302 Pr1 Tags : 196608 num_pr0 : 12288
 SAE Count : 0
 Inter-Core Inteference in Data Store : 55240694
Heartbeat CPU 6 instructions: 160000001 cycles: 91787413 heartbeat IPC: 1.8466 cumulative IPC: 1.74316 (Simulation time: 13 hr 4 min 41 sec) 
 Total Blocks : 196608 Invalid Blocks : 0 Valid Blocks : 196608
 Total Tags : 491520 Threshold : 12288 Invalid Tags : 196610 Pr0 Tags : 98302 Pr1 Tags : 196608 num_pr0 : 12288
 SAE Count : 0
 Inter-Core Inteference in Data Store : 55242214
Heartbeat CPU 7 instructions: 160000001 cycles: 91787999 heartbeat IPC: 1.84662 cumulative IPC: 1.74315 (Simulation time: 13 hr 4 min 41 sec) 
 Total Blocks : 196608 Invalid Blocks : 0 Valid Blocks : 196608
 Total Tags : 491520 Threshold : 12288 Invalid Tags : 196609 Pr0 Tags : 98303 Pr1 Tags : 196608 num_pr0 : 12288
 SAE Count : 0
 Inter-Core Inteference in Data Store : 55242478
Heartbeat CPU 0 instructions: 170000002 cycles: 97139957 heartbeat IPC: 1.86123 cumulative IPC: 1.75005 (Simulation time: 13 hr 46 min 56 sec) 
 Total Blocks : 196608 Invalid Blocks : 0 Valid Blocks : 196608
 Total Tags : 491520 Threshold : 12288 Invalid Tags : 196608 Pr0 Tags : 98304 Pr1 Tags : 196608 num_pr0 : 12288
 SAE Count : 0
 Inter-Core Inteference in Data Store : 59336452
Heartbeat CPU 3 instructions: 170000002 cycles: 97144593 heartbeat IPC: 1.86115 cumulative IPC: 1.74997 (Simulation time: 13 hr 46 min 58 sec) 
 Total Blocks : 196608 Invalid Blocks : 0 Valid Blocks : 196608
 Total Tags : 491520 Threshold : 12288 Invalid Tags : 196608 Pr0 Tags : 98304 Pr1 Tags : 196608 num_pr0 : 12288
 SAE Count : 0
 Inter-Core Inteference in Data Store : 59341121
Heartbeat CPU 2 instructions: 170000002 cycles: 97146098 heartbeat IPC: 1.86112 cumulative IPC: 1.74994 (Simulation time: 13 hr 46 min 59 sec) 
 Total Blocks : 196608 Invalid Blocks : 0 Valid Blocks : 196608
 Total Tags : 491520 Threshold : 12288 Invalid Tags : 196608 Pr0 Tags : 98304 Pr1 Tags : 196608 num_pr0 : 12288
 SAE Count : 0
 Inter-Core Inteference in Data Store : 59342728
Heartbeat CPU 1 instructions: 170000002 cycles: 97151778 heartbeat IPC: 1.86103 cumulative IPC: 1.74984 (Simulation time: 13 hr 47 min 1 sec) 
 Total Blocks : 196608 Invalid Blocks : 0 Valid Blocks : 196608
 Total Tags : 491520 Threshold : 12288 Invalid Tags : 196608 Pr0 Tags : 98304 Pr1 Tags : 196608 num_pr0 : 12288
 SAE Count : 0
 Inter-Core Inteference in Data Store : 59349026
Heartbeat CPU 4 instructions: 170000002 cycles: 97152546 heartbeat IPC: 1.86101 cumulative IPC: 1.74983 (Simulation time: 13 hr 47 min 2 sec) 
 Total Blocks : 196608 Invalid Blocks : 0 Valid Blocks : 196608
 Total Tags : 491520 Threshold : 12288 Invalid Tags : 196608 Pr0 Tags : 98304 Pr1 Tags : 196608 num_pr0 : 12288
 SAE Count : 0
 Inter-Core Inteference in Data Store : 59349882
Heartbeat CPU 5 instructions: 170000002 cycles: 97157551 heartbeat IPC: 1.8609 cumulative IPC: 1.74974 (Simulation time: 13 hr 47 min 4 sec) 
 Total Blocks : 196608 Invalid Blocks : 0 Valid Blocks : 196608
 Total Tags : 491520 Threshold : 12288 Invalid Tags : 196608 Pr0 Tags : 98304 Pr1 Tags : 196608 num_pr0 : 12288
 SAE Count : 0
 Inter-Core Inteference in Data Store : 59355352
Heartbeat CPU 6 instructions: 170000002 cycles: 97161232 heartbeat IPC: 1.86087 cumulative IPC: 1.74967 (Simulation time: 13 hr 47 min 7 sec) 
 Total Blocks : 196608 Invalid Blocks : 0 Valid Blocks : 196608
 Total Tags : 491520 Threshold : 12288 Invalid Tags : 196608 Pr0 Tags : 98304 Pr1 Tags : 196608 num_pr0 : 12288
 SAE Count : 0
 Inter-Core Inteference in Data Store : 59359377
Heartbeat CPU 7 instructions: 170000002 cycles: 97162074 heartbeat IPC: 1.86079 cumulative IPC: 1.74965 (Simulation time: 13 hr 47 min 7 sec) 
 Total Blocks : 196608 Invalid Blocks : 0 Valid Blocks : 196608
 Total Tags : 491520 Threshold : 12288 Invalid Tags : 196608 Pr0 Tags : 98304 Pr1 Tags : 196608 num_pr0 : 12288
 SAE Count : 0
 Inter-Core Inteference in Data Store : 59360310
Heartbeat CPU 0 instructions: 180000002 cycles: 102533638 heartbeat IPC: 1.85402 cumulative IPC: 1.75552 (Simulation time: 14 hr 30 min 46 sec) 
 Total Blocks : 196608 Invalid Blocks : 0 Valid Blocks : 196608
 Total Tags : 491520 Threshold : 12288 Invalid Tags : 196608 Pr0 Tags : 98304 Pr1 Tags : 196608 num_pr0 : 12288
 SAE Count : 0
 Inter-Core Inteference in Data Store : 63354971
Heartbeat CPU 3 instructions: 180000002 cycles: 102538714 heartbeat IPC: 1.85387 cumulative IPC: 1.75543 (Simulation time: 14 hr 30 min 48 sec) 
 Total Blocks : 196608 Invalid Blocks : 0 Valid Blocks : 196608
 Total Tags : 491520 Threshold : 12288 Invalid Tags : 196608 Pr0 Tags : 98304 Pr1 Tags : 196608 num_pr0 : 12288
 SAE Count : 0
 Inter-Core Inteference in Data Store : 63359100
Heartbeat CPU 2 instructions: 180000002 cycles: 102539866 heartbeat IPC: 1.85399 cumulative IPC: 1.75541 (Simulation time: 14 hr 30 min 49 sec) 
 Total Blocks : 196608 Invalid Blocks : 0 Valid Blocks : 196608
 Total Tags : 491520 Threshold : 12288 Invalid Tags : 196608 Pr0 Tags : 98304 Pr1 Tags : 196608 num_pr0 : 12288
 SAE Count : 0
 Inter-Core Inteference in Data Store : 63360063
Heartbeat CPU 1 instructions: 180000002 cycles: 102546070 heartbeat IPC: 1.85381 cumulative IPC: 1.75531 (Simulation time: 14 hr 30 min 51 sec) 
 Total Blocks : 196608 Invalid Blocks : 0 Valid Blocks : 196608
 Total Tags : 491520 Threshold : 12288 Invalid Tags : 196608 Pr0 Tags : 98304 Pr1 Tags : 196608 num_pr0 : 12288
 SAE Count : 0
 Inter-Core Inteference in Data Store : 63365210
Heartbeat CPU 4 instructions: 180000002 cycles: 102546911 heartbeat IPC: 1.85379 cumulative IPC: 1.75529 (Simulation time: 14 hr 30 min 52 sec) 
 Total Blocks : 196608 Invalid Blocks : 0 Valid Blocks : 196608
 Total Tags : 491520 Threshold : 12288 Invalid Tags : 196608 Pr0 Tags : 98304 Pr1 Tags : 196608 num_pr0 : 12288
 SAE Count : 0
 Inter-Core Inteference in Data Store : 63365920
Heartbeat CPU 5 instructions: 180000002 cycles: 102552016 heartbeat IPC: 1.85375 cumulative IPC: 1.75521 (Simulation time: 14 hr 30 min 54 sec) 
 Total Blocks : 196608 Invalid Blocks : 0 Valid Blocks : 196608
 Total Tags : 491520 Threshold : 12288 Invalid Tags : 196608 Pr0 Tags : 98304 Pr1 Tags : 196608 num_pr0 : 12288
 SAE Count : 0
 Inter-Core Inteference in Data Store : 63370097
Heartbeat CPU 6 instructions: 180000002 cycles: 102556217 heartbeat IPC: 1.85357 cumulative IPC: 1.75513 (Simulation time: 14 hr 30 min 55 sec) 
 Total Blocks : 196608 Invalid Blocks : 0 Valid Blocks : 196608
 Total Tags : 491520 Threshold : 12288 Invalid Tags : 196608 Pr0 Tags : 98304 Pr1 Tags : 196608 num_pr0 : 12288
 SAE Count : 0
 Inter-Core Inteference in Data Store : 63373561
Heartbeat CPU 7 instructions: 180000002 cycles: 102557162 heartbeat IPC: 1.85354 cumulative IPC: 1.75512 (Simulation time: 14 hr 30 min 56 sec) 
 Total Blocks : 196608 Invalid Blocks : 0 Valid Blocks : 196608
 Total Tags : 491520 Threshold : 12288 Invalid Tags : 196608 Pr0 Tags : 98304 Pr1 Tags : 196608 num_pr0 : 12288
 SAE Count : 0
 Inter-Core Inteference in Data Store : 63374453
Heartbeat CPU 0 instructions: 190000000 cycles: 107973488 heartbeat IPC: 1.83829 cumulative IPC: 1.75969 (Simulation time: 15 hr 10 min 18 sec) 
 Total Blocks : 196608 Invalid Blocks : 0 Valid Blocks : 196608
 Total Tags : 491520 Threshold : 12288 Invalid Tags : 196608 Pr0 Tags : 98304 Pr1 Tags : 196608 num_pr0 : 12288
 SAE Count : 0
 Inter-Core Inteference in Data Store : 67429542
Heartbeat CPU 3 instructions: 190000000 cycles: 107978610 heartbeat IPC: 1.83827 cumulative IPC: 1.75961 (Simulation time: 15 hr 10 min 21 sec) 
 Total Blocks : 196608 Invalid Blocks : 0 Valid Blocks : 196608
 Total Tags : 491520 Threshold : 12288 Invalid Tags : 196608 Pr0 Tags : 98304 Pr1 Tags : 196608 num_pr0 : 12288
 SAE Count : 0
 Inter-Core Inteference in Data Store : 67435131
Heartbeat CPU 2 instructions: 190000000 cycles: 107980051 heartbeat IPC: 1.83817 cumulative IPC: 1.75958 (Simulation time: 15 hr 10 min 21 sec) 
 Total Blocks : 196608 Invalid Blocks : 0 Valid Blocks : 196608
 Total Tags : 491520 Threshold : 12288 Invalid Tags : 196608 Pr0 Tags : 98304 Pr1 Tags : 196608 num_pr0 : 12288
 SAE Count : 0
 Inter-Core Inteference in Data Store : 67436670
Heartbeat CPU 1 instructions: 190000000 cycles: 107986758 heartbeat IPC: 1.838 cumulative IPC: 1.75947 (Simulation time: 15 hr 10 min 25 sec) 
 Total Blocks : 196608 Invalid Blocks : 0 Valid Blocks : 196608
 Total Tags : 491520 Threshold : 12288 Invalid Tags : 196608 Pr0 Tags : 98304 Pr1 Tags : 196608 num_pr0 : 12288
 SAE Count : 0
 Inter-Core Inteference in Data Store : 67443825
Heartbeat CPU 4 instructions: 190000000 cycles: 107987982 heartbeat IPC: 1.83787 cumulative IPC: 1.75946 (Simulation time: 15 hr 10 min 26 sec) 
 Total Blocks : 196608 Invalid Blocks : 0 Valid Blocks : 196608
 Total Tags : 491520 Threshold : 12288 Invalid Tags : 196608 Pr0 Tags : 98304 Pr1 Tags : 196608 num_pr0 : 12288
 SAE Count : 0
 Inter-Core Inteference in Data Store : 67445260
Heartbeat CPU 5 instructions: 190000000 cycles: 107993147 heartbeat IPC: 1.83785 cumulative IPC: 1.75937 (Simulation time: 15 hr 10 min 28 sec) 
 Total Blocks : 196608 Invalid Blocks : 0 Valid Blocks : 196608
 Total Tags : 491520 Threshold : 12288 Invalid Tags : 196608 Pr0 Tags : 98304 Pr1 Tags : 196608 num_pr0 : 12288
 SAE Count : 0
 Inter-Core Inteference in Data Store : 67450909
Heartbeat CPU 6 instructions: 190000000 cycles: 107997221 heartbeat IPC: 1.8379 cumulative IPC: 1.7593 (Simulation time: 15 hr 10 min 31 sec) 
 Total Blocks : 196608 Invalid Blocks : 0 Valid Blocks : 196608
 Total Tags : 491520 Threshold : 12288 Invalid Tags : 196608 Pr0 Tags : 98304 Pr1 Tags : 196608 num_pr0 : 12288
 SAE Count : 0
 Inter-Core Inteference in Data Store : 67454942
Heartbeat CPU 7 instructions: 190000000 cycles: 107998319 heartbeat IPC: 1.83784 cumulative IPC: 1.75929 (Simulation time: 15 hr 10 min 31 sec) 
 Total Blocks : 196608 Invalid Blocks : 0 Valid Blocks : 196608
 Total Tags : 491520 Threshold : 12288 Invalid Tags : 196608 Pr0 Tags : 98304 Pr1 Tags : 196608 num_pr0 : 12288
 SAE Count : 0
 Inter-Core Inteference in Data Store : 67455909
Heartbeat CPU 0 instructions: 200000001 cycles: 113289613 heartbeat IPC: 1.88107 cumulative IPC: 1.76539 (Simulation time: 15 hr 49 min 36 sec) 
 Total Blocks : 196608 Invalid Blocks : 0 Valid Blocks : 196608
 Total Tags : 491520 Threshold : 12288 Invalid Tags : 196608 Pr0 Tags : 98304 Pr1 Tags : 196608 num_pr0 : 12288
 SAE Count : 0
 Inter-Core Inteference in Data Store : 71814796
Heartbeat CPU 3 instructions: 200000001 cycles: 113295088 heartbeat IPC: 1.88094 cumulative IPC: 1.7653 (Simulation time: 15 hr 49 min 39 sec) 
 Total Blocks : 196608 Invalid Blocks : 0 Valid Blocks : 196608
 Total Tags : 491520 Threshold : 12288 Invalid Tags : 196608 Pr0 Tags : 98304 Pr1 Tags : 196608 num_pr0 : 12288
 SAE Count : 0
 Inter-Core Inteference in Data Store : 71818198
Heartbeat CPU 2 instructions: 200000001 cycles: 113296431 heartbeat IPC: 1.88098 cumulative IPC: 1.76528 (Simulation time: 15 hr 49 min 40 sec) 
 Total Blocks : 196608 Invalid Blocks : 0 Valid Blocks : 196608
 Total Tags : 491520 Threshold : 12288 Invalid Tags : 196608 Pr0 Tags : 98304 Pr1 Tags : 196608 num_pr0 : 12288
 SAE Count : 0
 Inter-Core Inteference in Data Store : 71819017
Heartbeat CPU 1 instructions: 200000001 cycles: 113303346 heartbeat IPC: 1.88091 cumulative IPC: 1.76517 (Simulation time: 15 hr 49 min 43 sec) 
 Total Blocks : 196608 Invalid Blocks : 0 Valid Blocks : 196608
 Total Tags : 491520 Threshold : 12288 Invalid Tags : 196608 Pr0 Tags : 98304 Pr1 Tags : 196608 num_pr0 : 12288
 SAE Count : 0
 Inter-Core Inteference in Data Store : 71823298
Heartbeat CPU 4 instructions: 200000001 cycles: 113305448 heartbeat IPC: 1.8806 cumulative IPC: 1.76514 (Simulation time: 15 hr 49 min 44 sec) 
 Total Blocks : 196608 Invalid Blocks : 0 Valid Blocks : 196608
 Total Tags : 491520 Threshold : 12288 Invalid Tags : 196608 Pr0 Tags : 98304 Pr1 Tags : 196608 num_pr0 : 12288
 SAE Count : 0
 Inter-Core Inteference in Data Store : 71824608
Heartbeat CPU 5 instructions: 200000001 cycles: 113310319 heartbeat IPC: 1.8807 cumulative IPC: 1.76506 (Simulation time: 15 hr 49 min 47 sec) 
 Total Blocks : 196608 Invalid Blocks : 0 Valid Blocks : 196608
 Total Tags : 491520 Threshold : 12288 Invalid Tags : 196608 Pr0 Tags : 98304 Pr1 Tags : 196608 num_pr0 : 12288
 SAE Count : 0
 Inter-Core Inteference in Data Store : 71827643
Heartbeat CPU 6 instructions: 200000001 cycles: 113314459 heartbeat IPC: 1.88068 cumulative IPC: 1.765 (Simulation time: 15 hr 49 min 49 sec) 
 Total Blocks : 196608 Invalid Blocks : 0 Valid Blocks : 196608
 Total Tags : 491520 Threshold : 12288 Invalid Tags : 196608 Pr0 Tags : 98304 Pr1 Tags : 196608 num_pr0 : 12288
 SAE Count : 0
 Inter-Core Inteference in Data Store : 71830420
Heartbeat CPU 7 instructions: 200000001 cycles: 113315691 heartbeat IPC: 1.88063 cumulative IPC: 1.76498 (Simulation time: 15 hr 49 min 49 sec) 
 Total Blocks : 196608 Invalid Blocks : 0 Valid Blocks : 196608
 Total Tags : 491520 Threshold : 12288 Invalid Tags : 196608 Pr0 Tags : 98304 Pr1 Tags : 196608 num_pr0 : 12288
 SAE Count : 0
 Inter-Core Inteference in Data Store : 71831157

Warmup complete CPU 0 instructions: 200052632 cycles: 113315691 (Simulation time: 15 hr 49 min 49 sec) 
Warmup complete CPU 1 instructions: 200025909 cycles: 113315691 (Simulation time: 15 hr 49 min 49 sec) 
Warmup complete CPU 2 instructions: 200040475 cycles: 113315691 (Simulation time: 15 hr 49 min 49 sec) 
Warmup complete CPU 3 instructions: 200043360 cycles: 113315691 (Simulation time: 15 hr 49 min 49 sec) 
Warmup complete CPU 4 instructions: 200021484 cycles: 113315691 (Simulation time: 15 hr 49 min 49 sec) 
Warmup complete CPU 5 instructions: 200011245 cycles: 113315691 (Simulation time: 15 hr 49 min 49 sec) 
Warmup complete CPU 6 instructions: 200002549 cycles: 113315691 (Simulation time: 15 hr 49 min 49 sec) 
Warmup complete CPU 7 instructions: 200000001 cycles: 113315691 (Simulation time: 15 hr 49 min 49 sec) 

Heartbeat CPU 3 instructions: 210000000 cycles: 189928608 heartbeat IPC: 0.130491 cumulative IPC: 0.12996 (Simulation time: 17 hr 12 min 18 sec) 
 Total Blocks : 196608 Invalid Blocks : 0 Valid Blocks : 196608
 Total Tags : 491520 Threshold : 12288 Invalid Tags : 196608 Pr0 Tags : 98304 Pr1 Tags : 196608 num_pr0 : 12288
 SAE Count : 0
 Inter-Core Inteference in Data Store : 2022784
Heartbeat CPU 5 instructions: 210000000 cycles: 190860455 heartbeat IPC: 0.128949 cumulative IPC: 0.128813 (Simulation time: 17 hr 13 min 20 sec) 
 Total Blocks : 196608 Invalid Blocks : 0 Valid Blocks : 196608
 Total Tags : 491520 Threshold : 12288 Invalid Tags : 196608 Pr0 Tags : 98304 Pr1 Tags : 196608 num_pr0 : 12288
 SAE Count : 0
 Inter-Core Inteference in Data Store : 2043661
Heartbeat CPU 0 instructions: 210000000 cycles: 191611539 heartbeat IPC: 0.127678 cumulative IPC: 0.127048 (Simulation time: 17 hr 14 min 8 sec) 
 Total Blocks : 196608 Invalid Blocks : 0 Valid Blocks : 196608
 Total Tags : 491520 Threshold : 12288 Invalid Tags : 196608 Pr0 Tags : 98304 Pr1 Tags : 196608 num_pr0 : 12288
 SAE Count : 0
 Inter-Core Inteference in Data Store : 2060891
Heartbeat CPU 7 instructions: 210000000 cycles: 191656341 heartbeat IPC: 0.127648 cumulative IPC: 0.127648 (Simulation time: 17 hr 14 min 11 sec) 
 Total Blocks : 196608 Invalid Blocks : 0 Valid Blocks : 196608
 Total Tags : 491520 Threshold : 12288 Invalid Tags : 196608 Pr0 Tags : 98304 Pr1 Tags : 196608 num_pr0 : 12288
 SAE Count : 0
 Inter-Core Inteference in Data Store : 2062031
Heartbeat CPU 4 instructions: 210000000 cycles: 191847952 heartbeat IPC: 0.12732 cumulative IPC: 0.127063 (Simulation time: 17 hr 14 min 22 sec) 
 Total Blocks : 196608 Invalid Blocks : 0 Valid Blocks : 196608
 Total Tags : 491520 Threshold : 12288 Invalid Tags : 196608 Pr0 Tags : 98304 Pr1 Tags : 196608 num_pr0 : 12288
 SAE Count : 0
 Inter-Core Inteference in Data Store : 2066439
Heartbeat CPU 2 instructions: 210000000 cycles: 191955812 heartbeat IPC: 0.12713 cumulative IPC: 0.126647 (Simulation time: 17 hr 14 min 27 sec) 
 Total Blocks : 196608 Invalid Blocks : 0 Valid Blocks : 196608
 Total Tags : 491520 Threshold : 12288 Invalid Tags : 196608 Pr0 Tags : 98304 Pr1 Tags : 196608 num_pr0 : 12288
 SAE Count : 0
 Inter-Core Inteference in Data Store : 2069039
Heartbeat CPU 1 instructions: 210000000 cycles: 192258784 heartbeat IPC: 0.126654 cumulative IPC: 0.126345 (Simulation time: 17 hr 14 min 48 sec) 
 Total Blocks : 196608 Invalid Blocks : 0 Valid Blocks : 196608
 Total Tags : 491520 Threshold : 12288 Invalid Tags : 196608 Pr0 Tags : 98304 Pr1 Tags : 196608 num_pr0 : 12288
 SAE Count : 0
 Inter-Core Inteference in Data Store : 2076273
Heartbeat CPU 6 instructions: 210000000 cycles: 192518540 heartbeat IPC: 0.126256 cumulative IPC: 0.126226 (Simulation time: 17 hr 15 min 5 sec) 
 Total Blocks : 196608 Invalid Blocks : 0 Valid Blocks : 196608
 Total Tags : 491520 Threshold : 12288 Invalid Tags : 196608 Pr0 Tags : 98304 Pr1 Tags : 196608 num_pr0 : 12288
 SAE Count : 0
 Inter-Core Inteference in Data Store : 2082524
Heartbeat CPU 3 instructions: 220000000 cycles: 270627855 heartbeat IPC: 0.123917 cumulative IPC: 0.12686 (Simulation time: 18 hr 36 min 29 sec) 
 Total Blocks : 196608 Invalid Blocks : 0 Valid Blocks : 196608
 Total Tags : 491520 Threshold : 12288 Invalid Tags : 196608 Pr0 Tags : 98304 Pr1 Tags : 196608 num_pr0 : 12288
 SAE Count : 0
 Inter-Core Inteference in Data Store : 3888949
Heartbeat CPU 7 instructions: 220000000 cycles: 271962109 heartbeat IPC: 0.124524 cumulative IPC: 0.126067 (Simulation time: 18 hr 37 min 49 sec) 
 Total Blocks : 196608 Invalid Blocks : 0 Valid Blocks : 196608
 Total Tags : 491520 Threshold : 12288 Invalid Tags : 196608 Pr0 Tags : 98304 Pr1 Tags : 196608 num_pr0 : 12288
 SAE Count : 0
 Inter-Core Inteference in Data Store : 3933874
Heartbeat CPU 5 instructions: 220000000 cycles: 272156087 heartbeat IPC: 0.123008 cumulative IPC: 0.125842 (Simulation time: 18 hr 38 min 0 sec) 
 Total Blocks : 196608 Invalid Blocks : 0 Valid Blocks : 196608
 Total Tags : 491520 Threshold : 12288 Invalid Tags : 196608 Pr0 Tags : 98304 Pr1 Tags : 196608 num_pr0 : 12288
 SAE Count : 0
 Inter-Core Inteference in Data Store : 3940252
Heartbeat CPU 0 instructions: 220000000 cycles: 272186196 heartbeat IPC: 0.124109 cumulative IPC: 0.125557 (Simulation time: 18 hr 38 min 2 sec) 
 Total Blocks : 196608 Invalid Blocks : 0 Valid Blocks : 196608
 Total Tags : 491520 Threshold : 12288 Invalid Tags : 196608 Pr0 Tags : 98304 Pr1 Tags : 196608 num_pr0 : 12288
 SAE Count : 0
 Inter-Core Inteference in Data Store : 3941230
Heartbeat CPU 4 instructions: 220000000 cycles: 273164219 heartbeat IPC: 0.122977 cumulative IPC: 0.124984 (Simulation time: 18 hr 39 min 7 sec) 
 Total Blocks : 196608 Invalid Blocks : 0 Valid Blocks : 196608
 Total Tags : 491520 Threshold : 12288 Invalid Tags : 196608 Pr0 Tags : 98304 Pr1 Tags : 196608 num_pr0 : 12288
 SAE Count : 0
 Inter-Core Inteference in Data Store : 3974851
Heartbeat CPU 2 instructions: 220000000 cycles: 273456269 heartbeat IPC: 0.122699 cumulative IPC: 0.124638 (Simulation time: 18 hr 39 min 25 sec) 
 Total Blocks : 196608 Invalid Blocks : 0 Valid Blocks : 196608
 Total Tags : 491520 Threshold : 12288 Invalid Tags : 196608 Pr0 Tags : 98304 Pr1 Tags : 196608 num_pr0 : 12288
 SAE Count : 0
 Inter-Core Inteference in Data Store : 3984690
Heartbeat CPU 1 instructions: 220000000 cycles: 273735417 heartbeat IPC: 0.122735 cumulative IPC: 0.124511 (Simulation time: 18 hr 39 min 41 sec) 
 Total Blocks : 196608 Invalid Blocks : 0 Valid Blocks : 196608
 Total Tags : 491520 Threshold : 12288 Invalid Tags : 196608 Pr0 Tags : 98304 Pr1 Tags : 196608 num_pr0 : 12288
 SAE Count : 0
 Inter-Core Inteference in Data Store : 3993900
Heartbeat CPU 6 instructions: 220000000 cycles: 274173240 heartbeat IPC: 0.122467 cumulative IPC: 0.124318 (Simulation time: 18 hr 40 min 4 sec) 
 Total Blocks : 196608 Invalid Blocks : 0 Valid Blocks : 196608
 Total Tags : 491520 Threshold : 12288 Invalid Tags : 196608 Pr0 Tags : 98304 Pr1 Tags : 196608 num_pr0 : 12288
 SAE Count : 0
 Inter-Core Inteference in Data Store : 4008270
Heartbeat CPU 3 instructions: 230000000 cycles: 346818042 heartbeat IPC: 0.131251 cumulative IPC: 0.128293 (Simulation time: 19 hr 51 min 46 sec) 
 Total Blocks : 196608 Invalid Blocks : 0 Valid Blocks : 196608
 Total Tags : 491520 Threshold : 12288 Invalid Tags : 196608 Pr0 Tags : 98304 Pr1 Tags : 196608 num_pr0 : 12288
 SAE Count : 0
 Inter-Core Inteference in Data Store : 6103219
Heartbeat CPU 0 instructions: 230000000 cycles: 348264760 heartbeat IPC: 0.131443 cumulative IPC: 0.127463 (Simulation time: 19 hr 53 min 7 sec) 
 Total Blocks : 196608 Invalid Blocks : 0 Valid Blocks : 196608
 Total Tags : 491520 Threshold : 12288 Invalid Tags : 196608 Pr0 Tags : 98304 Pr1 Tags : 196608 num_pr0 : 12288
 SAE Count : 0
 Inter-Core Inteference in Data Store : 6143557
Heartbeat CPU 5 instructions: 230000000 cycles: 348577108 heartbeat IPC: 0.130854 cumulative IPC: 0.12747 (Simulation time: 19 hr 53 min 23 sec) 
 Total Blocks : 196608 Invalid Blocks : 0 Valid Blocks : 196608
 Total Tags : 491520 Threshold : 12288 Invalid Tags : 196608 Pr0 Tags : 98304 Pr1 Tags : 196608 num_pr0 : 12288
 SAE Count : 0
 Inter-Core Inteference in Data Store : 6151958
Heartbeat CPU 7 instructions: 230000000 cycles: 349407523 heartbeat IPC: 0.129123 cumulative IPC: 0.127069 (Simulation time: 19 hr 54 min 9 sec) 
 Total Blocks : 196608 Invalid Blocks : 0 Valid Blocks : 196608
 Total Tags : 491520 Threshold : 12288 Invalid Tags : 196608 Pr0 Tags : 98304 Pr1 Tags : 196608 num_pr0 : 12288
 SAE Count : 0
 Inter-Core Inteference in Data Store : 6175545
Heartbeat CPU 4 instructions: 230000000 cycles: 350543533 heartbeat IPC: 0.129234 cumulative IPC: 0.12637 (Simulation time: 19 hr 55 min 12 sec) 
 Total Blocks : 196608 Invalid Blocks : 0 Valid Blocks : 196608
 Total Tags : 491520 Threshold : 12288 Invalid Tags : 196608 Pr0 Tags : 98304 Pr1 Tags : 196608 num_pr0 : 12288
 SAE Count : 0
 Inter-Core Inteference in Data Store : 6208237
Heartbeat CPU 1 instructions: 230000000 cycles: 350672690 heartbeat IPC: 0.129976 cumulative IPC: 0.126283 (Simulation time: 19 hr 55 min 19 sec) 
 Total Blocks : 196608 Invalid Blocks : 0 Valid Blocks : 196608
 Total Tags : 491520 Threshold : 12288 Invalid Tags : 196608 Pr0 Tags : 98304 Pr1 Tags : 196608 num_pr0 : 12288
 SAE Count : 0
 Inter-Core Inteference in Data Store : 6212065
Heartbeat CPU 2 instructions: 230000000 cycles: 351028434 heartbeat IPC: 0.128912 cumulative IPC: 0.126032 (Simulation time: 19 hr 55 min 40 sec) 
 Total Blocks : 196608 Invalid Blocks : 0 Valid Blocks : 196608
 Total Tags : 491520 Threshold : 12288 Invalid Tags : 196608 Pr0 Tags : 98304 Pr1 Tags : 196608 num_pr0 : 12288
 SAE Count : 0
 Inter-Core Inteference in Data Store : 6222645
Heartbeat CPU 6 instructions: 230000000 cycles: 352106584 heartbeat IPC: 0.128315 cumulative IPC: 0.125622 (Simulation time: 19 hr 56 min 45 sec) 
 Total Blocks : 196608 Invalid Blocks : 0 Valid Blocks : 196608
 Total Tags : 491520 Threshold : 12288 Invalid Tags : 196608 Pr0 Tags : 98304 Pr1 Tags : 196608 num_pr0 : 12288
 SAE Count : 0
 Inter-Core Inteference in Data Store : 6255596
Heartbeat CPU 3 instructions: 240000001 cycles: 423972352 heartbeat IPC: 0.12961 cumulative IPC: 0.12862 (Simulation time: 21 hr 4 min 10 sec) 
 Total Blocks : 196608 Invalid Blocks : 0 Valid Blocks : 196608
 Total Tags : 491520 Threshold : 12288 Invalid Tags : 196610 Pr0 Tags : 98302 Pr1 Tags : 196608 num_pr0 : 12288
 SAE Count : 0
 Inter-Core Inteference in Data Store : 8063890
Heartbeat CPU 0 instructions: 240000001 cycles: 425989921 heartbeat IPC: 0.128658 cumulative IPC: 0.12776 (Simulation time: 21 hr 6 min 29 sec) 
 Total Blocks : 196608 Invalid Blocks : 0 Valid Blocks : 196608
 Total Tags : 491520 Threshold : 12288 Invalid Tags : 196609 Pr0 Tags : 98303 Pr1 Tags : 196608 num_pr0 : 12288
 SAE Count : 0
 Inter-Core Inteference in Data Store : 8117420
Heartbeat CPU 5 instructions: 240000001 cycles: 426294921 heartbeat IPC: 0.128671 cumulative IPC: 0.127768 (Simulation time: 21 hr 6 min 50 sec) 
 Total Blocks : 196608 Invalid Blocks : 0 Valid Blocks : 196608
 Total Tags : 491520 Threshold : 12288 Invalid Tags : 196610 Pr0 Tags : 98302 Pr1 Tags : 196608 num_pr0 : 12288
 SAE Count : 0
 Inter-Core Inteference in Data Store : 8124130
Heartbeat CPU 7 instructions: 240000001 cycles: 427367342 heartbeat IPC: 0.128271 cumulative IPC: 0.127368 (Simulation time: 21 hr 8 min 2 sec) 
 Total Blocks : 196608 Invalid Blocks : 0 Valid Blocks : 196608
 Total Tags : 491520 Threshold : 12288 Invalid Tags : 196609 Pr0 Tags : 98303 Pr1 Tags : 196608 num_pr0 : 12288
 SAE Count : 0
 Inter-Core Inteference in Data Store : 8148521
Heartbeat CPU 2 instructions: 240000001 cycles: 427919797 heartbeat IPC: 0.130054 cumulative IPC: 0.127015 (Simulation time: 21 hr 8 min 32 sec) 
 Total Blocks : 196608 Invalid Blocks : 0 Valid Blocks : 196608
 Total Tags : 491520 Threshold : 12288 Invalid Tags : 196608 Pr0 Tags : 98304 Pr1 Tags : 196608 num_pr0 : 12288
 SAE Count : 0
 Inter-Core Inteference in Data Store : 8161087
Heartbeat CPU 1 instructions: 240000001 cycles: 428088938 heartbeat IPC: 0.129172 cumulative IPC: 0.126993 (Simulation time: 21 hr 8 min 42 sec) 
 Total Blocks : 196608 Invalid Blocks : 0 Valid Blocks : 196608
 Total Tags : 491520 Threshold : 12288 Invalid Tags : 196608 Pr0 Tags : 98304 Pr1 Tags : 196608 num_pr0 : 12288
 SAE Count : 0
 Inter-Core Inteference in Data Store : 8164879
Heartbeat CPU 4 instructions: 240000001 cycles: 428549868 heartbeat IPC: 0.128195 cumulative IPC: 0.126822 (Simulation time: 21 hr 9 min 6 sec) 
 Total Blocks : 196608 Invalid Blocks : 0 Valid Blocks : 196608
 Total Tags : 491520 Threshold : 12288 Invalid Tags : 196608 Pr0 Tags : 98304 Pr1 Tags : 196608 num_pr0 : 12288
 SAE Count : 0
 Inter-Core Inteference in Data Store : 8174084
Heartbeat CPU 6 instructions: 240000001 cycles: 430100579 heartbeat IPC: 0.128215 cumulative IPC: 0.126261 (Simulation time: 21 hr 10 min 29 sec) 
 Total Blocks : 196608 Invalid Blocks : 0 Valid Blocks : 196608
 Total Tags : 491520 Threshold : 12288 Invalid Tags : 196608 Pr0 Tags : 98304 Pr1 Tags : 196608 num_pr0 : 12288
 SAE Count : 0
 Inter-Core Inteference in Data Store : 8201960
Heartbeat CPU 3 instructions: 250000000 cycles: 504681633 heartbeat IPC: 0.123901 cumulative IPC: 0.127647 (Simulation time: 22 hr 18 min 18 sec) 
 Total Blocks : 196608 Invalid Blocks : 0 Valid Blocks : 196608
 Total Tags : 491520 Threshold : 12288 Invalid Tags : 196608 Pr0 Tags : 98304 Pr1 Tags : 196608 num_pr0 : 12288
 SAE Count : 0
 Inter-Core Inteference in Data Store : 9900224
Heartbeat CPU 0 instructions: 250000000 cycles: 507141575 heartbeat IPC: 0.123226 cumulative IPC: 0.126826 (Simulation time: 22 hr 20 min 34 sec) 
 Total Blocks : 196608 Invalid Blocks : 0 Valid Blocks : 196608
 Total Tags : 491520 Threshold : 12288 Invalid Tags : 196608 Pr0 Tags : 98304 Pr1 Tags : 196608 num_pr0 : 12288
 SAE Count : 0
 Inter-Core Inteference in Data Store : 9943237
Heartbeat CPU 5 instructions: 250000000 cycles: 507995878 heartbeat IPC: 0.122398 cumulative IPC: 0.126656 (Simulation time: 22 hr 21 min 14 sec) 
 Total Blocks : 196608 Invalid Blocks : 0 Valid Blocks : 196608
 Total Tags : 491520 Threshold : 12288 Invalid Tags : 196608 Pr0 Tags : 98304 Pr1 Tags : 196608 num_pr0 : 12288
 SAE Count : 0
 Inter-Core Inteference in Data Store : 9957826
Heartbeat CPU 7 instructions: 250000000 cycles: 508643498 heartbeat IPC: 0.123037 cumulative IPC: 0.126477 (Simulation time: 22 hr 21 min 45 sec) 
 Total Blocks : 196608 Invalid Blocks : 0 Valid Blocks : 196608
 Total Tags : 491520 Threshold : 12288 Invalid Tags : 196608 Pr0 Tags : 98304 Pr1 Tags : 196608 num_pr0 : 12288
 SAE Count : 0
 Inter-Core Inteference in Data Store : 9969270
Heartbeat CPU 2 instructions: 250000000 cycles: 508895208 heartbeat IPC: 0.123494 cumulative IPC: 0.126295 (Simulation time: 22 hr 21 min 57 sec) 
 Total Blocks : 196608 Invalid Blocks : 0 Valid Blocks : 196608
 Total Tags : 491520 Threshold : 12288 Invalid Tags : 196608 Pr0 Tags : 98304 Pr1 Tags : 196608 num_pr0 : 12288
 SAE Count : 0
 Inter-Core Inteference in Data Store : 9973728
Heartbeat CPU 1 instructions: 250000000 cycles: 509726849 heartbeat IPC: 0.122492 cumulative IPC: 0.126066 (Simulation time: 22 hr 22 min 37 sec) 
 Total Blocks : 196608 Invalid Blocks : 0 Valid Blocks : 196608
 Total Tags : 491520 Threshold : 12288 Invalid Tags : 196608 Pr0 Tags : 98304 Pr1 Tags : 196608 num_pr0 : 12288
 SAE Count : 0
 Inter-Core Inteference in Data Store : 9989162
[...]
LLC4 RFO       ACCESS: 43660  HIT:    13  MISS: 43647  HIT %: 0.0297755  MISS %: 99.9702  AVERAGE MISS PENALTY: 433.709
LLC4 PREFETCH  ACCESS: 2034250  HIT: 753878  MISS: 1280372  HIT %: 37.0593  MISS %: 62.9407  AVERAGE MISS PENALTY: 424.481
LLC4 WRITEBACK ACCESS: 73659  HIT:   216  MISS: 73443  HIT %: 0.293243  MISS %: 99.7068  AVERAGE MISS PENALTY: 0
LLC4 PREFETCH  REQUESTED:     0  ISSUED:     0  USEFUL: 753701  USELESS: 1251514
 USEFUL LOAD PREFETCHES:     753701 PREFETCH ISSUED TO LOWER LEVEL:   10213325  ACCURACY: 7.37959
 TIMELY PREFETCHES:     753701 LATE PREFETCHES: 0 DROPPED PREFETCHES: 0
LLC4 AVERAGE MISS LATENCY: 405.626 cycles

LLC4 Set Associative Eviction Count : 0
LLC4 Priority 0 entries : 12288
LLC4 Inter-Core Interference : 4303142
LLC5 TOTAL     ACCESS: 4184127  HIT: 1671034  MISS: 2513093  HIT %: 39.9375  MISS %: 60.0625  AVERAGE MISS PENALTY: 396.467
LLC5 LOAD      ACCESS: 2088626  HIT: 937365  MISS: 1151261  HIT %: 44.8795  MISS %: 55.1205  AVERAGE MISS PENALTY: 399.242
LLC5 RFO       ACCESS: 44427  HIT:   615  MISS: 43812  HIT %: 1.38429  MISS %: 98.6157  AVERAGE MISS PENALTY: 422.779
LLC5 PREFETCH  ACCESS: 1977001  HIT: 732226  MISS: 1244775  HIT %: 37.0372  MISS %: 62.9628  AVERAGE MISS PENALTY: 416.304
LLC5 WRITEBACK ACCESS: 74073  HIT:   828  MISS: 73245  HIT %: 1.11782  MISS %: 98.8822  AVERAGE MISS PENALTY: 0
LLC5 PREFETCH  REQUESTED:     0  ISSUED:     0  USEFUL: 728419  USELESS: 1248898
 USEFUL LOAD PREFETCHES:     728419 PREFETCH ISSUED TO LOWER LEVEL:    9953574  ACCURACY: 7.31817
 TIMELY PREFETCHES:     728419 LATE PREFETCHES: 0 DROPPED PREFETCHES: 0
LLC5 AVERAGE MISS LATENCY: 396.467 cycles

LLC5 Set Associative Eviction Count : 0
LLC5 Priority 0 entries : 12288
LLC5 Inter-Core Interference : 4346616
LLC6 TOTAL     ACCESS: 4167964  HIT: 1666413  MISS: 2501551  HIT %: 39.9815  MISS %: 60.0185  AVERAGE MISS PENALTY: 402.082
LLC6 LOAD      ACCESS: 2109671  HIT: 942746  MISS: 1166925  HIT %: 44.6869  MISS %: 55.3131  AVERAGE MISS PENALTY: 408.659
LLC6 RFO       ACCESS: 44491  HIT:   601  MISS: 43890  HIT %: 1.35084  MISS %: 98.6492  AVERAGE MISS PENALTY: 441.328
LLC6 PREFETCH  ACCESS: 1938118  HIT: 722246  MISS: 1215872  HIT %: 37.2653  MISS %: 62.7347  AVERAGE MISS PENALTY: 419.109
LLC6 WRITEBACK ACCESS: 75684  HIT:   820  MISS: 74864  HIT %: 1.08345  MISS %: 98.9165  AVERAGE MISS PENALTY: 0
LLC6 PREFETCH  REQUESTED:     0  ISSUED:     0  USEFUL: 718008  USELESS: 1267197
 USEFUL LOAD PREFETCHES:     718008 PREFETCH ISSUED TO LOWER LEVEL:    9731369  ACCURACY: 7.37828
 TIMELY PREFETCHES:     718008 LATE PREFETCHES: 0 DROPPED PREFETCHES: 0
LLC6 AVERAGE MISS LATENCY: 402.082 cycles

LLC6 Set Associative Eviction Count : 0
LLC6 Priority 0 entries : 12288
LLC6 Inter-Core Interference : 4437729
LLC7 TOTAL     ACCESS: 4163589  HIT: 1666252  MISS: 2497337  HIT %: 40.0196  MISS %: 59.9804  AVERAGE MISS PENALTY: 394.355
LLC7 LOAD      ACCESS: 2170049  HIT: 971773  MISS: 1198276  HIT %: 44.7812  MISS %: 55.2188  AVERAGE MISS PENALTY: 399.145
LLC7 RFO       ACCESS: 44600  HIT:   703  MISS: 43897  HIT %: 1.57623  MISS %: 98.4238  AVERAGE MISS PENALTY: 430.672
LLC7 PREFETCH  ACCESS: 1873223  HIT: 692911  MISS: 1180312  HIT %: 36.9903  MISS %: 63.0097  AVERAGE MISS PENALTY: 413.15
LLC7 WRITEBACK ACCESS: 75717  HIT:   865  MISS: 74852  HIT %: 1.14241  MISS %: 98.8576  AVERAGE MISS PENALTY: 0
LLC7 PREFETCH  REQUESTED:     0  ISSUED:     0  USEFUL: 697198  USELESS: 1243052
 USEFUL LOAD PREFETCHES:     697198 PREFETCH ISSUED TO LOWER LEVEL:    9414010  ACCURACY: 7.40596
 TIMELY PREFETCHES:     697198 LATE PREFETCHES: 0 DROPPED PREFETCHES: 0
LLC7 AVERAGE MISS LATENCY: 394.355 cycles

LLC7 Set Associative Eviction Count : 0
LLC7 Priority 0 entries : 12288
LLC7 Inter-Core Interference : 4486825
ROI Average ROB Stall Cycles:	32.9988
ROI Total ROB Stalls Cycles:	1598133835
ROI TOTAL ROB counter      :	48430096
ROI Average Load ROB Stall Cycles:	169.001
ROI Total Load ROB Stalls Cycle  :	1060528223
ROI Total Load ROB stalls Counter:	6275271
Major fault: 0 Minor fault: 25655

CPU 7 cumulative IPC: 0.122531 instructions: 200000003 cycles: 1632239973
ITLB TOTAL     ACCESS: 52068800  HIT: 52068800  MISS:     0  HIT %:   100  MISS %:     0  AVERAGE MISS PENALTY: 0
ITLB LOAD      ACCESS: 52068800  HIT: 52068800  MISS:     0  HIT %:   100  MISS %:     0  AVERAGE MISS PENALTY: 0
ITLB RFO       ACCESS:     0  HIT:     0  MISS:     0  HIT %:     0  MISS %:     0  AVERAGE MISS PENALTY: 0
ITLB PREFETCH  ACCESS:     0  HIT:     0  MISS:     0  HIT %:     0  MISS %:     0  AVERAGE MISS PENALTY: 0
ITLB WRITEBACK ACCESS:     0  HIT:     0  MISS:     0  HIT %:     0  MISS %:     0  AVERAGE MISS PENALTY: 0
ITLB PREFETCH  REQUESTED:     0  ISSUED:     0  USEFUL:     0  USELESS:     0
 USEFUL LOAD PREFETCHES:          0 PREFETCH ISSUED TO LOWER LEVEL:          0  ACCURACY: -nan
 TIMELY PREFETCHES:          0 LATE PREFETCHES: 0 DROPPED PREFETCHES: 0
ITLB AVERAGE MISS LATENCY: -nan cycles

ITLB Set Associative Eviction Count : 0
ITLB Priority 0 entries : 0
ITLB Inter-Core Interference : 0
DTLB TOTAL     ACCESS: 70711471  HIT: 69929350  MISS: 782121  HIT %: 98.8939  MISS %: 1.10607  AVERAGE MISS PENALTY: 10.4798
DTLB LOAD      ACCESS: 60062884  HIT: 59287452  MISS: 775432  HIT %: 98.709  MISS %: 1.29103  AVERAGE MISS PENALTY: 9.73504
DTLB RFO       ACCESS: 10648587  HIT: 10641898  MISS:  6689  HIT %: 99.9372  MISS %: 0.0628158  AVERAGE MISS PENALTY: 96.8197
DTLB PREFETCH  ACCESS:     0  HIT:     0  MISS:     0  HIT %:     0  MISS %:     0  AVERAGE MISS PENALTY: 0
DTLB WRITEBACK ACCESS:     0  HIT:     0  MISS:     0  HIT %:     0  MISS %:     0  AVERAGE MISS PENALTY: 0
DTLB PREFETCH  REQUESTED:     0  ISSUED:     0  USEFUL:     0  USELESS:     0
 USEFUL LOAD PREFETCHES:          0 PREFETCH ISSUED TO LOWER LEVEL:          0  ACCURACY: -nan
 TIMELY PREFETCHES:          0 LATE PREFETCHES: 0 DROPPED PREFETCHES: 0
DTLB AVERAGE MISS LATENCY: 10.4798 cycles

DTLB Set Associative Eviction Count : 0
DTLB Priority 0 entries : 0
DTLB Inter-Core Interference : 0
STLB TOTAL     ACCESS: 782121  HIT: 770830  MISS: 11291  HIT %: 98.5564  MISS %: 1.44364  AVERAGE MISS PENALTY: 100
STLB LOAD      ACCESS: 775432  HIT: 770012  MISS:  5420  HIT %: 99.301  MISS %: 0.698965  AVERAGE MISS PENALTY: 100
STLB RFO       ACCESS:  6689  HIT:   818  MISS:  5871  HIT %: 12.229  MISS %: 87.771  AVERAGE MISS PENALTY: 100
STLB PREFETCH  ACCESS:     0  HIT:     0  MISS:     0  HIT %:     0  MISS %:     0  AVERAGE MISS PENALTY: 0
STLB WRITEBACK ACCESS:     0  HIT:     0  MISS:     0  HIT %:     0  MISS %:     0  AVERAGE MISS PENALTY: 0
STLB PREFETCH  REQUESTED:     0  ISSUED:     0  USEFUL:     0  USELESS:     0
 USEFUL LOAD PREFETCHES:          0 PREFETCH ISSUED TO LOWER LEVEL:          0  ACCURACY: -nan
 TIMELY PREFETCHES:          0 LATE PREFETCHES: 0 DROPPED PREFETCHES: 0
STLB AVERAGE MISS LATENCY: 100 cycles

STLB Set Associative Eviction Count : 0
STLB Priority 0 entries : 0
STLB Inter-Core Interference : 0
L1D TOTAL     ACCESS: 104162836  HIT: 71212083  MISS: 32950753  HIT %: 68.3661  MISS %: 31.6339  AVERAGE MISS PENALTY: 1.88328e+08
L1D LOAD      ACCESS: 66578012  HIT: 47281592  MISS: 19296420  HIT %: 71.0168  MISS %: 28.9832  AVERAGE MISS PENALTY: 3.21389e+08
L1D RFO       ACCESS: 13109107  HIT: 12748329  MISS: 360778  HIT %: 97.2479  MISS %: 2.75212  AVERAGE MISS PENALTY: 1.07535e+07
L1D PREFETCH  ACCESS: 24475717  HIT: 11182162  MISS: 13293555  HIT %: 45.6868  MISS %: 54.3132  AVERAGE MISS PENALTY: 211.799
L1D WRITEBACK ACCESS:     0  HIT:     0  MISS:     0  HIT %:     0  MISS %:     0  AVERAGE MISS PENALTY: 0
L1D PREFETCH  REQUESTED: 41816310  ISSUED: 41798548  USEFUL: 10751864  USELESS: 2541639
 USEFUL LOAD PREFETCHES:   10751864 PREFETCH ISSUED TO LOWER LEVEL:   31905196  ACCURACY: 33.6994
 TIMELY PREFETCHES:   10751864 LATE PREFETCHES: 8033221 DROPPED PREFETCHES: 17762
L1D AVERAGE MISS LATENCY: 117987 cycles

L1D Set Associative Eviction Count : 0
L1D Priority 0 entries : 0
L1D Inter-Core Interference : 0
L1I TOTAL     ACCESS: 66915135  HIT: 66915134  MISS:     1  HIT %:   100  MISS %: 1.49443e-06  AVERAGE MISS PENALTY: 227
L1I LOAD      ACCESS: 66915135  HIT: 66915134  MISS:     1  HIT %:   100  MISS %: 1.49443e-06  AVERAGE MISS PENALTY: 227
L1I RFO       ACCESS:     0  HIT:     0  MISS:     0  HIT %:     0  MISS %:     0  AVERAGE MISS PENALTY: 0
L1I PREFETCH  ACCESS:     0  HIT:     0  MISS:     0  HIT %:     0  MISS %:     0  AVERAGE MISS PENALTY: 0
L1I WRITEBACK ACCESS:     0  HIT:     0  MISS:     0  HIT %:     0  MISS %:     0  AVERAGE MISS PENALTY: 0
L1I PREFETCH  REQUESTED:     0  ISSUED:     0  USEFUL:     0  USELESS:     0
 USEFUL LOAD PREFETCHES:          0 PREFETCH ISSUED TO LOWER LEVEL:          0  ACCURACY: -nan
 TIMELY PREFETCHES:          0 LATE PREFETCHES: 0 DROPPED PREFETCHES: 0
L1I AVERAGE MISS LATENCY: 227 cycles

L1I Set Associative Eviction Count : 0
L1I Priority 0 entries : 0
L1I Inter-Core Interference : 1
L2C TOTAL     ACCESS: 38003414  HIT: 5523997  MISS: 32479417  HIT %: 14.5355  MISS %: 85.4645  AVERAGE MISS PENALTY: 1.78112e+08
L2C LOAD      ACCESS: 19100761  HIT: 274605  MISS: 18826156  HIT %: 1.43767  MISS %: 98.5623  AVERAGE MISS PENALTY: 3.07277e+08
L2C RFO       ACCESS: 356801  HIT:  3480  MISS: 353321  HIT %: 0.975334  MISS %: 99.0247  AVERAGE MISS PENALTY: 324527
L2C PREFETCH  ACCESS: 17945056  HIT: 4647724  MISS: 13297332  HIT %: 25.8997  MISS %: 74.1003  AVERAGE MISS PENALTY: 255.878
L2C WRITEBACK ACCESS: 600796  HIT: 598188  MISS:  2608  HIT %: 99.5659  MISS %: 0.434091  AVERAGE MISS PENALTY: 0
L2C PREFETCH  REQUESTED: 7408319  ISSUED: 7393083  USEFUL: 78022  USELESS: 13223612
 USEFUL LOAD PREFETCHES:      78022 PREFETCH ISSUED TO LOWER LEVEL:   21754031  ACCURACY: 0.358655
 TIMELY PREFETCHES:      78022 LATE PREFETCHES: 6345597 DROPPED PREFETCHES: 15236
L2C AVERAGE MISS LATENCY: 266.121 cycles

L2C Set Associative Eviction Count : 0
L2C Priority 0 entries : 0
L2C Inter-Core Interference : 0
LLC0 TOTAL     ACCESS: 4134959  HIT: 1648572  MISS: 2486387  HIT %: 39.8691  MISS %: 60.1309  AVERAGE MISS PENALTY: 403.885
LLC0 LOAD      ACCESS: 1959423  HIT: 877238  MISS: 1082185  HIT %: 44.7702  MISS %: 55.2298  AVERAGE MISS PENALTY: 410.59
LLC0 RFO       ACCESS: 44848  HIT:   580  MISS: 44268  HIT %: 1.29326  MISS %: 98.7067  AVERAGE MISS PENALTY: 400.61
LLC0 PREFETCH  ACCESS: 2056548  HIT: 769972  MISS: 1286576  HIT %: 37.44  MISS %: 62.56  AVERAGE MISS PENALTY: 421.387
LLC0 WRITEBACK ACCESS: 74140  HIT:   782  MISS: 73358  HIT %: 1.05476  MISS %: 98.9452  AVERAGE MISS PENALTY: 0
LLC0 PREFETCH  REQUESTED:     0  ISSUED:     0  USEFUL: 794528  USELESS: 1287207
 USEFUL LOAD PREFETCHES:     794528 PREFETCH ISSUED TO LOWER LEVEL:   10443047  ACCURACY: 7.6082
 TIMELY PREFETCHES:     794528 LATE PREFETCHES: 0 DROPPED PREFETCHES: 0
LLC0 AVERAGE MISS LATENCY: 403.885 cycles

LLC0 Set Associative Eviction Count : 0
LLC0 Priority 0 entries : 12288
LLC0 Inter-Core Interference : 4304102
LLC1 TOTAL     ACCESS: 4148008  HIT: 1647379  MISS: 2500629  HIT %: 39.7149  MISS %: 60.2851  AVERAGE MISS PENALTY: 407.121
LLC1 LOAD      ACCESS: 1992680  HIT: 890912  MISS: 1101768  HIT %: 44.7092  MISS %: 55.2908  AVERAGE MISS PENALTY: 413.987
LLC1 RFO       ACCESS: 43705  HIT:     5  MISS: 43700  HIT %: 0.0114403  MISS %: 99.9886  AVERAGE MISS PENALTY: 403.659
LLC1 PREFETCH  ACCESS: 2037147  HIT: 755351  MISS: 1281796  HIT %: 37.0789  MISS %: 62.9211  AVERAGE MISS PENALTY: 424.639
LLC1 WRITEBACK ACCESS: 74476  HIT:  1111  MISS: 73365  HIT %: 1.49176  MISS %: 98.5082  AVERAGE MISS PENALTY: 0
LLC1 PREFETCH  REQUESTED:     0  ISSUED:     0  USEFUL: 769852  USELESS: 1250210
 USEFUL LOAD PREFETCHES:     769852 PREFETCH ISSUED TO LOWER LEVEL:   10382666  ACCURACY: 7.41478
 TIMELY PREFETCHES:     769852 LATE PREFETCHES: 0 DROPPED PREFETCHES: 0
LLC1 AVERAGE MISS LATENCY: 407.121 cycles

LLC1 Set Associative Eviction Count : 0
LLC1 Priority 0 entries : 12288
LLC1 Inter-Core Interference : 4264033
LLC2 TOTAL     ACCESS: 4143469  HIT: 1637466  MISS: 2506003  HIT %: 39.5192  MISS %: 60.4808  AVERAGE MISS PENALTY: 402.03
LLC2 LOAD      ACCESS: 1984602  HIT: 885491  MISS: 1099111  HIT %: 44.6181  MISS %: 55.3819  AVERAGE MISS PENALTY: 411.246
LLC2 RFO       ACCESS: 43764  HIT:     5  MISS: 43759  HIT %: 0.0114249  MISS %: 99.9886  AVERAGE MISS PENALTY: 409.194
LLC2 PREFETCH  ACCESS: 2039872  HIT: 750976  MISS: 1288896  HIT %: 36.8149  MISS %: 63.1851  AVERAGE MISS PENALTY: 417.084
LLC2 WRITEBACK ACCESS: 75231  HIT:   994  MISS: 74237  HIT %: 1.32126  MISS %: 98.6787  AVERAGE MISS PENALTY: 0
LLC2 PREFETCH  REQUESTED:     0  ISSUED:     0  USEFUL: 768027  USELESS: 1246789
 USEFUL LOAD PREFETCHES:     768027 PREFETCH ISSUED TO LOWER LEVEL:   10462669  ACCURACY: 7.34064
 TIMELY PREFETCHES:     768027 LATE PREFETCHES: 0 DROPPED PREFETCHES: 0
LLC2 AVERAGE MISS LATENCY: 402.03 cycles

LLC2 Set Associative Eviction Count : 0
LLC2 Priority 0 entries : 12288
LLC2 Inter-Core Interference : 4248842
LLC3 TOTAL     ACCESS: 4154397  HIT: 1648326  MISS: 2506071  HIT %: 39.6767  MISS %: 60.3233  AVERAGE MISS PENALTY: 403.507
LLC3 LOAD      ACCESS: 1988097  HIT: 888300  MISS: 1099797  HIT %: 44.6809  MISS %: 55.3191  AVERAGE MISS PENALTY: 411.672
LLC3 RFO       ACCESS: 43664  HIT:     6  MISS: 43658  HIT %: 0.0137413  MISS %: 99.9863  AVERAGE MISS PENALTY: 410.589
LLC3 PREFETCH  ACCESS: 2047505  HIT: 759244  MISS: 1288261  HIT %: 37.0814  MISS %: 62.9186  AVERAGE MISS PENALTY: 419.585
LLC3 WRITEBACK ACCESS: 75131  HIT:   776  MISS: 74355  HIT %: 1.03286  MISS %: 98.9671  AVERAGE MISS PENALTY: 0
LLC3 PREFETCH  REQUESTED:     0  ISSUED:     0  USEFUL: 744461  USELESS: 1282943
 USEFUL LOAD PREFETCHES:     744461 PREFETCH ISSUED TO LOWER LEVEL:   10429243  ACCURACY: 7.13821
 TIMELY PREFETCHES:     744461 LATE PREFETCHES: 0 DROPPED PREFETCHES: 0
LLC3 AVERAGE MISS LATENCY: 403.507 cycles

LLC3 Set Associative Eviction Count : 0
LLC3 Priority 0 entries : 12288
LLC3 Inter-Core Interference : 4274110
LLC4 TOTAL     ACCESS: 4138930  HIT: 1649702  MISS: 2489228  HIT %: 39.8582  MISS %: 60.1418  AVERAGE MISS PENALTY: 404.521
LLC4 LOAD      ACCESS: 2020435  HIT: 907227  MISS: 1113208  HIT %: 44.9026  MISS %: 55.0974  AVERAGE MISS PENALTY: 410.402
LLC4 RFO       ACCESS: 43685  HIT:     9  MISS: 43676  HIT %: 0.020602  MISS %: 99.9794  AVERAGE MISS PENALTY: 402.943
LLC4 PREFETCH  ACCESS: 2001150  HIT: 742274  MISS: 1258876  HIT %: 37.0924  MISS %: 62.9076  AVERAGE MISS PENALTY: 422.982
LLC4 WRITEBACK ACCESS: 73660  HIT:   192  MISS: 73468  HIT %: 0.260657  MISS %: 99.7393  AVERAGE MISS PENALTY: 0
LLC4 PREFETCH  REQUESTED:     0  ISSUED:     0  USEFUL: 753701  USELESS: 1251514
 USEFUL LOAD PREFETCHES:     753701 PREFETCH ISSUED TO LOWER LEVEL:   10213325  ACCURACY: 7.37959
 TIMELY PREFETCHES:     753701 LATE PREFETCHES: 0 DROPPED PREFETCHES: 0
LLC4 AVERAGE MISS LATENCY: 404.521 cycles

LLC4 Set Associative Eviction Count : 0
LLC4 Priority 0 entries : 12288
LLC4 Inter-Core Interference : 4303142
LLC5 TOTAL     ACCESS: 4125642  HIT: 1647055  MISS: 2478587  HIT %: 39.9224  MISS %: 60.0776  AVERAGE MISS PENALTY: 395.554
LLC5 LOAD      ACCESS: 2063137  HIT: 926148  MISS: 1136989  HIT %: 44.8903  MISS %: 55.1097  AVERAGE MISS PENALTY: 400.411
LLC5 RFO       ACCESS: 44437  HIT:   626  MISS: 43811  HIT %: 1.40874  MISS %: 98.5913  AVERAGE MISS PENALTY: 394.24
LLC5 PREFETCH  ACCESS: 1943978  HIT: 719434  MISS: 1224544  HIT %: 37.0083  MISS %: 62.9917  AVERAGE MISS PENALTY: 414.751
LLC5 WRITEBACK ACCESS: 74090  HIT:   847  MISS: 73243  HIT %: 1.1432  MISS %: 98.8568  AVERAGE MISS PENALTY: 0
LLC5 PREFETCH  REQUESTED:     0  ISSUED:     0  USEFUL: 728419  USELESS: 1248898
 USEFUL LOAD PREFETCHES:     728419 PREFETCH ISSUED TO LOWER LEVEL:    9953574  ACCURACY: 7.31817
 TIMELY PREFETCHES:     728419 LATE PREFETCHES: 0 DROPPED PREFETCHES: 0
LLC5 AVERAGE MISS LATENCY: 395.554 cycles

LLC5 Set Associative Eviction Count : 0
LLC5 Priority 0 entries : 12288
LLC5 Inter-Core Interference : 4346616
LLC6 TOTAL     ACCESS: 4119217  HIT: 1646937  MISS: 2472280  HIT %: 39.9818  MISS %: 60.0182  AVERAGE MISS PENALTY: 401.41
LLC6 LOAD      ACCESS: 2090112  HIT: 937245  MISS: 1152867  HIT %: 44.8419  MISS %: 55.1581  AVERAGE MISS PENALTY: 409.755
LLC6 RFO       ACCESS: 44506  HIT:   602  MISS: 43904  HIT %: 1.35263  MISS %: 98.6474  AVERAGE MISS PENALTY: 411.92
LLC6 PREFETCH  ACCESS: 1908902  HIT: 708294  MISS: 1200608  HIT %: 37.1048  MISS %: 62.8952  AVERAGE MISS PENALTY: 418.056
LLC6 WRITEBACK ACCESS: 75697  HIT:   796  MISS: 74901  HIT %: 1.05156  MISS %: 98.9484  AVERAGE MISS PENALTY: 0
LLC6 PREFETCH  REQUESTED:     0  ISSUED:     0  USEFUL: 718008  USELESS: 1267197
 USEFUL LOAD PREFETCHES:     718008 PREFETCH ISSUED TO LOWER LEVEL:    9731369  ACCURACY: 7.37828
 TIMELY PREFETCHES:     718008 LATE PREFETCHES: 0 DROPPED PREFETCHES: 0
LLC6 AVERAGE MISS LATENCY: 401.41 cycles

LLC6 Set Associative Eviction Count : 0
LLC6 Priority 0 entries : 12288
LLC6 Inter-Core Interference : 4437729
LLC7 TOTAL     ACCESS: 4110363  HIT: 1645625  MISS: 2464738  HIT %: 40.036  MISS %: 59.964  AVERAGE MISS PENALTY: 393.472
LLC7 LOAD      ACCESS: 2146292  HIT: 962128  MISS: 1184164  HIT %: 44.8275  MISS %: 55.1725  AVERAGE MISS PENALTY: 399.895
LLC7 RFO       ACCESS: 44601  HIT:   668  MISS: 43933  HIT %: 1.49772  MISS %: 98.5023  AVERAGE MISS PENALTY: 400.133
LLC7 PREFETCH  ACCESS: 1843720  HIT: 681938  MISS: 1161782  HIT %: 36.9871  MISS %: 63.0129  AVERAGE MISS PENALTY: 412.027
LLC7 WRITEBACK ACCESS: 75750  HIT:   891  MISS: 74859  HIT %: 1.17624  MISS %: 98.8238  AVERAGE MISS PENALTY: 0
LLC7 PREFETCH  REQUESTED:     0  ISSUED:     0  USEFUL: 697198  USELESS: 1243052
 USEFUL LOAD PREFETCHES:     697198 PREFETCH ISSUED TO LOWER LEVEL:    9414010  ACCURACY: 7.40596
 TIMELY PREFETCHES:     697198 LATE PREFETCHES: 0 DROPPED PREFETCHES: 0
LLC7 AVERAGE MISS LATENCY: 393.472 cycles

LLC7 Set Associative Eviction Count : 0
LLC7 Priority 0 entries : 12288
LLC7 Inter-Core Interference : 4486825
ROI Average ROB Stall Cycles:	32.7731
ROI Total ROB Stalls Cycles:	1586837995
ROI TOTAL ROB counter      :	48418900
ROI Average Load ROB Stall Cycles:	168.183
ROI Total Load ROB Stalls Cycle  :	1053437971
ROI Total Load ROB stalls Counter:	6263637
Major fault: 0 Minor fault: 25656








Interconnect Stats 
LINK 0 BW : 0LINK 1 BW : 0LINK 2 BW : 0LINK 3 BW : 0LINK 4 BW : 0LINK 5 BW : 0LINK 6 BW : 0LINK 7 BW : 0
DRAM Statistics
 CHANNEL 0
 RQ ROW_BUFFER_HIT: 15499223  ROW_BUFFER_MISS: 62676676
 DBUS_CONGESTED: 37782378
 WQ ROW_BUFFER_HIT: 249666  ROW_BUFFER_MISS: 2121162  FULL:     0

 CHANNEL 1
 RQ ROW_BUFFER_HIT: 15553749  ROW_BUFFER_MISS: 62531816
 DBUS_CONGESTED: 37782378
 WQ ROW_BUFFER_HIT: 249475  ROW_BUFFER_MISS: 2121496  FULL:     0

 AVG_CONGESTED_CYCLE: 5
DRAM PAGES: 2097152
Allocated PAGES: 205245
L2C destructor called
L1D destructor called
L1I destructor called
STLB destructor called
DTLB destructor called
ITLB destructor called
L2C destructor called
L1D destructor called
L1I destructor called
STLB destructor called
DTLB destructor called
ITLB destructor called
L2C destructor called
L1D destructor called
L1I destructor called
STLB destructor called
DTLB destructor called
ITLB destructor called
L2C destructor called
L1D destructor called
L1I destructor called
STLB destructor called
DTLB destructor called
ITLB destructor called
L2C destructor called
L1D destructor called
L1I destructor called
STLB destructor called
DTLB destructor called
ITLB destructor called
L2C destructor called
L1D destructor called
L1I destructor called
STLB destructor called
DTLB destructor called
ITLB destructor called
L2C destructor called
L1D destructor called
L1I destructor called
STLB destructor called
DTLB destructor called
ITLB destructor called
L2C destructor called
L1D destructor called
L1I destructor called
STLB destructor called
DTLB destructor called
ITLB destructor called
