
*** ChampSim Multicore Out-of-Order Simulator ***

Warmup Instructions: 200000000
Simulation Instructions: 200000000
Number of CPUs: 8
threads:1

L1I Configuration:
L1I_SET:64
L1I_WAY:8
L1I_RQ_SIZE:64
L1I_WQ_SIZE:64
L1I_PQ_SIZE:8
L1I_MSHR_SIZE:8

L1D Configuration:
L1D_SET:64
L1D_WAY:12
L1D_RQ_SIZE:64
L1D_WQ_SIZE:64
L1D_PQ_SIZE:8
L1D_MSHR_SIZE:16

L2C Configuration:
L2C_SET:1024
L2C_WAY:8
L2C_RQ_SIZE:32
L2C_WQ_SIZE:32
L2C_PQ_SIZE:16
L2C_MSHR_SIZE:32

LLC Configuration:
LLC_SET:2048
LLC_WAY:12
LLC SLICES:8
LLC_RQ_SIZE:64
LLC_WQ_SIZE:64
LLC_PQ_SIZE:32
LLC_MSHR_SIZE:64

Interconnect OFF
Attacker deprioritize is: OFF
Off-chip DRAM Size: 8192 MB Channels: 2 Width: 64-bit Data Rate: 3200 MT/s
PAGE SIZE in KB: 4.000000 
PAGE SIZE in MB: 0.003906 
PAGE offset in bits: 12 
CEASER-S_LLC:0
MIRAGE : 1
CEASER_LATENCY:3
REMAP : OFF
Partitions : 1
Multi-Step : OFF
BFS : OFF

CPU 0 runs /home/anubhav/spec_2017/605.mcf_s-1152B.champsimtrace.xz
CPU 1 runs /home/anubhav/spec_2017/605.mcf_s-1152B.champsimtrace.xz
CPU 2 runs /home/anubhav/spec_2017/605.mcf_s-1152B.champsimtrace.xz
CPU 3 runs /home/anubhav/spec_2017/605.mcf_s-1152B.champsimtrace.xz
CPU 4 runs /home/anubhav/spec_2017/605.mcf_s-1152B.champsimtrace.xz
CPU 5 runs /home/anubhav/spec_2017/605.mcf_s-1152B.champsimtrace.xz
CPU 6 runs /home/anubhav/spec_2017/605.mcf_s-1152B.champsimtrace.xz
CPU 7 runs /home/anubhav/spec_2017/605.mcf_s-1152B.champsimtrace.xz
CPU 0 Bimodal branch predictor
Initialize Hawkeye state
Initialize Hawkeye state
Initialize Hawkeye state
Initialize Hawkeye state
Initialize Hawkeye state
Initialize Hawkeye state
Initialize Hawkeye state
Initialize Hawkeye state
CPU 1 Bimodal branch predictor
Initialize Hawkeye state
Initialize Hawkeye state
Initialize Hawkeye state
Initialize Hawkeye state
Initialize Hawkeye state
Initialize Hawkeye state
Initialize Hawkeye state
Initialize Hawkeye state
CPU 2 Bimodal branch predictor
Initialize Hawkeye state
Initialize Hawkeye state
Initialize Hawkeye state
Initialize Hawkeye state
Initialize Hawkeye state
Initialize Hawkeye state
Initialize Hawkeye state
Initialize Hawkeye state
CPU 3 Bimodal branch predictor
Initialize Hawkeye state
Initialize Hawkeye state
Initialize Hawkeye state
Initialize Hawkeye state
Initialize Hawkeye state
Initialize Hawkeye state
Initialize Hawkeye state
Initialize Hawkeye state
CPU 4 Bimodal branch predictor
Initialize Hawkeye state
Initialize Hawkeye state
Initialize Hawkeye state
Initialize Hawkeye state
Initialize Hawkeye state
Initialize Hawkeye state
Initialize Hawkeye state
Initialize Hawkeye state
CPU 5 Bimodal branch predictor
Initialize Hawkeye state
Initialize Hawkeye state
Initialize Hawkeye state
Initialize Hawkeye state
Initialize Hawkeye state
Initialize Hawkeye state
Initialize Hawkeye state
Initialize Hawkeye state
CPU 6 Bimodal branch predictor
Initialize Hawkeye state
Initialize Hawkeye state
Initialize Hawkeye state
Initialize Hawkeye state
Initialize Hawkeye state
Initialize Hawkeye state
Initialize Hawkeye state
Initialize Hawkeye state
CPU 7 Bimodal branch predictor
Initialize Hawkeye state
Initialize Hawkeye state
Initialize Hawkeye state
Initialize Hawkeye state
Initialize Hawkeye state
Initialize Hawkeye state
Initialize Hawkeye state
Initialize Hawkeye state
FILL
Heartbeat CPU 2 instructions: 10000001 cycles: 11262697 heartbeat IPC: 0.887887 cumulative IPC: 0.887887 (Simulation time: 0 hr 36 min 50 sec) 
 Total Blocks : 196608 Invalid Blocks : 28126 Valid Blocks : 168482
 Total Tags : 491520 Threshold : 12288 Invalid Tags : 224735 Pr0 Tags : 98303 Pr1 Tags : 168482 num_pr0 : 12287
 SAE Count : 0
 Inter-Core Inteference in Data Store : 185891
Heartbeat CPU 3 instructions: 10000001 cycles: 11263739 heartbeat IPC: 0.887805 cumulative IPC: 0.887805 (Simulation time: 0 hr 36 min 50 sec) 
 Total Blocks : 196608 Invalid Blocks : 28124 Valid Blocks : 168484
 Total Tags : 491520 Threshold : 12288 Invalid Tags : 224733 Pr0 Tags : 98303 Pr1 Tags : 168484 num_pr0 : 12288
 SAE Count : 0
 Inter-Core Inteference in Data Store : 185903
Heartbeat CPU 4 instructions: 10000001 cycles: 11264479 heartbeat IPC: 0.887746 cumulative IPC: 0.887746 (Simulation time: 0 hr 36 min 50 sec) 
 Total Blocks : 196608 Invalid Blocks : 28120 Valid Blocks : 168488
 Total Tags : 491520 Threshold : 12288 Invalid Tags : 224732 Pr0 Tags : 98300 Pr1 Tags : 168488 num_pr0 : 12288
 SAE Count : 0
 Inter-Core Inteference in Data Store : 185910
Heartbeat CPU 0 instructions: 10000001 cycles: 11264801 heartbeat IPC: 0.887721 cumulative IPC: 0.887721 (Simulation time: 0 hr 36 min 50 sec) 
 Total Blocks : 196608 Invalid Blocks : 28119 Valid Blocks : 168489
 Total Tags : 491520 Threshold : 12288 Invalid Tags : 224730 Pr0 Tags : 98301 Pr1 Tags : 168489 num_pr0 : 12288
 SAE Count : 0
 Inter-Core Inteference in Data Store : 185917
Heartbeat CPU 1 instructions: 10000001 cycles: 11264908 heartbeat IPC: 0.887713 cumulative IPC: 0.887713 (Simulation time: 0 hr 36 min 50 sec) 
 Total Blocks : 196608 Invalid Blocks : 28118 Valid Blocks : 168490
 Total Tags : 491520 Threshold : 12288 Invalid Tags : 224729 Pr0 Tags : 98301 Pr1 Tags : 168490 num_pr0 : 12288
 SAE Count : 0
 Inter-Core Inteference in Data Store : 185918
Heartbeat CPU 6 instructions: 10000001 cycles: 11265794 heartbeat IPC: 0.887643 cumulative IPC: 0.887643 (Simulation time: 0 hr 36 min 50 sec) 
 Total Blocks : 196608 Invalid Blocks : 28114 Valid Blocks : 168494
 Total Tags : 491520 Threshold : 12288 Invalid Tags : 224725 Pr0 Tags : 98301 Pr1 Tags : 168494 num_pr0 : 12288
 SAE Count : 0
 Inter-Core Inteference in Data Store : 185935
Heartbeat CPU 7 instructions: 10000001 cycles: 11265931 heartbeat IPC: 0.887632 cumulative IPC: 0.887632 (Simulation time: 0 hr 36 min 51 sec) 
 Total Blocks : 196608 Invalid Blocks : 28113 Valid Blocks : 168495
 Total Tags : 491520 Threshold : 12288 Invalid Tags : 224725 Pr0 Tags : 98300 Pr1 Tags : 168495 num_pr0 : 12288
 SAE Count : 0
 Inter-Core Inteference in Data Store : 185938
Heartbeat CPU 5 instructions: 10000001 cycles: 11266991 heartbeat IPC: 0.887549 cumulative IPC: 0.887549 (Simulation time: 0 hr 36 min 51 sec) 
 Total Blocks : 196608 Invalid Blocks : 28107 Valid Blocks : 168501
 Total Tags : 491520 Threshold : 12288 Invalid Tags : 224720 Pr0 Tags : 98299 Pr1 Tags : 168501 num_pr0 : 12286
 SAE Count : 0
 Inter-Core Inteference in Data Store : 185950
Heartbeat CPU 2 instructions: 20000002 cycles: 22548224 heartbeat IPC: 0.886091 cumulative IPC: 0.886988 (Simulation time: 1 hr 19 min 4 sec) 
 Total Blocks : 196608 Invalid Blocks : 5910 Valid Blocks : 190698
 Total Tags : 491520 Threshold : 12288 Invalid Tags : 202518 Pr0 Tags : 98304 Pr1 Tags : 190698 num_pr0 : 12288
 SAE Count : 0
 Inter-Core Inteference in Data Store : 434349
Heartbeat CPU 3 instructions: 20000002 cycles: 22549766 heartbeat IPC: 0.886051 cumulative IPC: 0.886927 (Simulation time: 1 hr 19 min 4 sec) 
 Total Blocks : 196608 Invalid Blocks : 5909 Valid Blocks : 190699
 Total Tags : 491520 Threshold : 12288 Invalid Tags : 202518 Pr0 Tags : 98303 Pr1 Tags : 190699 num_pr0 : 12288
 SAE Count : 0
 Inter-Core Inteference in Data Store : 434379
Heartbeat CPU 4 instructions: 20000002 cycles: 22551043 heartbeat IPC: 0.886009 cumulative IPC: 0.886877 (Simulation time: 1 hr 19 min 4 sec) 
 Total Blocks : 196608 Invalid Blocks : 5906 Valid Blocks : 190702
 Total Tags : 491520 Threshold : 12288 Invalid Tags : 202515 Pr0 Tags : 98303 Pr1 Tags : 190702 num_pr0 : 12288
 SAE Count : 0
 Inter-Core Inteference in Data Store : 434403
Heartbeat CPU 0 instructions: 20000002 cycles: 22551997 heartbeat IPC: 0.88596 cumulative IPC: 0.88684 (Simulation time: 1 hr 19 min 4 sec) 
 Total Blocks : 196608 Invalid Blocks : 5906 Valid Blocks : 190702
 Total Tags : 491520 Threshold : 12288 Invalid Tags : 202514 Pr0 Tags : 98304 Pr1 Tags : 190702 num_pr0 : 12288
 SAE Count : 0
 Inter-Core Inteference in Data Store : 434424
Heartbeat CPU 1 instructions: 20000002 cycles: 22552067 heartbeat IPC: 0.885963 cumulative IPC: 0.886837 (Simulation time: 1 hr 19 min 5 sec) 
 Total Blocks : 196608 Invalid Blocks : 5906 Valid Blocks : 190702
 Total Tags : 491520 Threshold : 12288 Invalid Tags : 202514 Pr0 Tags : 98304 Pr1 Tags : 190702 num_pr0 : 12288
 SAE Count : 0
 Inter-Core Inteference in Data Store : 434425
Heartbeat CPU 7 instructions: 20000002 cycles: 22553088 heartbeat IPC: 0.885963 cumulative IPC: 0.886797 (Simulation time: 1 hr 19 min 5 sec) 
 Total Blocks : 196608 Invalid Blocks : 5904 Valid Blocks : 190704
 Total Tags : 491520 Threshold : 12288 Invalid Tags : 202513 Pr0 Tags : 98303 Pr1 Tags : 190704 num_pr0 : 12288
 SAE Count : 0
 Inter-Core Inteference in Data Store : 434438
Heartbeat CPU 6 instructions: 20000002 cycles: 22554598 heartbeat IPC: 0.885834 cumulative IPC: 0.886737 (Simulation time: 1 hr 19 min 5 sec) 
 Total Blocks : 196608 Invalid Blocks : 5902 Valid Blocks : 190706
 Total Tags : 491520 Threshold : 12288 Invalid Tags : 202512 Pr0 Tags : 98302 Pr1 Tags : 190706 num_pr0 : 12287
 SAE Count : 0
 Inter-Core Inteference in Data Store : 434466
Heartbeat CPU 5 instructions: 20000002 cycles: 22555842 heartbeat IPC: 0.88583 cumulative IPC: 0.886688 (Simulation time: 1 hr 19 min 5 sec) 
 Total Blocks : 196608 Invalid Blocks : 5901 Valid Blocks : 190707
 Total Tags : 491520 Threshold : 12288 Invalid Tags : 202510 Pr0 Tags : 98303 Pr1 Tags : 190707 num_pr0 : 12288
 SAE Count : 0
 Inter-Core Inteference in Data Store : 434489
Heartbeat CPU 2 instructions: 30000003 cycles: 33790244 heartbeat IPC: 0.88952 cumulative IPC: 0.88783 (Simulation time: 2 hr 6 min 8 sec) 
 Total Blocks : 196608 Invalid Blocks : 1301 Valid Blocks : 195307
 Total Tags : 491520 Threshold : 12288 Invalid Tags : 197909 Pr0 Tags : 98304 Pr1 Tags : 195307 num_pr0 : 12288
 SAE Count : 0
 Inter-Core Inteference in Data Store : 687082
Heartbeat CPU 3 instructions: 30000003 cycles: 33792116 heartbeat IPC: 0.889494 cumulative IPC: 0.887781 (Simulation time: 2 hr 6 min 8 sec) 
 Total Blocks : 196608 Invalid Blocks : 1300 Valid Blocks : 195308
 Total Tags : 491520 Threshold : 12288 Invalid Tags : 197909 Pr0 Tags : 98303 Pr1 Tags : 195308 num_pr0 : 12288
 SAE Count : 0
 Inter-Core Inteference in Data Store : 687109
Heartbeat CPU 4 instructions: 30000003 cycles: 33794927 heartbeat IPC: 0.889372 cumulative IPC: 0.887707 (Simulation time: 2 hr 6 min 8 sec) 
 Total Blocks : 196608 Invalid Blocks : 1299 Valid Blocks : 195309
 Total Tags : 491520 Threshold : 12288 Invalid Tags : 197907 Pr0 Tags : 98304 Pr1 Tags : 195309 num_pr0 : 12288
 SAE Count : 0
 Inter-Core Inteference in Data Store : 687145
Heartbeat CPU 0 instructions: 30000003 cycles: 33795602 heartbeat IPC: 0.889395 cumulative IPC: 0.88769 (Simulation time: 2 hr 6 min 9 sec) 
 Total Blocks : 196608 Invalid Blocks : 1299 Valid Blocks : 195309
 Total Tags : 491520 Threshold : 12288 Invalid Tags : 197907 Pr0 Tags : 98304 Pr1 Tags : 195309 num_pr0 : 12288
 SAE Count : 0
 Inter-Core Inteference in Data Store : 687157
Heartbeat CPU 1 instructions: 30000003 cycles: 33795671 heartbeat IPC: 0.889395 cumulative IPC: 0.887688 (Simulation time: 2 hr 6 min 9 sec) 
 Total Blocks : 196608 Invalid Blocks : 1299 Valid Blocks : 195309
 Total Tags : 491520 Threshold : 12288 Invalid Tags : 197907 Pr0 Tags : 98304 Pr1 Tags : 195309 num_pr0 : 12288
 SAE Count : 0
 Inter-Core Inteference in Data Store : 687158
Heartbeat CPU 7 instructions: 30000003 cycles: 33796871 heartbeat IPC: 0.88938 cumulative IPC: 0.887656 (Simulation time: 2 hr 6 min 9 sec) 
 Total Blocks : 196608 Invalid Blocks : 1299 Valid Blocks : 195309
 Total Tags : 491520 Threshold : 12288 Invalid Tags : 197907 Pr0 Tags : 98304 Pr1 Tags : 195309 num_pr0 : 12288
 SAE Count : 0
 Inter-Core Inteference in Data Store : 687169
Heartbeat CPU 6 instructions: 30000003 cycles: 33799471 heartbeat IPC: 0.889294 cumulative IPC: 0.887588 (Simulation time: 2 hr 6 min 9 sec) 
 Total Blocks : 196608 Invalid Blocks : 1298 Valid Blocks : 195310
 Total Tags : 491520 Threshold : 12288 Invalid Tags : 197907 Pr0 Tags : 98303 Pr1 Tags : 195310 num_pr0 : 12288
 SAE Count : 0
 Inter-Core Inteference in Data Store : 687200
Heartbeat CPU 5 instructions: 30000003 cycles: 33800858 heartbeat IPC: 0.889283 cumulative IPC: 0.887552 (Simulation time: 2 hr 6 min 9 sec) 
 Total Blocks : 196608 Invalid Blocks : 1298 Valid Blocks : 195310
 Total Tags : 491520 Threshold : 12288 Invalid Tags : 197906 Pr0 Tags : 98304 Pr1 Tags : 195310 num_pr0 : 12288
 SAE Count : 0
 Inter-Core Inteference in Data Store : 687219
Heartbeat CPU 2 instructions: 40000001 cycles: 45069858 heartbeat IPC: 0.886555 cumulative IPC: 0.887511 (Simulation time: 2 hr 58 min 53 sec) 
 Total Blocks : 196608 Invalid Blocks : 287 Valid Blocks : 196321
 Total Tags : 491520 Threshold : 12288 Invalid Tags : 196895 Pr0 Tags : 98304 Pr1 Tags : 196321 num_pr0 : 12288
 SAE Count : 0
 Inter-Core Inteference in Data Store : 938172
Heartbeat CPU 3 instructions: 40000001 cycles: 45072424 heartbeat IPC: 0.8865 cumulative IPC: 0.887461 (Simulation time: 2 hr 58 min 53 sec) 
 Total Blocks : 196608 Invalid Blocks : 287 Valid Blocks : 196321
 Total Tags : 491520 Threshold : 12288 Invalid Tags : 196895 Pr0 Tags : 98304 Pr1 Tags : 196321 num_pr0 : 12288
 SAE Count : 0
 Inter-Core Inteference in Data Store : 938213
Heartbeat CPU 4 instructions: 40000001 cycles: 45076414 heartbeat IPC: 0.886408 cumulative IPC: 0.887382 (Simulation time: 2 hr 58 min 54 sec) 
 Total Blocks : 196608 Invalid Blocks : 287 Valid Blocks : 196321
 Total Tags : 491520 Threshold : 12288 Invalid Tags : 196895 Pr0 Tags : 98304 Pr1 Tags : 196321 num_pr0 : 12288
 SAE Count : 0
 Inter-Core Inteference in Data Store : 938297
Heartbeat CPU 1 instructions: 40000001 cycles: 45076659 heartbeat IPC: 0.886447 cumulative IPC: 0.887377 (Simulation time: 2 hr 58 min 54 sec) 
 Total Blocks : 196608 Invalid Blocks : 287 Valid Blocks : 196321
 Total Tags : 491520 Threshold : 12288 Invalid Tags : 196895 Pr0 Tags : 98304 Pr1 Tags : 196321 num_pr0 : 12288
 SAE Count : 0
 Inter-Core Inteference in Data Store : 938300
Heartbeat CPU 0 instructions: 40000001 cycles: 45076912 heartbeat IPC: 0.886422 cumulative IPC: 0.887372 (Simulation time: 2 hr 58 min 54 sec) 
 Total Blocks : 196608 Invalid Blocks : 287 Valid Blocks : 196321
 Total Tags : 491520 Threshold : 12288 Invalid Tags : 196895 Pr0 Tags : 98304 Pr1 Tags : 196321 num_pr0 : 12288
 SAE Count : 0
 Inter-Core Inteference in Data Store : 938305
Heartbeat CPU 7 instructions: 40000001 cycles: 45077964 heartbeat IPC: 0.886439 cumulative IPC: 0.887352 (Simulation time: 2 hr 58 min 54 sec) 
 Total Blocks : 196608 Invalid Blocks : 287 Valid Blocks : 196321
 Total Tags : 491520 Threshold : 12288 Invalid Tags : 196895 Pr0 Tags : 98304 Pr1 Tags : 196321 num_pr0 : 12288
 SAE Count : 0
 Inter-Core Inteference in Data Store : 938317
Heartbeat CPU 6 instructions: 40000001 cycles: 45082454 heartbeat IPC: 0.88629 cumulative IPC: 0.887263 (Simulation time: 2 hr 58 min 55 sec) 
 Total Blocks : 196608 Invalid Blocks : 287 Valid Blocks : 196321
 Total Tags : 491520 Threshold : 12288 Invalid Tags : 196897 Pr0 Tags : 98302 Pr1 Tags : 196321 num_pr0 : 12287
 SAE Count : 0
 Inter-Core Inteference in Data Store : 938415
Heartbeat CPU 5 instructions: 40000001 cycles: 45083943 heartbeat IPC: 0.886282 cumulative IPC: 0.887234 (Simulation time: 2 hr 58 min 55 sec) 
 Total Blocks : 196608 Invalid Blocks : 287 Valid Blocks : 196321
 Total Tags : 491520 Threshold : 12288 Invalid Tags : 196896 Pr0 Tags : 98303 Pr1 Tags : 196321 num_pr0 : 12287
 SAE Count : 0
 Inter-Core Inteference in Data Store : 938431
Heartbeat CPU 2 instructions: 50000000 cycles: 56310941 heartbeat IPC: 0.889594 cumulative IPC: 0.887927 (Simulation time: 3 hr 56 min 1 sec) 
 Total Blocks : 196608 Invalid Blocks : 63 Valid Blocks : 196545
 Total Tags : 491520 Threshold : 12288 Invalid Tags : 196671 Pr0 Tags : 98304 Pr1 Tags : 196545 num_pr0 : 12288
 SAE Count : 0
 Inter-Core Inteference in Data Store : 1194762
Heartbeat CPU 3 instructions: 50000000 cycles: 56314151 heartbeat IPC: 0.889543 cumulative IPC: 0.887876 (Simulation time: 3 hr 56 min 1 sec) 
 Total Blocks : 196608 Invalid Blocks : 63 Valid Blocks : 196545
 Total Tags : 491520 Threshold : 12288 Invalid Tags : 196671 Pr0 Tags : 98304 Pr1 Tags : 196545 num_pr0 : 12288
 SAE Count : 0
 Inter-Core Inteference in Data Store : 1194778
Heartbeat CPU 4 instructions: 50000000 cycles: 56318630 heartbeat IPC: 0.889504 cumulative IPC: 0.887806 (Simulation time: 3 hr 56 min 2 sec) 
 Total Blocks : 196608 Invalid Blocks : 63 Valid Blocks : 196545
 Total Tags : 491520 Threshold : 12288 Invalid Tags : 196671 Pr0 Tags : 98304 Pr1 Tags : 196545 num_pr0 : 12288
 SAE Count : 0
 Inter-Core Inteference in Data Store : 1194811
Heartbeat CPU 0 instructions: 50000000 cycles: 56319615 heartbeat IPC: 0.889466 cumulative IPC: 0.88779 (Simulation time: 3 hr 56 min 3 sec) 
 Total Blocks : 196608 Invalid Blocks : 63 Valid Blocks : 196545
 Total Tags : 491520 Threshold : 12288 Invalid Tags : 196671 Pr0 Tags : 98304 Pr1 Tags : 196545 num_pr0 : 12288
 SAE Count : 0
 Inter-Core Inteference in Data Store : 1194818
Heartbeat CPU 1 instructions: 50000000 cycles: 56319869 heartbeat IPC: 0.889426 cumulative IPC: 0.887786 (Simulation time: 3 hr 56 min 3 sec) 
 Total Blocks : 196608 Invalid Blocks : 63 Valid Blocks : 196545
 Total Tags : 491520 Threshold : 12288 Invalid Tags : 196672 Pr0 Tags : 98303 Pr1 Tags : 196545 num_pr0 : 12288
 SAE Count : 0
 Inter-Core Inteference in Data Store : 1194821
Heartbeat CPU 7 instructions: 50000000 cycles: 56320892 heartbeat IPC: 0.889448 cumulative IPC: 0.88777 (Simulation time: 3 hr 56 min 3 sec) 
 Total Blocks : 196608 Invalid Blocks : 63 Valid Blocks : 196545
 Total Tags : 491520 Threshold : 12288 Invalid Tags : 196671 Pr0 Tags : 98304 Pr1 Tags : 196545 num_pr0 : 12288
 SAE Count : 0
 Inter-Core Inteference in Data Store : 1194826
Heartbeat CPU 6 instructions: 50000000 cycles: 56326392 heartbeat IPC: 0.889368 cumulative IPC: 0.887683 (Simulation time: 3 hr 56 min 3 sec) 
 Total Blocks : 196608 Invalid Blocks : 63 Valid Blocks : 196545
 Total Tags : 491520 Threshold : 12288 Invalid Tags : 196671 Pr0 Tags : 98304 Pr1 Tags : 196545 num_pr0 : 12288
 SAE Count : 0
 Inter-Core Inteference in Data Store : 1194870
Heartbeat CPU 5 instructions: 50000000 cycles: 56328665 heartbeat IPC: 0.889306 cumulative IPC: 0.887648 (Simulation time: 3 hr 56 min 4 sec) 
 Total Blocks : 196608 Invalid Blocks : 63 Valid Blocks : 196545
 Total Tags : 491520 Threshold : 12288 Invalid Tags : 196671 Pr0 Tags : 98304 Pr1 Tags : 196545 num_pr0 : 12288
 SAE Count : 0
 Inter-Core Inteference in Data Store : 1194888
Heartbeat CPU 2 instructions: 60000000 cycles: 67540958 heartbeat IPC: 0.890471 cumulative IPC: 0.88835 (Simulation time: 4 hr 58 min 52 sec) 
 Total Blocks : 196608 Invalid Blocks : 16 Valid Blocks : 196592
 Total Tags : 491520 Threshold : 12288 Invalid Tags : 196624 Pr0 Tags : 98304 Pr1 Tags : 196592 num_pr0 : 12288
 SAE Count : 0
 Inter-Core Inteference in Data Store : 1442327
Heartbeat CPU 3 instructions: 60000000 cycles: 67544657 heartbeat IPC: 0.890432 cumulative IPC: 0.888301 (Simulation time: 4 hr 58 min 52 sec) 
 Total Blocks : 196608 Invalid Blocks : 16 Valid Blocks : 196592
 Total Tags : 491520 Threshold : 12288 Invalid Tags : 196624 Pr0 Tags : 98304 Pr1 Tags : 196592 num_pr0 : 12288
 SAE Count : 0
 Inter-Core Inteference in Data Store : 1442373
Heartbeat CPU 4 instructions: 60000000 cycles: 67549523 heartbeat IPC: 0.890401 cumulative IPC: 0.888237 (Simulation time: 4 hr 58 min 53 sec) 
 Total Blocks : 196608 Invalid Blocks : 16 Valid Blocks : 196592
 Total Tags : 491520 Threshold : 12288 Invalid Tags : 196624 Pr0 Tags : 98304 Pr1 Tags : 196592 num_pr0 : 12288
 SAE Count : 0
 Inter-Core Inteference in Data Store : 1442445
Heartbeat CPU 0 instructions: 60000000 cycles: 67551376 heartbeat IPC: 0.890332 cumulative IPC: 0.888213 (Simulation time: 4 hr 58 min 53 sec) 
 Total Blocks : 196608 Invalid Blocks : 16 Valid Blocks : 196592
 Total Tags : 491520 Threshold : 12288 Invalid Tags : 196624 Pr0 Tags : 98304 Pr1 Tags : 196592 num_pr0 : 12288
 SAE Count : 0
 Inter-Core Inteference in Data Store : 1442472
Heartbeat CPU 1 instructions: 60000000 cycles: 67551506 heartbeat IPC: 0.890342 cumulative IPC: 0.888211 (Simulation time: 4 hr 58 min 53 sec) 
 Total Blocks : 196608 Invalid Blocks : 16 Valid Blocks : 196592
 Total Tags : 491520 Threshold : 12288 Invalid Tags : 196624 Pr0 Tags : 98304 Pr1 Tags : 196592 num_pr0 : 12288
 SAE Count : 0
 Inter-Core Inteference in Data Store : 1442472
Heartbeat CPU 7 instructions: 60000000 cycles: 67552787 heartbeat IPC: 0.890322 cumulative IPC: 0.888194 (Simulation time: 4 hr 58 min 53 sec) 
 Total Blocks : 196608 Invalid Blocks : 16 Valid Blocks : 196592
 Total Tags : 491520 Threshold : 12288 Invalid Tags : 196624 Pr0 Tags : 98304 Pr1 Tags : 196592 num_pr0 : 12288
 SAE Count : 0
 Inter-Core Inteference in Data Store : 1442492
Heartbeat CPU 6 instructions: 60000000 cycles: 67559385 heartbeat IPC: 0.890235 cumulative IPC: 0.888108 (Simulation time: 4 hr 58 min 54 sec) 
 Total Blocks : 196608 Invalid Blocks : 16 Valid Blocks : 196592
 Total Tags : 491520 Threshold : 12288 Invalid Tags : 196624 Pr0 Tags : 98304 Pr1 Tags : 196592 num_pr0 : 12288
 SAE Count : 0
 Inter-Core Inteference in Data Store : 1442580
Heartbeat CPU 5 instructions: 60000000 cycles: 67562734 heartbeat IPC: 0.890149 cumulative IPC: 0.888064 (Simulation time: 4 hr 58 min 54 sec) 
 Total Blocks : 196608 Invalid Blocks : 16 Valid Blocks : 196592
 Total Tags : 491520 Threshold : 12288 Invalid Tags : 196624 Pr0 Tags : 98304 Pr1 Tags : 196592 num_pr0 : 12288
 SAE Count : 0
 Inter-Core Inteference in Data Store : 1442648
Heartbeat CPU 2 instructions: 70000000 cycles: 78815616 heartbeat IPC: 0.886945 cumulative IPC: 0.888149 (Simulation time: 6 hr 10 min 32 sec) 
 Total Blocks : 196608 Invalid Blocks : 2 Valid Blocks : 196606
 Total Tags : 491520 Threshold : 12288 Invalid Tags : 196610 Pr0 Tags : 98304 Pr1 Tags : 196606 num_pr0 : 12288
 SAE Count : 0
 Inter-Core Inteference in Data Store : 1688496
Heartbeat CPU 3 instructions: 70000000 cycles: 78820300 heartbeat IPC: 0.886867 cumulative IPC: 0.888096 (Simulation time: 6 hr 10 min 35 sec) 
 Total Blocks : 196608 Invalid Blocks : 2 Valid Blocks : 196606
 Total Tags : 491520 Threshold : 12288 Invalid Tags : 196610 Pr0 Tags : 98304 Pr1 Tags : 196606 num_pr0 : 12288
 SAE Count : 0
 Inter-Core Inteference in Data Store : 1688627
Heartbeat CPU 4 instructions: 70000000 cycles: 78825145 heartbeat IPC: 0.886869 cumulative IPC: 0.888041 (Simulation time: 6 hr 10 min 37 sec) 
 Total Blocks : 196608 Invalid Blocks : 2 Valid Blocks : 196606
 Total Tags : 491520 Threshold : 12288 Invalid Tags : 196610 Pr0 Tags : 98304 Pr1 Tags : 196606 num_pr0 : 12288
 SAE Count : 0
 Inter-Core Inteference in Data Store : 1688722
Heartbeat CPU 0 instructions: 70000000 cycles: 78827914 heartbeat IPC: 0.886797 cumulative IPC: 0.88801 (Simulation time: 6 hr 10 min 38 sec) 
 Total Blocks : 196608 Invalid Blocks : 2 Valid Blocks : 196606
 Total Tags : 491520 Threshold : 12288 Invalid Tags : 196610 Pr0 Tags : 98304 Pr1 Tags : 196606 num_pr0 : 12288
 SAE Count : 0
 Inter-Core Inteference in Data Store : 1688757
Heartbeat CPU 1 instructions: 70000000 cycles: 78828170 heartbeat IPC: 0.886787 cumulative IPC: 0.888007 (Simulation time: 6 hr 10 min 38 sec) 
 Total Blocks : 196608 Invalid Blocks : 2 Valid Blocks : 196606
 Total Tags : 491520 Threshold : 12288 Invalid Tags : 196610 Pr0 Tags : 98304 Pr1 Tags : 196606 num_pr0 : 12288
 SAE Count : 0
 Inter-Core Inteference in Data Store : 1688760
Heartbeat CPU 7 instructions: 70000000 cycles: 78829408 heartbeat IPC: 0.88679 cumulative IPC: 0.887993 (Simulation time: 6 hr 10 min 38 sec) 
 Total Blocks : 196608 Invalid Blocks : 2 Valid Blocks : 196606
 Total Tags : 491520 Threshold : 12288 Invalid Tags : 196610 Pr0 Tags : 98304 Pr1 Tags : 196606 num_pr0 : 12288
 SAE Count : 0
 Inter-Core Inteference in Data Store : 1688766
Heartbeat CPU 6 instructions: 70000000 cycles: 78837708 heartbeat IPC: 0.886657 cumulative IPC: 0.8879 (Simulation time: 6 hr 10 min 39 sec) 
 Total Blocks : 196608 Invalid Blocks : 2 Valid Blocks : 196606
 Total Tags : 491520 Threshold : 12288 Invalid Tags : 196611 Pr0 Tags : 98303 Pr1 Tags : 196606 num_pr0 : 12288
 SAE Count : 0
 Inter-Core Inteference in Data Store : 1688813
Heartbeat CPU 5 instructions: 70000000 cycles: 78841375 heartbeat IPC: 0.886632 cumulative IPC: 0.887859 (Simulation time: 6 hr 10 min 39 sec) 
 Total Blocks : 196608 Invalid Blocks : 2 Valid Blocks : 196606
 Total Tags : 491520 Threshold : 12288 Invalid Tags : 196610 Pr0 Tags : 98304 Pr1 Tags : 196606 num_pr0 : 12288
 SAE Count : 0
 Inter-Core Inteference in Data Store : 1688820
Heartbeat CPU 2 instructions: 80000000 cycles: 89997781 heartbeat IPC: 0.894281 cumulative IPC: 0.888911 (Simulation time: 7 hr 25 min 47 sec) 
 Total Blocks : 196608 Invalid Blocks : 0 Valid Blocks : 196608
 Total Tags : 491520 Threshold : 12288 Invalid Tags : 196608 Pr0 Tags : 98304 Pr1 Tags : 196608 num_pr0 : 12288
 SAE Count : 0
 Inter-Core Inteference in Data Store : 1935195
Heartbeat CPU 3 instructions: 80000000 cycles: 90002513 heartbeat IPC: 0.894277 cumulative IPC: 0.888864 (Simulation time: 7 hr 25 min 48 sec) 
 Total Blocks : 196608 Invalid Blocks : 0 Valid Blocks : 196608
 Total Tags : 491520 Threshold : 12288 Invalid Tags : 196608 Pr0 Tags : 98304 Pr1 Tags : 196608 num_pr0 : 12288
 SAE Count : 0
 Inter-Core Inteference in Data Store : 1935261
Heartbeat CPU 4 instructions: 80000000 cycles: 90008179 heartbeat IPC: 0.894212 cumulative IPC: 0.888808 (Simulation time: 7 hr 25 min 49 sec) 
 Total Blocks : 196608 Invalid Blocks : 0 Valid Blocks : 196608
 Total Tags : 491520 Threshold : 12288 Invalid Tags : 196608 Pr0 Tags : 98304 Pr1 Tags : 196608 num_pr0 : 12288
 SAE Count : 0
 Inter-Core Inteference in Data Store : 1935328
Heartbeat CPU 0 instructions: 80000000 cycles: 90010571 heartbeat IPC: 0.894242 cumulative IPC: 0.888784 (Simulation time: 7 hr 25 min 49 sec) 
 Total Blocks : 196608 Invalid Blocks : 0 Valid Blocks : 196608
 Total Tags : 491520 Threshold : 12288 Invalid Tags : 196608 Pr0 Tags : 98304 Pr1 Tags : 196608 num_pr0 : 12288
 SAE Count : 0
 Inter-Core Inteference in Data Store : 1935372
Heartbeat CPU 1 instructions: 80000000 cycles: 90011210 heartbeat IPC: 0.894211 cumulative IPC: 0.888778 (Simulation time: 7 hr 25 min 49 sec) 
 Total Blocks : 196608 Invalid Blocks : 0 Valid Blocks : 196608
 Total Tags : 491520 Threshold : 12288 Invalid Tags : 196608 Pr0 Tags : 98304 Pr1 Tags : 196608 num_pr0 : 12288
 SAE Count : 0
 Inter-Core Inteference in Data Store : 1935378
Heartbeat CPU 7 instructions: 80000000 cycles: 90012383 heartbeat IPC: 0.894216 cumulative IPC: 0.888767 (Simulation time: 7 hr 25 min 49 sec) 
 Total Blocks : 196608 Invalid Blocks : 0 Valid Blocks : 196608
 Total Tags : 491520 Threshold : 12288 Invalid Tags : 196608 Pr0 Tags : 98304 Pr1 Tags : 196608 num_pr0 : 12288
 SAE Count : 0
 Inter-Core Inteference in Data Store : 1935389
Heartbeat CPU 6 instructions: 80000000 cycles: 90022122 heartbeat IPC: 0.894101 cumulative IPC: 0.88867 (Simulation time: 7 hr 25 min 50 sec) 
 Total Blocks : 196608 Invalid Blocks : 0 Valid Blocks : 196608
 Total Tags : 491520 Threshold : 12288 Invalid Tags : 196609 Pr0 Tags : 98303 Pr1 Tags : 196608 num_pr0 : 12288
 SAE Count : 0
 Inter-Core Inteference in Data Store : 1935517
Heartbeat CPU 5 instructions: 80000000 cycles: 90026699 heartbeat IPC: 0.894029 cumulative IPC: 0.888625 (Simulation time: 7 hr 25 min 50 sec) 
 Total Blocks : 196608 Invalid Blocks : 0 Valid Blocks : 196608
 Total Tags : 491520 Threshold : 12288 Invalid Tags : 196608 Pr0 Tags : 98304 Pr1 Tags : 196608 num_pr0 : 12288
 SAE Count : 0
 Inter-Core Inteference in Data Store : 1935563
Heartbeat CPU 2 instructions: 90000002 cycles: 101154715 heartbeat IPC: 0.896304 cumulative IPC: 0.889726 (Simulation time: 8 hr 48 min 46 sec) 
 Total Blocks : 196608 Invalid Blocks : 0 Valid Blocks : 196608
 Total Tags : 491520 Threshold : 12288 Invalid Tags : 196608 Pr0 Tags : 98304 Pr1 Tags : 196608 num_pr0 : 12288
 SAE Count : 0
 Inter-Core Inteference in Data Store : 2185667
Heartbeat CPU 3 instructions: 90000002 cycles: 101160081 heartbeat IPC: 0.896253 cumulative IPC: 0.889679 (Simulation time: 8 hr 48 min 47 sec) 
 Total Blocks : 196608 Invalid Blocks : 0 Valid Blocks : 196608
 Total Tags : 491520 Threshold : 12288 Invalid Tags : 196608 Pr0 Tags : 98304 Pr1 Tags : 196608 num_pr0 : 12288
 SAE Count : 0
 Inter-Core Inteference in Data Store : 2185725
Heartbeat CPU 4 instructions: 90000002 cycles: 101166630 heartbeat IPC: 0.896182 cumulative IPC: 0.889621 (Simulation time: 8 hr 48 min 47 sec) 
 Total Blocks : 196608 Invalid Blocks : 0 Valid Blocks : 196608
 Total Tags : 491520 Threshold : 12288 Invalid Tags : 196609 Pr0 Tags : 98303 Pr1 Tags : 196608 num_pr0 : 12288
 SAE Count : 0
 Inter-Core Inteference in Data Store : 2185830
Heartbeat CPU 0 instructions: 90000002 cycles: 101168640 heartbeat IPC: 0.896213 cumulative IPC: 0.889604 (Simulation time: 8 hr 48 min 47 sec) 
 Total Blocks : 196608 Invalid Blocks : 0 Valid Blocks : 196608
 Total Tags : 491520 Threshold : 12288 Invalid Tags : 196608 Pr0 Tags : 98304 Pr1 Tags : 196608 num_pr0 : 12288
 SAE Count : 0
 Inter-Core Inteference in Data Store : 2185861
Heartbeat CPU 1 instructions: 90000002 cycles: 101170163 heartbeat IPC: 0.896142 cumulative IPC: 0.88959 (Simulation time: 8 hr 48 min 48 sec) 
 Total Blocks : 196608 Invalid Blocks : 0 Valid Blocks : 196608
 Total Tags : 491520 Threshold : 12288 Invalid Tags : 196608 Pr0 Tags : 98304 Pr1 Tags : 196608 num_pr0 : 12288
 SAE Count : 0
 Inter-Core Inteference in Data Store : 2185874
Heartbeat CPU 7 instructions: 90000002 cycles: 101171182 heartbeat IPC: 0.896154 cumulative IPC: 0.889581 (Simulation time: 8 hr 48 min 48 sec) 
 Total Blocks : 196608 Invalid Blocks : 0 Valid Blocks : 196608
 Total Tags : 491520 Threshold : 12288 Invalid Tags : 196608 Pr0 Tags : 98304 Pr1 Tags : 196608 num_pr0 : 12288
 SAE Count : 0
 Inter-Core Inteference in Data Store : 2185883
Heartbeat CPU 6 instructions: 90000002 cycles: 101182169 heartbeat IPC: 0.896054 cumulative IPC: 0.889485 (Simulation time: 8 hr 48 min 49 sec) 
 Total Blocks : 196608 Invalid Blocks : 0 Valid Blocks : 196608
 Total Tags : 491520 Threshold : 12288 Invalid Tags : 196608 Pr0 Tags : 98304 Pr1 Tags : 196608 num_pr0 : 12288
 SAE Count : 0
 Inter-Core Inteference in Data Store : 2186035
Heartbeat CPU 5 instructions: 90000002 cycles: 101186683 heartbeat IPC: 0.896059 cumulative IPC: 0.889445 (Simulation time: 8 hr 48 min 49 sec) 
 Total Blocks : 196608 Invalid Blocks : 0 Valid Blocks : 196608
 Total Tags : 491520 Threshold : 12288 Invalid Tags : 196609 Pr0 Tags : 98303 Pr1 Tags : 196608 num_pr0 : 12288
 SAE Count : 0
 Inter-Core Inteference in Data Store : 2186098
Heartbeat CPU 2 instructions: 100000000 cycles: 112219660 heartbeat IPC: 0.903755 cumulative IPC: 0.891109 (Simulation time: 10 hr 16 min 13 sec) 
 Total Blocks : 196608 Invalid Blocks : 0 Valid Blocks : 196608
 Total Tags : 491520 Threshold : 12288 Invalid Tags : 196608 Pr0 Tags : 98304 Pr1 Tags : 196608 num_pr0 : 12288
 SAE Count : 0
 Inter-Core Inteference in Data Store : 2435561
Heartbeat CPU 3 instructions: 100000000 cycles: 112224812 heartbeat IPC: 0.903772 cumulative IPC: 0.891069 (Simulation time: 10 hr 16 min 13 sec) 
 Total Blocks : 196608 Invalid Blocks : 0 Valid Blocks : 196608
 Total Tags : 491520 Threshold : 12288 Invalid Tags : 196608 Pr0 Tags : 98304 Pr1 Tags : 196608 num_pr0 : 12288
 SAE Count : 0
 Inter-Core Inteference in Data Store : 2435627
Heartbeat CPU 4 instructions: 100000000 cycles: 112232580 heartbeat IPC: 0.903673 cumulative IPC: 0.891007 (Simulation time: 10 hr 16 min 14 sec) 
 Total Blocks : 196608 Invalid Blocks : 0 Valid Blocks : 196608
 Total Tags : 491520 Threshold : 12288 Invalid Tags : 196608 Pr0 Tags : 98304 Pr1 Tags : 196608 num_pr0 : 12288
 SAE Count : 0
 Inter-Core Inteference in Data Store : 2435743
Heartbeat CPU 0 instructions: 100000000 cycles: 112234685 heartbeat IPC: 0.903665 cumulative IPC: 0.89099 (Simulation time: 10 hr 16 min 14 sec) 
 Total Blocks : 196608 Invalid Blocks : 0 Valid Blocks : 196608
 Total Tags : 491520 Threshold : 12288 Invalid Tags : 196608 Pr0 Tags : 98304 Pr1 Tags : 196608 num_pr0 : 12288
 SAE Count : 0
 Inter-Core Inteference in Data Store : 2435769
Heartbeat CPU 1 instructions: 100000000 cycles: 112235970 heartbeat IPC: 0.903684 cumulative IPC: 0.89098 (Simulation time: 10 hr 16 min 14 sec) 
 Total Blocks : 196608 Invalid Blocks : 0 Valid Blocks : 196608
 Total Tags : 491520 Threshold : 12288 Invalid Tags : 196608 Pr0 Tags : 98304 Pr1 Tags : 196608 num_pr0 : 12288
 SAE Count : 0
 Inter-Core Inteference in Data Store : 2435783
Heartbeat CPU 7 instructions: 100000000 cycles: 112237487 heartbeat IPC: 0.903644 cumulative IPC: 0.890968 (Simulation time: 10 hr 16 min 14 sec) 
 Total Blocks : 196608 Invalid Blocks : 0 Valid Blocks : 196608
 Total Tags : 491520 Threshold : 12288 Invalid Tags : 196608 Pr0 Tags : 98304 Pr1 Tags : 196608 num_pr0 : 12288
 SAE Count : 0
 Inter-Core Inteference in Data Store : 2435801
Heartbeat CPU 6 instructions: 100000000 cycles: 112249612 heartbeat IPC: 0.903551 cumulative IPC: 0.890872 (Simulation time: 10 hr 16 min 16 sec) 
 Total Blocks : 196608 Invalid Blocks : 0 Valid Blocks : 196608
 Total Tags : 491520 Threshold : 12288 Invalid Tags : 196608 Pr0 Tags : 98304 Pr1 Tags : 196608 num_pr0 : 12288
 SAE Count : 0
 Inter-Core Inteference in Data Store : 2435968
Heartbeat CPU 5 instructions: 100000000 cycles: 112254585 heartbeat IPC: 0.903513 cumulative IPC: 0.890832 (Simulation time: 10 hr 16 min 16 sec) 
 Total Blocks : 196608 Invalid Blocks : 0 Valid Blocks : 196608
 Total Tags : 491520 Threshold : 12288 Invalid Tags : 196609 Pr0 Tags : 98303 Pr1 Tags : 196608 num_pr0 : 12288
 SAE Count : 0
 Inter-Core Inteference in Data Store : 2436032
Heartbeat CPU 2 instructions: 110000000 cycles: 123249114 heartbeat IPC: 0.906663 cumulative IPC: 0.892501 (Simulation time: 11 hr 59 min 16 sec) 
 Total Blocks : 196608 Invalid Blocks : 0 Valid Blocks : 196608
 Total Tags : 491520 Threshold : 12288 Invalid Tags : 196608 Pr0 Tags : 98304 Pr1 Tags : 196608 num_pr0 : 12288
 SAE Count : 0
 Inter-Core Inteference in Data Store : 2684670
Heartbeat CPU 3 instructions: 110000000 cycles: 123254114 heartbeat IPC: 0.906676 cumulative IPC: 0.892465 (Simulation time: 11 hr 59 min 19 sec) 
 Total Blocks : 196608 Invalid Blocks : 0 Valid Blocks : 196608
 Total Tags : 491520 Threshold : 12288 Invalid Tags : 196608 Pr0 Tags : 98304 Pr1 Tags : 196608 num_pr0 : 12288
 SAE Count : 0
 Inter-Core Inteference in Data Store : 2684800
Heartbeat CPU 4 instructions: 110000000 cycles: 123262724 heartbeat IPC: 0.906606 cumulative IPC: 0.892403 (Simulation time: 11 hr 59 min 24 sec) 
 Total Blocks : 196608 Invalid Blocks : 0 Valid Blocks : 196608
 Total Tags : 491520 Threshold : 12288 Invalid Tags : 196608 Pr0 Tags : 98304 Pr1 Tags : 196608 num_pr0 : 12288
 SAE Count : 0
 Inter-Core Inteference in Data Store : 2685077
Heartbeat CPU 0 instructions: 110000000 cycles: 123265102 heartbeat IPC: 0.906584 cumulative IPC: 0.892386 (Simulation time: 11 hr 59 min 26 sec) 
 Total Blocks : 196608 Invalid Blocks : 0 Valid Blocks : 196608
 Total Tags : 491520 Threshold : 12288 Invalid Tags : 196608 Pr0 Tags : 98304 Pr1 Tags : 196608 num_pr0 : 12288
 SAE Count : 0
 Inter-Core Inteference in Data Store : 2685147
Heartbeat CPU 1 instructions: 110000000 cycles: 123265931 heartbeat IPC: 0.906622 cumulative IPC: 0.89238 (Simulation time: 11 hr 59 min 27 sec) 
 Total Blocks : 196608 Invalid Blocks : 0 Valid Blocks : 196608
 Total Tags : 491520 Threshold : 12288 Invalid Tags : 196608 Pr0 Tags : 98304 Pr1 Tags : 196608 num_pr0 : 12288
 SAE Count : 0
 Inter-Core Inteference in Data Store : 2685169
Heartbeat CPU 7 instructions: 110000000 cycles: 123267656 heartbeat IPC: 0.906604 cumulative IPC: 0.892367 (Simulation time: 11 hr 59 min 28 sec) 
 Total Blocks : 196608 Invalid Blocks : 0 Valid Blocks : 196608
 Total Tags : 491520 Threshold : 12288 Invalid Tags : 196608 Pr0 Tags : 98304 Pr1 Tags : 196608 num_pr0 : 12288
 SAE Count : 0
 Inter-Core Inteference in Data Store : 2685236
Heartbeat CPU 6 instructions: 110000000 cycles: 123281986 heartbeat IPC: 0.906423 cumulative IPC: 0.892263 (Simulation time: 11 hr 59 min 54 sec) 
 Total Blocks : 196608 Invalid Blocks : 0 Valid Blocks : 196608
 Total Tags : 491520 Threshold : 12288 Invalid Tags : 196608 Pr0 Tags : 98304 Pr1 Tags : 196608 num_pr0 : 12288
 SAE Count : 0
 Inter-Core Inteference in Data Store : 2685884
Heartbeat CPU 5 instructions: 110000000 cycles: 123286777 heartbeat IPC: 0.906438 cumulative IPC: 0.892229 (Simulation time: 12 hr 0 min 2 sec) 
 Total Blocks : 196608 Invalid Blocks : 0 Valid Blocks : 196608
 Total Tags : 491520 Threshold : 12288 Invalid Tags : 196608 Pr0 Tags : 98304 Pr1 Tags : 196608 num_pr0 : 12288
 SAE Count : 0
 Inter-Core Inteference in Data Store : 2686118
Heartbeat CPU 2 instructions: 120000001 cycles: 134249775 heartbeat IPC: 0.909036 cumulative IPC: 0.893856 (Simulation time: 13 hr 50 min 16 sec) 
 Total Blocks : 196608 Invalid Blocks : 0 Valid Blocks : 196608
 Total Tags : 491520 Threshold : 12288 Invalid Tags : 196608 Pr0 Tags : 98304 Pr1 Tags : 196608 num_pr0 : 12288
 SAE Count : 0
 Inter-Core Inteference in Data Store : 2935013
Heartbeat CPU 3 instructions: 120000001 cycles: 134254766 heartbeat IPC: 0.909037 cumulative IPC: 0.893823 (Simulation time: 13 hr 50 min 16 sec) 
 Total Blocks : 196608 Invalid Blocks : 0 Valid Blocks : 196608
 Total Tags : 491520 Threshold : 12288 Invalid Tags : 196608 Pr0 Tags : 98304 Pr1 Tags : 196608 num_pr0 : 12288
 SAE Count : 0
 Inter-Core Inteference in Data Store : 2935075
Heartbeat CPU 4 instructions: 120000001 cycles: 134264002 heartbeat IPC: 0.908985 cumulative IPC: 0.893762 (Simulation time: 13 hr 50 min 17 sec) 
 Total Blocks : 196608 Invalid Blocks : 0 Valid Blocks : 196608
 Total Tags : 491520 Threshold : 12288 Invalid Tags : 196608 Pr0 Tags : 98304 Pr1 Tags : 196608 num_pr0 : 12288
 SAE Count : 0
 Inter-Core Inteference in Data Store : 2935197
Heartbeat CPU 0 instructions: 120000001 cycles: 134266367 heartbeat IPC: 0.908986 cumulative IPC: 0.893746 (Simulation time: 13 hr 50 min 17 sec) 
 Total Blocks : 196608 Invalid Blocks : 0 Valid Blocks : 196608
 Total Tags : 491520 Threshold : 12288 Invalid Tags : 196608 Pr0 Tags : 98304 Pr1 Tags : 196608 num_pr0 : 12288
 SAE Count : 0
 Inter-Core Inteference in Data Store : 2935220
Heartbeat CPU 1 instructions: 120000001 cycles: 134267364 heartbeat IPC: 0.908973 cumulative IPC: 0.893739 (Simulation time: 13 hr 50 min 17 sec) 
 Total Blocks : 196608 Invalid Blocks : 0 Valid Blocks : 196608
 Total Tags : 491520 Threshold : 12288 Invalid Tags : 196608 Pr0 Tags : 98304 Pr1 Tags : 196608 num_pr0 : 12288
 SAE Count : 0
 Inter-Core Inteference in Data Store : 2935237
Heartbeat CPU 7 instructions: 120000001 cycles: 134270068 heartbeat IPC: 0.908892 cumulative IPC: 0.893721 (Simulation time: 13 hr 50 min 17 sec) 
 Total Blocks : 196608 Invalid Blocks : 0 Valid Blocks : 196608
 Total Tags : 491520 Threshold : 12288 Invalid Tags : 196608 Pr0 Tags : 98304 Pr1 Tags : 196608 num_pr0 : 12288
 SAE Count : 0
 Inter-Core Inteference in Data Store : 2935271
Heartbeat CPU 6 instructions: 120000001 cycles: 134285602 heartbeat IPC: 0.908792 cumulative IPC: 0.893618 (Simulation time: 13 hr 50 min 19 sec) 
 Total Blocks : 196608 Invalid Blocks : 0 Valid Blocks : 196608
 Total Tags : 491520 Threshold : 12288 Invalid Tags : 196608 Pr0 Tags : 98304 Pr1 Tags : 196608 num_pr0 : 12288
 SAE Count : 0
 Inter-Core Inteference in Data Store : 2935497
Heartbeat CPU 5 instructions: 120000001 cycles: 134290247 heartbeat IPC: 0.908804 cumulative IPC: 0.893587 (Simulation time: 13 hr 50 min 19 sec) 
 Total Blocks : 196608 Invalid Blocks : 0 Valid Blocks : 196608
 Total Tags : 491520 Threshold : 12288 Invalid Tags : 196608 Pr0 Tags : 98304 Pr1 Tags : 196608 num_pr0 : 12288
 SAE Count : 0
 Inter-Core Inteference in Data Store : 2935554
Heartbeat CPU 2 instructions: 130000001 cycles: 145120671 heartbeat IPC: 0.919887 cumulative IPC: 0.895806 (Simulation time: 15 hr 50 min 45 sec) 
 Total Blocks : 196608 Invalid Blocks : 0 Valid Blocks : 196608
 Total Tags : 491520 Threshold : 12288 Invalid Tags : 196608 Pr0 Tags : 98304 Pr1 Tags : 196608 num_pr0 : 12288
 SAE Count : 0
 Inter-Core Inteference in Data Store : 3191087
Heartbeat CPU 3 instructions: 130000001 cycles: 145125626 heartbeat IPC: 0.91989 cumulative IPC: 0.895776 (Simulation time: 15 hr 50 min 57 sec) 
 Total Blocks : 196608 Invalid Blocks : 0 Valid Blocks : 196608
 Total Tags : 491520 Threshold : 12288 Invalid Tags : 196608 Pr0 Tags : 98304 Pr1 Tags : 196608 num_pr0 : 12288
 SAE Count : 0
 Inter-Core Inteference in Data Store : 3191297
Heartbeat CPU 4 instructions: 130000001 cycles: 145136281 heartbeat IPC: 0.91977 cumulative IPC: 0.89571 (Simulation time: 15 hr 51 min 16 sec) 
 Total Blocks : 196608 Invalid Blocks : 0 Valid Blocks : 196608
 Total Tags : 491520 Threshold : 12288 Invalid Tags : 196608 Pr0 Tags : 98304 Pr1 Tags : 196608 num_pr0 : 12288
 SAE Count : 0
 Inter-Core Inteference in Data Store : 3191775
Heartbeat CPU 0 instructions: 130000001 cycles: 145137985 heartbeat IPC: 0.919826 cumulative IPC: 0.895699 (Simulation time: 15 hr 51 min 19 sec) 
 Total Blocks : 196608 Invalid Blocks : 0 Valid Blocks : 196608
 Total Tags : 491520 Threshold : 12288 Invalid Tags : 196608 Pr0 Tags : 98304 Pr1 Tags : 196608 num_pr0 : 12288
 SAE Count : 0
 Inter-Core Inteference in Data Store : 3191861
Heartbeat CPU 1 instructions: 130000001 cycles: 145139248 heartbeat IPC: 0.919804 cumulative IPC: 0.895692 (Simulation time: 15 hr 51 min 22 sec) 
 Total Blocks : 196608 Invalid Blocks : 0 Valid Blocks : 196608
 Total Tags : 491520 Threshold : 12288 Invalid Tags : 196608 Pr0 Tags : 98304 Pr1 Tags : 196608 num_pr0 : 12288
 SAE Count : 0
 Inter-Core Inteference in Data Store : 3191936
Heartbeat CPU 7 instructions: 130000001 cycles: 145142190 heartbeat IPC: 0.919784 cumulative IPC: 0.895673 (Simulation time: 15 hr 51 min 29 sec) 
 Total Blocks : 196608 Invalid Blocks : 0 Valid Blocks : 196608
 Total Tags : 491520 Threshold : 12288 Invalid Tags : 196608 Pr0 Tags : 98304 Pr1 Tags : 196608 num_pr0 : 12288
 SAE Count : 0
 Inter-Core Inteference in Data Store : 3192100
Heartbeat CPU 6 instructions: 130000001 cycles: 145158922 heartbeat IPC: 0.919682 cumulative IPC: 0.89557 (Simulation time: 15 hr 52 min 9 sec) 
 Total Blocks : 196608 Invalid Blocks : 0 Valid Blocks : 196608
 Total Tags : 491520 Threshold : 12288 Invalid Tags : 196608 Pr0 Tags : 98304 Pr1 Tags : 196608 num_pr0 : 12288
 SAE Count : 0
 Inter-Core Inteference in Data Store : 3193031
Heartbeat CPU 5 instructions: 130000001 cycles: 145163580 heartbeat IPC: 0.919681 cumulative IPC: 0.895541 (Simulation time: 15 hr 52 min 18 sec) 
 Total Blocks : 196608 Invalid Blocks : 0 Valid Blocks : 196608
 Total Tags : 491520 Threshold : 12288 Invalid Tags : 196608 Pr0 Tags : 98304 Pr1 Tags : 196608 num_pr0 : 12288
 SAE Count : 0
 Inter-Core Inteference in Data Store : 3193259
Heartbeat CPU 2 instructions: 140000003 cycles: 155886404 heartbeat IPC: 0.928873 cumulative IPC: 0.89809 (Simulation time: 18 hr 0 min 9 sec) 
 Total Blocks : 196608 Invalid Blocks : 0 Valid Blocks : 196608
 Total Tags : 491520 Threshold : 12288 Invalid Tags : 196608 Pr0 Tags : 98304 Pr1 Tags : 196608 num_pr0 : 12288
 SAE Count : 0
 Inter-Core Inteference in Data Store : 3452241
Heartbeat CPU 3 instructions: 140000003 cycles: 155891326 heartbeat IPC: 0.928876 cumulative IPC: 0.898062 (Simulation time: 18 hr 0 min 10 sec) 
 Total Blocks : 196608 Invalid Blocks : 0 Valid Blocks : 196608
 Total Tags : 491520 Threshold : 12288 Invalid Tags : 196608 Pr0 Tags : 98304 Pr1 Tags : 196608 num_pr0 : 12288
 SAE Count : 0
 Inter-Core Inteference in Data Store : 3452308
Heartbeat CPU 4 instructions: 140000003 cycles: 155902859 heartbeat IPC: 0.9288 cumulative IPC: 0.897995 (Simulation time: 18 hr 0 min 10 sec) 
 Total Blocks : 196608 Invalid Blocks : 0 Valid Blocks : 196608
 Total Tags : 491520 Threshold : 12288 Invalid Tags : 196608 Pr0 Tags : 98304 Pr1 Tags : 196608 num_pr0 : 12288
 SAE Count : 0
 Inter-Core Inteference in Data Store : 3452433
Heartbeat CPU 0 instructions: 140000003 cycles: 155904863 heartbeat IPC: 0.928775 cumulative IPC: 0.897984 (Simulation time: 18 hr 0 min 11 sec) 
 Total Blocks : 196608 Invalid Blocks : 0 Valid Blocks : 196608
 Total Tags : 491520 Threshold : 12288 Invalid Tags : 196608 Pr0 Tags : 98304 Pr1 Tags : 196608 num_pr0 : 12288
 SAE Count : 0
 Inter-Core Inteference in Data Store : 3452469
Heartbeat CPU 1 instructions: 140000003 cycles: 155906106 heartbeat IPC: 0.928776 cumulative IPC: 0.897976 (Simulation time: 18 hr 0 min 11 sec) 
 Total Blocks : 196608 Invalid Blocks : 0 Valid Blocks : 196608
 Total Tags : 491520 Threshold : 12288 Invalid Tags : 196608 Pr0 Tags : 98304 Pr1 Tags : 196608 num_pr0 : 12288
 SAE Count : 0
 Inter-Core Inteference in Data Store : 3452487
Heartbeat CPU 7 instructions: 140000003 cycles: 155908973 heartbeat IPC: 0.928783 cumulative IPC: 0.89796 (Simulation time: 18 hr 0 min 11 sec) 
 Total Blocks : 196608 Invalid Blocks : 0 Valid Blocks : 196608
 Total Tags : 491520 Threshold : 12288 Invalid Tags : 196608 Pr0 Tags : 98304 Pr1 Tags : 196608 num_pr0 : 12288
 SAE Count : 0
 Inter-Core Inteference in Data Store : 3452528
Heartbeat CPU 6 instructions: 140000003 cycles: 155926946 heartbeat IPC: 0.928676 cumulative IPC: 0.897856 (Simulation time: 18 hr 0 min 18 sec) 
 Total Blocks : 196608 Invalid Blocks : 0 Valid Blocks : 196608
 Total Tags : 491520 Threshold : 12288 Invalid Tags : 196608 Pr0 Tags : 98304 Pr1 Tags : 196608 num_pr0 : 12288
 SAE Count : 0
 Inter-Core Inteference in Data Store : 3452880
Heartbeat CPU 5 instructions: 140000003 cycles: 155931345 heartbeat IPC: 0.928698 cumulative IPC: 0.897831 (Simulation time: 18 hr 0 min 21 sec) 
 Total Blocks : 196608 Invalid Blocks : 0 Valid Blocks : 196608
 Total Tags : 491520 Threshold : 12288 Invalid Tags : 196608 Pr0 Tags : 98304 Pr1 Tags : 196608 num_pr0 : 12288
 SAE Count : 0
 Inter-Core Inteference in Data Store : 3453008
Heartbeat CPU 2 instructions: 150000000 cycles: 166208978 heartbeat IPC: 0.96875 cumulative IPC: 0.902478 (Simulation time: 20 hr 27 min 38 sec) 
 Total Blocks : 196608 Invalid Blocks : 0 Valid Blocks : 196608
 Total Tags : 491520 Threshold : 12288 Invalid Tags : 196608 Pr0 Tags : 98304 Pr1 Tags : 196608 num_pr0 : 12288
 SAE Count : 0
 Inter-Core Inteference in Data Store : 3706127
Heartbeat CPU 3 instructions: 150000000 cycles: 166214256 heartbeat IPC: 0.968717 cumulative IPC: 0.90245 (Simulation time: 20 hr 27 min 50 sec) 
 Total Blocks : 196608 Invalid Blocks : 0 Valid Blocks : 196608
 Total Tags : 491520 Threshold : 12288 Invalid Tags : 196608 Pr0 Tags : 98304 Pr1 Tags : 196608 num_pr0 : 12288
 SAE Count : 0
 Inter-Core Inteference in Data Store : 3706350
Heartbeat CPU 4 instructions: 150000000 cycles: 166226280 heartbeat IPC: 0.968671 cumulative IPC: 0.902384 (Simulation time: 20 hr 28 min 18 sec) 
 Total Blocks : 196608 Invalid Blocks : 0 Valid Blocks : 196608
 Total Tags : 491520 Threshold : 12288 Invalid Tags : 196608 Pr0 Tags : 98304 Pr1 Tags : 196608 num_pr0 : 12288
 SAE Count : 0
 Inter-Core Inteference in Data Store : 3706981
Heartbeat CPU 0 instructions: 150000000 cycles: 166227589 heartbeat IPC: 0.968736 cumulative IPC: 0.902377 (Simulation time: 20 hr 28 min 21 sec) 
 Total Blocks : 196608 Invalid Blocks : 0 Valid Blocks : 196608
 Total Tags : 491520 Threshold : 12288 Invalid Tags : 196609 Pr0 Tags : 98303 Pr1 Tags : 196608 num_pr0 : 12288
 SAE Count : 0
 Inter-Core Inteference in Data Store : 3707030
Heartbeat CPU 1 instructions: 150000000 cycles: 166229143 heartbeat IPC: 0.968707 cumulative IPC: 0.902369 (Simulation time: 20 hr 28 min 24 sec) 
 Total Blocks : 196608 Invalid Blocks : 0 Valid Blocks : 196608
 Total Tags : 491520 Threshold : 12288 Invalid Tags : 196608 Pr0 Tags : 98304 Pr1 Tags : 196608 num_pr0 : 12288
 SAE Count : 0
 Inter-Core Inteference in Data Store : 3707094
Heartbeat CPU 7 instructions: 150000000 cycles: 166232492 heartbeat IPC: 0.968662 cumulative IPC: 0.902351 (Simulation time: 20 hr 28 min 31 sec) 
 Total Blocks : 196608 Invalid Blocks : 0 Valid Blocks : 196608
 Total Tags : 491520 Threshold : 12288 Invalid Tags : 196608 Pr0 Tags : 98304 Pr1 Tags : 196608 num_pr0 : 12288
 SAE Count : 0
 Inter-Core Inteference in Data Store : 3707254
Heartbeat CPU 6 instructions: 150000000 cycles: 166251319 heartbeat IPC: 0.968582 cumulative IPC: 0.902249 (Simulation time: 20 hr 29 min 21 sec) 
 Total Blocks : 196608 Invalid Blocks : 0 Valid Blocks : 196608
 Total Tags : 491520 Threshold : 12288 Invalid Tags : 196608 Pr0 Tags : 98304 Pr1 Tags : 196608 num_pr0 : 12288
 SAE Count : 0
 Inter-Core Inteference in Data Store : 3708337
Heartbeat CPU 5 instructions: 150000000 cycles: 166255616 heartbeat IPC: 0.968591 cumulative IPC: 0.902225 (Simulation time: 20 hr 29 min 31 sec) 
 Total Blocks : 196608 Invalid Blocks : 0 Valid Blocks : 196608
 Total Tags : 491520 Threshold : 12288 Invalid Tags : 196608 Pr0 Tags : 98304 Pr1 Tags : 196608 num_pr0 : 12288
 SAE Count : 0
 Inter-Core Inteference in Data Store : 3708554
Heartbeat CPU 2 instructions: 160000000 cycles: 176166530 heartbeat IPC: 1.00426 cumulative IPC: 0.908232 (Simulation time: 23 hr 15 min 16 sec) 
 Total Blocks : 196608 Invalid Blocks : 0 Valid Blocks : 196608
 Total Tags : 491520 Threshold : 12288 Invalid Tags : 196608 Pr0 Tags : 98304 Pr1 Tags : 196608 num_pr0 : 12288
 SAE Count : 0
 Inter-Core Inteference in Data Store : 3949212
Heartbeat CPU 3 instructions: 160000000 cycles: 176171647 heartbeat IPC: 1.00428 cumulative IPC: 0.908205 (Simulation time: 23 hr 15 min 26 sec) 
 Total Blocks : 196608 Invalid Blocks : 0 Valid Blocks : 196608
 Total Tags : 491520 Threshold : 12288 Invalid Tags : 196608 Pr0 Tags : 98304 Pr1 Tags : 196608 num_pr0 : 12288
 SAE Count : 0
 Inter-Core Inteference in Data Store : 3949410
Heartbeat CPU 4 instructions: 160000000 cycles: 176184110 heartbeat IPC: 1.00423 cumulative IPC: 0.908141 (Simulation time: 23 hr 15 min 41 sec) 
 Total Blocks : 196608 Invalid Blocks : 0 Valid Blocks : 196608
 Total Tags : 491520 Threshold : 12288 Invalid Tags : 196608 Pr0 Tags : 98304 Pr1 Tags : 196608 num_pr0 : 12288
 SAE Count : 0
 Inter-Core Inteference in Data Store : 3949728
Heartbeat CPU 0 instructions: 160000000 cycles: 176185912 heartbeat IPC: 1.00419 cumulative IPC: 0.908132 (Simulation time: 23 hr 15 min 42 sec) 
 Total Blocks : 196608 Invalid Blocks : 0 Valid Blocks : 196608
 Total Tags : 491520 Threshold : 12288 Invalid Tags : 196608 Pr0 Tags : 98304 Pr1 Tags : 196608 num_pr0 : 12288
 SAE Count : 0
 Inter-Core Inteference in Data Store : 3949764
Heartbeat CPU 1 instructions: 160000000 cycles: 176187534 heartbeat IPC: 1.00418 cumulative IPC: 0.908123 (Simulation time: 23 hr 15 min 44 sec) 
 Total Blocks : 196608 Invalid Blocks : 0 Valid Blocks : 196608
 Total Tags : 491520 Threshold : 12288 Invalid Tags : 196608 Pr0 Tags : 98304 Pr1 Tags : 196608 num_pr0 : 12288
 SAE Count : 0
 Inter-Core Inteference in Data Store : 3949790
Heartbeat CPU 7 instructions: 160000000 cycles: 176190724 heartbeat IPC: 1.00419 cumulative IPC: 0.908107 (Simulation time: 23 hr 15 min 46 sec) 
 Total Blocks : 196608 Invalid Blocks : 0 Valid Blocks : 196608
 Total Tags : 491520 Threshold : 12288 Invalid Tags : 196608 Pr0 Tags : 98304 Pr1 Tags : 196608 num_pr0 : 12288
 SAE Count : 0
 Inter-Core Inteference in Data Store : 3949844
Heartbeat CPU 6 instructions: 160000000 cycles: 176210053 heartbeat IPC: 1.00414 cumulative IPC: 0.908007 (Simulation time: 23 hr 15 min 54 sec) 
 Total Blocks : 196608 Invalid Blocks : 0 Valid Blocks : 196608
 Total Tags : 491520 Threshold : 12288 Invalid Tags : 196608 Pr0 Tags : 98304 Pr1 Tags : 196608 num_pr0 : 12288
 SAE Count : 0
 Inter-Core Inteference in Data Store : 3950088
Heartbeat CPU 5 instructions: 160000000 cycles: 176214462 heartbeat IPC: 1.00413 cumulative IPC: 0.907984 (Simulation time: 23 hr 15 min 54 sec) 
 Total Blocks : 196608 Invalid Blocks : 0 Valid Blocks : 196608
 Total Tags : 491520 Threshold : 12288 Invalid Tags : 196608 Pr0 Tags : 98304 Pr1 Tags : 196608 num_pr0 : 12288
 SAE Count : 0
 Inter-Core Inteference in Data Store : 3950124
Heartbeat CPU 2 instructions: 170000000 cycles: 185993523 heartbeat IPC: 1.01761 cumulative IPC: 0.91401 (Simulation time: 26 hr 20 min 32 sec) 
 Total Blocks : 196608 Invalid Blocks : 0 Valid Blocks : 196608
 Total Tags : 491520 Threshold : 12288 Invalid Tags : 196608 Pr0 Tags : 98304 Pr1 Tags : 196608 num_pr0 : 12288
 SAE Count : 0
 Inter-Core Inteference in Data Store : 4203915
Heartbeat CPU 3 instructions: 170000000 cycles: 185999093 heartbeat IPC: 1.01756 cumulative IPC: 0.913983 (Simulation time: 26 hr 20 min 36 sec) 
 Total Blocks : 196608 Invalid Blocks : 0 Valid Blocks : 196608
 Total Tags : 491520 Threshold : 12288 Invalid Tags : 196608 Pr0 Tags : 98304 Pr1 Tags : 196608 num_pr0 : 12288
 SAE Count : 0
 Inter-Core Inteference in Data Store : 4204000
Heartbeat CPU 4 instructions: 170000000 cycles: 186011714 heartbeat IPC: 1.01754 cumulative IPC: 0.913921 (Simulation time: 26 hr 20 min 42 sec) 
 Total Blocks : 196608 Invalid Blocks : 0 Valid Blocks : 196608
 Total Tags : 491520 Threshold : 12288 Invalid Tags : 196608 Pr0 Tags : 98304 Pr1 Tags : 196608 num_pr0 : 12288
 SAE Count : 0
 Inter-Core Inteference in Data Store : 4204173
Heartbeat CPU 0 instructions: 170000000 cycles: 186013539 heartbeat IPC: 1.01754 cumulative IPC: 0.913912 (Simulation time: 26 hr 20 min 42 sec) 
 Total Blocks : 196608 Invalid Blocks : 0 Valid Blocks : 196608
 Total Tags : 491520 Threshold : 12288 Invalid Tags : 196608 Pr0 Tags : 98304 Pr1 Tags : 196608 num_pr0 : 12288
 SAE Count : 0
 Inter-Core Inteference in Data Store : 4204184
Heartbeat CPU 1 instructions: 170000000 cycles: 186014846 heartbeat IPC: 1.01757 cumulative IPC: 0.913906 (Simulation time: 26 hr 20 min 42 sec) 
 Total Blocks : 196608 Invalid Blocks : 0 Valid Blocks : 196608
 Total Tags : 491520 Threshold : 12288 Invalid Tags : 196608 Pr0 Tags : 98304 Pr1 Tags : 196608 num_pr0 : 12288
 SAE Count : 0
 Inter-Core Inteference in Data Store : 4204187
Heartbeat CPU 7 instructions: 170000000 cycles: 186018832 heartbeat IPC: 1.01749 cumulative IPC: 0.913886 (Simulation time: 26 hr 20 min 42 sec) 
 Total Blocks : 196608 Invalid Blocks : 0 Valid Blocks : 196608
 Total Tags : 491520 Threshold : 12288 Invalid Tags : 196608 Pr0 Tags : 98304 Pr1 Tags : 196608 num_pr0 : 12288
 SAE Count : 0
 Inter-Core Inteference in Data Store : 4204207
Heartbeat CPU 6 instructions: 170000000 cycles: 186038449 heartbeat IPC: 1.01746 cumulative IPC: 0.91379 (Simulation time: 26 hr 20 min 44 sec) 
 Total Blocks : 196608 Invalid Blocks : 0 Valid Blocks : 196608
 Total Tags : 491520 Threshold : 12288 Invalid Tags : 196608 Pr0 Tags : 98304 Pr1 Tags : 196608 num_pr0 : 12288
 SAE Count : 0
 Inter-Core Inteference in Data Store : 4204340
Heartbeat CPU 5 instructions: 170000000 cycles: 186042905 heartbeat IPC: 1.01746 cumulative IPC: 0.913768 (Simulation time: 26 hr 20 min 44 sec) 
 Total Blocks : 196608 Invalid Blocks : 0 Valid Blocks : 196608
 Total Tags : 491520 Threshold : 12288 Invalid Tags : 196608 Pr0 Tags : 98304 Pr1 Tags : 196608 num_pr0 : 12288
 SAE Count : 0
 Inter-Core Inteference in Data Store : 4204374
Heartbeat CPU 2 instructions: 180000002 cycles: 195354710 heartbeat IPC: 1.06824 cumulative IPC: 0.921401 (Simulation time: 29 hr 48 min 27 sec) 
 Total Blocks : 196608 Invalid Blocks : 0 Valid Blocks : 196608
 Total Tags : 491520 Threshold : 12288 Invalid Tags : 196608 Pr0 Tags : 98304 Pr1 Tags : 196608 num_pr0 : 12288
 SAE Count : 0
 Inter-Core Inteference in Data Store : 4443439
Heartbeat CPU 3 instructions: 180000002 cycles: 195360100 heartbeat IPC: 1.06826 cumulative IPC: 0.921375 (Simulation time: 29 hr 48 min 43 sec) 
 Total Blocks : 196608 Invalid Blocks : 0 Valid Blocks : 196608
 Total Tags : 491520 Threshold : 12288 Invalid Tags : 196608 Pr0 Tags : 98304 Pr1 Tags : 196608 num_pr0 : 12288
 SAE Count : 0
 Inter-Core Inteference in Data Store : 4443693
Heartbeat CPU 4 instructions: 180000002 cycles: 195373014 heartbeat IPC: 1.06823 cumulative IPC: 0.921315 (Simulation time: 29 hr 49 min 16 sec) 
 Total Blocks : 196608 Invalid Blocks : 0 Valid Blocks : 196608
 Total Tags : 491520 Threshold : 12288 Invalid Tags : 196608 Pr0 Tags : 98304 Pr1 Tags : 196608 num_pr0 : 12288
 SAE Count : 0
 Inter-Core Inteference in Data Store : 4444217
Heartbeat CPU 0 instructions: 180000002 cycles: 195374486 heartbeat IPC: 1.06827 cumulative IPC: 0.921308 (Simulation time: 29 hr 49 min 22 sec) 
 Total Blocks : 196608 Invalid Blocks : 0 Valid Blocks : 196608
 Total Tags : 491520 Threshold : 12288 Invalid Tags : 196608 Pr0 Tags : 98304 Pr1 Tags : 196608 num_pr0 : 12288
 SAE Count : 0
 Inter-Core Inteference in Data Store : 4444296
Heartbeat CPU 1 instructions: 180000002 cycles: 195375825 heartbeat IPC: 1.06826 cumulative IPC: 0.921301 (Simulation time: 29 hr 49 min 26 sec) 
 Total Blocks : 196608 Invalid Blocks : 0 Valid Blocks : 196608
 Total Tags : 491520 Threshold : 12288 Invalid Tags : 196608 Pr0 Tags : 98304 Pr1 Tags : 196608 num_pr0 : 12288
 SAE Count : 0
 Inter-Core Inteference in Data Store : 4444347
Heartbeat CPU 7 instructions: 180000002 cycles: 195380515 heartbeat IPC: 1.06818 cumulative IPC: 0.921279 (Simulation time: 29 hr 49 min 41 sec) 
 Total Blocks : 196608 Invalid Blocks : 0 Valid Blocks : 196608
 Total Tags : 491520 Threshold : 12288 Invalid Tags : 196608 Pr0 Tags : 98304 Pr1 Tags : 196608 num_pr0 : 12288
 SAE Count : 0
 Inter-Core Inteference in Data Store : 4444565
Heartbeat CPU 6 instructions: 180000002 cycles: 195400581 heartbeat IPC: 1.06813 cumulative IPC: 0.921185 (Simulation time: 29 hr 50 min 27 sec) 
 Total Blocks : 196608 Invalid Blocks : 0 Valid Blocks : 196608
 Total Tags : 491520 Threshold : 12288 Invalid Tags : 196608 Pr0 Tags : 98304 Pr1 Tags : 196608 num_pr0 : 12288
 SAE Count : 0
 Inter-Core Inteference in Data Store : 4445289
Heartbeat CPU 5 instructions: 180000002 cycles: 195404727 heartbeat IPC: 1.06817 cumulative IPC: 0.921165 (Simulation time: 29 hr 50 min 32 sec) 
 Total Blocks : 196608 Invalid Blocks : 0 Valid Blocks : 196608
 Total Tags : 491520 Threshold : 12288 Invalid Tags : 196608 Pr0 Tags : 98304 Pr1 Tags : 196608 num_pr0 : 12288
 SAE Count : 0
 Inter-Core Inteference in Data Store : 4445389
Heartbeat CPU 2 instructions: 190000001 cycles: 204892304 heartbeat IPC: 1.04848 cumulative IPC: 0.927316 (Simulation time: 61 hr 5 min 51 sec) 
 Total Blocks : 196608 Invalid Blocks : 0 Valid Blocks : 196608
 Total Tags : 491520 Threshold : 12288 Invalid Tags : 196608 Pr0 Tags : 98304 Pr1 Tags : 196608 num_pr0 : 12288
 SAE Count : 0
 Inter-Core Inteference in Data Store : 4693675
Heartbeat CPU 3 instructions: 190000001 cycles: 204898123 heartbeat IPC: 1.04844 cumulative IPC: 0.92729 (Simulation time: 61 hr 6 min 47 sec) 
 Total Blocks : 196608 Invalid Blocks : 0 Valid Blocks : 196608
 Total Tags : 491520 Threshold : 12288 Invalid Tags : 196608 Pr0 Tags : 98304 Pr1 Tags : 196608 num_pr0 : 12288
 SAE Count : 0
 Inter-Core Inteference in Data Store : 4693947
Heartbeat CPU 4 instructions: 190000001 cycles: 204910909 heartbeat IPC: 1.04845 cumulative IPC: 0.927232 (Simulation time: 61 hr 8 min 11 sec) 
 Total Blocks : 196608 Invalid Blocks : 0 Valid Blocks : 196608
 Total Tags : 491520 Threshold : 12288 Invalid Tags : 196608 Pr0 Tags : 98304 Pr1 Tags : 196608 num_pr0 : 12288
 SAE Count : 0
 Inter-Core Inteference in Data Store : 4694511
Heartbeat CPU 0 instructions: 190000001 cycles: 204912880 heartbeat IPC: 1.04839 cumulative IPC: 0.927223 (Simulation time: 61 hr 8 min 24 sec) 
 Total Blocks : 196608 Invalid Blocks : 0 Valid Blocks : 196608
 Total Tags : 491520 Threshold : 12288 Invalid Tags : 196608 Pr0 Tags : 98304 Pr1 Tags : 196608 num_pr0 : 12288
 SAE Count : 0
 Inter-Core Inteference in Data Store : 4694592
Heartbeat CPU 1 instructions: 190000001 cycles: 204913967 heartbeat IPC: 1.04842 cumulative IPC: 0.927218 (Simulation time: 61 hr 8 min 32 sec) 
 Total Blocks : 196608 Invalid Blocks : 0 Valid Blocks : 196608
 Total Tags : 491520 Threshold : 12288 Invalid Tags : 196608 Pr0 Tags : 98304 Pr1 Tags : 196608 num_pr0 : 12288
 SAE Count : 0
 Inter-Core Inteference in Data Store : 4694642
Heartbeat CPU 7 instructions: 190000001 cycles: 204919581 heartbeat IPC: 1.04832 cumulative IPC: 0.927193 (Simulation time: 61 hr 9 min 24 sec) 
 Total Blocks : 196608 Invalid Blocks : 0 Valid Blocks : 196608
 Total Tags : 491520 Threshold : 12288 Invalid Tags : 196608 Pr0 Tags : 98304 Pr1 Tags : 196608 num_pr0 : 12288
 SAE Count : 0
 Inter-Core Inteference in Data Store : 4694939
Heartbeat CPU 6 instructions: 190000001 cycles: 204939335 heartbeat IPC: 1.04835 cumulative IPC: 0.927104 (Simulation time: 61 hr 11 min 15 sec) 
 Total Blocks : 196608 Invalid Blocks : 0 Valid Blocks : 196608
 Total Tags : 491520 Threshold : 12288 Invalid Tags : 196608 Pr0 Tags : 98304 Pr1 Tags : 196608 num_pr0 : 12288
 SAE Count : 0
 Inter-Core Inteference in Data Store : 4695684
Heartbeat CPU 5 instructions: 190000001 cycles: 204943616 heartbeat IPC: 1.04834 cumulative IPC: 0.927084 (Simulation time: 61 hr 11 min 28 sec) 
 Total Blocks : 196608 Invalid Blocks : 0 Valid Blocks : 196608
 Total Tags : 491520 Threshold : 12288 Invalid Tags : 196608 Pr0 Tags : 98304 Pr1 Tags : 196608 num_pr0 : 12288
 SAE Count : 0
 Inter-Core Inteference in Data Store : 4695783
Heartbeat CPU 2 instructions: 200000000 cycles: 214457854 heartbeat IPC: 1.04542 cumulative IPC: 0.932584 (Simulation time: 78 hr 49 min 14 sec) 
 Total Blocks : 196608 Invalid Blocks : 0 Valid Blocks : 196608
 Total Tags : 491520 Threshold : 12288 Invalid Tags : 196608 Pr0 Tags : 98304 Pr1 Tags : 196608 num_pr0 : 12288
 SAE Count : 0
 Inter-Core Inteference in Data Store : 4937599
Heartbeat CPU 3 instructions: 200000000 cycles: 214463149 heartbeat IPC: 1.04548 cumulative IPC: 0.932561 (Simulation time: 78 hr 49 min 15 sec) 
 Total Blocks : 196608 Invalid Blocks : 0 Valid Blocks : 196608
 Total Tags : 491520 Threshold : 12288 Invalid Tags : 196608 Pr0 Tags : 98304 Pr1 Tags : 196608 num_pr0 : 12288
 SAE Count : 0
 Inter-Core Inteference in Data Store : 4937641
Heartbeat CPU 4 instructions: 200000000 cycles: 214476737 heartbeat IPC: 1.04539 cumulative IPC: 0.932502 (Simulation time: 78 hr 49 min 18 sec) 
 Total Blocks : 196608 Invalid Blocks : 0 Valid Blocks : 196608
 Total Tags : 491520 Threshold : 12288 Invalid Tags : 196608 Pr0 Tags : 98304 Pr1 Tags : 196608 num_pr0 : 12288
 SAE Count : 0
 Inter-Core Inteference in Data Store : 4937746
Heartbeat CPU 0 instructions: 200000000 cycles: 214478226 heartbeat IPC: 1.04544 cumulative IPC: 0.932496 (Simulation time: 78 hr 49 min 18 sec) 
 Total Blocks : 196608 Invalid Blocks : 0 Valid Blocks : 196608
 Total Tags : 491520 Threshold : 12288 Invalid Tags : 196609 Pr0 Tags : 98303 Pr1 Tags : 196608 num_pr0 : 12288
 SAE Count : 0
 Inter-Core Inteference in Data Store : 4937774
Heartbeat CPU 1 instructions: 200000000 cycles: 214479689 heartbeat IPC: 1.0454 cumulative IPC: 0.932489 (Simulation time: 78 hr 49 min 18 sec) 
 Total Blocks : 196608 Invalid Blocks : 0 Valid Blocks : 196608
 Total Tags : 491520 Threshold : 12288 Invalid Tags : 196608 Pr0 Tags : 98304 Pr1 Tags : 196608 num_pr0 : 12288
 SAE Count : 0
 Inter-Core Inteference in Data Store : 4937785
Heartbeat CPU 7 instructions: 200000000 cycles: 214485116 heartbeat IPC: 1.04542 cumulative IPC: 0.932466 (Simulation time: 78 hr 49 min 35 sec) 
 Total Blocks : 196608 Invalid Blocks : 0 Valid Blocks : 196608
 Total Tags : 491520 Threshold : 12288 Invalid Tags : 196608 Pr0 Tags : 98304 Pr1 Tags : 196608 num_pr0 : 12288
 SAE Count : 0
 Inter-Core Inteference in Data Store : 4937859
Heartbeat CPU 6 instructions: 200000000 cycles: 214505723 heartbeat IPC: 1.04533 cumulative IPC: 0.932376 (Simulation time: 78 hr 50 min 50 sec) 
 Total Blocks : 196608 Invalid Blocks : 0 Valid Blocks : 196608
 Total Tags : 491520 Threshold : 12288 Invalid Tags : 196608 Pr0 Tags : 98304 Pr1 Tags : 196608 num_pr0 : 12288
 SAE Count : 0
 Inter-Core Inteference in Data Store : 4938412
Heartbeat CPU 5 instructions: 200000000 cycles: 214510050 heartbeat IPC: 1.04532 cumulative IPC: 0.932357 (Simulation time: 78 hr 51 min 19 sec) 
 Total Blocks : 196608 Invalid Blocks : 0 Valid Blocks : 196608
 Total Tags : 491520 Threshold : 12288 Invalid Tags : 196608 Pr0 Tags : 98304 Pr1 Tags : 196608 num_pr0 : 12288
 SAE Count : 0
 Inter-Core Inteference in Data Store : 4938585

Warmup complete CPU 0 instructions: 200035617 cycles: 214510051 (Simulation time: 78 hr 51 min 20 sec) 
Warmup complete CPU 1 instructions: 200032722 cycles: 214510051 (Simulation time: 78 hr 51 min 20 sec) 
Warmup complete CPU 2 instructions: 200065840 cycles: 214510051 (Simulation time: 78 hr 51 min 20 sec) 
Warmup complete CPU 3 instructions: 200060004 cycles: 214510051 (Simulation time: 78 hr 51 min 20 sec) 
Warmup complete CPU 4 instructions: 200038597 cycles: 214510051 (Simulation time: 78 hr 51 min 20 sec) 
Warmup complete CPU 5 instructions: 200000001 cycles: 214510051 (Simulation time: 78 hr 51 min 20 sec) 
Warmup complete CPU 6 instructions: 200004007 cycles: 214510050 (Simulation time: 78 hr 51 min 20 sec) 
Warmup complete CPU 7 instructions: 200021956 cycles: 214510050 (Simulation time: 78 hr 51 min 20 sec) 

Heartbeat CPU 3 instructions: 210000001 cycles: 258520647 heartbeat IPC: 0.226976 cumulative IPC: 0.225855 (Simulation time: 88 hr 17 min 24 sec) 
 Total Blocks : 196608 Invalid Blocks : 0 Valid Blocks : 196608
 Total Tags : 491520 Threshold : 12288 Invalid Tags : 196608 Pr0 Tags : 98304 Pr1 Tags : 196608 num_pr0 : 12288
 SAE Count : 0
 Inter-Core Inteference in Data Store : 197070
Heartbeat CPU 2 instructions: 210000001 cycles: 259104970 heartbeat IPC: 0.223979 cumulative IPC: 0.222764 (Simulation time: 88 hr 26 min 10 sec) 
 Total Blocks : 196608 Invalid Blocks : 0 Valid Blocks : 196608
 Total Tags : 491520 Threshold : 12288 Invalid Tags : 196608 Pr0 Tags : 98304 Pr1 Tags : 196608 num_pr0 : 12288
 SAE Count : 0
 Inter-Core Inteference in Data Store : 202469
Heartbeat CPU 4 instructions: 210000001 cycles: 259116038 heartbeat IPC: 0.224018 cumulative IPC: 0.22332 (Simulation time: 88 hr 26 min 12 sec) 
 Total Blocks : 196608 Invalid Blocks : 0 Valid Blocks : 196608
 Total Tags : 491520 Threshold : 12288 Invalid Tags : 196608 Pr0 Tags : 98304 Pr1 Tags : 196608 num_pr0 : 12288
 SAE Count : 0
 Inter-Core Inteference in Data Store : 202484
Heartbeat CPU 0 instructions: 210000001 cycles: 259816628 heartbeat IPC: 0.220564 cumulative IPC: 0.219932 (Simulation time: 88 hr 35 min 38 sec) 
 Total Blocks : 196608 Invalid Blocks : 0 Valid Blocks : 196608
 Total Tags : 491520 Threshold : 12288 Invalid Tags : 196608 Pr0 Tags : 98304 Pr1 Tags : 196608 num_pr0 : 12288
 SAE Count : 0
 Inter-Core Inteference in Data Store : 206231
Heartbeat CPU 7 instructions: 210000001 cycles: 259880013 heartbeat IPC: 0.220289 cumulative IPC: 0.219926 (Simulation time: 88 hr 35 min 59 sec) 
 Total Blocks : 196608 Invalid Blocks : 0 Valid Blocks : 196608
 Total Tags : 491520 Threshold : 12288 Invalid Tags : 196608 Pr0 Tags : 98304 Pr1 Tags : 196608 num_pr0 : 12288
 SAE Count : 0
 Inter-Core Inteference in Data Store : 206371
Heartbeat CPU 5 instructions: 210000001 cycles: 259884744 heartbeat IPC: 0.220387 cumulative IPC: 0.220387 (Simulation time: 88 hr 36 min 0 sec) 
 Total Blocks : 196608 Invalid Blocks : 0 Valid Blocks : 196608
 Total Tags : 491520 Threshold : 12288 Invalid Tags : 196608 Pr0 Tags : 98304 Pr1 Tags : 196608 num_pr0 : 12288
 SAE Count : 0
 Inter-Core Inteference in Data Store : 206385
Heartbeat CPU 6 instructions: 210000001 cycles: 259899905 heartbeat IPC: 0.220293 cumulative IPC: 0.220225 (Simulation time: 88 hr 36 min 2 sec) 
 Total Blocks : 196608 Invalid Blocks : 0 Valid Blocks : 196608
 Total Tags : 491520 Threshold : 12288 Invalid Tags : 196608 Pr0 Tags : 98304 Pr1 Tags : 196608 num_pr0 : 12288
 SAE Count : 0
 Inter-Core Inteference in Data Store : 206450
Heartbeat CPU 1 instructions: 210000001 cycles: 259908567 heartbeat IPC: 0.220124 cumulative IPC: 0.219551 (Simulation time: 88 hr 36 min 4 sec) 
 Total Blocks : 196608 Invalid Blocks : 0 Valid Blocks : 196608
 Total Tags : 491520 Threshold : 12288 Invalid Tags : 196608 Pr0 Tags : 98304 Pr1 Tags : 196608 num_pr0 : 12288
 SAE Count : 0
 Inter-Core Inteference in Data Store : 206483
Heartbeat CPU 3 instructions: 220000000 cycles: 302391698 heartbeat IPC: 0.227941 cumulative IPC: 0.226896 (Simulation time: 96 hr 30 min 57 sec) 
 Total Blocks : 196608 Invalid Blocks : 0 Valid Blocks : 196608
 Total Tags : 491520 Threshold : 12288 Invalid Tags : 196608 Pr0 Tags : 98304 Pr1 Tags : 196608 num_pr0 : 12288
 SAE Count : 0
 Inter-Core Inteference in Data Store : 394662
Heartbeat CPU 4 instructions: 220000000 cycles: 302955693 heartbeat IPC: 0.228104 cumulative IPC: 0.225691 (Simulation time: 96 hr 36 min 20 sec) 
 Total Blocks : 196608 Invalid Blocks : 0 Valid Blocks : 196608
 Total Tags : 491520 Threshold : 12288 Invalid Tags : 196608 Pr0 Tags : 98304 Pr1 Tags : 196608 num_pr0 : 12288
 SAE Count : 0
 Inter-Core Inteference in Data Store : 396912
Heartbeat CPU 2 instructions: 220000000 cycles: 303577388 heartbeat IPC: 0.224858 cumulative IPC: 0.22381 (Simulation time: 96 hr 42 min 8 sec) 
 Total Blocks : 196608 Invalid Blocks : 0 Valid Blocks : 196608
 Total Tags : 491520 Threshold : 12288 Invalid Tags : 196608 Pr0 Tags : 98304 Pr1 Tags : 196608 num_pr0 : 12288
 SAE Count : 0
 Inter-Core Inteference in Data Store : 399131
Heartbeat CPU 0 instructions: 220000000 cycles: 303628760 heartbeat IPC: 0.228247 cumulative IPC: 0.22402 (Simulation time: 96 hr 43 min 3 sec) 
 Total Blocks : 196608 Invalid Blocks : 0 Valid Blocks : 196608
 Total Tags : 491520 Threshold : 12288 Invalid Tags : 196608 Pr0 Tags : 98304 Pr1 Tags : 196608 num_pr0 : 12288
 SAE Count : 0
 Inter-Core Inteference in Data Store : 399429
Heartbeat CPU 6 instructions: 220000000 cycles: 304473850 heartbeat IPC: 0.224346 cumulative IPC: 0.222267 (Simulation time: 96 hr 52 min 40 sec) 
 Total Blocks : 196608 Invalid Blocks : 0 Valid Blocks : 196608
 Total Tags : 491520 Threshold : 12288 Invalid Tags : 196608 Pr0 Tags : 98304 Pr1 Tags : 196608 num_pr0 : 12288
 SAE Count : 0
 Inter-Core Inteference in Data Store : 403007
Heartbeat CPU 5 instructions: 220000000 cycles: 304486139 heartbeat IPC: 0.224208 cumulative IPC: 0.222281 (Simulation time: 96 hr 52 min 51 sec) 
 Total Blocks : 196608 Invalid Blocks : 0 Valid Blocks : 196608
 Total Tags : 491520 Threshold : 12288 Invalid Tags : 196608 Pr0 Tags : 98304 Pr1 Tags : 196608 num_pr0 : 12288
 SAE Count : 0
 Inter-Core Inteference in Data Store : 403069
Heartbeat CPU 7 instructions: 220000000 cycles: 304486572 heartbeat IPC: 0.224182 cumulative IPC: 0.222036 (Simulation time: 96 hr 52 min 51 sec) 
 Total Blocks : 196608 Invalid Blocks : 0 Valid Blocks : 196608
 Total Tags : 491520 Threshold : 12288 Invalid Tags : 196608 Pr0 Tags : 98304 Pr1 Tags : 196608 num_pr0 : 12288
 SAE Count : 0
 Inter-Core Inteference in Data Store : 403069
Heartbeat CPU 1 instructions: 220000000 cycles: 304495433 heartbeat IPC: 0.224281 cumulative IPC: 0.221895 (Simulation time: 96 hr 53 min 0 sec) 
 Total Blocks : 196608 Invalid Blocks : 0 Valid Blocks : 196608
 Total Tags : 491520 Threshold : 12288 Invalid Tags : 196608 Pr0 Tags : 98304 Pr1 Tags : 196608 num_pr0 : 12288
 SAE Count : 0
 Inter-Core Inteference in Data Store : 403117
Heartbeat CPU 3 instructions: 230000001 cycles: 345859673 heartbeat IPC: 0.230054 cumulative IPC: 0.227941 (Simulation time: 103 hr 51 min 7 sec) 
 Total Blocks : 196608 Invalid Blocks : 0 Valid Blocks : 196608
 Total Tags : 491520 Threshold : 12288 Invalid Tags : 196608 Pr0 Tags : 98304 Pr1 Tags : 196608 num_pr0 : 12288
 SAE Count : 0
 Inter-Core Inteference in Data Store : 583106
Heartbeat CPU 4 instructions: 230000000 cycles: 346641474 heartbeat IPC: 0.228907 cumulative IPC: 0.226755 (Simulation time: 103 hr 58 min 39 sec) 
 Total Blocks : 196608 Invalid Blocks : 0 Valid Blocks : 196608
 Total Tags : 491520 Threshold : 12288 Invalid Tags : 196608 Pr0 Tags : 98304 Pr1 Tags : 196608 num_pr0 : 12288
 SAE Count : 0
 Inter-Core Inteference in Data Store : 586448
Heartbeat CPU 0 instructions: 230000001 cycles: 347181033 heartbeat IPC: 0.229609 cumulative IPC: 0.225855 (Simulation time: 104 hr 3 min 0 sec) 
 Total Blocks : 196608 Invalid Blocks : 0 Valid Blocks : 196608
 Total Tags : 491520 Threshold : 12288 Invalid Tags : 196608 Pr0 Tags : 98304 Pr1 Tags : 196608 num_pr0 : 12288
 SAE Count : 0
 Inter-Core Inteference in Data Store : 588786
Heartbeat CPU 2 instructions: 230000001 cycles: 347206902 heartbeat IPC: 0.229203 cumulative IPC: 0.225583 (Simulation time: 104 hr 3 min 26 sec) 
 Total Blocks : 196608 Invalid Blocks : 0 Valid Blocks : 196608
 Total Tags : 491520 Threshold : 12288 Invalid Tags : 196608 Pr0 Tags : 98304 Pr1 Tags : 196608 num_pr0 : 12288
 SAE Count : 0
 Inter-Core Inteference in Data Store : 588908
Heartbeat CPU 5 instructions: 230000001 cycles: 348918095 heartbeat IPC: 0.225063 cumulative IPC: 0.223201 (Simulation time: 104 hr 20 min 37 sec) 
 Total Blocks : 196608 Invalid Blocks : 0 Valid Blocks : 196608
 Total Tags : 491520 Threshold : 12288 Invalid Tags : 196608 Pr0 Tags : 98304 Pr1 Tags : 196608 num_pr0 : 12288
 SAE Count : 0
 Inter-Core Inteference in Data Store : 596062
Heartbeat CPU 1 instructions: 230000001 cycles: 348945293 heartbeat IPC: 0.224973 cumulative IPC: 0.222912 (Simulation time: 104 hr 20 min 53 sec) 
 Total Blocks : 196608 Invalid Blocks : 0 Valid Blocks : 196608
 Total Tags : 491520 Threshold : 12288 Invalid Tags : 196608 Pr0 Tags : 98304 Pr1 Tags : 196608 num_pr0 : 12288
 SAE Count : 0
 Inter-Core Inteference in Data Store : 596140
Heartbeat CPU 7 instructions: 230000001 cycles: 348958013 heartbeat IPC: 0.224863 cumulative IPC: 0.222971 (Simulation time: 104 hr 21 min 5 sec) 
 Total Blocks : 196608 Invalid Blocks : 0 Valid Blocks : 196608
 Total Tags : 491520 Threshold : 12288 Invalid Tags : 196608 Pr0 Tags : 98304 Pr1 Tags : 196608 num_pr0 : 12288
 SAE Count : 0
 Inter-Core Inteference in Data Store : 596176
Heartbeat CPU 6 instructions: 230000001 cycles: 349005986 heartbeat IPC: 0.224557 cumulative IPC: 0.223025 (Simulation time: 104 hr 21 min 32 sec) 
 Total Blocks : 196608 Invalid Blocks : 0 Valid Blocks : 196608
 Total Tags : 491520 Threshold : 12288 Invalid Tags : 196608 Pr0 Tags : 98304 Pr1 Tags : 196608 num_pr0 : 12288
 SAE Count : 0
 Inter-Core Inteference in Data Store : 596329
Heartbeat CPU 3 instructions: 240000000 cycles: 396401982 heartbeat IPC: 0.197854 cumulative IPC: 0.219581 (Simulation time: 110 hr 44 min 4 sec) 
 Total Blocks : 196608 Invalid Blocks : 0 Valid Blocks : 196608
 Total Tags : 491520 Threshold : 12288 Invalid Tags : 196608 Pr0 Tags : 98304 Pr1 Tags : 196608 num_pr0 : 12288
 SAE Count : 0
 Inter-Core Inteference in Data Store : 902400
Heartbeat CPU 2 instructions: 240000000 cycles: 397480610 heartbeat IPC: 0.198911 cumulative IPC: 0.218255 (Simulation time: 110 hr 53 min 20 sec) 
 Total Blocks : 196608 Invalid Blocks : 0 Valid Blocks : 196608
 Total Tags : 491520 Threshold : 12288 Invalid Tags : 196608 Pr0 Tags : 98304 Pr1 Tags : 196608 num_pr0 : 12288
 SAE Count : 0
 Inter-Core Inteference in Data Store : 907791
Heartbeat CPU 4 instructions: 240000000 cycles: 397642256 heartbeat IPC: 0.196075 cumulative IPC: 0.218211 (Simulation time: 110 hr 54 min 26 sec) 
 Total Blocks : 196608 Invalid Blocks : 0 Valid Blocks : 196608
 Total Tags : 491520 Threshold : 12288 Invalid Tags : 196608 Pr0 Tags : 98304 Pr1 Tags : 196608 num_pr0 : 12288
 SAE Count : 0
 Inter-Core Inteference in Data Store : 908682
Heartbeat CPU 0 instructions: 240000000 cycles: 397757902 heartbeat IPC: 0.197719 cumulative IPC: 0.218089 (Simulation time: 110 hr 55 min 55 sec) 
 Total Blocks : 196608 Invalid Blocks : 0 Valid Blocks : 196608
 Total Tags : 491520 Threshold : 12288 Invalid Tags : 196608 Pr0 Tags : 98304 Pr1 Tags : 196608 num_pr0 : 12288
 SAE Count : 0
 Inter-Core Inteference in Data Store : 909302
Heartbeat CPU 7 instructions: 240000000 cycles: 399554013 heartbeat IPC: 0.197644 cumulative IPC: 0.216046 (Simulation time: 111 hr 12 min 29 sec) 
 Total Blocks : 196608 Invalid Blocks : 0 Valid Blocks : 196608
 Total Tags : 491520 Threshold : 12288 Invalid Tags : 196608 Pr0 Tags : 98304 Pr1 Tags : 196608 num_pr0 : 12288
 SAE Count : 0
 Inter-Core Inteference in Data Store : 917869
Heartbeat CPU 1 instructions: 240000000 cycles: 399822949 heartbeat IPC: 0.19655 cumulative IPC: 0.215675 (Simulation time: 111 hr 15 min 10 sec) 
 Total Blocks : 196608 Invalid Blocks : 0 Valid Blocks : 196608
 Total Tags : 491520 Threshold : 12288 Invalid Tags : 196608 Pr0 Tags : 98304 Pr1 Tags : 196608 num_pr0 : 12288
 SAE Count : 0
 Inter-Core Inteference in Data Store : 919173
Heartbeat CPU 6 instructions: 240000000 cycles: 399837739 heartbeat IPC: 0.196727 cumulative IPC: 0.215812 (Simulation time: 111 hr 15 min 17 sec) 
 Total Blocks : 196608 Invalid Blocks : 0 Valid Blocks : 196608
 Total Tags : 491520 Threshold : 12288 Invalid Tags : 196608 Pr0 Tags : 98304 Pr1 Tags : 196608 num_pr0 : 12288
 SAE Count : 0
 Inter-Core Inteference in Data Store : 919230
Heartbeat CPU 5 instructions: 240000000 cycles: 399866867 heartbeat IPC: 0.196276 cumulative IPC: 0.2158 (Simulation time: 111 hr 15 min 30 sec) 
 Total Blocks : 196608 Invalid Blocks : 0 Valid Blocks : 196608
 Total Tags : 491520 Threshold : 12288 Invalid Tags : 196608 Pr0 Tags : 98304 Pr1 Tags : 196608 num_pr0 : 12288
 SAE Count : 0
 Inter-Core Inteference in Data Store : 919309
Heartbeat CPU 3 instructions: 250000000 cycles: 444406706 heartbeat IPC: 0.208313 cumulative IPC: 0.217228 (Simulation time: 117 hr 17 min 2 sec) 
 Total Blocks : 196608 Invalid Blocks : 0 Valid Blocks : 196608
 Total Tags : 491520 Threshold : 12288 Invalid Tags : 196608 Pr0 Tags : 98304 Pr1 Tags : 196608 num_pr0 : 12288
 SAE Count : 0
 Inter-Core Inteference in Data Store : 1191288
Heartbeat CPU 2 instructions: 250000000 cycles: 445689665 heartbeat IPC: 0.20743 cumulative IPC: 0.215997 (Simulation time: 117 hr 27 min 27 sec) 
 Total Blocks : 196608 Invalid Blocks : 0 Valid Blocks : 196608
 Total Tags : 491520 Threshold : 12288 Invalid Tags : 196608 Pr0 Tags : 98304 Pr1 Tags : 196608 num_pr0 : 12288
 SAE Count : 0
 Inter-Core Inteference in Data Store : 1198473
Heartbeat CPU 0 instructions: 250000000 cycles: 445757856 heartbeat IPC: 0.208334 cumulative IPC: 0.216064 (Simulation time: 117 hr 27 min 56 sec) 
 Total Blocks : 196608 Invalid Blocks : 0 Valid Blocks : 196608
 Total Tags : 491520 Threshold : 12288 Invalid Tags : 196608 Pr0 Tags : 98304 Pr1 Tags : 196608 num_pr0 : 12288
 SAE Count : 0
 Inter-Core Inteference in Data Store : 1198859
Heartbeat CPU 4 instructions: 250000000 cycles: 445768557 heartbeat IPC: 0.207787 cumulative IPC: 0.216041 (Simulation time: 117 hr 28 min 2 sec) 
 Total Blocks : 196608 Invalid Blocks : 0 Valid Blocks : 196608
 Total Tags : 491520 Threshold : 12288 Invalid Tags : 196608 Pr0 Tags : 98304 Pr1 Tags : 196608 num_pr0 : 12288
 SAE Count : 0
 Inter-Core Inteference in Data Store : 1198908
Heartbeat CPU 7 instructions: 250000000 cycles: 447210785 heartbeat IPC: 0.209834 cumulative IPC: 0.214774 (Simulation time: 117 hr 39 min 35 sec) 
 Total Blocks : 196608 Invalid Blocks : 0 Valid Blocks : 196608
 Total Tags : 491520 Threshold : 12288 Invalid Tags : 196608 Pr0 Tags : 98304 Pr1 Tags : 196608 num_pr0 : 12288
 SAE Count : 0
 Inter-Core Inteference in Data Store : 1207029
[...]
LLC4 LOAD      ACCESS: 999675  HIT: 735774  MISS: 263901  HIT %: 73.6013  MISS %: 26.3987  AVERAGE MISS PENALTY: 246.159
LLC4 RFO       ACCESS: 61122  HIT: 60062  MISS:  1060  HIT %: 98.2658  MISS %: 1.73424  AVERAGE MISS PENALTY: 200.203
LLC4 PREFETCH  ACCESS: 727928  HIT: 123560  MISS: 604368  HIT %: 16.9742  MISS %: 83.0258  AVERAGE MISS PENALTY: 199.345
LLC4 WRITEBACK ACCESS: 102950  HIT: 97364  MISS:  5586  HIT %: 94.5741  MISS %: 5.42593  AVERAGE MISS PENALTY: 0
LLC4 PREFETCH  REQUESTED:     0  ISSUED:     0  USEFUL: 19665  USELESS: 195613
 USEFUL LOAD PREFETCHES:      19665 PREFETCH ISSUED TO LOWER LEVEL:    4860012  ACCURACY: 0.404629
 TIMELY PREFETCHES:      19665 LATE PREFETCHES: 0 DROPPED PREFETCHES: 0
LLC4 AVERAGE MISS LATENCY: 212.194 cycles

LLC4 Set Associative Eviction Count : 0
LLC4 Priority 0 entries : 12288
LLC4 Inter-Core Interference : 611989
LLC5 TOTAL     ACCESS: 1875691  HIT: 1003258  MISS: 872433  HIT %: 53.4874  MISS %: 46.5126  AVERAGE MISS PENALTY: 211.965
LLC5 LOAD      ACCESS: 976310  HIT: 724228  MISS: 252082  HIT %: 74.1801  MISS %: 25.8199  AVERAGE MISS PENALTY: 247.395
LLC5 RFO       ACCESS: 57935  HIT: 56846  MISS:  1089  HIT %: 98.1203  MISS %: 1.87969  AVERAGE MISS PENALTY: 189.082
LLC5 PREFETCH  ACCESS: 745600  HIT: 131763  MISS: 613837  HIT %: 17.6721  MISS %: 82.3279  AVERAGE MISS PENALTY: 199.33
LLC5 WRITEBACK ACCESS: 95846  HIT: 90421  MISS:  5425  HIT %: 94.3399  MISS %: 5.66012  AVERAGE MISS PENALTY: 0
LLC5 PREFETCH  REQUESTED:     0  ISSUED:     0  USEFUL: 19767  USELESS: 194610
 USEFUL LOAD PREFETCHES:      19767 PREFETCH ISSUED TO LOWER LEVEL:    4935028  ACCURACY: 0.400545
 TIMELY PREFETCHES:      19767 LATE PREFETCHES: 0 DROPPED PREFETCHES: 0
LLC5 AVERAGE MISS LATENCY: 211.965 cycles

LLC5 Set Associative Eviction Count : 0
LLC5 Priority 0 entries : 12288
LLC5 Inter-Core Interference : 606491
LLC6 TOTAL     ACCESS: 1925203  HIT: 1047300  MISS: 877903  HIT %: 54.3995  MISS %: 45.6005  AVERAGE MISS PENALTY: 226.884
LLC6 LOAD      ACCESS: 1007824  HIT: 754871  MISS: 252953  HIT %: 74.9011  MISS %: 25.0989  AVERAGE MISS PENALTY: 252.224
LLC6 RFO       ACCESS: 67769  HIT: 66537  MISS:  1232  HIT %: 98.1821  MISS %: 1.81794  AVERAGE MISS PENALTY: 195.53
LLC6 PREFETCH  ACCESS: 742020  HIT: 124037  MISS: 617983  HIT %: 16.7161  MISS %: 83.2839  AVERAGE MISS PENALTY: 218.68
LLC6 WRITEBACK ACCESS: 107590  HIT: 101855  MISS:  5735  HIT %: 94.6696  MISS %: 5.33042  AVERAGE MISS PENALTY: 0
LLC6 PREFETCH  REQUESTED:     0  ISSUED:     0  USEFUL: 20369  USELESS: 198476
 USEFUL LOAD PREFETCHES:      20369 PREFETCH ISSUED TO LOWER LEVEL:    4970212  ACCURACY: 0.409822
 TIMELY PREFETCHES:      20369 LATE PREFETCHES: 0 DROPPED PREFETCHES: 0
LLC6 AVERAGE MISS LATENCY: 226.884 cycles

LLC6 Set Associative Eviction Count : 0
LLC6 Priority 0 entries : 12288
LLC6 Inter-Core Interference : 627812
LLC7 TOTAL     ACCESS: 1936653  HIT: 1054159  MISS: 882494  HIT %: 54.432  MISS %: 45.568  AVERAGE MISS PENALTY: 227.069
LLC7 LOAD      ACCESS: 1004673  HIT: 754252  MISS: 250421  HIT %: 75.0744  MISS %: 24.9256  AVERAGE MISS PENALTY: 253.047
LLC7 RFO       ACCESS: 66519  HIT: 65231  MISS:  1288  HIT %: 98.0637  MISS %: 1.93629  AVERAGE MISS PENALTY: 192.036
LLC7 PREFETCH  ACCESS: 755264  HIT: 130165  MISS: 625099  HIT %: 17.2344  MISS %: 82.7656  AVERAGE MISS PENALTY: 218.799
LLC7 WRITEBACK ACCESS: 110197  HIT: 104511  MISS:  5686  HIT %: 94.8401  MISS %: 5.15985  AVERAGE MISS PENALTY: 0
LLC7 PREFETCH  REQUESTED:     0  ISSUED:     0  USEFUL: 20918  USELESS: 201797
 USEFUL LOAD PREFETCHES:      20918 PREFETCH ISSUED TO LOWER LEVEL:    5027241  ACCURACY: 0.416093
 TIMELY PREFETCHES:      20918 LATE PREFETCHES: 0 DROPPED PREFETCHES: 0
LLC7 AVERAGE MISS LATENCY: 227.069 cycles

LLC7 Set Associative Eviction Count : 0
LLC7 Priority 0 entries : 12288
LLC7 Inter-Core Interference : 634096
ROI Average ROB Stall Cycles:	11.7384
ROI Total ROB Stalls Cycles:	822013873
ROI TOTAL ROB counter      :	70027765
ROI Average Load ROB Stall Cycles:	23.2734
ROI Total Load ROB Stalls Cycle  :	348127407
ROI Total Load ROB stalls Counter:	14958182
Major fault: 0 Minor fault: 132941

CPU 7 cumulative IPC: 0.218014 instructions: 200000000 cycles: 917370800
ITLB TOTAL     ACCESS: 31015006  HIT: 31015006  MISS:     0  HIT %:   100  MISS %:     0  AVERAGE MISS PENALTY: 0
ITLB LOAD      ACCESS: 31015006  HIT: 31015006  MISS:     0  HIT %:   100  MISS %:     0  AVERAGE MISS PENALTY: 0
ITLB RFO       ACCESS:     0  HIT:     0  MISS:     0  HIT %:     0  MISS %:     0  AVERAGE MISS PENALTY: 0
ITLB PREFETCH  ACCESS:     0  HIT:     0  MISS:     0  HIT %:     0  MISS %:     0  AVERAGE MISS PENALTY: 0
ITLB WRITEBACK ACCESS:     0  HIT:     0  MISS:     0  HIT %:     0  MISS %:     0  AVERAGE MISS PENALTY: 0
ITLB PREFETCH  REQUESTED:     0  ISSUED:     0  USEFUL:     0  USELESS:     0
 USEFUL LOAD PREFETCHES:          0 PREFETCH ISSUED TO LOWER LEVEL:          0  ACCURACY: -nan
 TIMELY PREFETCHES:          0 LATE PREFETCHES: 0 DROPPED PREFETCHES: 0
ITLB AVERAGE MISS LATENCY: -nan cycles

ITLB Set Associative Eviction Count : 0
ITLB Priority 0 entries : 0
ITLB Inter-Core Interference : 0
DTLB TOTAL     ACCESS: 52513787  HIT: 44690925  MISS: 7822862  HIT %: 85.1032  MISS %: 14.8968  AVERAGE MISS PENALTY: 10.7447
DTLB LOAD      ACCESS: 42868899  HIT: 35443712  MISS: 7425187  HIT %: 82.6793  MISS %: 17.3207  AVERAGE MISS PENALTY: 10.7799
DTLB RFO       ACCESS: 9644888  HIT: 9247213  MISS: 397675  HIT %: 95.8768  MISS %: 4.12317  AVERAGE MISS PENALTY: 10.0864
DTLB PREFETCH  ACCESS:     0  HIT:     0  MISS:     0  HIT %:     0  MISS %:     0  AVERAGE MISS PENALTY: 0
DTLB WRITEBACK ACCESS:     0  HIT:     0  MISS:     0  HIT %:     0  MISS %:     0  AVERAGE MISS PENALTY: 0
DTLB PREFETCH  REQUESTED:     0  ISSUED:     0  USEFUL:     0  USELESS:     0
 USEFUL LOAD PREFETCHES:          0 PREFETCH ISSUED TO LOWER LEVEL:          0  ACCURACY: -nan
 TIMELY PREFETCHES:          0 LATE PREFETCHES: 0 DROPPED PREFETCHES: 0
DTLB AVERAGE MISS LATENCY: 10.7447 cycles

DTLB Set Associative Eviction Count : 0
DTLB Priority 0 entries : 0
DTLB Inter-Core Interference : 0
STLB TOTAL     ACCESS: 7822862  HIT: 7716919  MISS: 105943  HIT %: 98.6457  MISS %: 1.35427  AVERAGE MISS PENALTY: 100
STLB LOAD      ACCESS: 7425187  HIT: 7320692  MISS: 104495  HIT %: 98.5927  MISS %: 1.4073  AVERAGE MISS PENALTY: 100
STLB RFO       ACCESS: 397675  HIT: 396227  MISS:  1448  HIT %: 99.6359  MISS %: 0.364116  AVERAGE MISS PENALTY: 100
STLB PREFETCH  ACCESS:     0  HIT:     0  MISS:     0  HIT %:     0  MISS %:     0  AVERAGE MISS PENALTY: 0
STLB WRITEBACK ACCESS:     0  HIT:     0  MISS:     0  HIT %:     0  MISS %:     0  AVERAGE MISS PENALTY: 0
STLB PREFETCH  REQUESTED:     0  ISSUED:     0  USEFUL:     0  USELESS:     0
 USEFUL LOAD PREFETCHES:          0 PREFETCH ISSUED TO LOWER LEVEL:          0  ACCURACY: -nan
 TIMELY PREFETCHES:          0 LATE PREFETCHES: 0 DROPPED PREFETCHES: 0
STLB AVERAGE MISS LATENCY: 100 cycles

STLB Set Associative Eviction Count : 0
STLB Priority 0 entries : 0
STLB Inter-Core Interference : 0
L1D TOTAL     ACCESS: 85955905  HIT: 69058054  MISS: 16897851  HIT %: 80.3413  MISS %: 19.6587  AVERAGE MISS PENALTY: 5.64636e+07
L1D LOAD      ACCESS: 51525747  HIT: 40189266  MISS: 11336481  HIT %: 77.9984  MISS %: 22.0016  AVERAGE MISS PENALTY: 8.41546e+07
L1D RFO       ACCESS: 15959296  HIT: 15376121  MISS: 583175  HIT %: 96.3459  MISS %: 3.65414  AVERAGE MISS PENALTY: 162999
L1D PREFETCH  ACCESS: 18470862  HIT: 13492667  MISS: 4978195  HIT %: 73.0484  MISS %: 26.9516  AVERAGE MISS PENALTY: 143.869
L1D WRITEBACK ACCESS:     0  HIT:     0  MISS:     0  HIT %:     0  MISS %:     0  AVERAGE MISS PENALTY: 0
L1D PREFETCH  REQUESTED: 31396476  ISSUED: 31128146  USEFUL: 3077658  USELESS: 1900712
 USEFUL LOAD PREFETCHES:    3077658 PREFETCH ISSUED TO LOWER LEVEL:   10333554  ACCURACY: 29.7832
 TIMELY PREFETCHES:    3077658 LATE PREFETCHES: 2437401 DROPPED PREFETCHES: 268330
L1D AVERAGE MISS LATENCY: 5732.99 cycles

L1D Set Associative Eviction Count : 0
L1D Priority 0 entries : 0
L1D Inter-Core Interference : 0
L1I TOTAL     ACCESS: 38546899  HIT: 38546897  MISS:     2  HIT %:   100  MISS %: 5.18848e-06  AVERAGE MISS PENALTY: 304.5
L1I LOAD      ACCESS: 38546899  HIT: 38546897  MISS:     2  HIT %:   100  MISS %: 5.18848e-06  AVERAGE MISS PENALTY: 304.5
L1I RFO       ACCESS:     0  HIT:     0  MISS:     0  HIT %:     0  MISS %:     0  AVERAGE MISS PENALTY: 0
L1I PREFETCH  ACCESS:     0  HIT:     0  MISS:     0  HIT %:     0  MISS %:     0  AVERAGE MISS PENALTY: 0
L1I WRITEBACK ACCESS:     0  HIT:     0  MISS:     0  HIT %:     0  MISS %:     0  AVERAGE MISS PENALTY: 0
L1I PREFETCH  REQUESTED:     0  ISSUED:     0  USEFUL:     0  USELESS:     0
 USEFUL LOAD PREFETCHES:          0 PREFETCH ISSUED TO LOWER LEVEL:          0  ACCURACY: -nan
 TIMELY PREFETCHES:          0 LATE PREFETCHES: 0 DROPPED PREFETCHES: 0
L1I AVERAGE MISS LATENCY: 304.5 cycles

L1I Set Associative Eviction Count : 0
L1I Priority 0 entries : 0
L1I Inter-Core Interference : 2
L2C TOTAL     ACCESS: 20610334  HIT: 6353176  MISS: 14257158  HIT %: 30.8252  MISS %: 69.1748  AVERAGE MISS PENALTY: 3.34283e+07
L2C LOAD      ACCESS: 11240547  HIT: 2580963  MISS: 8659584  HIT %: 22.9612  MISS %: 77.0388  AVERAGE MISS PENALTY: 5.50361e+07
L2C RFO       ACCESS: 583027  HIT: 119088  MISS: 463939  HIT %: 20.4258  MISS %: 79.5742  AVERAGE MISS PENALTY: 3705.03
L2C PREFETCH  ACCESS: 7838092  HIT: 2732451  MISS: 5105641  HIT %: 34.8612  MISS %: 65.1388  AVERAGE MISS PENALTY: 201.72
L2C WRITEBACK ACCESS: 948668  HIT: 920674  MISS: 27994  HIT %: 97.0491  MISS %: 2.95087  AVERAGE MISS PENALTY: 0
L2C PREFETCH  REQUESTED: 10138030  ISSUED: 10115634  USEFUL: 541069  USELESS: 4565732
 USEFUL LOAD PREFETCHES:     541069 PREFETCH ISSUED TO LOWER LEVEL:    7972713  ACCURACY: 6.78651
 TIMELY PREFETCHES:     541069 LATE PREFETCHES: 1458061 DROPPED PREFETCHES: 22396
L2C AVERAGE MISS LATENCY: 138.807 cycles

L2C Set Associative Eviction Count : 0
L2C Priority 0 entries : 0
L2C Inter-Core Interference : 0
LLC0 TOTAL     ACCESS: 1885800  HIT: 1015244  MISS: 870556  HIT %: 53.8362  MISS %: 46.1638  AVERAGE MISS PENALTY: 210.47
LLC0 LOAD      ACCESS: 1061526  HIT: 748930  MISS: 312596  HIT %: 70.5522  MISS %: 29.4478  AVERAGE MISS PENALTY: 234.462
LLC0 RFO       ACCESS: 59062  HIT: 57976  MISS:  1086  HIT %: 98.1613  MISS %: 1.83875  AVERAGE MISS PENALTY: 195.059
LLC0 PREFETCH  ACCESS: 666507  HIT: 115299  MISS: 551208  HIT %: 17.299  MISS %: 82.701  AVERAGE MISS PENALTY: 199.057
LLC0 WRITEBACK ACCESS: 98705  HIT: 93039  MISS:  5666  HIT %: 94.2597  MISS %: 5.74034  AVERAGE MISS PENALTY: 0
LLC0 PREFETCH  REQUESTED:     0  ISSUED:     0  USEFUL: 19277  USELESS: 182550
 USEFUL LOAD PREFETCHES:      19277 PREFETCH ISSUED TO LOWER LEVEL:    4440264  ACCURACY: 0.434141
 TIMELY PREFETCHES:      19277 LATE PREFETCHES: 0 DROPPED PREFETCHES: 0
LLC0 AVERAGE MISS LATENCY: 210.47 cycles

LLC0 Set Associative Eviction Count : 0
LLC0 Priority 0 entries : 12288
LLC0 Inter-Core Interference : 606189
LLC1 TOTAL     ACCESS: 1811535  HIT: 944231  MISS: 867304  HIT %: 52.1233  MISS %: 47.8767  AVERAGE MISS PENALTY: 209.531
LLC1 LOAD      ACCESS: 990369  HIT: 703295  MISS: 287074  HIT %: 71.0134  MISS %: 28.9866  AVERAGE MISS PENALTY: 237.269
LLC1 RFO       ACCESS: 44201  HIT: 43422  MISS:   779  HIT %: 98.2376  MISS %: 1.7624  AVERAGE MISS PENALTY: 197.873
LLC1 PREFETCH  ACCESS: 697507  HIT: 123269  MISS: 574238  HIT %: 17.6728  MISS %: 82.3272  AVERAGE MISS PENALTY: 197.583
LLC1 WRITEBACK ACCESS: 79458  HIT: 74245  MISS:  5213  HIT %: 93.4393  MISS %: 6.5607  AVERAGE MISS PENALTY: 0
LLC1 PREFETCH  REQUESTED:     0  ISSUED:     0  USEFUL: 18669  USELESS: 182795
 USEFUL LOAD PREFETCHES:      18669 PREFETCH ISSUED TO LOWER LEVEL:    4624783  ACCURACY: 0.403673
 TIMELY PREFETCHES:      18669 LATE PREFETCHES: 0 DROPPED PREFETCHES: 0
LLC1 AVERAGE MISS LATENCY: 209.531 cycles

LLC1 Set Associative Eviction Count : 0
LLC1 Priority 0 entries : 12288
LLC1 Inter-Core Interference : 585248
LLC2 TOTAL     ACCESS: 1866584  HIT: 992695  MISS: 873889  HIT %: 53.1824  MISS %: 46.8176  AVERAGE MISS PENALTY: 225.671
LLC2 LOAD      ACCESS: 1002834  HIT: 728025  MISS: 274809  HIT %: 72.5968  MISS %: 27.4032  AVERAGE MISS PENALTY: 248.442
LLC2 RFO       ACCESS: 56932  HIT: 55959  MISS:   973  HIT %: 98.2909  MISS %: 1.70906  AVERAGE MISS PENALTY: 196.91
LLC2 PREFETCH  ACCESS: 712244  HIT: 119621  MISS: 592623  HIT %: 16.7949  MISS %: 83.2051  AVERAGE MISS PENALTY: 217.247
LLC2 WRITEBACK ACCESS: 94574  HIT: 89090  MISS:  5484  HIT %: 94.2014  MISS %: 5.79863  AVERAGE MISS PENALTY: 0
LLC2 PREFETCH  REQUESTED:     0  ISSUED:     0  USEFUL: 20047  USELESS: 196794
 USEFUL LOAD PREFETCHES:      20047 PREFETCH ISSUED TO LOWER LEVEL:    4773132  ACCURACY: 0.419997
 TIMELY PREFETCHES:      20047 LATE PREFETCHES: 0 DROPPED PREFETCHES: 0
LLC2 AVERAGE MISS LATENCY: 225.671 cycles

LLC2 Set Associative Eviction Count : 0
LLC2 Priority 0 entries : 12288
LLC2 Inter-Core Interference : 611161
LLC3 TOTAL     ACCESS: 1868564  HIT: 993849  MISS: 874715  HIT %: 53.1878  MISS %: 46.8122  AVERAGE MISS PENALTY: 223.078
LLC3 LOAD      ACCESS: 1006919  HIT: 731376  MISS: 275543  HIT %: 72.635  MISS %: 27.365  AVERAGE MISS PENALTY: 245.53
LLC3 RFO       ACCESS: 55928  HIT: 54806  MISS:  1122  HIT %: 97.9938  MISS %: 2.00615  AVERAGE MISS PENALTY: 188.566
LLC3 PREFETCH  ACCESS: 709579  HIT: 117065  MISS: 592514  HIT %: 16.4978  MISS %: 83.5022  AVERAGE MISS PENALTY: 214.786
LLC3 WRITEBACK ACCESS: 96138  HIT: 90602  MISS:  5536  HIT %: 94.2416  MISS %: 5.75839  AVERAGE MISS PENALTY: 0
LLC3 PREFETCH  REQUESTED:     0  ISSUED:     0  USEFUL: 20046  USELESS: 196613
 USEFUL LOAD PREFETCHES:      20046 PREFETCH ISSUED TO LOWER LEVEL:    4774618  ACCURACY: 0.419845
 TIMELY PREFETCHES:      20046 LATE PREFETCHES: 0 DROPPED PREFETCHES: 0
LLC3 AVERAGE MISS LATENCY: 223.078 cycles

LLC3 Set Associative Eviction Count : 0
LLC3 Priority 0 entries : 12288
LLC3 Inter-Core Interference : 615886
LLC4 TOTAL     ACCESS: 1885957  HIT: 1012060  MISS: 873897  HIT %: 53.6629  MISS %: 46.3371  AVERAGE MISS PENALTY: 211.686
LLC4 LOAD      ACCESS: 996484  HIT: 732367  MISS: 264117  HIT %: 73.4951  MISS %: 26.5049  AVERAGE MISS PENALTY: 245.795
LLC4 RFO       ACCESS: 60984  HIT: 59920  MISS:  1064  HIT %: 98.2553  MISS %: 1.74472  AVERAGE MISS PENALTY: 192.242
LLC4 PREFETCH  ACCESS: 723745  HIT: 120627  MISS: 603118  HIT %: 16.6671  MISS %: 83.3329  AVERAGE MISS PENALTY: 198.748
LLC4 WRITEBACK ACCESS: 104744  HIT: 99146  MISS:  5598  HIT %: 94.6555  MISS %: 5.34446  AVERAGE MISS PENALTY: 0
LLC4 PREFETCH  REQUESTED:     0  ISSUED:     0  USEFUL: 19665  USELESS: 195613
 USEFUL LOAD PREFETCHES:      19665 PREFETCH ISSUED TO LOWER LEVEL:    4860012  ACCURACY: 0.404629
 TIMELY PREFETCHES:      19665 LATE PREFETCHES: 0 DROPPED PREFETCHES: 0
LLC4 AVERAGE MISS LATENCY: 211.686 cycles

LLC4 Set Associative Eviction Count : 0
LLC4 Priority 0 entries : 12288
LLC4 Inter-Core Interference : 611989
LLC5 TOTAL     ACCESS: 1861727  HIT: 991429  MISS: 870298  HIT %: 53.2532  MISS %: 46.7468  AVERAGE MISS PENALTY: 211.4
LLC5 LOAD      ACCESS: 969219  HIT: 718278  MISS: 250941  HIT %: 74.1089  MISS %: 25.8911  AVERAGE MISS PENALTY: 246.964
LLC5 RFO       ACCESS: 56342  HIT: 55283  MISS:  1059  HIT %: 98.1204  MISS %: 1.87959  AVERAGE MISS PENALTY: 206.549
LLC5 PREFETCH  ACCESS: 741321  HIT: 128536  MISS: 612785  HIT %: 17.3388  MISS %: 82.6612  AVERAGE MISS PENALTY: 198.746
LLC5 WRITEBACK ACCESS: 94845  HIT: 89332  MISS:  5513  HIT %: 94.1874  MISS %: 5.81264  AVERAGE MISS PENALTY: 0
LLC5 PREFETCH  REQUESTED:     0  ISSUED:     0  USEFUL: 19767  USELESS: 194610
 USEFUL LOAD PREFETCHES:      19767 PREFETCH ISSUED TO LOWER LEVEL:    4935028  ACCURACY: 0.400545
 TIMELY PREFETCHES:      19767 LATE PREFETCHES: 0 DROPPED PREFETCHES: 0
LLC5 AVERAGE MISS LATENCY: 211.4 cycles

LLC5 Set Associative Eviction Count : 0
LLC5 Priority 0 entries : 12288
LLC5 Inter-Core Interference : 606491
LLC6 TOTAL     ACCESS: 1914040  HIT: 1037844  MISS: 876196  HIT %: 54.2227  MISS %: 45.7773  AVERAGE MISS PENALTY: 226.282
LLC6 LOAD      ACCESS: 1003865  HIT: 751602  MISS: 252263  HIT %: 74.8708  MISS %: 25.1292  AVERAGE MISS PENALTY: 251.46
LLC6 RFO       ACCESS: 66250  HIT: 65047  MISS:  1203  HIT %: 98.1842  MISS %: 1.81585  AVERAGE MISS PENALTY: 190.327
LLC6 PREFETCH  ACCESS: 737283  HIT: 120288  MISS: 616995  HIT %: 16.315  MISS %: 83.685  AVERAGE MISS PENALTY: 218.162
LLC6 WRITEBACK ACCESS: 106642  HIT: 100907  MISS:  5735  HIT %: 94.6222  MISS %: 5.37781  AVERAGE MISS PENALTY: 0
LLC6 PREFETCH  REQUESTED:     0  ISSUED:     0  USEFUL: 20369  USELESS: 198476
 USEFUL LOAD PREFETCHES:      20369 PREFETCH ISSUED TO LOWER LEVEL:    4970212  ACCURACY: 0.409822
 TIMELY PREFETCHES:      20369 LATE PREFETCHES: 0 DROPPED PREFETCHES: 0
LLC6 AVERAGE MISS LATENCY: 226.282 cycles

LLC6 Set Associative Eviction Count : 0
LLC6 Priority 0 entries : 12288
LLC6 Inter-Core Interference : 627812
LLC7 TOTAL     ACCESS: 1917214  HIT: 1035413  MISS: 881801  HIT %: 54.0061  MISS %: 45.9939  AVERAGE MISS PENALTY: 226.561
LLC7 LOAD      ACCESS: 997312  HIT: 746046  MISS: 251266  HIT %: 74.8057  MISS %: 25.1943  AVERAGE MISS PENALTY: 252.513
LLC7 RFO       ACCESS: 64233  HIT: 63060  MISS:  1173  HIT %: 98.1738  MISS %: 1.82616  AVERAGE MISS PENALTY: 190.796
LLC7 PREFETCH  ACCESS: 748441  HIT: 124774  MISS: 623667  HIT %: 16.6712  MISS %: 83.3288  AVERAGE MISS PENALTY: 218.242
LLC7 WRITEBACK ACCESS: 107228  HIT: 101533  MISS:  5695  HIT %: 94.6889  MISS %: 5.31111  AVERAGE MISS PENALTY: 0
LLC7 PREFETCH  REQUESTED:     0  ISSUED:     0  USEFUL: 20918  USELESS: 201797
 USEFUL LOAD PREFETCHES:      20918 PREFETCH ISSUED TO LOWER LEVEL:    5027241  ACCURACY: 0.416093
 TIMELY PREFETCHES:      20918 LATE PREFETCHES: 0 DROPPED PREFETCHES: 0
LLC7 AVERAGE MISS LATENCY: 226.561 cycles

LLC7 Set Associative Eviction Count : 0
LLC7 Priority 0 entries : 12288
LLC7 Inter-Core Interference : 634096
ROI Average ROB Stall Cycles:	11.7121
ROI Total ROB Stalls Cycles:	820340184
ROI TOTAL ROB counter      :	70042303
ROI Average Load ROB Stall Cycles:	23.2237
ROI Total Load ROB Stalls Cycle  :	347497030
ROI Total Load ROB stalls Counter:	14963035
Major fault: 0 Minor fault: 133092








Interconnect Stats 
LINK 0 BW : 0LINK 1 BW : 0LINK 2 BW : 0LINK 3 BW : 0LINK 4 BW : 0LINK 5 BW : 0LINK 6 BW : 0LINK 7 BW : 0
DRAM Statistics
 CHANNEL 0
 RQ ROW_BUFFER_HIT: 13182223  ROW_BUFFER_MISS: 14750393
 DBUS_CONGESTED: 13641501
 WQ ROW_BUFFER_HIT: 52988  ROW_BUFFER_MISS: 247269  FULL:     0

 CHANNEL 1
 RQ ROW_BUFFER_HIT: 13146500  ROW_BUFFER_MISS: 14783985
 DBUS_CONGESTED: 13641501
 WQ ROW_BUFFER_HIT: 52947  ROW_BUFFER_MISS: 239262  FULL:     0

 AVG_CONGESTED_CYCLE: 4
DRAM PAGES: 2097152
Allocated PAGES: 1066721
L2C destructor called
L1D destructor called
L1I destructor called
STLB destructor called
DTLB destructor called
ITLB destructor called
L2C destructor called
L1D destructor called
L1I destructor called
STLB destructor called
DTLB destructor called
ITLB destructor called
L2C destructor called
L1D destructor called
L1I destructor called
STLB destructor called
DTLB destructor called
ITLB destructor called
L2C destructor called
L1D destructor called
L1I destructor called
STLB destructor called
DTLB destructor called
ITLB destructor called
L2C destructor called
L1D destructor called
L1I destructor called
STLB destructor called
DTLB destructor called
ITLB destructor called
L2C destructor called
L1D destructor called
L1I destructor called
STLB destructor called
DTLB destructor called
ITLB destructor called
L2C destructor called
L1D destructor called
L1I destructor called
STLB destructor called
DTLB destructor called
ITLB destructor called
L2C destructor called
L1D destructor called
L1I destructor called
STLB destructor called
DTLB destructor called
ITLB destructor called
