
*** ChampSim Multicore Out-of-Order Simulator ***

Warmup Instructions: 200000000
Simulation Instructions: 200000000
Number of CPUs: 8
threads:1

L1I Configuration:
L1I_SET:64
L1I_WAY:8
L1I_RQ_SIZE:64
L1I_WQ_SIZE:64
L1I_PQ_SIZE:8
L1I_MSHR_SIZE:8

L1D Configuration:
L1D_SET:64
L1D_WAY:12
L1D_RQ_SIZE:64
L1D_WQ_SIZE:64
L1D_PQ_SIZE:8
L1D_MSHR_SIZE:16

L2C Configuration:
L2C_SET:1024
L2C_WAY:8
L2C_RQ_SIZE:32
L2C_WQ_SIZE:32
L2C_PQ_SIZE:16
L2C_MSHR_SIZE:32

LLC Configuration:
LLC_SET:2048
LLC_WAY:12
LLC SLICES:8
LLC_RQ_SIZE:64
LLC_WQ_SIZE:64
LLC_PQ_SIZE:32
LLC_MSHR_SIZE:64

Interconnect OFF
Attacker deprioritize is: OFF
Off-chip DRAM Size: 8192 MB Channels: 2 Width: 64-bit Data Rate: 3200 MT/s
PAGE SIZE in KB: 4.000000 
PAGE SIZE in MB: 0.003906 
PAGE offset in bits: 12 
CEASER-S_LLC:0
MIRAGE : 1
CEASER_LATENCY:3
REMAP : OFF
Partitions : 1
Multi-Step : OFF
BFS : OFF

CPU 0 runs /home/anubhav/spec_2017/605.mcf_s-665B.champsimtrace.xz
CPU 1 runs /home/anubhav/spec_2017/605.mcf_s-665B.champsimtrace.xz
CPU 2 runs /home/anubhav/spec_2017/605.mcf_s-665B.champsimtrace.xz
CPU 3 runs /home/anubhav/spec_2017/605.mcf_s-665B.champsimtrace.xz
CPU 4 runs /home/anubhav/spec_2017/605.mcf_s-665B.champsimtrace.xz
CPU 5 runs /home/anubhav/spec_2017/605.mcf_s-665B.champsimtrace.xz
CPU 6 runs /home/anubhav/spec_2017/605.mcf_s-665B.champsimtrace.xz
CPU 7 runs /home/anubhav/spec_2017/605.mcf_s-665B.champsimtrace.xz
CPU 0 Bimodal branch predictor
Initialize Hawkeye state
Initialize Hawkeye state
Initialize Hawkeye state
Initialize Hawkeye state
Initialize Hawkeye state
Initialize Hawkeye state
Initialize Hawkeye state
Initialize Hawkeye state
CPU 1 Bimodal branch predictor
Initialize Hawkeye state
Initialize Hawkeye state
Initialize Hawkeye state
Initialize Hawkeye state
Initialize Hawkeye state
Initialize Hawkeye state
Initialize Hawkeye state
Initialize Hawkeye state
CPU 2 Bimodal branch predictor
Initialize Hawkeye state
Initialize Hawkeye state
Initialize Hawkeye state
Initialize Hawkeye state
Initialize Hawkeye state
Initialize Hawkeye state
Initialize Hawkeye state
Initialize Hawkeye state
CPU 3 Bimodal branch predictor
Initialize Hawkeye state
Initialize Hawkeye state
Initialize Hawkeye state
Initialize Hawkeye state
Initialize Hawkeye state
Initialize Hawkeye state
Initialize Hawkeye state
Initialize Hawkeye state
CPU 4 Bimodal branch predictor
Initialize Hawkeye state
Initialize Hawkeye state
Initialize Hawkeye state
Initialize Hawkeye state
Initialize Hawkeye state
Initialize Hawkeye state
Initialize Hawkeye state
Initialize Hawkeye state
CPU 5 Bimodal branch predictor
Initialize Hawkeye state
Initialize Hawkeye state
Initialize Hawkeye state
Initialize Hawkeye state
Initialize Hawkeye state
Initialize Hawkeye state
Initialize Hawkeye state
Initialize Hawkeye state
CPU 6 Bimodal branch predictor
Initialize Hawkeye state
Initialize Hawkeye state
Initialize Hawkeye state
Initialize Hawkeye state
Initialize Hawkeye state
Initialize Hawkeye state
Initialize Hawkeye state
Initialize Hawkeye state
CPU 7 Bimodal branch predictor
Initialize Hawkeye state
Initialize Hawkeye state
Initialize Hawkeye state
Initialize Hawkeye state
Initialize Hawkeye state
Initialize Hawkeye state
Initialize Hawkeye state
Initialize Hawkeye state
FILL
Heartbeat CPU 5 instructions: 10000001 cycles: 11702020 heartbeat IPC: 0.854553 cumulative IPC: 0.854553 (Simulation time: 0 hr 32 min 28 sec) 
 Total Blocks : 196608 Invalid Blocks : 37230 Valid Blocks : 159378
 Total Tags : 491520 Threshold : 12288 Invalid Tags : 233846 Pr0 Tags : 98296 Pr1 Tags : 159378 num_pr0 : 12288
 SAE Count : 0
 Inter-Core Inteference in Data Store : 146415
Heartbeat CPU 6 instructions: 10000001 cycles: 11702032 heartbeat IPC: 0.854553 cumulative IPC: 0.854553 (Simulation time: 0 hr 32 min 28 sec) 
 Total Blocks : 196608 Invalid Blocks : 37230 Valid Blocks : 159378
 Total Tags : 491520 Threshold : 12288 Invalid Tags : 233846 Pr0 Tags : 98296 Pr1 Tags : 159378 num_pr0 : 12288
 SAE Count : 0
 Inter-Core Inteference in Data Store : 146415
Heartbeat CPU 0 instructions: 10000001 cycles: 11704023 heartbeat IPC: 0.854407 cumulative IPC: 0.854407 (Simulation time: 0 hr 32 min 28 sec) 
 Total Blocks : 196608 Invalid Blocks : 37218 Valid Blocks : 159390
 Total Tags : 491520 Threshold : 12288 Invalid Tags : 233838 Pr0 Tags : 98292 Pr1 Tags : 159390 num_pr0 : 12287
 SAE Count : 0
 Inter-Core Inteference in Data Store : 146448
Heartbeat CPU 1 instructions: 10000001 cycles: 11704374 heartbeat IPC: 0.854382 cumulative IPC: 0.854382 (Simulation time: 0 hr 32 min 28 sec) 
 Total Blocks : 196608 Invalid Blocks : 37215 Valid Blocks : 159393
 Total Tags : 491520 Threshold : 12288 Invalid Tags : 233835 Pr0 Tags : 98292 Pr1 Tags : 159393 num_pr0 : 12286
 SAE Count : 0
 Inter-Core Inteference in Data Store : 146451
Heartbeat CPU 4 instructions: 10000001 cycles: 11705191 heartbeat IPC: 0.854322 cumulative IPC: 0.854322 (Simulation time: 0 hr 32 min 28 sec) 
 Total Blocks : 196608 Invalid Blocks : 37210 Valid Blocks : 159398
 Total Tags : 491520 Threshold : 12288 Invalid Tags : 233832 Pr0 Tags : 98290 Pr1 Tags : 159398 num_pr0 : 12286
 SAE Count : 0
 Inter-Core Inteference in Data Store : 146466
Heartbeat CPU 3 instructions: 10000001 cycles: 11705335 heartbeat IPC: 0.854311 cumulative IPC: 0.854311 (Simulation time: 0 hr 32 min 28 sec) 
 Total Blocks : 196608 Invalid Blocks : 37210 Valid Blocks : 159398
 Total Tags : 491520 Threshold : 12288 Invalid Tags : 233832 Pr0 Tags : 98290 Pr1 Tags : 159398 num_pr0 : 12286
 SAE Count : 0
 Inter-Core Inteference in Data Store : 146469
Heartbeat CPU 7 instructions: 10000001 cycles: 11705469 heartbeat IPC: 0.854302 cumulative IPC: 0.854302 (Simulation time: 0 hr 32 min 28 sec) 
 Total Blocks : 196608 Invalid Blocks : 37209 Valid Blocks : 159399
 Total Tags : 491520 Threshold : 12288 Invalid Tags : 233832 Pr0 Tags : 98289 Pr1 Tags : 159399 num_pr0 : 12285
 SAE Count : 0
 Inter-Core Inteference in Data Store : 146472
Heartbeat CPU 2 instructions: 10000001 cycles: 11706103 heartbeat IPC: 0.854255 cumulative IPC: 0.854255 (Simulation time: 0 hr 32 min 29 sec) 
 Total Blocks : 196608 Invalid Blocks : 37207 Valid Blocks : 159401
 Total Tags : 491520 Threshold : 12288 Invalid Tags : 233831 Pr0 Tags : 98288 Pr1 Tags : 159401 num_pr0 : 12286
 SAE Count : 0
 Inter-Core Inteference in Data Store : 146476
Heartbeat CPU 6 instructions: 20000001 cycles: 23364686 heartbeat IPC: 0.857438 cumulative IPC: 0.855993 (Simulation time: 1 hr 6 min 48 sec) 
 Total Blocks : 196608 Invalid Blocks : 9676 Valid Blocks : 186932
 Total Tags : 491520 Threshold : 12288 Invalid Tags : 206284 Pr0 Tags : 98304 Pr1 Tags : 186932 num_pr0 : 12288
 SAE Count : 0
 Inter-Core Inteference in Data Store : 353653
Heartbeat CPU 5 instructions: 20000001 cycles: 23364921 heartbeat IPC: 0.85742 cumulative IPC: 0.855984 (Simulation time: 1 hr 6 min 48 sec) 
 Total Blocks : 196608 Invalid Blocks : 9676 Valid Blocks : 186932
 Total Tags : 491520 Threshold : 12288 Invalid Tags : 206284 Pr0 Tags : 98304 Pr1 Tags : 186932 num_pr0 : 12288
 SAE Count : 0
 Inter-Core Inteference in Data Store : 353665
Heartbeat CPU 0 instructions: 20000001 cycles: 23370352 heartbeat IPC: 0.857168 cumulative IPC: 0.855785 (Simulation time: 1 hr 6 min 51 sec) 
 Total Blocks : 196608 Invalid Blocks : 9664 Valid Blocks : 186944
 Total Tags : 491520 Threshold : 12288 Invalid Tags : 206272 Pr0 Tags : 98304 Pr1 Tags : 186944 num_pr0 : 12288
 SAE Count : 0
 Inter-Core Inteference in Data Store : 354004
Heartbeat CPU 1 instructions: 20000001 cycles: 23370387 heartbeat IPC: 0.857191 cumulative IPC: 0.855784 (Simulation time: 1 hr 6 min 51 sec) 
 Total Blocks : 196608 Invalid Blocks : 9664 Valid Blocks : 186944
 Total Tags : 491520 Threshold : 12288 Invalid Tags : 206272 Pr0 Tags : 98304 Pr1 Tags : 186944 num_pr0 : 12288
 SAE Count : 0
 Inter-Core Inteference in Data Store : 354005
Heartbeat CPU 4 instructions: 20000001 cycles: 23373208 heartbeat IPC: 0.857044 cumulative IPC: 0.855681 (Simulation time: 1 hr 6 min 52 sec) 
 Total Blocks : 196608 Invalid Blocks : 9660 Valid Blocks : 186948
 Total Tags : 491520 Threshold : 12288 Invalid Tags : 206268 Pr0 Tags : 98304 Pr1 Tags : 186948 num_pr0 : 12288
 SAE Count : 0
 Inter-Core Inteference in Data Store : 354145
Heartbeat CPU 7 instructions: 20000001 cycles: 23373271 heartbeat IPC: 0.857059 cumulative IPC: 0.855678 (Simulation time: 1 hr 6 min 52 sec) 
 Total Blocks : 196608 Invalid Blocks : 9659 Valid Blocks : 186949
 Total Tags : 491520 Threshold : 12288 Invalid Tags : 206267 Pr0 Tags : 98304 Pr1 Tags : 186949 num_pr0 : 12288
 SAE Count : 0
 Inter-Core Inteference in Data Store : 354148
Heartbeat CPU 3 instructions: 20000001 cycles: 23373381 heartbeat IPC: 0.857042 cumulative IPC: 0.855674 (Simulation time: 1 hr 6 min 52 sec) 
 Total Blocks : 196608 Invalid Blocks : 9659 Valid Blocks : 186949
 Total Tags : 491520 Threshold : 12288 Invalid Tags : 206267 Pr0 Tags : 98304 Pr1 Tags : 186949 num_pr0 : 12288
 SAE Count : 0
 Inter-Core Inteference in Data Store : 354159
Heartbeat CPU 2 instructions: 20000001 cycles: 23373540 heartbeat IPC: 0.857086 cumulative IPC: 0.855668 (Simulation time: 1 hr 6 min 52 sec) 
 Total Blocks : 196608 Invalid Blocks : 9659 Valid Blocks : 186949
 Total Tags : 491520 Threshold : 12288 Invalid Tags : 206267 Pr0 Tags : 98304 Pr1 Tags : 186949 num_pr0 : 12288
 SAE Count : 0
 Inter-Core Inteference in Data Store : 354166
Heartbeat CPU 5 instructions: 30000001 cycles: 35010588 heartbeat IPC: 0.858688 cumulative IPC: 0.856884 (Simulation time: 1 hr 41 min 29 sec) 
 Total Blocks : 196608 Invalid Blocks : 2834 Valid Blocks : 193774
 Total Tags : 491520 Threshold : 12288 Invalid Tags : 199443 Pr0 Tags : 98303 Pr1 Tags : 193774 num_pr0 : 12288
 SAE Count : 0
 Inter-Core Inteference in Data Store : 558832
Heartbeat CPU 6 instructions: 30000001 cycles: 35010804 heartbeat IPC: 0.858655 cumulative IPC: 0.856878 (Simulation time: 1 hr 41 min 29 sec) 
 Total Blocks : 196608 Invalid Blocks : 2833 Valid Blocks : 193775
 Total Tags : 491520 Threshold : 12288 Invalid Tags : 199443 Pr0 Tags : 98302 Pr1 Tags : 193775 num_pr0 : 12288
 SAE Count : 0
 Inter-Core Inteference in Data Store : 558838
Heartbeat CPU 0 instructions: 30000001 cycles: 35019071 heartbeat IPC: 0.858463 cumulative IPC: 0.856676 (Simulation time: 1 hr 41 min 30 sec) 
 Total Blocks : 196608 Invalid Blocks : 2832 Valid Blocks : 193776
 Total Tags : 491520 Threshold : 12288 Invalid Tags : 199440 Pr0 Tags : 98304 Pr1 Tags : 193776 num_pr0 : 12288
 SAE Count : 0
 Inter-Core Inteference in Data Store : 558951
Heartbeat CPU 1 instructions: 30000001 cycles: 35019165 heartbeat IPC: 0.858459 cumulative IPC: 0.856674 (Simulation time: 1 hr 41 min 30 sec) 
 Total Blocks : 196608 Invalid Blocks : 2832 Valid Blocks : 193776
 Total Tags : 491520 Threshold : 12288 Invalid Tags : 199440 Pr0 Tags : 98304 Pr1 Tags : 193776 num_pr0 : 12288
 SAE Count : 0
 Inter-Core Inteference in Data Store : 558951
Heartbeat CPU 7 instructions: 30000001 cycles: 35023408 heartbeat IPC: 0.858359 cumulative IPC: 0.85657 (Simulation time: 1 hr 41 min 31 sec) 
 Total Blocks : 196608 Invalid Blocks : 2832 Valid Blocks : 193776
 Total Tags : 491520 Threshold : 12288 Invalid Tags : 199440 Pr0 Tags : 98304 Pr1 Tags : 193776 num_pr0 : 12288
 SAE Count : 0
 Inter-Core Inteference in Data Store : 559005
Heartbeat CPU 2 instructions: 30000001 cycles: 35023956 heartbeat IPC: 0.858338 cumulative IPC: 0.856557 (Simulation time: 1 hr 41 min 31 sec) 
 Total Blocks : 196608 Invalid Blocks : 2832 Valid Blocks : 193776
 Total Tags : 491520 Threshold : 12288 Invalid Tags : 199440 Pr0 Tags : 98304 Pr1 Tags : 193776 num_pr0 : 12288
 SAE Count : 0
 Inter-Core Inteference in Data Store : 559014
Heartbeat CPU 3 instructions: 30000001 cycles: 35024121 heartbeat IPC: 0.858315 cumulative IPC: 0.856553 (Simulation time: 1 hr 41 min 31 sec) 
 Total Blocks : 196608 Invalid Blocks : 2832 Valid Blocks : 193776
 Total Tags : 491520 Threshold : 12288 Invalid Tags : 199440 Pr0 Tags : 98304 Pr1 Tags : 193776 num_pr0 : 12288
 SAE Count : 0
 Inter-Core Inteference in Data Store : 559016
Heartbeat CPU 4 instructions: 30000001 cycles: 35024236 heartbeat IPC: 0.858293 cumulative IPC: 0.85655 (Simulation time: 1 hr 41 min 31 sec) 
 Total Blocks : 196608 Invalid Blocks : 2832 Valid Blocks : 193776
 Total Tags : 491520 Threshold : 12288 Invalid Tags : 199440 Pr0 Tags : 98304 Pr1 Tags : 193776 num_pr0 : 12288
 SAE Count : 0
 Inter-Core Inteference in Data Store : 559017
Heartbeat CPU 5 instructions: 40000000 cycles: 46723088 heartbeat IPC: 0.853789 cumulative IPC: 0.856108 (Simulation time: 2 hr 19 min 14 sec) 
 Total Blocks : 196608 Invalid Blocks : 843 Valid Blocks : 195765
 Total Tags : 491520 Threshold : 12288 Invalid Tags : 197451 Pr0 Tags : 98304 Pr1 Tags : 195765 num_pr0 : 12288
 SAE Count : 0
 Inter-Core Inteference in Data Store : 757952
Heartbeat CPU 6 instructions: 40000000 cycles: 46723549 heartbeat IPC: 0.853771 cumulative IPC: 0.856099 (Simulation time: 2 hr 19 min 14 sec) 
 Total Blocks : 196608 Invalid Blocks : 843 Valid Blocks : 195765
 Total Tags : 491520 Threshold : 12288 Invalid Tags : 197451 Pr0 Tags : 98304 Pr1 Tags : 195765 num_pr0 : 12288
 SAE Count : 0
 Inter-Core Inteference in Data Store : 757955
Heartbeat CPU 0 instructions: 40000000 cycles: 46733566 heartbeat IPC: 0.853643 cumulative IPC: 0.855916 (Simulation time: 2 hr 19 min 15 sec) 
 Total Blocks : 196608 Invalid Blocks : 843 Valid Blocks : 195765
 Total Tags : 491520 Threshold : 12288 Invalid Tags : 197451 Pr0 Tags : 98304 Pr1 Tags : 195765 num_pr0 : 12288
 SAE Count : 0
 Inter-Core Inteference in Data Store : 757976
Heartbeat CPU 1 instructions: 40000000 cycles: 46734149 heartbeat IPC: 0.853608 cumulative IPC: 0.855905 (Simulation time: 2 hr 19 min 15 sec) 
 Total Blocks : 196608 Invalid Blocks : 843 Valid Blocks : 195765
 Total Tags : 491520 Threshold : 12288 Invalid Tags : 197451 Pr0 Tags : 98304 Pr1 Tags : 195765 num_pr0 : 12288
 SAE Count : 0
 Inter-Core Inteference in Data Store : 757978
Heartbeat CPU 7 instructions: 40000000 cycles: 46739459 heartbeat IPC: 0.85353 cumulative IPC: 0.855808 (Simulation time: 2 hr 19 min 16 sec) 
 Total Blocks : 196608 Invalid Blocks : 843 Valid Blocks : 195765
 Total Tags : 491520 Threshold : 12288 Invalid Tags : 197451 Pr0 Tags : 98304 Pr1 Tags : 195765 num_pr0 : 12288
 SAE Count : 0
 Inter-Core Inteference in Data Store : 757989
Heartbeat CPU 2 instructions: 40000000 cycles: 46740053 heartbeat IPC: 0.853526 cumulative IPC: 0.855797 (Simulation time: 2 hr 19 min 16 sec) 
 Total Blocks : 196608 Invalid Blocks : 843 Valid Blocks : 195765
 Total Tags : 491520 Threshold : 12288 Invalid Tags : 197451 Pr0 Tags : 98304 Pr1 Tags : 195765 num_pr0 : 12288
 SAE Count : 0
 Inter-Core Inteference in Data Store : 757990
Heartbeat CPU 4 instructions: 40000000 cycles: 46740472 heartbeat IPC: 0.853516 cumulative IPC: 0.855789 (Simulation time: 2 hr 19 min 16 sec) 
 Total Blocks : 196608 Invalid Blocks : 843 Valid Blocks : 195765
 Total Tags : 491520 Threshold : 12288 Invalid Tags : 197451 Pr0 Tags : 98304 Pr1 Tags : 195765 num_pr0 : 12288
 SAE Count : 0
 Inter-Core Inteference in Data Store : 757991
Heartbeat CPU 3 instructions: 40000000 cycles: 46740552 heartbeat IPC: 0.853502 cumulative IPC: 0.855788 (Simulation time: 2 hr 19 min 16 sec) 
 Total Blocks : 196608 Invalid Blocks : 843 Valid Blocks : 195765
 Total Tags : 491520 Threshold : 12288 Invalid Tags : 197451 Pr0 Tags : 98304 Pr1 Tags : 195765 num_pr0 : 12288
 SAE Count : 0
 Inter-Core Inteference in Data Store : 757991
Heartbeat CPU 5 instructions: 50000003 cycles: 58477423 heartbeat IPC: 0.85075 cumulative IPC: 0.855031 (Simulation time: 2 hr 56 min 29 sec) 
 Total Blocks : 196608 Invalid Blocks : 282 Valid Blocks : 196326
 Total Tags : 491520 Threshold : 12288 Invalid Tags : 196892 Pr0 Tags : 98302 Pr1 Tags : 196326 num_pr0 : 12288
 SAE Count : 0
 Inter-Core Inteference in Data Store : 942236
Heartbeat CPU 6 instructions: 50000003 cycles: 58478589 heartbeat IPC: 0.850699 cumulative IPC: 0.855014 (Simulation time: 2 hr 56 min 30 sec) 
 Total Blocks : 196608 Invalid Blocks : 282 Valid Blocks : 196326
 Total Tags : 491520 Threshold : 12288 Invalid Tags : 196893 Pr0 Tags : 98301 Pr1 Tags : 196326 num_pr0 : 12288
 SAE Count : 0
 Inter-Core Inteference in Data Store : 942244
Heartbeat CPU 0 instructions: 50000003 cycles: 58491376 heartbeat IPC: 0.850499 cumulative IPC: 0.854827 (Simulation time: 2 hr 56 min 31 sec) 
 Total Blocks : 196608 Invalid Blocks : 282 Valid Blocks : 196326
 Total Tags : 491520 Threshold : 12288 Invalid Tags : 196890 Pr0 Tags : 98304 Pr1 Tags : 196326 num_pr0 : 12288
 SAE Count : 0
 Inter-Core Inteference in Data Store : 942329
Heartbeat CPU 1 instructions: 50000003 cycles: 58491961 heartbeat IPC: 0.850499 cumulative IPC: 0.854818 (Simulation time: 2 hr 56 min 31 sec) 
 Total Blocks : 196608 Invalid Blocks : 282 Valid Blocks : 196326
 Total Tags : 491520 Threshold : 12288 Invalid Tags : 196890 Pr0 Tags : 98304 Pr1 Tags : 196326 num_pr0 : 12288
 SAE Count : 0
 Inter-Core Inteference in Data Store : 942335
Heartbeat CPU 4 instructions: 50000003 cycles: 58498662 heartbeat IPC: 0.850471 cumulative IPC: 0.85472 (Simulation time: 2 hr 56 min 32 sec) 
 Total Blocks : 196608 Invalid Blocks : 282 Valid Blocks : 196326
 Total Tags : 491520 Threshold : 12288 Invalid Tags : 196890 Pr0 Tags : 98304 Pr1 Tags : 196326 num_pr0 : 12288
 SAE Count : 0
 Inter-Core Inteference in Data Store : 942381
Heartbeat CPU 7 instructions: 50000003 cycles: 58498731 heartbeat IPC: 0.850393 cumulative IPC: 0.854719 (Simulation time: 2 hr 56 min 32 sec) 
 Total Blocks : 196608 Invalid Blocks : 282 Valid Blocks : 196326
 Total Tags : 491520 Threshold : 12288 Invalid Tags : 196890 Pr0 Tags : 98304 Pr1 Tags : 196326 num_pr0 : 12288
 SAE Count : 0
 Inter-Core Inteference in Data Store : 942382
Heartbeat CPU 3 instructions: 50000003 cycles: 58500150 heartbeat IPC: 0.850369 cumulative IPC: 0.854699 (Simulation time: 2 hr 56 min 32 sec) 
 Total Blocks : 196608 Invalid Blocks : 282 Valid Blocks : 196326
 Total Tags : 491520 Threshold : 12288 Invalid Tags : 196890 Pr0 Tags : 98304 Pr1 Tags : 196326 num_pr0 : 12288
 SAE Count : 0
 Inter-Core Inteference in Data Store : 942388
Heartbeat CPU 2 instructions: 50000003 cycles: 58500190 heartbeat IPC: 0.85033 cumulative IPC: 0.854698 (Simulation time: 2 hr 56 min 32 sec) 
 Total Blocks : 196608 Invalid Blocks : 282 Valid Blocks : 196326
 Total Tags : 491520 Threshold : 12288 Invalid Tags : 196890 Pr0 Tags : 98304 Pr1 Tags : 196326 num_pr0 : 12288
 SAE Count : 0
 Inter-Core Inteference in Data Store : 942389
Heartbeat CPU 5 instructions: 60000002 cycles: 70198946 heartbeat IPC: 0.853131 cumulative IPC: 0.854714 (Simulation time: 3 hr 36 min 45 sec) 
 Total Blocks : 196608 Invalid Blocks : 88 Valid Blocks : 196520
 Total Tags : 491520 Threshold : 12288 Invalid Tags : 196696 Pr0 Tags : 98304 Pr1 Tags : 196520 num_pr0 : 12288
 SAE Count : 0
 Inter-Core Inteference in Data Store : 1134639
Heartbeat CPU 6 instructions: 60000002 cycles: 70199750 heartbeat IPC: 0.853158 cumulative IPC: 0.854704 (Simulation time: 3 hr 36 min 45 sec) 
 Total Blocks : 196608 Invalid Blocks : 88 Valid Blocks : 196520
 Total Tags : 491520 Threshold : 12288 Invalid Tags : 196696 Pr0 Tags : 98304 Pr1 Tags : 196520 num_pr0 : 12288
 SAE Count : 0
 Inter-Core Inteference in Data Store : 1134644
Heartbeat CPU 0 instructions: 60000002 cycles: 70215456 heartbeat IPC: 0.852945 cumulative IPC: 0.854513 (Simulation time: 3 hr 36 min 46 sec) 
 Total Blocks : 196608 Invalid Blocks : 88 Valid Blocks : 196520
 Total Tags : 491520 Threshold : 12288 Invalid Tags : 196697 Pr0 Tags : 98303 Pr1 Tags : 196520 num_pr0 : 12288
 SAE Count : 0
 Inter-Core Inteference in Data Store : 1134728
Heartbeat CPU 1 instructions: 60000002 cycles: 70216591 heartbeat IPC: 0.852905 cumulative IPC: 0.854499 (Simulation time: 3 hr 36 min 46 sec) 
 Total Blocks : 196608 Invalid Blocks : 88 Valid Blocks : 196520
 Total Tags : 491520 Threshold : 12288 Invalid Tags : 196697 Pr0 Tags : 98303 Pr1 Tags : 196520 num_pr0 : 12288
 SAE Count : 0
 Inter-Core Inteference in Data Store : 1134729
Heartbeat CPU 4 instructions: 60000002 cycles: 70223912 heartbeat IPC: 0.85286 cumulative IPC: 0.85441 (Simulation time: 3 hr 36 min 47 sec) 
 Total Blocks : 196608 Invalid Blocks : 88 Valid Blocks : 196520
 Total Tags : 491520 Threshold : 12288 Invalid Tags : 196698 Pr0 Tags : 98302 Pr1 Tags : 196520 num_pr0 : 12288
 SAE Count : 0
 Inter-Core Inteference in Data Store : 1134751
Heartbeat CPU 7 instructions: 60000002 cycles: 70224993 heartbeat IPC: 0.852787 cumulative IPC: 0.854397 (Simulation time: 3 hr 36 min 47 sec) 
 Total Blocks : 196608 Invalid Blocks : 88 Valid Blocks : 196520
 Total Tags : 491520 Threshold : 12288 Invalid Tags : 196698 Pr0 Tags : 98302 Pr1 Tags : 196520 num_pr0 : 12288
 SAE Count : 0
 Inter-Core Inteference in Data Store : 1134755
Heartbeat CPU 2 instructions: 60000002 cycles: 70225476 heartbeat IPC: 0.852858 cumulative IPC: 0.854391 (Simulation time: 3 hr 36 min 47 sec) 
 Total Blocks : 196608 Invalid Blocks : 88 Valid Blocks : 196520
 Total Tags : 491520 Threshold : 12288 Invalid Tags : 196698 Pr0 Tags : 98302 Pr1 Tags : 196520 num_pr0 : 12288
 SAE Count : 0
 Inter-Core Inteference in Data Store : 1134755
Heartbeat CPU 3 instructions: 60000002 cycles: 70225531 heartbeat IPC: 0.852851 cumulative IPC: 0.85439 (Simulation time: 3 hr 36 min 47 sec) 
 Total Blocks : 196608 Invalid Blocks : 88 Valid Blocks : 196520
 Total Tags : 491520 Threshold : 12288 Invalid Tags : 196698 Pr0 Tags : 98302 Pr1 Tags : 196520 num_pr0 : 12288
 SAE Count : 0
 Inter-Core Inteference in Data Store : 1134755
Heartbeat CPU 5 instructions: 70000002 cycles: 82024978 heartbeat IPC: 0.845592 cumulative IPC: 0.853399 (Simulation time: 4 hr 17 min 17 sec) 
 Total Blocks : 196608 Invalid Blocks : 32 Valid Blocks : 196576
 Total Tags : 491520 Threshold : 12288 Invalid Tags : 196640 Pr0 Tags : 98304 Pr1 Tags : 196576 num_pr0 : 12288
 SAE Count : 0
 Inter-Core Inteference in Data Store : 1323087
Heartbeat CPU 6 instructions: 70000002 cycles: 82025329 heartbeat IPC: 0.845625 cumulative IPC: 0.853395 (Simulation time: 4 hr 17 min 17 sec) 
 Total Blocks : 196608 Invalid Blocks : 32 Valid Blocks : 196576
 Total Tags : 491520 Threshold : 12288 Invalid Tags : 196640 Pr0 Tags : 98304 Pr1 Tags : 196576 num_pr0 : 12288
 SAE Count : 0
 Inter-Core Inteference in Data Store : 1323102
Heartbeat CPU 0 instructions: 70000002 cycles: 82044099 heartbeat IPC: 0.845406 cumulative IPC: 0.8532 (Simulation time: 4 hr 17 min 26 sec) 
 Total Blocks : 196608 Invalid Blocks : 32 Valid Blocks : 196576
 Total Tags : 491520 Threshold : 12288 Invalid Tags : 196640 Pr0 Tags : 98304 Pr1 Tags : 196576 num_pr0 : 12288
 SAE Count : 0
 Inter-Core Inteference in Data Store : 1323791
Heartbeat CPU 1 instructions: 70000002 cycles: 82045738 heartbeat IPC: 0.84537 cumulative IPC: 0.853183 (Simulation time: 4 hr 17 min 27 sec) 
 Total Blocks : 196608 Invalid Blocks : 32 Valid Blocks : 196576
 Total Tags : 491520 Threshold : 12288 Invalid Tags : 196640 Pr0 Tags : 98304 Pr1 Tags : 196576 num_pr0 : 12288
 SAE Count : 0
 Inter-Core Inteference in Data Store : 1323903
Heartbeat CPU 4 instructions: 70000002 cycles: 82054177 heartbeat IPC: 0.84529 cumulative IPC: 0.853095 (Simulation time: 4 hr 17 min 35 sec) 
 Total Blocks : 196608 Invalid Blocks : 32 Valid Blocks : 196576
 Total Tags : 491520 Threshold : 12288 Invalid Tags : 196640 Pr0 Tags : 98304 Pr1 Tags : 196576 num_pr0 : 12288
 SAE Count : 0
 Inter-Core Inteference in Data Store : 1324471
Heartbeat CPU 3 instructions: 70000002 cycles: 82056261 heartbeat IPC: 0.845256 cumulative IPC: 0.853073 (Simulation time: 4 hr 17 min 37 sec) 
 Total Blocks : 196608 Invalid Blocks : 32 Valid Blocks : 196576
 Total Tags : 491520 Threshold : 12288 Invalid Tags : 196640 Pr0 Tags : 98304 Pr1 Tags : 196576 num_pr0 : 12288
 SAE Count : 0
 Inter-Core Inteference in Data Store : 1324620
Heartbeat CPU 2 instructions: 70000002 cycles: 82056587 heartbeat IPC: 0.845229 cumulative IPC: 0.85307 (Simulation time: 4 hr 17 min 38 sec) 
 Total Blocks : 196608 Invalid Blocks : 32 Valid Blocks : 196576
 Total Tags : 491520 Threshold : 12288 Invalid Tags : 196640 Pr0 Tags : 98304 Pr1 Tags : 196576 num_pr0 : 12288
 SAE Count : 0
 Inter-Core Inteference in Data Store : 1324643
Heartbeat CPU 7 instructions: 70000002 cycles: 82056593 heartbeat IPC: 0.845194 cumulative IPC: 0.85307 (Simulation time: 4 hr 17 min 38 sec) 
 Total Blocks : 196608 Invalid Blocks : 32 Valid Blocks : 196576
 Total Tags : 491520 Threshold : 12288 Invalid Tags : 196640 Pr0 Tags : 98304 Pr1 Tags : 196576 num_pr0 : 12288
 SAE Count : 0
 Inter-Core Inteference in Data Store : 1324643
Heartbeat CPU 5 instructions: 80000001 cycles: 93763213 heartbeat IPC: 0.851917 cumulative IPC: 0.853213 (Simulation time: 5 hr 0 min 45 sec) 
 Total Blocks : 196608 Invalid Blocks : 11 Valid Blocks : 196597
 Total Tags : 491520 Threshold : 12288 Invalid Tags : 196619 Pr0 Tags : 98304 Pr1 Tags : 196597 num_pr0 : 12288
 SAE Count : 0
 Inter-Core Inteference in Data Store : 1514210
Heartbeat CPU 6 instructions: 80000001 cycles: 93763844 heartbeat IPC: 0.851896 cumulative IPC: 0.853207 (Simulation time: 5 hr 0 min 45 sec) 
 Total Blocks : 196608 Invalid Blocks : 11 Valid Blocks : 196597
 Total Tags : 491520 Threshold : 12288 Invalid Tags : 196619 Pr0 Tags : 98304 Pr1 Tags : 196597 num_pr0 : 12288
 SAE Count : 0
 Inter-Core Inteference in Data Store : 1514214
Heartbeat CPU 0 instructions: 80000001 cycles: 93785102 heartbeat IPC: 0.851716 cumulative IPC: 0.853014 (Simulation time: 5 hr 0 min 47 sec) 
 Total Blocks : 196608 Invalid Blocks : 11 Valid Blocks : 196597
 Total Tags : 491520 Threshold : 12288 Invalid Tags : 196620 Pr0 Tags : 98303 Pr1 Tags : 196597 num_pr0 : 12288
 SAE Count : 0
 Inter-Core Inteference in Data Store : 1514357
Heartbeat CPU 1 instructions: 80000001 cycles: 93787104 heartbeat IPC: 0.85169 cumulative IPC: 0.852996 (Simulation time: 5 hr 0 min 48 sec) 
 Total Blocks : 196608 Invalid Blocks : 11 Valid Blocks : 196597
 Total Tags : 491520 Threshold : 12288 Invalid Tags : 196620 Pr0 Tags : 98303 Pr1 Tags : 196597 num_pr0 : 12288
 SAE Count : 0
 Inter-Core Inteference in Data Store : 1514385
Heartbeat CPU 4 instructions: 80000001 cycles: 93796506 heartbeat IPC: 0.85162 cumulative IPC: 0.85291 (Simulation time: 5 hr 0 min 49 sec) 
 Total Blocks : 196608 Invalid Blocks : 11 Valid Blocks : 196597
 Total Tags : 491520 Threshold : 12288 Invalid Tags : 196619 Pr0 Tags : 98304 Pr1 Tags : 196597 num_pr0 : 12288
 SAE Count : 0
 Inter-Core Inteference in Data Store : 1514483
Heartbeat CPU 3 instructions: 80000001 cycles: 93798667 heartbeat IPC: 0.851614 cumulative IPC: 0.852891 (Simulation time: 5 hr 0 min 49 sec) 
 Total Blocks : 196608 Invalid Blocks : 11 Valid Blocks : 196597
 Total Tags : 491520 Threshold : 12288 Invalid Tags : 196619 Pr0 Tags : 98304 Pr1 Tags : 196597 num_pr0 : 12288
 SAE Count : 0
 Inter-Core Inteference in Data Store : 1514497
Heartbeat CPU 2 instructions: 80000001 cycles: 93799494 heartbeat IPC: 0.851578 cumulative IPC: 0.852883 (Simulation time: 5 hr 0 min 49 sec) 
 Total Blocks : 196608 Invalid Blocks : 11 Valid Blocks : 196597
 Total Tags : 491520 Threshold : 12288 Invalid Tags : 196619 Pr0 Tags : 98304 Pr1 Tags : 196597 num_pr0 : 12288
 SAE Count : 0
 Inter-Core Inteference in Data Store : 1514504
Heartbeat CPU 7 instructions: 80000001 cycles: 93799754 heartbeat IPC: 0.851559 cumulative IPC: 0.852881 (Simulation time: 5 hr 0 min 49 sec) 
 Total Blocks : 196608 Invalid Blocks : 11 Valid Blocks : 196597
 Total Tags : 491520 Threshold : 12288 Invalid Tags : 196619 Pr0 Tags : 98304 Pr1 Tags : 196597 num_pr0 : 12288
 SAE Count : 0
 Inter-Core Inteference in Data Store : 1514508
Heartbeat CPU 5 instructions: 90000001 cycles: 105555748 heartbeat IPC: 0.847994 cumulative IPC: 0.85263 (Simulation time: 5 hr 45 min 37 sec) 
 Total Blocks : 196608 Invalid Blocks : 3 Valid Blocks : 196605
 Total Tags : 491520 Threshold : 12288 Invalid Tags : 196615 Pr0 Tags : 98300 Pr1 Tags : 196605 num_pr0 : 12287
 SAE Count : 0
 Inter-Core Inteference in Data Store : 1729187
Heartbeat CPU 6 instructions: 90000001 cycles: 105556117 heartbeat IPC: 0.848013 cumulative IPC: 0.852627 (Simulation time: 5 hr 45 min 37 sec) 
 Total Blocks : 196608 Invalid Blocks : 3 Valid Blocks : 196605
 Total Tags : 491520 Threshold : 12288 Invalid Tags : 196615 Pr0 Tags : 98300 Pr1 Tags : 196605 num_pr0 : 12287
 SAE Count : 0
 Inter-Core Inteference in Data Store : 1729189
Heartbeat CPU 0 instructions: 90000001 cycles: 105580635 heartbeat IPC: 0.847779 cumulative IPC: 0.852429 (Simulation time: 5 hr 45 min 40 sec) 
 Total Blocks : 196608 Invalid Blocks : 3 Valid Blocks : 196605
 Total Tags : 491520 Threshold : 12288 Invalid Tags : 196611 Pr0 Tags : 98304 Pr1 Tags : 196605 num_pr0 : 12288
 SAE Count : 0
 Inter-Core Inteference in Data Store : 1729367
Heartbeat CPU 1 instructions: 90000001 cycles: 105583073 heartbeat IPC: 0.847747 cumulative IPC: 0.852409 (Simulation time: 5 hr 45 min 40 sec) 
 Total Blocks : 196608 Invalid Blocks : 3 Valid Blocks : 196605
 Total Tags : 491520 Threshold : 12288 Invalid Tags : 196613 Pr0 Tags : 98302 Pr1 Tags : 196605 num_pr0 : 12288
 SAE Count : 0
 Inter-Core Inteference in Data Store : 1729378
Heartbeat CPU 4 instructions: 90000001 cycles: 105592588 heartbeat IPC: 0.847739 cumulative IPC: 0.852333 (Simulation time: 5 hr 45 min 42 sec) 
 Total Blocks : 196608 Invalid Blocks : 3 Valid Blocks : 196605
 Total Tags : 491520 Threshold : 12288 Invalid Tags : 196614 Pr0 Tags : 98301 Pr1 Tags : 196605 num_pr0 : 12288
 SAE Count : 0
 Inter-Core Inteference in Data Store : 1729414
Heartbeat CPU 2 instructions: 90000001 cycles: 105595779 heartbeat IPC: 0.847724 cumulative IPC: 0.852307 (Simulation time: 5 hr 45 min 42 sec) 
 Total Blocks : 196608 Invalid Blocks : 3 Valid Blocks : 196605
 Total Tags : 491520 Threshold : 12288 Invalid Tags : 196615 Pr0 Tags : 98300 Pr1 Tags : 196605 num_pr0 : 12288
 SAE Count : 0
 Inter-Core Inteference in Data Store : 1729418
Heartbeat CPU 3 instructions: 90000001 cycles: 105595841 heartbeat IPC: 0.847661 cumulative IPC: 0.852306 (Simulation time: 5 hr 45 min 42 sec) 
 Total Blocks : 196608 Invalid Blocks : 3 Valid Blocks : 196605
 Total Tags : 491520 Threshold : 12288 Invalid Tags : 196615 Pr0 Tags : 98300 Pr1 Tags : 196605 num_pr0 : 12288
 SAE Count : 0
 Inter-Core Inteference in Data Store : 1729418
Heartbeat CPU 7 instructions: 90000001 cycles: 105596674 heartbeat IPC: 0.847679 cumulative IPC: 0.8523 (Simulation time: 5 hr 45 min 42 sec) 
 Total Blocks : 196608 Invalid Blocks : 3 Valid Blocks : 196605
 Total Tags : 491520 Threshold : 12288 Invalid Tags : 196615 Pr0 Tags : 98300 Pr1 Tags : 196605 num_pr0 : 12288
 SAE Count : 0
 Inter-Core Inteference in Data Store : 1729422
Heartbeat CPU 5 instructions: 100000001 cycles: 117534651 heartbeat IPC: 0.834801 cumulative IPC: 0.850813 (Simulation time: 6 hr 26 min 13 sec) 
 Total Blocks : 196608 Invalid Blocks : 0 Valid Blocks : 196608
 Total Tags : 491520 Threshold : 12288 Invalid Tags : 196611 Pr0 Tags : 98301 Pr1 Tags : 196608 num_pr0 : 12286
 SAE Count : 0
 Inter-Core Inteference in Data Store : 1914312
Heartbeat CPU 6 instructions: 100000001 cycles: 117535245 heartbeat IPC: 0.834785 cumulative IPC: 0.850809 (Simulation time: 6 hr 26 min 13 sec) 
 Total Blocks : 196608 Invalid Blocks : 0 Valid Blocks : 196608
 Total Tags : 491520 Threshold : 12288 Invalid Tags : 196610 Pr0 Tags : 98302 Pr1 Tags : 196608 num_pr0 : 12286
 SAE Count : 0
 Inter-Core Inteference in Data Store : 1914314
Heartbeat CPU 0 instructions: 100000001 cycles: 117564380 heartbeat IPC: 0.834464 cumulative IPC: 0.850598 (Simulation time: 6 hr 26 min 16 sec) 
 Total Blocks : 196608 Invalid Blocks : 0 Valid Blocks : 196608
 Total Tags : 491520 Threshold : 12288 Invalid Tags : 196615 Pr0 Tags : 98297 Pr1 Tags : 196608 num_pr0 : 12288
 SAE Count : 0
 Inter-Core Inteference in Data Store : 1914360
Heartbeat CPU 1 instructions: 100000001 cycles: 117567286 heartbeat IPC: 0.834431 cumulative IPC: 0.850577 (Simulation time: 6 hr 26 min 16 sec) 
 Total Blocks : 196608 Invalid Blocks : 0 Valid Blocks : 196608
 Total Tags : 491520 Threshold : 12288 Invalid Tags : 196614 Pr0 Tags : 98298 Pr1 Tags : 196608 num_pr0 : 12288
 SAE Count : 0
 Inter-Core Inteference in Data Store : 1914367
Heartbeat CPU 4 instructions: 100000001 cycles: 117579498 heartbeat IPC: 0.834243 cumulative IPC: 0.850488 (Simulation time: 6 hr 26 min 18 sec) 
 Total Blocks : 196608 Invalid Blocks : 0 Valid Blocks : 196608
 Total Tags : 491520 Threshold : 12288 Invalid Tags : 196614 Pr0 Tags : 98298 Pr1 Tags : 196608 num_pr0 : 12288
 SAE Count : 0
 Inter-Core Inteference in Data Store : 1914405
Heartbeat CPU 3 instructions: 100000001 cycles: 117581015 heartbeat IPC: 0.834364 cumulative IPC: 0.850477 (Simulation time: 6 hr 26 min 18 sec) 
 Total Blocks : 196608 Invalid Blocks : 0 Valid Blocks : 196608
 Total Tags : 491520 Threshold : 12288 Invalid Tags : 196614 Pr0 Tags : 98298 Pr1 Tags : 196608 num_pr0 : 12288
 SAE Count : 0
 Inter-Core Inteference in Data Store : 1914411
Heartbeat CPU 2 instructions: 100000001 cycles: 117581422 heartbeat IPC: 0.834332 cumulative IPC: 0.850474 (Simulation time: 6 hr 26 min 18 sec) 
 Total Blocks : 196608 Invalid Blocks : 0 Valid Blocks : 196608
 Total Tags : 491520 Threshold : 12288 Invalid Tags : 196613 Pr0 Tags : 98299 Pr1 Tags : 196608 num_pr0 : 12288
 SAE Count : 0
 Inter-Core Inteference in Data Store : 1914412
Heartbeat CPU 7 instructions: 100000001 cycles: 117582551 heartbeat IPC: 0.834315 cumulative IPC: 0.850466 (Simulation time: 6 hr 26 min 18 sec) 
 Total Blocks : 196608 Invalid Blocks : 0 Valid Blocks : 196608
 Total Tags : 491520 Threshold : 12288 Invalid Tags : 196612 Pr0 Tags : 98300 Pr1 Tags : 196608 num_pr0 : 12288
 SAE Count : 0
 Inter-Core Inteference in Data Store : 1914415
Heartbeat CPU 5 instructions: 110000000 cycles: 129438501 heartbeat IPC: 0.840064 cumulative IPC: 0.849824 (Simulation time: 7 hr 7 min 42 sec) 
 Total Blocks : 196608 Invalid Blocks : 0 Valid Blocks : 196608
 Total Tags : 491520 Threshold : 12288 Invalid Tags : 196610 Pr0 Tags : 98302 Pr1 Tags : 196608 num_pr0 : 12287
 SAE Count : 0
 Inter-Core Inteference in Data Store : 2095016
Heartbeat CPU 6 instructions: 110000000 cycles: 129439058 heartbeat IPC: 0.840067 cumulative IPC: 0.849821 (Simulation time: 7 hr 7 min 42 sec) 
 Total Blocks : 196608 Invalid Blocks : 0 Valid Blocks : 196608
 Total Tags : 491520 Threshold : 12288 Invalid Tags : 196612 Pr0 Tags : 98300 Pr1 Tags : 196608 num_pr0 : 12286
 SAE Count : 0
 Inter-Core Inteference in Data Store : 2095019
Heartbeat CPU 0 instructions: 110000000 cycles: 129472087 heartbeat IPC: 0.839792 cumulative IPC: 0.849604 (Simulation time: 7 hr 7 min 50 sec) 
 Total Blocks : 196608 Invalid Blocks : 0 Valid Blocks : 196608
 Total Tags : 491520 Threshold : 12288 Invalid Tags : 196609 Pr0 Tags : 98303 Pr1 Tags : 196608 num_pr0 : 12287
 SAE Count : 0
 Inter-Core Inteference in Data Store : 2095172
Heartbeat CPU 1 instructions: 110000000 cycles: 129475092 heartbeat IPC: 0.839785 cumulative IPC: 0.849584 (Simulation time: 7 hr 7 min 51 sec) 
 Total Blocks : 196608 Invalid Blocks : 0 Valid Blocks : 196608
 Total Tags : 491520 Threshold : 12288 Invalid Tags : 196608 Pr0 Tags : 98304 Pr1 Tags : 196608 num_pr0 : 12288
 SAE Count : 0
 Inter-Core Inteference in Data Store : 2095190
Heartbeat CPU 4 instructions: 110000000 cycles: 129487626 heartbeat IPC: 0.839762 cumulative IPC: 0.849502 (Simulation time: 7 hr 7 min 53 sec) 
 Total Blocks : 196608 Invalid Blocks : 0 Valid Blocks : 196608
 Total Tags : 491520 Threshold : 12288 Invalid Tags : 196608 Pr0 Tags : 98304 Pr1 Tags : 196608 num_pr0 : 12288
 SAE Count : 0
 Inter-Core Inteference in Data Store : 2095243
Heartbeat CPU 3 instructions: 110000000 cycles: 129489230 heartbeat IPC: 0.839756 cumulative IPC: 0.849491 (Simulation time: 7 hr 7 min 53 sec) 
 Total Blocks : 196608 Invalid Blocks : 0 Valid Blocks : 196608
 Total Tags : 491520 Threshold : 12288 Invalid Tags : 196608 Pr0 Tags : 98304 Pr1 Tags : 196608 num_pr0 : 12288
 SAE Count : 0
 Inter-Core Inteference in Data Store : 2095248
Heartbeat CPU 2 instructions: 110000000 cycles: 129490399 heartbeat IPC: 0.839703 cumulative IPC: 0.849484 (Simulation time: 7 hr 7 min 54 sec) 
 Total Blocks : 196608 Invalid Blocks : 0 Valid Blocks : 196608
 Total Tags : 491520 Threshold : 12288 Invalid Tags : 196608 Pr0 Tags : 98304 Pr1 Tags : 196608 num_pr0 : 12288
 SAE Count : 0
 Inter-Core Inteference in Data Store : 2095252
Heartbeat CPU 7 instructions: 110000000 cycles: 129491569 heartbeat IPC: 0.8397 cumulative IPC: 0.849476 (Simulation time: 7 hr 7 min 54 sec) 
 Total Blocks : 196608 Invalid Blocks : 0 Valid Blocks : 196608
 Total Tags : 491520 Threshold : 12288 Invalid Tags : 196608 Pr0 Tags : 98304 Pr1 Tags : 196608 num_pr0 : 12288
 SAE Count : 0
 Inter-Core Inteference in Data Store : 2095258
Heartbeat CPU 5 instructions: 120000000 cycles: 141396428 heartbeat IPC: 0.836265 cumulative IPC: 0.848678 (Simulation time: 7 hr 49 min 55 sec) 
 Total Blocks : 196608 Invalid Blocks : 0 Valid Blocks : 196608
 Total Tags : 491520 Threshold : 12288 Invalid Tags : 196612 Pr0 Tags : 98300 Pr1 Tags : 196608 num_pr0 : 12287
 SAE Count : 0
 Inter-Core Inteference in Data Store : 2267476
Heartbeat CPU 6 instructions: 120000000 cycles: 141397328 heartbeat IPC: 0.836241 cumulative IPC: 0.848672 (Simulation time: 7 hr 49 min 55 sec) 
 Total Blocks : 196608 Invalid Blocks : 0 Valid Blocks : 196608
 Total Tags : 491520 Threshold : 12288 Invalid Tags : 196611 Pr0 Tags : 98301 Pr1 Tags : 196608 num_pr0 : 12288
 SAE Count : 0
 Inter-Core Inteference in Data Store : 2267477
Heartbeat CPU 0 instructions: 120000000 cycles: 141434344 heartbeat IPC: 0.835963 cumulative IPC: 0.84845 (Simulation time: 7 hr 49 min 58 sec) 
 Total Blocks : 196608 Invalid Blocks : 0 Valid Blocks : 196608
 Total Tags : 491520 Threshold : 12288 Invalid Tags : 196615 Pr0 Tags : 98297 Pr1 Tags : 196608 num_pr0 : 12287
 SAE Count : 0
 Inter-Core Inteference in Data Store : 2267577
Heartbeat CPU 1 instructions: 120000000 cycles: 141437368 heartbeat IPC: 0.835961 cumulative IPC: 0.848432 (Simulation time: 7 hr 49 min 58 sec) 
 Total Blocks : 196608 Invalid Blocks : 0 Valid Blocks : 196608
 Total Tags : 491520 Threshold : 12288 Invalid Tags : 196613 Pr0 Tags : 98299 Pr1 Tags : 196608 num_pr0 : 12286
 SAE Count : 0
 Inter-Core Inteference in Data Store : 2267582
Heartbeat CPU 4 instructions: 120000000 cycles: 141451400 heartbeat IPC: 0.835857 cumulative IPC: 0.848348 (Simulation time: 7 hr 50 min 0 sec) 
 Total Blocks : 196608 Invalid Blocks : 0 Valid Blocks : 196608
 Total Tags : 491520 Threshold : 12288 Invalid Tags : 196608 Pr0 Tags : 98304 Pr1 Tags : 196608 num_pr0 : 12288
 SAE Count : 0
 Inter-Core Inteference in Data Store : 2267643
Heartbeat CPU 3 instructions: 120000000 cycles: 141452720 heartbeat IPC: 0.835876 cumulative IPC: 0.84834 (Simulation time: 7 hr 50 min 0 sec) 
 Total Blocks : 196608 Invalid Blocks : 0 Valid Blocks : 196608
 Total Tags : 491520 Threshold : 12288 Invalid Tags : 196608 Pr0 Tags : 98304 Pr1 Tags : 196608 num_pr0 : 12288
 SAE Count : 0
 Inter-Core Inteference in Data Store : 2267646
Heartbeat CPU 2 instructions: 120000000 cycles: 141453857 heartbeat IPC: 0.835879 cumulative IPC: 0.848333 (Simulation time: 7 hr 50 min 0 sec) 
 Total Blocks : 196608 Invalid Blocks : 0 Valid Blocks : 196608
 Total Tags : 491520 Threshold : 12288 Invalid Tags : 196608 Pr0 Tags : 98304 Pr1 Tags : 196608 num_pr0 : 12288
 SAE Count : 0
 Inter-Core Inteference in Data Store : 2267653
Heartbeat CPU 7 instructions: 120000000 cycles: 141454815 heartbeat IPC: 0.835894 cumulative IPC: 0.848327 (Simulation time: 7 hr 50 min 0 sec) 
 Total Blocks : 196608 Invalid Blocks : 0 Valid Blocks : 196608
 Total Tags : 491520 Threshold : 12288 Invalid Tags : 196608 Pr0 Tags : 98304 Pr1 Tags : 196608 num_pr0 : 12288
 SAE Count : 0
 Inter-Core Inteference in Data Store : 2267655
Heartbeat CPU 5 instructions: 130000001 cycles: 153326335 heartbeat IPC: 0.83823 cumulative IPC: 0.847865 (Simulation time: 8 hr 32 min 12 sec) 
 Total Blocks : 196608 Invalid Blocks : 0 Valid Blocks : 196608
 Total Tags : 491520 Threshold : 12288 Invalid Tags : 196608 Pr0 Tags : 98304 Pr1 Tags : 196608 num_pr0 : 12288
 SAE Count : 0
 Inter-Core Inteference in Data Store : 2439265
Heartbeat CPU 6 instructions: 130000001 cycles: 153327673 heartbeat IPC: 0.838199 cumulative IPC: 0.847857 (Simulation time: 8 hr 32 min 14 sec) 
 Total Blocks : 196608 Invalid Blocks : 0 Valid Blocks : 196608
 Total Tags : 491520 Threshold : 12288 Invalid Tags : 196608 Pr0 Tags : 98304 Pr1 Tags : 196608 num_pr0 : 12288
 SAE Count : 0
 Inter-Core Inteference in Data Store : 2439366
Heartbeat CPU 0 instructions: 130000001 cycles: 153368328 heartbeat IPC: 0.837943 cumulative IPC: 0.847633 (Simulation time: 8 hr 32 min 52 sec) 
 Total Blocks : 196608 Invalid Blocks : 0 Valid Blocks : 196608
 Total Tags : 491520 Threshold : 12288 Invalid Tags : 196608 Pr0 Tags : 98304 Pr1 Tags : 196608 num_pr0 : 12288
 SAE Count : 0
 Inter-Core Inteference in Data Store : 2441600
Heartbeat CPU 1 instructions: 130000001 cycles: 153371886 heartbeat IPC: 0.837906 cumulative IPC: 0.847613 (Simulation time: 8 hr 32 min 56 sec) 
 Total Blocks : 196608 Invalid Blocks : 0 Valid Blocks : 196608
 Total Tags : 491520 Threshold : 12288 Invalid Tags : 196608 Pr0 Tags : 98304 Pr1 Tags : 196608 num_pr0 : 12288
 SAE Count : 0
 Inter-Core Inteference in Data Store : 2441760
Heartbeat CPU 4 instructions: 130000001 cycles: 153386002 heartbeat IPC: 0.8379 cumulative IPC: 0.847535 (Simulation time: 8 hr 33 min 6 sec) 
 Total Blocks : 196608 Invalid Blocks : 0 Valid Blocks : 196608
 Total Tags : 491520 Threshold : 12288 Invalid Tags : 196608 Pr0 Tags : 98304 Pr1 Tags : 196608 num_pr0 : 12288
 SAE Count : 0
 Inter-Core Inteference in Data Store : 2442390
Heartbeat CPU 3 instructions: 130000001 cycles: 153387790 heartbeat IPC: 0.837867 cumulative IPC: 0.847525 (Simulation time: 8 hr 33 min 8 sec) 
 Total Blocks : 196608 Invalid Blocks : 0 Valid Blocks : 196608
 Total Tags : 491520 Threshold : 12288 Invalid Tags : 196608 Pr0 Tags : 98304 Pr1 Tags : 196608 num_pr0 : 12288
 SAE Count : 0
 Inter-Core Inteference in Data Store : 2442466
Heartbeat CPU 7 instructions: 130000001 cycles: 153389462 heartbeat IPC: 0.837897 cumulative IPC: 0.847516 (Simulation time: 8 hr 33 min 10 sec) 
 Total Blocks : 196608 Invalid Blocks : 0 Valid Blocks : 196608
 Total Tags : 491520 Threshold : 12288 Invalid Tags : 196608 Pr0 Tags : 98304 Pr1 Tags : 196608 num_pr0 : 12288
 SAE Count : 0
 Inter-Core Inteference in Data Store : 2442543
Heartbeat CPU 2 instructions: 130000001 cycles: 153389813 heartbeat IPC: 0.837805 cumulative IPC: 0.847514 (Simulation time: 8 hr 33 min 10 sec) 
 Total Blocks : 196608 Invalid Blocks : 0 Valid Blocks : 196608
 Total Tags : 491520 Threshold : 12288 Invalid Tags : 196608 Pr0 Tags : 98304 Pr1 Tags : 196608 num_pr0 : 12288
 SAE Count : 0
 Inter-Core Inteference in Data Store : 2442560
Heartbeat CPU 5 instructions: 140000001 cycles: 165344003 heartbeat IPC: 0.832108 cumulative IPC: 0.84672 (Simulation time: 9 hr 16 min 22 sec) 
 Total Blocks : 196608 Invalid Blocks : 0 Valid Blocks : 196608
 Total Tags : 491520 Threshold : 12288 Invalid Tags : 196608 Pr0 Tags : 98304 Pr1 Tags : 196608 num_pr0 : 12288
 SAE Count : 0
 Inter-Core Inteference in Data Store : 2622951
Heartbeat CPU 6 instructions: 140000001 cycles: 165345589 heartbeat IPC: 0.832091 cumulative IPC: 0.846711 (Simulation time: 9 hr 16 min 23 sec) 
 Total Blocks : 196608 Invalid Blocks : 0 Valid Blocks : 196608
 Total Tags : 491520 Threshold : 12288 Invalid Tags : 196608 Pr0 Tags : 98304 Pr1 Tags : 196608 num_pr0 : 12288
 SAE Count : 0
 Inter-Core Inteference in Data Store : 2623014
Heartbeat CPU 0 instructions: 140000001 cycles: 165390265 heartbeat IPC: 0.831813 cumulative IPC: 0.846483 (Simulation time: 9 hr 17 min 9 sec) 
 Total Blocks : 196608 Invalid Blocks : 0 Valid Blocks : 196608
 Total Tags : 491520 Threshold : 12288 Invalid Tags : 196608 Pr0 Tags : 98304 Pr1 Tags : 196608 num_pr0 : 12288
 SAE Count : 0
 Inter-Core Inteference in Data Store : 2625769
Heartbeat CPU 1 instructions: 140000001 cycles: 165393954 heartbeat IPC: 0.831804 cumulative IPC: 0.846464 (Simulation time: 9 hr 17 min 13 sec) 
 Total Blocks : 196608 Invalid Blocks : 0 Valid Blocks : 196608
 Total Tags : 491520 Threshold : 12288 Invalid Tags : 196608 Pr0 Tags : 98304 Pr1 Tags : 196608 num_pr0 : 12288
 SAE Count : 0
 Inter-Core Inteference in Data Store : 2626014
Heartbeat CPU 4 instructions: 140000001 cycles: 165408136 heartbeat IPC: 0.831799 cumulative IPC: 0.846391 (Simulation time: 9 hr 17 min 23 sec) 
 Total Blocks : 196608 Invalid Blocks : 0 Valid Blocks : 196608
 Total Tags : 491520 Threshold : 12288 Invalid Tags : 196609 Pr0 Tags : 98303 Pr1 Tags : 196608 num_pr0 : 12288
 SAE Count : 0
 Inter-Core Inteference in Data Store : 2626678
Heartbeat CPU 3 instructions: 140000001 cycles: 165410590 heartbeat IPC: 0.831753 cumulative IPC: 0.846379 (Simulation time: 9 hr 17 min 25 sec) 
 Total Blocks : 196608 Invalid Blocks : 0 Valid Blocks : 196608
 Total Tags : 491520 Threshold : 12288 Invalid Tags : 196608 Pr0 Tags : 98304 Pr1 Tags : 196608 num_pr0 : 12288
 SAE Count : 0
 Inter-Core Inteference in Data Store : 2626801
Heartbeat CPU 7 instructions: 140000001 cycles: 165412978 heartbeat IPC: 0.831703 cumulative IPC: 0.846366 (Simulation time: 9 hr 17 min 27 sec) 
 Total Blocks : 196608 Invalid Blocks : 0 Valid Blocks : 196608
 Total Tags : 491520 Threshold : 12288 Invalid Tags : 196608 Pr0 Tags : 98304 Pr1 Tags : 196608 num_pr0 : 12288
 SAE Count : 0
 Inter-Core Inteference in Data Store : 2626927
Heartbeat CPU 2 instructions: 140000001 cycles: 165413669 heartbeat IPC: 0.83168 cumulative IPC: 0.846363 (Simulation time: 9 hr 17 min 27 sec) 
 Total Blocks : 196608 Invalid Blocks : 0 Valid Blocks : 196608
 Total Tags : 491520 Threshold : 12288 Invalid Tags : 196608 Pr0 Tags : 98304 Pr1 Tags : 196608 num_pr0 : 12288
 SAE Count : 0
 Inter-Core Inteference in Data Store : 2626969
Heartbeat CPU 5 instructions: 150000000 cycles: 177381435 heartbeat IPC: 0.830742 cumulative IPC: 0.845635 (Simulation time: 9 hr 59 min 49 sec) 
 Total Blocks : 196608 Invalid Blocks : 0 Valid Blocks : 196608
 Total Tags : 491520 Threshold : 12288 Invalid Tags : 196608 Pr0 Tags : 98304 Pr1 Tags : 196608 num_pr0 : 12288
 SAE Count : 0
 Inter-Core Inteference in Data Store : 2804541
Heartbeat CPU 6 instructions: 150000000 cycles: 177383646 heartbeat IPC: 0.830699 cumulative IPC: 0.845625 (Simulation time: 9 hr 59 min 49 sec) 
 Total Blocks : 196608 Invalid Blocks : 0 Valid Blocks : 196608
 Total Tags : 491520 Threshold : 12288 Invalid Tags : 196608 Pr0 Tags : 98304 Pr1 Tags : 196608 num_pr0 : 12288
 SAE Count : 0
 Inter-Core Inteference in Data Store : 2804568
Heartbeat CPU 0 instructions: 150000000 cycles: 177432308 heartbeat IPC: 0.830424 cumulative IPC: 0.845393 (Simulation time: 9 hr 59 min 52 sec) 
 Total Blocks : 196608 Invalid Blocks : 0 Valid Blocks : 196608
 Total Tags : 491520 Threshold : 12288 Invalid Tags : 196608 Pr0 Tags : 98304 Pr1 Tags : 196608 num_pr0 : 12288
 SAE Count : 0
 Inter-Core Inteference in Data Store : 2804995
Heartbeat CPU 1 instructions: 150000000 cycles: 177436372 heartbeat IPC: 0.830398 cumulative IPC: 0.845373 (Simulation time: 9 hr 59 min 53 sec) 
 Total Blocks : 196608 Invalid Blocks : 0 Valid Blocks : 196608
 Total Tags : 491520 Threshold : 12288 Invalid Tags : 196608 Pr0 Tags : 98304 Pr1 Tags : 196608 num_pr0 : 12288
 SAE Count : 0
 Inter-Core Inteference in Data Store : 2805041
Heartbeat CPU 4 instructions: 150000000 cycles: 177450774 heartbeat IPC: 0.830383 cumulative IPC: 0.845305 (Simulation time: 9 hr 59 min 54 sec) 
 Total Blocks : 196608 Invalid Blocks : 0 Valid Blocks : 196608
 Total Tags : 491520 Threshold : 12288 Invalid Tags : 196608 Pr0 Tags : 98304 Pr1 Tags : 196608 num_pr0 : 12288
 SAE Count : 0
 Inter-Core Inteference in Data Store : 2805244
Heartbeat CPU 3 instructions: 150000000 cycles: 177453815 heartbeat IPC: 0.830342 cumulative IPC: 0.84529 (Simulation time: 9 hr 59 min 54 sec) 
 Total Blocks : 196608 Invalid Blocks : 0 Valid Blocks : 196608
 Total Tags : 491520 Threshold : 12288 Invalid Tags : 196608 Pr0 Tags : 98304 Pr1 Tags : 196608 num_pr0 : 12288
 SAE Count : 0
 Inter-Core Inteference in Data Store : 2805302
Heartbeat CPU 7 instructions: 150000000 cycles: 177456225 heartbeat IPC: 0.830341 cumulative IPC: 0.845279 (Simulation time: 9 hr 59 min 55 sec) 
 Total Blocks : 196608 Invalid Blocks : 0 Valid Blocks : 196608
 Total Tags : 491520 Threshold : 12288 Invalid Tags : 196608 Pr0 Tags : 98304 Pr1 Tags : 196608 num_pr0 : 12288
 SAE Count : 0
 Inter-Core Inteference in Data Store : 2805320
Heartbeat CPU 2 instructions: 150000000 cycles: 177456679 heartbeat IPC: 0.830357 cumulative IPC: 0.845277 (Simulation time: 9 hr 59 min 55 sec) 
 Total Blocks : 196608 Invalid Blocks : 0 Valid Blocks : 196608
 Total Tags : 491520 Threshold : 12288 Invalid Tags : 196608 Pr0 Tags : 98304 Pr1 Tags : 196608 num_pr0 : 12288
 SAE Count : 0
 Inter-Core Inteference in Data Store : 2805329
Heartbeat CPU 5 instructions: 160000000 cycles: 189363322 heartbeat IPC: 0.834593 cumulative IPC: 0.844937 (Simulation time: 10 hr 44 min 15 sec) 
 Total Blocks : 196608 Invalid Blocks : 0 Valid Blocks : 196608
 Total Tags : 491520 Threshold : 12288 Invalid Tags : 196609 Pr0 Tags : 98303 Pr1 Tags : 196608 num_pr0 : 12288
 SAE Count : 0
 Inter-Core Inteference in Data Store : 2981650
Heartbeat CPU 6 instructions: 160000000 cycles: 189365027 heartbeat IPC: 0.834628 cumulative IPC: 0.844929 (Simulation time: 10 hr 44 min 15 sec) 
 Total Blocks : 196608 Invalid Blocks : 0 Valid Blocks : 196608
 Total Tags : 491520 Threshold : 12288 Invalid Tags : 196609 Pr0 Tags : 98303 Pr1 Tags : 196608 num_pr0 : 12288
 SAE Count : 0
 Inter-Core Inteference in Data Store : 2981666
Heartbeat CPU 0 instructions: 160000000 cycles: 189419572 heartbeat IPC: 0.834219 cumulative IPC: 0.844686 (Simulation time: 10 hr 44 min 25 sec) 
 Total Blocks : 196608 Invalid Blocks : 0 Valid Blocks : 196608
 Total Tags : 491520 Threshold : 12288 Invalid Tags : 196608 Pr0 Tags : 98304 Pr1 Tags : 196608 num_pr0 : 12288
 SAE Count : 0
 Inter-Core Inteference in Data Store : 2982559
Heartbeat CPU 1 instructions: 160000000 cycles: 189423737 heartbeat IPC: 0.834212 cumulative IPC: 0.844667 (Simulation time: 10 hr 44 min 27 sec) 
 Total Blocks : 196608 Invalid Blocks : 0 Valid Blocks : 196608
 Total Tags : 491520 Threshold : 12288 Invalid Tags : 196608 Pr0 Tags : 98304 Pr1 Tags : 196608 num_pr0 : 12288
 SAE Count : 0
 Inter-Core Inteference in Data Store : 2982639
Heartbeat CPU 4 instructions: 160000000 cycles: 189437531 heartbeat IPC: 0.834254 cumulative IPC: 0.844606 (Simulation time: 10 hr 44 min 33 sec) 
 Total Blocks : 196608 Invalid Blocks : 0 Valid Blocks : 196608
 Total Tags : 491520 Threshold : 12288 Invalid Tags : 196609 Pr0 Tags : 98303 Pr1 Tags : 196608 num_pr0 : 12288
 SAE Count : 0
 Inter-Core Inteference in Data Store : 2982998
Heartbeat CPU 3 instructions: 160000000 cycles: 189440863 heartbeat IPC: 0.834234 cumulative IPC: 0.844591 (Simulation time: 10 hr 44 min 34 sec) 
 Total Blocks : 196608 Invalid Blocks : 0 Valid Blocks : 196608
 Total Tags : 491520 Threshold : 12288 Invalid Tags : 196608 Pr0 Tags : 98304 Pr1 Tags : 196608 num_pr0 : 12288
 SAE Count : 0
 Inter-Core Inteference in Data Store : 2983083
Heartbeat CPU 2 instructions: 160000000 cycles: 189443796 heartbeat IPC: 0.834229 cumulative IPC: 0.844578 (Simulation time: 10 hr 44 min 35 sec) 
 Total Blocks : 196608 Invalid Blocks : 0 Valid Blocks : 196608
 Total Tags : 491520 Threshold : 12288 Invalid Tags : 196608 Pr0 Tags : 98304 Pr1 Tags : 196608 num_pr0 : 12288
 SAE Count : 0
 Inter-Core Inteference in Data Store : 2983152
Heartbeat CPU 7 instructions: 160000000 cycles: 189443986 heartbeat IPC: 0.834184 cumulative IPC: 0.844577 (Simulation time: 10 hr 44 min 35 sec) 
 Total Blocks : 196608 Invalid Blocks : 0 Valid Blocks : 196608
 Total Tags : 491520 Threshold : 12288 Invalid Tags : 196608 Pr0 Tags : 98304 Pr1 Tags : 196608 num_pr0 : 12288
 SAE Count : 0
 Inter-Core Inteference in Data Store : 2983157
Heartbeat CPU 5 instructions: 170000003 cycles: 201451478 heartbeat IPC: 0.827256 cumulative IPC: 0.843876 (Simulation time: 11 hr 33 min 41 sec) 
 Total Blocks : 196608 Invalid Blocks : 0 Valid Blocks : 196608
 Total Tags : 491520 Threshold : 12288 Invalid Tags : 196609 Pr0 Tags : 98303 Pr1 Tags : 196608 num_pr0 : 12288
 SAE Count : 0
 Inter-Core Inteference in Data Store : 3160458
Heartbeat CPU 6 instructions: 170000003 cycles: 201453043 heartbeat IPC: 0.827266 cumulative IPC: 0.843869 (Simulation time: 11 hr 33 min 41 sec) 
 Total Blocks : 196608 Invalid Blocks : 0 Valid Blocks : 196608
 Total Tags : 491520 Threshold : 12288 Invalid Tags : 196610 Pr0 Tags : 98302 Pr1 Tags : 196608 num_pr0 : 12288
 SAE Count : 0
 Inter-Core Inteference in Data Store : 3160470
Heartbeat CPU 0 instructions: 170000003 cycles: 201511533 heartbeat IPC: 0.826996 cumulative IPC: 0.843624 (Simulation time: 11 hr 33 min 47 sec) 
 Total Blocks : 196608 Invalid Blocks : 0 Valid Blocks : 196608
 Total Tags : 491520 Threshold : 12288 Invalid Tags : 196608 Pr0 Tags : 98304 Pr1 Tags : 196608 num_pr0 : 12288
 SAE Count : 0
 Inter-Core Inteference in Data Store : 3161109
Heartbeat CPU 1 instructions: 170000003 cycles: 201516495 heartbeat IPC: 0.826941 cumulative IPC: 0.843603 (Simulation time: 11 hr 33 min 47 sec) 
 Total Blocks : 196608 Invalid Blocks : 0 Valid Blocks : 196608
 Total Tags : 491520 Threshold : 12288 Invalid Tags : 196608 Pr0 Tags : 98304 Pr1 Tags : 196608 num_pr0 : 12288
 SAE Count : 0
 Inter-Core Inteference in Data Store : 3161156
Heartbeat CPU 4 instructions: 170000003 cycles: 201529954 heartbeat IPC: 0.826964 cumulative IPC: 0.843547 (Simulation time: 11 hr 33 min 48 sec) 
 Total Blocks : 196608 Invalid Blocks : 0 Valid Blocks : 196608
 Total Tags : 491520 Threshold : 12288 Invalid Tags : 196609 Pr0 Tags : 98303 Pr1 Tags : 196608 num_pr0 : 12288
 SAE Count : 0
 Inter-Core Inteference in Data Store : 3161281
Heartbeat CPU 3 instructions: 170000003 cycles: 201534651 heartbeat IPC: 0.826871 cumulative IPC: 0.843527 (Simulation time: 11 hr 33 min 48 sec) 
 Total Blocks : 196608 Invalid Blocks : 0 Valid Blocks : 196608
 Total Tags : 491520 Threshold : 12288 Invalid Tags : 196609 Pr0 Tags : 98303 Pr1 Tags : 196608 num_pr0 : 12288
 SAE Count : 0
 Inter-Core Inteference in Data Store : 3161316
Heartbeat CPU 2 instructions: 170000003 cycles: 201537576 heartbeat IPC: 0.826872 cumulative IPC: 0.843515 (Simulation time: 11 hr 33 min 48 sec) 
 Total Blocks : 196608 Invalid Blocks : 0 Valid Blocks : 196608
 Total Tags : 491520 Threshold : 12288 Invalid Tags : 196608 Pr0 Tags : 98304 Pr1 Tags : 196608 num_pr0 : 12288
 SAE Count : 0
 Inter-Core Inteference in Data Store : 3161340
Heartbeat CPU 7 instructions: 170000003 cycles: 201537858 heartbeat IPC: 0.826865 cumulative IPC: 0.843514 (Simulation time: 11 hr 33 min 48 sec) 
 Total Blocks : 196608 Invalid Blocks : 0 Valid Blocks : 196608
 Total Tags : 491520 Threshold : 12288 Invalid Tags : 196608 Pr0 Tags : 98304 Pr1 Tags : 196608 num_pr0 : 12288
 SAE Count : 0
 Inter-Core Inteference in Data Store : 3161341
Heartbeat CPU 5 instructions: 180000002 cycles: 213569993 heartbeat IPC: 0.825184 cumulative IPC: 0.842815 (Simulation time: 12 hr 21 min 11 sec) 
 Total Blocks : 196608 Invalid Blocks : 0 Valid Blocks : 196608
 Total Tags : 491520 Threshold : 12288 Invalid Tags : 196608 Pr0 Tags : 98304 Pr1 Tags : 196608 num_pr0 : 12288
 SAE Count : 0
 Inter-Core Inteference in Data Store : 3332872
Heartbeat CPU 6 instructions: 180000002 cycles: 213572078 heartbeat IPC: 0.825148 cumulative IPC: 0.842807 (Simulation time: 12 hr 21 min 12 sec) 
 Total Blocks : 196608 Invalid Blocks : 0 Valid Blocks : 196608
 Total Tags : 491520 Threshold : 12288 Invalid Tags : 196608 Pr0 Tags : 98304 Pr1 Tags : 196608 num_pr0 : 12288
 SAE Count : 0
 Inter-Core Inteference in Data Store : 3332943
Heartbeat CPU 0 instructions: 180000002 cycles: 213634302 heartbeat IPC: 0.824894 cumulative IPC: 0.842561 (Simulation time: 12 hr 21 min 42 sec) 
 Total Blocks : 196608 Invalid Blocks : 0 Valid Blocks : 196608
 Total Tags : 491520 Threshold : 12288 Invalid Tags : 196608 Pr0 Tags : 98304 Pr1 Tags : 196608 num_pr0 : 12288
 SAE Count : 0
 Inter-Core Inteference in Data Store : 3334855
Heartbeat CPU 1 instructions: 180000002 cycles: 213639857 heartbeat IPC: 0.824854 cumulative IPC: 0.842539 (Simulation time: 12 hr 21 min 47 sec) 
 Total Blocks : 196608 Invalid Blocks : 0 Valid Blocks : 196608
 Total Tags : 491520 Threshold : 12288 Invalid Tags : 196608 Pr0 Tags : 98304 Pr1 Tags : 196608 num_pr0 : 12288
 SAE Count : 0
 Inter-Core Inteference in Data Store : 3335096
Heartbeat CPU 4 instructions: 180000002 cycles: 213653791 heartbeat IPC: 0.824821 cumulative IPC: 0.842484 (Simulation time: 12 hr 22 min 3 sec) 
 Total Blocks : 196608 Invalid Blocks : 0 Valid Blocks : 196608
 Total Tags : 491520 Threshold : 12288 Invalid Tags : 196608 Pr0 Tags : 98304 Pr1 Tags : 196608 num_pr0 : 12288
 SAE Count : 0
 Inter-Core Inteference in Data Store : 3335885
Heartbeat CPU 3 instructions: 180000002 cycles: 213658278 heartbeat IPC: 0.824836 cumulative IPC: 0.842467 (Simulation time: 12 hr 22 min 12 sec) 
 Total Blocks : 196608 Invalid Blocks : 0 Valid Blocks : 196608
 Total Tags : 491520 Threshold : 12288 Invalid Tags : 196608 Pr0 Tags : 98304 Pr1 Tags : 196608 num_pr0 : 12288
 SAE Count : 0
 Inter-Core Inteference in Data Store : 3336195
Heartbeat CPU 2 instructions: 180000002 cycles: 213661281 heartbeat IPC: 0.82483 cumulative IPC: 0.842455 (Simulation time: 12 hr 22 min 16 sec) 
 Total Blocks : 196608 Invalid Blocks : 0 Valid Blocks : 196608
 Total Tags : 491520 Threshold : 12288 Invalid Tags : 196608 Pr0 Tags : 98304 Pr1 Tags : 196608 num_pr0 : 12288
 SAE Count : 0
 Inter-Core Inteference in Data Store : 3336426
Heartbeat CPU 7 instructions: 180000002 cycles: 213662038 heartbeat IPC: 0.824798 cumulative IPC: 0.842452 (Simulation time: 12 hr 22 min 17 sec) 
 Total Blocks : 196608 Invalid Blocks : 0 Valid Blocks : 196608
 Total Tags : 491520 Threshold : 12288 Invalid Tags : 196608 Pr0 Tags : 98304 Pr1 Tags : 196608 num_pr0 : 12288
 SAE Count : 0
 Inter-Core Inteference in Data Store : 3336464
Heartbeat CPU 5 instructions: 190000001 cycles: 225553499 heartbeat IPC: 0.83448 cumulative IPC: 0.842372 (Simulation time: 13 hr 12 min 5 sec) 
 Total Blocks : 196608 Invalid Blocks : 0 Valid Blocks : 196608
 Total Tags : 491520 Threshold : 12288 Invalid Tags : 196608 Pr0 Tags : 98304 Pr1 Tags : 196608 num_pr0 : 12288
 SAE Count : 0
 Inter-Core Inteference in Data Store : 3515279
Heartbeat CPU 6 instructions: 190000001 cycles: 225555813 heartbeat IPC: 0.834464 cumulative IPC: 0.842364 (Simulation time: 13 hr 12 min 5 sec) 
 Total Blocks : 196608 Invalid Blocks : 0 Valid Blocks : 196608
 Total Tags : 491520 Threshold : 12288 Invalid Tags : 196608 Pr0 Tags : 98304 Pr1 Tags : 196608 num_pr0 : 12288
 SAE Count : 0
 Inter-Core Inteference in Data Store : 3515290
Heartbeat CPU 0 instructions: 190000001 cycles: 225621017 heartbeat IPC: 0.834257 cumulative IPC: 0.84212 (Simulation time: 13 hr 12 min 20 sec) 
 Total Blocks : 196608 Invalid Blocks : 0 Valid Blocks : 196608
 Total Tags : 491520 Threshold : 12288 Invalid Tags : 196609 Pr0 Tags : 98303 Pr1 Tags : 196608 num_pr0 : 12287
 SAE Count : 0
 Inter-Core Inteference in Data Store : 3516219
Heartbeat CPU 1 instructions: 190000001 cycles: 225627404 heartbeat IPC: 0.834199 cumulative IPC: 0.842096 (Simulation time: 13 hr 12 min 23 sec) 
 Total Blocks : 196608 Invalid Blocks : 0 Valid Blocks : 196608
 Total Tags : 491520 Threshold : 12288 Invalid Tags : 196608 Pr0 Tags : 98304 Pr1 Tags : 196608 num_pr0 : 12288
 SAE Count : 0
 Inter-Core Inteference in Data Store : 3516346
Heartbeat CPU 4 instructions: 190000001 cycles: 225641489 heartbeat IPC: 0.834188 cumulative IPC: 0.842044 (Simulation time: 13 hr 12 min 28 sec) 
 Total Blocks : 196608 Invalid Blocks : 0 Valid Blocks : 196608
 Total Tags : 491520 Threshold : 12288 Invalid Tags : 196608 Pr0 Tags : 98304 Pr1 Tags : 196608 num_pr0 : 12288
 SAE Count : 0
 Inter-Core Inteference in Data Store : 3516660
Heartbeat CPU 3 instructions: 190000001 cycles: 225646034 heartbeat IPC: 0.834184 cumulative IPC: 0.842027 (Simulation time: 13 hr 12 min 30 sec) 
 Total Blocks : 196608 Invalid Blocks : 0 Valid Blocks : 196608
 Total Tags : 491520 Threshold : 12288 Invalid Tags : 196608 Pr0 Tags : 98304 Pr1 Tags : 196608 num_pr0 : 12288
 SAE Count : 0
 Inter-Core Inteference in Data Store : 3516773
Heartbeat CPU 2 instructions: 190000001 cycles: 225649097 heartbeat IPC: 0.83418 cumulative IPC: 0.842015 (Simulation time: 13 hr 12 min 32 sec) 
 Total Blocks : 196608 Invalid Blocks : 0 Valid Blocks : 196608
 Total Tags : 491520 Threshold : 12288 Invalid Tags : 196608 Pr0 Tags : 98304 Pr1 Tags : 196608 num_pr0 : 12288
 SAE Count : 0
 Inter-Core Inteference in Data Store : 3516836
Heartbeat CPU 7 instructions: 190000001 cycles: 225650305 heartbeat IPC: 0.834149 cumulative IPC: 0.842011 (Simulation time: 13 hr 12 min 32 sec) 
 Total Blocks : 196608 Invalid Blocks : 0 Valid Blocks : 196608
 Total Tags : 491520 Threshold : 12288 Invalid Tags : 196608 Pr0 Tags : 98304 Pr1 Tags : 196608 num_pr0 : 12288
 SAE Count : 0
 Inter-Core Inteference in Data Store : 3516861
Heartbeat CPU 5 instructions: 200000000 cycles: 237526505 heartbeat IPC: 0.835212 cumulative IPC: 0.842011 (Simulation time: 14 hr 3 min 22 sec) 
 Total Blocks : 196608 Invalid Blocks : 0 Valid Blocks : 196608
 Total Tags : 491520 Threshold : 12288 Invalid Tags : 196608 Pr0 Tags : 98304 Pr1 Tags : 196608 num_pr0 : 12288
 SAE Count : 0
 Inter-Core Inteference in Data Store : 3697129
Heartbeat CPU 6 instructions: 200000000 cycles: 237528122 heartbeat IPC: 0.835261 cumulative IPC: 0.842006 (Simulation time: 14 hr 3 min 22 sec) 
 Total Blocks : 196608 Invalid Blocks : 0 Valid Blocks : 196608
 Total Tags : 491520 Threshold : 12288 Invalid Tags : 196608 Pr0 Tags : 98304 Pr1 Tags : 196608 num_pr0 : 12288
 SAE Count : 0
 Inter-Core Inteference in Data Store : 3697144
Heartbeat CPU 0 instructions: 200000000 cycles: 237598167 heartbeat IPC: 0.834923 cumulative IPC: 0.841757 (Simulation time: 14 hr 3 min 30 sec) 
 Total Blocks : 196608 Invalid Blocks : 0 Valid Blocks : 196608
 Total Tags : 491520 Threshold : 12288 Invalid Tags : 196609 Pr0 Tags : 98303 Pr1 Tags : 196608 num_pr0 : 12288
 SAE Count : 0
 Inter-Core Inteference in Data Store : 3697737
Heartbeat CPU 1 instructions: 200000000 cycles: 237604577 heartbeat IPC: 0.834921 cumulative IPC: 0.841735 (Simulation time: 14 hr 3 min 30 sec) 
 Total Blocks : 196608 Invalid Blocks : 0 Valid Blocks : 196608
 Total Tags : 491520 Threshold : 12288 Invalid Tags : 196608 Pr0 Tags : 98304 Pr1 Tags : 196608 num_pr0 : 12288
 SAE Count : 0
 Inter-Core Inteference in Data Store : 3697779
Heartbeat CPU 4 instructions: 200000000 cycles: 237619166 heartbeat IPC: 0.834886 cumulative IPC: 0.841683 (Simulation time: 14 hr 3 min 32 sec) 
 Total Blocks : 196608 Invalid Blocks : 0 Valid Blocks : 196608
 Total Tags : 491520 Threshold : 12288 Invalid Tags : 196608 Pr0 Tags : 98304 Pr1 Tags : 196608 num_pr0 : 12288
 SAE Count : 0
 Inter-Core Inteference in Data Store : 3697893
Heartbeat CPU 3 instructions: 200000000 cycles: 237623352 heartbeat IPC: 0.834911 cumulative IPC: 0.841668 (Simulation time: 14 hr 3 min 32 sec) 
 Total Blocks : 196608 Invalid Blocks : 0 Valid Blocks : 196608
 Total Tags : 491520 Threshold : 12288 Invalid Tags : 196608 Pr0 Tags : 98304 Pr1 Tags : 196608 num_pr0 : 12288
 SAE Count : 0
 Inter-Core Inteference in Data Store : 3697932
Heartbeat CPU 2 instructions: 200000000 cycles: 237626638 heartbeat IPC: 0.834896 cumulative IPC: 0.841657 (Simulation time: 14 hr 3 min 33 sec) 
 Total Blocks : 196608 Invalid Blocks : 0 Valid Blocks : 196608
 Total Tags : 491520 Threshold : 12288 Invalid Tags : 196609 Pr0 Tags : 98303 Pr1 Tags : 196608 num_pr0 : 12288
 SAE Count : 0
 Inter-Core Inteference in Data Store : 3697972
Heartbeat CPU 7 instructions: 200000000 cycles: 237628652 heartbeat IPC: 0.83484 cumulative IPC: 0.841649 (Simulation time: 14 hr 3 min 33 sec) 
 Total Blocks : 196608 Invalid Blocks : 0 Valid Blocks : 196608
 Total Tags : 491520 Threshold : 12288 Invalid Tags : 196609 Pr0 Tags : 98303 Pr1 Tags : 196608 num_pr0 : 12288
 SAE Count : 0
 Inter-Core Inteference in Data Store : 3697992

Warmup complete CPU 0 instructions: 200025509 cycles: 237628653 (Simulation time: 14 hr 3 min 33 sec) 
Warmup complete CPU 1 instructions: 200020266 cycles: 237628653 (Simulation time: 14 hr 3 min 33 sec) 
Warmup complete CPU 2 instructions: 200001607 cycles: 237628653 (Simulation time: 14 hr 3 min 33 sec) 
Warmup complete CPU 3 instructions: 200004646 cycles: 237628653 (Simulation time: 14 hr 3 min 33 sec) 
Warmup complete CPU 4 instructions: 200008514 cycles: 237628653 (Simulation time: 14 hr 3 min 33 sec) 
Warmup complete CPU 5 instructions: 200081229 cycles: 237628653 (Simulation time: 14 hr 3 min 33 sec) 
Warmup complete CPU 6 instructions: 200080181 cycles: 237628653 (Simulation time: 14 hr 3 min 33 sec) 
Warmup complete CPU 7 instructions: 200000003 cycles: 237628653 (Simulation time: 14 hr 3 min 33 sec) 

Heartbeat CPU 5 instructions: 210000002 cycles: 279011010 heartbeat IPC: 0.241054 cumulative IPC: 0.239686 (Simulation time: 15 hr 6 min 37 sec) 
 Total Blocks : 196608 Invalid Blocks : 0 Valid Blocks : 196608
 Total Tags : 491520 Threshold : 12288 Invalid Tags : 196608 Pr0 Tags : 98304 Pr1 Tags : 196608 num_pr0 : 12288
 SAE Count : 0
 Inter-Core Inteference in Data Store : 208954
Heartbeat CPU 6 instructions: 210000002 cycles: 279054126 heartbeat IPC: 0.240813 cumulative IPC: 0.239462 (Simulation time: 15 hr 6 min 43 sec) 
 Total Blocks : 196608 Invalid Blocks : 0 Valid Blocks : 196608
 Total Tags : 491520 Threshold : 12288 Invalid Tags : 196608 Pr0 Tags : 98304 Pr1 Tags : 196608 num_pr0 : 12288
 SAE Count : 0
 Inter-Core Inteference in Data Store : 209248
Heartbeat CPU 0 instructions: 210000002 cycles: 280133231 heartbeat IPC: 0.2351 cumulative IPC: 0.234669 (Simulation time: 15 hr 8 min 58 sec) 
 Total Blocks : 196608 Invalid Blocks : 0 Valid Blocks : 196608
 Total Tags : 491520 Threshold : 12288 Invalid Tags : 196608 Pr0 Tags : 98304 Pr1 Tags : 196608 num_pr0 : 12288
 SAE Count : 0
 Inter-Core Inteference in Data Store : 214724
Heartbeat CPU 1 instructions: 210000002 cycles: 280165669 heartbeat IPC: 0.234956 cumulative IPC: 0.234613 (Simulation time: 15 hr 9 min 0 sec) 
 Total Blocks : 196608 Invalid Blocks : 0 Valid Blocks : 196608
 Total Tags : 491520 Threshold : 12288 Invalid Tags : 196608 Pr0 Tags : 98304 Pr1 Tags : 196608 num_pr0 : 12288
 SAE Count : 0
 Inter-Core Inteference in Data Store : 214811
Heartbeat CPU 7 instructions: 210000002 cycles: 280193272 heartbeat IPC: 0.234937 cumulative IPC: 0.234937 (Simulation time: 15 hr 9 min 1 sec) 
 Total Blocks : 196608 Invalid Blocks : 0 Valid Blocks : 196608
 Total Tags : 491520 Threshold : 12288 Invalid Tags : 196608 Pr0 Tags : 98304 Pr1 Tags : 196608 num_pr0 : 12288
 SAE Count : 0
 Inter-Core Inteference in Data Store : 214906
Heartbeat CPU 3 instructions: 210000002 cycles: 280198167 heartbeat IPC: 0.234881 cumulative IPC: 0.234801 (Simulation time: 15 hr 9 min 1 sec) 
 Total Blocks : 196608 Invalid Blocks : 0 Valid Blocks : 196608
 Total Tags : 491520 Threshold : 12288 Invalid Tags : 196608 Pr0 Tags : 98304 Pr1 Tags : 196608 num_pr0 : 12288
 SAE Count : 0
 Inter-Core Inteference in Data Store : 214938
Heartbeat CPU 4 instructions: 210000002 cycles: 280221494 heartbeat IPC: 0.234729 cumulative IPC: 0.234581 (Simulation time: 15 hr 9 min 2 sec) 
 Total Blocks : 196608 Invalid Blocks : 0 Valid Blocks : 196608
 Total Tags : 491520 Threshold : 12288 Invalid Tags : 196608 Pr0 Tags : 98304 Pr1 Tags : 196608 num_pr0 : 12288
 SAE Count : 0
 Inter-Core Inteference in Data Store : 215049
Heartbeat CPU 2 instructions: 210000002 cycles: 280227496 heartbeat IPC: 0.234737 cumulative IPC: 0.23471 (Simulation time: 15 hr 9 min 2 sec) 
 Total Blocks : 196608 Invalid Blocks : 0 Valid Blocks : 196608
 Total Tags : 491520 Threshold : 12288 Invalid Tags : 196608 Pr0 Tags : 98304 Pr1 Tags : 196608 num_pr0 : 12288
 SAE Count : 0
 Inter-Core Inteference in Data Store : 215092
Heartbeat CPU 5 instructions: 220000000 cycles: 319766617 heartbeat IPC: 0.245365 cumulative IPC: 0.242504 (Simulation time: 16 hr 7 min 59 sec) 
 Total Blocks : 196608 Invalid Blocks : 0 Valid Blocks : 196608
 Total Tags : 491520 Threshold : 12288 Invalid Tags : 196608 Pr0 Tags : 98304 Pr1 Tags : 196608 num_pr0 : 12288
 SAE Count : 0
 Inter-Core Inteference in Data Store : 413504
Heartbeat CPU 6 instructions: 220000000 cycles: 319804290 heartbeat IPC: 0.245398 cumulative IPC: 0.242405 (Simulation time: 16 hr 8 min 5 sec) 
 Total Blocks : 196608 Invalid Blocks : 0 Valid Blocks : 196608
 Total Tags : 491520 Threshold : 12288 Invalid Tags : 196608 Pr0 Tags : 98304 Pr1 Tags : 196608 num_pr0 : 12288
 SAE Count : 0
 Inter-Core Inteference in Data Store : 413792
Heartbeat CPU 0 instructions: 220000000 cycles: 321888626 heartbeat IPC: 0.23949 cumulative IPC: 0.237058 (Simulation time: 16 hr 11 min 8 sec) 
 Total Blocks : 196608 Invalid Blocks : 0 Valid Blocks : 196608
 Total Tags : 491520 Threshold : 12288 Invalid Tags : 196608 Pr0 Tags : 98304 Pr1 Tags : 196608 num_pr0 : 12288
 SAE Count : 0
 Inter-Core Inteference in Data Store : 424154
Heartbeat CPU 1 instructions: 220000000 cycles: 321991174 heartbeat IPC: 0.239089 cumulative IPC: 0.236832 (Simulation time: 16 hr 11 min 13 sec) 
 Total Blocks : 196608 Invalid Blocks : 0 Valid Blocks : 196608
 Total Tags : 491520 Threshold : 12288 Invalid Tags : 196608 Pr0 Tags : 98304 Pr1 Tags : 196608 num_pr0 : 12288
 SAE Count : 0
 Inter-Core Inteference in Data Store : 424453
Heartbeat CPU 3 instructions: 220000000 cycles: 322069907 heartbeat IPC: 0.238825 cumulative IPC: 0.236796 (Simulation time: 16 hr 11 min 18 sec) 
 Total Blocks : 196608 Invalid Blocks : 0 Valid Blocks : 196608
 Total Tags : 491520 Threshold : 12288 Invalid Tags : 196608 Pr0 Tags : 98304 Pr1 Tags : 196608 num_pr0 : 12288
 SAE Count : 0
 Inter-Core Inteference in Data Store : 424718
Heartbeat CPU 2 instructions: 220000000 cycles: 322084005 heartbeat IPC: 0.238911 cumulative IPC: 0.236792 (Simulation time: 16 hr 11 min 18 sec) 
 Total Blocks : 196608 Invalid Blocks : 0 Valid Blocks : 196608
 Total Tags : 491520 Threshold : 12288 Invalid Tags : 196608 Pr0 Tags : 98304 Pr1 Tags : 196608 num_pr0 : 12288
 SAE Count : 0
 Inter-Core Inteference in Data Store : 424790
Heartbeat CPU 7 instructions: 220000000 cycles: 322117820 heartbeat IPC: 0.238524 cumulative IPC: 0.236717 (Simulation time: 16 hr 11 min 21 sec) 
 Total Blocks : 196608 Invalid Blocks : 0 Valid Blocks : 196608
 Total Tags : 491520 Threshold : 12288 Invalid Tags : 196608 Pr0 Tags : 98304 Pr1 Tags : 196608 num_pr0 : 12288
 SAE Count : 0
 Inter-Core Inteference in Data Store : 424946
Heartbeat CPU 4 instructions: 220000000 cycles: 322120135 heartbeat IPC: 0.238671 cumulative IPC: 0.236609 (Simulation time: 16 hr 11 min 21 sec) 
 Total Blocks : 196608 Invalid Blocks : 0 Valid Blocks : 196608
 Total Tags : 491520 Threshold : 12288 Invalid Tags : 196608 Pr0 Tags : 98304 Pr1 Tags : 196608 num_pr0 : 12288
 SAE Count : 0
 Inter-Core Inteference in Data Store : 424951
Heartbeat CPU 5 instructions: 230000002 cycles: 362853752 heartbeat IPC: 0.232088 cumulative IPC: 0.23892 (Simulation time: 17 hr 9 min 47 sec) 
 Total Blocks : 196608 Invalid Blocks : 0 Valid Blocks : 196608
 Total Tags : 491520 Threshold : 12288 Invalid Tags : 196608 Pr0 Tags : 98304 Pr1 Tags : 196608 num_pr0 : 12288
 SAE Count : 0
 Inter-Core Inteference in Data Store : 649947
Heartbeat CPU 6 instructions: 230000002 cycles: 362876952 heartbeat IPC: 0.232166 cumulative IPC: 0.238884 (Simulation time: 17 hr 9 min 49 sec) 
 Total Blocks : 196608 Invalid Blocks : 0 Valid Blocks : 196608
 Total Tags : 491520 Threshold : 12288 Invalid Tags : 196608 Pr0 Tags : 98304 Pr1 Tags : 196608 num_pr0 : 12288
 SAE Count : 0
 Inter-Core Inteference in Data Store : 650069
Heartbeat CPU 0 instructions: 230000002 cycles: 364540665 heartbeat IPC: 0.234455 cumulative IPC: 0.236183 (Simulation time: 17 hr 11 min 32 sec) 
 Total Blocks : 196608 Invalid Blocks : 0 Valid Blocks : 196608
 Total Tags : 491520 Threshold : 12288 Invalid Tags : 196608 Pr0 Tags : 98304 Pr1 Tags : 196608 num_pr0 : 12288
 SAE Count : 0
 Inter-Core Inteference in Data Store : 657064
Heartbeat CPU 1 instructions: 230000002 cycles: 365394283 heartbeat IPC: 0.230398 cumulative IPC: 0.234646 (Simulation time: 17 hr 12 min 47 sec) 
 Total Blocks : 196608 Invalid Blocks : 0 Valid Blocks : 196608
 Total Tags : 491520 Threshold : 12288 Invalid Tags : 196608 Pr0 Tags : 98304 Pr1 Tags : 196608 num_pr0 : 12288
 SAE Count : 0
 Inter-Core Inteference in Data Store : 661584
Heartbeat CPU 7 instructions: 230000002 cycles: 365841953 heartbeat IPC: 0.228707 cumulative IPC: 0.233985 (Simulation time: 17 hr 13 min 57 sec) 
 Total Blocks : 196608 Invalid Blocks : 0 Valid Blocks : 196608
 Total Tags : 491520 Threshold : 12288 Invalid Tags : 196608 Pr0 Tags : 98304 Pr1 Tags : 196608 num_pr0 : 12288
 SAE Count : 0
 Inter-Core Inteference in Data Store : 664263
Heartbeat CPU 3 instructions: 230000002 cycles: 365842389 heartbeat IPC: 0.228454 cumulative IPC: 0.233948 (Simulation time: 17 hr 13 min 57 sec) 
 Total Blocks : 196608 Invalid Blocks : 0 Valid Blocks : 196608
 Total Tags : 491520 Threshold : 12288 Invalid Tags : 196608 Pr0 Tags : 98304 Pr1 Tags : 196608 num_pr0 : 12288
 SAE Count : 0
 Inter-Core Inteference in Data Store : 664267
Heartbeat CPU 2 instructions: 230000002 cycles: 365896142 heartbeat IPC: 0.228247 cumulative IPC: 0.233874 (Simulation time: 17 hr 14 min 5 sec) 
 Total Blocks : 196608 Invalid Blocks : 0 Valid Blocks : 196608
 Total Tags : 491520 Threshold : 12288 Invalid Tags : 196609 Pr0 Tags : 98303 Pr1 Tags : 196608 num_pr0 : 12288
 SAE Count : 0
 Inter-Core Inteference in Data Store : 664545
Heartbeat CPU 4 instructions: 230000002 cycles: 365959041 heartbeat IPC: 0.228108 cumulative IPC: 0.233705 (Simulation time: 17 hr 14 min 13 sec) 
 Total Blocks : 196608 Invalid Blocks : 0 Valid Blocks : 196608
 Total Tags : 491520 Threshold : 12288 Invalid Tags : 196608 Pr0 Tags : 98304 Pr1 Tags : 196608 num_pr0 : 12288
 SAE Count : 0
 Inter-Core Inteference in Data Store : 664872
Heartbeat CPU 6 instructions: 240000002 cycles: 404511495 heartbeat IPC: 0.240185 cumulative IPC: 0.239209 (Simulation time: 18 hr 8 min 13 sec) 
 Total Blocks : 196608 Invalid Blocks : 0 Valid Blocks : 196608
 Total Tags : 491520 Threshold : 12288 Invalid Tags : 196609 Pr0 Tags : 98303 Pr1 Tags : 196608 num_pr0 : 12288
 SAE Count : 0
 Inter-Core Inteference in Data Store : 851546
Heartbeat CPU 5 instructions: 240000002 cycles: 404566883 heartbeat IPC: 0.239733 cumulative IPC: 0.239123 (Simulation time: 18 hr 8 min 16 sec) 
 Total Blocks : 196608 Invalid Blocks : 0 Valid Blocks : 196608
 Total Tags : 491520 Threshold : 12288 Invalid Tags : 196608 Pr0 Tags : 98304 Pr1 Tags : 196608 num_pr0 : 12288
 SAE Count : 0
 Inter-Core Inteference in Data Store : 851749
Heartbeat CPU 0 instructions: 240000002 cycles: 405109626 heartbeat IPC: 0.246494 cumulative IPC: 0.238681 (Simulation time: 18 hr 9 min 4 sec) 
 Total Blocks : 196608 Invalid Blocks : 0 Valid Blocks : 196608
 Total Tags : 491520 Threshold : 12288 Invalid Tags : 196608 Pr0 Tags : 98304 Pr1 Tags : 196608 num_pr0 : 12288
 SAE Count : 0
 Inter-Core Inteference in Data Store : 854904
Heartbeat CPU 1 instructions: 240000002 cycles: 406032213 heartbeat IPC: 0.246076 cumulative IPC: 0.237404 (Simulation time: 18 hr 11 min 11 sec) 
 Total Blocks : 196608 Invalid Blocks : 0 Valid Blocks : 196608
 Total Tags : 491520 Threshold : 12288 Invalid Tags : 196608 Pr0 Tags : 98304 Pr1 Tags : 196608 num_pr0 : 12288
 SAE Count : 0
 Inter-Core Inteference in Data Store : 860087
Heartbeat CPU 7 instructions: 240000002 cycles: 407715073 heartbeat IPC: 0.238817 cumulative IPC: 0.235175 (Simulation time: 18 hr 12 min 47 sec) 
 Total Blocks : 196608 Invalid Blocks : 0 Valid Blocks : 196608
 Total Tags : 491520 Threshold : 12288 Invalid Tags : 196608 Pr0 Tags : 98304 Pr1 Tags : 196608 num_pr0 : 12288
 SAE Count : 0
 Inter-Core Inteference in Data Store : 866856
Heartbeat CPU 4 instructions: 240000002 cycles: 407761377 heartbeat IPC: 0.239221 cumulative IPC: 0.235061 (Simulation time: 18 hr 12 min 50 sec) 
 Total Blocks : 196608 Invalid Blocks : 0 Valid Blocks : 196608
 Total Tags : 491520 Threshold : 12288 Invalid Tags : 196608 Pr0 Tags : 98304 Pr1 Tags : 196608 num_pr0 : 12288
 SAE Count : 0
 Inter-Core Inteference in Data Store : 867106
Heartbeat CPU 3 instructions: 240000002 cycles: 407797167 heartbeat IPC: 0.238352 cumulative IPC: 0.235034 (Simulation time: 18 hr 12 min 51 sec) 
 Total Blocks : 196608 Invalid Blocks : 0 Valid Blocks : 196608
 Total Tags : 491520 Threshold : 12288 Invalid Tags : 196608 Pr0 Tags : 98304 Pr1 Tags : 196608 num_pr0 : 12288
 SAE Count : 0
 Inter-Core Inteference in Data Store : 867273
Heartbeat CPU 2 instructions: 240000002 cycles: 407887675 heartbeat IPC: 0.238143 cumulative IPC: 0.234927 (Simulation time: 18 hr 12 min 58 sec) 
 Total Blocks : 196608 Invalid Blocks : 0 Valid Blocks : 196608
 Total Tags : 491520 Threshold : 12288 Invalid Tags : 196608 Pr0 Tags : 98304 Pr1 Tags : 196608 num_pr0 : 12288
 SAE Count : 0
 Inter-Core Inteference in Data Store : 867744
Heartbeat CPU 6 instructions: 250000001 cycles: 445658616 heartbeat IPC: 0.24303 cumulative IPC: 0.239965 (Simulation time: 19 hr 5 min 50 sec) 
 Total Blocks : 196608 Invalid Blocks : 0 Valid Blocks : 196608
 Total Tags : 491520 Threshold : 12288 Invalid Tags : 196608 Pr0 Tags : 98304 Pr1 Tags : 196608 num_pr0 : 12288
 SAE Count : 0
 Inter-Core Inteference in Data Store : 1055888
Heartbeat CPU 5 instructions: 250000001 cycles: 446060496 heartbeat IPC: 0.241001 cumulative IPC: 0.239497 (Simulation time: 19 hr 6 min 18 sec) 
 Total Blocks : 196608 Invalid Blocks : 0 Valid Blocks : 196608
 Total Tags : 491520 Threshold : 12288 Invalid Tags : 196608 Pr0 Tags : 98304 Pr1 Tags : 196608 num_pr0 : 12288
 SAE Count : 0
 Inter-Core Inteference in Data Store : 1057299
Heartbeat CPU 0 instructions: 250000001 cycles: 447106463 heartbeat IPC: 0.238113 cumulative IPC: 0.238567 (Simulation time: 19 hr 7 min 29 sec) 
 Total Blocks : 196608 Invalid Blocks : 0 Valid Blocks : 196608
 Total Tags : 491520 Threshold : 12288 Invalid Tags : 196608 Pr0 Tags : 98304 Pr1 Tags : 196608 num_pr0 : 12288
 SAE Count : 0
 Inter-Core Inteference in Data Store : 1062208
Heartbeat CPU 1 instructions: 250000001 cycles: 447268447 heartbeat IPC: 0.242505 cumulative IPC: 0.238408 (Simulation time: 19 hr 7 min 42 sec) 
 Total Blocks : 196608 Invalid Blocks : 0 Valid Blocks : 196608
 Total Tags : 491520 Threshold : 12288 Invalid Tags : 196608 Pr0 Tags : 98304 Pr1 Tags : 196608 num_pr0 : 12288
 SAE Count : 0
 Inter-Core Inteference in Data Store : 1062988
Heartbeat CPU 7 instructions: 250000001 cycles: 449879037 heartbeat IPC: 0.237169 cumulative IPC: 0.235571 (Simulation time: 19 hr 11 min 20 sec) 
 Total Blocks : 196608 Invalid Blocks : 0 Valid Blocks : 196608
 Total Tags : 491520 Threshold : 12288 Invalid Tags : 196608 Pr0 Tags : 98304 Pr1 Tags : 196608 num_pr0 : 12288
 SAE Count : 0
 Inter-Core Inteference in Data Store : 1076019
Heartbeat CPU 4 instructions: 250000001 cycles: 449901254 heartbeat IPC: 0.237305 cumulative IPC: 0.235506 (Simulation time: 19 hr 11 min 22 sec) 
[...]
LLC4 LOAD      ACCESS: 367903  HIT: 240202  MISS: 127701  HIT %: 65.2895  MISS %: 34.7105  AVERAGE MISS PENALTY: 217.329
LLC4 RFO       ACCESS: 63277  HIT: 61537  MISS:  1740  HIT %: 97.2502  MISS %: 2.74981  AVERAGE MISS PENALTY: 205.513
LLC4 PREFETCH  ACCESS: 326688  HIT: 114824  MISS: 211864  HIT %: 35.1479  MISS %: 64.8521  AVERAGE MISS PENALTY: 188.383
LLC4 WRITEBACK ACCESS: 102890  HIT: 98842  MISS:  4048  HIT %: 96.0657  MISS %: 3.9343  AVERAGE MISS PENALTY: 0
LLC4 PREFETCH  REQUESTED:     0  ISSUED:     0  USEFUL: 28922  USELESS: 184220
 USEFUL LOAD PREFETCHES:      28922 PREFETCH ISSUED TO LOWER LEVEL:    1690958  ACCURACY: 1.71039
 TIMELY PREFETCHES:      28922 LATE PREFETCHES: 0 DROPPED PREFETCHES: 0
LLC4 AVERAGE MISS LATENCY: 196.965 cycles

LLC4 Set Associative Eviction Count : 0
LLC4 Priority 0 entries : 12288
LLC4 Inter-Core Interference : 510864
LLC5 TOTAL     ACCESS: 861854  HIT: 516246  MISS: 345608  HIT %: 59.8995  MISS %: 40.1005  AVERAGE MISS PENALTY: 197.158
LLC5 LOAD      ACCESS: 362053  HIT: 236054  MISS: 125999  HIT %: 65.1987  MISS %: 34.8013  AVERAGE MISS PENALTY: 217.082
LLC5 RFO       ACCESS: 64098  HIT: 62377  MISS:  1721  HIT %: 97.315  MISS %: 2.68495  AVERAGE MISS PENALTY: 206.076
LLC5 PREFETCH  ACCESS: 330522  HIT: 116630  MISS: 213892  HIT %: 35.2866  MISS %: 64.7134  AVERAGE MISS PENALTY: 189.033
LLC5 WRITEBACK ACCESS: 105181  HIT: 101185  MISS:  3996  HIT %: 96.2008  MISS %: 3.79917  AVERAGE MISS PENALTY: 0
LLC5 PREFETCH  REQUESTED:     0  ISSUED:     0  USEFUL: 29917  USELESS: 185718
 USEFUL LOAD PREFETCHES:      29917 PREFETCH ISSUED TO LOWER LEVEL:    1710118  ACCURACY: 1.74941
 TIMELY PREFETCHES:      29917 LATE PREFETCHES: 0 DROPPED PREFETCHES: 0
LLC5 AVERAGE MISS LATENCY: 197.158 cycles

LLC5 Set Associative Eviction Count : 0
LLC5 Priority 0 entries : 12288
LLC5 Inter-Core Interference : 510763
LLC6 TOTAL     ACCESS: 870117  HIT: 522861  MISS: 347256  HIT %: 60.0909  MISS %: 39.9091  AVERAGE MISS PENALTY: 197.866
LLC6 LOAD      ACCESS: 367724  HIT: 241218  MISS: 126506  HIT %: 65.5976  MISS %: 34.4024  AVERAGE MISS PENALTY: 217.269
LLC6 RFO       ACCESS: 65107  HIT: 63456  MISS:  1651  HIT %: 97.4642  MISS %: 2.53583  AVERAGE MISS PENALTY: 201.354
LLC6 PREFETCH  ACCESS: 332487  HIT: 117528  MISS: 214959  HIT %: 35.3481  MISS %: 64.6519  AVERAGE MISS PENALTY: 190.23
LLC6 WRITEBACK ACCESS: 104799  HIT: 100659  MISS:  4140  HIT %: 96.0496  MISS %: 3.95042  AVERAGE MISS PENALTY: 0
LLC6 PREFETCH  REQUESTED:     0  ISSUED:     0  USEFUL: 28850  USELESS: 187658
 USEFUL LOAD PREFETCHES:      28850 PREFETCH ISSUED TO LOWER LEVEL:    1716345  ACCURACY: 1.6809
 TIMELY PREFETCHES:      28850 LATE PREFETCHES: 0 DROPPED PREFETCHES: 0
LLC6 AVERAGE MISS LATENCY: 197.866 cycles

LLC6 Set Associative Eviction Count : 0
LLC6 Priority 0 entries : 12288
LLC6 Inter-Core Interference : 514930
LLC7 TOTAL     ACCESS: 874663  HIT: 525132  MISS: 349531  HIT %: 60.0382  MISS %: 39.9618  AVERAGE MISS PENALTY: 197.486
LLC7 LOAD      ACCESS: 366003  HIT: 239742  MISS: 126261  HIT %: 65.5027  MISS %: 34.4973  AVERAGE MISS PENALTY: 217.164
LLC7 RFO       ACCESS: 64508  HIT: 62961  MISS:  1547  HIT %: 97.6018  MISS %: 2.39815  AVERAGE MISS PENALTY: 203.651
LLC7 PREFETCH  ACCESS: 341013  HIT: 123390  MISS: 217623  HIT %: 36.1834  MISS %: 63.8166  AVERAGE MISS PENALTY: 189.746
LLC7 WRITEBACK ACCESS: 103139  HIT: 99039  MISS:  4100  HIT %: 96.0248  MISS %: 3.97522  AVERAGE MISS PENALTY: 0
LLC7 PREFETCH  REQUESTED:     0  ISSUED:     0  USEFUL: 30340  USELESS: 193667
 USEFUL LOAD PREFETCHES:      30340 PREFETCH ISSUED TO LOWER LEVEL:    1742146  ACCURACY: 1.74153
 TIMELY PREFETCHES:      30340 LATE PREFETCHES: 0 DROPPED PREFETCHES: 0
LLC7 AVERAGE MISS LATENCY: 197.486 cycles

LLC7 Set Associative Eviction Count : 0
LLC7 Priority 0 entries : 12288
LLC7 Inter-Core Interference : 521680
ROI Average ROB Stall Cycles:	10.338
ROI Total ROB Stalls Cycles:	686454392
ROI TOTAL ROB counter      :	66401287
ROI Average Load ROB Stall Cycles:	12.4866
ROI Total Load ROB Stalls Cycle  :	233126537
ROI Total Load ROB stalls Counter:	18670183
Major fault: 0 Minor fault: 44852

CPU 7 cumulative IPC: 0.242782 instructions: 200000000 cycles: 823783956
ITLB TOTAL     ACCESS: 31825668  HIT: 31825668  MISS:     0  HIT %:   100  MISS %:     0  AVERAGE MISS PENALTY: 0
ITLB LOAD      ACCESS: 31825668  HIT: 31825668  MISS:     0  HIT %:   100  MISS %:     0  AVERAGE MISS PENALTY: 0
ITLB RFO       ACCESS:     0  HIT:     0  MISS:     0  HIT %:     0  MISS %:     0  AVERAGE MISS PENALTY: 0
ITLB PREFETCH  ACCESS:     0  HIT:     0  MISS:     0  HIT %:     0  MISS %:     0  AVERAGE MISS PENALTY: 0
ITLB WRITEBACK ACCESS:     0  HIT:     0  MISS:     0  HIT %:     0  MISS %:     0  AVERAGE MISS PENALTY: 0
ITLB PREFETCH  REQUESTED:     0  ISSUED:     0  USEFUL:     0  USELESS:     0
 USEFUL LOAD PREFETCHES:          0 PREFETCH ISSUED TO LOWER LEVEL:          0  ACCURACY: -nan
 TIMELY PREFETCHES:          0 LATE PREFETCHES: 0 DROPPED PREFETCHES: 0
ITLB AVERAGE MISS LATENCY: -nan cycles

ITLB Set Associative Eviction Count : 0
ITLB Priority 0 entries : 0
ITLB Inter-Core Interference : 0
DTLB TOTAL     ACCESS: 60452242  HIT: 57753996  MISS: 2698246  HIT %: 95.5366  MISS %: 4.46343  AVERAGE MISS PENALTY: 10.5862
DTLB LOAD      ACCESS: 46155650  HIT: 43847740  MISS: 2307910  HIT %: 94.9997  MISS %: 5.00028  AVERAGE MISS PENALTY: 10.7667
DTLB RFO       ACCESS: 14296592  HIT: 13906256  MISS: 390336  HIT %: 97.2697  MISS %: 2.73027  AVERAGE MISS PENALTY: 9.51875
DTLB PREFETCH  ACCESS:     0  HIT:     0  MISS:     0  HIT %:     0  MISS %:     0  AVERAGE MISS PENALTY: 0
DTLB WRITEBACK ACCESS:     0  HIT:     0  MISS:     0  HIT %:     0  MISS %:     0  AVERAGE MISS PENALTY: 0
DTLB PREFETCH  REQUESTED:     0  ISSUED:     0  USEFUL:     0  USELESS:     0
 USEFUL LOAD PREFETCHES:          0 PREFETCH ISSUED TO LOWER LEVEL:          0  ACCURACY: -nan
 TIMELY PREFETCHES:          0 LATE PREFETCHES: 0 DROPPED PREFETCHES: 0
DTLB AVERAGE MISS LATENCY: 10.5862 cycles

DTLB Set Associative Eviction Count : 0
DTLB Priority 0 entries : 0
DTLB Inter-Core Interference : 0
STLB TOTAL     ACCESS: 2698246  HIT: 2663894  MISS: 34352  HIT %: 98.7269  MISS %: 1.27312  AVERAGE MISS PENALTY: 100
STLB LOAD      ACCESS: 2307910  HIT: 2274068  MISS: 33842  HIT %: 98.5337  MISS %: 1.46635  AVERAGE MISS PENALTY: 100
STLB RFO       ACCESS: 390336  HIT: 389826  MISS:   510  HIT %: 99.8693  MISS %: 0.130657  AVERAGE MISS PENALTY: 100
STLB PREFETCH  ACCESS:     0  HIT:     0  MISS:     0  HIT %:     0  MISS %:     0  AVERAGE MISS PENALTY: 0
STLB WRITEBACK ACCESS:     0  HIT:     0  MISS:     0  HIT %:     0  MISS %:     0  AVERAGE MISS PENALTY: 0
STLB PREFETCH  REQUESTED:     0  ISSUED:     0  USEFUL:     0  USELESS:     0
 USEFUL LOAD PREFETCHES:          0 PREFETCH ISSUED TO LOWER LEVEL:          0  ACCURACY: -nan
 TIMELY PREFETCHES:          0 LATE PREFETCHES: 0 DROPPED PREFETCHES: 0
STLB AVERAGE MISS LATENCY: 100 cycles

STLB Set Associative Eviction Count : 0
STLB Priority 0 entries : 0
STLB Inter-Core Interference : 0
L1D TOTAL     ACCESS: 96834166  HIT: 87666369  MISS: 9167797  HIT %: 90.5325  MISS %: 9.46752  AVERAGE MISS PENALTY: 8.27669e+06
L1D LOAD      ACCESS: 57105792  HIT: 52123289  MISS: 4982503  HIT %: 91.275  MISS %: 8.72504  AVERAGE MISS PENALTY: 1.51032e+07
L1D RFO       ACCESS: 22662515  HIT: 21924875  MISS: 737640  HIT %: 96.7451  MISS %: 3.25489  AVERAGE MISS PENALTY: 849721
L1D PREFETCH  ACCESS: 17065859  HIT: 13618205  MISS: 3447654  HIT %: 79.7979  MISS %: 20.2021  AVERAGE MISS PENALTY: 84.0822
L1D WRITEBACK ACCESS:     0  HIT:     0  MISS:     0  HIT %:     0  MISS %:     0  AVERAGE MISS PENALTY: 0
L1D PREFETCH  REQUESTED: 18999473  ISSUED: 18886090  USEFUL: 1491015  USELESS: 1956466
 USEFUL LOAD PREFETCHES:    1491015 PREFETCH ISSUED TO LOWER LEVEL:    4087706  ACCURACY: 36.4756
 TIMELY PREFETCHES:    1491015 LATE PREFETCHES: 262094 DROPPED PREFETCHES: 113383
L1D AVERAGE MISS LATENCY: 68447.6 cycles

L1D Set Associative Eviction Count : 0
L1D Priority 0 entries : 0
L1D Inter-Core Interference : 0
L1I TOTAL     ACCESS: 42705389  HIT: 42705389  MISS:     0  HIT %:   100  MISS %:     0  AVERAGE MISS PENALTY: 0
L1I LOAD      ACCESS: 42705389  HIT: 42705389  MISS:     0  HIT %:   100  MISS %:     0  AVERAGE MISS PENALTY: 0
L1I RFO       ACCESS:     0  HIT:     0  MISS:     0  HIT %:     0  MISS %:     0  AVERAGE MISS PENALTY: 0
L1I PREFETCH  ACCESS:     0  HIT:     0  MISS:     0  HIT %:     0  MISS %:     0  AVERAGE MISS PENALTY: 0
L1I WRITEBACK ACCESS:     0  HIT:     0  MISS:     0  HIT %:     0  MISS %:     0  AVERAGE MISS PENALTY: 0
L1I PREFETCH  REQUESTED:     0  ISSUED:     0  USEFUL:     0  USELESS:     0
 USEFUL LOAD PREFETCHES:          0 PREFETCH ISSUED TO LOWER LEVEL:          0  ACCURACY: -nan
 TIMELY PREFETCHES:          0 LATE PREFETCHES: 0 DROPPED PREFETCHES: 0
L1I AVERAGE MISS LATENCY: -nan cycles

L1I Set Associative Eviction Count : 0
L1I Priority 0 entries : 0
L1I Inter-Core Interference : 0
L2C TOTAL     ACCESS: 12709071  HIT: 5687188  MISS: 7021883  HIT %: 44.749  MISS %: 55.251  AVERAGE MISS PENALTY: 3.40386e+06
L2C LOAD      ACCESS: 4967755  HIT: 1620697  MISS: 3347058  HIT %: 32.6243  MISS %: 67.3757  AVERAGE MISS PENALTY: 7.1368e+06
L2C RFO       ACCESS: 736627  HIT: 155437  MISS: 581190  HIT %: 21.1012  MISS %: 78.8988  AVERAGE MISS PENALTY: 23743.7
L2C PREFETCH  ACCESS: 5844813  HIT: 2836298  MISS: 3008515  HIT %: 48.5268  MISS %: 51.4732  AVERAGE MISS PENALTY: 141.378
L2C WRITEBACK ACCESS: 1159876  HIT: 1074756  MISS: 85120  HIT %: 92.6613  MISS %: 7.33872  AVERAGE MISS PENALTY: 0
L2C PREFETCH  REQUESTED: 4366642  ISSUED: 4336230  USEFUL: 509454  USELESS: 2499132
 USEFUL LOAD PREFETCHES:     509454 PREFETCH ISSUED TO LOWER LEVEL:    3280721  ACCURACY: 15.5287
 TIMELY PREFETCHES:     509454 LATE PREFETCHES: 104002 DROPPED PREFETCHES: 30412
L2C AVERAGE MISS LATENCY: 115.546 cycles

L2C Set Associative Eviction Count : 0
L2C Priority 0 entries : 0
L2C Inter-Core Interference : 0
LLC0 TOTAL     ACCESS: 988742  HIT: 652661  MISS: 336081  HIT %: 66.0092  MISS %: 33.9908  AVERAGE MISS PENALTY: 200.721
LLC0 LOAD      ACCESS: 439497  HIT: 297983  MISS: 141514  HIT %: 67.8009  MISS %: 32.1991  AVERAGE MISS PENALTY: 218.159
LLC0 RFO       ACCESS: 74414  HIT: 72520  MISS:  1894  HIT %: 97.4548  MISS %: 2.54522  AVERAGE MISS PENALTY: 204.711
LLC0 PREFETCH  ACCESS: 359229  HIT: 169650  MISS: 189579  HIT %: 47.2261  MISS %: 52.7739  AVERAGE MISS PENALTY: 190.939
LLC0 WRITEBACK ACCESS: 115602  HIT: 112508  MISS:  3094  HIT %: 97.3236  MISS %: 2.67642  AVERAGE MISS PENALTY: 0
LLC0 PREFETCH  REQUESTED:     0  ISSUED:     0  USEFUL: 27430  USELESS: 167153
 USEFUL LOAD PREFETCHES:      27430 PREFETCH ISSUED TO LOWER LEVEL:    1538483  ACCURACY: 1.78293
 TIMELY PREFETCHES:      27430 LATE PREFETCHES: 0 DROPPED PREFETCHES: 0
LLC0 AVERAGE MISS LATENCY: 200.721 cycles

LLC0 Set Associative Eviction Count : 0
LLC0 Priority 0 entries : 12288
LLC0 Inter-Core Interference : 492799
LLC1 TOTAL     ACCESS: 953435  HIT: 611959  MISS: 341476  HIT %: 64.1847  MISS %: 35.8153  AVERAGE MISS PENALTY: 200.714
LLC1 LOAD      ACCESS: 405543  HIT: 269297  MISS: 136246  HIT %: 66.4041  MISS %: 33.5959  AVERAGE MISS PENALTY: 220.638
LLC1 RFO       ACCESS: 65166  HIT: 63444  MISS:  1722  HIT %: 97.3575  MISS %: 2.64248  AVERAGE MISS PENALTY: 207.947
LLC1 PREFETCH  ACCESS: 375038  HIT: 174762  MISS: 200276  HIT %: 46.5985  MISS %: 53.4015  AVERAGE MISS PENALTY: 190.336
LLC1 WRITEBACK ACCESS: 107688  HIT: 104456  MISS:  3232  HIT %: 96.9987  MISS %: 3.00126  AVERAGE MISS PENALTY: 0
LLC1 PREFETCH  REQUESTED:     0  ISSUED:     0  USEFUL: 28376  USELESS: 180630
 USEFUL LOAD PREFETCHES:      28376 PREFETCH ISSUED TO LOWER LEVEL:    1626185  ACCURACY: 1.74494
 TIMELY PREFETCHES:      28376 LATE PREFETCHES: 0 DROPPED PREFETCHES: 0
LLC1 AVERAGE MISS LATENCY: 200.714 cycles

LLC1 Set Associative Eviction Count : 0
LLC1 Priority 0 entries : 12288
LLC1 Inter-Core Interference : 510615
LLC2 TOTAL     ACCESS: 955869  HIT: 617142  MISS: 338727  HIT %: 64.5634  MISS %: 35.4366  AVERAGE MISS PENALTY: 203.544
LLC2 LOAD      ACCESS: 401520  HIT: 273589  MISS: 127931  HIT %: 68.1383  MISS %: 31.8617  AVERAGE MISS PENALTY: 223.617
LLC2 RFO       ACCESS: 68755  HIT: 66939  MISS:  1816  HIT %: 97.3587  MISS %: 2.64126  AVERAGE MISS PENALTY: 208.196
LLC2 PREFETCH  ACCESS: 378218  HIT: 172308  MISS: 205910  HIT %: 45.5579  MISS %: 54.4421  AVERAGE MISS PENALTY: 194.066
LLC2 WRITEBACK ACCESS: 107376  HIT: 104306  MISS:  3070  HIT %: 97.1409  MISS %: 2.85911  AVERAGE MISS PENALTY: 0
LLC2 PREFETCH  REQUESTED:     0  ISSUED:     0  USEFUL: 28307  USELESS: 185277
 USEFUL LOAD PREFETCHES:      28307 PREFETCH ISSUED TO LOWER LEVEL:    1671358  ACCURACY: 1.69365
 TIMELY PREFETCHES:      28307 LATE PREFETCHES: 0 DROPPED PREFETCHES: 0
LLC2 AVERAGE MISS LATENCY: 203.544 cycles

LLC2 Set Associative Eviction Count : 0
LLC2 Priority 0 entries : 12288
LLC2 Inter-Core Interference : 504396
LLC3 TOTAL     ACCESS: 960499  HIT: 619856  MISS: 340643  HIT %: 64.5348  MISS %: 35.4652  AVERAGE MISS PENALTY: 201.858
LLC3 LOAD      ACCESS: 406736  HIT: 277880  MISS: 128856  HIT %: 68.3195  MISS %: 31.6805  AVERAGE MISS PENALTY: 222.168
LLC3 RFO       ACCESS: 69549  HIT: 67738  MISS:  1811  HIT %: 97.3961  MISS %: 2.60392  AVERAGE MISS PENALTY: 203.591
LLC3 PREFETCH  ACCESS: 371022  HIT: 164311  MISS: 206711  HIT %: 44.2861  MISS %: 55.7139  AVERAGE MISS PENALTY: 192.37
LLC3 WRITEBACK ACCESS: 113192  HIT: 109927  MISS:  3265  HIT %: 97.1155  MISS %: 2.88448  AVERAGE MISS PENALTY: 0
LLC3 PREFETCH  REQUESTED:     0  ISSUED:     0  USEFUL: 28001  USELESS: 189005
 USEFUL LOAD PREFETCHES:      28001 PREFETCH ISSUED TO LOWER LEVEL:    1680803  ACCURACY: 1.66593
 TIMELY PREFETCHES:      28001 LATE PREFETCHES: 0 DROPPED PREFETCHES: 0
LLC3 AVERAGE MISS LATENCY: 201.858 cycles

LLC3 Set Associative Eviction Count : 0
LLC3 Priority 0 entries : 12288
LLC3 Inter-Core Interference : 512785
LLC4 TOTAL     ACCESS: 985168  HIT: 644731  MISS: 340437  HIT %: 65.4438  MISS %: 34.5562  AVERAGE MISS PENALTY: 201.248
LLC4 LOAD      ACCESS: 415288  HIT: 288033  MISS: 127255  HIT %: 69.3574  MISS %: 30.6426  AVERAGE MISS PENALTY: 224.259
LLC4 RFO       ACCESS: 74099  HIT: 72248  MISS:  1851  HIT %: 97.502  MISS %: 2.49801  AVERAGE MISS PENALTY: 208.155
LLC4 PREFETCH  ACCESS: 378568  HIT: 170552  MISS: 208016  HIT %: 45.0519  MISS %: 54.9481  AVERAGE MISS PENALTY: 190.317
LLC4 WRITEBACK ACCESS: 117213  HIT: 113898  MISS:  3315  HIT %: 97.1718  MISS %: 2.82818  AVERAGE MISS PENALTY: 0
LLC4 PREFETCH  REQUESTED:     0  ISSUED:     0  USEFUL: 28922  USELESS: 184220
 USEFUL LOAD PREFETCHES:      28922 PREFETCH ISSUED TO LOWER LEVEL:    1690958  ACCURACY: 1.71039
 TIMELY PREFETCHES:      28922 LATE PREFETCHES: 0 DROPPED PREFETCHES: 0
LLC4 AVERAGE MISS LATENCY: 201.248 cycles

LLC4 Set Associative Eviction Count : 0
LLC4 Priority 0 entries : 12288
LLC4 Inter-Core Interference : 510864
LLC5 TOTAL     ACCESS: 991917  HIT: 651559  MISS: 340358  HIT %: 65.6868  MISS %: 34.3132  AVERAGE MISS PENALTY: 201.163
LLC5 LOAD      ACCESS: 410177  HIT: 285665  MISS: 124512  HIT %: 69.6443  MISS %: 30.3557  AVERAGE MISS PENALTY: 223.588
LLC5 RFO       ACCESS: 75274  HIT: 73459  MISS:  1815  HIT %: 97.5888  MISS %: 2.41119  AVERAGE MISS PENALTY: 210.889
LLC5 PREFETCH  ACCESS: 386307  HIT: 175575  MISS: 210732  HIT %: 45.4496  MISS %: 54.5504  AVERAGE MISS PENALTY: 190.978
LLC5 WRITEBACK ACCESS: 120159  HIT: 116860  MISS:  3299  HIT %: 97.2545  MISS %: 2.74553  AVERAGE MISS PENALTY: 0
LLC5 PREFETCH  REQUESTED:     0  ISSUED:     0  USEFUL: 29917  USELESS: 185718
 USEFUL LOAD PREFETCHES:      29917 PREFETCH ISSUED TO LOWER LEVEL:    1710118  ACCURACY: 1.74941
 TIMELY PREFETCHES:      29917 LATE PREFETCHES: 0 DROPPED PREFETCHES: 0
LLC5 AVERAGE MISS LATENCY: 201.163 cycles

LLC5 Set Associative Eviction Count : 0
LLC5 Priority 0 entries : 12288
LLC5 Inter-Core Interference : 510763
LLC6 TOTAL     ACCESS: 1007464  HIT: 666368  MISS: 341096  HIT %: 66.1431  MISS %: 33.8569  AVERAGE MISS PENALTY: 204.115
LLC6 LOAD      ACCESS: 422103  HIT: 297501  MISS: 124602  HIT %: 70.4807  MISS %: 29.5193  AVERAGE MISS PENALTY: 224.175
LLC6 RFO       ACCESS: 77305  HIT: 75432  MISS:  1873  HIT %: 97.5771  MISS %: 2.42287  AVERAGE MISS PENALTY: 203.468
LLC6 PREFETCH  ACCESS: 388009  HIT: 176644  MISS: 211365  HIT %: 45.5257  MISS %: 54.4743  AVERAGE MISS PENALTY: 195.44
LLC6 WRITEBACK ACCESS: 120047  HIT: 116791  MISS:  3256  HIT %: 97.2877  MISS %: 2.71227  AVERAGE MISS PENALTY: 0
LLC6 PREFETCH  REQUESTED:     0  ISSUED:     0  USEFUL: 28850  USELESS: 187658
 USEFUL LOAD PREFETCHES:      28850 PREFETCH ISSUED TO LOWER LEVEL:    1716345  ACCURACY: 1.6809
 TIMELY PREFETCHES:      28850 LATE PREFETCHES: 0 DROPPED PREFETCHES: 0
LLC6 AVERAGE MISS LATENCY: 204.115 cycles

LLC6 Set Associative Eviction Count : 0
LLC6 Priority 0 entries : 12288
LLC6 Inter-Core Interference : 514930
LLC7 TOTAL     ACCESS: 1013953  HIT: 668757  MISS: 345196  HIT %: 65.9554  MISS %: 34.0446  AVERAGE MISS PENALTY: 204.257
LLC7 LOAD      ACCESS: 418393  HIT: 292884  MISS: 125509  HIT %: 70.0021  MISS %: 29.9979  AVERAGE MISS PENALTY: 224.045
LLC7 RFO       ACCESS: 76598  HIT: 74841  MISS:  1757  HIT %: 97.7062  MISS %: 2.29379  AVERAGE MISS PENALTY: 205.667
LLC7 PREFETCH  ACCESS: 399874  HIT: 185121  MISS: 214753  HIT %: 46.2948  MISS %: 53.7052  AVERAGE MISS PENALTY: 195.703
LLC7 WRITEBACK ACCESS: 119088  HIT: 115911  MISS:  3177  HIT %: 97.3322  MISS %: 2.66778  AVERAGE MISS PENALTY: 0
LLC7 PREFETCH  REQUESTED:     0  ISSUED:     0  USEFUL: 30340  USELESS: 193667
 USEFUL LOAD PREFETCHES:      30340 PREFETCH ISSUED TO LOWER LEVEL:    1742146  ACCURACY: 1.74153
 TIMELY PREFETCHES:      30340 LATE PREFETCHES: 0 DROPPED PREFETCHES: 0
LLC7 AVERAGE MISS LATENCY: 204.257 cycles

LLC7 Set Associative Eviction Count : 0
LLC7 Priority 0 entries : 12288
LLC7 Inter-Core Interference : 521680
ROI Average ROB Stall Cycles:	10.53
ROI Total ROB Stalls Cycles:	695804428
ROI TOTAL ROB counter      :	66078334
ROI Average Load ROB Stall Cycles:	12.8838
ROI Total Load ROB Stalls Cycle  :	239080718
ROI Total Load ROB stalls Counter:	18556655
Major fault: 0 Minor fault: 44640








Interconnect Stats 
LINK 0 BW : 0LINK 1 BW : 0LINK 2 BW : 0LINK 3 BW : 0LINK 4 BW : 0LINK 5 BW : 0LINK 6 BW : 0LINK 7 BW : 0
DRAM Statistics
 CHANNEL 0
 RQ ROW_BUFFER_HIT: 2746609  ROW_BUFFER_MISS: 8155322
 DBUS_CONGESTED: 3639681
 WQ ROW_BUFFER_HIT: 61100  ROW_BUFFER_MISS: 213591  FULL:     0

 CHANNEL 1
 RQ ROW_BUFFER_HIT: 2728321  ROW_BUFFER_MISS: 8252562
 DBUS_CONGESTED: 3639681
 WQ ROW_BUFFER_HIT: 62476  ROW_BUFFER_MISS: 217519  FULL:     0

 AVG_CONGESTED_CYCLE: 4
DRAM PAGES: 2097152
Allocated PAGES: 357544
L2C destructor called
L1D destructor called
L1I destructor called
STLB destructor called
DTLB destructor called
ITLB destructor called
L2C destructor called
L1D destructor called
L1I destructor called
STLB destructor called
DTLB destructor called
ITLB destructor called
L2C destructor called
L1D destructor called
L1I destructor called
STLB destructor called
DTLB destructor called
ITLB destructor called
L2C destructor called
L1D destructor called
L1I destructor called
STLB destructor called
DTLB destructor called
ITLB destructor called
L2C destructor called
L1D destructor called
L1I destructor called
STLB destructor called
DTLB destructor called
ITLB destructor called
L2C destructor called
L1D destructor called
L1I destructor called
STLB destructor called
DTLB destructor called
ITLB destructor called
L2C destructor called
L1D destructor called
L1I destructor called
STLB destructor called
DTLB destructor called
ITLB destructor called
L2C destructor called
L1D destructor called
L1I destructor called
STLB destructor called
DTLB destructor called
ITLB destructor called
