
*** ChampSim Multicore Out-of-Order Simulator ***

Warmup Instructions: 200000000
Simulation Instructions: 200000000
Number of CPUs: 8
threads:1

L1I Configuration:
L1I_SET:64
L1I_WAY:8
L1I_RQ_SIZE:64
L1I_WQ_SIZE:64
L1I_PQ_SIZE:8
L1I_MSHR_SIZE:8

L1D Configuration:
L1D_SET:64
L1D_WAY:12
L1D_RQ_SIZE:64
L1D_WQ_SIZE:64
L1D_PQ_SIZE:8
L1D_MSHR_SIZE:16

L2C Configuration:
L2C_SET:1024
L2C_WAY:8
L2C_RQ_SIZE:32
L2C_WQ_SIZE:32
L2C_PQ_SIZE:16
L2C_MSHR_SIZE:32

LLC Configuration:
LLC_SET:2048
LLC_WAY:12
LLC SLICES:8
LLC_RQ_SIZE:64
LLC_WQ_SIZE:64
LLC_PQ_SIZE:32
LLC_MSHR_SIZE:64

Interconnect OFF
Attacker deprioritize is: OFF
Off-chip DRAM Size: 8192 MB Channels: 2 Width: 64-bit Data Rate: 3200 MT/s
PAGE SIZE in KB: 4.000000 
PAGE SIZE in MB: 0.003906 
PAGE offset in bits: 12 
CEASER-S_LLC:0
MIRAGE : 1
CEASER_LATENCY:3
REMAP : OFF
Partitions : 1
Multi-Step : OFF
BFS : OFF

CPU 0 runs /home/anubhav/spec_2017/605.mcf_s-484B.champsimtrace.xz
CPU 1 runs /home/anubhav/spec_2017/605.mcf_s-484B.champsimtrace.xz
CPU 2 runs /home/anubhav/spec_2017/605.mcf_s-484B.champsimtrace.xz
CPU 3 runs /home/anubhav/spec_2017/605.mcf_s-484B.champsimtrace.xz
CPU 4 runs /home/anubhav/spec_2017/605.mcf_s-484B.champsimtrace.xz
CPU 5 runs /home/anubhav/spec_2017/605.mcf_s-484B.champsimtrace.xz
CPU 6 runs /home/anubhav/spec_2017/605.mcf_s-484B.champsimtrace.xz
CPU 7 runs /home/anubhav/spec_2017/605.mcf_s-484B.champsimtrace.xz
CPU 0 Bimodal branch predictor
Initialize Hawkeye state
Initialize Hawkeye state
Initialize Hawkeye state
Initialize Hawkeye state
Initialize Hawkeye state
Initialize Hawkeye state
Initialize Hawkeye state
Initialize Hawkeye state
CPU 1 Bimodal branch predictor
Initialize Hawkeye state
Initialize Hawkeye state
Initialize Hawkeye state
Initialize Hawkeye state
Initialize Hawkeye state
Initialize Hawkeye state
Initialize Hawkeye state
Initialize Hawkeye state
CPU 2 Bimodal branch predictor
Initialize Hawkeye state
Initialize Hawkeye state
Initialize Hawkeye state
Initialize Hawkeye state
Initialize Hawkeye state
Initialize Hawkeye state
Initialize Hawkeye state
Initialize Hawkeye state
CPU 3 Bimodal branch predictor
Initialize Hawkeye state
Initialize Hawkeye state
Initialize Hawkeye state
Initialize Hawkeye state
Initialize Hawkeye state
Initialize Hawkeye state
Initialize Hawkeye state
Initialize Hawkeye state
CPU 4 Bimodal branch predictor
Initialize Hawkeye state
Initialize Hawkeye state
Initialize Hawkeye state
Initialize Hawkeye state
Initialize Hawkeye state
Initialize Hawkeye state
Initialize Hawkeye state
Initialize Hawkeye state
CPU 5 Bimodal branch predictor
Initialize Hawkeye state
Initialize Hawkeye state
Initialize Hawkeye state
Initialize Hawkeye state
Initialize Hawkeye state
Initialize Hawkeye state
Initialize Hawkeye state
Initialize Hawkeye state
CPU 6 Bimodal branch predictor
Initialize Hawkeye state
Initialize Hawkeye state
Initialize Hawkeye state
Initialize Hawkeye state
Initialize Hawkeye state
Initialize Hawkeye state
Initialize Hawkeye state
Initialize Hawkeye state
CPU 7 Bimodal branch predictor
Initialize Hawkeye state
Initialize Hawkeye state
Initialize Hawkeye state
Initialize Hawkeye state
Initialize Hawkeye state
Initialize Hawkeye state
Initialize Hawkeye state
Initialize Hawkeye state
Heartbeat CPU 0 instructions: 10000001 cycles: 5585804 heartbeat IPC: 1.79025 cumulative IPC: 1.79025 (Simulation time: 1 hr 8 min 7 sec) 
 Total Blocks : 196608 Invalid Blocks : 15626 Valid Blocks : 180982
 Total Tags : 491520 Threshold : 12288 Invalid Tags : 212237 Pr0 Tags : 98301 Pr1 Tags : 180982 num_pr0 : 12288
 SAE Count : 0
 Inter-Core Inteference in Data Store : 277414
Heartbeat CPU 2 instructions: 10000001 cycles: 5586069 heartbeat IPC: 1.79017 cumulative IPC: 1.79017 (Simulation time: 1 hr 8 min 7 sec) 
 Total Blocks : 196608 Invalid Blocks : 15625 Valid Blocks : 180983
 Total Tags : 491520 Threshold : 12288 Invalid Tags : 212236 Pr0 Tags : 98301 Pr1 Tags : 180983 num_pr0 : 12288
 SAE Count : 0
 Inter-Core Inteference in Data Store : 277433
Heartbeat CPU 1 instructions: 10000001 cycles: 5586471 heartbeat IPC: 1.79004 cumulative IPC: 1.79004 (Simulation time: 1 hr 8 min 8 sec) 
 Total Blocks : 196608 Invalid Blocks : 15622 Valid Blocks : 180986
 Total Tags : 491520 Threshold : 12288 Invalid Tags : 212233 Pr0 Tags : 98301 Pr1 Tags : 180986 num_pr0 : 12288
 SAE Count : 0
 Inter-Core Inteference in Data Store : 277465
Heartbeat CPU 3 instructions: 10000001 cycles: 5586533 heartbeat IPC: 1.79002 cumulative IPC: 1.79002 (Simulation time: 1 hr 8 min 8 sec) 
 Total Blocks : 196608 Invalid Blocks : 15622 Valid Blocks : 180986
 Total Tags : 491520 Threshold : 12288 Invalid Tags : 212231 Pr0 Tags : 98303 Pr1 Tags : 180986 num_pr0 : 12288
 SAE Count : 0
 Inter-Core Inteference in Data Store : 277471
Heartbeat CPU 4 instructions: 10000001 cycles: 5586606 heartbeat IPC: 1.79 cumulative IPC: 1.79 (Simulation time: 1 hr 8 min 8 sec) 
 Total Blocks : 196608 Invalid Blocks : 15621 Valid Blocks : 180987
 Total Tags : 491520 Threshold : 12288 Invalid Tags : 212232 Pr0 Tags : 98301 Pr1 Tags : 180987 num_pr0 : 12288
 SAE Count : 0
 Inter-Core Inteference in Data Store : 277476
Heartbeat CPU 6 instructions: 10000001 cycles: 5586719 heartbeat IPC: 1.78996 cumulative IPC: 1.78996 (Simulation time: 1 hr 8 min 8 sec) 
 Total Blocks : 196608 Invalid Blocks : 15619 Valid Blocks : 180989
 Total Tags : 491520 Threshold : 12288 Invalid Tags : 212231 Pr0 Tags : 98300 Pr1 Tags : 180989 num_pr0 : 12286
 SAE Count : 0
 Inter-Core Inteference in Data Store : 277478
Heartbeat CPU 7 instructions: 10000001 cycles: 5586840 heartbeat IPC: 1.78992 cumulative IPC: 1.78992 (Simulation time: 1 hr 8 min 8 sec) 
 Total Blocks : 196608 Invalid Blocks : 15619 Valid Blocks : 180989
 Total Tags : 491520 Threshold : 12288 Invalid Tags : 212227 Pr0 Tags : 98304 Pr1 Tags : 180989 num_pr0 : 12288
 SAE Count : 0
 Inter-Core Inteference in Data Store : 277487
Heartbeat CPU 5 instructions: 10000001 cycles: 5588117 heartbeat IPC: 1.78951 cumulative IPC: 1.78951 (Simulation time: 1 hr 8 min 10 sec) 
 Total Blocks : 196608 Invalid Blocks : 15615 Valid Blocks : 180993
 Total Tags : 491520 Threshold : 12288 Invalid Tags : 212224 Pr0 Tags : 98303 Pr1 Tags : 180993 num_pr0 : 12288
 SAE Count : 0
 Inter-Core Inteference in Data Store : 277546
Heartbeat CPU 0 instructions: 20000000 cycles: 11158780 heartbeat IPC: 1.79437 cumulative IPC: 1.79231 (Simulation time: 2 hr 38 min 26 sec) 
 Total Blocks : 196608 Invalid Blocks : 884 Valid Blocks : 195724
 Total Tags : 491520 Threshold : 12288 Invalid Tags : 197492 Pr0 Tags : 98304 Pr1 Tags : 195724 num_pr0 : 12288
 SAE Count : 0
 Inter-Core Inteference in Data Store : 765772
Heartbeat CPU 1 instructions: 20000000 cycles: 11158927 heartbeat IPC: 1.79454 cumulative IPC: 1.79229 (Simulation time: 2 hr 38 min 26 sec) 
 Total Blocks : 196608 Invalid Blocks : 884 Valid Blocks : 195724
 Total Tags : 491520 Threshold : 12288 Invalid Tags : 197494 Pr0 Tags : 98302 Pr1 Tags : 195724 num_pr0 : 12288
 SAE Count : 0
 Inter-Core Inteference in Data Store : 765782
Heartbeat CPU 2 instructions: 20000000 cycles: 11159275 heartbeat IPC: 1.7943 cumulative IPC: 1.79223 (Simulation time: 2 hr 38 min 26 sec) 
 Total Blocks : 196608 Invalid Blocks : 884 Valid Blocks : 195724
 Total Tags : 491520 Threshold : 12288 Invalid Tags : 197493 Pr0 Tags : 98303 Pr1 Tags : 195724 num_pr0 : 12288
 SAE Count : 0
 Inter-Core Inteference in Data Store : 765806
Heartbeat CPU 3 instructions: 20000000 cycles: 11159503 heartbeat IPC: 1.79438 cumulative IPC: 1.79219 (Simulation time: 2 hr 38 min 26 sec) 
 Total Blocks : 196608 Invalid Blocks : 884 Valid Blocks : 195724
 Total Tags : 491520 Threshold : 12288 Invalid Tags : 197494 Pr0 Tags : 98302 Pr1 Tags : 195724 num_pr0 : 12288
 SAE Count : 0
 Inter-Core Inteference in Data Store : 765826
Heartbeat CPU 6 instructions: 20000000 cycles: 11159513 heartbeat IPC: 1.79443 cumulative IPC: 1.79219 (Simulation time: 2 hr 38 min 26 sec) 
 Total Blocks : 196608 Invalid Blocks : 884 Valid Blocks : 195724
 Total Tags : 491520 Threshold : 12288 Invalid Tags : 197492 Pr0 Tags : 98304 Pr1 Tags : 195724 num_pr0 : 12288
 SAE Count : 0
 Inter-Core Inteference in Data Store : 765827
Heartbeat CPU 4 instructions: 20000000 cycles: 11159847 heartbeat IPC: 1.79429 cumulative IPC: 1.79214 (Simulation time: 2 hr 38 min 27 sec) 
 Total Blocks : 196608 Invalid Blocks : 883 Valid Blocks : 195725
 Total Tags : 491520 Threshold : 12288 Invalid Tags : 197494 Pr0 Tags : 98301 Pr1 Tags : 195725 num_pr0 : 12288
 SAE Count : 0
 Inter-Core Inteference in Data Store : 765872
Heartbeat CPU 7 instructions: 20000000 cycles: 11160294 heartbeat IPC: 1.79422 cumulative IPC: 1.79207 (Simulation time: 2 hr 38 min 28 sec) 
 Total Blocks : 196608 Invalid Blocks : 883 Valid Blocks : 195725
 Total Tags : 491520 Threshold : 12288 Invalid Tags : 197493 Pr0 Tags : 98302 Pr1 Tags : 195725 num_pr0 : 12288
 SAE Count : 0
 Inter-Core Inteference in Data Store : 765911
Heartbeat CPU 5 instructions: 20000000 cycles: 11161625 heartbeat IPC: 1.7942 cumulative IPC: 1.79185 (Simulation time: 2 hr 38 min 32 sec) 
 Total Blocks : 196608 Invalid Blocks : 882 Valid Blocks : 195726
 Total Tags : 491520 Threshold : 12288 Invalid Tags : 197493 Pr0 Tags : 98301 Pr1 Tags : 195726 num_pr0 : 12287
 SAE Count : 0
 Inter-Core Inteference in Data Store : 766090
Heartbeat CPU 1 instructions: 30000002 cycles: 16656346 heartbeat IPC: 1.81904 cumulative IPC: 1.80112 (Simulation time: 3 hr 38 min 29 sec) 
 Total Blocks : 196608 Invalid Blocks : 122 Valid Blocks : 196486
 Total Tags : 491520 Threshold : 12288 Invalid Tags : 196733 Pr0 Tags : 98301 Pr1 Tags : 196486 num_pr0 : 12287
 SAE Count : 0
 Inter-Core Inteference in Data Store : 1091606
Heartbeat CPU 2 instructions: 30000002 cycles: 16656352 heartbeat IPC: 1.81915 cumulative IPC: 1.80111 (Simulation time: 3 hr 38 min 29 sec) 
 Total Blocks : 196608 Invalid Blocks : 122 Valid Blocks : 196486
 Total Tags : 491520 Threshold : 12288 Invalid Tags : 196733 Pr0 Tags : 98301 Pr1 Tags : 196486 num_pr0 : 12287
 SAE Count : 0
 Inter-Core Inteference in Data Store : 1091606
Heartbeat CPU 6 instructions: 30000002 cycles: 16656850 heartbeat IPC: 1.81906 cumulative IPC: 1.80106 (Simulation time: 3 hr 38 min 29 sec) 
 Total Blocks : 196608 Invalid Blocks : 122 Valid Blocks : 196486
 Total Tags : 491520 Threshold : 12288 Invalid Tags : 196733 Pr0 Tags : 98301 Pr1 Tags : 196486 num_pr0 : 12288
 SAE Count : 0
 Inter-Core Inteference in Data Store : 1091630
Heartbeat CPU 0 instructions: 30000002 cycles: 16657126 heartbeat IPC: 1.81873 cumulative IPC: 1.80103 (Simulation time: 3 hr 38 min 30 sec) 
 Total Blocks : 196608 Invalid Blocks : 122 Valid Blocks : 196486
 Total Tags : 491520 Threshold : 12288 Invalid Tags : 196734 Pr0 Tags : 98300 Pr1 Tags : 196486 num_pr0 : 12288
 SAE Count : 0
 Inter-Core Inteference in Data Store : 1091637
Heartbeat CPU 4 instructions: 30000002 cycles: 16657291 heartbeat IPC: 1.81903 cumulative IPC: 1.80101 (Simulation time: 3 hr 38 min 30 sec) 
 Total Blocks : 196608 Invalid Blocks : 122 Valid Blocks : 196486
 Total Tags : 491520 Threshold : 12288 Invalid Tags : 196733 Pr0 Tags : 98301 Pr1 Tags : 196486 num_pr0 : 12288
 SAE Count : 0
 Inter-Core Inteference in Data Store : 1091644
Heartbeat CPU 7 instructions: 30000002 cycles: 16657694 heartbeat IPC: 1.81904 cumulative IPC: 1.80097 (Simulation time: 3 hr 38 min 30 sec) 
 Total Blocks : 196608 Invalid Blocks : 122 Valid Blocks : 196486
 Total Tags : 491520 Threshold : 12288 Invalid Tags : 196734 Pr0 Tags : 98300 Pr1 Tags : 196486 num_pr0 : 12287
 SAE Count : 0
 Inter-Core Inteference in Data Store : 1091658
Heartbeat CPU 3 instructions: 30000002 cycles: 16658002 heartbeat IPC: 1.81868 cumulative IPC: 1.80094 (Simulation time: 3 hr 38 min 30 sec) 
 Total Blocks : 196608 Invalid Blocks : 122 Valid Blocks : 196486
 Total Tags : 491520 Threshold : 12288 Invalid Tags : 196732 Pr0 Tags : 98302 Pr1 Tags : 196486 num_pr0 : 12288
 SAE Count : 0
 Inter-Core Inteference in Data Store : 1091672
Heartbeat CPU 5 instructions: 30000002 cycles: 16659137 heartbeat IPC: 1.81901 cumulative IPC: 1.80081 (Simulation time: 3 hr 38 min 31 sec) 
 Total Blocks : 196608 Invalid Blocks : 122 Valid Blocks : 196486
 Total Tags : 491520 Threshold : 12288 Invalid Tags : 196732 Pr0 Tags : 98302 Pr1 Tags : 196486 num_pr0 : 12287
 SAE Count : 0
 Inter-Core Inteference in Data Store : 1091718
Heartbeat CPU 0 instructions: 40000000 cycles: 22224138 heartbeat IPC: 1.7963 cumulative IPC: 1.79984 (Simulation time: 5 hr 10 min 20 sec) 
 Total Blocks : 196608 Invalid Blocks : 16 Valid Blocks : 196592
 Total Tags : 491520 Threshold : 12288 Invalid Tags : 196625 Pr0 Tags : 98303 Pr1 Tags : 196592 num_pr0 : 12287
 SAE Count : 0
 Inter-Core Inteference in Data Store : 1511827
Heartbeat CPU 2 instructions: 40000000 cycles: 22224346 heartbeat IPC: 1.79598 cumulative IPC: 1.79983 (Simulation time: 5 hr 10 min 20 sec) 
 Total Blocks : 196608 Invalid Blocks : 16 Valid Blocks : 196592
 Total Tags : 491520 Threshold : 12288 Invalid Tags : 196625 Pr0 Tags : 98303 Pr1 Tags : 196592 num_pr0 : 12288
 SAE Count : 0
 Inter-Core Inteference in Data Store : 1511840
Heartbeat CPU 1 instructions: 40000000 cycles: 22224609 heartbeat IPC: 1.79589 cumulative IPC: 1.79981 (Simulation time: 5 hr 10 min 20 sec) 
 Total Blocks : 196608 Invalid Blocks : 16 Valid Blocks : 196592
 Total Tags : 491520 Threshold : 12288 Invalid Tags : 196628 Pr0 Tags : 98300 Pr1 Tags : 196592 num_pr0 : 12288
 SAE Count : 0
 Inter-Core Inteference in Data Store : 1511862
Heartbeat CPU 6 instructions: 40000000 cycles: 22224886 heartbeat IPC: 1.79597 cumulative IPC: 1.79978 (Simulation time: 5 hr 10 min 21 sec) 
 Total Blocks : 196608 Invalid Blocks : 16 Valid Blocks : 196592
 Total Tags : 491520 Threshold : 12288 Invalid Tags : 196627 Pr0 Tags : 98301 Pr1 Tags : 196592 num_pr0 : 12288
 SAE Count : 0
 Inter-Core Inteference in Data Store : 1511875
Heartbeat CPU 4 instructions: 40000000 cycles: 22225699 heartbeat IPC: 1.79585 cumulative IPC: 1.79972 (Simulation time: 5 hr 10 min 21 sec) 
 Total Blocks : 196608 Invalid Blocks : 16 Valid Blocks : 196592
 Total Tags : 491520 Threshold : 12288 Invalid Tags : 196626 Pr0 Tags : 98302 Pr1 Tags : 196592 num_pr0 : 12288
 SAE Count : 0
 Inter-Core Inteference in Data Store : 1511922
Heartbeat CPU 3 instructions: 40000000 cycles: 22226236 heartbeat IPC: 1.7959 cumulative IPC: 1.79967 (Simulation time: 5 hr 10 min 21 sec) 
 Total Blocks : 196608 Invalid Blocks : 16 Valid Blocks : 196592
 Total Tags : 491520 Threshold : 12288 Invalid Tags : 196627 Pr0 Tags : 98301 Pr1 Tags : 196592 num_pr0 : 12287
 SAE Count : 0
 Inter-Core Inteference in Data Store : 1511949
Heartbeat CPU 7 instructions: 40000000 cycles: 22226464 heartbeat IPC: 1.79573 cumulative IPC: 1.79966 (Simulation time: 5 hr 10 min 22 sec) 
 Total Blocks : 196608 Invalid Blocks : 16 Valid Blocks : 196592
 Total Tags : 491520 Threshold : 12288 Invalid Tags : 196626 Pr0 Tags : 98302 Pr1 Tags : 196592 num_pr0 : 12288
 SAE Count : 0
 Inter-Core Inteference in Data Store : 1511967
Heartbeat CPU 5 instructions: 40000000 cycles: 22227160 heartbeat IPC: 1.79597 cumulative IPC: 1.7996 (Simulation time: 5 hr 10 min 22 sec) 
 Total Blocks : 196608 Invalid Blocks : 16 Valid Blocks : 196592
 Total Tags : 491520 Threshold : 12288 Invalid Tags : 196625 Pr0 Tags : 98303 Pr1 Tags : 196592 num_pr0 : 12288
 SAE Count : 0
 Inter-Core Inteference in Data Store : 1512002
Heartbeat CPU 0 instructions: 50000000 cycles: 27763822 heartbeat IPC: 1.80516 cumulative IPC: 1.8009 (Simulation time: 6 hr 53 min 37 sec) 
 Total Blocks : 196608 Invalid Blocks : 1 Valid Blocks : 196607
 Total Tags : 491520 Threshold : 12288 Invalid Tags : 196610 Pr0 Tags : 98303 Pr1 Tags : 196607 num_pr0 : 12288
 SAE Count : 0
 Inter-Core Inteference in Data Store : 1960737
Heartbeat CPU 1 instructions: 50000000 cycles: 27763862 heartbeat IPC: 1.8053 cumulative IPC: 1.8009 (Simulation time: 6 hr 53 min 37 sec) 
 Total Blocks : 196608 Invalid Blocks : 1 Valid Blocks : 196607
 Total Tags : 491520 Threshold : 12288 Invalid Tags : 196611 Pr0 Tags : 98302 Pr1 Tags : 196607 num_pr0 : 12288
 SAE Count : 0
 Inter-Core Inteference in Data Store : 1960739
Heartbeat CPU 2 instructions: 50000000 cycles: 27763976 heartbeat IPC: 1.80517 cumulative IPC: 1.80089 (Simulation time: 6 hr 53 min 37 sec) 
 Total Blocks : 196608 Invalid Blocks : 1 Valid Blocks : 196607
 Total Tags : 491520 Threshold : 12288 Invalid Tags : 196611 Pr0 Tags : 98302 Pr1 Tags : 196607 num_pr0 : 12288
 SAE Count : 0
 Inter-Core Inteference in Data Store : 1960753
Heartbeat CPU 6 instructions: 50000000 cycles: 27764728 heartbeat IPC: 1.80511 cumulative IPC: 1.80085 (Simulation time: 6 hr 53 min 38 sec) 
 Total Blocks : 196608 Invalid Blocks : 1 Valid Blocks : 196607
 Total Tags : 491520 Threshold : 12288 Invalid Tags : 196611 Pr0 Tags : 98302 Pr1 Tags : 196607 num_pr0 : 12287
 SAE Count : 0
 Inter-Core Inteference in Data Store : 1960800
Heartbeat CPU 3 instructions: 50000000 cycles: 27765501 heartbeat IPC: 1.80529 cumulative IPC: 1.8008 (Simulation time: 6 hr 53 min 38 sec) 
 Total Blocks : 196608 Invalid Blocks : 1 Valid Blocks : 196607
 Total Tags : 491520 Threshold : 12288 Invalid Tags : 196611 Pr0 Tags : 98302 Pr1 Tags : 196607 num_pr0 : 12288
 SAE Count : 0
 Inter-Core Inteference in Data Store : 1960834
Heartbeat CPU 4 instructions: 50000000 cycles: 27765531 heartbeat IPC: 1.80511 cumulative IPC: 1.80079 (Simulation time: 6 hr 53 min 38 sec) 
 Total Blocks : 196608 Invalid Blocks : 1 Valid Blocks : 196607
 Total Tags : 491520 Threshold : 12288 Invalid Tags : 196612 Pr0 Tags : 98301 Pr1 Tags : 196607 num_pr0 : 12287
 SAE Count : 0
 Inter-Core Inteference in Data Store : 1960836
Heartbeat CPU 7 instructions: 50000000 cycles: 27766568 heartbeat IPC: 1.80502 cumulative IPC: 1.80073 (Simulation time: 6 hr 53 min 39 sec) 
 Total Blocks : 196608 Invalid Blocks : 1 Valid Blocks : 196607
 Total Tags : 491520 Threshold : 12288 Invalid Tags : 196612 Pr0 Tags : 98301 Pr1 Tags : 196607 num_pr0 : 12288
 SAE Count : 0
 Inter-Core Inteference in Data Store : 1960895
Heartbeat CPU 5 instructions: 50000000 cycles: 27767173 heartbeat IPC: 1.80505 cumulative IPC: 1.80069 (Simulation time: 6 hr 53 min 40 sec) 
 Total Blocks : 196608 Invalid Blocks : 1 Valid Blocks : 196607
 Total Tags : 491520 Threshold : 12288 Invalid Tags : 196610 Pr0 Tags : 98303 Pr1 Tags : 196607 num_pr0 : 12288
 SAE Count : 0
 Inter-Core Inteference in Data Store : 1960925
Heartbeat CPU 1 instructions: 60000000 cycles: 33314208 heartbeat IPC: 1.80169 cumulative IPC: 1.80103 (Simulation time: 8 hr 23 min 31 sec) 
 Total Blocks : 196608 Invalid Blocks : 0 Valid Blocks : 196608
 Total Tags : 491520 Threshold : 12288 Invalid Tags : 196608 Pr0 Tags : 98304 Pr1 Tags : 196608 num_pr0 : 12288
 SAE Count : 0
 Inter-Core Inteference in Data Store : 2363934
Heartbeat CPU 2 instructions: 60000000 cycles: 33314376 heartbeat IPC: 1.80167 cumulative IPC: 1.80102 (Simulation time: 8 hr 23 min 32 sec) 
 Total Blocks : 196608 Invalid Blocks : 0 Valid Blocks : 196608
 Total Tags : 491520 Threshold : 12288 Invalid Tags : 196609 Pr0 Tags : 98303 Pr1 Tags : 196608 num_pr0 : 12288
 SAE Count : 0
 Inter-Core Inteference in Data Store : 2363943
Heartbeat CPU 0 instructions: 60000000 cycles: 33314729 heartbeat IPC: 1.80151 cumulative IPC: 1.80101 (Simulation time: 8 hr 23 min 32 sec) 
 Total Blocks : 196608 Invalid Blocks : 0 Valid Blocks : 196608
 Total Tags : 491520 Threshold : 12288 Invalid Tags : 196608 Pr0 Tags : 98304 Pr1 Tags : 196608 num_pr0 : 12288
 SAE Count : 0
 Inter-Core Inteference in Data Store : 2363969
Heartbeat CPU 6 instructions: 60000000 cycles: 33315202 heartbeat IPC: 1.80165 cumulative IPC: 1.80098 (Simulation time: 8 hr 23 min 33 sec) 
 Total Blocks : 196608 Invalid Blocks : 0 Valid Blocks : 196608
 Total Tags : 491520 Threshold : 12288 Invalid Tags : 196608 Pr0 Tags : 98304 Pr1 Tags : 196608 num_pr0 : 12288
 SAE Count : 0
 Inter-Core Inteference in Data Store : 2364010
Heartbeat CPU 4 instructions: 60000000 cycles: 33316418 heartbeat IPC: 1.80151 cumulative IPC: 1.80091 (Simulation time: 8 hr 23 min 35 sec) 
 Total Blocks : 196608 Invalid Blocks : 0 Valid Blocks : 196608
 Total Tags : 491520 Threshold : 12288 Invalid Tags : 196609 Pr0 Tags : 98303 Pr1 Tags : 196608 num_pr0 : 12288
 SAE Count : 0
 Inter-Core Inteference in Data Store : 2364140
Heartbeat CPU 7 instructions: 60000000 cycles: 33317045 heartbeat IPC: 1.80165 cumulative IPC: 1.80088 (Simulation time: 8 hr 23 min 36 sec) 
 Total Blocks : 196608 Invalid Blocks : 0 Valid Blocks : 196608
 Total Tags : 491520 Threshold : 12288 Invalid Tags : 196608 Pr0 Tags : 98304 Pr1 Tags : 196608 num_pr0 : 12288
 SAE Count : 0
 Inter-Core Inteference in Data Store : 2364196
Heartbeat CPU 3 instructions: 60000000 cycles: 33317231 heartbeat IPC: 1.80124 cumulative IPC: 1.80087 (Simulation time: 8 hr 23 min 37 sec) 
 Total Blocks : 196608 Invalid Blocks : 0 Valid Blocks : 196608
 Total Tags : 491520 Threshold : 12288 Invalid Tags : 196608 Pr0 Tags : 98304 Pr1 Tags : 196608 num_pr0 : 12288
 SAE Count : 0
 Inter-Core Inteference in Data Store : 2364208
Heartbeat CPU 5 instructions: 60000000 cycles: 33319121 heartbeat IPC: 1.80117 cumulative IPC: 1.80077 (Simulation time: 8 hr 23 min 40 sec) 
 Total Blocks : 196608 Invalid Blocks : 0 Valid Blocks : 196608
 Total Tags : 491520 Threshold : 12288 Invalid Tags : 196609 Pr0 Tags : 98303 Pr1 Tags : 196608 num_pr0 : 12288
 SAE Count : 0
 Inter-Core Inteference in Data Store : 2364470
Heartbeat CPU 1 instructions: 70000002 cycles: 38871129 heartbeat IPC: 1.79956 cumulative IPC: 1.80082 (Simulation time: 10 hr 19 min 27 sec) 
 Total Blocks : 196608 Invalid Blocks : 0 Valid Blocks : 196608
 Total Tags : 491520 Threshold : 12288 Invalid Tags : 196612 Pr0 Tags : 98300 Pr1 Tags : 196608 num_pr0 : 12287
 SAE Count : 0
 Inter-Core Inteference in Data Store : 2905020
Heartbeat CPU 0 instructions: 70000002 cycles: 38871471 heartbeat IPC: 1.79962 cumulative IPC: 1.80081 (Simulation time: 10 hr 19 min 28 sec) 
 Total Blocks : 196608 Invalid Blocks : 0 Valid Blocks : 196608
 Total Tags : 491520 Threshold : 12288 Invalid Tags : 196609 Pr0 Tags : 98303 Pr1 Tags : 196608 num_pr0 : 12288
 SAE Count : 0
 Inter-Core Inteference in Data Store : 2905025
Heartbeat CPU 2 instructions: 70000002 cycles: 38871532 heartbeat IPC: 1.79948 cumulative IPC: 1.8008 (Simulation time: 10 hr 19 min 28 sec) 
 Total Blocks : 196608 Invalid Blocks : 0 Valid Blocks : 196608
 Total Tags : 491520 Threshold : 12288 Invalid Tags : 196609 Pr0 Tags : 98303 Pr1 Tags : 196608 num_pr0 : 12288
 SAE Count : 0
 Inter-Core Inteference in Data Store : 2905027
Heartbeat CPU 6 instructions: 70000002 cycles: 38872678 heartbeat IPC: 1.79938 cumulative IPC: 1.80075 (Simulation time: 10 hr 19 min 30 sec) 
 Total Blocks : 196608 Invalid Blocks : 0 Valid Blocks : 196608
 Total Tags : 491520 Threshold : 12288 Invalid Tags : 196609 Pr0 Tags : 98303 Pr1 Tags : 196608 num_pr0 : 12288
 SAE Count : 0
 Inter-Core Inteference in Data Store : 2905047
Heartbeat CPU 4 instructions: 70000002 cycles: 38873922 heartbeat IPC: 1.79937 cumulative IPC: 1.80069 (Simulation time: 10 hr 19 min 32 sec) 
 Total Blocks : 196608 Invalid Blocks : 0 Valid Blocks : 196608
 Total Tags : 491520 Threshold : 12288 Invalid Tags : 196608 Pr0 Tags : 98304 Pr1 Tags : 196608 num_pr0 : 12288
 SAE Count : 0
 Inter-Core Inteference in Data Store : 2905081
Heartbeat CPU 3 instructions: 70000002 cycles: 38874261 heartbeat IPC: 1.79952 cumulative IPC: 1.80068 (Simulation time: 10 hr 19 min 33 sec) 
 Total Blocks : 196608 Invalid Blocks : 0 Valid Blocks : 196608
 Total Tags : 491520 Threshold : 12288 Invalid Tags : 196609 Pr0 Tags : 98303 Pr1 Tags : 196608 num_pr0 : 12288
 SAE Count : 0
 Inter-Core Inteference in Data Store : 2905090
Heartbeat CPU 7 instructions: 70000002 cycles: 38874721 heartbeat IPC: 1.79931 cumulative IPC: 1.80066 (Simulation time: 10 hr 19 min 33 sec) 
 Total Blocks : 196608 Invalid Blocks : 0 Valid Blocks : 196608
 Total Tags : 491520 Threshold : 12288 Invalid Tags : 196608 Pr0 Tags : 98304 Pr1 Tags : 196608 num_pr0 : 12288
 SAE Count : 0
 Inter-Core Inteference in Data Store : 2905108
Heartbeat CPU 5 instructions: 70000002 cycles: 38876430 heartbeat IPC: 1.79943 cumulative IPC: 1.80058 (Simulation time: 10 hr 19 min 35 sec) 
 Total Blocks : 196608 Invalid Blocks : 0 Valid Blocks : 196608
 Total Tags : 491520 Threshold : 12288 Invalid Tags : 196609 Pr0 Tags : 98303 Pr1 Tags : 196608 num_pr0 : 12288
 SAE Count : 0
 Inter-Core Inteference in Data Store : 2905151
Heartbeat CPU 0 instructions: 80000003 cycles: 44479716 heartbeat IPC: 1.78309 cumulative IPC: 1.79857 (Simulation time: 14 hr 26 min 17 sec) 
 Total Blocks : 196608 Invalid Blocks : 0 Valid Blocks : 196608
 Total Tags : 491520 Threshold : 12288 Invalid Tags : 196611 Pr0 Tags : 98301 Pr1 Tags : 196608 num_pr0 : 12288
 SAE Count : 0
 Inter-Core Inteference in Data Store : 3486729
Heartbeat CPU 1 instructions: 80000003 cycles: 44479830 heartbeat IPC: 1.78294 cumulative IPC: 1.79857 (Simulation time: 14 hr 26 min 17 sec) 
 Total Blocks : 196608 Invalid Blocks : 0 Valid Blocks : 196608
 Total Tags : 491520 Threshold : 12288 Invalid Tags : 196608 Pr0 Tags : 98304 Pr1 Tags : 196608 num_pr0 : 12288
 SAE Count : 0
 Inter-Core Inteference in Data Store : 3486730
Heartbeat CPU 2 instructions: 80000003 cycles: 44480132 heartbeat IPC: 1.78298 cumulative IPC: 1.79856 (Simulation time: 14 hr 26 min 18 sec) 
 Total Blocks : 196608 Invalid Blocks : 0 Valid Blocks : 196608
 Total Tags : 491520 Threshold : 12288 Invalid Tags : 196608 Pr0 Tags : 98304 Pr1 Tags : 196608 num_pr0 : 12288
 SAE Count : 0
 Inter-Core Inteference in Data Store : 3486742
Heartbeat CPU 6 instructions: 80000003 cycles: 44481654 heartbeat IPC: 1.78286 cumulative IPC: 1.79849 (Simulation time: 14 hr 26 min 18 sec) 
 Total Blocks : 196608 Invalid Blocks : 0 Valid Blocks : 196608
 Total Tags : 491520 Threshold : 12288 Invalid Tags : 196608 Pr0 Tags : 98304 Pr1 Tags : 196608 num_pr0 : 12288
 SAE Count : 0
 Inter-Core Inteference in Data Store : 3486812
Heartbeat CPU 3 instructions: 80000003 cycles: 44482991 heartbeat IPC: 1.78294 cumulative IPC: 1.79844 (Simulation time: 14 hr 26 min 20 sec) 
 Total Blocks : 196608 Invalid Blocks : 0 Valid Blocks : 196608
 Total Tags : 491520 Threshold : 12288 Invalid Tags : 196609 Pr0 Tags : 98303 Pr1 Tags : 196608 num_pr0 : 12288
 SAE Count : 0
 Inter-Core Inteference in Data Store : 3486867
Heartbeat CPU 4 instructions: 80000003 cycles: 44482999 heartbeat IPC: 1.78282 cumulative IPC: 1.79844 (Simulation time: 14 hr 26 min 20 sec) 
 Total Blocks : 196608 Invalid Blocks : 0 Valid Blocks : 196608
 Total Tags : 491520 Threshold : 12288 Invalid Tags : 196609 Pr0 Tags : 98303 Pr1 Tags : 196608 num_pr0 : 12288
 SAE Count : 0
 Inter-Core Inteference in Data Store : 3486867
Heartbeat CPU 7 instructions: 80000003 cycles: 44483795 heartbeat IPC: 1.78283 cumulative IPC: 1.79841 (Simulation time: 14 hr 26 min 20 sec) 
 Total Blocks : 196608 Invalid Blocks : 0 Valid Blocks : 196608
 Total Tags : 491520 Threshold : 12288 Invalid Tags : 196608 Pr0 Tags : 98304 Pr1 Tags : 196608 num_pr0 : 12288
 SAE Count : 0
 Inter-Core Inteference in Data Store : 3486913
Heartbeat CPU 5 instructions: 80000003 cycles: 44485515 heartbeat IPC: 1.78282 cumulative IPC: 1.79834 (Simulation time: 14 hr 26 min 22 sec) 
 Total Blocks : 196608 Invalid Blocks : 0 Valid Blocks : 196608
 Total Tags : 491520 Threshold : 12288 Invalid Tags : 196610 Pr0 Tags : 98302 Pr1 Tags : 196608 num_pr0 : 12288
 SAE Count : 0
 Inter-Core Inteference in Data Store : 3487003
Heartbeat CPU 0 instructions: 90000000 cycles: 50017902 heartbeat IPC: 1.80564 cumulative IPC: 1.79936 (Simulation time: 16 hr 26 min 58 sec) 
 Total Blocks : 196608 Invalid Blocks : 0 Valid Blocks : 196608
 Total Tags : 491520 Threshold : 12288 Invalid Tags : 196610 Pr0 Tags : 98302 Pr1 Tags : 196608 num_pr0 : 12288
 SAE Count : 0
 Inter-Core Inteference in Data Store : 3929046
Heartbeat CPU 1 instructions: 90000000 cycles: 50018045 heartbeat IPC: 1.80564 cumulative IPC: 1.79935 (Simulation time: 16 hr 26 min 58 sec) 
 Total Blocks : 196608 Invalid Blocks : 0 Valid Blocks : 196608
 Total Tags : 491520 Threshold : 12288 Invalid Tags : 196610 Pr0 Tags : 98302 Pr1 Tags : 196608 num_pr0 : 12287
 SAE Count : 0
 Inter-Core Inteference in Data Store : 3929053
Heartbeat CPU 2 instructions: 90000000 cycles: 50020387 heartbeat IPC: 1.80497 cumulative IPC: 1.79927 (Simulation time: 16 hr 27 min 0 sec) 
 Total Blocks : 196608 Invalid Blocks : 0 Valid Blocks : 196608
 Total Tags : 491520 Threshold : 12288 Invalid Tags : 196609 Pr0 Tags : 98303 Pr1 Tags : 196608 num_pr0 : 12287
 SAE Count : 0
 Inter-Core Inteference in Data Store : 3929200
Heartbeat CPU 6 instructions: 90000000 cycles: 50020692 heartbeat IPC: 1.80537 cumulative IPC: 1.79926 (Simulation time: 16 hr 27 min 1 sec) 
 Total Blocks : 196608 Invalid Blocks : 0 Valid Blocks : 196608
 Total Tags : 491520 Threshold : 12288 Invalid Tags : 196608 Pr0 Tags : 98304 Pr1 Tags : 196608 num_pr0 : 12288
 SAE Count : 0
 Inter-Core Inteference in Data Store : 3929222
Heartbeat CPU 4 instructions: 90000000 cycles: 50021807 heartbeat IPC: 1.80544 cumulative IPC: 1.79922 (Simulation time: 16 hr 27 min 2 sec) 
 Total Blocks : 196608 Invalid Blocks : 0 Valid Blocks : 196608
 Total Tags : 491520 Threshold : 12288 Invalid Tags : 196608 Pr0 Tags : 98304 Pr1 Tags : 196608 num_pr0 : 12288
 SAE Count : 0
 Inter-Core Inteference in Data Store : 3929271
Heartbeat CPU 3 instructions: 90000000 cycles: 50023381 heartbeat IPC: 1.80493 cumulative IPC: 1.79916 (Simulation time: 16 hr 27 min 3 sec) 
 Total Blocks : 196608 Invalid Blocks : 0 Valid Blocks : 196608
 Total Tags : 491520 Threshold : 12288 Invalid Tags : 196611 Pr0 Tags : 98301 Pr1 Tags : 196608 num_pr0 : 12288
 SAE Count : 0
 Inter-Core Inteference in Data Store : 3929350
Heartbeat CPU 7 instructions: 90000000 cycles: 50024668 heartbeat IPC: 1.80477 cumulative IPC: 1.79911 (Simulation time: 16 hr 27 min 4 sec) 
 Total Blocks : 196608 Invalid Blocks : 0 Valid Blocks : 196608
 Total Tags : 491520 Threshold : 12288 Invalid Tags : 196609 Pr0 Tags : 98303 Pr1 Tags : 196608 num_pr0 : 12288
 SAE Count : 0
 Inter-Core Inteference in Data Store : 3929412
Heartbeat CPU 5 instructions: 90000000 cycles: 50026126 heartbeat IPC: 1.80485 cumulative IPC: 1.79906 (Simulation time: 16 hr 27 min 4 sec) 
 Total Blocks : 196608 Invalid Blocks : 0 Valid Blocks : 196608
 Total Tags : 491520 Threshold : 12288 Invalid Tags : 196609 Pr0 Tags : 98303 Pr1 Tags : 196608 num_pr0 : 12288
 SAE Count : 0
 Inter-Core Inteference in Data Store : 3929494
Heartbeat CPU 0 instructions: 100000001 cycles: 55533618 heartbeat IPC: 1.813 cumulative IPC: 1.80071 (Simulation time: 17 hr 58 min 51 sec) 
 Total Blocks : 196608 Invalid Blocks : 0 Valid Blocks : 196608
 Total Tags : 491520 Threshold : 12288 Invalid Tags : 196610 Pr0 Tags : 98302 Pr1 Tags : 196608 num_pr0 : 12288
 SAE Count : 0
 Inter-Core Inteference in Data Store : 4310689
Heartbeat CPU 1 instructions: 100000001 cycles: 55533738 heartbeat IPC: 1.81301 cumulative IPC: 1.80071 (Simulation time: 17 hr 58 min 51 sec) 
 Total Blocks : 196608 Invalid Blocks : 0 Valid Blocks : 196608
 Total Tags : 491520 Threshold : 12288 Invalid Tags : 196611 Pr0 Tags : 98301 Pr1 Tags : 196608 num_pr0 : 12288
 SAE Count : 0
 Inter-Core Inteference in Data Store : 4310694
Heartbeat CPU 6 instructions: 100000001 cycles: 55535873 heartbeat IPC: 1.81318 cumulative IPC: 1.80064 (Simulation time: 17 hr 58 min 52 sec) 
 Total Blocks : 196608 Invalid Blocks : 0 Valid Blocks : 196608
 Total Tags : 491520 Threshold : 12288 Invalid Tags : 196611 Pr0 Tags : 98301 Pr1 Tags : 196608 num_pr0 : 12288
 SAE Count : 0
 Inter-Core Inteference in Data Store : 4310794
Heartbeat CPU 4 instructions: 100000001 cycles: 55537478 heartbeat IPC: 1.81302 cumulative IPC: 1.80059 (Simulation time: 17 hr 58 min 53 sec) 
 Total Blocks : 196608 Invalid Blocks : 0 Valid Blocks : 196608
 Total Tags : 491520 Threshold : 12288 Invalid Tags : 196610 Pr0 Tags : 98302 Pr1 Tags : 196608 num_pr0 : 12287
 SAE Count : 0
 Inter-Core Inteference in Data Store : 4310862
Heartbeat CPU 2 instructions: 100000001 cycles: 55537718 heartbeat IPC: 1.81247 cumulative IPC: 1.80058 (Simulation time: 17 hr 58 min 53 sec) 
 Total Blocks : 196608 Invalid Blocks : 0 Valid Blocks : 196608
 Total Tags : 491520 Threshold : 12288 Invalid Tags : 196609 Pr0 Tags : 98303 Pr1 Tags : 196608 num_pr0 : 12288
 SAE Count : 0
 Inter-Core Inteference in Data Store : 4310867
Heartbeat CPU 3 instructions: 100000001 cycles: 55540957 heartbeat IPC: 1.81239 cumulative IPC: 1.80047 (Simulation time: 17 hr 58 min 55 sec) 
 Total Blocks : 196608 Invalid Blocks : 0 Valid Blocks : 196608
 Total Tags : 491520 Threshold : 12288 Invalid Tags : 196610 Pr0 Tags : 98302 Pr1 Tags : 196608 num_pr0 : 12288
 SAE Count : 0
 Inter-Core Inteference in Data Store : 4311028
Heartbeat CPU 7 instructions: 100000001 cycles: 55542356 heartbeat IPC: 1.81235 cumulative IPC: 1.80043 (Simulation time: 17 hr 58 min 55 sec) 
 Total Blocks : 196608 Invalid Blocks : 0 Valid Blocks : 196608
 Total Tags : 491520 Threshold : 12288 Invalid Tags : 196609 Pr0 Tags : 98303 Pr1 Tags : 196608 num_pr0 : 12288
 SAE Count : 0
 Inter-Core Inteference in Data Store : 4311093
Heartbeat CPU 5 instructions: 100000001 cycles: 55543075 heartbeat IPC: 1.8126 cumulative IPC: 1.8004 (Simulation time: 17 hr 58 min 56 sec) 
 Total Blocks : 196608 Invalid Blocks : 0 Valid Blocks : 196608
 Total Tags : 491520 Threshold : 12288 Invalid Tags : 196610 Pr0 Tags : 98302 Pr1 Tags : 196608 num_pr0 : 12288
 SAE Count : 0
 Inter-Core Inteference in Data Store : 4311125
Heartbeat CPU 0 instructions: 110000000 cycles: 61028690 heartbeat IPC: 1.81981 cumulative IPC: 1.80243 (Simulation time: 19 hr 12 min 34 sec) 
 Total Blocks : 196608 Invalid Blocks : 0 Valid Blocks : 196608
 Total Tags : 491520 Threshold : 12288 Invalid Tags : 196608 Pr0 Tags : 98304 Pr1 Tags : 196608 num_pr0 : 12288
 SAE Count : 0
 Inter-Core Inteference in Data Store : 4647049
Heartbeat CPU 1 instructions: 110000000 cycles: 61029259 heartbeat IPC: 1.81966 cumulative IPC: 1.80241 (Simulation time: 19 hr 12 min 35 sec) 
 Total Blocks : 196608 Invalid Blocks : 0 Valid Blocks : 196608
 Total Tags : 491520 Threshold : 12288 Invalid Tags : 196611 Pr0 Tags : 98301 Pr1 Tags : 196608 num_pr0 : 12288
 SAE Count : 0
 Inter-Core Inteference in Data Store : 4647081
Heartbeat CPU 2 instructions: 110000000 cycles: 61032921 heartbeat IPC: 1.81977 cumulative IPC: 1.80231 (Simulation time: 19 hr 12 min 38 sec) 
 Total Blocks : 196608 Invalid Blocks : 0 Valid Blocks : 196608
 Total Tags : 491520 Threshold : 12288 Invalid Tags : 196608 Pr0 Tags : 98304 Pr1 Tags : 196608 num_pr0 : 12288
 SAE Count : 0
 Inter-Core Inteference in Data Store : 4647209
Heartbeat CPU 4 instructions: 110000000 cycles: 61032942 heartbeat IPC: 1.81968 cumulative IPC: 1.80231 (Simulation time: 19 hr 12 min 38 sec) 
 Total Blocks : 196608 Invalid Blocks : 0 Valid Blocks : 196608
 Total Tags : 491520 Threshold : 12288 Invalid Tags : 196609 Pr0 Tags : 98303 Pr1 Tags : 196608 num_pr0 : 12288
 SAE Count : 0
 Inter-Core Inteference in Data Store : 4647211
Heartbeat CPU 6 instructions: 110000000 cycles: 61033241 heartbeat IPC: 1.81905 cumulative IPC: 1.8023 (Simulation time: 19 hr 12 min 38 sec) 
 Total Blocks : 196608 Invalid Blocks : 0 Valid Blocks : 196608
 Total Tags : 491520 Threshold : 12288 Invalid Tags : 196608 Pr0 Tags : 98304 Pr1 Tags : 196608 num_pr0 : 12288
 SAE Count : 0
 Inter-Core Inteference in Data Store : 4647225
Heartbeat CPU 7 instructions: 110000000 cycles: 61037774 heartbeat IPC: 1.8197 cumulative IPC: 1.80216 (Simulation time: 19 hr 12 min 43 sec) 
 Total Blocks : 196608 Invalid Blocks : 0 Valid Blocks : 196608
 Total Tags : 491520 Threshold : 12288 Invalid Tags : 196610 Pr0 Tags : 98302 Pr1 Tags : 196608 num_pr0 : 12287
 SAE Count : 0
 Inter-Core Inteference in Data Store : 4647404
Heartbeat CPU 3 instructions: 110000000 cycles: 61037885 heartbeat IPC: 1.8192 cumulative IPC: 1.80216 (Simulation time: 19 hr 12 min 43 sec) 
 Total Blocks : 196608 Invalid Blocks : 0 Valid Blocks : 196608
 Total Tags : 491520 Threshold : 12288 Invalid Tags : 196609 Pr0 Tags : 98303 Pr1 Tags : 196608 num_pr0 : 12288
 SAE Count : 0
 Inter-Core Inteference in Data Store : 4647412
Heartbeat CPU 5 instructions: 110000000 cycles: 61038525 heartbeat IPC: 1.81969 cumulative IPC: 1.80214 (Simulation time: 19 hr 12 min 44 sec) 
 Total Blocks : 196608 Invalid Blocks : 0 Valid Blocks : 196608
 Total Tags : 491520 Threshold : 12288 Invalid Tags : 196609 Pr0 Tags : 98303 Pr1 Tags : 196608 num_pr0 : 12288
 SAE Count : 0
 Inter-Core Inteference in Data Store : 4647439
Heartbeat CPU 0 instructions: 120000000 cycles: 66540759 heartbeat IPC: 1.8142 cumulative IPC: 1.80341 (Simulation time: 20 hr 23 min 16 sec) 
 Total Blocks : 196608 Invalid Blocks : 0 Valid Blocks : 196608
 Total Tags : 491520 Threshold : 12288 Invalid Tags : 196609 Pr0 Tags : 98303 Pr1 Tags : 196608 num_pr0 : 12288
 SAE Count : 0
 Inter-Core Inteference in Data Store : 4988251
Heartbeat CPU 1 instructions: 120000000 cycles: 66541411 heartbeat IPC: 1.81417 cumulative IPC: 1.80339 (Simulation time: 20 hr 23 min 17 sec) 
 Total Blocks : 196608 Invalid Blocks : 0 Valid Blocks : 196608
 Total Tags : 491520 Threshold : 12288 Invalid Tags : 196612 Pr0 Tags : 98300 Pr1 Tags : 196608 num_pr0 : 12287
 SAE Count : 0
 Inter-Core Inteference in Data Store : 4988298
Heartbeat CPU 2 instructions: 120000000 cycles: 66545271 heartbeat IPC: 1.81411 cumulative IPC: 1.80328 (Simulation time: 20 hr 23 min 20 sec) 
 Total Blocks : 196608 Invalid Blocks : 0 Valid Blocks : 196608
 Total Tags : 491520 Threshold : 12288 Invalid Tags : 196609 Pr0 Tags : 98303 Pr1 Tags : 196608 num_pr0 : 12288
 SAE Count : 0
 Inter-Core Inteference in Data Store : 4988617
Heartbeat CPU 4 instructions: 120000000 cycles: 66545641 heartbeat IPC: 1.81399 cumulative IPC: 1.80327 (Simulation time: 20 hr 23 min 20 sec) 
 Total Blocks : 196608 Invalid Blocks : 0 Valid Blocks : 196608
 Total Tags : 491520 Threshold : 12288 Invalid Tags : 196612 Pr0 Tags : 98300 Pr1 Tags : 196608 num_pr0 : 12288
 SAE Count : 0
 Inter-Core Inteference in Data Store : 4988647
Heartbeat CPU 6 instructions: 120000000 cycles: 66547377 heartbeat IPC: 1.81352 cumulative IPC: 1.80323 (Simulation time: 20 hr 23 min 21 sec) 
 Total Blocks : 196608 Invalid Blocks : 0 Valid Blocks : 196608
 Total Tags : 491520 Threshold : 12288 Invalid Tags : 196609 Pr0 Tags : 98303 Pr1 Tags : 196608 num_pr0 : 12288
 SAE Count : 0
 Inter-Core Inteference in Data Store : 4988780
Heartbeat CPU 5 instructions: 120000000 cycles: 66550347 heartbeat IPC: 1.81428 cumulative IPC: 1.80315 (Simulation time: 20 hr 23 min 23 sec) 
 Total Blocks : 196608 Invalid Blocks : 0 Valid Blocks : 196608
 Total Tags : 491520 Threshold : 12288 Invalid Tags : 196610 Pr0 Tags : 98302 Pr1 Tags : 196608 num_pr0 : 12287
 SAE Count : 0
 Inter-Core Inteference in Data Store : 4988983
Heartbeat CPU 7 instructions: 120000000 cycles: 66550961 heartbeat IPC: 1.81383 cumulative IPC: 1.80313 (Simulation time: 20 hr 23 min 24 sec) 
 Total Blocks : 196608 Invalid Blocks : 0 Valid Blocks : 196608
 Total Tags : 491520 Threshold : 12288 Invalid Tags : 196611 Pr0 Tags : 98301 Pr1 Tags : 196608 num_pr0 : 12288
 SAE Count : 0
 Inter-Core Inteference in Data Store : 4989037
Heartbeat CPU 3 instructions: 120000000 cycles: 66552282 heartbeat IPC: 1.81343 cumulative IPC: 1.80309 (Simulation time: 20 hr 23 min 25 sec) 
 Total Blocks : 196608 Invalid Blocks : 0 Valid Blocks : 196608
 Total Tags : 491520 Threshold : 12288 Invalid Tags : 196610 Pr0 Tags : 98302 Pr1 Tags : 196608 num_pr0 : 12288
 SAE Count : 0
 Inter-Core Inteference in Data Store : 4989128
Heartbeat CPU 0 instructions: 130000001 cycles: 72090438 heartbeat IPC: 1.80191 cumulative IPC: 1.80329 (Simulation time: 21 hr 51 min 53 sec) 
 Total Blocks : 196608 Invalid Blocks : 0 Valid Blocks : 196608
 Total Tags : 491520 Threshold : 12288 Invalid Tags : 196612 Pr0 Tags : 98300 Pr1 Tags : 196608 num_pr0 : 12288
 SAE Count : 0
 Inter-Core Inteference in Data Store : 5365411
Heartbeat CPU 1 instructions: 130000001 cycles: 72091136 heartbeat IPC: 1.80189 cumulative IPC: 1.80327 (Simulation time: 21 hr 51 min 53 sec) 
 Total Blocks : 196608 Invalid Blocks : 0 Valid Blocks : 196608
 Total Tags : 491520 Threshold : 12288 Invalid Tags : 196609 Pr0 Tags : 98303 Pr1 Tags : 196608 num_pr0 : 12288
 SAE Count : 0
 Inter-Core Inteference in Data Store : 5365466
Heartbeat CPU 2 instructions: 130000001 cycles: 72095117 heartbeat IPC: 1.80185 cumulative IPC: 1.80317 (Simulation time: 21 hr 51 min 57 sec) 
 Total Blocks : 196608 Invalid Blocks : 0 Valid Blocks : 196608
 Total Tags : 491520 Threshold : 12288 Invalid Tags : 196609 Pr0 Tags : 98303 Pr1 Tags : 196608 num_pr0 : 12287
 SAE Count : 0
 Inter-Core Inteference in Data Store : 5365825
Heartbeat CPU 4 instructions: 130000001 cycles: 72096151 heartbeat IPC: 1.80164 cumulative IPC: 1.80315 (Simulation time: 21 hr 51 min 58 sec) 
 Total Blocks : 196608 Invalid Blocks : 0 Valid Blocks : 196608
 Total Tags : 491520 Threshold : 12288 Invalid Tags : 196610 Pr0 Tags : 98302 Pr1 Tags : 196608 num_pr0 : 12287
 SAE Count : 0
 Inter-Core Inteference in Data Store : 5365922
Heartbeat CPU 6 instructions: 130000001 cycles: 72097328 heartbeat IPC: 1.80182 cumulative IPC: 1.80312 (Simulation time: 21 hr 51 min 59 sec) 
 Total Blocks : 196608 Invalid Blocks : 0 Valid Blocks : 196608
 Total Tags : 491520 Threshold : 12288 Invalid Tags : 196611 Pr0 Tags : 98301 Pr1 Tags : 196608 num_pr0 : 12288
 SAE Count : 0
 Inter-Core Inteference in Data Store : 5366048
Heartbeat CPU 5 instructions: 130000001 cycles: 72100367 heartbeat IPC: 1.8018 cumulative IPC: 1.80304 (Simulation time: 21 hr 52 min 2 sec) 
 Total Blocks : 196608 Invalid Blocks : 0 Valid Blocks : 196608
 Total Tags : 491520 Threshold : 12288 Invalid Tags : 196610 Pr0 Tags : 98302 Pr1 Tags : 196608 num_pr0 : 12288
 SAE Count : 0
 Inter-Core Inteference in Data Store : 5366343
Heartbeat CPU 7 instructions: 130000001 cycles: 72101190 heartbeat IPC: 1.80173 cumulative IPC: 1.80302 (Simulation time: 21 hr 52 min 3 sec) 
 Total Blocks : 196608 Invalid Blocks : 0 Valid Blocks : 196608
 Total Tags : 491520 Threshold : 12288 Invalid Tags : 196611 Pr0 Tags : 98301 Pr1 Tags : 196608 num_pr0 : 12288
 SAE Count : 0
 Inter-Core Inteference in Data Store : 5366405
Heartbeat CPU 3 instructions: 130000001 cycles: 72102118 heartbeat IPC: 1.80186 cumulative IPC: 1.803 (Simulation time: 21 hr 52 min 4 sec) 
 Total Blocks : 196608 Invalid Blocks : 0 Valid Blocks : 196608
 Total Tags : 491520 Threshold : 12288 Invalid Tags : 196610 Pr0 Tags : 98302 Pr1 Tags : 196608 num_pr0 : 12287
 SAE Count : 0
 Inter-Core Inteference in Data Store : 5366503
Heartbeat CPU 0 instructions: 140000003 cycles: 77625434 heartbeat IPC: 1.80669 cumulative IPC: 1.80353 (Simulation time: 22 hr 59 min 31 sec) 
 Total Blocks : 196608 Invalid Blocks : 0 Valid Blocks : 196608
 Total Tags : 491520 Threshold : 12288 Invalid Tags : 196611 Pr0 Tags : 98301 Pr1 Tags : 196608 num_pr0 : 12287
 SAE Count : 0
 Inter-Core Inteference in Data Store : 5734074
Heartbeat CPU 1 instructions: 140000003 cycles: 77626071 heartbeat IPC: 1.80671 cumulative IPC: 1.80352 (Simulation time: 22 hr 59 min 31 sec) 
 Total Blocks : 196608 Invalid Blocks : 0 Valid Blocks : 196608
 Total Tags : 491520 Threshold : 12288 Invalid Tags : 196608 Pr0 Tags : 98304 Pr1 Tags : 196608 num_pr0 : 12288
 SAE Count : 0
 Inter-Core Inteference in Data Store : 5734088
Heartbeat CPU 2 instructions: 140000003 cycles: 77630255 heartbeat IPC: 1.80664 cumulative IPC: 1.80342 (Simulation time: 22 hr 59 min 34 sec) 
 Total Blocks : 196608 Invalid Blocks : 0 Valid Blocks : 196608
 Total Tags : 491520 Threshold : 12288 Invalid Tags : 196608 Pr0 Tags : 98304 Pr1 Tags : 196608 num_pr0 : 12288
 SAE Count : 0
 Inter-Core Inteference in Data Store : 5734203
Heartbeat CPU 4 instructions: 140000003 cycles: 77631333 heartbeat IPC: 1.80663 cumulative IPC: 1.8034 (Simulation time: 22 hr 59 min 35 sec) 
 Total Blocks : 196608 Invalid Blocks : 0 Valid Blocks : 196608
 Total Tags : 491520 Threshold : 12288 Invalid Tags : 196610 Pr0 Tags : 98302 Pr1 Tags : 196608 num_pr0 : 12288
 SAE Count : 0
 Inter-Core Inteference in Data Store : 5734239
Heartbeat CPU 6 instructions: 140000003 cycles: 77632866 heartbeat IPC: 1.80651 cumulative IPC: 1.80336 (Simulation time: 22 hr 59 min 36 sec) 
 Total Blocks : 196608 Invalid Blocks : 0 Valid Blocks : 196608
 Total Tags : 491520 Threshold : 12288 Invalid Tags : 196608 Pr0 Tags : 98304 Pr1 Tags : 196608 num_pr0 : 12288
 SAE Count : 0
 Inter-Core Inteference in Data Store : 5734276
Heartbeat CPU 7 instructions: 140000003 cycles: 77635333 heartbeat IPC: 1.80696 cumulative IPC: 1.8033 (Simulation time: 22 hr 59 min 37 sec) 
 Total Blocks : 196608 Invalid Blocks : 0 Valid Blocks : 196608
 Total Tags : 491520 Threshold : 12288 Invalid Tags : 196608 Pr0 Tags : 98304 Pr1 Tags : 196608 num_pr0 : 12288
 SAE Count : 0
 Inter-Core Inteference in Data Store : 5734354
Heartbeat CPU 5 instructions: 140000003 cycles: 77635516 heartbeat IPC: 1.80664 cumulative IPC: 1.8033 (Simulation time: 22 hr 59 min 38 sec) 
 Total Blocks : 196608 Invalid Blocks : 0 Valid Blocks : 196608
 Total Tags : 491520 Threshold : 12288 Invalid Tags : 196608 Pr0 Tags : 98304 Pr1 Tags : 196608 num_pr0 : 12288
 SAE Count : 0
 Inter-Core Inteference in Data Store : 5734361
Heartbeat CPU 3 instructions: 140000003 cycles: 77637242 heartbeat IPC: 1.80664 cumulative IPC: 1.80326 (Simulation time: 22 hr 59 min 39 sec) 
 Total Blocks : 196608 Invalid Blocks : 0 Valid Blocks : 196608
 Total Tags : 491520 Threshold : 12288 Invalid Tags : 196609 Pr0 Tags : 98303 Pr1 Tags : 196608 num_pr0 : 12288
 SAE Count : 0
 Inter-Core Inteference in Data Store : 5734405
Heartbeat CPU 0 instructions: 150000000 cycles: 83142576 heartbeat IPC: 1.81253 cumulative IPC: 1.80413 (Simulation time: 24 hr 24 min 44 sec) 
 Total Blocks : 196608 Invalid Blocks : 0 Valid Blocks : 196608
 Total Tags : 491520 Threshold : 12288 Invalid Tags : 196609 Pr0 Tags : 98303 Pr1 Tags : 196608 num_pr0 : 12288
 SAE Count : 0
 Inter-Core Inteference in Data Store : 6063170
Heartbeat CPU 1 instructions: 150000000 cycles: 83143791 heartbeat IPC: 1.81234 cumulative IPC: 1.8041 (Simulation time: 24 hr 24 min 45 sec) 
 Total Blocks : 196608 Invalid Blocks : 0 Valid Blocks : 196608
 Total Tags : 491520 Threshold : 12288 Invalid Tags : 196609 Pr0 Tags : 98303 Pr1 Tags : 196608 num_pr0 : 12288
 SAE Count : 0
 Inter-Core Inteference in Data Store : 6063222
Heartbeat CPU 2 instructions: 150000000 cycles: 83147763 heartbeat IPC: 1.81241 cumulative IPC: 1.80402 (Simulation time: 24 hr 24 min 47 sec) 
 Total Blocks : 196608 Invalid Blocks : 0 Valid Blocks : 196608
 Total Tags : 491520 Threshold : 12288 Invalid Tags : 196609 Pr0 Tags : 98303 Pr1 Tags : 196608 num_pr0 : 12288
 SAE Count : 0
 Inter-Core Inteference in Data Store : 6063392
Heartbeat CPU 4 instructions: 150000000 cycles: 83148893 heartbeat IPC: 1.81239 cumulative IPC: 1.80399 (Simulation time: 24 hr 24 min 47 sec) 
 Total Blocks : 196608 Invalid Blocks : 0 Valid Blocks : 196608
 Total Tags : 491520 Threshold : 12288 Invalid Tags : 196611 Pr0 Tags : 98301 Pr1 Tags : 196608 num_pr0 : 12287
 SAE Count : 0
 Inter-Core Inteference in Data Store : 6063434
Heartbeat CPU 6 instructions: 150000000 cycles: 83149918 heartbeat IPC: 1.81256 cumulative IPC: 1.80397 (Simulation time: 24 hr 24 min 48 sec) 
 Total Blocks : 196608 Invalid Blocks : 0 Valid Blocks : 196608
 Total Tags : 491520 Threshold : 12288 Invalid Tags : 196609 Pr0 Tags : 98303 Pr1 Tags : 196608 num_pr0 : 12288
 SAE Count : 0
 Inter-Core Inteference in Data Store : 6063470
Heartbeat CPU 7 instructions: 150000000 cycles: 83153154 heartbeat IPC: 1.81231 cumulative IPC: 1.8039 (Simulation time: 24 hr 24 min 49 sec) 
 Total Blocks : 196608 Invalid Blocks : 0 Valid Blocks : 196608
 Total Tags : 491520 Threshold : 12288 Invalid Tags : 196608 Pr0 Tags : 98304 Pr1 Tags : 196608 num_pr0 : 12288
 SAE Count : 0
 Inter-Core Inteference in Data Store : 6063635
Heartbeat CPU 5 instructions: 150000000 cycles: 83153752 heartbeat IPC: 1.81217 cumulative IPC: 1.80389 (Simulation time: 24 hr 24 min 49 sec) 
 Total Blocks : 196608 Invalid Blocks : 0 Valid Blocks : 196608
 Total Tags : 491520 Threshold : 12288 Invalid Tags : 196609 Pr0 Tags : 98303 Pr1 Tags : 196608 num_pr0 : 12288
 SAE Count : 0
 Inter-Core Inteference in Data Store : 6063656
Heartbeat CPU 3 instructions: 150000000 cycles: 83155372 heartbeat IPC: 1.81221 cumulative IPC: 1.80385 (Simulation time: 24 hr 24 min 49 sec) 
 Total Blocks : 196608 Invalid Blocks : 0 Valid Blocks : 196608
 Total Tags : 491520 Threshold : 12288 Invalid Tags : 196609 Pr0 Tags : 98303 Pr1 Tags : 196608 num_pr0 : 12288
 SAE Count : 0
 Inter-Core Inteference in Data Store : 6063717
Heartbeat CPU 1 instructions: 160000001 cycles: 88697809 heartbeat IPC: 1.8005 cumulative IPC: 1.80388 (Simulation time: 26 hr 27 min 27 sec) 
 Total Blocks : 196608 Invalid Blocks : 0 Valid Blocks : 196608
 Total Tags : 491520 Threshold : 12288 Invalid Tags : 196612 Pr0 Tags : 98300 Pr1 Tags : 196608 num_pr0 : 12287
 SAE Count : 0
 Inter-Core Inteference in Data Store : 6488562
Heartbeat CPU 0 instructions: 160000001 cycles: 88699577 heartbeat IPC: 1.79953 cumulative IPC: 1.80384 (Simulation time: 26 hr 27 min 30 sec) 
 Total Blocks : 196608 Invalid Blocks : 0 Valid Blocks : 196608
 Total Tags : 491520 Threshold : 12288 Invalid Tags : 196609 Pr0 Tags : 98303 Pr1 Tags : 196608 num_pr0 : 12288
 SAE Count : 0
 Inter-Core Inteference in Data Store : 6488715
Heartbeat CPU 4 instructions: 160000001 cycles: 88703218 heartbeat IPC: 1.8004 cumulative IPC: 1.80377 (Simulation time: 26 hr 27 min 35 sec) 
 Total Blocks : 196608 Invalid Blocks : 0 Valid Blocks : 196608
 Total Tags : 491520 Threshold : 12288 Invalid Tags : 196610 Pr0 Tags : 98302 Pr1 Tags : 196608 num_pr0 : 12287
 SAE Count : 0
 Inter-Core Inteference in Data Store : 6489041
Heartbeat CPU 6 instructions: 160000001 cycles: 88703728 heartbeat IPC: 1.80057 cumulative IPC: 1.80376 (Simulation time: 26 hr 27 min 36 sec) 
 Total Blocks : 196608 Invalid Blocks : 0 Valid Blocks : 196608
 Total Tags : 491520 Threshold : 12288 Invalid Tags : 196609 Pr0 Tags : 98303 Pr1 Tags : 196608 num_pr0 : 12287
 SAE Count : 0
 Inter-Core Inteference in Data Store : 6489078
Heartbeat CPU 2 instructions: 160000001 cycles: 88704852 heartbeat IPC: 1.7995 cumulative IPC: 1.80373 (Simulation time: 26 hr 27 min 37 sec) 
 Total Blocks : 196608 Invalid Blocks : 0 Valid Blocks : 196608
 Total Tags : 491520 Threshold : 12288 Invalid Tags : 196608 Pr0 Tags : 98304 Pr1 Tags : 196608 num_pr0 : 12288
 SAE Count : 0
 Inter-Core Inteference in Data Store : 6489192
Heartbeat CPU 5 instructions: 160000001 cycles: 88706928 heartbeat IPC: 1.80077 cumulative IPC: 1.80369 (Simulation time: 26 hr 27 min 39 sec) 
 Total Blocks : 196608 Invalid Blocks : 0 Valid Blocks : 196608
 Total Tags : 491520 Threshold : 12288 Invalid Tags : 196609 Pr0 Tags : 98303 Pr1 Tags : 196608 num_pr0 : 12288
 SAE Count : 0
 Inter-Core Inteference in Data Store : 6489360
Heartbeat CPU 7 instructions: 160000001 cycles: 88707012 heartbeat IPC: 1.80055 cumulative IPC: 1.80369 (Simulation time: 26 hr 27 min 39 sec) 
 Total Blocks : 196608 Invalid Blocks : 0 Valid Blocks : 196608
 Total Tags : 491520 Threshold : 12288 Invalid Tags : 196610 Pr0 Tags : 98302 Pr1 Tags : 196608 num_pr0 : 12287
 SAE Count : 0
 Inter-Core Inteference in Data Store : 6489370
Heartbeat CPU 3 instructions: 160000001 cycles: 88708505 heartbeat IPC: 1.80079 cumulative IPC: 1.80366 (Simulation time: 26 hr 27 min 40 sec) 
 Total Blocks : 196608 Invalid Blocks : 0 Valid Blocks : 196608
 Total Tags : 491520 Threshold : 12288 Invalid Tags : 196610 Pr0 Tags : 98302 Pr1 Tags : 196608 num_pr0 : 12288
 SAE Count : 0
 Inter-Core Inteference in Data Store : 6489470
Heartbeat CPU 1 instructions: 170000001 cycles: 94229315 heartbeat IPC: 1.80783 cumulative IPC: 1.80411 (Simulation time: 27 hr 57 min 22 sec) 
 Total Blocks : 196608 Invalid Blocks : 0 Valid Blocks : 196608
 Total Tags : 491520 Threshold : 12288 Invalid Tags : 196609 Pr0 Tags : 98303 Pr1 Tags : 196608 num_pr0 : 12288
 SAE Count : 0
 Inter-Core Inteference in Data Store : 6896002
Heartbeat CPU 0 instructions: 170000001 cycles: 94232176 heartbeat IPC: 1.80747 cumulative IPC: 1.80405 (Simulation time: 27 hr 57 min 23 sec) 
 Total Blocks : 196608 Invalid Blocks : 0 Valid Blocks : 196608
 Total Tags : 491520 Threshold : 12288 Invalid Tags : 196608 Pr0 Tags : 98304 Pr1 Tags : 196608 num_pr0 : 12288
 SAE Count : 0
 Inter-Core Inteference in Data Store : 6896084
Heartbeat CPU 4 instructions: 170000001 cycles: 94236094 heartbeat IPC: 1.80738 cumulative IPC: 1.80398 (Simulation time: 27 hr 57 min 25 sec) 
 Total Blocks : 196608 Invalid Blocks : 0 Valid Blocks : 196608
 Total Tags : 491520 Threshold : 12288 Invalid Tags : 196608 Pr0 Tags : 98304 Pr1 Tags : 196608 num_pr0 : 12288
 SAE Count : 0
 Inter-Core Inteference in Data Store : 6896164
Heartbeat CPU 6 instructions: 170000001 cycles: 94236786 heartbeat IPC: 1.80732 cumulative IPC: 1.80397 (Simulation time: 27 hr 57 min 26 sec) 
 Total Blocks : 196608 Invalid Blocks : 0 Valid Blocks : 196608
 Total Tags : 491520 Threshold : 12288 Invalid Tags : 196608 Pr0 Tags : 98304 Pr1 Tags : 196608 num_pr0 : 12288
 SAE Count : 0
 Inter-Core Inteference in Data Store : 6896180
Heartbeat CPU 2 instructions: 170000001 cycles: 94237498 heartbeat IPC: 1.80745 cumulative IPC: 1.80395 (Simulation time: 27 hr 57 min 26 sec) 
 Total Blocks : 196608 Invalid Blocks : 0 Valid Blocks : 196608
 Total Tags : 491520 Threshold : 12288 Invalid Tags : 196609 Pr0 Tags : 98303 Pr1 Tags : 196608 num_pr0 : 12288
 SAE Count : 0
 Inter-Core Inteference in Data Store : 6896197
Heartbeat CPU 5 instructions: 170000001 cycles: 94239801 heartbeat IPC: 1.80738 cumulative IPC: 1.80391 (Simulation time: 27 hr 57 min 27 sec) 
 Total Blocks : 196608 Invalid Blocks : 0 Valid Blocks : 196608
 Total Tags : 491520 Threshold : 12288 Invalid Tags : 196609 Pr0 Tags : 98303 Pr1 Tags : 196608 num_pr0 : 12288
 SAE Count : 0
 Inter-Core Inteference in Data Store : 6896269
Heartbeat CPU 7 instructions: 170000001 cycles: 94240045 heartbeat IPC: 1.80733 cumulative IPC: 1.8039 (Simulation time: 27 hr 57 min 27 sec) 
 Total Blocks : 196608 Invalid Blocks : 0 Valid Blocks : 196608
 Total Tags : 491520 Threshold : 12288 Invalid Tags : 196608 Pr0 Tags : 98304 Pr1 Tags : 196608 num_pr0 : 12288
 SAE Count : 0
 Inter-Core Inteference in Data Store : 6896273
Heartbeat CPU 3 instructions: 170000001 cycles: 94241276 heartbeat IPC: 1.80741 cumulative IPC: 1.80388 (Simulation time: 27 hr 57 min 28 sec) 
 Total Blocks : 196608 Invalid Blocks : 0 Valid Blocks : 196608
 Total Tags : 491520 Threshold : 12288 Invalid Tags : 196609 Pr0 Tags : 98303 Pr1 Tags : 196608 num_pr0 : 12287
 SAE Count : 0
 Inter-Core Inteference in Data Store : 6896313
Heartbeat CPU 1 instructions: 180000001 cycles: 99722384 heartbeat IPC: 1.82048 cumulative IPC: 1.80501 (Simulation time: 29 hr 30 min 16 sec) 
 Total Blocks : 196608 Invalid Blocks : 0 Valid Blocks : 196608
 Total Tags : 491520 Threshold : 12288 Invalid Tags : 196608 Pr0 Tags : 98304 Pr1 Tags : 196608 num_pr0 : 12288
 SAE Count : 0
 Inter-Core Inteference in Data Store : 7230843
Heartbeat CPU 4 instructions: 180000001 cycles: 99732682 heartbeat IPC: 1.81931 cumulative IPC: 1.80482 (Simulation time: 29 hr 30 min 21 sec) 
 Total Blocks : 196608 Invalid Blocks : 0 Valid Blocks : 196608
 Total Tags : 491520 Threshold : 12288 Invalid Tags : 196609 Pr0 Tags : 98303 Pr1 Tags : 196608 num_pr0 : 12288
 SAE Count : 0
 Inter-Core Inteference in Data Store : 7231344
Heartbeat CPU 2 instructions: 180000001 cycles: 99733784 heartbeat IPC: 1.81941 cumulative IPC: 1.8048 (Simulation time: 29 hr 30 min 22 sec) 
 Total Blocks : 196608 Invalid Blocks : 0 Valid Blocks : 196608
 Total Tags : 491520 Threshold : 12288 Invalid Tags : 196608 Pr0 Tags : 98304 Pr1 Tags : 196608 num_pr0 : 12288
 SAE Count : 0
 Inter-Core Inteference in Data Store : 7231399
Heartbeat CPU 3 instructions: 180000001 cycles: 99734024 heartbeat IPC: 1.82058 cumulative IPC: 1.8048 (Simulation time: 29 hr 30 min 22 sec) 
 Total Blocks : 196608 Invalid Blocks : 0 Valid Blocks : 196608
 Total Tags : 491520 Threshold : 12288 Invalid Tags : 196609 Pr0 Tags : 98303 Pr1 Tags : 196608 num_pr0 : 12288
 SAE Count : 0
 Inter-Core Inteference in Data Store : 7231408
Heartbeat CPU 7 instructions: 180000001 cycles: 99735342 heartbeat IPC: 1.81974 cumulative IPC: 1.80478 (Simulation time: 29 hr 30 min 23 sec) 
 Total Blocks : 196608 Invalid Blocks : 0 Valid Blocks : 196608
 Total Tags : 491520 Threshold : 12288 Invalid Tags : 196610 Pr0 Tags : 98302 Pr1 Tags : 196608 num_pr0 : 12288
 SAE Count : 0
 Inter-Core Inteference in Data Store : 7231453
Heartbeat CPU 0 instructions: 180000001 cycles: 99737049 heartbeat IPC: 1.81657 cumulative IPC: 1.80475 (Simulation time: 29 hr 30 min 25 sec) 
 Total Blocks : 196608 Invalid Blocks : 0 Valid Blocks : 196608
 Total Tags : 491520 Threshold : 12288 Invalid Tags : 196608 Pr0 Tags : 98304 Pr1 Tags : 196608 num_pr0 : 12288
 SAE Count : 0
 Inter-Core Inteference in Data Store : 7231540
Heartbeat CPU 6 instructions: 180000001 cycles: 99743173 heartbeat IPC: 1.81607 cumulative IPC: 1.80463 (Simulation time: 29 hr 30 min 29 sec) 
 Total Blocks : 196608 Invalid Blocks : 0 Valid Blocks : 196608
 Total Tags : 491520 Threshold : 12288 Invalid Tags : 196608 Pr0 Tags : 98304 Pr1 Tags : 196608 num_pr0 : 12288
 SAE Count : 0
 Inter-Core Inteference in Data Store : 7231832
Heartbeat CPU 5 instructions: 180000001 cycles: 99747064 heartbeat IPC: 1.81578 cumulative IPC: 1.80456 (Simulation time: 29 hr 30 min 31 sec) 
 Total Blocks : 196608 Invalid Blocks : 0 Valid Blocks : 196608
 Total Tags : 491520 Threshold : 12288 Invalid Tags : 196608 Pr0 Tags : 98304 Pr1 Tags : 196608 num_pr0 : 12288
 SAE Count : 0
 Inter-Core Inteference in Data Store : 7232026
Heartbeat CPU 1 instructions: 190000000 cycles: 105226673 heartbeat IPC: 1.81676 cumulative IPC: 1.80563 (Simulation time: 31 hr 0 min 47 sec) 
 Total Blocks : 196608 Invalid Blocks : 0 Valid Blocks : 196608
 Total Tags : 491520 Threshold : 12288 Invalid Tags : 196609 Pr0 Tags : 98303 Pr1 Tags : 196608 num_pr0 : 12288
 SAE Count : 0
 Inter-Core Inteference in Data Store : 7599246
Heartbeat CPU 4 instructions: 190000000 cycles: 105237098 heartbeat IPC: 1.81672 cumulative IPC: 1.80545 (Simulation time: 31 hr 0 min 54 sec) 
 Total Blocks : 196608 Invalid Blocks : 0 Valid Blocks : 196608
 Total Tags : 491520 Threshold : 12288 Invalid Tags : 196608 Pr0 Tags : 98304 Pr1 Tags : 196608 num_pr0 : 12288
 SAE Count : 0
 Inter-Core Inteference in Data Store : 7599876
Heartbeat CPU 2 instructions: 190000000 cycles: 105238276 heartbeat IPC: 1.8167 cumulative IPC: 1.80543 (Simulation time: 31 hr 0 min 55 sec) 
 Total Blocks : 196608 Invalid Blocks : 0 Valid Blocks : 196608
 Total Tags : 491520 Threshold : 12288 Invalid Tags : 196610 Pr0 Tags : 98302 Pr1 Tags : 196608 num_pr0 : 12288
 SAE Count : 0
 Inter-Core Inteference in Data Store : 7599950
Heartbeat CPU 3 instructions: 190000000 cycles: 105238457 heartbeat IPC: 1.81672 cumulative IPC: 1.80542 (Simulation time: 31 hr 0 min 55 sec) 
 Total Blocks : 196608 Invalid Blocks : 0 Valid Blocks : 196608
 Total Tags : 491520 Threshold : 12288 Invalid Tags : 196609 Pr0 Tags : 98303 Pr1 Tags : 196608 num_pr0 : 12288
 SAE Count : 0
 Inter-Core Inteference in Data Store : 7599964
Heartbeat CPU 7 instructions: 190000000 cycles: 105240101 heartbeat IPC: 1.81661 cumulative IPC: 1.8054 (Simulation time: 31 hr 0 min 57 sec) 
 Total Blocks : 196608 Invalid Blocks : 0 Valid Blocks : 196608
 Total Tags : 491520 Threshold : 12288 Invalid Tags : 196609 Pr0 Tags : 98303 Pr1 Tags : 196608 num_pr0 : 12288
 SAE Count : 0
 Inter-Core Inteference in Data Store : 7600091
Heartbeat CPU 0 instructions: 190000000 cycles: 105240848 heartbeat IPC: 1.81693 cumulative IPC: 1.80538 (Simulation time: 31 hr 0 min 58 sec) 
 Total Blocks : 196608 Invalid Blocks : 0 Valid Blocks : 196608
 Total Tags : 491520 Threshold : 12288 Invalid Tags : 196613 Pr0 Tags : 98299 Pr1 Tags : 196608 num_pr0 : 12288
 SAE Count : 0
 Inter-Core Inteference in Data Store : 7600148
Heartbeat CPU 6 instructions: 190000000 cycles: 105247809 heartbeat IPC: 1.81665 cumulative IPC: 1.80526 (Simulation time: 31 hr 1 min 3 sec) 
 Total Blocks : 196608 Invalid Blocks : 0 Valid Blocks : 196608
 Total Tags : 491520 Threshold : 12288 Invalid Tags : 196611 Pr0 Tags : 98301 Pr1 Tags : 196608 num_pr0 : 12288
 SAE Count : 0
 Inter-Core Inteference in Data Store : 7600625
Heartbeat CPU 5 instructions: 190000000 cycles: 105251142 heartbeat IPC: 1.81683 cumulative IPC: 1.80521 (Simulation time: 31 hr 1 min 6 sec) 
 Total Blocks : 196608 Invalid Blocks : 0 Valid Blocks : 196608
 Total Tags : 491520 Threshold : 12288 Invalid Tags : 196609 Pr0 Tags : 98303 Pr1 Tags : 196608 num_pr0 : 12288
 SAE Count : 0
 Inter-Core Inteference in Data Store : 7600827
Heartbeat CPU 1 instructions: 200000003 cycles: 110749713 heartbeat IPC: 1.8106 cumulative IPC: 1.80587 (Simulation time: 32 hr 10 min 36 sec) 
 Total Blocks : 196608 Invalid Blocks : 0 Valid Blocks : 196608
 Total Tags : 491520 Threshold : 12288 Invalid Tags : 196609 Pr0 Tags : 98303 Pr1 Tags : 196608 num_pr0 : 12288
 SAE Count : 0
 Inter-Core Inteference in Data Store : 8031768
Heartbeat CPU 4 instructions: 200000003 cycles: 110759565 heartbeat IPC: 1.81079 cumulative IPC: 1.80571 (Simulation time: 32 hr 10 min 43 sec) 
 Total Blocks : 196608 Invalid Blocks : 0 Valid Blocks : 196608
 Total Tags : 491520 Threshold : 12288 Invalid Tags : 196608 Pr0 Tags : 98304 Pr1 Tags : 196608 num_pr0 : 12288
 SAE Count : 0
 Inter-Core Inteference in Data Store : 8034354
Heartbeat CPU 2 instructions: 200000003 cycles: 110762097 heartbeat IPC: 1.81034 cumulative IPC: 1.80567 (Simulation time: 32 hr 10 min 45 sec) 
 Total Blocks : 196608 Invalid Blocks : 0 Valid Blocks : 196608
 Total Tags : 491520 Threshold : 12288 Invalid Tags : 196608 Pr0 Tags : 98304 Pr1 Tags : 196608 num_pr0 : 12288
 SAE Count : 0
 Inter-Core Inteference in Data Store : 8034973
Heartbeat CPU 3 instructions: 200000003 cycles: 110762700 heartbeat IPC: 1.8102 cumulative IPC: 1.80566 (Simulation time: 32 hr 10 min 45 sec) 
 Total Blocks : 196608 Invalid Blocks : 0 Valid Blocks : 196608
 Total Tags : 491520 Threshold : 12288 Invalid Tags : 196608 Pr0 Tags : 98304 Pr1 Tags : 196608 num_pr0 : 12288
 SAE Count : 0
 Inter-Core Inteference in Data Store : 8035163
Heartbeat CPU 7 instructions: 200000003 cycles: 110762789 heartbeat IPC: 1.81071 cumulative IPC: 1.80566 (Simulation time: 32 hr 10 min 45 sec) 
 Total Blocks : 196608 Invalid Blocks : 0 Valid Blocks : 196608
 Total Tags : 491520 Threshold : 12288 Invalid Tags : 196608 Pr0 Tags : 98304 Pr1 Tags : 196608 num_pr0 : 12288
 SAE Count : 0
 Inter-Core Inteference in Data Store : 8035188
Heartbeat CPU 0 instructions: 200000003 cycles: 110763004 heartbeat IPC: 1.81089 cumulative IPC: 1.80566 (Simulation time: 32 hr 10 min 45 sec) 
 Total Blocks : 196608 Invalid Blocks : 0 Valid Blocks : 196608
 Total Tags : 491520 Threshold : 12288 Invalid Tags : 196608 Pr0 Tags : 98304 Pr1 Tags : 196608 num_pr0 : 12288
 SAE Count : 0
 Inter-Core Inteference in Data Store : 8035244
Heartbeat CPU 6 instructions: 200000003 cycles: 110770122 heartbeat IPC: 1.81084 cumulative IPC: 1.80554 (Simulation time: 32 hr 10 min 49 sec) 
 Total Blocks : 196608 Invalid Blocks : 0 Valid Blocks : 196608
 Total Tags : 491520 Threshold : 12288 Invalid Tags : 196608 Pr0 Tags : 98304 Pr1 Tags : 196608 num_pr0 : 12288
 SAE Count : 0
 Inter-Core Inteference in Data Store : 8037183
Heartbeat CPU 5 instructions: 200000003 cycles: 110773761 heartbeat IPC: 1.81074 cumulative IPC: 1.80548 (Simulation time: 32 hr 10 min 51 sec) 
 Total Blocks : 196608 Invalid Blocks : 0 Valid Blocks : 196608
 Total Tags : 491520 Threshold : 12288 Invalid Tags : 196608 Pr0 Tags : 98304 Pr1 Tags : 196608 num_pr0 : 12288
 SAE Count : 0
 Inter-Core Inteference in Data Store : 8038332

Warmup complete CPU 0 instructions: 200021164 cycles: 110773761 (Simulation time: 32 hr 10 min 51 sec) 
Warmup complete CPU 1 instructions: 200047547 cycles: 110773761 (Simulation time: 32 hr 10 min 51 sec) 
Warmup complete CPU 2 instructions: 200023038 cycles: 110773761 (Simulation time: 32 hr 10 min 51 sec) 
Warmup complete CPU 3 instructions: 200021732 cycles: 110773761 (Simulation time: 32 hr 10 min 51 sec) 
Warmup complete CPU 4 instructions: 200028004 cycles: 110773761 (Simulation time: 32 hr 10 min 51 sec) 
Warmup complete CPU 5 instructions: 200000003 cycles: 110773761 (Simulation time: 32 hr 10 min 51 sec) 
Warmup complete CPU 6 instructions: 200006990 cycles: 110773760 (Simulation time: 32 hr 10 min 51 sec) 
Warmup complete CPU 7 instructions: 200021548 cycles: 110773760 (Simulation time: 32 hr 10 min 51 sec) 

Heartbeat CPU 1 instructions: 210000002 cycles: 158918180 heartbeat IPC: 0.207605 cumulative IPC: 0.206721 (Simulation time: 67 hr 18 min 26 sec) 
 Total Blocks : 196608 Invalid Blocks : 0 Valid Blocks : 196608
 Total Tags : 491520 Threshold : 12288 Invalid Tags : 196608 Pr0 Tags : 98304 Pr1 Tags : 196608 num_pr0 : 12288
 SAE Count : 0
 Inter-Core Inteference in Data Store : 514462
Heartbeat CPU 4 instructions: 210000002 cycles: 158947687 heartbeat IPC: 0.20752 cumulative IPC: 0.207 (Simulation time: 67 hr 18 min 51 sec) 
 Total Blocks : 196608 Invalid Blocks : 0 Valid Blocks : 196608
 Total Tags : 491520 Threshold : 12288 Invalid Tags : 196609 Pr0 Tags : 98303 Pr1 Tags : 196608 num_pr0 : 12288
 SAE Count : 0
 Inter-Core Inteference in Data Store : 514914
Heartbeat CPU 2 instructions: 210000002 cycles: 159070431 heartbeat IPC: 0.207004 cumulative IPC: 0.206577 (Simulation time: 67 hr 20 min 26 sec) 
 Total Blocks : 196608 Invalid Blocks : 0 Valid Blocks : 196608
 Total Tags : 491520 Threshold : 12288 Invalid Tags : 196612 Pr0 Tags : 98300 Pr1 Tags : 196608 num_pr0 : 12288
 SAE Count : 0
 Inter-Core Inteference in Data Store : 516904
Heartbeat CPU 7 instructions: 210000002 cycles: 159099170 heartbeat IPC: 0.206883 cumulative IPC: 0.206485 (Simulation time: 67 hr 20 min 43 sec) 
 Total Blocks : 196608 Invalid Blocks : 0 Valid Blocks : 196608
 Total Tags : 491520 Threshold : 12288 Invalid Tags : 196608 Pr0 Tags : 98304 Pr1 Tags : 196608 num_pr0 : 12288
 SAE Count : 0
 Inter-Core Inteference in Data Store : 517355
Heartbeat CPU 3 instructions: 210000002 cycles: 159229189 heartbeat IPC: 0.206328 cumulative IPC: 0.205927 (Simulation time: 67 hr 22 min 38 sec) 
 Total Blocks : 196608 Invalid Blocks : 0 Valid Blocks : 196608
 Total Tags : 491520 Threshold : 12288 Invalid Tags : 196609 Pr0 Tags : 98303 Pr1 Tags : 196608 num_pr0 : 12288
 SAE Count : 0
 Inter-Core Inteference in Data Store : 519586
Heartbeat CPU 0 instructions: 210000002 cycles: 159237198 heartbeat IPC: 0.206295 cumulative IPC: 0.205904 (Simulation time: 67 hr 22 min 45 sec) 
 Total Blocks : 196608 Invalid Blocks : 0 Valid Blocks : 196608
 Total Tags : 491520 Threshold : 12288 Invalid Tags : 196612 Pr0 Tags : 98300 Pr1 Tags : 196608 num_pr0 : 12288
 SAE Count : 0
 Inter-Core Inteference in Data Store : 519737
Heartbeat CPU 6 instructions: 210000002 cycles: 159512826 heartbeat IPC: 0.205159 cumulative IPC: 0.205031 (Simulation time: 67 hr 26 min 49 sec) 
 Total Blocks : 196608 Invalid Blocks : 0 Valid Blocks : 196608
 Total Tags : 491520 Threshold : 12288 Invalid Tags : 196609 Pr0 Tags : 98303 Pr1 Tags : 196608 num_pr0 : 12287
 SAE Count : 0
 Inter-Core Inteference in Data Store : 524180
Heartbeat CPU 5 instructions: 210000002 cycles: 159640198 heartbeat IPC: 0.204639 cumulative IPC: 0.204639 (Simulation time: 67 hr 28 min 31 sec) 
 Total Blocks : 196608 Invalid Blocks : 0 Valid Blocks : 196608
 Total Tags : 491520 Threshold : 12288 Invalid Tags : 196608 Pr0 Tags : 98304 Pr1 Tags : 196608 num_pr0 : 12288
 SAE Count : 0
 Inter-Core Inteference in Data Store : 526092
Heartbeat CPU 4 instructions: 220000000 cycles: 189965957 heartbeat IPC: 0.322391 cumulative IPC: 0.252197 (Simulation time: 78 hr 34 min 36 sec) 
 Total Blocks : 196608 Invalid Blocks : 0 Valid Blocks : 196608
 Total Tags : 491520 Threshold : 12288 Invalid Tags : 196608 Pr0 Tags : 98304 Pr1 Tags : 196608 num_pr0 : 12288
 SAE Count : 0
 Inter-Core Inteference in Data Store : 842981
Heartbeat CPU 1 instructions: 220000000 cycles: 189979456 heartbeat IPC: 0.321944 cumulative IPC: 0.251907 (Simulation time: 78 hr 34 min 53 sec) 
 Total Blocks : 196608 Invalid Blocks : 0 Valid Blocks : 196608
 Total Tags : 491520 Threshold : 12288 Invalid Tags : 196608 Pr0 Tags : 98304 Pr1 Tags : 196608 num_pr0 : 12288
 SAE Count : 0
 Inter-Core Inteference in Data Store : 843215
Heartbeat CPU 7 instructions: 220000000 cycles: 190017484 heartbeat IPC: 0.323433 cumulative IPC: 0.252114 (Simulation time: 78 hr 35 min 39 sec) 
 Total Blocks : 196608 Invalid Blocks : 0 Valid Blocks : 196608
 Total Tags : 491520 Threshold : 12288 Invalid Tags : 196608 Pr0 Tags : 98304 Pr1 Tags : 196608 num_pr0 : 12288
 SAE Count : 0
 Inter-Core Inteference in Data Store : 843879
Heartbeat CPU 2 instructions: 220000000 cycles: 190030098 heartbeat IPC: 0.323001 cumulative IPC: 0.252055 (Simulation time: 78 hr 36 min 15 sec) 
 Total Blocks : 196608 Invalid Blocks : 0 Valid Blocks : 196608
 Total Tags : 491520 Threshold : 12288 Invalid Tags : 196609 Pr0 Tags : 98303 Pr1 Tags : 196608 num_pr0 : 12288
 SAE Count : 0
 Inter-Core Inteference in Data Store : 844135
Heartbeat CPU 3 instructions: 220000000 cycles: 190481401 heartbeat IPC: 0.319977 cumulative IPC: 0.250644 (Simulation time: 78 hr 45 min 29 sec) 
 Total Blocks : 196608 Invalid Blocks : 0 Valid Blocks : 196608
 Total Tags : 491520 Threshold : 12288 Invalid Tags : 196608 Pr0 Tags : 98304 Pr1 Tags : 196608 num_pr0 : 12288
 SAE Count : 0
 Inter-Core Inteference in Data Store : 852905
Heartbeat CPU 0 instructions: 220000000 cycles: 190549426 heartbeat IPC: 0.319364 cumulative IPC: 0.250438 (Simulation time: 78 hr 46 min 34 sec) 
 Total Blocks : 196608 Invalid Blocks : 0 Valid Blocks : 196608
 Total Tags : 491520 Threshold : 12288 Invalid Tags : 196611 Pr0 Tags : 98301 Pr1 Tags : 196608 num_pr0 : 12288
 SAE Count : 0
 Inter-Core Inteference in Data Store : 854263
Heartbeat CPU 6 instructions: 220000000 cycles: 190674010 heartbeat IPC: 0.320912 cumulative IPC: 0.250225 (Simulation time: 78 hr 48 min 32 sec) 
 Total Blocks : 196608 Invalid Blocks : 0 Valid Blocks : 196608
 Total Tags : 491520 Threshold : 12288 Invalid Tags : 196611 Pr0 Tags : 98301 Pr1 Tags : 196608 num_pr0 : 12288
 SAE Count : 0
 Inter-Core Inteference in Data Store : 856688
Heartbeat CPU 5 instructions: 220000000 cycles: 190780476 heartbeat IPC: 0.321127 cumulative IPC: 0.249979 (Simulation time: 78 hr 50 min 22 sec) 
 Total Blocks : 196608 Invalid Blocks : 0 Valid Blocks : 196608
 Total Tags : 491520 Threshold : 12288 Invalid Tags : 196610 Pr0 Tags : 98302 Pr1 Tags : 196608 num_pr0 : 12288
 SAE Count : 0
 Inter-Core Inteference in Data Store : 858824
Heartbeat CPU 4 instructions: 230000002 cycles: 219210169 heartbeat IPC: 0.341948 cumulative IPC: 0.276402 (Simulation time: 85 hr 11 min 43 sec) 
 Total Blocks : 196608 Invalid Blocks : 0 Valid Blocks : 196608
 Total Tags : 491520 Threshold : 12288 Invalid Tags : 196610 Pr0 Tags : 98302 Pr1 Tags : 196608 num_pr0 : 12288
 SAE Count : 0
 Inter-Core Inteference in Data Store : 1261572
Heartbeat CPU 1 instructions: 230000002 cycles: 219234720 heartbeat IPC: 0.341819 cumulative IPC: 0.276159 (Simulation time: 85 hr 11 min 58 sec) 
 Total Blocks : 196608 Invalid Blocks : 0 Valid Blocks : 196608
 Total Tags : 491520 Threshold : 12288 Invalid Tags : 196608 Pr0 Tags : 98304 Pr1 Tags : 196608 num_pr0 : 12288
 SAE Count : 0
 Inter-Core Inteference in Data Store : 1261929
Heartbeat CPU 2 instructions: 230000002 cycles: 219283604 heartbeat IPC: 0.341839 cumulative IPC: 0.27626 (Simulation time: 85 hr 12 min 28 sec) 
 Total Blocks : 196608 Invalid Blocks : 0 Valid Blocks : 196608
 Total Tags : 491520 Threshold : 12288 Invalid Tags : 196610 Pr0 Tags : 98302 Pr1 Tags : 196608 num_pr0 : 12288
 SAE Count : 0
 Inter-Core Inteference in Data Store : 1262658
Heartbeat CPU 7 instructions: 230000002 cycles: 219324236 heartbeat IPC: 0.341218 cumulative IPC: 0.276171 (Simulation time: 85 hr 12 min 47 sec) 
 Total Blocks : 196608 Invalid Blocks : 0 Valid Blocks : 196608
 Total Tags : 491520 Threshold : 12288 Invalid Tags : 196610 Pr0 Tags : 98302 Pr1 Tags : 196608 num_pr0 : 12287
 SAE Count : 0
 Inter-Core Inteference in Data Store : 1263205
Heartbeat CPU 6 instructions: 230000002 cycles: 219686646 heartbeat IPC: 0.344677 cumulative IPC: 0.275385 (Simulation time: 85 hr 16 min 46 sec) 
 Total Blocks : 196608 Invalid Blocks : 0 Valid Blocks : 196608
 Total Tags : 491520 Threshold : 12288 Invalid Tags : 196609 Pr0 Tags : 98303 Pr1 Tags : 196608 num_pr0 : 12288
 SAE Count : 0
 Inter-Core Inteference in Data Store : 1268065
Heartbeat CPU 3 instructions: 230000002 cycles: 219710095 heartbeat IPC: 0.34213 cumulative IPC: 0.275191 (Simulation time: 85 hr 16 min 58 sec) 
 Total Blocks : 196608 Invalid Blocks : 0 Valid Blocks : 196608
 Total Tags : 491520 Threshold : 12288 Invalid Tags : 196610 Pr0 Tags : 98302 Pr1 Tags : 196608 num_pr0 : 12288
 SAE Count : 0
 Inter-Core Inteference in Data Store : 1268409
Heartbeat CPU 0 instructions: 230000002 cycles: 219762075 heartbeat IPC: 0.342318 cumulative IPC: 0.275065 (Simulation time: 85 hr 17 min 25 sec) 
 Total Blocks : 196608 Invalid Blocks : 0 Valid Blocks : 196608
 Total Tags : 491520 Threshold : 12288 Invalid Tags : 196610 Pr0 Tags : 98302 Pr1 Tags : 196608 num_pr0 : 12288
 SAE Count : 0
 Inter-Core Inteference in Data Store : 1269154
Heartbeat CPU 5 instructions: 230000002 cycles: 219905367 heartbeat IPC: 0.343349 cumulative IPC: 0.274897 (Simulation time: 85 hr 18 min 47 sec) 
 Total Blocks : 196608 Invalid Blocks : 0 Valid Blocks : 196608
 Total Tags : 491520 Threshold : 12288 Invalid Tags : 196610 Pr0 Tags : 98302 Pr1 Tags : 196608 num_pr0 : 12288
 SAE Count : 0
 Inter-Core Inteference in Data Store : 1271226
Heartbeat CPU 4 instructions: 240000000 cycles: 251762573 heartbeat IPC: 0.307197 cumulative IPC: 0.283512 (Simulation time: 90 hr 47 min 44 sec) 
 Total Blocks : 196608 Invalid Blocks : 0 Valid Blocks : 196608
 Total Tags : 491520 Threshold : 12288 Invalid Tags : 196609 Pr0 Tags : 98303 Pr1 Tags : 196608 num_pr0 : 12288
 SAE Count : 0
 Inter-Core Inteference in Data Store : 1659973
Heartbeat CPU 1 instructions: 240000000 cycles: 251778070 heartbeat IPC: 0.307282 cumulative IPC: 0.283342 (Simulation time: 90 hr 47 min 50 sec) 
 Total Blocks : 196608 Invalid Blocks : 0 Valid Blocks : 196608
 Total Tags : 491520 Threshold : 12288 Invalid Tags : 196609 Pr0 Tags : 98303 Pr1 Tags : 196608 num_pr0 : 12288
 SAE Count : 0
 Inter-Core Inteference in Data Store : 1660175
Heartbeat CPU 7 instructions: 240000000 cycles: 251890311 heartbeat IPC: 0.307068 cumulative IPC: 0.283301 (Simulation time: 90 hr 49 min 7 sec) 
 Total Blocks : 196608 Invalid Blocks : 0 Valid Blocks : 196608
 Total Tags : 491520 Threshold : 12288 Invalid Tags : 196609 Pr0 Tags : 98303 Pr1 Tags : 196608 num_pr0 : 12288
 SAE Count : 0
 Inter-Core Inteference in Data Store : 1661651
Heartbeat CPU 2 instructions: 240000000 cycles: 252040218 heartbeat IPC: 0.305282 cumulative IPC: 0.28299 (Simulation time: 90 hr 50 min 13 sec) 
 Total Blocks : 196608 Invalid Blocks : 0 Valid Blocks : 196608
 Total Tags : 491520 Threshold : 12288 Invalid Tags : 196610 Pr0 Tags : 98302 Pr1 Tags : 196608 num_pr0 : 12288
 SAE Count : 0
 Inter-Core Inteference in Data Store : 1664037
Heartbeat CPU 6 instructions: 240000000 cycles: 252228997 heartbeat IPC: 0.307292 cumulative IPC: 0.282726 (Simulation time: 90 hr 52 min 24 sec) 
 Total Blocks : 196608 Invalid Blocks : 0 Valid Blocks : 196608
 Total Tags : 491520 Threshold : 12288 Invalid Tags : 196611 Pr0 Tags : 98301 Pr1 Tags : 196608 num_pr0 : 12288
 SAE Count : 0
 Inter-Core Inteference in Data Store : 1666526
Heartbeat CPU 3 instructions: 240000000 cycles: 252245216 heartbeat IPC: 0.30736 cumulative IPC: 0.282589 (Simulation time: 90 hr 52 min 52 sec) 
 Total Blocks : 196608 Invalid Blocks : 0 Valid Blocks : 196608
 Total Tags : 491520 Threshold : 12288 Invalid Tags : 196608 Pr0 Tags : 98304 Pr1 Tags : 196608 num_pr0 : 12288
 SAE Count : 0
 Inter-Core Inteference in Data Store : 1666730
Heartbeat CPU 0 instructions: 240000000 cycles: 252322754 heartbeat IPC: 0.307119 cumulative IPC: 0.282438 (Simulation time: 90 hr 53 min 30 sec) 
 Total Blocks : 196608 Invalid Blocks : 0 Valid Blocks : 196608
 Total Tags : 491520 Threshold : 12288 Invalid Tags : 196611 Pr0 Tags : 98301 Pr1 Tags : 196608 num_pr0 : 12288
 SAE Count : 0
 Inter-Core Inteference in Data Store : 1667694
Heartbeat CPU 5 instructions: 240000000 cycles: 252397274 heartbeat IPC: 0.307769 cumulative IPC: 0.282439 (Simulation time: 90 hr 54 min 4 sec) 
 Total Blocks : 196608 Invalid Blocks : 0 Valid Blocks : 196608
 Total Tags : 491520 Threshold : 12288 Invalid Tags : 196609 Pr0 Tags : 98303 Pr1 Tags : 196608 num_pr0 : 12288
 SAE Count : 0
 Inter-Core Inteference in Data Store : 1668678
Heartbeat CPU 1 instructions: 250000000 cycles: 294110827 heartbeat IPC: 0.236224 cumulative IPC: 0.272462 (Simulation time: 96 hr 0 min 58 sec) 
 Total Blocks : 196608 Invalid Blocks : 0 Valid Blocks : 196608
 Total Tags : 491520 Threshold : 12288 Invalid Tags : 196611 Pr0 Tags : 98301 Pr1 Tags : 196608 num_pr0 : 12288
 SAE Count : 0
 Inter-Core Inteference in Data Store : 2129357
Heartbeat CPU 4 instructions: 250000000 cycles: 294114691 heartbeat IPC: 0.236116 cumulative IPC: 0.272563 (Simulation time: 96 hr 1 min 0 sec) 
 Total Blocks : 196608 Invalid Blocks : 0 Valid Blocks : 196608
 Total Tags : 491520 Threshold : 12288 Invalid Tags : 196609 Pr0 Tags : 98303 Pr1 Tags : 196608 num_pr0 : 12287
 SAE Count : 0
 Inter-Core Inteference in Data Store : 2129421
Heartbeat CPU 0 instructions: 250000000 cycles: 294437281 heartbeat IPC: 0.237448 cumulative IPC: 0.272122 (Simulation time: 96 hr 5 min 56 sec) 
 Total Blocks : 196608 Invalid Blocks : 0 Valid Blocks : 196608
 Total Tags : 491520 Threshold : 12288 Invalid Tags : 196612 Pr0 Tags : 98300 Pr1 Tags : 196608 num_pr0 : 12288
 SAE Count : 0
 Inter-Core Inteference in Data Store : 2135402
Heartbeat CPU 2 instructions: 250000000 cycles: 294516504 heartbeat IPC: 0.235425 cumulative IPC: 0.271994 (Simulation time: 96 hr 7 min 18 sec) 
 Total Blocks : 196608 Invalid Blocks : 0 Valid Blocks : 196608
 Total Tags : 491520 Threshold : 12288 Invalid Tags : 196609 Pr0 Tags : 98303 Pr1 Tags : 196608 num_pr0 : 12288
 SAE Count : 0
 Inter-Core Inteference in Data Store : 2136951
Heartbeat CPU 6 instructions: 250000000 cycles: 294609493 heartbeat IPC: 0.235958 cumulative IPC: 0.271944 (Simulation time: 96 hr 8 min 48 sec) 
 Total Blocks : 196608 Invalid Blocks : 0 Valid Blocks : 196608
 Total Tags : 491520 Threshold : 12288 Invalid Tags : 196609 Pr0 Tags : 98303 Pr1 Tags : 196608 num_pr0 : 12288
 SAE Count : 0
 Inter-Core Inteference in Data Store : 2138752
Heartbeat CPU 7 instructions: 250000000 cycles: 294653444 heartbeat IPC: 0.233846 cumulative IPC: 0.2718 (Simulation time: 96 hr 9 min 36 sec) 
 Total Blocks : 196608 Invalid Blocks : 0 Valid Blocks : 196608
 Total Tags : 491520 Threshold : 12288 Invalid Tags : 196609 Pr0 Tags : 98303 Pr1 Tags : 196608 num_pr0 : 12287
 SAE Count : 0
 Inter-Core Inteference in Data Store : 2139609
[...]
LLC4 LOAD      ACCESS: 246672  HIT:  1111  MISS: 245561  HIT %: 0.450396  MISS %: 99.5496  AVERAGE MISS PENALTY: 483.15
LLC4 RFO       ACCESS: 52708  HIT:    40  MISS: 52668  HIT %: 0.0758898  MISS %: 99.9241  AVERAGE MISS PENALTY: 460.673
LLC4 PREFETCH  ACCESS: 477261  HIT:  7395  MISS: 469866  HIT %: 1.54947  MISS %: 98.4505  AVERAGE MISS PENALTY: 484.508
LLC4 WRITEBACK ACCESS: 151389  HIT:  1600  MISS: 149789  HIT %: 1.05688  MISS %: 98.9431  AVERAGE MISS PENALTY: 0
LLC4 PREFETCH  REQUESTED:     0  ISSUED:     0  USEFUL:   734  USELESS: 13135
 USEFUL LOAD PREFETCHES:        734 PREFETCH ISSUED TO LOWER LEVEL:    3785853  ACCURACY: 0.019388
 TIMELY PREFETCHES:        734 LATE PREFETCHES: 0 DROPPED PREFETCHES: 0
LLC4 AVERAGE MISS LATENCY: 403.71 cycles

LLC4 Set Associative Eviction Count : 0
LLC4 Priority 0 entries : 12288
LLC4 Inter-Core Interference : 1062587
LLC5 TOTAL     ACCESS: 927987  HIT:  9880  MISS: 918107  HIT %: 1.06467  MISS %: 98.9353  AVERAGE MISS PENALTY: 390.63
LLC5 LOAD      ACCESS: 260083  HIT:  1149  MISS: 258934  HIT %: 0.441782  MISS %: 99.5582  AVERAGE MISS PENALTY: 461.716
LLC5 RFO       ACCESS: 52718  HIT:    39  MISS: 52679  HIT %: 0.0739785  MISS %: 99.926  AVERAGE MISS PENALTY: 452.757
LLC5 PREFETCH  ACCESS: 464650  HIT:  7068  MISS: 457582  HIT %: 1.52114  MISS %: 98.4789  AVERAGE MISS PENALTY: 470.375
LLC5 WRITEBACK ACCESS: 150536  HIT:  1624  MISS: 148912  HIT %: 1.07881  MISS %: 98.9212  AVERAGE MISS PENALTY: 0
LLC5 PREFETCH  REQUESTED:     0  ISSUED:     0  USEFUL:   733  USELESS: 13045
 USEFUL LOAD PREFETCHES:        733 PREFETCH ISSUED TO LOWER LEVEL:    3682387  ACCURACY: 0.0199056
 TIMELY PREFETCHES:        733 LATE PREFETCHES: 0 DROPPED PREFETCHES: 0
LLC5 AVERAGE MISS LATENCY: 390.63 cycles

LLC5 Set Associative Eviction Count : 0
LLC5 Priority 0 entries : 12288
LLC5 Inter-Core Interference : 1056222
LLC6 TOTAL     ACCESS: 929114  HIT: 10197  MISS: 918917  HIT %: 1.0975  MISS %: 98.9025  AVERAGE MISS PENALTY: 400.058
LLC6 LOAD      ACCESS: 260418  HIT:  1218  MISS: 259200  HIT %: 0.46771  MISS %: 99.5323  AVERAGE MISS PENALTY: 480.066
LLC6 RFO       ACCESS: 52676  HIT:    20  MISS: 52656  HIT %: 0.037968  MISS %: 99.962  AVERAGE MISS PENALTY: 462.496
LLC6 PREFETCH  ACCESS: 464869  HIT:  7189  MISS: 457680  HIT %: 1.54646  MISS %: 98.4535  AVERAGE MISS PENALTY: 478.136
LLC6 WRITEBACK ACCESS: 151151  HIT:  1770  MISS: 149381  HIT %: 1.17101  MISS %: 98.829  AVERAGE MISS PENALTY: 0
LLC6 PREFETCH  REQUESTED:     0  ISSUED:     0  USEFUL:   799  USELESS: 13366
 USEFUL LOAD PREFETCHES:        799 PREFETCH ISSUED TO LOWER LEVEL:    3682220  ACCURACY: 0.0216989
 TIMELY PREFETCHES:        799 LATE PREFETCHES: 0 DROPPED PREFETCHES: 0
LLC6 AVERAGE MISS LATENCY: 400.058 cycles

LLC6 Set Associative Eviction Count : 0
LLC6 Priority 0 entries : 12288
LLC6 Inter-Core Interference : 1060413
LLC7 TOTAL     ACCESS: 924876  HIT:  9881  MISS: 914995  HIT %: 1.06836  MISS %: 98.9316  AVERAGE MISS PENALTY: 389.794
LLC7 LOAD      ACCESS: 277795  HIT:  1159  MISS: 276636  HIT %: 0.417214  MISS %: 99.5828  AVERAGE MISS PENALTY: 458.561
LLC7 RFO       ACCESS: 52684  HIT:    18  MISS: 52666  HIT %: 0.034166  MISS %: 99.9658  AVERAGE MISS PENALTY: 454.953
LLC7 PREFETCH  ACCESS: 443179  HIT:  6777  MISS: 436402  HIT %: 1.52918  MISS %: 98.4708  AVERAGE MISS PENALTY: 471.686
LLC7 WRITEBACK ACCESS: 151218  HIT:  1927  MISS: 149291  HIT %: 1.27432  MISS %: 98.7257  AVERAGE MISS PENALTY: 0
LLC7 PREFETCH  REQUESTED:     0  ISSUED:     0  USEFUL:   792  USELESS: 12778
 USEFUL LOAD PREFETCHES:        792 PREFETCH ISSUED TO LOWER LEVEL:    3508285  ACCURACY: 0.0225751
 TIMELY PREFETCHES:        792 LATE PREFETCHES: 0 DROPPED PREFETCHES: 0
LLC7 AVERAGE MISS LATENCY: 389.794 cycles

LLC7 Set Associative Eviction Count : 0
LLC7 Priority 0 entries : 12288
LLC7 Inter-Core Interference : 1059446
ROI Average ROB Stall Cycles:	11.0927
ROI Total ROB Stalls Cycles:	697046798
ROI TOTAL ROB counter      :	62838093
ROI Average Load ROB Stall Cycles:	38.3851
ROI Total Load ROB Stalls Cycle  :	395349710
ROI Total Load ROB stalls Counter:	10299555
Major fault: 0 Minor fault: 97432

CPU 7 cumulative IPC: 0.274127 instructions: 200000000 cycles: 729588363
ITLB TOTAL     ACCESS: 45243713  HIT: 45243713  MISS:     0  HIT %:   100  MISS %:     0  AVERAGE MISS PENALTY: 0
ITLB LOAD      ACCESS: 45243713  HIT: 45243713  MISS:     0  HIT %:   100  MISS %:     0  AVERAGE MISS PENALTY: 0
ITLB RFO       ACCESS:     0  HIT:     0  MISS:     0  HIT %:     0  MISS %:     0  AVERAGE MISS PENALTY: 0
ITLB PREFETCH  ACCESS:     0  HIT:     0  MISS:     0  HIT %:     0  MISS %:     0  AVERAGE MISS PENALTY: 0
ITLB WRITEBACK ACCESS:     0  HIT:     0  MISS:     0  HIT %:     0  MISS %:     0  AVERAGE MISS PENALTY: 0
ITLB PREFETCH  REQUESTED:     0  ISSUED:     0  USEFUL:     0  USELESS:     0
 USEFUL LOAD PREFETCHES:          0 PREFETCH ISSUED TO LOWER LEVEL:          0  ACCURACY: -nan
 TIMELY PREFETCHES:          0 LATE PREFETCHES: 0 DROPPED PREFETCHES: 0
ITLB AVERAGE MISS LATENCY: -nan cycles

ITLB Set Associative Eviction Count : 0
ITLB Priority 0 entries : 0
ITLB Inter-Core Interference : 0
DTLB TOTAL     ACCESS: 63262776  HIT: 62523746  MISS: 739030  HIT %: 98.8318  MISS %: 1.16819  AVERAGE MISS PENALTY: 29.7173
DTLB LOAD      ACCESS: 40975690  HIT: 40257933  MISS: 717757  HIT %: 98.2483  MISS %: 1.75167  AVERAGE MISS PENALTY: 29.2217
DTLB RFO       ACCESS: 22287086  HIT: 22265813  MISS: 21273  HIT %: 99.9046  MISS %: 0.0954499  AVERAGE MISS PENALTY: 46.4368
DTLB PREFETCH  ACCESS:     0  HIT:     0  MISS:     0  HIT %:     0  MISS %:     0  AVERAGE MISS PENALTY: 0
DTLB WRITEBACK ACCESS:     0  HIT:     0  MISS:     0  HIT %:     0  MISS %:     0  AVERAGE MISS PENALTY: 0
DTLB PREFETCH  REQUESTED:     0  ISSUED:     0  USEFUL:     0  USELESS:     0
 USEFUL LOAD PREFETCHES:          0 PREFETCH ISSUED TO LOWER LEVEL:          0  ACCURACY: -nan
 TIMELY PREFETCHES:          0 LATE PREFETCHES: 0 DROPPED PREFETCHES: 0
DTLB AVERAGE MISS LATENCY: 29.7173 cycles

DTLB Set Associative Eviction Count : 0
DTLB Priority 0 entries : 0
DTLB Inter-Core Interference : 0
STLB TOTAL     ACCESS: 739030  HIT: 587090  MISS: 151940  HIT %: 79.4406  MISS %: 20.5594  AVERAGE MISS PENALTY: 100
STLB LOAD      ACCESS: 717757  HIT: 573393  MISS: 144364  HIT %: 79.8868  MISS %: 20.1132  AVERAGE MISS PENALTY: 100
STLB RFO       ACCESS: 21273  HIT: 13697  MISS:  7576  HIT %: 64.3868  MISS %: 35.6132  AVERAGE MISS PENALTY: 100
STLB PREFETCH  ACCESS:     0  HIT:     0  MISS:     0  HIT %:     0  MISS %:     0  AVERAGE MISS PENALTY: 0
STLB WRITEBACK ACCESS:     0  HIT:     0  MISS:     0  HIT %:     0  MISS %:     0  AVERAGE MISS PENALTY: 0
STLB PREFETCH  REQUESTED:     0  ISSUED:     0  USEFUL:     0  USELESS:     0
 USEFUL LOAD PREFETCHES:          0 PREFETCH ISSUED TO LOWER LEVEL:          0  ACCURACY: -nan
 TIMELY PREFETCHES:          0 LATE PREFETCHES: 0 DROPPED PREFETCHES: 0
STLB AVERAGE MISS LATENCY: 100 cycles

STLB Set Associative Eviction Count : 0
STLB Priority 0 entries : 0
STLB Inter-Core Interference : 0
L1D TOTAL     ACCESS: 118510195  HIT: 111733788  MISS: 6776407  HIT %: 94.282  MISS %: 5.71799  AVERAGE MISS PENALTY: 7.32076e+07
L1D LOAD      ACCESS: 40709716  HIT: 37851504  MISS: 2858212  HIT %: 92.979  MISS %: 7.02096  AVERAGE MISS PENALTY: 1.71351e+08
L1D RFO       ACCESS: 55515275  HIT: 55073647  MISS: 441628  HIT %: 99.2045  MISS %: 0.795507  AVERAGE MISS PENALTY: 1.43213e+07
L1D PREFETCH  ACCESS: 22285204  HIT: 18808637  MISS: 3476567  HIT %: 84.3997  MISS %: 15.6003  AVERAGE MISS PENALTY: 342.701
L1D WRITEBACK ACCESS:     0  HIT:     0  MISS:     0  HIT %:     0  MISS %:     0  AVERAGE MISS PENALTY: 0
L1D PREFETCH  REQUESTED: 25308630  ISSUED: 25122550  USEFUL: 2191490  USELESS: 1284912
 USEFUL LOAD PREFETCHES:    2191490 PREFETCH ISSUED TO LOWER LEVEL:    6815772  ACCURACY: 32.1532
 TIMELY PREFETCHES:    2191490 LATE PREFETCHES: 1217054 DROPPED PREFETCHES: 186080
L1D AVERAGE MISS LATENCY: 933705 cycles

L1D Set Associative Eviction Count : 0
L1D Priority 0 entries : 0
L1D Inter-Core Interference : 0
L1I TOTAL     ACCESS: 56972230  HIT: 56972230  MISS:     0  HIT %:   100  MISS %:     0  AVERAGE MISS PENALTY: 0
L1I LOAD      ACCESS: 56972230  HIT: 56972230  MISS:     0  HIT %:   100  MISS %:     0  AVERAGE MISS PENALTY: 0
L1I RFO       ACCESS:     0  HIT:     0  MISS:     0  HIT %:     0  MISS %:     0  AVERAGE MISS PENALTY: 0
L1I PREFETCH  ACCESS:     0  HIT:     0  MISS:     0  HIT %:     0  MISS %:     0  AVERAGE MISS PENALTY: 0
L1I WRITEBACK ACCESS:     0  HIT:     0  MISS:     0  HIT %:     0  MISS %:     0  AVERAGE MISS PENALTY: 0
L1I PREFETCH  REQUESTED:     0  ISSUED:     0  USEFUL:     0  USELESS:     0
 USEFUL LOAD PREFETCHES:          0 PREFETCH ISSUED TO LOWER LEVEL:          0  ACCURACY: -nan
 TIMELY PREFETCHES:          0 LATE PREFETCHES: 0 DROPPED PREFETCHES: 0
L1I AVERAGE MISS LATENCY: -nan cycles

L1I Set Associative Eviction Count : 0
L1I Priority 0 entries : 0
L1I Inter-Core Interference : 0
L2C TOTAL     ACCESS: 9150573  HIT: 2910364  MISS: 6240209  HIT %: 31.8053  MISS %: 68.1947  AVERAGE MISS PENALTY: 7.06974e+07
L2C LOAD      ACCESS: 2822264  HIT: 217370  MISS: 2604894  HIT %: 7.70197  MISS %: 92.298  AVERAGE MISS PENALTY: 1.69278e+08
L2C RFO       ACCESS: 428210  HIT:  4673  MISS: 423537  HIT %: 1.09129  MISS %: 98.9087  AVERAGE MISS PENALTY: 506682
L2C PREFETCH  ACCESS: 4594895  HIT: 1390488  MISS: 3204407  HIT %: 30.2616  MISS %: 69.7384  AVERAGE MISS PENALTY: 508.219
L2C WRITEBACK ACCESS: 1305204  HIT: 1297833  MISS:  7371  HIT %: 99.4353  MISS %: 0.564739  AVERAGE MISS PENALTY: 0
L2C PREFETCH  REQUESTED: 1817329  ISSUED: 1795081  USEFUL: 132441  USELESS: 3073471
 USEFUL LOAD PREFETCHES:     132441 PREFETCH ISSUED TO LOWER LEVEL:    4506466  ACCURACY: 2.93891
 TIMELY PREFETCHES:     132441 LATE PREFETCHES: 932637 DROPPED PREFETCHES: 22248
L2C AVERAGE MISS LATENCY: 475.135 cycles

L2C Set Associative Eviction Count : 0
L2C Priority 0 entries : 0
L2C Inter-Core Interference : 0
LLC0 TOTAL     ACCESS: 920021  HIT: 11418  MISS: 908603  HIT %: 1.24106  MISS %: 98.7589  AVERAGE MISS PENALTY: 516.885
LLC0 LOAD      ACCESS: 244788  HIT:  1298  MISS: 243490  HIT %: 0.530255  MISS %: 99.4697  AVERAGE MISS PENALTY: 464.818
LLC0 RFO       ACCESS: 53882  HIT:    20  MISS: 53862  HIT %: 0.0371181  MISS %: 99.9629  AVERAGE MISS PENALTY: 453.434
LLC0 PREFETCH  ACCESS: 469198  HIT:  8090  MISS: 461108  HIT %: 1.72422  MISS %: 98.2758  AVERAGE MISS PENALTY: 720.096
LLC0 WRITEBACK ACCESS: 152153  HIT:  2010  MISS: 150143  HIT %: 1.32104  MISS %: 98.679  AVERAGE MISS PENALTY: 0
LLC0 PREFETCH  REQUESTED:     0  ISSUED:     0  USEFUL:   606  USELESS: 12499
 USEFUL LOAD PREFETCHES:        606 PREFETCH ISSUED TO LOWER LEVEL:    3710496  ACCURACY: 0.016332
 TIMELY PREFETCHES:        606 LATE PREFETCHES: 0 DROPPED PREFETCHES: 0
LLC0 AVERAGE MISS LATENCY: 394.969 cycles

LLC0 Set Associative Eviction Count : 0
LLC0 Priority 0 entries : 12288
LLC0 Inter-Core Interference : 1064350
LLC1 TOTAL     ACCESS: 934347  HIT: 11585  MISS: 922762  HIT %: 1.2399  MISS %: 98.7601  AVERAGE MISS PENALTY: 403.944
LLC1 LOAD      ACCESS: 246848  HIT:  1453  MISS: 245395  HIT %: 0.588621  MISS %: 99.4114  AVERAGE MISS PENALTY: 477.047
LLC1 RFO       ACCESS: 52883  HIT:    50  MISS: 52833  HIT %: 0.0945483  MISS %: 99.9055  AVERAGE MISS PENALTY: 463.717
LLC1 PREFETCH  ACCESS: 483416  HIT:  8037  MISS: 475379  HIT %: 1.66254  MISS %: 98.3375  AVERAGE MISS PENALTY: 486.305
LLC1 WRITEBACK ACCESS: 151200  HIT:  2045  MISS: 149155  HIT %: 1.35251  MISS %: 98.6475  AVERAGE MISS PENALTY: 0
LLC1 PREFETCH  REQUESTED:     0  ISSUED:     0  USEFUL:   680  USELESS: 12456
 USEFUL LOAD PREFETCHES:        680 PREFETCH ISSUED TO LOWER LEVEL:    3822753  ACCURACY: 0.0177882
 TIMELY PREFETCHES:        680 LATE PREFETCHES: 0 DROPPED PREFETCHES: 0
LLC1 AVERAGE MISS LATENCY: 403.944 cycles

LLC1 Set Associative Eviction Count : 0
LLC1 Priority 0 entries : 12288
LLC1 Inter-Core Interference : 1058047
LLC2 TOTAL     ACCESS: 939853  HIT: 11592  MISS: 928261  HIT %: 1.23338  MISS %: 98.7666  AVERAGE MISS PENALTY: 395.277
LLC2 LOAD      ACCESS: 236617  HIT:  1250  MISS: 235367  HIT %: 0.52828  MISS %: 99.4717  AVERAGE MISS PENALTY: 467.565
LLC2 RFO       ACCESS: 52728  HIT:    38  MISS: 52690  HIT %: 0.072068  MISS %: 99.9279  AVERAGE MISS PENALTY: 459.689
LLC2 PREFETCH  ACCESS: 499166  HIT:  8474  MISS: 490692  HIT %: 1.69763  MISS %: 98.3024  AVERAGE MISS PENALTY: 474.125
LLC2 WRITEBACK ACCESS: 151342  HIT:  1830  MISS: 149512  HIT %: 1.20918  MISS %: 98.7908  AVERAGE MISS PENALTY: 0
LLC2 PREFETCH  REQUESTED:     0  ISSUED:     0  USEFUL:   668  USELESS: 13235
 USEFUL LOAD PREFETCHES:        668 PREFETCH ISSUED TO LOWER LEVEL:    3940249  ACCURACY: 0.0169532
 TIMELY PREFETCHES:        668 LATE PREFETCHES: 0 DROPPED PREFETCHES: 0
LLC2 AVERAGE MISS LATENCY: 395.277 cycles

LLC2 Set Associative Eviction Count : 0
LLC2 Priority 0 entries : 12288
LLC2 Inter-Core Interference : 1060487
LLC3 TOTAL     ACCESS: 933194  HIT: 11802  MISS: 921392  HIT %: 1.26469  MISS %: 98.7353  AVERAGE MISS PENALTY: 400.733
LLC3 LOAD      ACCESS: 247013  HIT:  1254  MISS: 245759  HIT %: 0.507666  MISS %: 99.4923  AVERAGE MISS PENALTY: 469.324
LLC3 RFO       ACCESS: 52729  HIT:    30  MISS: 52699  HIT %: 0.0568947  MISS %: 99.9431  AVERAGE MISS PENALTY: 467.679
LLC3 PREFETCH  ACCESS: 482598  HIT:  8722  MISS: 473876  HIT %: 1.8073  MISS %: 98.1927  AVERAGE MISS PENALTY: 483.766
LLC3 WRITEBACK ACCESS: 150854  HIT:  1796  MISS: 149058  HIT %: 1.19056  MISS %: 98.8094  AVERAGE MISS PENALTY: 0
LLC3 PREFETCH  REQUESTED:     0  ISSUED:     0  USEFUL:   712  USELESS: 13006
 USEFUL LOAD PREFETCHES:        712 PREFETCH ISSUED TO LOWER LEVEL:    3806506  ACCURACY: 0.0187048
 TIMELY PREFETCHES:        712 LATE PREFETCHES: 0 DROPPED PREFETCHES: 0
LLC3 AVERAGE MISS LATENCY: 400.733 cycles

LLC3 Set Associative Eviction Count : 0
LLC3 Priority 0 entries : 12288
LLC3 Inter-Core Interference : 1057600
LLC4 TOTAL     ACCESS: 929919  HIT: 11308  MISS: 918611  HIT %: 1.21602  MISS %: 98.784  AVERAGE MISS PENALTY: 403.64
LLC4 LOAD      ACCESS: 246859  HIT:  1196  MISS: 245663  HIT %: 0.484487  MISS %: 99.5155  AVERAGE MISS PENALTY: 483.29
LLC4 RFO       ACCESS: 52732  HIT:    25  MISS: 52707  HIT %: 0.0474095  MISS %: 99.9526  AVERAGE MISS PENALTY: 459.879
LLC4 PREFETCH  ACCESS: 478860  HIT:  8371  MISS: 470489  HIT %: 1.74811  MISS %: 98.2519  AVERAGE MISS PENALTY: 484.225
LLC4 WRITEBACK ACCESS: 151468  HIT:  1716  MISS: 149752  HIT %: 1.13291  MISS %: 98.8671  AVERAGE MISS PENALTY: 0
LLC4 PREFETCH  REQUESTED:     0  ISSUED:     0  USEFUL:   734  USELESS: 13135
 USEFUL LOAD PREFETCHES:        734 PREFETCH ISSUED TO LOWER LEVEL:    3785853  ACCURACY: 0.019388
 TIMELY PREFETCHES:        734 LATE PREFETCHES: 0 DROPPED PREFETCHES: 0
LLC4 AVERAGE MISS LATENCY: 403.64 cycles

LLC4 Set Associative Eviction Count : 0
LLC4 Priority 0 entries : 12288
LLC4 Inter-Core Interference : 1062587
LLC5 TOTAL     ACCESS: 929803  HIT: 11254  MISS: 918549  HIT %: 1.21036  MISS %: 98.7896  AVERAGE MISS PENALTY: 391.142
LLC5 LOAD      ACCESS: 260212  HIT:  1228  MISS: 258984  HIT %: 0.471923  MISS %: 99.5281  AVERAGE MISS PENALTY: 461.281
LLC5 RFO       ACCESS: 52738  HIT:    42  MISS: 52696  HIT %: 0.079639  MISS %: 99.9204  AVERAGE MISS PENALTY: 453.034
LLC5 PREFETCH  ACCESS: 466324  HIT:  8336  MISS: 457988  HIT %: 1.7876  MISS %: 98.2124  AVERAGE MISS PENALTY: 471.509
LLC5 WRITEBACK ACCESS: 150529  HIT:  1648  MISS: 148881  HIT %: 1.09481  MISS %: 98.9052  AVERAGE MISS PENALTY: 0
LLC5 PREFETCH  REQUESTED:     0  ISSUED:     0  USEFUL:   733  USELESS: 13045
 USEFUL LOAD PREFETCHES:        733 PREFETCH ISSUED TO LOWER LEVEL:    3682387  ACCURACY: 0.0199056
 TIMELY PREFETCHES:        733 LATE PREFETCHES: 0 DROPPED PREFETCHES: 0
LLC5 AVERAGE MISS LATENCY: 391.142 cycles

LLC5 Set Associative Eviction Count : 0
LLC5 Priority 0 entries : 12288
LLC5 Inter-Core Interference : 1056222
LLC6 TOTAL     ACCESS: 929912  HIT: 11391  MISS: 918521  HIT %: 1.22495  MISS %: 98.775  AVERAGE MISS PENALTY: 399.695
LLC6 LOAD      ACCESS: 260845  HIT:  1201  MISS: 259644  HIT %: 0.460427  MISS %: 99.5396  AVERAGE MISS PENALTY: 479.534
LLC6 RFO       ACCESS: 52682  HIT:    22  MISS: 52660  HIT %: 0.04176  MISS %: 99.9582  AVERAGE MISS PENALTY: 464.664
LLC6 PREFETCH  ACCESS: 465212  HIT:  8371  MISS: 456841  HIT %: 1.79939  MISS %: 98.2006  AVERAGE MISS PENALTY: 477.52
LLC6 WRITEBACK ACCESS: 151173  HIT:  1797  MISS: 149376  HIT %: 1.1887  MISS %: 98.8113  AVERAGE MISS PENALTY: 0
LLC6 PREFETCH  REQUESTED:     0  ISSUED:     0  USEFUL:   799  USELESS: 13366
 USEFUL LOAD PREFETCHES:        799 PREFETCH ISSUED TO LOWER LEVEL:    3682220  ACCURACY: 0.0216989
 TIMELY PREFETCHES:        799 LATE PREFETCHES: 0 DROPPED PREFETCHES: 0
LLC6 AVERAGE MISS LATENCY: 399.695 cycles

LLC6 Set Associative Eviction Count : 0
LLC6 Priority 0 entries : 12288
LLC6 Inter-Core Interference : 1060413
LLC7 TOTAL     ACCESS: 925731  HIT: 11010  MISS: 914721  HIT %: 1.18933  MISS %: 98.8107  AVERAGE MISS PENALTY: 389.289
LLC7 LOAD      ACCESS: 278485  HIT:  1171  MISS: 277314  HIT %: 0.420489  MISS %: 99.5795  AVERAGE MISS PENALTY: 457.698
LLC7 RFO       ACCESS: 52714  HIT:    20  MISS: 52694  HIT %: 0.0379406  MISS %: 99.9621  AVERAGE MISS PENALTY: 456.235
LLC7 PREFETCH  ACCESS: 443306  HIT:  7883  MISS: 435423  HIT %: 1.77823  MISS %: 98.2218  AVERAGE MISS PENALTY: 471.092
LLC7 WRITEBACK ACCESS: 151226  HIT:  1936  MISS: 149290  HIT %: 1.2802  MISS %: 98.7198  AVERAGE MISS PENALTY: 0
LLC7 PREFETCH  REQUESTED:     0  ISSUED:     0  USEFUL:   792  USELESS: 12778
 USEFUL LOAD PREFETCHES:        792 PREFETCH ISSUED TO LOWER LEVEL:    3508285  ACCURACY: 0.0225751
 TIMELY PREFETCHES:        792 LATE PREFETCHES: 0 DROPPED PREFETCHES: 0
LLC7 AVERAGE MISS LATENCY: 389.289 cycles

LLC7 Set Associative Eviction Count : 0
LLC7 Priority 0 entries : 12288
LLC7 Inter-Core Interference : 1059446
ROI Average ROB Stall Cycles:	11.1041
ROI Total ROB Stalls Cycles:	697757614
ROI TOTAL ROB counter      :	62837832
ROI Average Load ROB Stall Cycles:	38.4116
ROI Total Load ROB Stalls Cycle  :	395600667
ROI Total Load ROB stalls Counter:	10298977
Major fault: 0 Minor fault: 97431








Interconnect Stats 
LINK 0 BW : 0LINK 1 BW : 0LINK 2 BW : 0LINK 3 BW : 0LINK 4 BW : 0LINK 5 BW : 0LINK 6 BW : 0LINK 7 BW : 0
DRAM Statistics
 CHANNEL 0
 RQ ROW_BUFFER_HIT: 6470177  ROW_BUFFER_MISS: 18191688
 DBUS_CONGESTED: 20895917
 WQ ROW_BUFFER_HIT: 191428  ROW_BUFFER_MISS: 4618349  FULL:    16

 CHANNEL 1
 RQ ROW_BUFFER_HIT: 6443866  ROW_BUFFER_MISS: 18261781
 DBUS_CONGESTED: 20895917
 WQ ROW_BUFFER_HIT: 185510  ROW_BUFFER_MISS: 4605449  FULL:   109

 AVG_CONGESTED_CYCLE: 6
DRAM PAGES: 2097152
Allocated PAGES: 779447
L2C destructor called
L1D destructor called
L1I destructor called
STLB destructor called
DTLB destructor called
ITLB destructor called
L2C destructor called
L1D destructor called
L1I destructor called
STLB destructor called
DTLB destructor called
ITLB destructor called
L2C destructor called
L1D destructor called
L1I destructor called
STLB destructor called
DTLB destructor called
ITLB destructor called
L2C destructor called
L1D destructor called
L1I destructor called
STLB destructor called
DTLB destructor called
ITLB destructor called
L2C destructor called
L1D destructor called
L1I destructor called
STLB destructor called
DTLB destructor called
ITLB destructor called
L2C destructor called
L1D destructor called
L1I destructor called
STLB destructor called
DTLB destructor called
ITLB destructor called
L2C destructor called
L1D destructor called
L1I destructor called
STLB destructor called
DTLB destructor called
ITLB destructor called
L2C destructor called
L1D destructor called
L1I destructor called
STLB destructor called
DTLB destructor called
ITLB destructor called
