
*** ChampSim Multicore Out-of-Order Simulator ***

Warmup Instructions: 200000000
Simulation Instructions: 200000000
Number of CPUs: 8
threads:1

L1I Configuration:
L1I_SET:64
L1I_WAY:8
L1I_RQ_SIZE:64
L1I_WQ_SIZE:64
L1I_PQ_SIZE:8
L1I_MSHR_SIZE:8

L1D Configuration:
L1D_SET:64
L1D_WAY:12
L1D_RQ_SIZE:64
L1D_WQ_SIZE:64
L1D_PQ_SIZE:8
L1D_MSHR_SIZE:16

L2C Configuration:
L2C_SET:1024
L2C_WAY:8
L2C_RQ_SIZE:32
L2C_WQ_SIZE:32
L2C_PQ_SIZE:16
L2C_MSHR_SIZE:32

LLC Configuration:
LLC_SET:2048
LLC_WAY:12
LLC SLICES:8
LLC_RQ_SIZE:64
LLC_WQ_SIZE:64
LLC_PQ_SIZE:32
LLC_MSHR_SIZE:64

Interconnect OFF
Attacker deprioritize is: OFF
Off-chip DRAM Size: 8192 MB Channels: 2 Width: 64-bit Data Rate: 3200 MT/s
PAGE SIZE in KB: 4.000000 
PAGE SIZE in MB: 0.003906 
PAGE offset in bits: 12 
CEASER-S_LLC:0
MIRAGE : 1
CEASER_LATENCY:3
REMAP : OFF
Partitions : 1
Multi-Step : OFF
BFS : OFF

CPU 0 runs /home/anubhav/spec_2017/605.mcf_s-472B.champsimtrace.xz
CPU 1 runs /home/anubhav/spec_2017/605.mcf_s-472B.champsimtrace.xz
CPU 2 runs /home/anubhav/spec_2017/605.mcf_s-472B.champsimtrace.xz
CPU 3 runs /home/anubhav/spec_2017/605.mcf_s-472B.champsimtrace.xz
CPU 4 runs /home/anubhav/spec_2017/605.mcf_s-472B.champsimtrace.xz
CPU 5 runs /home/anubhav/spec_2017/605.mcf_s-472B.champsimtrace.xz
CPU 6 runs /home/anubhav/spec_2017/605.mcf_s-472B.champsimtrace.xz
CPU 7 runs /home/anubhav/spec_2017/605.mcf_s-472B.champsimtrace.xz
CPU 0 Bimodal branch predictor
Initialize Hawkeye state
Initialize Hawkeye state
Initialize Hawkeye state
Initialize Hawkeye state
Initialize Hawkeye state
Initialize Hawkeye state
Initialize Hawkeye state
Initialize Hawkeye state
CPU 1 Bimodal branch predictor
Initialize Hawkeye state
Initialize Hawkeye state
Initialize Hawkeye state
Initialize Hawkeye state
Initialize Hawkeye state
Initialize Hawkeye state
Initialize Hawkeye state
Initialize Hawkeye state
CPU 2 Bimodal branch predictor
Initialize Hawkeye state
Initialize Hawkeye state
Initialize Hawkeye state
Initialize Hawkeye state
Initialize Hawkeye state
Initialize Hawkeye state
Initialize Hawkeye state
Initialize Hawkeye state
CPU 3 Bimodal branch predictor
Initialize Hawkeye state
Initialize Hawkeye state
Initialize Hawkeye state
Initialize Hawkeye state
Initialize Hawkeye state
Initialize Hawkeye state
Initialize Hawkeye state
Initialize Hawkeye state
CPU 4 Bimodal branch predictor
Initialize Hawkeye state
Initialize Hawkeye state
Initialize Hawkeye state
Initialize Hawkeye state
Initialize Hawkeye state
Initialize Hawkeye state
Initialize Hawkeye state
Initialize Hawkeye state
CPU 5 Bimodal branch predictor
Initialize Hawkeye state
Initialize Hawkeye state
Initialize Hawkeye state
Initialize Hawkeye state
Initialize Hawkeye state
Initialize Hawkeye state
Initialize Hawkeye state
Initialize Hawkeye state
CPU 6 Bimodal branch predictor
Initialize Hawkeye state
Initialize Hawkeye state
Initialize Hawkeye state
Initialize Hawkeye state
Initialize Hawkeye state
Initialize Hawkeye state
Initialize Hawkeye state
Initialize Hawkeye state
CPU 7 Bimodal branch predictor
Initialize Hawkeye state
Initialize Hawkeye state
Initialize Hawkeye state
Initialize Hawkeye state
Initialize Hawkeye state
Initialize Hawkeye state
Initialize Hawkeye state
Initialize Hawkeye state
FILL
Heartbeat CPU 0 instructions: 10000000 cycles: 5539680 heartbeat IPC: 1.80516 cumulative IPC: 1.80516 (Simulation time: 0 hr 56 min 58 sec) 
 Total Blocks : 196608 Invalid Blocks : 31726 Valid Blocks : 164882
 Total Tags : 491520 Threshold : 12288 Invalid Tags : 228336 Pr0 Tags : 98302 Pr1 Tags : 164882 num_pr0 : 12287
 SAE Count : 0
 Inter-Core Inteference in Data Store : 168155
Heartbeat CPU 2 instructions: 10000000 cycles: 5539684 heartbeat IPC: 1.80516 cumulative IPC: 1.80516 (Simulation time: 0 hr 56 min 58 sec) 
 Total Blocks : 196608 Invalid Blocks : 31726 Valid Blocks : 164882
 Total Tags : 491520 Threshold : 12288 Invalid Tags : 228336 Pr0 Tags : 98302 Pr1 Tags : 164882 num_pr0 : 12287
 SAE Count : 0
 Inter-Core Inteference in Data Store : 168155
Heartbeat CPU 5 instructions: 10000000 cycles: 5539688 heartbeat IPC: 1.80516 cumulative IPC: 1.80516 (Simulation time: 0 hr 56 min 58 sec) 
 Total Blocks : 196608 Invalid Blocks : 31726 Valid Blocks : 164882
 Total Tags : 491520 Threshold : 12288 Invalid Tags : 228336 Pr0 Tags : 98302 Pr1 Tags : 164882 num_pr0 : 12287
 SAE Count : 0
 Inter-Core Inteference in Data Store : 168155
Heartbeat CPU 1 instructions: 10000000 cycles: 5539694 heartbeat IPC: 1.80515 cumulative IPC: 1.80515 (Simulation time: 0 hr 56 min 58 sec) 
 Total Blocks : 196608 Invalid Blocks : 31726 Valid Blocks : 164882
 Total Tags : 491520 Threshold : 12288 Invalid Tags : 228336 Pr0 Tags : 98302 Pr1 Tags : 164882 num_pr0 : 12287
 SAE Count : 0
 Inter-Core Inteference in Data Store : 168155
Heartbeat CPU 3 instructions: 10000000 cycles: 5539957 heartbeat IPC: 1.80507 cumulative IPC: 1.80507 (Simulation time: 0 hr 56 min 58 sec) 
 Total Blocks : 196608 Invalid Blocks : 31721 Valid Blocks : 164887
 Total Tags : 491520 Threshold : 12288 Invalid Tags : 228332 Pr0 Tags : 98301 Pr1 Tags : 164887 num_pr0 : 12286
 SAE Count : 0
 Inter-Core Inteference in Data Store : 168167
Heartbeat CPU 7 instructions: 10000000 cycles: 5540003 heartbeat IPC: 1.80505 cumulative IPC: 1.80505 (Simulation time: 0 hr 56 min 58 sec) 
 Total Blocks : 196608 Invalid Blocks : 31721 Valid Blocks : 164887
 Total Tags : 491520 Threshold : 12288 Invalid Tags : 228330 Pr0 Tags : 98303 Pr1 Tags : 164887 num_pr0 : 12288
 SAE Count : 0
 Inter-Core Inteference in Data Store : 168168
Heartbeat CPU 4 instructions: 10000000 cycles: 5540030 heartbeat IPC: 1.80504 cumulative IPC: 1.80504 (Simulation time: 0 hr 56 min 58 sec) 
 Total Blocks : 196608 Invalid Blocks : 31720 Valid Blocks : 164888
 Total Tags : 491520 Threshold : 12288 Invalid Tags : 228332 Pr0 Tags : 98300 Pr1 Tags : 164888 num_pr0 : 12286
 SAE Count : 0
 Inter-Core Inteference in Data Store : 168170
Heartbeat CPU 6 instructions: 10000000 cycles: 5540346 heartbeat IPC: 1.80494 cumulative IPC: 1.80494 (Simulation time: 0 hr 56 min 59 sec) 
 Total Blocks : 196608 Invalid Blocks : 31718 Valid Blocks : 164890
 Total Tags : 491520 Threshold : 12288 Invalid Tags : 228328 Pr0 Tags : 98302 Pr1 Tags : 164890 num_pr0 : 12288
 SAE Count : 0
 Inter-Core Inteference in Data Store : 168176
Heartbeat CPU 0 instructions: 20000003 cycles: 11105771 heartbeat IPC: 1.79659 cumulative IPC: 1.80087 (Simulation time: 2 hr 0 min 57 sec) 
 Total Blocks : 196608 Invalid Blocks : 3382 Valid Blocks : 193226
 Total Tags : 491520 Threshold : 12288 Invalid Tags : 199991 Pr0 Tags : 98303 Pr1 Tags : 193226 num_pr0 : 12287
 SAE Count : 0
 Inter-Core Inteference in Data Store : 525831
Heartbeat CPU 3 instructions: 20000003 cycles: 11106534 heartbeat IPC: 1.79644 cumulative IPC: 1.80074 (Simulation time: 2 hr 0 min 58 sec) 
 Total Blocks : 196608 Invalid Blocks : 3382 Valid Blocks : 193226
 Total Tags : 491520 Threshold : 12288 Invalid Tags : 199990 Pr0 Tags : 98304 Pr1 Tags : 193226 num_pr0 : 12288
 SAE Count : 0
 Inter-Core Inteference in Data Store : 525867
Heartbeat CPU 4 instructions: 20000003 cycles: 11106673 heartbeat IPC: 1.79642 cumulative IPC: 1.80072 (Simulation time: 2 hr 0 min 58 sec) 
 Total Blocks : 196608 Invalid Blocks : 3382 Valid Blocks : 193226
 Total Tags : 491520 Threshold : 12288 Invalid Tags : 199991 Pr0 Tags : 98303 Pr1 Tags : 193226 num_pr0 : 12288
 SAE Count : 0
 Inter-Core Inteference in Data Store : 525875
Heartbeat CPU 1 instructions: 20000003 cycles: 11108007 heartbeat IPC: 1.79588 cumulative IPC: 1.8005 (Simulation time: 2 hr 1 min 1 sec) 
 Total Blocks : 196608 Invalid Blocks : 3382 Valid Blocks : 193226
 Total Tags : 491520 Threshold : 12288 Invalid Tags : 199990 Pr0 Tags : 98304 Pr1 Tags : 193226 num_pr0 : 12288
 SAE Count : 0
 Inter-Core Inteference in Data Store : 525952
Heartbeat CPU 2 instructions: 20000003 cycles: 11108422 heartbeat IPC: 1.79574 cumulative IPC: 1.80044 (Simulation time: 2 hr 1 min 1 sec) 
 Total Blocks : 196608 Invalid Blocks : 3382 Valid Blocks : 193226
 Total Tags : 491520 Threshold : 12288 Invalid Tags : 199990 Pr0 Tags : 98304 Pr1 Tags : 193226 num_pr0 : 12288
 SAE Count : 0
 Inter-Core Inteference in Data Store : 525965
Heartbeat CPU 5 instructions: 20000003 cycles: 11108991 heartbeat IPC: 1.79556 cumulative IPC: 1.80034 (Simulation time: 2 hr 1 min 2 sec) 
 Total Blocks : 196608 Invalid Blocks : 3382 Valid Blocks : 193226
 Total Tags : 491520 Threshold : 12288 Invalid Tags : 199992 Pr0 Tags : 98302 Pr1 Tags : 193226 num_pr0 : 12287
 SAE Count : 0
 Inter-Core Inteference in Data Store : 525996
Heartbeat CPU 7 instructions: 20000003 cycles: 11109652 heartbeat IPC: 1.79545 cumulative IPC: 1.80024 (Simulation time: 2 hr 1 min 3 sec) 
 Total Blocks : 196608 Invalid Blocks : 3382 Valid Blocks : 193226
 Total Tags : 491520 Threshold : 12288 Invalid Tags : 199991 Pr0 Tags : 98303 Pr1 Tags : 193226 num_pr0 : 12288
 SAE Count : 0
 Inter-Core Inteference in Data Store : 526026
Heartbeat CPU 6 instructions: 20000003 cycles: 11109836 heartbeat IPC: 1.7955 cumulative IPC: 1.80021 (Simulation time: 2 hr 1 min 3 sec) 
 Total Blocks : 196608 Invalid Blocks : 3382 Valid Blocks : 193226
 Total Tags : 491520 Threshold : 12288 Invalid Tags : 199993 Pr0 Tags : 98301 Pr1 Tags : 193226 num_pr0 : 12287
 SAE Count : 0
 Inter-Core Inteference in Data Store : 526038
Heartbeat CPU 0 instructions: 30000000 cycles: 16653697 heartbeat IPC: 1.80247 cumulative IPC: 1.8014 (Simulation time: 3 hr 11 min 6 sec) 
 Total Blocks : 196608 Invalid Blocks : 216 Valid Blocks : 196392
 Total Tags : 491520 Threshold : 12288 Invalid Tags : 196824 Pr0 Tags : 98304 Pr1 Tags : 196392 num_pr0 : 12288
 SAE Count : 0
 Inter-Core Inteference in Data Store : 995629
Heartbeat CPU 3 instructions: 30000000 cycles: 16654982 heartbeat IPC: 1.80231 cumulative IPC: 1.80126 (Simulation time: 3 hr 11 min 7 sec) 
 Total Blocks : 196608 Invalid Blocks : 216 Valid Blocks : 196392
 Total Tags : 491520 Threshold : 12288 Invalid Tags : 196824 Pr0 Tags : 98304 Pr1 Tags : 196392 num_pr0 : 12288
 SAE Count : 0
 Inter-Core Inteference in Data Store : 995647
Heartbeat CPU 4 instructions: 30000000 cycles: 16655256 heartbeat IPC: 1.80226 cumulative IPC: 1.80123 (Simulation time: 3 hr 11 min 7 sec) 
 Total Blocks : 196608 Invalid Blocks : 216 Valid Blocks : 196392
 Total Tags : 491520 Threshold : 12288 Invalid Tags : 196824 Pr0 Tags : 98304 Pr1 Tags : 196392 num_pr0 : 12288
 SAE Count : 0
 Inter-Core Inteference in Data Store : 995654
Heartbeat CPU 1 instructions: 30000000 cycles: 16656080 heartbeat IPC: 1.80243 cumulative IPC: 1.80114 (Simulation time: 3 hr 11 min 8 sec) 
 Total Blocks : 196608 Invalid Blocks : 216 Valid Blocks : 196392
 Total Tags : 491520 Threshold : 12288 Invalid Tags : 196824 Pr0 Tags : 98304 Pr1 Tags : 196392 num_pr0 : 12288
 SAE Count : 0
 Inter-Core Inteference in Data Store : 995675
Heartbeat CPU 2 instructions: 30000000 cycles: 16656793 heartbeat IPC: 1.80233 cumulative IPC: 1.80107 (Simulation time: 3 hr 11 min 8 sec) 
 Total Blocks : 196608 Invalid Blocks : 216 Valid Blocks : 196392
 Total Tags : 491520 Threshold : 12288 Invalid Tags : 196824 Pr0 Tags : 98304 Pr1 Tags : 196392 num_pr0 : 12288
 SAE Count : 0
 Inter-Core Inteference in Data Store : 995686
Heartbeat CPU 5 instructions: 30000000 cycles: 16657476 heartbeat IPC: 1.80229 cumulative IPC: 1.80099 (Simulation time: 3 hr 11 min 8 sec) 
 Total Blocks : 196608 Invalid Blocks : 216 Valid Blocks : 196392
 Total Tags : 491520 Threshold : 12288 Invalid Tags : 196824 Pr0 Tags : 98304 Pr1 Tags : 196392 num_pr0 : 12288
 SAE Count : 0
 Inter-Core Inteference in Data Store : 995696
Heartbeat CPU 7 instructions: 30000000 cycles: 16658591 heartbeat IPC: 1.80215 cumulative IPC: 1.80087 (Simulation time: 3 hr 11 min 9 sec) 
 Total Blocks : 196608 Invalid Blocks : 216 Valid Blocks : 196392
 Total Tags : 491520 Threshold : 12288 Invalid Tags : 196824 Pr0 Tags : 98304 Pr1 Tags : 196392 num_pr0 : 12288
 SAE Count : 0
 Inter-Core Inteference in Data Store : 995713
Heartbeat CPU 6 instructions: 30000000 cycles: 16658752 heartbeat IPC: 1.80215 cumulative IPC: 1.80086 (Simulation time: 3 hr 11 min 9 sec) 
 Total Blocks : 196608 Invalid Blocks : 216 Valid Blocks : 196392
 Total Tags : 491520 Threshold : 12288 Invalid Tags : 196824 Pr0 Tags : 98304 Pr1 Tags : 196392 num_pr0 : 12288
 SAE Count : 0
 Inter-Core Inteference in Data Store : 995713
Heartbeat CPU 0 instructions: 40000000 cycles: 22197993 heartbeat IPC: 1.80366 cumulative IPC: 1.80196 (Simulation time: 4 hr 33 min 57 sec) 
 Total Blocks : 196608 Invalid Blocks : 33 Valid Blocks : 196575
 Total Tags : 491520 Threshold : 12288 Invalid Tags : 196642 Pr0 Tags : 98303 Pr1 Tags : 196575 num_pr0 : 12288
 SAE Count : 0
 Inter-Core Inteference in Data Store : 1346423
Heartbeat CPU 4 instructions: 40000000 cycles: 22199756 heartbeat IPC: 1.80359 cumulative IPC: 1.80182 (Simulation time: 4 hr 34 min 0 sec) 
 Total Blocks : 196608 Invalid Blocks : 33 Valid Blocks : 196575
 Total Tags : 491520 Threshold : 12288 Invalid Tags : 196643 Pr0 Tags : 98302 Pr1 Tags : 196575 num_pr0 : 12288
 SAE Count : 0
 Inter-Core Inteference in Data Store : 1346592
Heartbeat CPU 3 instructions: 40000000 cycles: 22199936 heartbeat IPC: 1.80344 cumulative IPC: 1.80181 (Simulation time: 4 hr 34 min 1 sec) 
 Total Blocks : 196608 Invalid Blocks : 33 Valid Blocks : 196575
 Total Tags : 491520 Threshold : 12288 Invalid Tags : 196642 Pr0 Tags : 98303 Pr1 Tags : 196575 num_pr0 : 12288
 SAE Count : 0
 Inter-Core Inteference in Data Store : 1346615
Heartbeat CPU 1 instructions: 40000000 cycles: 22200772 heartbeat IPC: 1.80353 cumulative IPC: 1.80174 (Simulation time: 4 hr 34 min 2 sec) 
 Total Blocks : 196608 Invalid Blocks : 33 Valid Blocks : 196575
 Total Tags : 491520 Threshold : 12288 Invalid Tags : 196643 Pr0 Tags : 98302 Pr1 Tags : 196575 num_pr0 : 12287
 SAE Count : 0
 Inter-Core Inteference in Data Store : 1346689
Heartbeat CPU 2 instructions: 40000000 cycles: 22201361 heartbeat IPC: 1.80357 cumulative IPC: 1.80169 (Simulation time: 4 hr 34 min 4 sec) 
 Total Blocks : 196608 Invalid Blocks : 33 Valid Blocks : 196575
 Total Tags : 491520 Threshold : 12288 Invalid Tags : 196643 Pr0 Tags : 98302 Pr1 Tags : 196575 num_pr0 : 12288
 SAE Count : 0
 Inter-Core Inteference in Data Store : 1346756
Heartbeat CPU 5 instructions: 40000000 cycles: 22203021 heartbeat IPC: 1.80325 cumulative IPC: 1.80156 (Simulation time: 4 hr 34 min 6 sec) 
 Total Blocks : 196608 Invalid Blocks : 33 Valid Blocks : 196575
 Total Tags : 491520 Threshold : 12288 Invalid Tags : 196641 Pr0 Tags : 98304 Pr1 Tags : 196575 num_pr0 : 12288
 SAE Count : 0
 Inter-Core Inteference in Data Store : 1346938
Heartbeat CPU 6 instructions: 40000000 cycles: 22203440 heartbeat IPC: 1.80353 cumulative IPC: 1.80152 (Simulation time: 4 hr 34 min 7 sec) 
 Total Blocks : 196608 Invalid Blocks : 33 Valid Blocks : 196575
 Total Tags : 491520 Threshold : 12288 Invalid Tags : 196643 Pr0 Tags : 98302 Pr1 Tags : 196575 num_pr0 : 12287
 SAE Count : 0
 Inter-Core Inteference in Data Store : 1346974
Heartbeat CPU 7 instructions: 40000000 cycles: 22203812 heartbeat IPC: 1.80335 cumulative IPC: 1.80149 (Simulation time: 4 hr 34 min 8 sec) 
 Total Blocks : 196608 Invalid Blocks : 33 Valid Blocks : 196575
 Total Tags : 491520 Threshold : 12288 Invalid Tags : 196644 Pr0 Tags : 98301 Pr1 Tags : 196575 num_pr0 : 12288
 SAE Count : 0
 Inter-Core Inteference in Data Store : 1347009
Heartbeat CPU 0 instructions: 50000000 cycles: 27724311 heartbeat IPC: 1.80952 cumulative IPC: 1.80347 (Simulation time: 5 hr 41 min 48 sec) 
 Total Blocks : 196608 Invalid Blocks : 3 Valid Blocks : 196605
 Total Tags : 491520 Threshold : 12288 Invalid Tags : 196611 Pr0 Tags : 98304 Pr1 Tags : 196605 num_pr0 : 12288
 SAE Count : 0
 Inter-Core Inteference in Data Store : 1699594
Heartbeat CPU 3 instructions: 50000000 cycles: 27726588 heartbeat IPC: 1.80941 cumulative IPC: 1.80332 (Simulation time: 5 hr 41 min 49 sec) 
 Total Blocks : 196608 Invalid Blocks : 3 Valid Blocks : 196605
 Total Tags : 491520 Threshold : 12288 Invalid Tags : 196611 Pr0 Tags : 98304 Pr1 Tags : 196605 num_pr0 : 12288
 SAE Count : 0
 Inter-Core Inteference in Data Store : 1699620
Heartbeat CPU 4 instructions: 50000000 cycles: 27726760 heartbeat IPC: 1.8093 cumulative IPC: 1.80331 (Simulation time: 5 hr 41 min 49 sec) 
 Total Blocks : 196608 Invalid Blocks : 3 Valid Blocks : 196605
 Total Tags : 491520 Threshold : 12288 Invalid Tags : 196611 Pr0 Tags : 98304 Pr1 Tags : 196605 num_pr0 : 12288
 SAE Count : 0
 Inter-Core Inteference in Data Store : 1699623
Heartbeat CPU 1 instructions: 50000000 cycles: 27727627 heartbeat IPC: 1.80935 cumulative IPC: 1.80326 (Simulation time: 5 hr 41 min 49 sec) 
 Total Blocks : 196608 Invalid Blocks : 3 Valid Blocks : 196605
 Total Tags : 491520 Threshold : 12288 Invalid Tags : 196611 Pr0 Tags : 98304 Pr1 Tags : 196605 num_pr0 : 12288
 SAE Count : 0
 Inter-Core Inteference in Data Store : 1699635
Heartbeat CPU 2 instructions: 50000000 cycles: 27728266 heartbeat IPC: 1.80933 cumulative IPC: 1.80321 (Simulation time: 5 hr 41 min 50 sec) 
 Total Blocks : 196608 Invalid Blocks : 3 Valid Blocks : 196605
 Total Tags : 491520 Threshold : 12288 Invalid Tags : 196611 Pr0 Tags : 98304 Pr1 Tags : 196605 num_pr0 : 12288
 SAE Count : 0
 Inter-Core Inteference in Data Store : 1699642
Heartbeat CPU 5 instructions: 50000000 cycles: 27730193 heartbeat IPC: 1.80924 cumulative IPC: 1.80309 (Simulation time: 5 hr 41 min 52 sec) 
 Total Blocks : 196608 Invalid Blocks : 3 Valid Blocks : 196605
 Total Tags : 491520 Threshold : 12288 Invalid Tags : 196611 Pr0 Tags : 98304 Pr1 Tags : 196605 num_pr0 : 12288
 SAE Count : 0
 Inter-Core Inteference in Data Store : 1699662
Heartbeat CPU 6 instructions: 50000000 cycles: 27730835 heartbeat IPC: 1.80917 cumulative IPC: 1.80305 (Simulation time: 5 hr 41 min 52 sec) 
 Total Blocks : 196608 Invalid Blocks : 3 Valid Blocks : 196605
 Total Tags : 491520 Threshold : 12288 Invalid Tags : 196611 Pr0 Tags : 98304 Pr1 Tags : 196605 num_pr0 : 12288
 SAE Count : 0
 Inter-Core Inteference in Data Store : 1699672
Heartbeat CPU 7 instructions: 50000000 cycles: 27731709 heartbeat IPC: 1.80901 cumulative IPC: 1.80299 (Simulation time: 5 hr 41 min 53 sec) 
 Total Blocks : 196608 Invalid Blocks : 3 Valid Blocks : 196605
 Total Tags : 491520 Threshold : 12288 Invalid Tags : 196611 Pr0 Tags : 98304 Pr1 Tags : 196605 num_pr0 : 12288
 SAE Count : 0
 Inter-Core Inteference in Data Store : 1699682
Heartbeat CPU 0 instructions: 60000001 cycles: 33236522 heartbeat IPC: 1.81415 cumulative IPC: 1.80524 (Simulation time: 6 hr 46 min 7 sec) 
 Total Blocks : 196608 Invalid Blocks : 1 Valid Blocks : 196607
 Total Tags : 491520 Threshold : 12288 Invalid Tags : 196609 Pr0 Tags : 98304 Pr1 Tags : 196607 num_pr0 : 12288
 SAE Count : 0
 Inter-Core Inteference in Data Store : 1983245
Heartbeat CPU 3 instructions: 60000001 cycles: 33238801 heartbeat IPC: 1.81415 cumulative IPC: 1.80512 (Simulation time: 6 hr 46 min 10 sec) 
 Total Blocks : 196608 Invalid Blocks : 1 Valid Blocks : 196607
 Total Tags : 491520 Threshold : 12288 Invalid Tags : 196611 Pr0 Tags : 98302 Pr1 Tags : 196607 num_pr0 : 12288
 SAE Count : 0
 Inter-Core Inteference in Data Store : 1983320
Heartbeat CPU 4 instructions: 60000001 cycles: 33238836 heartbeat IPC: 1.8142 cumulative IPC: 1.80512 (Simulation time: 6 hr 46 min 10 sec) 
 Total Blocks : 196608 Invalid Blocks : 1 Valid Blocks : 196607
 Total Tags : 491520 Threshold : 12288 Invalid Tags : 196610 Pr0 Tags : 98303 Pr1 Tags : 196607 num_pr0 : 12288
 SAE Count : 0
 Inter-Core Inteference in Data Store : 1983320
Heartbeat CPU 1 instructions: 60000001 cycles: 33239698 heartbeat IPC: 1.8142 cumulative IPC: 1.80507 (Simulation time: 6 hr 46 min 11 sec) 
 Total Blocks : 196608 Invalid Blocks : 1 Valid Blocks : 196607
 Total Tags : 491520 Threshold : 12288 Invalid Tags : 196609 Pr0 Tags : 98304 Pr1 Tags : 196607 num_pr0 : 12288
 SAE Count : 0
 Inter-Core Inteference in Data Store : 1983352
Heartbeat CPU 2 instructions: 60000001 cycles: 33240297 heartbeat IPC: 1.81421 cumulative IPC: 1.80504 (Simulation time: 6 hr 46 min 12 sec) 
 Total Blocks : 196608 Invalid Blocks : 1 Valid Blocks : 196607
 Total Tags : 491520 Threshold : 12288 Invalid Tags : 196611 Pr0 Tags : 98302 Pr1 Tags : 196607 num_pr0 : 12288
 SAE Count : 0
 Inter-Core Inteference in Data Store : 1983373
Heartbeat CPU 5 instructions: 60000001 cycles: 33242590 heartbeat IPC: 1.81409 cumulative IPC: 1.80491 (Simulation time: 6 hr 46 min 15 sec) 
 Total Blocks : 196608 Invalid Blocks : 1 Valid Blocks : 196607
 Total Tags : 491520 Threshold : 12288 Invalid Tags : 196609 Pr0 Tags : 98304 Pr1 Tags : 196607 num_pr0 : 12288
 SAE Count : 0
 Inter-Core Inteference in Data Store : 1983450
Heartbeat CPU 6 instructions: 60000001 cycles: 33243735 heartbeat IPC: 1.81393 cumulative IPC: 1.80485 (Simulation time: 6 hr 46 min 18 sec) 
 Total Blocks : 196608 Invalid Blocks : 1 Valid Blocks : 196607
 Total Tags : 491520 Threshold : 12288 Invalid Tags : 196609 Pr0 Tags : 98304 Pr1 Tags : 196607 num_pr0 : 12288
 SAE Count : 0
 Inter-Core Inteference in Data Store : 1983504
Heartbeat CPU 7 instructions: 60000001 cycles: 33245253 heartbeat IPC: 1.81372 cumulative IPC: 1.80477 (Simulation time: 6 hr 46 min 20 sec) 
 Total Blocks : 196608 Invalid Blocks : 1 Valid Blocks : 196607
 Total Tags : 491520 Threshold : 12288 Invalid Tags : 196610 Pr0 Tags : 98303 Pr1 Tags : 196607 num_pr0 : 12288
 SAE Count : 0
 Inter-Core Inteference in Data Store : 1983576
Heartbeat CPU 0 instructions: 70000002 cycles: 38796774 heartbeat IPC: 1.79848 cumulative IPC: 1.80427 (Simulation time: 7 hr 59 min 20 sec) 
 Total Blocks : 196608 Invalid Blocks : 0 Valid Blocks : 196608
 Total Tags : 491520 Threshold : 12288 Invalid Tags : 196608 Pr0 Tags : 98304 Pr1 Tags : 196608 num_pr0 : 12288
 SAE Count : 0
 Inter-Core Inteference in Data Store : 2261189
Heartbeat CPU 3 instructions: 70000002 cycles: 38798950 heartbeat IPC: 1.79851 cumulative IPC: 1.80417 (Simulation time: 7 hr 59 min 27 sec) 
 Total Blocks : 196608 Invalid Blocks : 0 Valid Blocks : 196608
 Total Tags : 491520 Threshold : 12288 Invalid Tags : 196610 Pr0 Tags : 98302 Pr1 Tags : 196608 num_pr0 : 12288
 SAE Count : 0
 Inter-Core Inteference in Data Store : 2261390
Heartbeat CPU 4 instructions: 70000002 cycles: 38799019 heartbeat IPC: 1.7985 cumulative IPC: 1.80417 (Simulation time: 7 hr 59 min 27 sec) 
 Total Blocks : 196608 Invalid Blocks : 0 Valid Blocks : 196608
 Total Tags : 491520 Threshold : 12288 Invalid Tags : 196608 Pr0 Tags : 98304 Pr1 Tags : 196608 num_pr0 : 12288
 SAE Count : 0
 Inter-Core Inteference in Data Store : 2261394
Heartbeat CPU 1 instructions: 70000002 cycles: 38799855 heartbeat IPC: 1.79851 cumulative IPC: 1.80413 (Simulation time: 7 hr 59 min 30 sec) 
 Total Blocks : 196608 Invalid Blocks : 0 Valid Blocks : 196608
 Total Tags : 491520 Threshold : 12288 Invalid Tags : 196608 Pr0 Tags : 98304 Pr1 Tags : 196608 num_pr0 : 12288
 SAE Count : 0
 Inter-Core Inteference in Data Store : 2261479
Heartbeat CPU 2 instructions: 70000002 cycles: 38800397 heartbeat IPC: 1.79853 cumulative IPC: 1.80411 (Simulation time: 7 hr 59 min 32 sec) 
 Total Blocks : 196608 Invalid Blocks : 0 Valid Blocks : 196608
 Total Tags : 491520 Threshold : 12288 Invalid Tags : 196609 Pr0 Tags : 98303 Pr1 Tags : 196608 num_pr0 : 12288
 SAE Count : 0
 Inter-Core Inteference in Data Store : 2261523
Heartbeat CPU 5 instructions: 70000002 cycles: 38803058 heartbeat IPC: 1.79841 cumulative IPC: 1.80398 (Simulation time: 7 hr 59 min 41 sec) 
 Total Blocks : 196608 Invalid Blocks : 0 Valid Blocks : 196608
 Total Tags : 491520 Threshold : 12288 Invalid Tags : 196608 Pr0 Tags : 98304 Pr1 Tags : 196608 num_pr0 : 12288
 SAE Count : 0
 Inter-Core Inteference in Data Store : 2261747
Heartbeat CPU 6 instructions: 70000002 cycles: 38804503 heartbeat IPC: 1.79831 cumulative IPC: 1.80391 (Simulation time: 7 hr 59 min 45 sec) 
 Total Blocks : 196608 Invalid Blocks : 0 Valid Blocks : 196608
 Total Tags : 491520 Threshold : 12288 Invalid Tags : 196611 Pr0 Tags : 98301 Pr1 Tags : 196608 num_pr0 : 12287
 SAE Count : 0
 Inter-Core Inteference in Data Store : 2261907
Heartbeat CPU 7 instructions: 70000002 cycles: 38805244 heartbeat IPC: 1.79856 cumulative IPC: 1.80388 (Simulation time: 7 hr 59 min 47 sec) 
 Total Blocks : 196608 Invalid Blocks : 0 Valid Blocks : 196608
 Total Tags : 491520 Threshold : 12288 Invalid Tags : 196611 Pr0 Tags : 98301 Pr1 Tags : 196608 num_pr0 : 12287
 SAE Count : 0
 Inter-Core Inteference in Data Store : 2261973
Heartbeat CPU 0 instructions: 80000002 cycles: 44369120 heartbeat IPC: 1.79458 cumulative IPC: 1.80306 (Simulation time: 9 hr 17 min 1 sec) 
 Total Blocks : 196608 Invalid Blocks : 0 Valid Blocks : 196608
 Total Tags : 491520 Threshold : 12288 Invalid Tags : 196608 Pr0 Tags : 98304 Pr1 Tags : 196608 num_pr0 : 12288
 SAE Count : 0
 Inter-Core Inteference in Data Store : 2614657
Heartbeat CPU 3 instructions: 80000002 cycles: 44372975 heartbeat IPC: 1.79404 cumulative IPC: 1.8029 (Simulation time: 9 hr 17 min 3 sec) 
 Total Blocks : 196608 Invalid Blocks : 0 Valid Blocks : 196608
 Total Tags : 491520 Threshold : 12288 Invalid Tags : 196609 Pr0 Tags : 98303 Pr1 Tags : 196608 num_pr0 : 12288
 SAE Count : 0
 Inter-Core Inteference in Data Store : 2614707
Heartbeat CPU 4 instructions: 80000002 cycles: 44373079 heartbeat IPC: 1.79402 cumulative IPC: 1.80289 (Simulation time: 9 hr 17 min 4 sec) 
 Total Blocks : 196608 Invalid Blocks : 0 Valid Blocks : 196608
 Total Tags : 491520 Threshold : 12288 Invalid Tags : 196609 Pr0 Tags : 98303 Pr1 Tags : 196608 num_pr0 : 12288
 SAE Count : 0
 Inter-Core Inteference in Data Store : 2614708
Heartbeat CPU 1 instructions: 80000002 cycles: 44373288 heartbeat IPC: 1.79423 cumulative IPC: 1.80289 (Simulation time: 9 hr 17 min 4 sec) 
 Total Blocks : 196608 Invalid Blocks : 0 Valid Blocks : 196608
 Total Tags : 491520 Threshold : 12288 Invalid Tags : 196609 Pr0 Tags : 98303 Pr1 Tags : 196608 num_pr0 : 12288
 SAE Count : 0
 Inter-Core Inteference in Data Store : 2614711
Heartbeat CPU 2 instructions: 80000002 cycles: 44374617 heartbeat IPC: 1.79397 cumulative IPC: 1.80283 (Simulation time: 9 hr 17 min 4 sec) 
 Total Blocks : 196608 Invalid Blocks : 0 Valid Blocks : 196608
 Total Tags : 491520 Threshold : 12288 Invalid Tags : 196608 Pr0 Tags : 98304 Pr1 Tags : 196608 num_pr0 : 12288
 SAE Count : 0
 Inter-Core Inteference in Data Store : 2614722
Heartbeat CPU 5 instructions: 80000002 cycles: 44377043 heartbeat IPC: 1.79405 cumulative IPC: 1.80273 (Simulation time: 9 hr 17 min 6 sec) 
 Total Blocks : 196608 Invalid Blocks : 0 Valid Blocks : 196608
 Total Tags : 491520 Threshold : 12288 Invalid Tags : 196608 Pr0 Tags : 98304 Pr1 Tags : 196608 num_pr0 : 12288
 SAE Count : 0
 Inter-Core Inteference in Data Store : 2614740
Heartbeat CPU 6 instructions: 80000002 cycles: 44379139 heartbeat IPC: 1.79384 cumulative IPC: 1.80265 (Simulation time: 9 hr 17 min 7 sec) 
 Total Blocks : 196608 Invalid Blocks : 0 Valid Blocks : 196608
 Total Tags : 491520 Threshold : 12288 Invalid Tags : 196610 Pr0 Tags : 98302 Pr1 Tags : 196608 num_pr0 : 12288
 SAE Count : 0
 Inter-Core Inteference in Data Store : 2614768
Heartbeat CPU 7 instructions: 80000002 cycles: 44380501 heartbeat IPC: 1.79364 cumulative IPC: 1.80259 (Simulation time: 9 hr 17 min 7 sec) 
 Total Blocks : 196608 Invalid Blocks : 0 Valid Blocks : 196608
 Total Tags : 491520 Threshold : 12288 Invalid Tags : 196608 Pr0 Tags : 98304 Pr1 Tags : 196608 num_pr0 : 12288
 SAE Count : 0
 Inter-Core Inteference in Data Store : 2614782
Heartbeat CPU 0 instructions: 90000000 cycles: 49886340 heartbeat IPC: 1.81251 cumulative IPC: 1.8041 (Simulation time: 10 hr 27 min 18 sec) 
 Total Blocks : 196608 Invalid Blocks : 0 Valid Blocks : 196608
 Total Tags : 491520 Threshold : 12288 Invalid Tags : 196609 Pr0 Tags : 98303 Pr1 Tags : 196608 num_pr0 : 12287
 SAE Count : 0
 Inter-Core Inteference in Data Store : 2861380
Heartbeat CPU 3 instructions: 90000000 cycles: 49890167 heartbeat IPC: 1.81252 cumulative IPC: 1.80396 (Simulation time: 10 hr 27 min 20 sec) 
 Total Blocks : 196608 Invalid Blocks : 0 Valid Blocks : 196608
 Total Tags : 491520 Threshold : 12288 Invalid Tags : 196610 Pr0 Tags : 98302 Pr1 Tags : 196608 num_pr0 : 12288
 SAE Count : 0
 Inter-Core Inteference in Data Store : 2861797
Heartbeat CPU 1 instructions: 90000000 cycles: 49890790 heartbeat IPC: 1.81241 cumulative IPC: 1.80394 (Simulation time: 10 hr 27 min 21 sec) 
 Total Blocks : 196608 Invalid Blocks : 0 Valid Blocks : 196608
 Total Tags : 491520 Threshold : 12288 Invalid Tags : 196608 Pr0 Tags : 98304 Pr1 Tags : 196608 num_pr0 : 12288
 SAE Count : 0
 Inter-Core Inteference in Data Store : 2861937
Heartbeat CPU 4 instructions: 90000000 cycles: 49891139 heartbeat IPC: 1.81223 cumulative IPC: 1.80393 (Simulation time: 10 hr 27 min 21 sec) 
 Total Blocks : 196608 Invalid Blocks : 0 Valid Blocks : 196608
 Total Tags : 491520 Threshold : 12288 Invalid Tags : 196610 Pr0 Tags : 98302 Pr1 Tags : 196608 num_pr0 : 12287
 SAE Count : 0
 Inter-Core Inteference in Data Store : 2861993
Heartbeat CPU 2 instructions: 90000000 cycles: 49891813 heartbeat IPC: 1.81251 cumulative IPC: 1.8039 (Simulation time: 10 hr 27 min 22 sec) 
 Total Blocks : 196608 Invalid Blocks : 0 Valid Blocks : 196608
 Total Tags : 491520 Threshold : 12288 Invalid Tags : 196608 Pr0 Tags : 98304 Pr1 Tags : 196608 num_pr0 : 12288
 SAE Count : 0
 Inter-Core Inteference in Data Store : 2862148
Heartbeat CPU 5 instructions: 90000000 cycles: 49895189 heartbeat IPC: 1.8122 cumulative IPC: 1.80378 (Simulation time: 10 hr 27 min 23 sec) 
 Total Blocks : 196608 Invalid Blocks : 0 Valid Blocks : 196608
 Total Tags : 491520 Threshold : 12288 Invalid Tags : 196608 Pr0 Tags : 98304 Pr1 Tags : 196608 num_pr0 : 12288
 SAE Count : 0
 Inter-Core Inteference in Data Store : 2862561
Heartbeat CPU 6 instructions: 90000000 cycles: 49897601 heartbeat IPC: 1.8121 cumulative IPC: 1.80369 (Simulation time: 10 hr 27 min 24 sec) 
 Total Blocks : 196608 Invalid Blocks : 0 Valid Blocks : 196608
 Total Tags : 491520 Threshold : 12288 Invalid Tags : 196608 Pr0 Tags : 98304 Pr1 Tags : 196608 num_pr0 : 12288
 SAE Count : 0
 Inter-Core Inteference in Data Store : 2863061
Heartbeat CPU 7 instructions: 90000000 cycles: 49899942 heartbeat IPC: 1.81178 cumulative IPC: 1.80361 (Simulation time: 10 hr 27 min 26 sec) 
 Total Blocks : 196608 Invalid Blocks : 0 Valid Blocks : 196608
 Total Tags : 491520 Threshold : 12288 Invalid Tags : 196608 Pr0 Tags : 98304 Pr1 Tags : 196608 num_pr0 : 12288
 SAE Count : 0
 Inter-Core Inteference in Data Store : 2863482
Heartbeat CPU 0 instructions: 100000001 cycles: 55414252 heartbeat IPC: 1.809 cumulative IPC: 1.80459 (Simulation time: 11 hr 45 min 25 sec) 
 Total Blocks : 196608 Invalid Blocks : 0 Valid Blocks : 196608
 Total Tags : 491520 Threshold : 12288 Invalid Tags : 196608 Pr0 Tags : 98304 Pr1 Tags : 196608 num_pr0 : 12288
 SAE Count : 0
 Inter-Core Inteference in Data Store : 3213058
Heartbeat CPU 3 instructions: 100000001 cycles: 55418534 heartbeat IPC: 1.80885 cumulative IPC: 1.80445 (Simulation time: 11 hr 45 min 27 sec) 
 Total Blocks : 196608 Invalid Blocks : 0 Valid Blocks : 196608
 Total Tags : 491520 Threshold : 12288 Invalid Tags : 196608 Pr0 Tags : 98304 Pr1 Tags : 196608 num_pr0 : 12288
 SAE Count : 0
 Inter-Core Inteference in Data Store : 3213083
Heartbeat CPU 1 instructions: 100000001 cycles: 55419448 heartbeat IPC: 1.80876 cumulative IPC: 1.80442 (Simulation time: 11 hr 45 min 27 sec) 
 Total Blocks : 196608 Invalid Blocks : 0 Valid Blocks : 196608
 Total Tags : 491520 Threshold : 12288 Invalid Tags : 196608 Pr0 Tags : 98304 Pr1 Tags : 196608 num_pr0 : 12288
 SAE Count : 0
 Inter-Core Inteference in Data Store : 3213090
Heartbeat CPU 4 instructions: 100000001 cycles: 55419654 heartbeat IPC: 1.8088 cumulative IPC: 1.80441 (Simulation time: 11 hr 45 min 27 sec) 
 Total Blocks : 196608 Invalid Blocks : 0 Valid Blocks : 196608
 Total Tags : 491520 Threshold : 12288 Invalid Tags : 196608 Pr0 Tags : 98304 Pr1 Tags : 196608 num_pr0 : 12288
 SAE Count : 0
 Inter-Core Inteference in Data Store : 3213090
Heartbeat CPU 2 instructions: 100000001 cycles: 55420271 heartbeat IPC: 1.80882 cumulative IPC: 1.80439 (Simulation time: 11 hr 45 min 27 sec) 
 Total Blocks : 196608 Invalid Blocks : 0 Valid Blocks : 196608
 Total Tags : 491520 Threshold : 12288 Invalid Tags : 196608 Pr0 Tags : 98304 Pr1 Tags : 196608 num_pr0 : 12288
 SAE Count : 0
 Inter-Core Inteference in Data Store : 3213097
Heartbeat CPU 5 instructions: 100000001 cycles: 55423422 heartbeat IPC: 1.8089 cumulative IPC: 1.80429 (Simulation time: 11 hr 45 min 30 sec) 
 Total Blocks : 196608 Invalid Blocks : 0 Valid Blocks : 196608
 Total Tags : 491520 Threshold : 12288 Invalid Tags : 196609 Pr0 Tags : 98303 Pr1 Tags : 196608 num_pr0 : 12288
 SAE Count : 0
 Inter-Core Inteference in Data Store : 3213125
Heartbeat CPU 6 instructions: 100000001 cycles: 55426329 heartbeat IPC: 1.80873 cumulative IPC: 1.8042 (Simulation time: 11 hr 45 min 33 sec) 
 Total Blocks : 196608 Invalid Blocks : 0 Valid Blocks : 196608
 Total Tags : 491520 Threshold : 12288 Invalid Tags : 196608 Pr0 Tags : 98304 Pr1 Tags : 196608 num_pr0 : 12288
 SAE Count : 0
 Inter-Core Inteference in Data Store : 3213158
Heartbeat CPU 7 instructions: 100000001 cycles: 55428912 heartbeat IPC: 1.80866 cumulative IPC: 1.80411 (Simulation time: 11 hr 45 min 36 sec) 
 Total Blocks : 196608 Invalid Blocks : 0 Valid Blocks : 196608
 Total Tags : 491520 Threshold : 12288 Invalid Tags : 196608 Pr0 Tags : 98304 Pr1 Tags : 196608 num_pr0 : 12288
 SAE Count : 0
 Inter-Core Inteference in Data Store : 3213180
Heartbeat CPU 0 instructions: 110000000 cycles: 60945079 heartbeat IPC: 1.80805 cumulative IPC: 1.8049 (Simulation time: 13 hr 20 min 37 sec) 
 Total Blocks : 196608 Invalid Blocks : 0 Valid Blocks : 196608
 Total Tags : 491520 Threshold : 12288 Invalid Tags : 196608 Pr0 Tags : 98304 Pr1 Tags : 196608 num_pr0 : 12288
 SAE Count : 0
 Inter-Core Inteference in Data Store : 3510015
Heartbeat CPU 3 instructions: 110000000 cycles: 60949746 heartbeat IPC: 1.80792 cumulative IPC: 1.80477 (Simulation time: 13 hr 20 min 40 sec) 
 Total Blocks : 196608 Invalid Blocks : 0 Valid Blocks : 196608
 Total Tags : 491520 Threshold : 12288 Invalid Tags : 196611 Pr0 Tags : 98301 Pr1 Tags : 196608 num_pr0 : 12288
 SAE Count : 0
 Inter-Core Inteference in Data Store : 3510234
Heartbeat CPU 1 instructions: 110000000 cycles: 60951904 heartbeat IPC: 1.80752 cumulative IPC: 1.8047 (Simulation time: 13 hr 20 min 42 sec) 
 Total Blocks : 196608 Invalid Blocks : 0 Valid Blocks : 196608
 Total Tags : 491520 Threshold : 12288 Invalid Tags : 196609 Pr0 Tags : 98303 Pr1 Tags : 196608 num_pr0 : 12288
 SAE Count : 0
 Inter-Core Inteference in Data Store : 3510331
Heartbeat CPU 2 instructions: 110000000 cycles: 60952602 heartbeat IPC: 1.80756 cumulative IPC: 1.80468 (Simulation time: 13 hr 20 min 42 sec) 
 Total Blocks : 196608 Invalid Blocks : 0 Valid Blocks : 196608
 Total Tags : 491520 Threshold : 12288 Invalid Tags : 196611 Pr0 Tags : 98301 Pr1 Tags : 196608 num_pr0 : 12287
 SAE Count : 0
 Inter-Core Inteference in Data Store : 3510374
Heartbeat CPU 4 instructions: 110000000 cycles: 60955019 heartbeat IPC: 1.80657 cumulative IPC: 1.80461 (Simulation time: 13 hr 20 min 43 sec) 
 Total Blocks : 196608 Invalid Blocks : 0 Valid Blocks : 196608
 Total Tags : 491520 Threshold : 12288 Invalid Tags : 196609 Pr0 Tags : 98303 Pr1 Tags : 196608 num_pr0 : 12288
 SAE Count : 0
 Inter-Core Inteference in Data Store : 3510499
Heartbeat CPU 5 instructions: 110000000 cycles: 60958793 heartbeat IPC: 1.80656 cumulative IPC: 1.8045 (Simulation time: 13 hr 20 min 45 sec) 
 Total Blocks : 196608 Invalid Blocks : 0 Valid Blocks : 196608
 Total Tags : 491520 Threshold : 12288 Invalid Tags : 196609 Pr0 Tags : 98303 Pr1 Tags : 196608 num_pr0 : 12288
 SAE Count : 0
 Inter-Core Inteference in Data Store : 3510668
Heartbeat CPU 6 instructions: 110000000 cycles: 60960546 heartbeat IPC: 1.80694 cumulative IPC: 1.80445 (Simulation time: 13 hr 20 min 46 sec) 
 Total Blocks : 196608 Invalid Blocks : 0 Valid Blocks : 196608
 Total Tags : 491520 Threshold : 12288 Invalid Tags : 196612 Pr0 Tags : 98300 Pr1 Tags : 196608 num_pr0 : 12287
 SAE Count : 0
 Inter-Core Inteference in Data Store : 3510752
Heartbeat CPU 7 instructions: 110000000 cycles: 60962941 heartbeat IPC: 1.807 cumulative IPC: 1.80437 (Simulation time: 13 hr 20 min 47 sec) 
 Total Blocks : 196608 Invalid Blocks : 0 Valid Blocks : 196608
 Total Tags : 491520 Threshold : 12288 Invalid Tags : 196608 Pr0 Tags : 98304 Pr1 Tags : 196608 num_pr0 : 12288
 SAE Count : 0
 Inter-Core Inteference in Data Store : 3510861
Heartbeat CPU 0 instructions: 120000001 cycles: 66499772 heartbeat IPC: 1.80028 cumulative IPC: 1.80452 (Simulation time: 15 hr 9 min 18 sec) 
 Total Blocks : 196608 Invalid Blocks : 0 Valid Blocks : 196608
 Total Tags : 491520 Threshold : 12288 Invalid Tags : 196608 Pr0 Tags : 98304 Pr1 Tags : 196608 num_pr0 : 12288
 SAE Count : 0
 Inter-Core Inteference in Data Store : 3844958
Heartbeat CPU 3 instructions: 120000001 cycles: 66504706 heartbeat IPC: 1.80019 cumulative IPC: 1.80438 (Simulation time: 15 hr 9 min 22 sec) 
 Total Blocks : 196608 Invalid Blocks : 0 Valid Blocks : 196608
 Total Tags : 491520 Threshold : 12288 Invalid Tags : 196608 Pr0 Tags : 98304 Pr1 Tags : 196608 num_pr0 : 12288
 SAE Count : 0
 Inter-Core Inteference in Data Store : 3845195
Heartbeat CPU 1 instructions: 120000001 cycles: 66506729 heartbeat IPC: 1.80024 cumulative IPC: 1.80433 (Simulation time: 15 hr 9 min 24 sec) 
 Total Blocks : 196608 Invalid Blocks : 0 Valid Blocks : 196608
 Total Tags : 491520 Threshold : 12288 Invalid Tags : 196610 Pr0 Tags : 98302 Pr1 Tags : 196608 num_pr0 : 12288
 SAE Count : 0
 Inter-Core Inteference in Data Store : 3845299
Heartbeat CPU 2 instructions: 120000001 cycles: 66507388 heartbeat IPC: 1.80025 cumulative IPC: 1.80431 (Simulation time: 15 hr 9 min 24 sec) 
 Total Blocks : 196608 Invalid Blocks : 0 Valid Blocks : 196608
 Total Tags : 491520 Threshold : 12288 Invalid Tags : 196609 Pr0 Tags : 98303 Pr1 Tags : 196608 num_pr0 : 12288
 SAE Count : 0
 Inter-Core Inteference in Data Store : 3845332
Heartbeat CPU 4 instructions: 120000001 cycles: 66510343 heartbeat IPC: 1.80008 cumulative IPC: 1.80423 (Simulation time: 15 hr 9 min 26 sec) 
 Total Blocks : 196608 Invalid Blocks : 0 Valid Blocks : 196608
 Total Tags : 491520 Threshold : 12288 Invalid Tags : 196609 Pr0 Tags : 98303 Pr1 Tags : 196608 num_pr0 : 12288
 SAE Count : 0
 Inter-Core Inteference in Data Store : 3845482
Heartbeat CPU 5 instructions: 120000001 cycles: 66513648 heartbeat IPC: 1.80023 cumulative IPC: 1.80414 (Simulation time: 15 hr 9 min 29 sec) 
 Total Blocks : 196608 Invalid Blocks : 0 Valid Blocks : 196608
 Total Tags : 491520 Threshold : 12288 Invalid Tags : 196612 Pr0 Tags : 98300 Pr1 Tags : 196608 num_pr0 : 12288
 SAE Count : 0
 Inter-Core Inteference in Data Store : 3845670
Heartbeat CPU 6 instructions: 120000001 cycles: 66515717 heartbeat IPC: 1.80012 cumulative IPC: 1.80408 (Simulation time: 15 hr 9 min 30 sec) 
 Total Blocks : 196608 Invalid Blocks : 0 Valid Blocks : 196608
 Total Tags : 491520 Threshold : 12288 Invalid Tags : 196608 Pr0 Tags : 98304 Pr1 Tags : 196608 num_pr0 : 12288
 SAE Count : 0
 Inter-Core Inteference in Data Store : 3845771
Heartbeat CPU 7 instructions: 120000001 cycles: 66517789 heartbeat IPC: 1.80023 cumulative IPC: 1.80403 (Simulation time: 15 hr 9 min 31 sec) 
 Total Blocks : 196608 Invalid Blocks : 0 Valid Blocks : 196608
 Total Tags : 491520 Threshold : 12288 Invalid Tags : 196610 Pr0 Tags : 98302 Pr1 Tags : 196608 num_pr0 : 12287
 SAE Count : 0
 Inter-Core Inteference in Data Store : 3845871
Heartbeat CPU 0 instructions: 130000002 cycles: 72020402 heartbeat IPC: 1.81139 cumulative IPC: 1.80504 (Simulation time: 16 hr 35 min 36 sec) 
 Total Blocks : 196608 Invalid Blocks : 0 Valid Blocks : 196608
 Total Tags : 491520 Threshold : 12288 Invalid Tags : 196609 Pr0 Tags : 98303 Pr1 Tags : 196608 num_pr0 : 12288
 SAE Count : 0
 Inter-Core Inteference in Data Store : 4201351
Heartbeat CPU 3 instructions: 130000002 cycles: 72025087 heartbeat IPC: 1.81147 cumulative IPC: 1.80493 (Simulation time: 16 hr 35 min 42 sec) 
 Total Blocks : 196608 Invalid Blocks : 0 Valid Blocks : 196608
 Total Tags : 491520 Threshold : 12288 Invalid Tags : 196608 Pr0 Tags : 98304 Pr1 Tags : 196608 num_pr0 : 12288
 SAE Count : 0
 Inter-Core Inteference in Data Store : 4201620
Heartbeat CPU 1 instructions: 130000002 cycles: 72027720 heartbeat IPC: 1.81127 cumulative IPC: 1.80486 (Simulation time: 16 hr 35 min 44 sec) 
 Total Blocks : 196608 Invalid Blocks : 0 Valid Blocks : 196608
 Total Tags : 491520 Threshold : 12288 Invalid Tags : 196610 Pr0 Tags : 98302 Pr1 Tags : 196608 num_pr0 : 12288
 SAE Count : 0
 Inter-Core Inteference in Data Store : 4201758
Heartbeat CPU 2 instructions: 130000002 cycles: 72028401 heartbeat IPC: 1.81126 cumulative IPC: 1.80484 (Simulation time: 16 hr 35 min 44 sec) 
 Total Blocks : 196608 Invalid Blocks : 0 Valid Blocks : 196608
 Total Tags : 491520 Threshold : 12288 Invalid Tags : 196610 Pr0 Tags : 98302 Pr1 Tags : 196608 num_pr0 : 12288
 SAE Count : 0
 Inter-Core Inteference in Data Store : 4201803
Heartbeat CPU 4 instructions: 130000002 cycles: 72031702 heartbeat IPC: 1.81115 cumulative IPC: 1.80476 (Simulation time: 16 hr 35 min 47 sec) 
 Total Blocks : 196608 Invalid Blocks : 0 Valid Blocks : 196608
 Total Tags : 491520 Threshold : 12288 Invalid Tags : 196610 Pr0 Tags : 98302 Pr1 Tags : 196608 num_pr0 : 12288
 SAE Count : 0
 Inter-Core Inteference in Data Store : 4202017
Heartbeat CPU 5 instructions: 130000002 cycles: 72034762 heartbeat IPC: 1.81123 cumulative IPC: 1.80468 (Simulation time: 16 hr 35 min 51 sec) 
 Total Blocks : 196608 Invalid Blocks : 0 Valid Blocks : 196608
 Total Tags : 491520 Threshold : 12288 Invalid Tags : 196609 Pr0 Tags : 98303 Pr1 Tags : 196608 num_pr0 : 12288
 SAE Count : 0
 Inter-Core Inteference in Data Store : 4202200
Heartbeat CPU 6 instructions: 130000002 cycles: 72037022 heartbeat IPC: 1.81117 cumulative IPC: 1.80463 (Simulation time: 16 hr 35 min 52 sec) 
 Total Blocks : 196608 Invalid Blocks : 0 Valid Blocks : 196608
 Total Tags : 491520 Threshold : 12288 Invalid Tags : 196610 Pr0 Tags : 98302 Pr1 Tags : 196608 num_pr0 : 12287
 SAE Count : 0
 Inter-Core Inteference in Data Store : 4202325
Heartbeat CPU 7 instructions: 130000002 cycles: 72039722 heartbeat IPC: 1.81096 cumulative IPC: 1.80456 (Simulation time: 16 hr 35 min 55 sec) 
 Total Blocks : 196608 Invalid Blocks : 0 Valid Blocks : 196608
 Total Tags : 491520 Threshold : 12288 Invalid Tags : 196610 Pr0 Tags : 98302 Pr1 Tags : 196608 num_pr0 : 12288
 SAE Count : 0
 Inter-Core Inteference in Data Store : 4202482
Heartbeat CPU 0 instructions: 140000002 cycles: 77576480 heartbeat IPC: 1.79983 cumulative IPC: 1.80467 (Simulation time: 18 hr 1 min 17 sec) 
 Total Blocks : 196608 Invalid Blocks : 0 Valid Blocks : 196608
 Total Tags : 491520 Threshold : 12288 Invalid Tags : 196608 Pr0 Tags : 98304 Pr1 Tags : 196608 num_pr0 : 12288
 SAE Count : 0
 Inter-Core Inteference in Data Store : 4569554
Heartbeat CPU 3 instructions: 140000002 cycles: 77581563 heartbeat IPC: 1.7997 cumulative IPC: 1.80455 (Simulation time: 18 hr 1 min 19 sec) 
 Total Blocks : 196608 Invalid Blocks : 0 Valid Blocks : 196608
 Total Tags : 491520 Threshold : 12288 Invalid Tags : 196609 Pr0 Tags : 98303 Pr1 Tags : 196608 num_pr0 : 12288
 SAE Count : 0
 Inter-Core Inteference in Data Store : 4570371
Heartbeat CPU 1 instructions: 140000002 cycles: 77583908 heartbeat IPC: 1.7998 cumulative IPC: 1.8045 (Simulation time: 18 hr 1 min 20 sec) 
 Total Blocks : 196608 Invalid Blocks : 0 Valid Blocks : 196608
 Total Tags : 491520 Threshold : 12288 Invalid Tags : 196608 Pr0 Tags : 98304 Pr1 Tags : 196608 num_pr0 : 12288
 SAE Count : 0
 Inter-Core Inteference in Data Store : 4570613
Heartbeat CPU 2 instructions: 140000002 cycles: 77585054 heartbeat IPC: 1.79964 cumulative IPC: 1.80447 (Simulation time: 18 hr 1 min 20 sec) 
 Total Blocks : 196608 Invalid Blocks : 0 Valid Blocks : 196608
 Total Tags : 491520 Threshold : 12288 Invalid Tags : 196608 Pr0 Tags : 98304 Pr1 Tags : 196608 num_pr0 : 12288
 SAE Count : 0
 Inter-Core Inteference in Data Store : 4570787
Heartbeat CPU 4 instructions: 140000002 cycles: 77588003 heartbeat IPC: 1.79976 cumulative IPC: 1.8044 (Simulation time: 18 hr 1 min 22 sec) 
 Total Blocks : 196608 Invalid Blocks : 0 Valid Blocks : 196608
 Total Tags : 491520 Threshold : 12288 Invalid Tags : 196608 Pr0 Tags : 98304 Pr1 Tags : 196608 num_pr0 : 12288
 SAE Count : 0
 Inter-Core Inteference in Data Store : 4571310
Heartbeat CPU 5 instructions: 140000002 cycles: 77592058 heartbeat IPC: 1.79944 cumulative IPC: 1.80431 (Simulation time: 18 hr 1 min 24 sec) 
 Total Blocks : 196608 Invalid Blocks : 0 Valid Blocks : 196608
 Total Tags : 491520 Threshold : 12288 Invalid Tags : 196611 Pr0 Tags : 98301 Pr1 Tags : 196608 num_pr0 : 12288
 SAE Count : 0
 Inter-Core Inteference in Data Store : 4572235
Heartbeat CPU 6 instructions: 140000002 cycles: 77594567 heartbeat IPC: 1.79936 cumulative IPC: 1.80425 (Simulation time: 18 hr 1 min 26 sec) 
 Total Blocks : 196608 Invalid Blocks : 0 Valid Blocks : 196608
 Total Tags : 491520 Threshold : 12288 Invalid Tags : 196608 Pr0 Tags : 98304 Pr1 Tags : 196608 num_pr0 : 12288
 SAE Count : 0
 Inter-Core Inteference in Data Store : 4572554
Heartbeat CPU 7 instructions: 140000002 cycles: 77596703 heartbeat IPC: 1.79954 cumulative IPC: 1.8042 (Simulation time: 18 hr 1 min 27 sec) 
 Total Blocks : 196608 Invalid Blocks : 0 Valid Blocks : 196608
 Total Tags : 491520 Threshold : 12288 Invalid Tags : 196608 Pr0 Tags : 98304 Pr1 Tags : 196608 num_pr0 : 12288
 SAE Count : 0
 Inter-Core Inteference in Data Store : 4572711
Heartbeat CPU 0 instructions: 150000001 cycles: 83087406 heartbeat IPC: 1.81458 cumulative IPC: 1.80533 (Simulation time: 19 hr 15 min 53 sec) 
 Total Blocks : 196608 Invalid Blocks : 0 Valid Blocks : 196608
 Total Tags : 491520 Threshold : 12288 Invalid Tags : 196609 Pr0 Tags : 98303 Pr1 Tags : 196608 num_pr0 : 12288
 SAE Count : 0
 Inter-Core Inteference in Data Store : 4857641
Heartbeat CPU 3 instructions: 150000001 cycles: 83092491 heartbeat IPC: 1.81458 cumulative IPC: 1.80522 (Simulation time: 19 hr 15 min 57 sec) 
 Total Blocks : 196608 Invalid Blocks : 0 Valid Blocks : 196608
 Total Tags : 491520 Threshold : 12288 Invalid Tags : 196608 Pr0 Tags : 98304 Pr1 Tags : 196608 num_pr0 : 12288
 SAE Count : 0
 Inter-Core Inteference in Data Store : 4857953
Heartbeat CPU 1 instructions: 150000001 cycles: 83094951 heartbeat IPC: 1.81454 cumulative IPC: 1.80516 (Simulation time: 19 hr 16 min 1 sec) 
 Total Blocks : 196608 Invalid Blocks : 0 Valid Blocks : 196608
 Total Tags : 491520 Threshold : 12288 Invalid Tags : 196610 Pr0 Tags : 98302 Pr1 Tags : 196608 num_pr0 : 12288
 SAE Count : 0
 Inter-Core Inteference in Data Store : 4858137
Heartbeat CPU 2 instructions: 150000001 cycles: 83096150 heartbeat IPC: 1.81452 cumulative IPC: 1.80514 (Simulation time: 19 hr 16 min 2 sec) 
 Total Blocks : 196608 Invalid Blocks : 0 Valid Blocks : 196608
 Total Tags : 491520 Threshold : 12288 Invalid Tags : 196608 Pr0 Tags : 98304 Pr1 Tags : 196608 num_pr0 : 12288
 SAE Count : 0
 Inter-Core Inteference in Data Store : 4858215
Heartbeat CPU 4 instructions: 150000001 cycles: 83099532 heartbeat IPC: 1.81438 cumulative IPC: 1.80506 (Simulation time: 19 hr 16 min 5 sec) 
 Total Blocks : 196608 Invalid Blocks : 0 Valid Blocks : 196608
 Total Tags : 491520 Threshold : 12288 Invalid Tags : 196611 Pr0 Tags : 98301 Pr1 Tags : 196608 num_pr0 : 12288
 SAE Count : 0
 Inter-Core Inteference in Data Store : 4858470
Heartbeat CPU 5 instructions: 150000001 cycles: 83103206 heartbeat IPC: 1.8145 cumulative IPC: 1.80498 (Simulation time: 19 hr 16 min 9 sec) 
 Total Blocks : 196608 Invalid Blocks : 0 Valid Blocks : 196608
 Total Tags : 491520 Threshold : 12288 Invalid Tags : 196610 Pr0 Tags : 98302 Pr1 Tags : 196608 num_pr0 : 12288
 SAE Count : 0
 Inter-Core Inteference in Data Store : 4858769
Heartbeat CPU 6 instructions: 150000001 cycles: 83105840 heartbeat IPC: 1.81446 cumulative IPC: 1.80493 (Simulation time: 19 hr 16 min 13 sec) 
 Total Blocks : 196608 Invalid Blocks : 0 Valid Blocks : 196608
 Total Tags : 491520 Threshold : 12288 Invalid Tags : 196610 Pr0 Tags : 98302 Pr1 Tags : 196608 num_pr0 : 12288
 SAE Count : 0
 Inter-Core Inteference in Data Store : 4858971
Heartbeat CPU 7 instructions: 150000001 cycles: 83108329 heartbeat IPC: 1.81435 cumulative IPC: 1.80487 (Simulation time: 19 hr 16 min 16 sec) 
 Total Blocks : 196608 Invalid Blocks : 0 Valid Blocks : 196608
 Total Tags : 491520 Threshold : 12288 Invalid Tags : 196610 Pr0 Tags : 98302 Pr1 Tags : 196608 num_pr0 : 12288
 SAE Count : 0
 Inter-Core Inteference in Data Store : 4859151
Heartbeat CPU 0 instructions: 160000002 cycles: 88681424 heartbeat IPC: 1.78762 cumulative IPC: 1.80421 (Simulation time: 20 hr 54 min 29 sec) 
 Total Blocks : 196608 Invalid Blocks : 0 Valid Blocks : 196608
 Total Tags : 491520 Threshold : 12288 Invalid Tags : 196608 Pr0 Tags : 98304 Pr1 Tags : 196608 num_pr0 : 12288
 SAE Count : 0
 Inter-Core Inteference in Data Store : 5264767
Heartbeat CPU 3 instructions: 160000002 cycles: 88687458 heartbeat IPC: 1.78732 cumulative IPC: 1.80409 (Simulation time: 20 hr 54 min 31 sec) 
 Total Blocks : 196608 Invalid Blocks : 0 Valid Blocks : 196608
 Total Tags : 491520 Threshold : 12288 Invalid Tags : 196608 Pr0 Tags : 98304 Pr1 Tags : 196608 num_pr0 : 12288
 SAE Count : 0
 Inter-Core Inteference in Data Store : 5264937
Heartbeat CPU 1 instructions: 160000002 cycles: 88689212 heartbeat IPC: 1.78755 cumulative IPC: 1.80405 (Simulation time: 20 hr 54 min 32 sec) 
 Total Blocks : 196608 Invalid Blocks : 0 Valid Blocks : 196608
 Total Tags : 491520 Threshold : 12288 Invalid Tags : 196608 Pr0 Tags : 98304 Pr1 Tags : 196608 num_pr0 : 12288
 SAE Count : 0
 Inter-Core Inteference in Data Store : 5265017
Heartbeat CPU 2 instructions: 160000002 cycles: 88690945 heartbeat IPC: 1.78738 cumulative IPC: 1.80402 (Simulation time: 20 hr 54 min 32 sec) 
 Total Blocks : 196608 Invalid Blocks : 0 Valid Blocks : 196608
 Total Tags : 491520 Threshold : 12288 Invalid Tags : 196608 Pr0 Tags : 98304 Pr1 Tags : 196608 num_pr0 : 12288
 SAE Count : 0
 Inter-Core Inteference in Data Store : 5265084
Heartbeat CPU 4 instructions: 160000002 cycles: 88693734 heartbeat IPC: 1.78757 cumulative IPC: 1.80396 (Simulation time: 20 hr 54 min 33 sec) 
 Total Blocks : 196608 Invalid Blocks : 0 Valid Blocks : 196608
 Total Tags : 491520 Threshold : 12288 Invalid Tags : 196608 Pr0 Tags : 98304 Pr1 Tags : 196608 num_pr0 : 12288
 SAE Count : 0
 Inter-Core Inteference in Data Store : 5265154
Heartbeat CPU 5 instructions: 160000002 cycles: 88698229 heartbeat IPC: 1.7873 cumulative IPC: 1.80387 (Simulation time: 20 hr 54 min 35 sec) 
 Total Blocks : 196608 Invalid Blocks : 0 Valid Blocks : 196608
 Total Tags : 491520 Threshold : 12288 Invalid Tags : 196608 Pr0 Tags : 98304 Pr1 Tags : 196608 num_pr0 : 12288
 SAE Count : 0
 Inter-Core Inteference in Data Store : 5265241
Heartbeat CPU 6 instructions: 160000002 cycles: 88700379 heartbeat IPC: 1.78746 cumulative IPC: 1.80383 (Simulation time: 20 hr 54 min 35 sec) 
 Total Blocks : 196608 Invalid Blocks : 0 Valid Blocks : 196608
 Total Tags : 491520 Threshold : 12288 Invalid Tags : 196608 Pr0 Tags : 98304 Pr1 Tags : 196608 num_pr0 : 12288
 SAE Count : 0
 Inter-Core Inteference in Data Store : 5265347
Heartbeat CPU 7 instructions: 160000002 cycles: 88703019 heartbeat IPC: 1.78741 cumulative IPC: 1.80377 (Simulation time: 20 hr 54 min 37 sec) 
 Total Blocks : 196608 Invalid Blocks : 0 Valid Blocks : 196608
 Total Tags : 491520 Threshold : 12288 Invalid Tags : 196608 Pr0 Tags : 98304 Pr1 Tags : 196608 num_pr0 : 12288
 SAE Count : 0
 Inter-Core Inteference in Data Store : 5265453
Heartbeat CPU 0 instructions: 170000001 cycles: 94260536 heartbeat IPC: 1.7924 cumulative IPC: 1.80351 (Simulation time: 22 hr 33 min 34 sec) 
 Total Blocks : 196608 Invalid Blocks : 0 Valid Blocks : 196608
 Total Tags : 491520 Threshold : 12288 Invalid Tags : 196608 Pr0 Tags : 98304 Pr1 Tags : 196608 num_pr0 : 12288
 SAE Count : 0
 Inter-Core Inteference in Data Store : 5603655
Heartbeat CPU 3 instructions: 170000001 cycles: 94267721 heartbeat IPC: 1.79203 cumulative IPC: 1.80337 (Simulation time: 22 hr 33 min 44 sec) 
 Total Blocks : 196608 Invalid Blocks : 0 Valid Blocks : 196608
 Total Tags : 491520 Threshold : 12288 Invalid Tags : 196608 Pr0 Tags : 98304 Pr1 Tags : 196608 num_pr0 : 12288
 SAE Count : 0
 Inter-Core Inteference in Data Store : 5605563
Heartbeat CPU 1 instructions: 170000001 cycles: 94269172 heartbeat IPC: 1.79213 cumulative IPC: 1.80335 (Simulation time: 22 hr 33 min 46 sec) 
 Total Blocks : 196608 Invalid Blocks : 0 Valid Blocks : 196608
 Total Tags : 491520 Threshold : 12288 Invalid Tags : 196609 Pr0 Tags : 98303 Pr1 Tags : 196608 num_pr0 : 12287
 SAE Count : 0
 Inter-Core Inteference in Data Store : 5605956
Heartbeat CPU 2 instructions: 170000001 cycles: 94270902 heartbeat IPC: 1.79213 cumulative IPC: 1.80331 (Simulation time: 22 hr 33 min 49 sec) 
 Total Blocks : 196608 Invalid Blocks : 0 Valid Blocks : 196608
 Total Tags : 491520 Threshold : 12288 Invalid Tags : 196609 Pr0 Tags : 98303 Pr1 Tags : 196608 num_pr0 : 12288
 SAE Count : 0
 Inter-Core Inteference in Data Store : 5606355
Heartbeat CPU 4 instructions: 170000001 cycles: 94274720 heartbeat IPC: 1.7918 cumulative IPC: 1.80324 (Simulation time: 22 hr 33 min 53 sec) 
 Total Blocks : 196608 Invalid Blocks : 0 Valid Blocks : 196608
 Total Tags : 491520 Threshold : 12288 Invalid Tags : 196608 Pr0 Tags : 98304 Pr1 Tags : 196608 num_pr0 : 12288
 SAE Count : 0
 Inter-Core Inteference in Data Store : 5607296
Heartbeat CPU 5 instructions: 170000001 cycles: 94279235 heartbeat IPC: 1.79179 cumulative IPC: 1.80315 (Simulation time: 22 hr 34 min 0 sec) 
 Total Blocks : 196608 Invalid Blocks : 0 Valid Blocks : 196608
 Total Tags : 491520 Threshold : 12288 Invalid Tags : 196610 Pr0 Tags : 98302 Pr1 Tags : 196608 num_pr0 : 12288
 SAE Count : 0
 Inter-Core Inteference in Data Store : 5608441
Heartbeat CPU 6 instructions: 170000001 cycles: 94280422 heartbeat IPC: 1.7921 cumulative IPC: 1.80313 (Simulation time: 22 hr 34 min 1 sec) 
 Total Blocks : 196608 Invalid Blocks : 0 Valid Blocks : 196608
 Total Tags : 491520 Threshold : 12288 Invalid Tags : 196608 Pr0 Tags : 98304 Pr1 Tags : 196608 num_pr0 : 12288
 SAE Count : 0
 Inter-Core Inteference in Data Store : 5608744
Heartbeat CPU 7 instructions: 170000001 cycles: 94283254 heartbeat IPC: 1.79204 cumulative IPC: 1.80308 (Simulation time: 22 hr 34 min 4 sec) 
 Total Blocks : 196608 Invalid Blocks : 0 Valid Blocks : 196608
 Total Tags : 491520 Threshold : 12288 Invalid Tags : 196608 Pr0 Tags : 98304 Pr1 Tags : 196608 num_pr0 : 12288
 SAE Count : 0
 Inter-Core Inteference in Data Store : 5609510
Heartbeat CPU 0 instructions: 180000001 cycles: 99800704 heartbeat IPC: 1.805 cumulative IPC: 1.80359 (Simulation time: 23 hr 31 min 31 sec) 
 Total Blocks : 196608 Invalid Blocks : 0 Valid Blocks : 196608
 Total Tags : 491520 Threshold : 12288 Invalid Tags : 196609 Pr0 Tags : 98303 Pr1 Tags : 196608 num_pr0 : 12288
 SAE Count : 0
 Inter-Core Inteference in Data Store : 5841655
Heartbeat CPU 3 instructions: 180000001 cycles: 99807593 heartbeat IPC: 1.8051 cumulative IPC: 1.80347 (Simulation time: 23 hr 31 min 35 sec) 
 Total Blocks : 196608 Invalid Blocks : 0 Valid Blocks : 196608
 Total Tags : 491520 Threshold : 12288 Invalid Tags : 196609 Pr0 Tags : 98303 Pr1 Tags : 196608 num_pr0 : 12288
 SAE Count : 0
 Inter-Core Inteference in Data Store : 5841818
Heartbeat CPU 1 instructions: 180000001 cycles: 99808858 heartbeat IPC: 1.80516 cumulative IPC: 1.80345 (Simulation time: 23 hr 31 min 35 sec) 
 Total Blocks : 196608 Invalid Blocks : 0 Valid Blocks : 196608
 Total Tags : 491520 Threshold : 12288 Invalid Tags : 196609 Pr0 Tags : 98303 Pr1 Tags : 196608 num_pr0 : 12288
 SAE Count : 0
 Inter-Core Inteference in Data Store : 5841854
Heartbeat CPU 2 instructions: 180000001 cycles: 99810387 heartbeat IPC: 1.80522 cumulative IPC: 1.80342 (Simulation time: 23 hr 31 min 36 sec) 
 Total Blocks : 196608 Invalid Blocks : 0 Valid Blocks : 196608
 Total Tags : 491520 Threshold : 12288 Invalid Tags : 196609 Pr0 Tags : 98303 Pr1 Tags : 196608 num_pr0 : 12288
 SAE Count : 0
 Inter-Core Inteference in Data Store : 5841897
Heartbeat CPU 4 instructions: 180000001 cycles: 99814680 heartbeat IPC: 1.80507 cumulative IPC: 1.80334 (Simulation time: 23 hr 31 min 38 sec) 
 Total Blocks : 196608 Invalid Blocks : 0 Valid Blocks : 196608
 Total Tags : 491520 Threshold : 12288 Invalid Tags : 196610 Pr0 Tags : 98302 Pr1 Tags : 196608 num_pr0 : 12288
 SAE Count : 0
 Inter-Core Inteference in Data Store : 5841995
Heartbeat CPU 5 instructions: 180000001 cycles: 99819261 heartbeat IPC: 1.80505 cumulative IPC: 1.80326 (Simulation time: 23 hr 31 min 41 sec) 
 Total Blocks : 196608 Invalid Blocks : 0 Valid Blocks : 196608
 Total Tags : 491520 Threshold : 12288 Invalid Tags : 196611 Pr0 Tags : 98301 Pr1 Tags : 196608 num_pr0 : 12288
 SAE Count : 0
 Inter-Core Inteference in Data Store : 5842114
Heartbeat CPU 6 instructions: 180000001 cycles: 99820278 heartbeat IPC: 1.8051 cumulative IPC: 1.80324 (Simulation time: 23 hr 31 min 41 sec) 
 Total Blocks : 196608 Invalid Blocks : 0 Valid Blocks : 196608
 Total Tags : 491520 Threshold : 12288 Invalid Tags : 196609 Pr0 Tags : 98303 Pr1 Tags : 196608 num_pr0 : 12288
 SAE Count : 0
 Inter-Core Inteference in Data Store : 5842135
Heartbeat CPU 7 instructions: 180000001 cycles: 99823876 heartbeat IPC: 1.80485 cumulative IPC: 1.80318 (Simulation time: 23 hr 31 min 44 sec) 
 Total Blocks : 196608 Invalid Blocks : 0 Valid Blocks : 196608
 Total Tags : 491520 Threshold : 12288 Invalid Tags : 196609 Pr0 Tags : 98303 Pr1 Tags : 196608 num_pr0 : 12287
 SAE Count : 0
 Inter-Core Inteference in Data Store : 5842221
Heartbeat CPU 0 instructions: 190000001 cycles: 105328955 heartbeat IPC: 1.80889 cumulative IPC: 1.80387 (Simulation time: 24 hr 53 min 15 sec) 
 Total Blocks : 196608 Invalid Blocks : 0 Valid Blocks : 196608
 Total Tags : 491520 Threshold : 12288 Invalid Tags : 196608 Pr0 Tags : 98304 Pr1 Tags : 196608 num_pr0 : 12288
 SAE Count : 0
 Inter-Core Inteference in Data Store : 6225255
Heartbeat CPU 3 instructions: 190000000 cycles: 105335537 heartbeat IPC: 1.80899 cumulative IPC: 1.80376 (Simulation time: 24 hr 53 min 17 sec) 
 Total Blocks : 196608 Invalid Blocks : 0 Valid Blocks : 196608
 Total Tags : 491520 Threshold : 12288 Invalid Tags : 196608 Pr0 Tags : 98304 Pr1 Tags : 196608 num_pr0 : 12288
 SAE Count : 0
 Inter-Core Inteference in Data Store : 6225358
Heartbeat CPU 1 instructions: 190000001 cycles: 105337538 heartbeat IPC: 1.80875 cumulative IPC: 1.80373 (Simulation time: 24 hr 53 min 18 sec) 
 Total Blocks : 196608 Invalid Blocks : 0 Valid Blocks : 196608
 Total Tags : 491520 Threshold : 12288 Invalid Tags : 196608 Pr0 Tags : 98304 Pr1 Tags : 196608 num_pr0 : 12288
 SAE Count : 0
 Inter-Core Inteference in Data Store : 6225379
Heartbeat CPU 2 instructions: 190000001 cycles: 105338796 heartbeat IPC: 1.80884 cumulative IPC: 1.8037 (Simulation time: 24 hr 53 min 18 sec) 
 Total Blocks : 196608 Invalid Blocks : 0 Valid Blocks : 196608
 Total Tags : 491520 Threshold : 12288 Invalid Tags : 196608 Pr0 Tags : 98304 Pr1 Tags : 196608 num_pr0 : 12288
 SAE Count : 0
 Inter-Core Inteference in Data Store : 6225408
Heartbeat CPU 4 instructions: 190000000 cycles: 105343312 heartbeat IPC: 1.80877 cumulative IPC: 1.80363 (Simulation time: 24 hr 53 min 20 sec) 
 Total Blocks : 196608 Invalid Blocks : 0 Valid Blocks : 196608
 Total Tags : 491520 Threshold : 12288 Invalid Tags : 196608 Pr0 Tags : 98304 Pr1 Tags : 196608 num_pr0 : 12288
 SAE Count : 0
 Inter-Core Inteference in Data Store : 6225468
Heartbeat CPU 5 instructions: 190000001 cycles: 105348288 heartbeat IPC: 1.80864 cumulative IPC: 1.80354 (Simulation time: 24 hr 53 min 21 sec) 
 Total Blocks : 196608 Invalid Blocks : 0 Valid Blocks : 196608
 Total Tags : 491520 Threshold : 12288 Invalid Tags : 196608 Pr0 Tags : 98304 Pr1 Tags : 196608 num_pr0 : 12288
 SAE Count : 0
 Inter-Core Inteference in Data Store : 6225529
Heartbeat CPU 6 instructions: 190000000 cycles: 105349460 heartbeat IPC: 1.80859 cumulative IPC: 1.80352 (Simulation time: 24 hr 53 min 22 sec) 
 Total Blocks : 196608 Invalid Blocks : 0 Valid Blocks : 196608
 Total Tags : 491520 Threshold : 12288 Invalid Tags : 196608 Pr0 Tags : 98304 Pr1 Tags : 196608 num_pr0 : 12288
 SAE Count : 0
 Inter-Core Inteference in Data Store : 6225544
Heartbeat CPU 7 instructions: 190000000 cycles: 105352969 heartbeat IPC: 1.80861 cumulative IPC: 1.80346 (Simulation time: 24 hr 53 min 23 sec) 
 Total Blocks : 196608 Invalid Blocks : 0 Valid Blocks : 196608
 Total Tags : 491520 Threshold : 12288 Invalid Tags : 196608 Pr0 Tags : 98304 Pr1 Tags : 196608 num_pr0 : 12288
 SAE Count : 0
 Inter-Core Inteference in Data Store : 6225584
Heartbeat CPU 0 instructions: 200000000 cycles: 110875357 heartbeat IPC: 1.80297 cumulative IPC: 1.80383 (Simulation time: 26 hr 0 min 41 sec) 
 Total Blocks : 196608 Invalid Blocks : 0 Valid Blocks : 196608
 Total Tags : 491520 Threshold : 12288 Invalid Tags : 196609 Pr0 Tags : 98303 Pr1 Tags : 196608 num_pr0 : 12287
 SAE Count : 0
 Inter-Core Inteference in Data Store : 6506801
Heartbeat CPU 3 instructions: 200000000 cycles: 110882555 heartbeat IPC: 1.80277 cumulative IPC: 1.80371 (Simulation time: 26 hr 0 min 45 sec) 
 Total Blocks : 196608 Invalid Blocks : 0 Valid Blocks : 196608
 Total Tags : 491520 Threshold : 12288 Invalid Tags : 196608 Pr0 Tags : 98304 Pr1 Tags : 196608 num_pr0 : 12288
 SAE Count : 0
 Inter-Core Inteference in Data Store : 6507059
Heartbeat CPU 1 instructions: 200000000 cycles: 110884015 heartbeat IPC: 1.80295 cumulative IPC: 1.80369 (Simulation time: 26 hr 0 min 46 sec) 
 Total Blocks : 196608 Invalid Blocks : 0 Valid Blocks : 196608
 Total Tags : 491520 Threshold : 12288 Invalid Tags : 196609 Pr0 Tags : 98303 Pr1 Tags : 196608 num_pr0 : 12288
 SAE Count : 0
 Inter-Core Inteference in Data Store : 6507117
Heartbeat CPU 2 instructions: 200000000 cycles: 110885142 heartbeat IPC: 1.80299 cumulative IPC: 1.80367 (Simulation time: 26 hr 0 min 47 sec) 
 Total Blocks : 196608 Invalid Blocks : 0 Valid Blocks : 196608
 Total Tags : 491520 Threshold : 12288 Invalid Tags : 196608 Pr0 Tags : 98304 Pr1 Tags : 196608 num_pr0 : 12288
 SAE Count : 0
 Inter-Core Inteference in Data Store : 6507154
Heartbeat CPU 4 instructions: 200000000 cycles: 110889832 heartbeat IPC: 1.80293 cumulative IPC: 1.80359 (Simulation time: 26 hr 0 min 50 sec) 
 Total Blocks : 196608 Invalid Blocks : 0 Valid Blocks : 196608
 Total Tags : 491520 Threshold : 12288 Invalid Tags : 196610 Pr0 Tags : 98302 Pr1 Tags : 196608 num_pr0 : 12288
 SAE Count : 0
 Inter-Core Inteference in Data Store : 6507353
Heartbeat CPU 5 instructions: 200000000 cycles: 110895078 heartbeat IPC: 1.80284 cumulative IPC: 1.80351 (Simulation time: 26 hr 0 min 54 sec) 
 Total Blocks : 196608 Invalid Blocks : 0 Valid Blocks : 196608
 Total Tags : 491520 Threshold : 12288 Invalid Tags : 196608 Pr0 Tags : 98304 Pr1 Tags : 196608 num_pr0 : 12288
 SAE Count : 0
 Inter-Core Inteference in Data Store : 6507606
Heartbeat CPU 6 instructions: 200000000 cycles: 110896027 heartbeat IPC: 1.80292 cumulative IPC: 1.80349 (Simulation time: 26 hr 0 min 55 sec) 
 Total Blocks : 196608 Invalid Blocks : 0 Valid Blocks : 196608
 Total Tags : 491520 Threshold : 12288 Invalid Tags : 196610 Pr0 Tags : 98302 Pr1 Tags : 196608 num_pr0 : 12288
 SAE Count : 0
 Inter-Core Inteference in Data Store : 6507652
Heartbeat CPU 7 instructions: 200000000 cycles: 110900156 heartbeat IPC: 1.80272 cumulative IPC: 1.80342 (Simulation time: 26 hr 0 min 57 sec) 
 Total Blocks : 196608 Invalid Blocks : 0 Valid Blocks : 196608
 Total Tags : 491520 Threshold : 12288 Invalid Tags : 196610 Pr0 Tags : 98302 Pr1 Tags : 196608 num_pr0 : 12288
 SAE Count : 0
 Inter-Core Inteference in Data Store : 6507875

Warmup complete CPU 0 instructions: 200044277 cycles: 110900157 (Simulation time: 26 hr 0 min 58 sec) 
Warmup complete CPU 1 instructions: 200028729 cycles: 110900157 (Simulation time: 26 hr 0 min 58 sec) 
Warmup complete CPU 2 instructions: 200026626 cycles: 110900157 (Simulation time: 26 hr 0 min 58 sec) 
Warmup complete CPU 3 instructions: 200031329 cycles: 110900157 (Simulation time: 26 hr 0 min 58 sec) 
Warmup complete CPU 4 instructions: 200018463 cycles: 110900157 (Simulation time: 26 hr 0 min 58 sec) 
Warmup complete CPU 5 instructions: 200009113 cycles: 110900157 (Simulation time: 26 hr 0 min 58 sec) 
Warmup complete CPU 6 instructions: 200007415 cycles: 110900157 (Simulation time: 26 hr 0 min 58 sec) 
Warmup complete CPU 7 instructions: 200000004 cycles: 110900157 (Simulation time: 26 hr 0 min 58 sec) 

Heartbeat CPU 4 instructions: 210000000 cycles: 154360966 heartbeat IPC: 0.230038 cumulative IPC: 0.229668 (Simulation time: 27 hr 50 min 49 sec) 
 Total Blocks : 196608 Invalid Blocks : 0 Valid Blocks : 196608
 Total Tags : 491520 Threshold : 12288 Invalid Tags : 196608 Pr0 Tags : 98304 Pr1 Tags : 196608 num_pr0 : 12288
 SAE Count : 0
 Inter-Core Inteference in Data Store : 342181
Heartbeat CPU 3 instructions: 210000000 cycles: 154369097 heartbeat IPC: 0.229956 cumulative IPC: 0.229329 (Simulation time: 27 hr 50 min 54 sec) 
 Total Blocks : 196608 Invalid Blocks : 0 Valid Blocks : 196608
 Total Tags : 491520 Threshold : 12288 Invalid Tags : 196609 Pr0 Tags : 98303 Pr1 Tags : 196608 num_pr0 : 12288
 SAE Count : 0
 Inter-Core Inteference in Data Store : 342227
Heartbeat CPU 0 instructions: 210000000 cycles: 154477001 heartbeat IPC: 0.229349 cumulative IPC: 0.228464 (Simulation time: 27 hr 51 min 40 sec) 
 Total Blocks : 196608 Invalid Blocks : 0 Valid Blocks : 196608
 Total Tags : 491520 Threshold : 12288 Invalid Tags : 196610 Pr0 Tags : 98302 Pr1 Tags : 196608 num_pr0 : 12288
 SAE Count : 0
 Inter-Core Inteference in Data Store : 342957
Heartbeat CPU 6 instructions: 210000000 cycles: 154571472 heartbeat IPC: 0.228962 cumulative IPC: 0.228813 (Simulation time: 27 hr 52 min 18 sec) 
 Total Blocks : 196608 Invalid Blocks : 0 Valid Blocks : 196608
 Total Tags : 491520 Threshold : 12288 Invalid Tags : 196608 Pr0 Tags : 98304 Pr1 Tags : 196608 num_pr0 : 12288
 SAE Count : 0
 Inter-Core Inteference in Data Store : 343597
Heartbeat CPU 1 instructions: 210000000 cycles: 154639270 heartbeat IPC: 0.228544 cumulative IPC: 0.227971 (Simulation time: 27 hr 52 min 40 sec) 
 Total Blocks : 196608 Invalid Blocks : 0 Valid Blocks : 196608
 Total Tags : 491520 Threshold : 12288 Invalid Tags : 196608 Pr0 Tags : 98304 Pr1 Tags : 196608 num_pr0 : 12288
 SAE Count : 0
 Inter-Core Inteference in Data Store : 344118
Heartbeat CPU 2 instructions: 210000000 cycles: 154655273 heartbeat IPC: 0.228466 cumulative IPC: 0.227936 (Simulation time: 27 hr 52 min 46 sec) 
 Total Blocks : 196608 Invalid Blocks : 0 Valid Blocks : 196608
 Total Tags : 491520 Threshold : 12288 Invalid Tags : 196609 Pr0 Tags : 98303 Pr1 Tags : 196608 num_pr0 : 12288
 SAE Count : 0
 Inter-Core Inteference in Data Store : 344254
Heartbeat CPU 5 instructions: 210000000 cycles: 154671863 heartbeat IPC: 0.228432 cumulative IPC: 0.22825 (Simulation time: 27 hr 52 min 49 sec) 
 Total Blocks : 196608 Invalid Blocks : 0 Valid Blocks : 196608
 Total Tags : 491520 Threshold : 12288 Invalid Tags : 196608 Pr0 Tags : 98304 Pr1 Tags : 196608 num_pr0 : 12288
 SAE Count : 0
 Inter-Core Inteference in Data Store : 344402
Heartbeat CPU 7 instructions: 210000000 cycles: 154734583 heartbeat IPC: 0.228131 cumulative IPC: 0.228131 (Simulation time: 27 hr 53 min 8 sec) 
 Total Blocks : 196608 Invalid Blocks : 0 Valid Blocks : 196608
 Total Tags : 491520 Threshold : 12288 Invalid Tags : 196609 Pr0 Tags : 98303 Pr1 Tags : 196608 num_pr0 : 12288
 SAE Count : 0
 Inter-Core Inteference in Data Store : 344952
Heartbeat CPU 3 instructions: 220000000 cycles: 205983838 heartbeat IPC: 0.193743 cumulative IPC: 0.210012 (Simulation time: 29 hr 25 min 32 sec) 
 Total Blocks : 196608 Invalid Blocks : 0 Valid Blocks : 196608
 Total Tags : 491520 Threshold : 12288 Invalid Tags : 196609 Pr0 Tags : 98303 Pr1 Tags : 196608 num_pr0 : 12288
 SAE Count : 0
 Inter-Core Inteference in Data Store : 648831
Heartbeat CPU 4 instructions: 220000000 cycles: 205992619 heartbeat IPC: 0.19368 cumulative IPC: 0.210127 (Simulation time: 29 hr 25 min 34 sec) 
 Total Blocks : 196608 Invalid Blocks : 0 Valid Blocks : 196608
 Total Tags : 491520 Threshold : 12288 Invalid Tags : 196610 Pr0 Tags : 98302 Pr1 Tags : 196608 num_pr0 : 12287
 SAE Count : 0
 Inter-Core Inteference in Data Store : 648965
Heartbeat CPU 0 instructions: 220000000 cycles: 206040522 heartbeat IPC: 0.193936 cumulative IPC: 0.20975 (Simulation time: 29 hr 25 min 41 sec) 
 Total Blocks : 196608 Invalid Blocks : 0 Valid Blocks : 196608
 Total Tags : 491520 Threshold : 12288 Invalid Tags : 196610 Pr0 Tags : 98302 Pr1 Tags : 196608 num_pr0 : 12288
 SAE Count : 0
 Inter-Core Inteference in Data Store : 649386
Heartbeat CPU 2 instructions: 220000000 cycles: 206056295 heartbeat IPC: 0.194549 cumulative IPC: 0.209901 (Simulation time: 29 hr 25 min 44 sec) 
 Total Blocks : 196608 Invalid Blocks : 0 Valid Blocks : 196608
 Total Tags : 491520 Threshold : 12288 Invalid Tags : 196608 Pr0 Tags : 98304 Pr1 Tags : 196608 num_pr0 : 12288
 SAE Count : 0
 Inter-Core Inteference in Data Store : 649521
Heartbeat CPU 6 instructions: 220000000 cycles: 206812828 heartbeat IPC: 0.191419 cumulative IPC: 0.208446 (Simulation time: 29 hr 27 min 23 sec) 
 Total Blocks : 196608 Invalid Blocks : 0 Valid Blocks : 196608
 Total Tags : 491520 Threshold : 12288 Invalid Tags : 196610 Pr0 Tags : 98302 Pr1 Tags : 196608 num_pr0 : 12288
 SAE Count : 0
 Inter-Core Inteference in Data Store : 657104
Heartbeat CPU 5 instructions: 220000000 cycles: 206817313 heartbeat IPC: 0.191771 cumulative IPC: 0.208418 (Simulation time: 29 hr 27 min 23 sec) 
 Total Blocks : 196608 Invalid Blocks : 0 Valid Blocks : 196608
 Total Tags : 491520 Threshold : 12288 Invalid Tags : 196610 Pr0 Tags : 98302 Pr1 Tags : 196608 num_pr0 : 12287
 SAE Count : 0
 Inter-Core Inteference in Data Store : 657153
Heartbeat CPU 1 instructions: 220000000 cycles: 206823243 heartbeat IPC: 0.19163 cumulative IPC: 0.208201 (Simulation time: 29 hr 27 min 23 sec) 
 Total Blocks : 196608 Invalid Blocks : 0 Valid Blocks : 196608
 Total Tags : 491520 Threshold : 12288 Invalid Tags : 196609 Pr0 Tags : 98303 Pr1 Tags : 196608 num_pr0 : 12288
 SAE Count : 0
 Inter-Core Inteference in Data Store : 657244
Heartbeat CPU 7 instructions: 220000000 cycles: 207023549 heartbeat IPC: 0.191245 cumulative IPC: 0.208066 (Simulation time: 29 hr 27 min 41 sec) 
 Total Blocks : 196608 Invalid Blocks : 0 Valid Blocks : 196608
 Total Tags : 491520 Threshold : 12288 Invalid Tags : 196609 Pr0 Tags : 98303 Pr1 Tags : 196608 num_pr0 : 12288
 SAE Count : 0
 Inter-Core Inteference in Data Store : 660577
Heartbeat CPU 3 instructions: 230000001 cycles: 256333595 heartbeat IPC: 0.198611 cumulative IPC: 0.206065 (Simulation time: 31 hr 0 min 53 sec) 
 Total Blocks : 196608 Invalid Blocks : 0 Valid Blocks : 196608
 Total Tags : 491520 Threshold : 12288 Invalid Tags : 196608 Pr0 Tags : 98304 Pr1 Tags : 196608 num_pr0 : 12288
 SAE Count : 0
 Inter-Core Inteference in Data Store : 1001138
Heartbeat CPU 4 instructions: 230000001 cycles: 256420718 heartbeat IPC: 0.198302 cumulative IPC: 0.20603 (Simulation time: 31 hr 0 min 57 sec) 
 Total Blocks : 196608 Invalid Blocks : 0 Valid Blocks : 196608
 Total Tags : 491520 Threshold : 12288 Invalid Tags : 196608 Pr0 Tags : 98304 Pr1 Tags : 196608 num_pr0 : 12288
 SAE Count : 0
 Inter-Core Inteference in Data Store : 1001336
Heartbeat CPU 2 instructions: 230000001 cycles: 256701982 heartbeat IPC: 0.19745 cumulative IPC: 0.205576 (Simulation time: 31 hr 1 min 8 sec) 
 Total Blocks : 196608 Invalid Blocks : 0 Valid Blocks : 196608
 Total Tags : 491520 Threshold : 12288 Invalid Tags : 196608 Pr0 Tags : 98304 Pr1 Tags : 196608 num_pr0 : 12288
 SAE Count : 0
 Inter-Core Inteference in Data Store : 1001745
Heartbeat CPU 0 instructions: 230000001 cycles: 256706949 heartbeat IPC: 0.197369 cumulative IPC: 0.205448 (Simulation time: 31 hr 1 min 9 sec) 
 Total Blocks : 196608 Invalid Blocks : 0 Valid Blocks : 196608
 Total Tags : 491520 Threshold : 12288 Invalid Tags : 196608 Pr0 Tags : 98304 Pr1 Tags : 196608 num_pr0 : 12288
 SAE Count : 0
 Inter-Core Inteference in Data Store : 1001754
Heartbeat CPU 6 instructions: 230000001 cycles: 256986761 heartbeat IPC: 0.199307 cumulative IPC: 0.205307 (Simulation time: 31 hr 1 min 21 sec) 
 Total Blocks : 196608 Invalid Blocks : 0 Valid Blocks : 196608
 Total Tags : 491520 Threshold : 12288 Invalid Tags : 196608 Pr0 Tags : 98304 Pr1 Tags : 196608 num_pr0 : 12288
 SAE Count : 0
 Inter-Core Inteference in Data Store : 1001972
Heartbeat CPU 1 instructions: 230000001 cycles: 256992195 heartbeat IPC: 0.199326 cumulative IPC: 0.205153 (Simulation time: 31 hr 1 min 22 sec) 
 Total Blocks : 196608 Invalid Blocks : 0 Valid Blocks : 196608
 Total Tags : 491520 Threshold : 12288 Invalid Tags : 196608 Pr0 Tags : 98304 Pr1 Tags : 196608 num_pr0 : 12288
 SAE Count : 0
 Inter-Core Inteference in Data Store : 1001976
Heartbeat CPU 7 instructions: 230000001 cycles: 257436204 heartbeat IPC: 0.198363 cumulative IPC: 0.204728 (Simulation time: 31 hr 1 min 40 sec) 
 Total Blocks : 196608 Invalid Blocks : 0 Valid Blocks : 196608
 Total Tags : 491520 Threshold : 12288 Invalid Tags : 196608 Pr0 Tags : 98304 Pr1 Tags : 196608 num_pr0 : 12288
 SAE Count : 0
 Inter-Core Inteference in Data Store : 1002233
Heartbeat CPU 5 instructions: 230000001 cycles: 257483122 heartbeat IPC: 0.197372 cumulative IPC: 0.2046 (Simulation time: 31 hr 1 min 42 sec) 
 Total Blocks : 196608 Invalid Blocks : 0 Valid Blocks : 196608
 Total Tags : 491520 Threshold : 12288 Invalid Tags : 196608 Pr0 Tags : 98304 Pr1 Tags : 196608 num_pr0 : 12288
 SAE Count : 0
 Inter-Core Inteference in Data Store : 1002269
Heartbeat CPU 3 instructions: 240000001 cycles: 306014188 heartbeat IPC: 0.201286 cumulative IPC: 0.204848 (Simulation time: 56 hr 44 min 16 sec) 
 Total Blocks : 196608 Invalid Blocks : 0 Valid Blocks : 196608
 Total Tags : 491520 Threshold : 12288 Invalid Tags : 196608 Pr0 Tags : 98304 Pr1 Tags : 196608 num_pr0 : 12288
 SAE Count : 0
 Inter-Core Inteference in Data Store : 1246031
Heartbeat CPU 0 instructions: 240000001 cycles: 306023629 heartbeat IPC: 0.202771 cumulative IPC: 0.204771 (Simulation time: 56 hr 44 min 58 sec) 
 Total Blocks : 196608 Invalid Blocks : 0 Valid Blocks : 196608
 Total Tags : 491520 Threshold : 12288 Invalid Tags : 196608 Pr0 Tags : 98304 Pr1 Tags : 196608 num_pr0 : 12288
 SAE Count : 0
 Inter-Core Inteference in Data Store : 1246031
Heartbeat CPU 4 instructions: 240000001 cycles: 306256205 heartbeat IPC: 0.20066 cumulative IPC: 0.20466 (Simulation time: 56 hr 56 min 47 sec) 
 Total Blocks : 196608 Invalid Blocks : 0 Valid Blocks : 196608
 Total Tags : 491520 Threshold : 12288 Invalid Tags : 196608 Pr0 Tags : 98304 Pr1 Tags : 196608 num_pr0 : 12288
 SAE Count : 0
 Inter-Core Inteference in Data Store : 1246031
Heartbeat CPU 1 instructions: 240000001 cycles: 306277141 heartbeat IPC: 0.202902 cumulative IPC: 0.204585 (Simulation time: 56 hr 58 min 22 sec) 
 Total Blocks : 196608 Invalid Blocks : 0 Valid Blocks : 196608
 Total Tags : 491520 Threshold : 12288 Invalid Tags : 196608 Pr0 Tags : 98304 Pr1 Tags : 196608 num_pr0 : 12288
 SAE Count : 0
 Inter-Core Inteference in Data Store : 1246031
Heartbeat CPU 2 instructions: 240000001 cycles: 306344327 heartbeat IPC: 0.201441 cumulative IPC: 0.204526 (Simulation time: 57 hr 1 min 38 sec) 
 Total Blocks : 196608 Invalid Blocks : 0 Valid Blocks : 196608
 Total Tags : 491520 Threshold : 12288 Invalid Tags : 196608 Pr0 Tags : 98304 Pr1 Tags : 196608 num_pr0 : 12288
 SAE Count : 0
 Inter-Core Inteference in Data Store : 1246031
Heartbeat CPU 6 instructions: 240000001 cycles: 306522164 heartbeat IPC: 0.201876 cumulative IPC: 0.204438 (Simulation time: 57 hr 10 min 12 sec) 
 Total Blocks : 196608 Invalid Blocks : 0 Valid Blocks : 196608
 Total Tags : 491520 Threshold : 12288 Invalid Tags : 196608 Pr0 Tags : 98304 Pr1 Tags : 196608 num_pr0 : 12288
 SAE Count : 0
 Inter-Core Inteference in Data Store : 1246031
Heartbeat CPU 5 instructions: 240000001 cycles: 306642016 heartbeat IPC: 0.203422 cumulative IPC: 0.204304 (Simulation time: 57 hr 16 min 6 sec) 
 Total Blocks : 196608 Invalid Blocks : 0 Valid Blocks : 196608
 Total Tags : 491520 Threshold : 12288 Invalid Tags : 196608 Pr0 Tags : 98304 Pr1 Tags : 196608 num_pr0 : 12288
 SAE Count : 0
 Inter-Core Inteference in Data Store : 1246031
Heartbeat CPU 7 instructions: 240000001 cycles: 306646712 heartbeat IPC: 0.203209 cumulative IPC: 0.204346 (Simulation time: 57 hr 16 min 21 sec) 
 Total Blocks : 196608 Invalid Blocks : 0 Valid Blocks : 196608
 Total Tags : 491520 Threshold : 12288 Invalid Tags : 196608 Pr0 Tags : 98304 Pr1 Tags : 196608 num_pr0 : 12288
 SAE Count : 0
 Inter-Core Inteference in Data Store : 1246031
Heartbeat CPU 0 instructions: 250000000 cycles: 336592280 heartbeat IPC: 0.327132 cumulative IPC: 0.221345 (Simulation time: 82 hr 0 min 34 sec) 
 Total Blocks : 196608 Invalid Blocks : 0 Valid Blocks : 196608
 Total Tags : 491520 Threshold : 12288 Invalid Tags : 196608 Pr0 Tags : 98304 Pr1 Tags : 196608 num_pr0 : 12288
 SAE Count : 0
 Inter-Core Inteference in Data Store : 1246031
Heartbeat CPU 3 instructions: 250000000 cycles: 336599861 heartbeat IPC: 0.32695 cumulative IPC: 0.221394 (Simulation time: 82 hr 0 min 55 sec) 
 Total Blocks : 196608 Invalid Blocks : 0 Valid Blocks : 196608
 Total Tags : 491520 Threshold : 12288 Invalid Tags : 196608 Pr0 Tags : 98304 Pr1 Tags : 196608 num_pr0 : 12288
 SAE Count : 0
 Inter-Core Inteference in Data Store : 1246031
Heartbeat CPU 4 instructions: 250000000 cycles: 336811184 heartbeat IPC: 0.327279 cumulative IPC: 0.221244 (Simulation time: 82 hr 11 min 14 sec) 
 Total Blocks : 196608 Invalid Blocks : 0 Valid Blocks : 196608
 Total Tags : 491520 Threshold : 12288 Invalid Tags : 196608 Pr0 Tags : 98304 Pr1 Tags : 196608 num_pr0 : 12288
 SAE Count : 0
 Inter-Core Inteference in Data Store : 1246031
Heartbeat CPU 1 instructions: 250000000 cycles: 336872604 heartbeat IPC: 0.326846 cumulative IPC: 0.221139 (Simulation time: 82 hr 14 min 18 sec) 
 Total Blocks : 196608 Invalid Blocks : 0 Valid Blocks : 196608
 Total Tags : 491520 Threshold : 12288 Invalid Tags : 196608 Pr0 Tags : 98304 Pr1 Tags : 196608 num_pr0 : 12288
 SAE Count : 0
 Inter-Core Inteference in Data Store : 1246031
Heartbeat CPU 2 instructions: 250000000 cycles: 336908996 heartbeat IPC: 0.327175 cumulative IPC: 0.221112 (Simulation time: 82 hr 16 min 12 sec) 
 Total Blocks : 196608 Invalid Blocks : 0 Valid Blocks : 196608
 Total Tags : 491520 Threshold : 12288 Invalid Tags : 196608 Pr0 Tags : 98304 Pr1 Tags : 196608 num_pr0 : 12288
 SAE Count : 0
 Inter-Core Inteference in Data Store : 1246031
Heartbeat CPU 6 instructions: 250000000 cycles: 337091735 heartbeat IPC: 0.327123 cumulative IPC: 0.221019 (Simulation time: 82 hr 25 min 37 sec) 
 Total Blocks : 196608 Invalid Blocks : 0 Valid Blocks : 196608
 Total Tags : 491520 Threshold : 12288 Invalid Tags : 196608 Pr0 Tags : 98304 Pr1 Tags : 196608 num_pr0 : 12288
 SAE Count : 0
 Inter-Core Inteference in Data Store : 1246031
Heartbeat CPU 5 instructions: 250000000 cycles: 337211605 heartbeat IPC: 0.327122 cumulative IPC: 0.220894 (Simulation time: 82 hr 31 min 37 sec) 
[...]
LLC4 LOAD      ACCESS: 655630  HIT:  4120  MISS: 651510  HIT %: 0.628403  MISS %: 99.3716  AVERAGE MISS PENALTY: 419.138
LLC4 RFO       ACCESS: 44709  HIT:    27  MISS: 44682  HIT %: 0.0603905  MISS %: 99.9396  AVERAGE MISS PENALTY: 489.539
LLC4 PREFETCH  ACCESS: 1016428  HIT: 17804  MISS: 998624  HIT %: 1.75162  MISS %: 98.2484  AVERAGE MISS PENALTY: 398.29
LLC4 WRITEBACK ACCESS: 89232  HIT:  2360  MISS: 86872  HIT %: 2.64479  MISS %: 97.3552  AVERAGE MISS PENALTY: 0
LLC4 PREFETCH  REQUESTED:     0  ISSUED:     0  USEFUL:  2657  USELESS: 11458
 USEFUL LOAD PREFETCHES:       2657 PREFETCH ISSUED TO LOWER LEVEL:    8021068  ACCURACY: 0.0331253
 TIMELY PREFETCHES:       2657 LATE PREFETCHES: 0 DROPPED PREFETCHES: 0
LLC4 AVERAGE MISS LATENCY: 388.782 cycles

LLC4 Set Associative Eviction Count : 0
LLC4 Priority 0 entries : 12288
LLC4 Inter-Core Interference : 624790
LLC5 TOTAL     ACCESS: 1802753  HIT: 23572  MISS: 1779181  HIT %: 1.30756  MISS %: 98.6924  AVERAGE MISS PENALTY: 375.243
LLC5 LOAD      ACCESS: 658634  HIT:  3656  MISS: 654978  HIT %: 0.555088  MISS %: 99.4449  AVERAGE MISS PENALTY: 405.236
LLC5 RFO       ACCESS: 44713  HIT:    58  MISS: 44655  HIT %: 0.129716  MISS %: 99.8703  AVERAGE MISS PENALTY: 479.354
LLC5 PREFETCH  ACCESS: 1011140  HIT: 17912  MISS: 993228  HIT %: 1.77147  MISS %: 98.2285  AVERAGE MISS PENALTY: 383.395
LLC5 WRITEBACK ACCESS: 88266  HIT:  1946  MISS: 86320  HIT %: 2.2047  MISS %: 97.7953  AVERAGE MISS PENALTY: 0
LLC5 PREFETCH  REQUESTED:     0  ISSUED:     0  USEFUL:  2705  USELESS: 11446
 USEFUL LOAD PREFETCHES:       2705 PREFETCH ISSUED TO LOWER LEVEL:    7962095  ACCURACY: 0.0339735
 TIMELY PREFETCHES:       2705 LATE PREFETCHES: 0 DROPPED PREFETCHES: 0
LLC5 AVERAGE MISS LATENCY: 375.243 cycles

LLC5 Set Associative Eviction Count : 0
LLC5 Priority 0 entries : 12288
LLC5 Inter-Core Interference : 621129
LLC6 TOTAL     ACCESS: 1803094  HIT: 24720  MISS: 1778374  HIT %: 1.37098  MISS %: 98.629  AVERAGE MISS PENALTY: 394.353
LLC6 LOAD      ACCESS: 662771  HIT:  4297  MISS: 658474  HIT %: 0.648339  MISS %: 99.3517  AVERAGE MISS PENALTY: 430.039
LLC6 RFO       ACCESS: 44677  HIT:    33  MISS: 44644  HIT %: 0.0738635  MISS %: 99.9261  AVERAGE MISS PENALTY: 485.469
LLC6 PREFETCH  ACCESS: 1006966  HIT: 18377  MISS: 988589  HIT %: 1.82499  MISS %: 98.175  AVERAGE MISS PENALTY: 401.04
LLC6 WRITEBACK ACCESS: 88680  HIT:  2013  MISS: 86667  HIT %: 2.26996  MISS %: 97.73  AVERAGE MISS PENALTY: 0
LLC6 PREFETCH  REQUESTED:     0  ISSUED:     0  USEFUL:  2648  USELESS: 11607
 USEFUL LOAD PREFETCHES:       2648 PREFETCH ISSUED TO LOWER LEVEL:    7937606  ACCURACY: 0.0333602
 TIMELY PREFETCHES:       2648 LATE PREFETCHES: 0 DROPPED PREFETCHES: 0
LLC6 AVERAGE MISS LATENCY: 394.353 cycles

LLC6 Set Associative Eviction Count : 0
LLC6 Priority 0 entries : 12288
LLC6 Inter-Core Interference : 623380
LLC7 TOTAL     ACCESS: 1796434  HIT: 22714  MISS: 1773720  HIT %: 1.26439  MISS %: 98.7356  AVERAGE MISS PENALTY: 383.635
LLC7 LOAD      ACCESS: 671884  HIT:  4266  MISS: 667618  HIT %: 0.634931  MISS %: 99.3651  AVERAGE MISS PENALTY: 415.645
LLC7 RFO       ACCESS: 44669  HIT:    26  MISS: 44643  HIT %: 0.0582059  MISS %: 99.9418  AVERAGE MISS PENALTY: 475.803
LLC7 PREFETCH  ACCESS: 990725  HIT: 15868  MISS: 974857  HIT %: 1.60166  MISS %: 98.3983  AVERAGE MISS PENALTY: 391.573
LLC7 WRITEBACK ACCESS: 89156  HIT:  2554  MISS: 86602  HIT %: 2.86464  MISS %: 97.1354  AVERAGE MISS PENALTY: 0
LLC7 PREFETCH  REQUESTED:     0  ISSUED:     0  USEFUL:  2543  USELESS: 10921
 USEFUL LOAD PREFETCHES:       2543 PREFETCH ISSUED TO LOWER LEVEL:    7822341  ACCURACY: 0.0325094
 TIMELY PREFETCHES:       2543 LATE PREFETCHES: 0 DROPPED PREFETCHES: 0
LLC7 AVERAGE MISS LATENCY: 383.635 cycles

LLC7 Set Associative Eviction Count : 0
LLC7 Priority 0 entries : 12288
LLC7 Inter-Core Interference : 622984
ROI Average ROB Stall Cycles:	14.3472
ROI Total ROB Stalls Cycles:	940388085
ROI TOTAL ROB counter      :	65545158
ROI Average Load ROB Stall Cycles:	59.3631
ROI Total Load ROB Stalls Cycle  :	575773357
ROI Total Load ROB stalls Counter:	9699179
Major fault: 0 Minor fault: 117085

CPU 7 cumulative IPC: 0.204513 instructions: 200000000 cycles: 977933394
ITLB TOTAL     ACCESS: 49863314  HIT: 49863314  MISS:     0  HIT %:   100  MISS %:     0  AVERAGE MISS PENALTY: 0
ITLB LOAD      ACCESS: 49863314  HIT: 49863314  MISS:     0  HIT %:   100  MISS %:     0  AVERAGE MISS PENALTY: 0
ITLB RFO       ACCESS:     0  HIT:     0  MISS:     0  HIT %:     0  MISS %:     0  AVERAGE MISS PENALTY: 0
ITLB PREFETCH  ACCESS:     0  HIT:     0  MISS:     0  HIT %:     0  MISS %:     0  AVERAGE MISS PENALTY: 0
ITLB WRITEBACK ACCESS:     0  HIT:     0  MISS:     0  HIT %:     0  MISS %:     0  AVERAGE MISS PENALTY: 0
ITLB PREFETCH  REQUESTED:     0  ISSUED:     0  USEFUL:     0  USELESS:     0
 USEFUL LOAD PREFETCHES:          0 PREFETCH ISSUED TO LOWER LEVEL:          0  ACCURACY: -nan
 TIMELY PREFETCHES:          0 LATE PREFETCHES: 0 DROPPED PREFETCHES: 0
ITLB AVERAGE MISS LATENCY: -nan cycles

ITLB Set Associative Eviction Count : 0
ITLB Priority 0 entries : 0
ITLB Inter-Core Interference : 0
DTLB TOTAL     ACCESS: 59992973  HIT: 59128308  MISS: 864665  HIT %: 98.5587  MISS %: 1.44128  AVERAGE MISS PENALTY: 41.9832
DTLB LOAD      ACCESS: 45212838  HIT: 44365919  MISS: 846919  HIT %: 98.1268  MISS %: 1.87318  AVERAGE MISS PENALTY: 41.9045
DTLB RFO       ACCESS: 14780135  HIT: 14762389  MISS: 17746  HIT %: 99.8799  MISS %: 0.120067  AVERAGE MISS PENALTY: 45.7377
DTLB PREFETCH  ACCESS:     0  HIT:     0  MISS:     0  HIT %:     0  MISS %:     0  AVERAGE MISS PENALTY: 0
DTLB WRITEBACK ACCESS:     0  HIT:     0  MISS:     0  HIT %:     0  MISS %:     0  AVERAGE MISS PENALTY: 0
DTLB PREFETCH  REQUESTED:     0  ISSUED:     0  USEFUL:     0  USELESS:     0
 USEFUL LOAD PREFETCHES:          0 PREFETCH ISSUED TO LOWER LEVEL:          0  ACCURACY: -nan
 TIMELY PREFETCHES:          0 LATE PREFETCHES: 0 DROPPED PREFETCHES: 0
DTLB AVERAGE MISS LATENCY: 41.9832 cycles

DTLB Set Associative Eviction Count : 0
DTLB Priority 0 entries : 0
DTLB Inter-Core Interference : 0
STLB TOTAL     ACCESS: 864665  HIT: 581134  MISS: 283531  HIT %: 67.2092  MISS %: 32.7908  AVERAGE MISS PENALTY: 100
STLB LOAD      ACCESS: 846919  HIT: 569500  MISS: 277419  HIT %: 67.2437  MISS %: 32.7563  AVERAGE MISS PENALTY: 100
STLB RFO       ACCESS: 17746  HIT: 11634  MISS:  6112  HIT %: 65.5584  MISS %: 34.4416  AVERAGE MISS PENALTY: 100
STLB PREFETCH  ACCESS:     0  HIT:     0  MISS:     0  HIT %:     0  MISS %:     0  AVERAGE MISS PENALTY: 0
STLB WRITEBACK ACCESS:     0  HIT:     0  MISS:     0  HIT %:     0  MISS %:     0  AVERAGE MISS PENALTY: 0
STLB PREFETCH  REQUESTED:     0  ISSUED:     0  USEFUL:     0  USELESS:     0
 USEFUL LOAD PREFETCHES:          0 PREFETCH ISSUED TO LOWER LEVEL:          0  ACCURACY: -nan
 TIMELY PREFETCHES:          0 LATE PREFETCHES: 0 DROPPED PREFETCHES: 0
STLB AVERAGE MISS LATENCY: 100 cycles

STLB Set Associative Eviction Count : 0
STLB Priority 0 entries : 0
STLB Inter-Core Interference : 0
L1D TOTAL     ACCESS: 100348273  HIT: 86324229  MISS: 14024044  HIT %: 86.0246  MISS %: 13.9754  AVERAGE MISS PENALTY: 1.50178e+08
L1D LOAD      ACCESS: 46623246  HIT: 38223109  MISS: 8400137  HIT %: 81.9829  MISS %: 18.0171  AVERAGE MISS PENALTY: 2.50189e+08
L1D RFO       ACCESS: 34460857  HIT: 34085774  MISS: 375083  HIT %: 98.9116  MISS %: 1.08843  AVERAGE MISS PENALTY: 1.19486e+07
L1D PREFETCH  ACCESS: 19264170  HIT: 14015346  MISS: 5248824  HIT %: 72.7534  MISS %: 27.2466  AVERAGE MISS PENALTY: 340.864
L1D WRITEBACK ACCESS:     0  HIT:     0  MISS:     0  HIT %:     0  MISS %:     0  AVERAGE MISS PENALTY: 0
L1D PREFETCH  REQUESTED: 42150932  ISSUED: 41321237  USEFUL: 3981216  USELESS: 1267557
 USEFUL LOAD PREFETCHES:    3981216 PREFETCH ISSUED TO LOWER LEVEL:   28794922  ACCURACY: 13.8261
 TIMELY PREFETCHES:    3981216 LATE PREFETCHES: 6707027 DROPPED PREFETCHES: 829695
L1D AVERAGE MISS LATENCY: 319929 cycles

L1D Set Associative Eviction Count : 0
L1D Priority 0 entries : 0
L1D Inter-Core Interference : 0
L1I TOTAL     ACCESS: 61926131  HIT: 61926121  MISS:    10  HIT %:   100  MISS %: 1.61483e-05  AVERAGE MISS PENALTY: 519.1
L1I LOAD      ACCESS: 61926131  HIT: 61926121  MISS:    10  HIT %:   100  MISS %: 1.61483e-05  AVERAGE MISS PENALTY: 519.1
L1I RFO       ACCESS:     0  HIT:     0  MISS:     0  HIT %:     0  MISS %:     0  AVERAGE MISS PENALTY: 0
L1I PREFETCH  ACCESS:     0  HIT:     0  MISS:     0  HIT %:     0  MISS %:     0  AVERAGE MISS PENALTY: 0
L1I WRITEBACK ACCESS:     0  HIT:     0  MISS:     0  HIT %:     0  MISS %:     0  AVERAGE MISS PENALTY: 0
L1I PREFETCH  REQUESTED:     0  ISSUED:     0  USEFUL:     0  USELESS:     0
 USEFUL LOAD PREFETCHES:          0 PREFETCH ISSUED TO LOWER LEVEL:          0  ACCURACY: -nan
 TIMELY PREFETCHES:          0 LATE PREFETCHES: 0 DROPPED PREFETCHES: 0
L1I AVERAGE MISS LATENCY: 519.1 cycles

L1I Set Associative Eviction Count : 0
L1I Priority 0 entries : 0
L1I Inter-Core Interference : 10
L2C TOTAL     ACCESS: 16441956  HIT: 2685804  MISS: 13756152  HIT %: 16.3351  MISS %: 83.6649  AVERAGE MISS PENALTY: 1.40708e+08
L2C LOAD      ACCESS: 8275757  HIT: 284834  MISS: 7990923  HIT %: 3.44179  MISS %: 96.5582  AVERAGE MISS PENALTY: 2.42205e+08
L2C RFO       ACCESS: 367798  HIT:  8696  MISS: 359102  HIT %: 2.36434  MISS %: 97.6357  AVERAGE MISS PENALTY: 434249
L2C PREFETCH  ACCESS: 6989897  HIT: 1596000  MISS: 5393897  HIT %: 22.833  MISS %: 77.167  AVERAGE MISS PENALTY: 423.207
L2C WRITEBACK ACCESS: 808504  HIT: 796274  MISS: 12230  HIT %: 98.4873  MISS %: 1.51267  AVERAGE MISS PENALTY: 0
L2C PREFETCH  REQUESTED: 11902775  ISSUED: 11885418  USEFUL: 175611  USELESS: 5220427
 USEFUL LOAD PREFETCHES:     175611 PREFETCH ISSUED TO LOWER LEVEL:   13900431  ACCURACY: 1.26335
 TIMELY PREFETCHES:     175611 LATE PREFETCHES: 5518716 DROPPED PREFETCHES: 17357
L2C AVERAGE MISS LATENCY: 402.929 cycles

L2C Set Associative Eviction Count : 0
L2C Priority 0 entries : 0
L2C Inter-Core Interference : 0
LLC0 TOTAL     ACCESS: 1801606  HIT: 24478  MISS: 1777128  HIT %: 1.35868  MISS %: 98.6413  AVERAGE MISS PENALTY: 380.759
LLC0 LOAD      ACCESS: 667440  HIT:  4093  MISS: 663347  HIT %: 0.613239  MISS %: 99.3868  AVERAGE MISS PENALTY: 393.904
LLC0 RFO       ACCESS: 45429  HIT:   114  MISS: 45315  HIT %: 0.250941  MISS %: 99.7491  AVERAGE MISS PENALTY: 507.856
LLC0 PREFETCH  ACCESS: 998293  HIT: 16655  MISS: 981638  HIT %: 1.66835  MISS %: 98.3317  AVERAGE MISS PENALTY: 399.688
LLC0 WRITEBACK ACCESS: 90444  HIT:  3616  MISS: 86828  HIT %: 3.99805  MISS %: 96.0019  AVERAGE MISS PENALTY: 0
LLC0 PREFETCH  REQUESTED:     0  ISSUED:     0  USEFUL:  2812  USELESS: 11138
 USEFUL LOAD PREFETCHES:       2812 PREFETCH ISSUED TO LOWER LEVEL:    7857350  ACCURACY: 0.0357881
 TIMELY PREFETCHES:       2812 LATE PREFETCHES: 0 DROPPED PREFETCHES: 0
LLC0 AVERAGE MISS LATENCY: 380.759 cycles

LLC0 Set Associative Eviction Count : 0
LLC0 Priority 0 entries : 12288
LLC0 Inter-Core Interference : 624383
LLC1 TOTAL     ACCESS: 1811340  HIT: 24887  MISS: 1786453  HIT %: 1.37396  MISS %: 98.626  AVERAGE MISS PENALTY: 387.178
LLC1 LOAD      ACCESS: 671408  HIT:  4906  MISS: 666502  HIT %: 0.730703  MISS %: 99.2693  AVERAGE MISS PENALTY: 404.226
LLC1 RFO       ACCESS: 44940  HIT:   219  MISS: 44721  HIT %: 0.487316  MISS %: 99.5127  AVERAGE MISS PENALTY: 513.302
LLC1 PREFETCH  ACCESS: 1004860  HIT: 16080  MISS: 988780  HIT %: 1.60022  MISS %: 98.3998  AVERAGE MISS PENALTY: 403.834
LLC1 WRITEBACK ACCESS: 90132  HIT:  3682  MISS: 86450  HIT %: 4.08512  MISS %: 95.9149  AVERAGE MISS PENALTY: 0
LLC1 PREFETCH  REQUESTED:     0  ISSUED:     0  USEFUL:  2690  USELESS: 10576
 USEFUL LOAD PREFETCHES:       2690 PREFETCH ISSUED TO LOWER LEVEL:    7897450  ACCURACY: 0.0340616
 TIMELY PREFETCHES:       2690 LATE PREFETCHES: 0 DROPPED PREFETCHES: 0
LLC1 AVERAGE MISS LATENCY: 387.178 cycles

LLC1 Set Associative Eviction Count : 0
LLC1 Priority 0 entries : 12288
LLC1 Inter-Core Interference : 621272
LLC2 TOTAL     ACCESS: 1815348  HIT: 24871  MISS: 1790477  HIT %: 1.37004  MISS %: 98.63  AVERAGE MISS PENALTY: 389.005
LLC2 LOAD      ACCESS: 655321  HIT:  3973  MISS: 651348  HIT %: 0.606268  MISS %: 99.3937  AVERAGE MISS PENALTY: 406.305
LLC2 RFO       ACCESS: 44811  HIT:   111  MISS: 44700  HIT %: 0.247707  MISS %: 99.7523  AVERAGE MISS PENALTY: 504.294
LLC2 PREFETCH  ACCESS: 1025897  HIT: 18226  MISS: 1007671  HIT %: 1.77659  MISS %: 98.2234  AVERAGE MISS PENALTY: 406.202
LLC2 WRITEBACK ACCESS: 89319  HIT:  2561  MISS: 86758  HIT %: 2.86725  MISS %: 97.1327  AVERAGE MISS PENALTY: 0
LLC2 PREFETCH  REQUESTED:     0  ISSUED:     0  USEFUL:  2633  USELESS: 11109
 USEFUL LOAD PREFETCHES:       2633 PREFETCH ISSUED TO LOWER LEVEL:    8064573  ACCURACY: 0.032649
 TIMELY PREFETCHES:       2633 LATE PREFETCHES: 0 DROPPED PREFETCHES: 0
LLC2 AVERAGE MISS LATENCY: 389.005 cycles

LLC2 Set Associative Eviction Count : 0
LLC2 Priority 0 entries : 12288
LLC2 Inter-Core Interference : 623764
LLC3 TOTAL     ACCESS: 1811562  HIT: 25542  MISS: 1786020  HIT %: 1.40994  MISS %: 98.5901  AVERAGE MISS PENALTY: 393.09
LLC3 LOAD      ACCESS: 659525  HIT:  3980  MISS: 655545  HIT %: 0.603465  MISS %: 99.3965  AVERAGE MISS PENALTY: 410.885
LLC3 RFO       ACCESS: 44821  HIT:   128  MISS: 44693  HIT %: 0.28558  MISS %: 99.7144  AVERAGE MISS PENALTY: 509.66
LLC3 PREFETCH  ACCESS: 1018151  HIT: 19033  MISS: 999118  HIT %: 1.86937  MISS %: 98.1306  AVERAGE MISS PENALTY: 410.296
LLC3 WRITEBACK ACCESS: 89065  HIT:  2401  MISS: 86664  HIT %: 2.69578  MISS %: 97.3042  AVERAGE MISS PENALTY: 0
LLC3 PREFETCH  REQUESTED:     0  ISSUED:     0  USEFUL:  2581  USELESS: 11417
 USEFUL LOAD PREFETCHES:       2581 PREFETCH ISSUED TO LOWER LEVEL:    7987461  ACCURACY: 0.0323131
 TIMELY PREFETCHES:       2581 LATE PREFETCHES: 0 DROPPED PREFETCHES: 0
LLC3 AVERAGE MISS LATENCY: 393.09 cycles

LLC3 Set Associative Eviction Count : 0
LLC3 Priority 0 entries : 12288
LLC3 Inter-Core Interference : 623563
LLC4 TOTAL     ACCESS: 1808486  HIT: 24871  MISS: 1783615  HIT %: 1.37524  MISS %: 98.6248  AVERAGE MISS PENALTY: 389.338
LLC4 LOAD      ACCESS: 654944  HIT:  4010  MISS: 650934  HIT %: 0.612266  MISS %: 99.3877  AVERAGE MISS PENALTY: 415.184
LLC4 RFO       ACCESS: 44727  HIT:    36  MISS: 44691  HIT %: 0.0804883  MISS %: 99.9195  AVERAGE MISS PENALTY: 510.095
LLC4 PREFETCH  ACCESS: 1019653  HIT: 18535  MISS: 1001118  HIT %: 1.81778  MISS %: 98.1822  AVERAGE MISS PENALTY: 400.927
LLC4 WRITEBACK ACCESS: 89162  HIT:  2290  MISS: 86872  HIT %: 2.56836  MISS %: 97.4316  AVERAGE MISS PENALTY: 0
LLC4 PREFETCH  REQUESTED:     0  ISSUED:     0  USEFUL:  2657  USELESS: 11458
 USEFUL LOAD PREFETCHES:       2657 PREFETCH ISSUED TO LOWER LEVEL:    8021068  ACCURACY: 0.0331253
 TIMELY PREFETCHES:       2657 LATE PREFETCHES: 0 DROPPED PREFETCHES: 0
LLC4 AVERAGE MISS LATENCY: 389.338 cycles

LLC4 Set Associative Eviction Count : 0
LLC4 Priority 0 entries : 12288
LLC4 Inter-Core Interference : 624790
LLC5 TOTAL     ACCESS: 1805824  HIT: 24303  MISS: 1781521  HIT %: 1.34581  MISS %: 98.6542  AVERAGE MISS PENALTY: 375.912
LLC5 LOAD      ACCESS: 657222  HIT:  3534  MISS: 653688  HIT %: 0.537718  MISS %: 99.4623  AVERAGE MISS PENALTY: 401.147
LLC5 RFO       ACCESS: 44724  HIT:    64  MISS: 44660  HIT %: 0.1431  MISS %: 99.8569  AVERAGE MISS PENALTY: 499.267
LLC5 PREFETCH  ACCESS: 1015669  HIT: 18834  MISS: 996835  HIT %: 1.85434  MISS %: 98.1457  AVERAGE MISS PENALTY: 386.396
LLC5 WRITEBACK ACCESS: 88209  HIT:  1871  MISS: 86338  HIT %: 2.1211  MISS %: 97.8789  AVERAGE MISS PENALTY: 0
LLC5 PREFETCH  REQUESTED:     0  ISSUED:     0  USEFUL:  2705  USELESS: 11446
 USEFUL LOAD PREFETCHES:       2705 PREFETCH ISSUED TO LOWER LEVEL:    7962095  ACCURACY: 0.0339735
 TIMELY PREFETCHES:       2705 LATE PREFETCHES: 0 DROPPED PREFETCHES: 0
LLC5 AVERAGE MISS LATENCY: 375.912 cycles

LLC5 Set Associative Eviction Count : 0
LLC5 Priority 0 entries : 12288
LLC5 Inter-Core Interference : 621129
LLC6 TOTAL     ACCESS: 1804836  HIT: 24926  MISS: 1779910  HIT %: 1.38107  MISS %: 98.6189  AVERAGE MISS PENALTY: 395.204
LLC6 LOAD      ACCESS: 661873  HIT:  3860  MISS: 658013  HIT %: 0.583193  MISS %: 99.4168  AVERAGE MISS PENALTY: 425.223
LLC6 RFO       ACCESS: 44703  HIT:    32  MISS: 44671  HIT %: 0.0715836  MISS %: 99.9284  AVERAGE MISS PENALTY: 508.432
LLC6 PREFETCH  ACCESS: 1009638  HIT: 19098  MISS: 990540  HIT %: 1.89157  MISS %: 98.1084  AVERAGE MISS PENALTY: 404.743
LLC6 WRITEBACK ACCESS: 88622  HIT:  1936  MISS: 86686  HIT %: 2.18456  MISS %: 97.8154  AVERAGE MISS PENALTY: 0
LLC6 PREFETCH  REQUESTED:     0  ISSUED:     0  USEFUL:  2648  USELESS: 11607
 USEFUL LOAD PREFETCHES:       2648 PREFETCH ISSUED TO LOWER LEVEL:    7937606  ACCURACY: 0.0333602
 TIMELY PREFETCHES:       2648 LATE PREFETCHES: 0 DROPPED PREFETCHES: 0
LLC6 AVERAGE MISS LATENCY: 395.204 cycles

LLC6 Set Associative Eviction Count : 0
LLC6 Priority 0 entries : 12288
LLC6 Inter-Core Interference : 623380
LLC7 TOTAL     ACCESS: 1799097  HIT: 23473  MISS: 1775624  HIT %: 1.30471  MISS %: 98.6953  AVERAGE MISS PENALTY: 383.872
LLC7 LOAD      ACCESS: 669748  HIT:  4348  MISS: 665400  HIT %: 0.649199  MISS %: 99.3508  AVERAGE MISS PENALTY: 411.282
LLC7 RFO       ACCESS: 44691  HIT:    34  MISS: 44657  HIT %: 0.076078  MISS %: 99.9239  AVERAGE MISS PENALTY: 497.877
LLC7 PREFETCH  ACCESS: 995429  HIT: 16429  MISS: 979000  HIT %: 1.65044  MISS %: 98.3496  AVERAGE MISS PENALTY: 393.986
LLC7 WRITEBACK ACCESS: 89229  HIT:  2662  MISS: 86567  HIT %: 2.98334  MISS %: 97.0167  AVERAGE MISS PENALTY: 0
LLC7 PREFETCH  REQUESTED:     0  ISSUED:     0  USEFUL:  2543  USELESS: 10921
 USEFUL LOAD PREFETCHES:       2543 PREFETCH ISSUED TO LOWER LEVEL:    7822341  ACCURACY: 0.0325094
 TIMELY PREFETCHES:       2543 LATE PREFETCHES: 0 DROPPED PREFETCHES: 0
LLC7 AVERAGE MISS LATENCY: 383.872 cycles

LLC7 Set Associative Eviction Count : 0
LLC7 Priority 0 entries : 12288
LLC7 Inter-Core Interference : 622984
ROI Average ROB Stall Cycles:	14.3448
ROI Total ROB Stalls Cycles:	940278065
ROI TOTAL ROB counter      :	65548459
ROI Average Load ROB Stall Cycles:	59.2312
ROI Total Load ROB Stalls Cycle  :	574421338
ROI Total Load ROB stalls Counter:	9697953
Major fault: 0 Minor fault: 117086








Interconnect Stats 
LINK 0 BW : 0LINK 1 BW : 0LINK 2 BW : 0LINK 3 BW : 0LINK 4 BW : 0LINK 5 BW : 0LINK 6 BW : 0LINK 7 BW : 0
DRAM Statistics
 CHANNEL 0
 RQ ROW_BUFFER_HIT: 26184011  ROW_BUFFER_MISS: 28045656
 DBUS_CONGESTED: 49309341
 WQ ROW_BUFFER_HIT: 86180  ROW_BUFFER_MISS: 2700298  FULL:     0

 CHANNEL 1
 RQ ROW_BUFFER_HIT: 26154811  ROW_BUFFER_MISS: 28064557
 DBUS_CONGESTED: 49309341
 WQ ROW_BUFFER_HIT: 84838  ROW_BUFFER_MISS: 2693120  FULL:     0

 AVG_CONGESTED_CYCLE: 6
DRAM PAGES: 2097152
Allocated PAGES: 936630
L2C destructor called
L1D destructor called
L1I destructor called
STLB destructor called
DTLB destructor called
ITLB destructor called
L2C destructor called
L1D destructor called
L1I destructor called
STLB destructor called
DTLB destructor called
ITLB destructor called
L2C destructor called
L1D destructor called
L1I destructor called
STLB destructor called
DTLB destructor called
ITLB destructor called
L2C destructor called
L1D destructor called
L1I destructor called
STLB destructor called
DTLB destructor called
ITLB destructor called
L2C destructor called
L1D destructor called
L1I destructor called
STLB destructor called
DTLB destructor called
ITLB destructor called
L2C destructor called
L1D destructor called
L1I destructor called
STLB destructor called
DTLB destructor called
ITLB destructor called
L2C destructor called
L1D destructor called
L1I destructor called
STLB destructor called
DTLB destructor called
ITLB destructor called
L2C destructor called
L1D destructor called
L1I destructor called
STLB destructor called
DTLB destructor called
ITLB destructor called
