
*** ChampSim Multicore Out-of-Order Simulator ***

Warmup Instructions: 200000000
Simulation Instructions: 200000000
Number of CPUs: 8
threads:1

L1I Configuration:
L1I_SET:64
L1I_WAY:8
L1I_RQ_SIZE:64
L1I_WQ_SIZE:64
L1I_PQ_SIZE:8
L1I_MSHR_SIZE:8

L1D Configuration:
L1D_SET:64
L1D_WAY:12
L1D_RQ_SIZE:64
L1D_WQ_SIZE:64
L1D_PQ_SIZE:8
L1D_MSHR_SIZE:16

L2C Configuration:
L2C_SET:1024
L2C_WAY:8
L2C_RQ_SIZE:32
L2C_WQ_SIZE:32
L2C_PQ_SIZE:16
L2C_MSHR_SIZE:32

LLC Configuration:
LLC_SET:2048
LLC_WAY:12
LLC SLICES:8
LLC_RQ_SIZE:64
LLC_WQ_SIZE:64
LLC_PQ_SIZE:32
LLC_MSHR_SIZE:64

Interconnect OFF
Attacker deprioritize is: OFF
Off-chip DRAM Size: 8192 MB Channels: 2 Width: 64-bit Data Rate: 3200 MT/s
PAGE SIZE in KB: 4.000000 
PAGE SIZE in MB: 0.003906 
PAGE offset in bits: 12 
CEASER-S_LLC:0
MIRAGE : 1
CEASER_LATENCY:3
REMAP : OFF
Partitions : 1
Multi-Step : OFF
BFS : OFF

CPU 0 runs /home/anubhav/spec_2017/607.cactuBSSN_s-4004B.champsimtrace.xz
CPU 1 runs /home/anubhav/spec_2017/607.cactuBSSN_s-4004B.champsimtrace.xz
CPU 2 runs /home/anubhav/spec_2017/607.cactuBSSN_s-4004B.champsimtrace.xz
CPU 3 runs /home/anubhav/spec_2017/607.cactuBSSN_s-4004B.champsimtrace.xz
CPU 4 runs /home/anubhav/spec_2017/607.cactuBSSN_s-4004B.champsimtrace.xz
CPU 5 runs /home/anubhav/spec_2017/607.cactuBSSN_s-4004B.champsimtrace.xz
CPU 6 runs /home/anubhav/spec_2017/607.cactuBSSN_s-4004B.champsimtrace.xz
CPU 7 runs /home/anubhav/spec_2017/607.cactuBSSN_s-4004B.champsimtrace.xz
CPU 0 Bimodal branch predictor
Initialize Hawkeye state
Initialize Hawkeye state
Initialize Hawkeye state
Initialize Hawkeye state
Initialize Hawkeye state
Initialize Hawkeye state
Initialize Hawkeye state
Initialize Hawkeye state
CPU 1 Bimodal branch predictor
Initialize Hawkeye state
Initialize Hawkeye state
Initialize Hawkeye state
Initialize Hawkeye state
Initialize Hawkeye state
Initialize Hawkeye state
Initialize Hawkeye state
Initialize Hawkeye state
CPU 2 Bimodal branch predictor
Initialize Hawkeye state
Initialize Hawkeye state
Initialize Hawkeye state
Initialize Hawkeye state
Initialize Hawkeye state
Initialize Hawkeye state
Initialize Hawkeye state
Initialize Hawkeye state
CPU 3 Bimodal branch predictor
Initialize Hawkeye state
Initialize Hawkeye state
Initialize Hawkeye state
Initialize Hawkeye state
Initialize Hawkeye state
Initialize Hawkeye state
Initialize Hawkeye state
Initialize Hawkeye state
CPU 4 Bimodal branch predictor
Initialize Hawkeye state
Initialize Hawkeye state
Initialize Hawkeye state
Initialize Hawkeye state
Initialize Hawkeye state
Initialize Hawkeye state
Initialize Hawkeye state
Initialize Hawkeye state
CPU 5 Bimodal branch predictor
Initialize Hawkeye state
Initialize Hawkeye state
Initialize Hawkeye state
Initialize Hawkeye state
Initialize Hawkeye state
Initialize Hawkeye state
Initialize Hawkeye state
Initialize Hawkeye state
CPU 6 Bimodal branch predictor
Initialize Hawkeye state
Initialize Hawkeye state
Initialize Hawkeye state
Initialize Hawkeye state
Initialize Hawkeye state
Initialize Hawkeye state
Initialize Hawkeye state
Initialize Hawkeye state
CPU 7 Bimodal branch predictor
Initialize Hawkeye state
Initialize Hawkeye state
Initialize Hawkeye state
Initialize Hawkeye state
Initialize Hawkeye state
Initialize Hawkeye state
Initialize Hawkeye state
Initialize Hawkeye state
Heartbeat CPU 7 instructions: 10000000 cycles: 5485991 heartbeat IPC: 1.82282 cumulative IPC: 1.82282 (Simulation time: 1 hr 5 min 2 sec) 
 Total Blocks : 196608 Invalid Blocks : 99127 Valid Blocks : 97481
 Total Tags : 491520 Threshold : 12288 Invalid Tags : 295816 Pr0 Tags : 98223 Pr1 Tags : 97481 num_pr0 : 12284
 SAE Count : 0
 Inter-Core Inteference in Data Store : 32624
Heartbeat CPU 1 instructions: 10000000 cycles: 5486191 heartbeat IPC: 1.82276 cumulative IPC: 1.82276 (Simulation time: 1 hr 5 min 2 sec) 
 Total Blocks : 196608 Invalid Blocks : 99124 Valid Blocks : 97484
 Total Tags : 491520 Threshold : 12288 Invalid Tags : 295816 Pr0 Tags : 98220 Pr1 Tags : 97484 num_pr0 : 12284
 SAE Count : 0
 Inter-Core Inteference in Data Store : 32624
Heartbeat CPU 4 instructions: 10000000 cycles: 5486209 heartbeat IPC: 1.82275 cumulative IPC: 1.82275 (Simulation time: 1 hr 5 min 2 sec) 
 Total Blocks : 196608 Invalid Blocks : 99124 Valid Blocks : 97484
 Total Tags : 491520 Threshold : 12288 Invalid Tags : 295816 Pr0 Tags : 98220 Pr1 Tags : 97484 num_pr0 : 12284
 SAE Count : 0
 Inter-Core Inteference in Data Store : 32624
Heartbeat CPU 6 instructions: 10000000 cycles: 5486261 heartbeat IPC: 1.82273 cumulative IPC: 1.82273 (Simulation time: 1 hr 5 min 2 sec) 
 Total Blocks : 196608 Invalid Blocks : 99124 Valid Blocks : 97484
 Total Tags : 491520 Threshold : 12288 Invalid Tags : 295816 Pr0 Tags : 98220 Pr1 Tags : 97484 num_pr0 : 12284
 SAE Count : 0
 Inter-Core Inteference in Data Store : 32625
Heartbeat CPU 2 instructions: 10000000 cycles: 5486477 heartbeat IPC: 1.82266 cumulative IPC: 1.82266 (Simulation time: 1 hr 5 min 2 sec) 
 Total Blocks : 196608 Invalid Blocks : 99124 Valid Blocks : 97484
 Total Tags : 491520 Threshold : 12288 Invalid Tags : 295816 Pr0 Tags : 98220 Pr1 Tags : 97484 num_pr0 : 12284
 SAE Count : 0
 Inter-Core Inteference in Data Store : 32626
Heartbeat CPU 0 instructions: 10000000 cycles: 5486663 heartbeat IPC: 1.8226 cumulative IPC: 1.8226 (Simulation time: 1 hr 5 min 2 sec) 
 Total Blocks : 196608 Invalid Blocks : 99124 Valid Blocks : 97484
 Total Tags : 491520 Threshold : 12288 Invalid Tags : 295816 Pr0 Tags : 98220 Pr1 Tags : 97484 num_pr0 : 12284
 SAE Count : 0
 Inter-Core Inteference in Data Store : 32626
Heartbeat CPU 3 instructions: 10000000 cycles: 5486781 heartbeat IPC: 1.82256 cumulative IPC: 1.82256 (Simulation time: 1 hr 5 min 3 sec) 
 Total Blocks : 196608 Invalid Blocks : 99124 Valid Blocks : 97484
 Total Tags : 491520 Threshold : 12288 Invalid Tags : 295816 Pr0 Tags : 98220 Pr1 Tags : 97484 num_pr0 : 12284
 SAE Count : 0
 Inter-Core Inteference in Data Store : 32626
Heartbeat CPU 5 instructions: 10000000 cycles: 5486840 heartbeat IPC: 1.82254 cumulative IPC: 1.82254 (Simulation time: 1 hr 5 min 3 sec) 
 Total Blocks : 196608 Invalid Blocks : 99124 Valid Blocks : 97484
 Total Tags : 491520 Threshold : 12288 Invalid Tags : 295816 Pr0 Tags : 98220 Pr1 Tags : 97484 num_pr0 : 12284
 SAE Count : 0
 Inter-Core Inteference in Data Store : 32626
Heartbeat CPU 1 instructions: 20000000 cycles: 10971147 heartbeat IPC: 1.82317 cumulative IPC: 1.82296 (Simulation time: 2 hr 5 min 23 sec) 
 Total Blocks : 196608 Invalid Blocks : 52549 Valid Blocks : 144059
 Total Tags : 491520 Threshold : 12288 Invalid Tags : 249158 Pr0 Tags : 98303 Pr1 Tags : 144059 num_pr0 : 12288
 SAE Count : 0
 Inter-Core Inteference in Data Store : 101097
Heartbeat CPU 7 instructions: 20000000 cycles: 10971223 heartbeat IPC: 1.82308 cumulative IPC: 1.82295 (Simulation time: 2 hr 5 min 23 sec) 
 Total Blocks : 196608 Invalid Blocks : 52549 Valid Blocks : 144059
 Total Tags : 491520 Threshold : 12288 Invalid Tags : 249158 Pr0 Tags : 98303 Pr1 Tags : 144059 num_pr0 : 12288
 SAE Count : 0
 Inter-Core Inteference in Data Store : 101097
Heartbeat CPU 4 instructions: 20000000 cycles: 10971718 heartbeat IPC: 1.82298 cumulative IPC: 1.82287 (Simulation time: 2 hr 5 min 23 sec) 
 Total Blocks : 196608 Invalid Blocks : 52548 Valid Blocks : 144060
 Total Tags : 491520 Threshold : 12288 Invalid Tags : 249157 Pr0 Tags : 98303 Pr1 Tags : 144060 num_pr0 : 12288
 SAE Count : 0
 Inter-Core Inteference in Data Store : 101101
Heartbeat CPU 6 instructions: 20000000 cycles: 10971823 heartbeat IPC: 1.82297 cumulative IPC: 1.82285 (Simulation time: 2 hr 5 min 24 sec) 
 Total Blocks : 196608 Invalid Blocks : 52545 Valid Blocks : 144063
 Total Tags : 491520 Threshold : 12288 Invalid Tags : 249158 Pr0 Tags : 98299 Pr1 Tags : 144063 num_pr0 : 12288
 SAE Count : 0
 Inter-Core Inteference in Data Store : 101102
Heartbeat CPU 2 instructions: 20000000 cycles: 10971831 heartbeat IPC: 1.82304 cumulative IPC: 1.82285 (Simulation time: 2 hr 5 min 24 sec) 
 Total Blocks : 196608 Invalid Blocks : 52545 Valid Blocks : 144063
 Total Tags : 491520 Threshold : 12288 Invalid Tags : 249158 Pr0 Tags : 98299 Pr1 Tags : 144063 num_pr0 : 12288
 SAE Count : 0
 Inter-Core Inteference in Data Store : 101102
Heartbeat CPU 0 instructions: 20000000 cycles: 10972178 heartbeat IPC: 1.82298 cumulative IPC: 1.82279 (Simulation time: 2 hr 5 min 24 sec) 
 Total Blocks : 196608 Invalid Blocks : 52542 Valid Blocks : 144066
 Total Tags : 491520 Threshold : 12288 Invalid Tags : 249154 Pr0 Tags : 98300 Pr1 Tags : 144066 num_pr0 : 12288
 SAE Count : 0
 Inter-Core Inteference in Data Store : 101106
Heartbeat CPU 5 instructions: 20000000 cycles: 10972198 heartbeat IPC: 1.82304 cumulative IPC: 1.82279 (Simulation time: 2 hr 5 min 24 sec) 
 Total Blocks : 196608 Invalid Blocks : 52542 Valid Blocks : 144066
 Total Tags : 491520 Threshold : 12288 Invalid Tags : 249154 Pr0 Tags : 98300 Pr1 Tags : 144066 num_pr0 : 12288
 SAE Count : 0
 Inter-Core Inteference in Data Store : 101109
Heartbeat CPU 3 instructions: 20000000 cycles: 10972427 heartbeat IPC: 1.82294 cumulative IPC: 1.82275 (Simulation time: 2 hr 5 min 24 sec) 
 Total Blocks : 196608 Invalid Blocks : 52542 Valid Blocks : 144066
 Total Tags : 491520 Threshold : 12288 Invalid Tags : 249153 Pr0 Tags : 98301 Pr1 Tags : 144066 num_pr0 : 12288
 SAE Count : 0
 Inter-Core Inteference in Data Store : 101114
Heartbeat CPU 7 instructions: 30000001 cycles: 16456610 heartbeat IPC: 1.82303 cumulative IPC: 1.82298 (Simulation time: 3 hr 3 min 14 sec) 
 Total Blocks : 196608 Invalid Blocks : 27631 Valid Blocks : 168977
 Total Tags : 491520 Threshold : 12288 Invalid Tags : 224252 Pr0 Tags : 98291 Pr1 Tags : 168977 num_pr0 : 12287
 SAE Count : 0
 Inter-Core Inteference in Data Store : 189422
Heartbeat CPU 1 instructions: 30000001 cycles: 16456740 heartbeat IPC: 1.82296 cumulative IPC: 1.82296 (Simulation time: 3 hr 3 min 14 sec) 
 Total Blocks : 196608 Invalid Blocks : 27627 Valid Blocks : 168981
 Total Tags : 491520 Threshold : 12288 Invalid Tags : 224250 Pr0 Tags : 98289 Pr1 Tags : 168981 num_pr0 : 12285
 SAE Count : 0
 Inter-Core Inteference in Data Store : 189448
Heartbeat CPU 4 instructions: 30000001 cycles: 16457208 heartbeat IPC: 1.82299 cumulative IPC: 1.82291 (Simulation time: 3 hr 3 min 14 sec) 
 Total Blocks : 196608 Invalid Blocks : 27623 Valid Blocks : 168985
 Total Tags : 491520 Threshold : 12288 Invalid Tags : 224239 Pr0 Tags : 98296 Pr1 Tags : 168985 num_pr0 : 12287
 SAE Count : 0
 Inter-Core Inteference in Data Store : 189477
Heartbeat CPU 6 instructions: 30000001 cycles: 16457241 heartbeat IPC: 1.82302 cumulative IPC: 1.82291 (Simulation time: 3 hr 3 min 15 sec) 
 Total Blocks : 196608 Invalid Blocks : 27622 Valid Blocks : 168986
 Total Tags : 491520 Threshold : 12288 Invalid Tags : 224239 Pr0 Tags : 98295 Pr1 Tags : 168986 num_pr0 : 12287
 SAE Count : 0
 Inter-Core Inteference in Data Store : 189477
Heartbeat CPU 2 instructions: 30000001 cycles: 16457310 heartbeat IPC: 1.823 cumulative IPC: 1.8229 (Simulation time: 3 hr 3 min 15 sec) 
 Total Blocks : 196608 Invalid Blocks : 27620 Valid Blocks : 168988
 Total Tags : 491520 Threshold : 12288 Invalid Tags : 224239 Pr0 Tags : 98293 Pr1 Tags : 168988 num_pr0 : 12287
 SAE Count : 0
 Inter-Core Inteference in Data Store : 189479
Heartbeat CPU 5 instructions: 30000001 cycles: 16457674 heartbeat IPC: 1.823 cumulative IPC: 1.82286 (Simulation time: 3 hr 3 min 15 sec) 
 Total Blocks : 196608 Invalid Blocks : 27618 Valid Blocks : 168990
 Total Tags : 491520 Threshold : 12288 Invalid Tags : 224237 Pr0 Tags : 98293 Pr1 Tags : 168990 num_pr0 : 12288
 SAE Count : 0
 Inter-Core Inteference in Data Store : 189487
Heartbeat CPU 0 instructions: 30000001 cycles: 16457718 heartbeat IPC: 1.82297 cumulative IPC: 1.82285 (Simulation time: 3 hr 3 min 15 sec) 
 Total Blocks : 196608 Invalid Blocks : 27618 Valid Blocks : 168990
 Total Tags : 491520 Threshold : 12288 Invalid Tags : 224237 Pr0 Tags : 98293 Pr1 Tags : 168990 num_pr0 : 12288
 SAE Count : 0
 Inter-Core Inteference in Data Store : 189487
Heartbeat CPU 3 instructions: 30000001 cycles: 16457943 heartbeat IPC: 1.82298 cumulative IPC: 1.82283 (Simulation time: 3 hr 3 min 15 sec) 
 Total Blocks : 196608 Invalid Blocks : 27618 Valid Blocks : 168990
 Total Tags : 491520 Threshold : 12288 Invalid Tags : 224237 Pr0 Tags : 98293 Pr1 Tags : 168990 num_pr0 : 12288
 SAE Count : 0
 Inter-Core Inteference in Data Store : 189487
Heartbeat CPU 7 instructions: 40000003 cycles: 21941688 heartbeat IPC: 1.82313 cumulative IPC: 1.82301 (Simulation time: 3 hr 57 min 17 sec) 
 Total Blocks : 196608 Invalid Blocks : 14898 Valid Blocks : 181710
 Total Tags : 491520 Threshold : 12288 Invalid Tags : 211509 Pr0 Tags : 98301 Pr1 Tags : 181710 num_pr0 : 12288
 SAE Count : 0
 Inter-Core Inteference in Data Store : 285728
Heartbeat CPU 1 instructions: 40000003 cycles: 21941723 heartbeat IPC: 1.82316 cumulative IPC: 1.82301 (Simulation time: 3 hr 57 min 17 sec) 
 Total Blocks : 196608 Invalid Blocks : 14898 Valid Blocks : 181710
 Total Tags : 491520 Threshold : 12288 Invalid Tags : 211509 Pr0 Tags : 98301 Pr1 Tags : 181710 num_pr0 : 12288
 SAE Count : 0
 Inter-Core Inteference in Data Store : 285728
Heartbeat CPU 2 instructions: 40000003 cycles: 21942179 heartbeat IPC: 1.8232 cumulative IPC: 1.82297 (Simulation time: 3 hr 57 min 17 sec) 
 Total Blocks : 196608 Invalid Blocks : 14897 Valid Blocks : 181711
 Total Tags : 491520 Threshold : 12288 Invalid Tags : 211506 Pr0 Tags : 98303 Pr1 Tags : 181711 num_pr0 : 12288
 SAE Count : 0
 Inter-Core Inteference in Data Store : 285733
Heartbeat CPU 4 instructions: 40000003 cycles: 21942291 heartbeat IPC: 1.82313 cumulative IPC: 1.82296 (Simulation time: 3 hr 57 min 17 sec) 
 Total Blocks : 196608 Invalid Blocks : 14897 Valid Blocks : 181711
 Total Tags : 491520 Threshold : 12288 Invalid Tags : 211505 Pr0 Tags : 98304 Pr1 Tags : 181711 num_pr0 : 12288
 SAE Count : 0
 Inter-Core Inteference in Data Store : 285737
Heartbeat CPU 6 instructions: 40000003 cycles: 21942327 heartbeat IPC: 1.82313 cumulative IPC: 1.82296 (Simulation time: 3 hr 57 min 17 sec) 
 Total Blocks : 196608 Invalid Blocks : 14897 Valid Blocks : 181711
 Total Tags : 491520 Threshold : 12288 Invalid Tags : 211506 Pr0 Tags : 98303 Pr1 Tags : 181711 num_pr0 : 12288
 SAE Count : 0
 Inter-Core Inteference in Data Store : 285738
Heartbeat CPU 5 instructions: 40000003 cycles: 21942707 heartbeat IPC: 1.82314 cumulative IPC: 1.82293 (Simulation time: 3 hr 57 min 18 sec) 
 Total Blocks : 196608 Invalid Blocks : 14896 Valid Blocks : 181712
 Total Tags : 491520 Threshold : 12288 Invalid Tags : 211504 Pr0 Tags : 98304 Pr1 Tags : 181712 num_pr0 : 12288
 SAE Count : 0
 Inter-Core Inteference in Data Store : 285747
Heartbeat CPU 0 instructions: 40000003 cycles: 21942796 heartbeat IPC: 1.82313 cumulative IPC: 1.82292 (Simulation time: 3 hr 57 min 18 sec) 
 Total Blocks : 196608 Invalid Blocks : 14895 Valid Blocks : 181713
 Total Tags : 491520 Threshold : 12288 Invalid Tags : 211506 Pr0 Tags : 98301 Pr1 Tags : 181713 num_pr0 : 12288
 SAE Count : 0
 Inter-Core Inteference in Data Store : 285755
Heartbeat CPU 3 instructions: 40000003 cycles: 21942967 heartbeat IPC: 1.82315 cumulative IPC: 1.82291 (Simulation time: 3 hr 57 min 18 sec) 
 Total Blocks : 196608 Invalid Blocks : 14893 Valid Blocks : 181715
 Total Tags : 491520 Threshold : 12288 Invalid Tags : 211501 Pr0 Tags : 98304 Pr1 Tags : 181715 num_pr0 : 12288
 SAE Count : 0
 Inter-Core Inteference in Data Store : 285764
FILL
FILL
Heartbeat CPU 7 instructions: 50000000 cycles: 27427442 heartbeat IPC: 1.8229 cumulative IPC: 1.82299 (Simulation time: 4 hr 49 min 29 sec) 
 Total Blocks : 196608 Invalid Blocks : 8087 Valid Blocks : 188521
 Total Tags : 491520 Threshold : 12288 Invalid Tags : 204697 Pr0 Tags : 98302 Pr1 Tags : 188521 num_pr0 : 12287
 SAE Count : 0
 Inter-Core Inteference in Data Store : 385808
Heartbeat CPU 1 instructions: 50000000 cycles: 27427527 heartbeat IPC: 1.82289 cumulative IPC: 1.82299 (Simulation time: 4 hr 49 min 29 sec) 
 Total Blocks : 196608 Invalid Blocks : 8086 Valid Blocks : 188522
 Total Tags : 491520 Threshold : 12288 Invalid Tags : 204697 Pr0 Tags : 98301 Pr1 Tags : 188522 num_pr0 : 12287
 SAE Count : 0
 Inter-Core Inteference in Data Store : 385808
Heartbeat CPU 2 instructions: 50000000 cycles: 27427961 heartbeat IPC: 1.82289 cumulative IPC: 1.82296 (Simulation time: 4 hr 49 min 30 sec) 
 Total Blocks : 196608 Invalid Blocks : 8086 Valid Blocks : 188522
 Total Tags : 491520 Threshold : 12288 Invalid Tags : 204697 Pr0 Tags : 98301 Pr1 Tags : 188522 num_pr0 : 12287
 SAE Count : 0
 Inter-Core Inteference in Data Store : 385810
Heartbeat CPU 4 instructions: 50000000 cycles: 27428044 heartbeat IPC: 1.8229 cumulative IPC: 1.82295 (Simulation time: 4 hr 49 min 30 sec) 
 Total Blocks : 196608 Invalid Blocks : 8086 Valid Blocks : 188522
 Total Tags : 491520 Threshold : 12288 Invalid Tags : 204697 Pr0 Tags : 98301 Pr1 Tags : 188522 num_pr0 : 12287
 SAE Count : 0
 Inter-Core Inteference in Data Store : 385810
Heartbeat CPU 6 instructions: 50000000 cycles: 27428053 heartbeat IPC: 1.82291 cumulative IPC: 1.82295 (Simulation time: 4 hr 49 min 30 sec) 
 Total Blocks : 196608 Invalid Blocks : 8086 Valid Blocks : 188522
 Total Tags : 491520 Threshold : 12288 Invalid Tags : 204697 Pr0 Tags : 98301 Pr1 Tags : 188522 num_pr0 : 12287
 SAE Count : 0
 Inter-Core Inteference in Data Store : 385810
Heartbeat CPU 5 instructions: 50000000 cycles: 27428517 heartbeat IPC: 1.82288 cumulative IPC: 1.82292 (Simulation time: 4 hr 49 min 30 sec) 
 Total Blocks : 196608 Invalid Blocks : 8086 Valid Blocks : 188522
 Total Tags : 491520 Threshold : 12288 Invalid Tags : 204697 Pr0 Tags : 98301 Pr1 Tags : 188522 num_pr0 : 12287
 SAE Count : 0
 Inter-Core Inteference in Data Store : 385810
Heartbeat CPU 0 instructions: 50000000 cycles: 27428610 heartbeat IPC: 1.82288 cumulative IPC: 1.82291 (Simulation time: 4 hr 49 min 30 sec) 
 Total Blocks : 196608 Invalid Blocks : 8086 Valid Blocks : 188522
 Total Tags : 491520 Threshold : 12288 Invalid Tags : 204697 Pr0 Tags : 98301 Pr1 Tags : 188522 num_pr0 : 12287
 SAE Count : 0
 Inter-Core Inteference in Data Store : 385810
Heartbeat CPU 3 instructions: 50000000 cycles: 27428678 heartbeat IPC: 1.82292 cumulative IPC: 1.82291 (Simulation time: 4 hr 49 min 30 sec) 
 Total Blocks : 196608 Invalid Blocks : 8086 Valid Blocks : 188522
 Total Tags : 491520 Threshold : 12288 Invalid Tags : 204697 Pr0 Tags : 98301 Pr1 Tags : 188522 num_pr0 : 12287
 SAE Count : 0
 Inter-Core Inteference in Data Store : 385810
Heartbeat CPU 1 instructions: 60000001 cycles: 32913478 heartbeat IPC: 1.82284 cumulative IPC: 1.82296 (Simulation time: 5 hr 41 min 49 sec) 
 Total Blocks : 196608 Invalid Blocks : 4345 Valid Blocks : 192263
 Total Tags : 491520 Threshold : 12288 Invalid Tags : 200958 Pr0 Tags : 98299 Pr1 Tags : 192263 num_pr0 : 12287
 SAE Count : 0
 Inter-Core Inteference in Data Store : 490967
Heartbeat CPU 7 instructions: 60000001 cycles: 32913506 heartbeat IPC: 1.8228 cumulative IPC: 1.82296 (Simulation time: 5 hr 41 min 49 sec) 
 Total Blocks : 196608 Invalid Blocks : 4345 Valid Blocks : 192263
 Total Tags : 491520 Threshold : 12288 Invalid Tags : 200958 Pr0 Tags : 98299 Pr1 Tags : 192263 num_pr0 : 12287
 SAE Count : 0
 Inter-Core Inteference in Data Store : 490967
Heartbeat CPU 2 instructions: 60000001 cycles: 32913920 heartbeat IPC: 1.82284 cumulative IPC: 1.82294 (Simulation time: 5 hr 41 min 50 sec) 
 Total Blocks : 196608 Invalid Blocks : 4345 Valid Blocks : 192263
 Total Tags : 491520 Threshold : 12288 Invalid Tags : 200958 Pr0 Tags : 98299 Pr1 Tags : 192263 num_pr0 : 12287
 SAE Count : 0
 Inter-Core Inteference in Data Store : 490967
Heartbeat CPU 4 instructions: 60000001 cycles: 32913997 heartbeat IPC: 1.82284 cumulative IPC: 1.82293 (Simulation time: 5 hr 41 min 50 sec) 
 Total Blocks : 196608 Invalid Blocks : 4345 Valid Blocks : 192263
 Total Tags : 491520 Threshold : 12288 Invalid Tags : 200958 Pr0 Tags : 98299 Pr1 Tags : 192263 num_pr0 : 12287
 SAE Count : 0
 Inter-Core Inteference in Data Store : 490967
Heartbeat CPU 6 instructions: 60000001 cycles: 32914091 heartbeat IPC: 1.82281 cumulative IPC: 1.82293 (Simulation time: 5 hr 41 min 50 sec) 
 Total Blocks : 196608 Invalid Blocks : 4345 Valid Blocks : 192263
 Total Tags : 491520 Threshold : 12288 Invalid Tags : 200958 Pr0 Tags : 98299 Pr1 Tags : 192263 num_pr0 : 12287
 SAE Count : 0
 Inter-Core Inteference in Data Store : 490967
Heartbeat CPU 5 instructions: 60000001 cycles: 32914580 heartbeat IPC: 1.8228 cumulative IPC: 1.8229 (Simulation time: 5 hr 41 min 50 sec) 
 Total Blocks : 196608 Invalid Blocks : 4345 Valid Blocks : 192263
 Total Tags : 491520 Threshold : 12288 Invalid Tags : 200955 Pr0 Tags : 98302 Pr1 Tags : 192263 num_pr0 : 12288
 SAE Count : 0
 Inter-Core Inteference in Data Store : 490967
Heartbeat CPU 0 instructions: 60000001 cycles: 32914613 heartbeat IPC: 1.82282 cumulative IPC: 1.8229 (Simulation time: 5 hr 41 min 50 sec) 
 Total Blocks : 196608 Invalid Blocks : 4345 Valid Blocks : 192263
 Total Tags : 491520 Threshold : 12288 Invalid Tags : 200955 Pr0 Tags : 98302 Pr1 Tags : 192263 num_pr0 : 12288
 SAE Count : 0
 Inter-Core Inteference in Data Store : 490967
Heartbeat CPU 3 instructions: 60000001 cycles: 32914629 heartbeat IPC: 1.82284 cumulative IPC: 1.8229 (Simulation time: 5 hr 41 min 50 sec) 
 Total Blocks : 196608 Invalid Blocks : 4345 Valid Blocks : 192263
 Total Tags : 491520 Threshold : 12288 Invalid Tags : 200955 Pr0 Tags : 98302 Pr1 Tags : 192263 num_pr0 : 12288
 SAE Count : 0
 Inter-Core Inteference in Data Store : 490967
Heartbeat CPU 7 instructions: 70000001 cycles: 38398531 heartbeat IPC: 1.82315 cumulative IPC: 1.82299 (Simulation time: 6 hr 32 min 40 sec) 
 Total Blocks : 196608 Invalid Blocks : 2291 Valid Blocks : 194317
 Total Tags : 491520 Threshold : 12288 Invalid Tags : 198901 Pr0 Tags : 98302 Pr1 Tags : 194317 num_pr0 : 12288
 SAE Count : 0
 Inter-Core Inteference in Data Store : 598158
Heartbeat CPU 1 instructions: 70000001 cycles: 38398718 heartbeat IPC: 1.82307 cumulative IPC: 1.82298 (Simulation time: 6 hr 32 min 40 sec) 
 Total Blocks : 196608 Invalid Blocks : 2291 Valid Blocks : 194317
 Total Tags : 491520 Threshold : 12288 Invalid Tags : 198900 Pr0 Tags : 98303 Pr1 Tags : 194317 num_pr0 : 12288
 SAE Count : 0
 Inter-Core Inteference in Data Store : 598160
Heartbeat CPU 2 instructions: 70000001 cycles: 38398942 heartbeat IPC: 1.82315 cumulative IPC: 1.82297 (Simulation time: 6 hr 32 min 41 sec) 
 Total Blocks : 196608 Invalid Blocks : 2291 Valid Blocks : 194317
 Total Tags : 491520 Threshold : 12288 Invalid Tags : 198900 Pr0 Tags : 98303 Pr1 Tags : 194317 num_pr0 : 12288
 SAE Count : 0
 Inter-Core Inteference in Data Store : 598162
Heartbeat CPU 4 instructions: 70000001 cycles: 38399176 heartbeat IPC: 1.82309 cumulative IPC: 1.82296 (Simulation time: 6 hr 32 min 41 sec) 
 Total Blocks : 196608 Invalid Blocks : 2291 Valid Blocks : 194317
 Total Tags : 491520 Threshold : 12288 Invalid Tags : 198901 Pr0 Tags : 98302 Pr1 Tags : 194317 num_pr0 : 12288
 SAE Count : 0
 Inter-Core Inteference in Data Store : 598164
Heartbeat CPU 6 instructions: 70000001 cycles: 38399271 heartbeat IPC: 1.82309 cumulative IPC: 1.82295 (Simulation time: 6 hr 32 min 41 sec) 
 Total Blocks : 196608 Invalid Blocks : 2291 Valid Blocks : 194317
 Total Tags : 491520 Threshold : 12288 Invalid Tags : 198902 Pr0 Tags : 98301 Pr1 Tags : 194317 num_pr0 : 12288
 SAE Count : 0
 Inter-Core Inteference in Data Store : 598165
Heartbeat CPU 5 instructions: 70000001 cycles: 38399626 heartbeat IPC: 1.82314 cumulative IPC: 1.82293 (Simulation time: 6 hr 32 min 41 sec) 
 Total Blocks : 196608 Invalid Blocks : 2291 Valid Blocks : 194317
 Total Tags : 491520 Threshold : 12288 Invalid Tags : 198900 Pr0 Tags : 98303 Pr1 Tags : 194317 num_pr0 : 12288
 SAE Count : 0
 Inter-Core Inteference in Data Store : 598168
Heartbeat CPU 0 instructions: 70000001 cycles: 38399659 heartbeat IPC: 1.82314 cumulative IPC: 1.82293 (Simulation time: 6 hr 32 min 42 sec) 
 Total Blocks : 196608 Invalid Blocks : 2291 Valid Blocks : 194317
 Total Tags : 491520 Threshold : 12288 Invalid Tags : 198900 Pr0 Tags : 98303 Pr1 Tags : 194317 num_pr0 : 12288
 SAE Count : 0
 Inter-Core Inteference in Data Store : 598168
Heartbeat CPU 3 instructions: 70000001 cycles: 38399672 heartbeat IPC: 1.82314 cumulative IPC: 1.82293 (Simulation time: 6 hr 32 min 42 sec) 
 Total Blocks : 196608 Invalid Blocks : 2291 Valid Blocks : 194317
 Total Tags : 491520 Threshold : 12288 Invalid Tags : 198900 Pr0 Tags : 98303 Pr1 Tags : 194317 num_pr0 : 12288
 SAE Count : 0
 Inter-Core Inteference in Data Store : 598168
Heartbeat CPU 7 instructions: 80000001 cycles: 43884077 heartbeat IPC: 1.82297 cumulative IPC: 1.82298 (Simulation time: 7 hr 25 min 2 sec) 
 Total Blocks : 196608 Invalid Blocks : 1247 Valid Blocks : 195361
 Total Tags : 491520 Threshold : 12288 Invalid Tags : 197857 Pr0 Tags : 98302 Pr1 Tags : 195361 num_pr0 : 12288
 SAE Count : 0
 Inter-Core Inteference in Data Store : 705411
Heartbeat CPU 1 instructions: 80000001 cycles: 43884168 heartbeat IPC: 1.823 cumulative IPC: 1.82298 (Simulation time: 7 hr 25 min 2 sec) 
 Total Blocks : 196608 Invalid Blocks : 1247 Valid Blocks : 195361
 Total Tags : 491520 Threshold : 12288 Invalid Tags : 197857 Pr0 Tags : 98302 Pr1 Tags : 195361 num_pr0 : 12288
 SAE Count : 0
 Inter-Core Inteference in Data Store : 705411
Heartbeat CPU 2 instructions: 80000001 cycles: 43884373 heartbeat IPC: 1.82301 cumulative IPC: 1.82297 (Simulation time: 7 hr 25 min 2 sec) 
 Total Blocks : 196608 Invalid Blocks : 1247 Valid Blocks : 195361
 Total Tags : 491520 Threshold : 12288 Invalid Tags : 197858 Pr0 Tags : 98301 Pr1 Tags : 195361 num_pr0 : 12288
 SAE Count : 0
 Inter-Core Inteference in Data Store : 705413
Heartbeat CPU 4 instructions: 80000001 cycles: 43884570 heartbeat IPC: 1.82302 cumulative IPC: 1.82296 (Simulation time: 7 hr 25 min 3 sec) 
 Total Blocks : 196608 Invalid Blocks : 1247 Valid Blocks : 195361
 Total Tags : 491520 Threshold : 12288 Invalid Tags : 197857 Pr0 Tags : 98302 Pr1 Tags : 195361 num_pr0 : 12288
 SAE Count : 0
 Inter-Core Inteference in Data Store : 705418
Heartbeat CPU 6 instructions: 80000001 cycles: 43884763 heartbeat IPC: 1.82299 cumulative IPC: 1.82296 (Simulation time: 7 hr 25 min 3 sec) 
 Total Blocks : 196608 Invalid Blocks : 1247 Valid Blocks : 195361
 Total Tags : 491520 Threshold : 12288 Invalid Tags : 197857 Pr0 Tags : 98302 Pr1 Tags : 195361 num_pr0 : 12288
 SAE Count : 0
 Inter-Core Inteference in Data Store : 705421
Heartbeat CPU 5 instructions: 80000001 cycles: 43885136 heartbeat IPC: 1.82298 cumulative IPC: 1.82294 (Simulation time: 7 hr 25 min 3 sec) 
 Total Blocks : 196608 Invalid Blocks : 1247 Valid Blocks : 195361
 Total Tags : 491520 Threshold : 12288 Invalid Tags : 197856 Pr0 Tags : 98303 Pr1 Tags : 195361 num_pr0 : 12288
 SAE Count : 0
 Inter-Core Inteference in Data Store : 705435
Heartbeat CPU 0 instructions: 80000001 cycles: 43885186 heartbeat IPC: 1.82298 cumulative IPC: 1.82294 (Simulation time: 7 hr 25 min 3 sec) 
 Total Blocks : 196608 Invalid Blocks : 1247 Valid Blocks : 195361
 Total Tags : 491520 Threshold : 12288 Invalid Tags : 197856 Pr0 Tags : 98303 Pr1 Tags : 195361 num_pr0 : 12288
 SAE Count : 0
 Inter-Core Inteference in Data Store : 705437
Heartbeat CPU 3 instructions: 80000001 cycles: 43885281 heartbeat IPC: 1.82295 cumulative IPC: 1.82293 (Simulation time: 7 hr 25 min 3 sec) 
 Total Blocks : 196608 Invalid Blocks : 1247 Valid Blocks : 195361
 Total Tags : 491520 Threshold : 12288 Invalid Tags : 197856 Pr0 Tags : 98303 Pr1 Tags : 195361 num_pr0 : 12288
 SAE Count : 0
 Inter-Core Inteference in Data Store : 705440
Heartbeat CPU 1 instructions: 90000001 cycles: 49370107 heartbeat IPC: 1.82284 cumulative IPC: 1.82297 (Simulation time: 8 hr 14 min 10 sec) 
 Total Blocks : 196608 Invalid Blocks : 666 Valid Blocks : 195942
 Total Tags : 491520 Threshold : 12288 Invalid Tags : 197275 Pr0 Tags : 98303 Pr1 Tags : 195942 num_pr0 : 12288
 SAE Count : 0
 Inter-Core Inteference in Data Store : 816432
Heartbeat CPU 7 instructions: 90000001 cycles: 49370110 heartbeat IPC: 1.82281 cumulative IPC: 1.82297 (Simulation time: 8 hr 14 min 10 sec) 
 Total Blocks : 196608 Invalid Blocks : 666 Valid Blocks : 195942
 Total Tags : 491520 Threshold : 12288 Invalid Tags : 197275 Pr0 Tags : 98303 Pr1 Tags : 195942 num_pr0 : 12288
 SAE Count : 0
 Inter-Core Inteference in Data Store : 816432
Heartbeat CPU 2 instructions: 90000001 cycles: 49370185 heartbeat IPC: 1.82288 cumulative IPC: 1.82296 (Simulation time: 8 hr 14 min 11 sec) 
 Total Blocks : 196608 Invalid Blocks : 666 Valid Blocks : 195942
 Total Tags : 491520 Threshold : 12288 Invalid Tags : 197275 Pr0 Tags : 98303 Pr1 Tags : 195942 num_pr0 : 12288
 SAE Count : 0
 Inter-Core Inteference in Data Store : 816433
Heartbeat CPU 4 instructions: 90000001 cycles: 49370593 heartbeat IPC: 1.82281 cumulative IPC: 1.82295 (Simulation time: 8 hr 14 min 11 sec) 
 Total Blocks : 196608 Invalid Blocks : 666 Valid Blocks : 195942
 Total Tags : 491520 Threshold : 12288 Invalid Tags : 197276 Pr0 Tags : 98302 Pr1 Tags : 195942 num_pr0 : 12288
 SAE Count : 0
 Inter-Core Inteference in Data Store : 816440
Heartbeat CPU 6 instructions: 90000001 cycles: 49370821 heartbeat IPC: 1.8228 cumulative IPC: 1.82294 (Simulation time: 8 hr 14 min 11 sec) 
 Total Blocks : 196608 Invalid Blocks : 666 Valid Blocks : 195942
 Total Tags : 491520 Threshold : 12288 Invalid Tags : 197275 Pr0 Tags : 98303 Pr1 Tags : 195942 num_pr0 : 12288
 SAE Count : 0
 Inter-Core Inteference in Data Store : 816444
Heartbeat CPU 5 instructions: 90000001 cycles: 49370976 heartbeat IPC: 1.82287 cumulative IPC: 1.82293 (Simulation time: 8 hr 14 min 11 sec) 
 Total Blocks : 196608 Invalid Blocks : 666 Valid Blocks : 195942
 Total Tags : 491520 Threshold : 12288 Invalid Tags : 197274 Pr0 Tags : 98304 Pr1 Tags : 195942 num_pr0 : 12288
 SAE Count : 0
 Inter-Core Inteference in Data Store : 816444
Heartbeat CPU 0 instructions: 90000001 cycles: 49371203 heartbeat IPC: 1.82282 cumulative IPC: 1.82292 (Simulation time: 8 hr 14 min 11 sec) 
 Total Blocks : 196608 Invalid Blocks : 666 Valid Blocks : 195942
 Total Tags : 491520 Threshold : 12288 Invalid Tags : 197274 Pr0 Tags : 98304 Pr1 Tags : 195942 num_pr0 : 12288
 SAE Count : 0
 Inter-Core Inteference in Data Store : 816444
Heartbeat CPU 3 instructions: 90000001 cycles: 49371264 heartbeat IPC: 1.82283 cumulative IPC: 1.82292 (Simulation time: 8 hr 14 min 11 sec) 
 Total Blocks : 196608 Invalid Blocks : 666 Valid Blocks : 195942
 Total Tags : 491520 Threshold : 12288 Invalid Tags : 197274 Pr0 Tags : 98304 Pr1 Tags : 195942 num_pr0 : 12288
 SAE Count : 0
 Inter-Core Inteference in Data Store : 816444
Heartbeat CPU 2 instructions: 100000003 cycles: 54855123 heartbeat IPC: 1.82318 cumulative IPC: 1.82298 (Simulation time: 9 hr 2 min 56 sec) 
 Total Blocks : 196608 Invalid Blocks : 354 Valid Blocks : 196254
 Total Tags : 491520 Threshold : 12288 Invalid Tags : 196965 Pr0 Tags : 98301 Pr1 Tags : 196254 num_pr0 : 12288
 SAE Count : 0
 Inter-Core Inteference in Data Store : 925592
Heartbeat CPU 1 instructions: 100000003 cycles: 54855311 heartbeat IPC: 1.82309 cumulative IPC: 1.82298 (Simulation time: 9 hr 2 min 57 sec) 
 Total Blocks : 196608 Invalid Blocks : 354 Valid Blocks : 196254
 Total Tags : 491520 Threshold : 12288 Invalid Tags : 196965 Pr0 Tags : 98301 Pr1 Tags : 196254 num_pr0 : 12288
 SAE Count : 0
 Inter-Core Inteference in Data Store : 925592
Heartbeat CPU 7 instructions: 100000003 cycles: 54855442 heartbeat IPC: 1.82304 cumulative IPC: 1.82297 (Simulation time: 9 hr 2 min 57 sec) 
 Total Blocks : 196608 Invalid Blocks : 354 Valid Blocks : 196254
 Total Tags : 491520 Threshold : 12288 Invalid Tags : 196965 Pr0 Tags : 98301 Pr1 Tags : 196254 num_pr0 : 12288
 SAE Count : 0
 Inter-Core Inteference in Data Store : 925592
Heartbeat CPU 4 instructions: 100000003 cycles: 54855759 heartbeat IPC: 1.8231 cumulative IPC: 1.82296 (Simulation time: 9 hr 2 min 57 sec) 
 Total Blocks : 196608 Invalid Blocks : 354 Valid Blocks : 196254
 Total Tags : 491520 Threshold : 12288 Invalid Tags : 196965 Pr0 Tags : 98301 Pr1 Tags : 196254 num_pr0 : 12288
 SAE Count : 0
 Inter-Core Inteference in Data Store : 925592
Heartbeat CPU 6 instructions: 100000003 cycles: 54856183 heartbeat IPC: 1.82303 cumulative IPC: 1.82295 (Simulation time: 9 hr 2 min 57 sec) 
 Total Blocks : 196608 Invalid Blocks : 354 Valid Blocks : 196254
 Total Tags : 491520 Threshold : 12288 Invalid Tags : 196965 Pr0 Tags : 98301 Pr1 Tags : 196254 num_pr0 : 12288
 SAE Count : 0
 Inter-Core Inteference in Data Store : 925594
Heartbeat CPU 5 instructions: 100000003 cycles: 54856312 heartbeat IPC: 1.82304 cumulative IPC: 1.82294 (Simulation time: 9 hr 2 min 57 sec) 
 Total Blocks : 196608 Invalid Blocks : 354 Valid Blocks : 196254
 Total Tags : 491520 Threshold : 12288 Invalid Tags : 196965 Pr0 Tags : 98301 Pr1 Tags : 196254 num_pr0 : 12288
 SAE Count : 0
 Inter-Core Inteference in Data Store : 925595
Heartbeat CPU 0 instructions: 100000003 cycles: 54856455 heartbeat IPC: 1.82307 cumulative IPC: 1.82294 (Simulation time: 9 hr 2 min 57 sec) 
 Total Blocks : 196608 Invalid Blocks : 354 Valid Blocks : 196254
 Total Tags : 491520 Threshold : 12288 Invalid Tags : 196965 Pr0 Tags : 98301 Pr1 Tags : 196254 num_pr0 : 12288
 SAE Count : 0
 Inter-Core Inteference in Data Store : 925597
Heartbeat CPU 3 instructions: 100000003 cycles: 54856512 heartbeat IPC: 1.82307 cumulative IPC: 1.82294 (Simulation time: 9 hr 2 min 57 sec) 
 Total Blocks : 196608 Invalid Blocks : 354 Valid Blocks : 196254
 Total Tags : 491520 Threshold : 12288 Invalid Tags : 196965 Pr0 Tags : 98301 Pr1 Tags : 196254 num_pr0 : 12288
 SAE Count : 0
 Inter-Core Inteference in Data Store : 925597
Heartbeat CPU 2 instructions: 110000000 cycles: 60340551 heartbeat IPC: 1.82301 cumulative IPC: 1.82299 (Simulation time: 9 hr 49 min 38 sec) 
 Total Blocks : 196608 Invalid Blocks : 177 Valid Blocks : 196431
 Total Tags : 491520 Threshold : 12288 Invalid Tags : 196786 Pr0 Tags : 98303 Pr1 Tags : 196431 num_pr0 : 12288
 SAE Count : 0
 Inter-Core Inteference in Data Store : 1036357
Heartbeat CPU 1 instructions: 110000000 cycles: 60340825 heartbeat IPC: 1.82298 cumulative IPC: 1.82298 (Simulation time: 9 hr 49 min 39 sec) 
 Total Blocks : 196608 Invalid Blocks : 177 Valid Blocks : 196431
 Total Tags : 491520 Threshold : 12288 Invalid Tags : 196786 Pr0 Tags : 98303 Pr1 Tags : 196431 num_pr0 : 12287
 SAE Count : 0
 Inter-Core Inteference in Data Store : 1036370
Heartbeat CPU 7 instructions: 110000000 cycles: 60341019 heartbeat IPC: 1.82296 cumulative IPC: 1.82297 (Simulation time: 9 hr 49 min 39 sec) 
 Total Blocks : 196608 Invalid Blocks : 177 Valid Blocks : 196431
 Total Tags : 491520 Threshold : 12288 Invalid Tags : 196788 Pr0 Tags : 98301 Pr1 Tags : 196431 num_pr0 : 12287
 SAE Count : 0
 Inter-Core Inteference in Data Store : 1036378
Heartbeat CPU 4 instructions: 110000000 cycles: 60341317 heartbeat IPC: 1.82297 cumulative IPC: 1.82296 (Simulation time: 9 hr 49 min 39 sec) 
 Total Blocks : 196608 Invalid Blocks : 177 Valid Blocks : 196431
 Total Tags : 491520 Threshold : 12288 Invalid Tags : 196789 Pr0 Tags : 98300 Pr1 Tags : 196431 num_pr0 : 12287
 SAE Count : 0
 Inter-Core Inteference in Data Store : 1036392
Heartbeat CPU 6 instructions: 110000000 cycles: 60341803 heartbeat IPC: 1.82295 cumulative IPC: 1.82295 (Simulation time: 9 hr 49 min 39 sec) 
 Total Blocks : 196608 Invalid Blocks : 177 Valid Blocks : 196431
 Total Tags : 491520 Threshold : 12288 Invalid Tags : 196785 Pr0 Tags : 98304 Pr1 Tags : 196431 num_pr0 : 12288
 SAE Count : 0
 Inter-Core Inteference in Data Store : 1036410
Heartbeat CPU 5 instructions: 110000000 cycles: 60341864 heartbeat IPC: 1.82297 cumulative IPC: 1.82295 (Simulation time: 9 hr 49 min 39 sec) 
 Total Blocks : 196608 Invalid Blocks : 177 Valid Blocks : 196431
 Total Tags : 491520 Threshold : 12288 Invalid Tags : 196785 Pr0 Tags : 98304 Pr1 Tags : 196431 num_pr0 : 12288
 SAE Count : 0
 Inter-Core Inteference in Data Store : 1036411
Heartbeat CPU 0 instructions: 110000000 cycles: 60341961 heartbeat IPC: 1.82299 cumulative IPC: 1.82294 (Simulation time: 9 hr 49 min 39 sec) 
 Total Blocks : 196608 Invalid Blocks : 177 Valid Blocks : 196431
 Total Tags : 491520 Threshold : 12288 Invalid Tags : 196785 Pr0 Tags : 98304 Pr1 Tags : 196431 num_pr0 : 12288
 SAE Count : 0
 Inter-Core Inteference in Data Store : 1036414
Heartbeat CPU 3 instructions: 110000000 cycles: 60342038 heartbeat IPC: 1.82298 cumulative IPC: 1.82294 (Simulation time: 9 hr 49 min 39 sec) 
 Total Blocks : 196608 Invalid Blocks : 177 Valid Blocks : 196431
 Total Tags : 491520 Threshold : 12288 Invalid Tags : 196785 Pr0 Tags : 98304 Pr1 Tags : 196431 num_pr0 : 12288
 SAE Count : 0
 Inter-Core Inteference in Data Store : 1036415
Heartbeat CPU 2 instructions: 120000000 cycles: 65825514 heartbeat IPC: 1.82317 cumulative IPC: 1.823 (Simulation time: 10 hr 36 min 55 sec) 
 Total Blocks : 196608 Invalid Blocks : 92 Valid Blocks : 196516
 Total Tags : 491520 Threshold : 12288 Invalid Tags : 196700 Pr0 Tags : 98304 Pr1 Tags : 196516 num_pr0 : 12288
 SAE Count : 0
 Inter-Core Inteference in Data Store : 1149049
Heartbeat CPU 1 instructions: 120000000 cycles: 65825918 heartbeat IPC: 1.82312 cumulative IPC: 1.82299 (Simulation time: 10 hr 36 min 56 sec) 
 Total Blocks : 196608 Invalid Blocks : 92 Valid Blocks : 196516
 Total Tags : 491520 Threshold : 12288 Invalid Tags : 196701 Pr0 Tags : 98303 Pr1 Tags : 196516 num_pr0 : 12287
 SAE Count : 0
 Inter-Core Inteference in Data Store : 1149052
Heartbeat CPU 7 instructions: 120000000 cycles: 65826235 heartbeat IPC: 1.82308 cumulative IPC: 1.82298 (Simulation time: 10 hr 36 min 56 sec) 
 Total Blocks : 196608 Invalid Blocks : 92 Valid Blocks : 196516
 Total Tags : 491520 Threshold : 12288 Invalid Tags : 196701 Pr0 Tags : 98303 Pr1 Tags : 196516 num_pr0 : 12288
 SAE Count : 0
 Inter-Core Inteference in Data Store : 1149060
Heartbeat CPU 4 instructions: 120000000 cycles: 65826545 heartbeat IPC: 1.82308 cumulative IPC: 1.82297 (Simulation time: 10 hr 36 min 56 sec) 
 Total Blocks : 196608 Invalid Blocks : 92 Valid Blocks : 196516
 Total Tags : 491520 Threshold : 12288 Invalid Tags : 196702 Pr0 Tags : 98302 Pr1 Tags : 196516 num_pr0 : 12288
 SAE Count : 0
 Inter-Core Inteference in Data Store : 1149070
Heartbeat CPU 6 instructions: 120000000 cycles: 65826992 heartbeat IPC: 1.82309 cumulative IPC: 1.82296 (Simulation time: 10 hr 36 min 56 sec) 
 Total Blocks : 196608 Invalid Blocks : 92 Valid Blocks : 196516
 Total Tags : 491520 Threshold : 12288 Invalid Tags : 196701 Pr0 Tags : 98303 Pr1 Tags : 196516 num_pr0 : 12287
 SAE Count : 0
 Inter-Core Inteference in Data Store : 1149085
Heartbeat CPU 0 instructions: 120000000 cycles: 65827077 heartbeat IPC: 1.82312 cumulative IPC: 1.82296 (Simulation time: 10 hr 36 min 56 sec) 
 Total Blocks : 196608 Invalid Blocks : 92 Valid Blocks : 196516
 Total Tags : 491520 Threshold : 12288 Invalid Tags : 196702 Pr0 Tags : 98302 Pr1 Tags : 196516 num_pr0 : 12286
 SAE Count : 0
 Inter-Core Inteference in Data Store : 1149095
Heartbeat CPU 5 instructions: 120000000 cycles: 65827109 heartbeat IPC: 1.82307 cumulative IPC: 1.82296 (Simulation time: 10 hr 36 min 57 sec) 
 Total Blocks : 196608 Invalid Blocks : 92 Valid Blocks : 196516
 Total Tags : 491520 Threshold : 12288 Invalid Tags : 196702 Pr0 Tags : 98302 Pr1 Tags : 196516 num_pr0 : 12286
 SAE Count : 0
 Inter-Core Inteference in Data Store : 1149098
Heartbeat CPU 3 instructions: 120000000 cycles: 65827201 heartbeat IPC: 1.8231 cumulative IPC: 1.82295 (Simulation time: 10 hr 36 min 57 sec) 
 Total Blocks : 196608 Invalid Blocks : 92 Valid Blocks : 196516
 Total Tags : 491520 Threshold : 12288 Invalid Tags : 196702 Pr0 Tags : 98302 Pr1 Tags : 196516 num_pr0 : 12286
 SAE Count : 0
 Inter-Core Inteference in Data Store : 1149104
Heartbeat CPU 2 instructions: 130000003 cycles: 71311183 heartbeat IPC: 1.82293 cumulative IPC: 1.823 (Simulation time: 11 hr 27 min 24 sec) 
 Total Blocks : 196608 Invalid Blocks : 56 Valid Blocks : 196552
 Total Tags : 491520 Threshold : 12288 Invalid Tags : 196667 Pr0 Tags : 98301 Pr1 Tags : 196552 num_pr0 : 12288
 SAE Count : 0
 Inter-Core Inteference in Data Store : 1257189
Heartbeat CPU 1 instructions: 130000003 cycles: 71311445 heartbeat IPC: 1.82298 cumulative IPC: 1.82299 (Simulation time: 11 hr 27 min 25 sec) 
 Total Blocks : 196608 Invalid Blocks : 56 Valid Blocks : 196552
 Total Tags : 491520 Threshold : 12288 Invalid Tags : 196667 Pr0 Tags : 98301 Pr1 Tags : 196552 num_pr0 : 12288
 SAE Count : 0
 Inter-Core Inteference in Data Store : 1257191
Heartbeat CPU 7 instructions: 130000003 cycles: 71311970 heartbeat IPC: 1.82291 cumulative IPC: 1.82298 (Simulation time: 11 hr 27 min 25 sec) 
 Total Blocks : 196608 Invalid Blocks : 56 Valid Blocks : 196552
 Total Tags : 491520 Threshold : 12288 Invalid Tags : 196668 Pr0 Tags : 98300 Pr1 Tags : 196552 num_pr0 : 12288
 SAE Count : 0
 Inter-Core Inteference in Data Store : 1257196
Heartbeat CPU 4 instructions: 130000003 cycles: 71312188 heartbeat IPC: 1.82294 cumulative IPC: 1.82297 (Simulation time: 11 hr 27 min 25 sec) 
 Total Blocks : 196608 Invalid Blocks : 56 Valid Blocks : 196552
 Total Tags : 491520 Threshold : 12288 Invalid Tags : 196668 Pr0 Tags : 98300 Pr1 Tags : 196552 num_pr0 : 12287
 SAE Count : 0
 Inter-Core Inteference in Data Store : 1257198
Heartbeat CPU 0 instructions: 130000003 cycles: 71312416 heartbeat IPC: 1.82304 cumulative IPC: 1.82296 (Simulation time: 11 hr 27 min 25 sec) 
 Total Blocks : 196608 Invalid Blocks : 56 Valid Blocks : 196552
 Total Tags : 491520 Threshold : 12288 Invalid Tags : 196668 Pr0 Tags : 98300 Pr1 Tags : 196552 num_pr0 : 12287
 SAE Count : 0
 Inter-Core Inteference in Data Store : 1257199
Heartbeat CPU 6 instructions: 130000003 cycles: 71312733 heartbeat IPC: 1.82291 cumulative IPC: 1.82296 (Simulation time: 11 hr 27 min 25 sec) 
 Total Blocks : 196608 Invalid Blocks : 56 Valid Blocks : 196552
 Total Tags : 491520 Threshold : 12288 Invalid Tags : 196666 Pr0 Tags : 98302 Pr1 Tags : 196552 num_pr0 : 12288
 SAE Count : 0
 Inter-Core Inteference in Data Store : 1257202
Heartbeat CPU 5 instructions: 130000003 cycles: 71312801 heartbeat IPC: 1.82292 cumulative IPC: 1.82295 (Simulation time: 11 hr 27 min 26 sec) 
 Total Blocks : 196608 Invalid Blocks : 56 Valid Blocks : 196552
 Total Tags : 491520 Threshold : 12288 Invalid Tags : 196665 Pr0 Tags : 98303 Pr1 Tags : 196552 num_pr0 : 12288
 SAE Count : 0
 Inter-Core Inteference in Data Store : 1257202
Heartbeat CPU 3 instructions: 130000003 cycles: 71312879 heartbeat IPC: 1.82293 cumulative IPC: 1.82295 (Simulation time: 11 hr 27 min 26 sec) 
 Total Blocks : 196608 Invalid Blocks : 56 Valid Blocks : 196552
 Total Tags : 491520 Threshold : 12288 Invalid Tags : 196666 Pr0 Tags : 98302 Pr1 Tags : 196552 num_pr0 : 12288
 SAE Count : 0
 Inter-Core Inteference in Data Store : 1257202
Heartbeat CPU 2 instructions: 140000003 cycles: 76796973 heartbeat IPC: 1.82289 cumulative IPC: 1.82299 (Simulation time: 12 hr 15 min 35 sec) 
 Total Blocks : 196608 Invalid Blocks : 27 Valid Blocks : 196581
 Total Tags : 491520 Threshold : 12288 Invalid Tags : 196638 Pr0 Tags : 98301 Pr1 Tags : 196581 num_pr0 : 12288
 SAE Count : 0
 Inter-Core Inteference in Data Store : 1365061
Heartbeat CPU 1 instructions: 140000003 cycles: 76797258 heartbeat IPC: 1.82288 cumulative IPC: 1.82298 (Simulation time: 12 hr 15 min 36 sec) 
 Total Blocks : 196608 Invalid Blocks : 27 Valid Blocks : 196581
 Total Tags : 491520 Threshold : 12288 Invalid Tags : 196639 Pr0 Tags : 98300 Pr1 Tags : 196581 num_pr0 : 12288
 SAE Count : 0
 Inter-Core Inteference in Data Store : 1365063
Heartbeat CPU 7 instructions: 140000003 cycles: 76797613 heartbeat IPC: 1.82294 cumulative IPC: 1.82297 (Simulation time: 12 hr 15 min 36 sec) 
 Total Blocks : 196608 Invalid Blocks : 27 Valid Blocks : 196581
 Total Tags : 491520 Threshold : 12288 Invalid Tags : 196638 Pr0 Tags : 98301 Pr1 Tags : 196581 num_pr0 : 12288
 SAE Count : 0
 Inter-Core Inteference in Data Store : 1365064
Heartbeat CPU 4 instructions: 140000003 cycles: 76798025 heartbeat IPC: 1.82288 cumulative IPC: 1.82296 (Simulation time: 12 hr 15 min 36 sec) 
 Total Blocks : 196608 Invalid Blocks : 27 Valid Blocks : 196581
 Total Tags : 491520 Threshold : 12288 Invalid Tags : 196638 Pr0 Tags : 98301 Pr1 Tags : 196581 num_pr0 : 12288
 SAE Count : 0
 Inter-Core Inteference in Data Store : 1365068
Heartbeat CPU 0 instructions: 140000003 cycles: 76798166 heartbeat IPC: 1.8229 cumulative IPC: 1.82296 (Simulation time: 12 hr 15 min 36 sec) 
 Total Blocks : 196608 Invalid Blocks : 27 Valid Blocks : 196581
 Total Tags : 491520 Threshold : 12288 Invalid Tags : 196638 Pr0 Tags : 98301 Pr1 Tags : 196581 num_pr0 : 12288
 SAE Count : 0
 Inter-Core Inteference in Data Store : 1365069
Heartbeat CPU 6 instructions: 140000003 cycles: 76798492 heartbeat IPC: 1.8229 cumulative IPC: 1.82295 (Simulation time: 12 hr 15 min 36 sec) 
 Total Blocks : 196608 Invalid Blocks : 27 Valid Blocks : 196581
 Total Tags : 491520 Threshold : 12288 Invalid Tags : 196638 Pr0 Tags : 98301 Pr1 Tags : 196581 num_pr0 : 12288
 SAE Count : 0
 Inter-Core Inteference in Data Store : 1365069
Heartbeat CPU 5 instructions: 140000003 cycles: 76798535 heartbeat IPC: 1.82291 cumulative IPC: 1.82295 (Simulation time: 12 hr 15 min 36 sec) 
 Total Blocks : 196608 Invalid Blocks : 27 Valid Blocks : 196581
 Total Tags : 491520 Threshold : 12288 Invalid Tags : 196638 Pr0 Tags : 98301 Pr1 Tags : 196581 num_pr0 : 12288
 SAE Count : 0
 Inter-Core Inteference in Data Store : 1365069
Heartbeat CPU 3 instructions: 140000003 cycles: 76798657 heartbeat IPC: 1.8229 cumulative IPC: 1.82295 (Simulation time: 12 hr 15 min 37 sec) 
 Total Blocks : 196608 Invalid Blocks : 27 Valid Blocks : 196581
 Total Tags : 491520 Threshold : 12288 Invalid Tags : 196638 Pr0 Tags : 98301 Pr1 Tags : 196581 num_pr0 : 12288
 SAE Count : 0
 Inter-Core Inteference in Data Store : 1365069
Heartbeat CPU 1 instructions: 150000000 cycles: 82282765 heartbeat IPC: 1.82299 cumulative IPC: 1.82298 (Simulation time: 13 hr 2 min 28 sec) 
 Total Blocks : 196608 Invalid Blocks : 19 Valid Blocks : 196589
 Total Tags : 491520 Threshold : 12288 Invalid Tags : 196628 Pr0 Tags : 98303 Pr1 Tags : 196589 num_pr0 : 12288
 SAE Count : 0
 Inter-Core Inteference in Data Store : 1475757
Heartbeat CPU 2 instructions: 150000000 cycles: 82282927 heartbeat IPC: 1.82284 cumulative IPC: 1.82298 (Simulation time: 13 hr 2 min 29 sec) 
 Total Blocks : 196608 Invalid Blocks : 19 Valid Blocks : 196589
 Total Tags : 491520 Threshold : 12288 Invalid Tags : 196628 Pr0 Tags : 98303 Pr1 Tags : 196589 num_pr0 : 12288
 SAE Count : 0
 Inter-Core Inteference in Data Store : 1475758
Heartbeat CPU 7 instructions: 150000000 cycles: 82283312 heartbeat IPC: 1.82292 cumulative IPC: 1.82297 (Simulation time: 13 hr 2 min 29 sec) 
 Total Blocks : 196608 Invalid Blocks : 19 Valid Blocks : 196589
 Total Tags : 491520 Threshold : 12288 Invalid Tags : 196628 Pr0 Tags : 98303 Pr1 Tags : 196589 num_pr0 : 12288
 SAE Count : 0
 Inter-Core Inteference in Data Store : 1475767
Heartbeat CPU 4 instructions: 150000000 cycles: 82284049 heartbeat IPC: 1.82281 cumulative IPC: 1.82295 (Simulation time: 13 hr 2 min 29 sec) 
 Total Blocks : 196608 Invalid Blocks : 19 Valid Blocks : 196589
 Total Tags : 491520 Threshold : 12288 Invalid Tags : 196630 Pr0 Tags : 98301 Pr1 Tags : 196589 num_pr0 : 12288
 SAE Count : 0
 Inter-Core Inteference in Data Store : 1475787
Heartbeat CPU 0 instructions: 150000000 cycles: 82284088 heartbeat IPC: 1.82285 cumulative IPC: 1.82295 (Simulation time: 13 hr 2 min 29 sec) 
 Total Blocks : 196608 Invalid Blocks : 19 Valid Blocks : 196589
 Total Tags : 491520 Threshold : 12288 Invalid Tags : 196630 Pr0 Tags : 98301 Pr1 Tags : 196589 num_pr0 : 12288
 SAE Count : 0
 Inter-Core Inteference in Data Store : 1475787
Heartbeat CPU 6 instructions: 150000000 cycles: 82284393 heartbeat IPC: 1.82285 cumulative IPC: 1.82295 (Simulation time: 13 hr 2 min 29 sec) 
 Total Blocks : 196608 Invalid Blocks : 19 Valid Blocks : 196589
 Total Tags : 491520 Threshold : 12288 Invalid Tags : 196628 Pr0 Tags : 98303 Pr1 Tags : 196589 num_pr0 : 12288
 SAE Count : 0
 Inter-Core Inteference in Data Store : 1475789
Heartbeat CPU 5 instructions: 150000000 cycles: 82284529 heartbeat IPC: 1.82282 cumulative IPC: 1.82294 (Simulation time: 13 hr 2 min 29 sec) 
 Total Blocks : 196608 Invalid Blocks : 19 Valid Blocks : 196589
 Total Tags : 491520 Threshold : 12288 Invalid Tags : 196630 Pr0 Tags : 98301 Pr1 Tags : 196589 num_pr0 : 12287
 SAE Count : 0
 Inter-Core Inteference in Data Store : 1475791
Heartbeat CPU 3 instructions: 150000000 cycles: 82284571 heartbeat IPC: 1.82285 cumulative IPC: 1.82294 (Simulation time: 13 hr 2 min 29 sec) 
 Total Blocks : 196608 Invalid Blocks : 19 Valid Blocks : 196589
 Total Tags : 491520 Threshold : 12288 Invalid Tags : 196630 Pr0 Tags : 98301 Pr1 Tags : 196589 num_pr0 : 12287
 SAE Count : 0
 Inter-Core Inteference in Data Store : 1475791
Heartbeat CPU 1 instructions: 160000002 cycles: 87766473 heartbeat IPC: 1.82358 cumulative IPC: 1.82302 (Simulation time: 13 hr 45 min 47 sec) 
 Total Blocks : 196608 Invalid Blocks : 9 Valid Blocks : 196599
 Total Tags : 491520 Threshold : 12288 Invalid Tags : 196618 Pr0 Tags : 98303 Pr1 Tags : 196599 num_pr0 : 12288
 SAE Count : 0
 Inter-Core Inteference in Data Store : 1582739
Heartbeat CPU 7 instructions: 160000002 cycles: 87767362 heartbeat IPC: 1.82347 cumulative IPC: 1.823 (Simulation time: 13 hr 45 min 48 sec) 
 Total Blocks : 196608 Invalid Blocks : 9 Valid Blocks : 196599
 Total Tags : 491520 Threshold : 12288 Invalid Tags : 196618 Pr0 Tags : 98303 Pr1 Tags : 196599 num_pr0 : 12287
 SAE Count : 0
 Inter-Core Inteference in Data Store : 1582756
Heartbeat CPU 2 instructions: 160000002 cycles: 87767375 heartbeat IPC: 1.82334 cumulative IPC: 1.823 (Simulation time: 13 hr 45 min 48 sec) 
 Total Blocks : 196608 Invalid Blocks : 9 Valid Blocks : 196599
 Total Tags : 491520 Threshold : 12288 Invalid Tags : 196617 Pr0 Tags : 98304 Pr1 Tags : 196599 num_pr0 : 12288
 SAE Count : 0
 Inter-Core Inteference in Data Store : 1582756
Heartbeat CPU 5 instructions: 160000002 cycles: 87768087 heartbeat IPC: 1.82363 cumulative IPC: 1.82299 (Simulation time: 13 hr 45 min 48 sec) 
 Total Blocks : 196608 Invalid Blocks : 9 Valid Blocks : 196599
 Total Tags : 491520 Threshold : 12288 Invalid Tags : 196619 Pr0 Tags : 98302 Pr1 Tags : 196599 num_pr0 : 12287
 SAE Count : 0
 Inter-Core Inteference in Data Store : 1582770
Heartbeat CPU 0 instructions: 160000002 cycles: 87768686 heartbeat IPC: 1.82329 cumulative IPC: 1.82297 (Simulation time: 13 hr 45 min 48 sec) 
 Total Blocks : 196608 Invalid Blocks : 9 Valid Blocks : 196599
 Total Tags : 491520 Threshold : 12288 Invalid Tags : 196620 Pr0 Tags : 98301 Pr1 Tags : 196599 num_pr0 : 12288
 SAE Count : 0
 Inter-Core Inteference in Data Store : 1582781
Heartbeat CPU 4 instructions: 160000002 cycles: 87768757 heartbeat IPC: 1.82325 cumulative IPC: 1.82297 (Simulation time: 13 hr 45 min 48 sec) 
 Total Blocks : 196608 Invalid Blocks : 9 Valid Blocks : 196599
 Total Tags : 491520 Threshold : 12288 Invalid Tags : 196619 Pr0 Tags : 98302 Pr1 Tags : 196599 num_pr0 : 12288
 SAE Count : 0
 Inter-Core Inteference in Data Store : 1582782
Heartbeat CPU 6 instructions: 160000002 cycles: 87768968 heartbeat IPC: 1.8233 cumulative IPC: 1.82297 (Simulation time: 13 hr 45 min 49 sec) 
 Total Blocks : 196608 Invalid Blocks : 9 Valid Blocks : 196599
 Total Tags : 491520 Threshold : 12288 Invalid Tags : 196619 Pr0 Tags : 98302 Pr1 Tags : 196599 num_pr0 : 12288
 SAE Count : 0
 Inter-Core Inteference in Data Store : 1582785
Heartbeat CPU 3 instructions: 160000002 cycles: 87769058 heartbeat IPC: 1.82332 cumulative IPC: 1.82297 (Simulation time: 13 hr 45 min 49 sec) 
 Total Blocks : 196608 Invalid Blocks : 9 Valid Blocks : 196599
 Total Tags : 491520 Threshold : 12288 Invalid Tags : 196619 Pr0 Tags : 98302 Pr1 Tags : 196599 num_pr0 : 12288
 SAE Count : 0
 Inter-Core Inteference in Data Store : 1582785
Heartbeat CPU 1 instructions: 170000001 cycles: 93252192 heartbeat IPC: 1.82291 cumulative IPC: 1.82301 (Simulation time: 14 hr 28 min 52 sec) 
 Total Blocks : 196608 Invalid Blocks : 6 Valid Blocks : 196602
 Total Tags : 491520 Threshold : 12288 Invalid Tags : 196615 Pr0 Tags : 98303 Pr1 Tags : 196602 num_pr0 : 12288
 SAE Count : 0
 Inter-Core Inteference in Data Store : 1691022
Heartbeat CPU 2 instructions: 170000001 cycles: 93253021 heartbeat IPC: 1.82294 cumulative IPC: 1.823 (Simulation time: 14 hr 28 min 53 sec) 
 Total Blocks : 196608 Invalid Blocks : 6 Valid Blocks : 196602
 Total Tags : 491520 Threshold : 12288 Invalid Tags : 196617 Pr0 Tags : 98301 Pr1 Tags : 196602 num_pr0 : 12288
 SAE Count : 0
 Inter-Core Inteference in Data Store : 1691030
Heartbeat CPU 7 instructions: 170000001 cycles: 93253064 heartbeat IPC: 1.82292 cumulative IPC: 1.823 (Simulation time: 14 hr 28 min 53 sec) 
 Total Blocks : 196608 Invalid Blocks : 6 Valid Blocks : 196602
 Total Tags : 491520 Threshold : 12288 Invalid Tags : 196617 Pr0 Tags : 98301 Pr1 Tags : 196602 num_pr0 : 12288
 SAE Count : 0
 Inter-Core Inteference in Data Store : 1691030
Heartbeat CPU 5 instructions: 170000001 cycles: 93253614 heartbeat IPC: 1.82298 cumulative IPC: 1.82299 (Simulation time: 14 hr 28 min 53 sec) 
 Total Blocks : 196608 Invalid Blocks : 6 Valid Blocks : 196602
 Total Tags : 491520 Threshold : 12288 Invalid Tags : 196616 Pr0 Tags : 98302 Pr1 Tags : 196602 num_pr0 : 12288
 SAE Count : 0
 Inter-Core Inteference in Data Store : 1691034
Heartbeat CPU 4 instructions: 170000001 cycles: 93254427 heartbeat IPC: 1.82293 cumulative IPC: 1.82297 (Simulation time: 14 hr 28 min 54 sec) 
 Total Blocks : 196608 Invalid Blocks : 6 Valid Blocks : 196602
 Total Tags : 491520 Threshold : 12288 Invalid Tags : 196617 Pr0 Tags : 98301 Pr1 Tags : 196602 num_pr0 : 12288
 SAE Count : 0
 Inter-Core Inteference in Data Store : 1691038
Heartbeat CPU 0 instructions: 170000001 cycles: 93254472 heartbeat IPC: 1.82289 cumulative IPC: 1.82297 (Simulation time: 14 hr 28 min 54 sec) 
 Total Blocks : 196608 Invalid Blocks : 6 Valid Blocks : 196602
 Total Tags : 491520 Threshold : 12288 Invalid Tags : 196617 Pr0 Tags : 98301 Pr1 Tags : 196602 num_pr0 : 12288
 SAE Count : 0
 Inter-Core Inteference in Data Store : 1691038
Heartbeat CPU 6 instructions: 170000001 cycles: 93254541 heartbeat IPC: 1.82296 cumulative IPC: 1.82297 (Simulation time: 14 hr 28 min 54 sec) 
 Total Blocks : 196608 Invalid Blocks : 6 Valid Blocks : 196602
 Total Tags : 491520 Threshold : 12288 Invalid Tags : 196616 Pr0 Tags : 98302 Pr1 Tags : 196602 num_pr0 : 12288
 SAE Count : 0
 Inter-Core Inteference in Data Store : 1691039
Heartbeat CPU 3 instructions: 170000001 cycles: 93254760 heartbeat IPC: 1.82292 cumulative IPC: 1.82296 (Simulation time: 14 hr 28 min 54 sec) 
 Total Blocks : 196608 Invalid Blocks : 6 Valid Blocks : 196602
 Total Tags : 491520 Threshold : 12288 Invalid Tags : 196618 Pr0 Tags : 98300 Pr1 Tags : 196602 num_pr0 : 12288
 SAE Count : 0
 Inter-Core Inteference in Data Store : 1691043
Heartbeat CPU 1 instructions: 180000000 cycles: 98737786 heartbeat IPC: 1.82296 cumulative IPC: 1.82301 (Simulation time: 15 hr 10 min 6 sec) 
 Total Blocks : 196608 Invalid Blocks : 5 Valid Blocks : 196603
 Total Tags : 491520 Threshold : 12288 Invalid Tags : 196616 Pr0 Tags : 98301 Pr1 Tags : 196603 num_pr0 : 12286
 SAE Count : 0
 Inter-Core Inteference in Data Store : 1797202
Heartbeat CPU 7 instructions: 180000000 cycles: 98738525 heartbeat IPC: 1.823 cumulative IPC: 1.823 (Simulation time: 15 hr 10 min 7 sec) 
 Total Blocks : 196608 Invalid Blocks : 5 Valid Blocks : 196603
 Total Tags : 491520 Threshold : 12288 Invalid Tags : 196616 Pr0 Tags : 98301 Pr1 Tags : 196603 num_pr0 : 12288
 SAE Count : 0
 Inter-Core Inteference in Data Store : 1797211
Heartbeat CPU 2 instructions: 180000000 cycles: 98738618 heartbeat IPC: 1.82296 cumulative IPC: 1.82299 (Simulation time: 15 hr 10 min 7 sec) 
 Total Blocks : 196608 Invalid Blocks : 5 Valid Blocks : 196603
 Total Tags : 491520 Threshold : 12288 Invalid Tags : 196615 Pr0 Tags : 98302 Pr1 Tags : 196603 num_pr0 : 12288
 SAE Count : 0
 Inter-Core Inteference in Data Store : 1797211
Heartbeat CPU 5 instructions: 180000000 cycles: 98739179 heartbeat IPC: 1.82297 cumulative IPC: 1.82298 (Simulation time: 15 hr 10 min 7 sec) 
 Total Blocks : 196608 Invalid Blocks : 5 Valid Blocks : 196603
 Total Tags : 491520 Threshold : 12288 Invalid Tags : 196615 Pr0 Tags : 98302 Pr1 Tags : 196603 num_pr0 : 12288
 SAE Count : 0
 Inter-Core Inteference in Data Store : 1797217
Heartbeat CPU 4 instructions: 180000000 cycles: 98739999 heartbeat IPC: 1.82296 cumulative IPC: 1.82297 (Simulation time: 15 hr 10 min 7 sec) 
 Total Blocks : 196608 Invalid Blocks : 5 Valid Blocks : 196603
 Total Tags : 491520 Threshold : 12288 Invalid Tags : 196614 Pr0 Tags : 98303 Pr1 Tags : 196603 num_pr0 : 12288
 SAE Count : 0
 Inter-Core Inteference in Data Store : 1797219
Heartbeat CPU 0 instructions: 180000000 cycles: 98740077 heartbeat IPC: 1.82295 cumulative IPC: 1.82297 (Simulation time: 15 hr 10 min 7 sec) 
 Total Blocks : 196608 Invalid Blocks : 5 Valid Blocks : 196603
 Total Tags : 491520 Threshold : 12288 Invalid Tags : 196614 Pr0 Tags : 98303 Pr1 Tags : 196603 num_pr0 : 12288
 SAE Count : 0
 Inter-Core Inteference in Data Store : 1797219
Heartbeat CPU 6 instructions: 180000000 cycles: 98740093 heartbeat IPC: 1.82297 cumulative IPC: 1.82297 (Simulation time: 15 hr 10 min 7 sec) 
 Total Blocks : 196608 Invalid Blocks : 5 Valid Blocks : 196603
 Total Tags : 491520 Threshold : 12288 Invalid Tags : 196614 Pr0 Tags : 98303 Pr1 Tags : 196603 num_pr0 : 12288
 SAE Count : 0
 Inter-Core Inteference in Data Store : 1797219
Heartbeat CPU 3 instructions: 180000000 cycles: 98740275 heartbeat IPC: 1.82298 cumulative IPC: 1.82296 (Simulation time: 15 hr 10 min 8 sec) 
 Total Blocks : 196608 Invalid Blocks : 5 Valid Blocks : 196603
 Total Tags : 491520 Threshold : 12288 Invalid Tags : 196614 Pr0 Tags : 98303 Pr1 Tags : 196603 num_pr0 : 12288
 SAE Count : 0
 Inter-Core Inteference in Data Store : 1797220
Heartbeat CPU 1 instructions: 190000002 cycles: 104223609 heartbeat IPC: 1.82288 cumulative IPC: 1.823 (Simulation time: 15 hr 50 min 35 sec) 
 Total Blocks : 196608 Invalid Blocks : 2 Valid Blocks : 196606
 Total Tags : 491520 Threshold : 12288 Invalid Tags : 196612 Pr0 Tags : 98302 Pr1 Tags : 196606 num_pr0 : 12288
 SAE Count : 0
 Inter-Core Inteference in Data Store : 1904495
Heartbeat CPU 7 instructions: 190000002 cycles: 104224222 heartbeat IPC: 1.82292 cumulative IPC: 1.82299 (Simulation time: 15 hr 50 min 35 sec) 
 Total Blocks : 196608 Invalid Blocks : 2 Valid Blocks : 196606
 Total Tags : 491520 Threshold : 12288 Invalid Tags : 196611 Pr0 Tags : 98303 Pr1 Tags : 196606 num_pr0 : 12288
 SAE Count : 0
 Inter-Core Inteference in Data Store : 1904500
Heartbeat CPU 2 instructions: 190000002 cycles: 104224226 heartbeat IPC: 1.82295 cumulative IPC: 1.82299 (Simulation time: 15 hr 50 min 35 sec) 
 Total Blocks : 196608 Invalid Blocks : 2 Valid Blocks : 196606
 Total Tags : 491520 Threshold : 12288 Invalid Tags : 196611 Pr0 Tags : 98303 Pr1 Tags : 196606 num_pr0 : 12288
 SAE Count : 0
 Inter-Core Inteference in Data Store : 1904500
Heartbeat CPU 5 instructions: 190000002 cycles: 104225096 heartbeat IPC: 1.82285 cumulative IPC: 1.82298 (Simulation time: 15 hr 50 min 36 sec) 
 Total Blocks : 196608 Invalid Blocks : 2 Valid Blocks : 196606
 Total Tags : 491520 Threshold : 12288 Invalid Tags : 196610 Pr0 Tags : 98304 Pr1 Tags : 196606 num_pr0 : 12288
 SAE Count : 0
 Inter-Core Inteference in Data Store : 1904515
Heartbeat CPU 4 instructions: 190000002 cycles: 104225796 heartbeat IPC: 1.82289 cumulative IPC: 1.82297 (Simulation time: 15 hr 50 min 36 sec) 
 Total Blocks : 196608 Invalid Blocks : 2 Valid Blocks : 196606
 Total Tags : 491520 Threshold : 12288 Invalid Tags : 196612 Pr0 Tags : 98302 Pr1 Tags : 196606 num_pr0 : 12287
 SAE Count : 0
 Inter-Core Inteference in Data Store : 1904527
Heartbeat CPU 0 instructions: 190000002 cycles: 104225831 heartbeat IPC: 1.8229 cumulative IPC: 1.82296 (Simulation time: 15 hr 50 min 36 sec) 
 Total Blocks : 196608 Invalid Blocks : 2 Valid Blocks : 196606
 Total Tags : 491520 Threshold : 12288 Invalid Tags : 196612 Pr0 Tags : 98302 Pr1 Tags : 196606 num_pr0 : 12287
 SAE Count : 0
 Inter-Core Inteference in Data Store : 1904527
Heartbeat CPU 6 instructions: 190000002 cycles: 104225856 heartbeat IPC: 1.8229 cumulative IPC: 1.82296 (Simulation time: 15 hr 50 min 36 sec) 
 Total Blocks : 196608 Invalid Blocks : 2 Valid Blocks : 196606
 Total Tags : 491520 Threshold : 12288 Invalid Tags : 196612 Pr0 Tags : 98302 Pr1 Tags : 196606 num_pr0 : 12287
 SAE Count : 0
 Inter-Core Inteference in Data Store : 1904527
Heartbeat CPU 3 instructions: 190000002 cycles: 104226054 heartbeat IPC: 1.8229 cumulative IPC: 1.82296 (Simulation time: 15 hr 50 min 36 sec) 
 Total Blocks : 196608 Invalid Blocks : 2 Valid Blocks : 196606
 Total Tags : 491520 Threshold : 12288 Invalid Tags : 196612 Pr0 Tags : 98302 Pr1 Tags : 196606 num_pr0 : 12287
 SAE Count : 0
 Inter-Core Inteference in Data Store : 1904530
FILL
Heartbeat CPU 1 instructions: 200000002 cycles: 109708808 heartbeat IPC: 1.82309 cumulative IPC: 1.82301 (Simulation time: 16 hr 27 min 27 sec) 
 Total Blocks : 196608 Invalid Blocks : 1 Valid Blocks : 196607
 Total Tags : 491520 Threshold : 12288 Invalid Tags : 196610 Pr0 Tags : 98303 Pr1 Tags : 196607 num_pr0 : 12288
 SAE Count : 0
 Inter-Core Inteference in Data Store : 2008842
Heartbeat CPU 2 instructions: 200000002 cycles: 109709367 heartbeat IPC: 1.82311 cumulative IPC: 1.823 (Simulation time: 16 hr 27 min 28 sec) 
 Total Blocks : 196608 Invalid Blocks : 1 Valid Blocks : 196607
 Total Tags : 491520 Threshold : 12288 Invalid Tags : 196609 Pr0 Tags : 98304 Pr1 Tags : 196607 num_pr0 : 12288
 SAE Count : 0
 Inter-Core Inteference in Data Store : 2008848
Heartbeat CPU 7 instructions: 200000002 cycles: 109709398 heartbeat IPC: 1.8231 cumulative IPC: 1.823 (Simulation time: 16 hr 27 min 28 sec) 
 Total Blocks : 196608 Invalid Blocks : 1 Valid Blocks : 196607
 Total Tags : 491520 Threshold : 12288 Invalid Tags : 196609 Pr0 Tags : 98304 Pr1 Tags : 196607 num_pr0 : 12288
 SAE Count : 0
 Inter-Core Inteference in Data Store : 2008849
Heartbeat CPU 5 instructions: 200000002 cycles: 109710337 heartbeat IPC: 1.82307 cumulative IPC: 1.82298 (Simulation time: 16 hr 27 min 28 sec) 
 Total Blocks : 196608 Invalid Blocks : 1 Valid Blocks : 196607
 Total Tags : 491520 Threshold : 12288 Invalid Tags : 196611 Pr0 Tags : 98302 Pr1 Tags : 196607 num_pr0 : 12288
 SAE Count : 0
 Inter-Core Inteference in Data Store : 2008874
Heartbeat CPU 4 instructions: 200000002 cycles: 109710951 heartbeat IPC: 1.8231 cumulative IPC: 1.82297 (Simulation time: 16 hr 27 min 28 sec) 
 Total Blocks : 196608 Invalid Blocks : 1 Valid Blocks : 196607
 Total Tags : 491520 Threshold : 12288 Invalid Tags : 196613 Pr0 Tags : 98300 Pr1 Tags : 196607 num_pr0 : 12288
 SAE Count : 0
 Inter-Core Inteference in Data Store : 2008878
Heartbeat CPU 0 instructions: 200000002 cycles: 109710993 heartbeat IPC: 1.8231 cumulative IPC: 1.82297 (Simulation time: 16 hr 27 min 28 sec) 
 Total Blocks : 196608 Invalid Blocks : 1 Valid Blocks : 196607
 Total Tags : 491520 Threshold : 12288 Invalid Tags : 196613 Pr0 Tags : 98300 Pr1 Tags : 196607 num_pr0 : 12288
 SAE Count : 0
 Inter-Core Inteference in Data Store : 2008878
Heartbeat CPU 6 instructions: 200000002 cycles: 109711026 heartbeat IPC: 1.8231 cumulative IPC: 1.82297 (Simulation time: 16 hr 27 min 28 sec) 
 Total Blocks : 196608 Invalid Blocks : 1 Valid Blocks : 196607
 Total Tags : 491520 Threshold : 12288 Invalid Tags : 196613 Pr0 Tags : 98300 Pr1 Tags : 196607 num_pr0 : 12288
 SAE Count : 0
 Inter-Core Inteference in Data Store : 2008878
Heartbeat CPU 3 instructions: 200000002 cycles: 109711230 heartbeat IPC: 1.8231 cumulative IPC: 1.82297 (Simulation time: 16 hr 27 min 28 sec) 
 Total Blocks : 196608 Invalid Blocks : 1 Valid Blocks : 196607
 Total Tags : 491520 Threshold : 12288 Invalid Tags : 196612 Pr0 Tags : 98301 Pr1 Tags : 196607 num_pr0 : 12288
 SAE Count : 0
 Inter-Core Inteference in Data Store : 2008880

Warmup complete CPU 0 instructions: 200000425 cycles: 109711230 (Simulation time: 16 hr 27 min 28 sec) 
Warmup complete CPU 1 instructions: 200003989 cycles: 109711230 (Simulation time: 16 hr 27 min 28 sec) 
Warmup complete CPU 2 instructions: 200002726 cycles: 109711230 (Simulation time: 16 hr 27 min 28 sec) 
Warmup complete CPU 3 instructions: 200000002 cycles: 109711230 (Simulation time: 16 hr 27 min 28 sec) 
Warmup complete CPU 4 instructions: 200000486 cycles: 109711229 (Simulation time: 16 hr 27 min 28 sec) 
Warmup complete CPU 5 instructions: 200001408 cycles: 109711229 (Simulation time: 16 hr 27 min 28 sec) 
Warmup complete CPU 6 instructions: 200000381 cycles: 109711229 (Simulation time: 16 hr 27 min 28 sec) 
Warmup complete CPU 7 instructions: 200002658 cycles: 109711229 (Simulation time: 16 hr 27 min 28 sec) 

Heartbeat CPU 2 instructions: 210000000 cycles: 118279406 heartbeat IPC: 1.16686 cumulative IPC: 1.16679 (Simulation time: 17 hr 5 min 27 sec) 
 Total Blocks : 196608 Invalid Blocks : 0 Valid Blocks : 196608
 Total Tags : 491520 Threshold : 12288 Invalid Tags : 196610 Pr0 Tags : 98302 Pr1 Tags : 196608 num_pr0 : 12287
 SAE Count : 0
 Inter-Core Inteference in Data Store : 104778
Heartbeat CPU 7 instructions: 210000000 cycles: 118280957 heartbeat IPC: 1.16665 cumulative IPC: 1.16659 (Simulation time: 17 hr 5 min 27 sec) 
 Total Blocks : 196608 Invalid Blocks : 0 Valid Blocks : 196608
 Total Tags : 491520 Threshold : 12288 Invalid Tags : 196609 Pr0 Tags : 98303 Pr1 Tags : 196608 num_pr0 : 12288
 SAE Count : 0
 Inter-Core Inteference in Data Store : 104783
Heartbeat CPU 5 instructions: 210000000 cycles: 118290247 heartbeat IPC: 1.16551 cumulative IPC: 1.16547 (Simulation time: 17 hr 5 min 31 sec) 
 Total Blocks : 196608 Invalid Blocks : 0 Valid Blocks : 196608
 Total Tags : 491520 Threshold : 12288 Invalid Tags : 196609 Pr0 Tags : 98303 Pr1 Tags : 196608 num_pr0 : 12288
 SAE Count : 0
 Inter-Core Inteference in Data Store : 104901
Heartbeat CPU 0 instructions: 210000000 cycles: 118307642 heartbeat IPC: 1.16324 cumulative IPC: 1.16323 (Simulation time: 17 hr 5 min 34 sec) 
 Total Blocks : 196608 Invalid Blocks : 0 Valid Blocks : 196608
 Total Tags : 491520 Threshold : 12288 Invalid Tags : 196611 Pr0 Tags : 98301 Pr1 Tags : 196608 num_pr0 : 12288
 SAE Count : 0
 Inter-Core Inteference in Data Store : 105104
Heartbeat CPU 4 instructions: 210000000 cycles: 118311894 heartbeat IPC: 1.16266 cumulative IPC: 1.16264 (Simulation time: 17 hr 5 min 35 sec) 
 Total Blocks : 196608 Invalid Blocks : 0 Valid Blocks : 196608
 Total Tags : 491520 Threshold : 12288 Invalid Tags : 196610 Pr0 Tags : 98302 Pr1 Tags : 196608 num_pr0 : 12288
 SAE Count : 0
 Inter-Core Inteference in Data Store : 105169
Heartbeat CPU 6 instructions: 210000000 cycles: 118313454 heartbeat IPC: 1.16246 cumulative IPC: 1.16245 (Simulation time: 17 hr 5 min 36 sec) 
 Total Blocks : 196608 Invalid Blocks : 0 Valid Blocks : 196608
 Total Tags : 491520 Threshold : 12288 Invalid Tags : 196609 Pr0 Tags : 98303 Pr1 Tags : 196608 num_pr0 : 12288
 SAE Count : 0
 Inter-Core Inteference in Data Store : 105207
Heartbeat CPU 3 instructions: 210000000 cycles: 118316359 heartbeat IPC: 1.1621 cumulative IPC: 1.1621 (Simulation time: 17 hr 5 min 37 sec) 
 Total Blocks : 196608 Invalid Blocks : 0 Valid Blocks : 196608
 Total Tags : 491520 Threshold : 12288 Invalid Tags : 196609 Pr0 Tags : 98303 Pr1 Tags : 196608 num_pr0 : 12288
 SAE Count : 0
 Inter-Core Inteference in Data Store : 105229
Heartbeat CPU 1 instructions: 210000000 cycles: 118318477 heartbeat IPC: 1.16148 cumulative IPC: 1.16135 (Simulation time: 17 hr 5 min 38 sec) 
 Total Blocks : 196608 Invalid Blocks : 0 Valid Blocks : 196608
 Total Tags : 491520 Threshold : 12288 Invalid Tags : 196609 Pr0 Tags : 98303 Pr1 Tags : 196608 num_pr0 : 12287
 SAE Count : 0
 Inter-Core Inteference in Data Store : 105241
Heartbeat CPU 2 instructions: 220000000 cycles: 126847925 heartbeat IPC: 1.16706 cumulative IPC: 1.16693 (Simulation time: 17 hr 42 min 56 sec) 
 Total Blocks : 196608 Invalid Blocks : 0 Valid Blocks : 196608
 Total Tags : 491520 Threshold : 12288 Invalid Tags : 196610 Pr0 Tags : 98302 Pr1 Tags : 196608 num_pr0 : 12287
 SAE Count : 0
 Inter-Core Inteference in Data Store : 210885
Heartbeat CPU 7 instructions: 220000000 cycles: 126878733 heartbeat IPC: 1.16309 cumulative IPC: 1.16484 (Simulation time: 17 hr 43 min 3 sec) 
 Total Blocks : 196608 Invalid Blocks : 0 Valid Blocks : 196608
 Total Tags : 491520 Threshold : 12288 Invalid Tags : 196611 Pr0 Tags : 98301 Pr1 Tags : 196608 num_pr0 : 12288
 SAE Count : 0
 Inter-Core Inteference in Data Store : 211269
Heartbeat CPU 0 instructions: 220000000 cycles: 126879630 heartbeat IPC: 1.16659 cumulative IPC: 1.16491 (Simulation time: 17 hr 43 min 3 sec) 
 Total Blocks : 196608 Invalid Blocks : 0 Valid Blocks : 196608
 Total Tags : 491520 Threshold : 12288 Invalid Tags : 196611 Pr0 Tags : 98301 Pr1 Tags : 196608 num_pr0 : 12288
 SAE Count : 0
 Inter-Core Inteference in Data Store : 211281
Heartbeat CPU 4 instructions: 220000000 cycles: 126889258 heartbeat IPC: 1.16586 cumulative IPC: 1.16425 (Simulation time: 17 hr 43 min 5 sec) 
 Total Blocks : 196608 Invalid Blocks : 0 Valid Blocks : 196608
 Total Tags : 491520 Threshold : 12288 Invalid Tags : 196608 Pr0 Tags : 98304 Pr1 Tags : 196608 num_pr0 : 12288
 SAE Count : 0
 Inter-Core Inteference in Data Store : 211390
Heartbeat CPU 5 instructions: 220000000 cycles: 126891620 heartbeat IPC: 1.16261 cumulative IPC: 1.16404 (Simulation time: 17 hr 43 min 6 sec) 
 Total Blocks : 196608 Invalid Blocks : 0 Valid Blocks : 196608
 Total Tags : 491520 Threshold : 12288 Invalid Tags : 196611 Pr0 Tags : 98301 Pr1 Tags : 196608 num_pr0 : 12288
 SAE Count : 0
 Inter-Core Inteference in Data Store : 211418
Heartbeat CPU 6 instructions: 220000000 cycles: 126900073 heartbeat IPC: 1.1646 cumulative IPC: 1.16352 (Simulation time: 17 hr 43 min 7 sec) 
 Total Blocks : 196608 Invalid Blocks : 0 Valid Blocks : 196608
 Total Tags : 491520 Threshold : 12288 Invalid Tags : 196611 Pr0 Tags : 98301 Pr1 Tags : 196608 num_pr0 : 12287
 SAE Count : 0
 Inter-Core Inteference in Data Store : 211543
Heartbeat CPU 1 instructions: 220000000 cycles: 126906176 heartbeat IPC: 1.16446 cumulative IPC: 1.1629 (Simulation time: 17 hr 43 min 8 sec) 
 Total Blocks : 196608 Invalid Blocks : 0 Valid Blocks : 196608
 Total Tags : 491520 Threshold : 12288 Invalid Tags : 196608 Pr0 Tags : 98304 Pr1 Tags : 196608 num_pr0 : 12288
 SAE Count : 0
 Inter-Core Inteference in Data Store : 211602
Heartbeat CPU 3 instructions: 220000000 cycles: 126912982 heartbeat IPC: 1.16325 cumulative IPC: 1.16267 (Simulation time: 17 hr 43 min 10 sec) 
 Total Blocks : 196608 Invalid Blocks : 0 Valid Blocks : 196608
 Total Tags : 491520 Threshold : 12288 Invalid Tags : 196608 Pr0 Tags : 98304 Pr1 Tags : 196608 num_pr0 : 12288
 SAE Count : 0
 Inter-Core Inteference in Data Store : 211671
Heartbeat CPU 2 instructions: 230000000 cycles: 135384973 heartbeat IPC: 1.17137 cumulative IPC: 1.1684 (Simulation time: 18 hr 18 min 38 sec) 
 Total Blocks : 196608 Invalid Blocks : 0 Valid Blocks : 196608
 Total Tags : 491520 Threshold : 12288 Invalid Tags : 196609 Pr0 Tags : 98303 Pr1 Tags : 196608 num_pr0 : 12288
 SAE Count : 0
 Inter-Core Inteference in Data Store : 316932
Heartbeat CPU 7 instructions: 230000000 cycles: 135437939 heartbeat IPC: 1.16833 cumulative IPC: 1.166 (Simulation time: 18 hr 18 min 50 sec) 
 Total Blocks : 196608 Invalid Blocks : 0 Valid Blocks : 196608
 Total Tags : 491520 Threshold : 12288 Invalid Tags : 196610 Pr0 Tags : 98302 Pr1 Tags : 196608 num_pr0 : 12288
 SAE Count : 0
 Inter-Core Inteference in Data Store : 317613
Heartbeat CPU 0 instructions: 230000000 cycles: 135456648 heartbeat IPC: 1.16591 cumulative IPC: 1.16524 (Simulation time: 18 hr 18 min 54 sec) 
 Total Blocks : 196608 Invalid Blocks : 0 Valid Blocks : 196608
 Total Tags : 491520 Threshold : 12288 Invalid Tags : 196612 Pr0 Tags : 98300 Pr1 Tags : 196608 num_pr0 : 12288
 SAE Count : 0
 Inter-Core Inteference in Data Store : 317840
Heartbeat CPU 5 instructions: 230000000 cycles: 135458902 heartbeat IPC: 1.16723 cumulative IPC: 1.1651 (Simulation time: 18 hr 18 min 54 sec) 
 Total Blocks : 196608 Invalid Blocks : 0 Valid Blocks : 196608
 Total Tags : 491520 Threshold : 12288 Invalid Tags : 196609 Pr0 Tags : 98303 Pr1 Tags : 196608 num_pr0 : 12288
 SAE Count : 0
 Inter-Core Inteference in Data Store : 317897
Heartbeat CPU 6 instructions: 230000000 cycles: 135475930 heartbeat IPC: 1.16606 cumulative IPC: 1.16437 (Simulation time: 18 hr 18 min 58 sec) 
 Total Blocks : 196608 Invalid Blocks : 0 Valid Blocks : 196608
 Total Tags : 491520 Threshold : 12288 Invalid Tags : 196609 Pr0 Tags : 98303 Pr1 Tags : 196608 num_pr0 : 12288
 SAE Count : 0
 Inter-Core Inteference in Data Store : 318113
Heartbeat CPU 3 instructions: 230000000 cycles: 135481454 heartbeat IPC: 1.16707 cumulative IPC: 1.16413 (Simulation time: 18 hr 18 min 59 sec) 
 Total Blocks : 196608 Invalid Blocks : 0 Valid Blocks : 196608
 Total Tags : 491520 Threshold : 12288 Invalid Tags : 196610 Pr0 Tags : 98302 Pr1 Tags : 196608 num_pr0 : 12288
 SAE Count : 0
 Inter-Core Inteference in Data Store : 318176
Heartbeat CPU 4 instructions: 230000000 cycles: 135487750 heartbeat IPC: 1.16299 cumulative IPC: 1.16383 (Simulation time: 18 hr 19 min 0 sec) 
 Total Blocks : 196608 Invalid Blocks : 0 Valid Blocks : 196608
 Total Tags : 491520 Threshold : 12288 Invalid Tags : 196610 Pr0 Tags : 98302 Pr1 Tags : 196608 num_pr0 : 12287
 SAE Count : 0
 Inter-Core Inteference in Data Store : 318239
Heartbeat CPU 1 instructions: 230000000 cycles: 135494063 heartbeat IPC: 1.16443 cumulative IPC: 1.16341 (Simulation time: 18 hr 19 min 2 sec) 
 Total Blocks : 196608 Invalid Blocks : 0 Valid Blocks : 196608
 Total Tags : 491520 Threshold : 12288 Invalid Tags : 196611 Pr0 Tags : 98301 Pr1 Tags : 196608 num_pr0 : 12287
 SAE Count : 0
 Inter-Core Inteference in Data Store : 318340
Heartbeat CPU 2 instructions: 240000001 cycles: 144063692 heartbeat IPC: 1.15224 cumulative IPC: 1.16432 (Simulation time: 18 hr 54 min 8 sec) 
 Total Blocks : 196608 Invalid Blocks : 0 Valid Blocks : 196608
 Total Tags : 491520 Threshold : 12288 Invalid Tags : 196608 Pr0 Tags : 98304 Pr1 Tags : 196608 num_pr0 : 12288
 SAE Count : 0
 Inter-Core Inteference in Data Store : 426712
Heartbeat CPU 7 instructions: 240000001 cycles: 144094407 heartbeat IPC: 1.15521 cumulative IPC: 1.16328 (Simulation time: 18 hr 54 min 14 sec) 
 Total Blocks : 196608 Invalid Blocks : 0 Valid Blocks : 196608
 Total Tags : 491520 Threshold : 12288 Invalid Tags : 196609 Pr0 Tags : 98303 Pr1 Tags : 196608 num_pr0 : 12288
 SAE Count : 0
 Inter-Core Inteference in Data Store : 427108
Heartbeat CPU 0 instructions: 240000001 cycles: 144121224 heartbeat IPC: 1.15412 cumulative IPC: 1.16244 (Simulation time: 18 hr 54 min 20 sec) 
 Total Blocks : 196608 Invalid Blocks : 0 Valid Blocks : 196608
 Total Tags : 491520 Threshold : 12288 Invalid Tags : 196611 Pr0 Tags : 98301 Pr1 Tags : 196608 num_pr0 : 12288
 SAE Count : 0
 Inter-Core Inteference in Data Store : 427428
Heartbeat CPU 5 instructions: 240000001 cycles: 144146952 heartbeat IPC: 1.15101 cumulative IPC: 1.16154 (Simulation time: 18 hr 54 min 25 sec) 
 Total Blocks : 196608 Invalid Blocks : 0 Valid Blocks : 196608
 Total Tags : 491520 Threshold : 12288 Invalid Tags : 196609 Pr0 Tags : 98303 Pr1 Tags : 196608 num_pr0 : 12288
 SAE Count : 0
 Inter-Core Inteference in Data Store : 427739
Heartbeat CPU 6 instructions: 240000001 cycles: 144156822 heartbeat IPC: 1.15196 cumulative IPC: 1.16124 (Simulation time: 18 hr 54 min 27 sec) 
 Total Blocks : 196608 Invalid Blocks : 0 Valid Blocks : 196608
 Total Tags : 491520 Threshold : 12288 Invalid Tags : 196608 Pr0 Tags : 98304 Pr1 Tags : 196608 num_pr0 : 12288
 SAE Count : 0
 Inter-Core Inteference in Data Store : 427854
Heartbeat CPU 3 instructions: 240000001 cycles: 144177180 heartbeat IPC: 1.14999 cumulative IPC: 1.16057 (Simulation time: 18 hr 54 min 31 sec) 
 Total Blocks : 196608 Invalid Blocks : 0 Valid Blocks : 196608
 Total Tags : 491520 Threshold : 12288 Invalid Tags : 196609 Pr0 Tags : 98303 Pr1 Tags : 196608 num_pr0 : 12288
 SAE Count : 0
 Inter-Core Inteference in Data Store : 428085
Heartbeat CPU 4 instructions: 240000001 cycles: 144185511 heartbeat IPC: 1.14972 cumulative IPC: 1.16027 (Simulation time: 18 hr 54 min 33 sec) 
 Total Blocks : 196608 Invalid Blocks : 0 Valid Blocks : 196608
 Total Tags : 491520 Threshold : 12288 Invalid Tags : 196610 Pr0 Tags : 98302 Pr1 Tags : 196608 num_pr0 : 12288
 SAE Count : 0
 Inter-Core Inteference in Data Store : 428188
Heartbeat CPU 1 instructions: 240000001 cycles: 144207849 heartbeat IPC: 1.14761 cumulative IPC: 1.15942 (Simulation time: 18 hr 54 min 38 sec) 
 Total Blocks : 196608 Invalid Blocks : 0 Valid Blocks : 196608
 Total Tags : 491520 Threshold : 12288 Invalid Tags : 196610 Pr0 Tags : 98302 Pr1 Tags : 196608 num_pr0 : 12288
 SAE Count : 0
 Inter-Core Inteference in Data Store : 428476
Heartbeat CPU 7 instructions: 250000003 cycles: 152658033 heartbeat IPC: 1.16773 cumulative IPC: 1.16417 (Simulation time: 19 hr 28 min 12 sec) 
 Total Blocks : 196608 Invalid Blocks : 0 Valid Blocks : 196608
 Total Tags : 491520 Threshold : 12288 Invalid Tags : 196610 Pr0 Tags : 98302 Pr1 Tags : 196608 num_pr0 : 12288
 SAE Count : 0
 Inter-Core Inteference in Data Store : 532503
Heartbeat CPU 2 instructions: 250000003 cycles: 152667214 heartbeat IPC: 1.16231 cumulative IPC: 1.16392 (Simulation time: 19 hr 28 min 15 sec) 
 Total Blocks : 196608 Invalid Blocks : 0 Valid Blocks : 196608
 Total Tags : 491520 Threshold : 12288 Invalid Tags : 196609 Pr0 Tags : 98303 Pr1 Tags : 196608 num_pr0 : 12288
 SAE Count : 0
 Inter-Core Inteference in Data Store : 532590
Heartbeat CPU 0 instructions: 250000003 cycles: 152678417 heartbeat IPC: 1.16861 cumulative IPC: 1.16367 (Simulation time: 19 hr 28 min 18 sec) 
 Total Blocks : 196608 Invalid Blocks : 0 Valid Blocks : 196608
 Total Tags : 491520 Threshold : 12288 Invalid Tags : 196609 Pr0 Tags : 98303 Pr1 Tags : 196608 num_pr0 : 12287
 SAE Count : 0
 Inter-Core Inteference in Data Store : 532707
Heartbeat CPU 5 instructions: 250000003 cycles: 152737462 heartbeat IPC: 1.16408 cumulative IPC: 1.16205 (Simulation time: 19 hr 28 min 30 sec) 
 Total Blocks : 196608 Invalid Blocks : 0 Valid Blocks : 196608
 Total Tags : 491520 Threshold : 12288 Invalid Tags : 196608 Pr0 Tags : 98304 Pr1 Tags : 196608 num_pr0 : 12288
 SAE Count : 0
 Inter-Core Inteference in Data Store : 533322
Heartbeat CPU 6 instructions: 250000003 cycles: 152752808 heartbeat IPC: 1.16333 cumulative IPC: 1.16166 (Simulation time: 19 hr 28 min 32 sec) 
 Total Blocks : 196608 Invalid Blocks : 0 Valid Blocks : 196608
 Total Tags : 491520 Threshold : 12288 Invalid Tags : 196609 Pr0 Tags : 98303 Pr1 Tags : 196608 num_pr0 : 12288
 SAE Count : 0
 Inter-Core Inteference in Data Store : 533494
Heartbeat CPU 3 instructions: 250000003 cycles: 152759033 heartbeat IPC: 1.16525 cumulative IPC: 1.1615 (Simulation time: 19 hr 28 min 33 sec) 
 Total Blocks : 196608 Invalid Blocks : 0 Valid Blocks : 196608
 Total Tags : 491520 Threshold : 12288 Invalid Tags : 196609 Pr0 Tags : 98303 Pr1 Tags : 196608 num_pr0 : 12288
 SAE Count : 0
 Inter-Core Inteference in Data Store : 533583
[...]
LLC4 TOTAL     ACCESS: 139131  HIT: 25987  MISS: 113144  HIT %: 18.6781  MISS %: 81.3219  AVERAGE MISS PENALTY: 263.345
LLC4 LOAD      ACCESS:  1424  HIT:   530  MISS:   894  HIT %: 37.2191  MISS %: 62.7809  AVERAGE MISS PENALTY: 310.462
LLC4 RFO       ACCESS: 14729  HIT:    29  MISS: 14700  HIT %: 0.19689  MISS %: 99.8031  AVERAGE MISS PENALTY: 710.084
LLC4 PREFETCH  ACCESS: 108252  HIT: 25400  MISS: 82852  HIT %: 23.4638  MISS %: 76.5362  AVERAGE MISS PENALTY: 230.292
LLC4 WRITEBACK ACCESS: 14726  HIT:    28  MISS: 14698  HIT %: 0.19014  MISS %: 99.8099  AVERAGE MISS PENALTY: 0
LLC4 PREFETCH  REQUESTED:     0  ISSUED:     0  USEFUL:  1378  USELESS: 180517
 USEFUL LOAD PREFETCHES:       1378 PREFETCH ISSUED TO LOWER LEVEL:     750681  ACCURACY: 0.183567
 TIMELY PREFETCHES:       1378 LATE PREFETCHES: 0 DROPPED PREFETCHES: 0
LLC4 AVERAGE MISS LATENCY: 263.345 cycles

LLC4 Set Associative Eviction Count : 0
LLC4 Priority 0 entries : 12288
LLC4 Inter-Core Interference : 262828
LLC5 TOTAL     ACCESS: 139591  HIT: 26388  MISS: 113203  HIT %: 18.9038  MISS %: 81.0962  AVERAGE MISS PENALTY: 264.499
LLC5 LOAD      ACCESS:  1729  HIT:   866  MISS:   863  HIT %: 50.0868  MISS %: 49.9132  AVERAGE MISS PENALTY: 278.313
LLC5 RFO       ACCESS: 14740  HIT:    15  MISS: 14725  HIT %: 0.101764  MISS %: 99.8982  AVERAGE MISS PENALTY: 706.055
LLC5 PREFETCH  ACCESS: 108360  HIT: 25482  MISS: 82878  HIT %: 23.5161  MISS %: 76.4839  AVERAGE MISS PENALTY: 232.936
LLC5 WRITEBACK ACCESS: 14762  HIT:    25  MISS: 14737  HIT %: 0.169354  MISS %: 99.8306  AVERAGE MISS PENALTY: 0
LLC5 PREFETCH  REQUESTED:     0  ISSUED:     0  USEFUL:  1580  USELESS: 179390
 USEFUL LOAD PREFETCHES:       1580 PREFETCH ISSUED TO LOWER LEVEL:     696638  ACCURACY: 0.226804
 TIMELY PREFETCHES:       1580 LATE PREFETCHES: 0 DROPPED PREFETCHES: 0
LLC5 AVERAGE MISS LATENCY: 264.499 cycles

LLC5 Set Associative Eviction Count : 0
LLC5 Priority 0 entries : 12288
LLC5 Inter-Core Interference : 262630
LLC6 TOTAL     ACCESS: 139725  HIT: 26500  MISS: 113225  HIT %: 18.9658  MISS %: 81.0342  AVERAGE MISS PENALTY: 264.375
LLC6 LOAD      ACCESS:  1547  HIT:   675  MISS:   872  HIT %: 43.6328  MISS %: 56.3672  AVERAGE MISS PENALTY: 304.813
LLC6 RFO       ACCESS: 14764  HIT:    39  MISS: 14725  HIT %: 0.264156  MISS %: 99.7358  AVERAGE MISS PENALTY: 699.561
LLC6 PREFETCH  ACCESS: 108610  HIT: 25720  MISS: 82890  HIT %: 23.6811  MISS %: 76.3189  AVERAGE MISS PENALTY: 233.647
LLC6 WRITEBACK ACCESS: 14804  HIT:    66  MISS: 14738  HIT %: 0.445825  MISS %: 99.5542  AVERAGE MISS PENALTY: 0
LLC6 PREFETCH  REQUESTED:     0  ISSUED:     0  USEFUL:  1723  USELESS: 180174
 USEFUL LOAD PREFETCHES:       1723 PREFETCH ISSUED TO LOWER LEVEL:     779448  ACCURACY: 0.221054
 TIMELY PREFETCHES:       1723 LATE PREFETCHES: 0 DROPPED PREFETCHES: 0
LLC6 AVERAGE MISS LATENCY: 264.375 cycles

LLC6 Set Associative Eviction Count : 0
LLC6 Priority 0 entries : 12288
LLC6 Inter-Core Interference : 263561
LLC7 TOTAL     ACCESS: 141576  HIT: 27665  MISS: 113911  HIT %: 19.5407  MISS %: 80.4593  AVERAGE MISS PENALTY: 264.587
LLC7 LOAD      ACCESS:  1583  HIT:   673  MISS:   910  HIT %: 42.5142  MISS %: 57.4858  AVERAGE MISS PENALTY: 282.154
LLC7 RFO       ACCESS: 14757  HIT:    32  MISS: 14725  HIT %: 0.216846  MISS %: 99.7832  AVERAGE MISS PENALTY: 697.094
LLC7 PREFETCH  ACCESS: 110278  HIT: 26742  MISS: 83536  HIT %: 24.2496  MISS %: 75.7504  AVERAGE MISS PENALTY: 234.844
LLC7 WRITEBACK ACCESS: 14958  HIT:   218  MISS: 14740  HIT %: 1.45741  MISS %: 98.5426  AVERAGE MISS PENALTY: 0
LLC7 PREFETCH  REQUESTED:     0  ISSUED:     0  USEFUL:  1724  USELESS: 183984
 USEFUL LOAD PREFETCHES:       1724 PREFETCH ISSUED TO LOWER LEVEL:     717008  ACCURACY: 0.240444
 TIMELY PREFETCHES:       1724 LATE PREFETCHES: 0 DROPPED PREFETCHES: 0
LLC7 AVERAGE MISS LATENCY: 264.587 cycles

LLC7 Set Associative Eviction Count : 0
LLC7 Priority 0 entries : 12288
LLC7 Inter-Core Interference : 267103
ROI Average ROB Stall Cycles:	5.89218
ROI Total ROB Stalls Cycles:	129479609
ROI TOTAL ROB counter      :	21974830
ROI Average Load ROB Stall Cycles:	12.6355
ROI Total Load ROB Stalls Cycle  :	41005679
ROI Total Load ROB stalls Counter:	3245281
Major fault: 0 Minor fault: 11251

CPU 7 cumulative IPC: 1.16652 instructions: 200000003 cycles: 171450392
ITLB TOTAL     ACCESS: 39108266  HIT: 39108266  MISS:     0  HIT %:   100  MISS %:     0  AVERAGE MISS PENALTY: 0
ITLB LOAD      ACCESS: 39108266  HIT: 39108266  MISS:     0  HIT %:   100  MISS %:     0  AVERAGE MISS PENALTY: 0
ITLB RFO       ACCESS:     0  HIT:     0  MISS:     0  HIT %:     0  MISS %:     0  AVERAGE MISS PENALTY: 0
ITLB PREFETCH  ACCESS:     0  HIT:     0  MISS:     0  HIT %:     0  MISS %:     0  AVERAGE MISS PENALTY: 0
ITLB WRITEBACK ACCESS:     0  HIT:     0  MISS:     0  HIT %:     0  MISS %:     0  AVERAGE MISS PENALTY: 0
ITLB PREFETCH  REQUESTED:     0  ISSUED:     0  USEFUL:     0  USELESS:     0
 USEFUL LOAD PREFETCHES:          0 PREFETCH ISSUED TO LOWER LEVEL:          0  ACCURACY: -nan
 TIMELY PREFETCHES:          0 LATE PREFETCHES: 0 DROPPED PREFETCHES: 0
ITLB AVERAGE MISS LATENCY: -nan cycles

ITLB Set Associative Eviction Count : 0
ITLB Priority 0 entries : 0
ITLB Inter-Core Interference : 0
DTLB TOTAL     ACCESS: 53692084  HIT: 45969249  MISS: 7722835  HIT %: 85.6164  MISS %: 14.3836  AVERAGE MISS PENALTY: 9.79006
DTLB LOAD      ACCESS: 45243684  HIT: 38429958  MISS: 6813726  HIT %: 84.9399  MISS %: 15.0601  AVERAGE MISS PENALTY: 9.62493
DTLB RFO       ACCESS: 8448400  HIT: 7539291  MISS: 909109  HIT %: 89.2393  MISS %: 10.7607  AVERAGE MISS PENALTY: 11.0277
DTLB PREFETCH  ACCESS:     0  HIT:     0  MISS:     0  HIT %:     0  MISS %:     0  AVERAGE MISS PENALTY: 0
DTLB WRITEBACK ACCESS:     0  HIT:     0  MISS:     0  HIT %:     0  MISS %:     0  AVERAGE MISS PENALTY: 0
DTLB PREFETCH  REQUESTED:     0  ISSUED:     0  USEFUL:     0  USELESS:     0
 USEFUL LOAD PREFETCHES:          0 PREFETCH ISSUED TO LOWER LEVEL:          0  ACCURACY: -nan
 TIMELY PREFETCHES:          0 LATE PREFETCHES: 0 DROPPED PREFETCHES: 0
DTLB AVERAGE MISS LATENCY: 9.79006 cycles

DTLB Set Associative Eviction Count : 0
DTLB Priority 0 entries : 0
DTLB Inter-Core Interference : 0
STLB TOTAL     ACCESS: 7722835  HIT: 7714311  MISS:  8524  HIT %: 99.8896  MISS %: 0.110374  AVERAGE MISS PENALTY: 100
STLB LOAD      ACCESS: 6813726  HIT: 6807102  MISS:  6624  HIT %: 99.9028  MISS %: 0.0972155  AVERAGE MISS PENALTY: 100
STLB RFO       ACCESS: 909109  HIT: 907209  MISS:  1900  HIT %: 99.791  MISS %: 0.208996  AVERAGE MISS PENALTY: 100
STLB PREFETCH  ACCESS:     0  HIT:     0  MISS:     0  HIT %:     0  MISS %:     0  AVERAGE MISS PENALTY: 0
STLB WRITEBACK ACCESS:     0  HIT:     0  MISS:     0  HIT %:     0  MISS %:     0  AVERAGE MISS PENALTY: 0
STLB PREFETCH  REQUESTED:     0  ISSUED:     0  USEFUL:     0  USELESS:     0
 USEFUL LOAD PREFETCHES:          0 PREFETCH ISSUED TO LOWER LEVEL:          0  ACCURACY: -nan
 TIMELY PREFETCHES:          0 LATE PREFETCHES: 0 DROPPED PREFETCHES: 0
STLB AVERAGE MISS LATENCY: 100 cycles

STLB Set Associative Eviction Count : 0
STLB Priority 0 entries : 0
STLB Inter-Core Interference : 0
L1D TOTAL     ACCESS: 115019085  HIT: 91484807  MISS: 23534278  HIT %: 79.5388  MISS %: 20.4612  AVERAGE MISS PENALTY: 1.52861e+06
L1D LOAD      ACCESS: 61733793  HIT: 47934097  MISS: 13799696  HIT %: 77.6464  MISS %: 22.3536  AVERAGE MISS PENALTY: 2.55431e+06
L1D RFO       ACCESS: 15990663  HIT: 14667338  MISS: 1323325  HIT %: 91.7244  MISS %: 8.27561  AVERAGE MISS PENALTY: 547957
L1D PREFETCH  ACCESS: 37294629  HIT: 28883372  MISS: 8411257  HIT %: 77.4465  MISS %: 22.5535  AVERAGE MISS PENALTY: 105.476
L1D WRITEBACK ACCESS:     0  HIT:     0  MISS:     0  HIT %:     0  MISS %:     0  AVERAGE MISS PENALTY: 0
L1D PREFETCH  REQUESTED: 42667899  ISSUED: 39005547  USEFUL: 591334  USELESS: 7819930
 USEFUL LOAD PREFETCHES:     591334 PREFETCH ISSUED TO LOWER LEVEL:   21507084  ACCURACY: 2.74948
 TIMELY PREFETCHES:     591334 LATE PREFETCHES: 583793 DROPPED PREFETCHES: 3662352
L1D AVERAGE MISS LATENCY: 30830.5 cycles

L1D Set Associative Eviction Count : 0
L1D Priority 0 entries : 0
L1D Inter-Core Interference : 0
L1I TOTAL     ACCESS: 45558209  HIT: 40358244  MISS: 5199965  HIT %: 88.5861  MISS %: 11.4139  AVERAGE MISS PENALTY: 53.3515
L1I LOAD      ACCESS: 45558209  HIT: 40358244  MISS: 5199965  HIT %: 88.5861  MISS %: 11.4139  AVERAGE MISS PENALTY: 53.3515
L1I RFO       ACCESS:     0  HIT:     0  MISS:     0  HIT %:     0  MISS %:     0  AVERAGE MISS PENALTY: 0
L1I PREFETCH  ACCESS:     0  HIT:     0  MISS:     0  HIT %:     0  MISS %:     0  AVERAGE MISS PENALTY: 0
L1I WRITEBACK ACCESS:     0  HIT:     0  MISS:     0  HIT %:     0  MISS %:     0  AVERAGE MISS PENALTY: 0
L1I PREFETCH  REQUESTED:     0  ISSUED:     0  USEFUL:     0  USELESS:     0
 USEFUL LOAD PREFETCHES:          0 PREFETCH ISSUED TO LOWER LEVEL:          0  ACCURACY: -nan
 TIMELY PREFETCHES:          0 LATE PREFETCHES: 0 DROPPED PREFETCHES: 0
L1I AVERAGE MISS LATENCY: 11.1546 cycles

L1I Set Associative Eviction Count : 0
L1I Priority 0 entries : 0
L1I Inter-Core Interference : 0
L2C TOTAL     ACCESS: 45168528  HIT: 44140583  MISS: 1027945  HIT %: 97.7242  MISS %: 2.2758  AVERAGE MISS PENALTY: 294331
L2C LOAD      ACCESS: 18961081  HIT: 18921592  MISS: 39489  HIT %: 99.7917  MISS %: 0.208263  AVERAGE MISS PENALTY: 7.6549e+06
L2C RFO       ACCESS: 1317306  HIT: 1196621  MISS: 120685  HIT %: 90.8385  MISS %: 9.1615  AVERAGE MISS PENALTY: 703.374
L2C PREFETCH  ACCESS: 23383271  HIT: 22516056  MISS: 867215  HIT %: 96.2913  MISS %: 3.7087  AVERAGE MISS PENALTY: 215.463
L2C WRITEBACK ACCESS: 1506870  HIT: 1506314  MISS:   556  HIT %: 99.9631  MISS %: 0.0368977  AVERAGE MISS PENALTY: 0
L2C PREFETCH  REQUESTED: 19701847  ISSUED: 18460339  USEFUL: 851856  USELESS: 15334
 USEFUL LOAD PREFETCHES:     851856 PREFETCH ISSUED TO LOWER LEVEL:     881403  ACCURACY: 96.6477
 TIMELY PREFETCHES:     851856 LATE PREFETCHES: 5238 DROPPED PREFETCHES: 1241508
L2C AVERAGE MISS LATENCY: 269.795 cycles

L2C Set Associative Eviction Count : 0
L2C Priority 0 entries : 0
L2C Inter-Core Interference : 0
LLC0 TOTAL     ACCESS: 150013  HIT: 36157  MISS: 113856  HIT %: 24.1026  MISS %: 75.8974  AVERAGE MISS PENALTY: 251.81
LLC0 LOAD      ACCESS: 19065  HIT:  7811  MISS: 11254  HIT %: 40.9704  MISS %: 59.0296  AVERAGE MISS PENALTY: 212.84
LLC0 RFO       ACCESS: 15744  HIT:  1044  MISS: 14700  HIT %: 6.6311  MISS %: 93.3689  AVERAGE MISS PENALTY: 628.883
LLC0 PREFETCH  ACCESS: 99175  HIT: 26038  MISS: 73137  HIT %: 26.2546  MISS %: 73.7454  AVERAGE MISS PENALTY: 232.853
LLC0 WRITEBACK ACCESS: 16029  HIT:  1264  MISS: 14765  HIT %: 7.88571  MISS %: 92.1143  AVERAGE MISS PENALTY: 0
LLC0 PREFETCH  REQUESTED:     0  ISSUED:     0  USEFUL:  1785  USELESS: 161371
 USEFUL LOAD PREFETCHES:       1785 PREFETCH ISSUED TO LOWER LEVEL:     613068  ACCURACY: 0.291159
 TIMELY PREFETCHES:       1785 LATE PREFETCHES: 0 DROPPED PREFETCHES: 0
LLC0 AVERAGE MISS LATENCY: 251.81 cycles

LLC0 Set Associative Eviction Count : 0
LLC0 Priority 0 entries : 12288
LLC0 Inter-Core Interference : 266400
LLC1 TOTAL     ACCESS: 147142  HIT: 33976  MISS: 113166  HIT %: 23.0906  MISS %: 76.9094  AVERAGE MISS PENALTY: 257.702
LLC1 LOAD      ACCESS:  5141  HIT:  4199  MISS:   942  HIT %: 81.6767  MISS %: 18.3233  AVERAGE MISS PENALTY: 237.003
LLC1 RFO       ACCESS: 15541  HIT:   841  MISS: 14700  HIT %: 5.41149  MISS %: 94.5885  AVERAGE MISS PENALTY: 676.443
LLC1 PREFETCH  ACCESS: 110794  HIT: 28024  MISS: 82770  HIT %: 25.2938  MISS %: 74.7062  AVERAGE MISS PENALTY: 229.506
LLC1 WRITEBACK ACCESS: 15666  HIT:   912  MISS: 14754  HIT %: 5.82152  MISS %: 94.1785  AVERAGE MISS PENALTY: 0
LLC1 PREFETCH  REQUESTED:     0  ISSUED:     0  USEFUL:  1585  USELESS: 180380
 USEFUL LOAD PREFETCHES:       1585 PREFETCH ISSUED TO LOWER LEVEL:     680913  ACCURACY: 0.232776
 TIMELY PREFETCHES:       1585 LATE PREFETCHES: 0 DROPPED PREFETCHES: 0
LLC1 AVERAGE MISS LATENCY: 257.702 cycles

LLC1 Set Associative Eviction Count : 0
LLC1 Priority 0 entries : 12288
LLC1 Inter-Core Interference : 263370
LLC2 TOTAL     ACCESS: 141991  HIT: 28836  MISS: 113155  HIT %: 20.3083  MISS %: 79.6917  AVERAGE MISS PENALTY: 266.981
LLC2 LOAD      ACCESS:  2906  HIT:  1969  MISS:   937  HIT %: 67.7564  MISS %: 32.2436  AVERAGE MISS PENALTY: 249.924
LLC2 RFO       ACCESS: 14943  HIT:   243  MISS: 14700  HIT %: 1.62618  MISS %: 98.3738  AVERAGE MISS PENALTY: 700.07
LLC2 PREFETCH  ACCESS: 109165  HIT: 26373  MISS: 82792  HIT %: 24.1588  MISS %: 75.8412  AVERAGE MISS PENALTY: 237.765
LLC2 WRITEBACK ACCESS: 14977  HIT:   251  MISS: 14726  HIT %: 1.6759  MISS %: 98.3241  AVERAGE MISS PENALTY: 0
LLC2 PREFETCH  REQUESTED:     0  ISSUED:     0  USEFUL:  1672  USELESS: 179196
 USEFUL LOAD PREFETCHES:       1672 PREFETCH ISSUED TO LOWER LEVEL:     731314  ACCURACY: 0.22863
 TIMELY PREFETCHES:       1672 LATE PREFETCHES: 0 DROPPED PREFETCHES: 0
LLC2 AVERAGE MISS LATENCY: 266.981 cycles

LLC2 Set Associative Eviction Count : 0
LLC2 Priority 0 entries : 12288
LLC2 Inter-Core Interference : 262210
LLC3 TOTAL     ACCESS: 141677  HIT: 27967  MISS: 113710  HIT %: 19.74  MISS %: 80.26  AVERAGE MISS PENALTY: 264.032
LLC3 LOAD      ACCESS:  2617  HIT:  1632  MISS:   985  HIT %: 62.3615  MISS %: 37.6385  AVERAGE MISS PENALTY: 251.538
LLC3 RFO       ACCESS: 14768  HIT:    43  MISS: 14725  HIT %: 0.29117  MISS %: 99.7088  AVERAGE MISS PENALTY: 693.36
LLC3 PREFETCH  ACCESS: 109390  HIT: 26147  MISS: 83243  HIT %: 23.9026  MISS %: 76.0974  AVERAGE MISS PENALTY: 235.041
LLC3 WRITEBACK ACCESS: 14902  HIT:   145  MISS: 14757  HIT %: 0.973024  MISS %: 99.027  AVERAGE MISS PENALTY: 0
LLC3 PREFETCH  REQUESTED:     0  ISSUED:     0  USEFUL:  1399  USELESS: 181900
 USEFUL LOAD PREFETCHES:       1399 PREFETCH ISSUED TO LOWER LEVEL:     685308  ACCURACY: 0.204142
 TIMELY PREFETCHES:       1399 LATE PREFETCHES: 0 DROPPED PREFETCHES: 0
LLC3 AVERAGE MISS LATENCY: 264.032 cycles

LLC3 Set Associative Eviction Count : 0
LLC3 Priority 0 entries : 12288
LLC3 Inter-Core Interference : 265377
LLC4 TOTAL     ACCESS: 140688  HIT: 27260  MISS: 113428  HIT %: 19.3762  MISS %: 80.6238  AVERAGE MISS PENALTY: 258.554
LLC4 LOAD      ACCESS:  1686  HIT:   811  MISS:   875  HIT %: 48.102  MISS %: 51.898  AVERAGE MISS PENALTY: 267.055
LLC4 RFO       ACCESS: 14776  HIT:    76  MISS: 14700  HIT %: 0.514348  MISS %: 99.4857  AVERAGE MISS PENALTY: 673.116
LLC4 PREFETCH  ACCESS: 109422  HIT: 26287  MISS: 83135  HIT %: 24.0235  MISS %: 75.9765  AVERAGE MISS PENALTY: 230.935
LLC4 WRITEBACK ACCESS: 14804  HIT:    86  MISS: 14718  HIT %: 0.580924  MISS %: 99.4191  AVERAGE MISS PENALTY: 0
LLC4 PREFETCH  REQUESTED:     0  ISSUED:     0  USEFUL:  1378  USELESS: 180517
 USEFUL LOAD PREFETCHES:       1378 PREFETCH ISSUED TO LOWER LEVEL:     750681  ACCURACY: 0.183567
 TIMELY PREFETCHES:       1378 LATE PREFETCHES: 0 DROPPED PREFETCHES: 0
LLC4 AVERAGE MISS LATENCY: 258.554 cycles

LLC4 Set Associative Eviction Count : 0
LLC4 Priority 0 entries : 12288
LLC4 Inter-Core Interference : 262828
LLC5 TOTAL     ACCESS: 141135  HIT: 27591  MISS: 113544  HIT %: 19.5494  MISS %: 80.4506  AVERAGE MISS PENALTY: 261.216
LLC5 LOAD      ACCESS:  2249  HIT:  1391  MISS:   858  HIT %: 61.8497  MISS %: 38.1503  AVERAGE MISS PENALTY: 245.143
LLC5 RFO       ACCESS: 14802  HIT:    77  MISS: 14725  HIT %: 0.5202  MISS %: 99.4798  AVERAGE MISS PENALTY: 678.312
LLC5 PREFETCH  ACCESS: 109118  HIT: 25913  MISS: 83205  HIT %: 23.7477  MISS %: 76.2523  AVERAGE MISS PENALTY: 233.893
LLC5 WRITEBACK ACCESS: 14966  HIT:   210  MISS: 14756  HIT %: 1.40318  MISS %: 98.5968  AVERAGE MISS PENALTY: 0
LLC5 PREFETCH  REQUESTED:     0  ISSUED:     0  USEFUL:  1580  USELESS: 179390
 USEFUL LOAD PREFETCHES:       1580 PREFETCH ISSUED TO LOWER LEVEL:     696638  ACCURACY: 0.226804
 TIMELY PREFETCHES:       1580 LATE PREFETCHES: 0 DROPPED PREFETCHES: 0
LLC5 AVERAGE MISS LATENCY: 261.216 cycles

LLC5 Set Associative Eviction Count : 0
LLC5 Priority 0 entries : 12288
LLC5 Inter-Core Interference : 262630
LLC6 TOTAL     ACCESS: 142611  HIT: 29125  MISS: 113486  HIT %: 20.4227  MISS %: 79.5773  AVERAGE MISS PENALTY: 266.091
LLC6 LOAD      ACCESS:  3011  HIT:  2089  MISS:   922  HIT %: 69.3789  MISS %: 30.6211  AVERAGE MISS PENALTY: 260.727
LLC6 RFO       ACCESS: 14957  HIT:   232  MISS: 14725  HIT %: 1.55111  MISS %: 98.4489  AVERAGE MISS PENALTY: 703.297
LLC6 PREFETCH  ACCESS: 109453  HIT: 26369  MISS: 83084  HIT %: 24.0916  MISS %: 75.9084  AVERAGE MISS PENALTY: 235.919
LLC6 WRITEBACK ACCESS: 15190  HIT:   435  MISS: 14755  HIT %: 2.86373  MISS %: 97.1363  AVERAGE MISS PENALTY: 0
LLC6 PREFETCH  REQUESTED:     0  ISSUED:     0  USEFUL:  1723  USELESS: 180174
 USEFUL LOAD PREFETCHES:       1723 PREFETCH ISSUED TO LOWER LEVEL:     779448  ACCURACY: 0.221054
 TIMELY PREFETCHES:       1723 LATE PREFETCHES: 0 DROPPED PREFETCHES: 0
LLC6 AVERAGE MISS LATENCY: 266.091 cycles

LLC6 Set Associative Eviction Count : 0
LLC6 Priority 0 entries : 12288
LLC6 Inter-Core Interference : 263561
LLC7 TOTAL     ACCESS: 143884  HIT: 29821  MISS: 114063  HIT %: 20.7257  MISS %: 79.2743  AVERAGE MISS PENALTY: 265.671
LLC7 LOAD      ACCESS:  2625  HIT:  1678  MISS:   947  HIT %: 63.9238  MISS %: 36.0762  AVERAGE MISS PENALTY: 256.138
LLC7 RFO       ACCESS: 15003  HIT:   278  MISS: 14725  HIT %: 1.85296  MISS %: 98.147  AVERAGE MISS PENALTY: 696.034
LLC7 PREFETCH  ACCESS: 110873  HIT: 27249  MISS: 83624  HIT %: 24.5768  MISS %: 75.4232  AVERAGE MISS PENALTY: 236.913
LLC7 WRITEBACK ACCESS: 15383  HIT:   616  MISS: 14767  HIT %: 4.00442  MISS %: 95.9956  AVERAGE MISS PENALTY: 0
LLC7 PREFETCH  REQUESTED:     0  ISSUED:     0  USEFUL:  1724  USELESS: 183984
 USEFUL LOAD PREFETCHES:       1724 PREFETCH ISSUED TO LOWER LEVEL:     717008  ACCURACY: 0.240444
 TIMELY PREFETCHES:       1724 LATE PREFETCHES: 0 DROPPED PREFETCHES: 0
LLC7 AVERAGE MISS LATENCY: 265.671 cycles

LLC7 Set Associative Eviction Count : 0
LLC7 Priority 0 entries : 12288
LLC7 Inter-Core Interference : 267103
ROI Average ROB Stall Cycles:	5.88698
ROI Total ROB Stalls Cycles:	129398094
ROI TOTAL ROB counter      :	21980377
ROI Average Load ROB Stall Cycles:	12.5878
ROI Total Load ROB Stalls Cycle  :	40875121
ROI Total Load ROB stalls Counter:	3247212
Major fault: 0 Minor fault: 11255








Interconnect Stats 
LINK 0 BW : 0LINK 1 BW : 0LINK 2 BW : 0LINK 3 BW : 0LINK 4 BW : 0LINK 5 BW : 0LINK 6 BW : 0LINK 7 BW : 0
DRAM Statistics
 CHANNEL 0
 RQ ROW_BUFFER_HIT: 1179053  ROW_BUFFER_MISS: 1987064
 DBUS_CONGESTED: 1448386
 WQ ROW_BUFFER_HIT: 101081  ROW_BUFFER_MISS: 369864  FULL:     0

 CHANNEL 1
 RQ ROW_BUFFER_HIT: 1165196  ROW_BUFFER_MISS: 2005486
 DBUS_CONGESTED: 1448386
 WQ ROW_BUFFER_HIT: 99631  ROW_BUFFER_MISS: 371703  FULL:     0

 AVG_CONGESTED_CYCLE: 5
DRAM PAGES: 2097152
Allocated PAGES: 90016
L2C destructor called
L1D destructor called
L1I destructor called
STLB destructor called
DTLB destructor called
ITLB destructor called
L2C destructor called
L1D destructor called
L1I destructor called
STLB destructor called
DTLB destructor called
ITLB destructor called
L2C destructor called
L1D destructor called
L1I destructor called
STLB destructor called
DTLB destructor called
ITLB destructor called
L2C destructor called
L1D destructor called
L1I destructor called
STLB destructor called
DTLB destructor called
ITLB destructor called
L2C destructor called
L1D destructor called
L1I destructor called
STLB destructor called
DTLB destructor called
ITLB destructor called
L2C destructor called
L1D destructor called
L1I destructor called
STLB destructor called
DTLB destructor called
ITLB destructor called
L2C destructor called
L1D destructor called
L1I destructor called
STLB destructor called
DTLB destructor called
ITLB destructor called
L2C destructor called
L1D destructor called
L1I destructor called
STLB destructor called
DTLB destructor called
ITLB destructor called
