
*** ChampSim Multicore Out-of-Order Simulator ***

Warmup Instructions: 200000000
Simulation Instructions: 200000000
Number of CPUs: 8
threads:1

L1I Configuration:
L1I_SET:64
L1I_WAY:8
L1I_RQ_SIZE:64
L1I_WQ_SIZE:64
L1I_PQ_SIZE:8
L1I_MSHR_SIZE:8

L1D Configuration:
L1D_SET:64
L1D_WAY:12
L1D_RQ_SIZE:64
L1D_WQ_SIZE:64
L1D_PQ_SIZE:8
L1D_MSHR_SIZE:16

L2C Configuration:
L2C_SET:1024
L2C_WAY:8
L2C_RQ_SIZE:32
L2C_WQ_SIZE:32
L2C_PQ_SIZE:16
L2C_MSHR_SIZE:32

LLC Configuration:
LLC_SET:2048
LLC_WAY:12
LLC SLICES:8
LLC_RQ_SIZE:64
LLC_WQ_SIZE:64
LLC_PQ_SIZE:32
LLC_MSHR_SIZE:64

Interconnect OFF
Attacker deprioritize is: OFF
Off-chip DRAM Size: 8192 MB Channels: 2 Width: 64-bit Data Rate: 3200 MT/s
PAGE SIZE in KB: 4.000000 
PAGE SIZE in MB: 0.003906 
PAGE offset in bits: 12 
CEASER-S_LLC:0
MIRAGE : 1
CEASER_LATENCY:3
REMAP : OFF
Partitions : 1
Multi-Step : OFF
BFS : OFF

CPU 0 runs /home/anubhav/spec_2017/619.lbm_s-2676B.champsimtrace.xz
CPU 1 runs /home/anubhav/spec_2017/619.lbm_s-2676B.champsimtrace.xz
CPU 2 runs /home/anubhav/spec_2017/619.lbm_s-2676B.champsimtrace.xz
CPU 3 runs /home/anubhav/spec_2017/619.lbm_s-2676B.champsimtrace.xz
CPU 4 runs /home/anubhav/spec_2017/619.lbm_s-2676B.champsimtrace.xz
CPU 5 runs /home/anubhav/spec_2017/619.lbm_s-2676B.champsimtrace.xz
CPU 6 runs /home/anubhav/spec_2017/619.lbm_s-2676B.champsimtrace.xz
CPU 7 runs /home/anubhav/spec_2017/619.lbm_s-2676B.champsimtrace.xz
CPU 0 Bimodal branch predictor
Initialize Hawkeye state
Initialize Hawkeye state
Initialize Hawkeye state
Initialize Hawkeye state
Initialize Hawkeye state
Initialize Hawkeye state
Initialize Hawkeye state
Initialize Hawkeye state
CPU 1 Bimodal branch predictor
Initialize Hawkeye state
Initialize Hawkeye state
Initialize Hawkeye state
Initialize Hawkeye state
Initialize Hawkeye state
Initialize Hawkeye state
Initialize Hawkeye state
Initialize Hawkeye state
CPU 2 Bimodal branch predictor
Initialize Hawkeye state
Initialize Hawkeye state
Initialize Hawkeye state
Initialize Hawkeye state
Initialize Hawkeye state
Initialize Hawkeye state
Initialize Hawkeye state
Initialize Hawkeye state
CPU 3 Bimodal branch predictor
Initialize Hawkeye state
Initialize Hawkeye state
Initialize Hawkeye state
Initialize Hawkeye state
Initialize Hawkeye state
Initialize Hawkeye state
Initialize Hawkeye state
Initialize Hawkeye state
CPU 4 Bimodal branch predictor
Initialize Hawkeye state
Initialize Hawkeye state
Initialize Hawkeye state
Initialize Hawkeye state
Initialize Hawkeye state
Initialize Hawkeye state
Initialize Hawkeye state
Initialize Hawkeye state
CPU 5 Bimodal branch predictor
Initialize Hawkeye state
Initialize Hawkeye state
Initialize Hawkeye state
Initialize Hawkeye state
Initialize Hawkeye state
Initialize Hawkeye state
Initialize Hawkeye state
Initialize Hawkeye state
CPU 6 Bimodal branch predictor
Initialize Hawkeye state
Initialize Hawkeye state
Initialize Hawkeye state
Initialize Hawkeye state
Initialize Hawkeye state
Initialize Hawkeye state
Initialize Hawkeye state
Initialize Hawkeye state
CPU 7 Bimodal branch predictor
Initialize Hawkeye state
Initialize Hawkeye state
Initialize Hawkeye state
Initialize Hawkeye state
Initialize Hawkeye state
Initialize Hawkeye state
Initialize Hawkeye state
Initialize Hawkeye state
FILL
Heartbeat CPU 6 instructions: 10000002 cycles: 3949417 heartbeat IPC: 2.53202 cumulative IPC: 2.53202 (Simulation time: 1 hr 24 min 24 sec) 
 Total Blocks : 196608 Invalid Blocks : 0 Valid Blocks : 196608
 Total Tags : 491520 Threshold : 12288 Invalid Tags : 196610 Pr0 Tags : 98302 Pr1 Tags : 196608 num_pr0 : 12288
 SAE Count : 0
 Inter-Core Inteference in Data Store : 2307866
Heartbeat CPU 5 instructions: 10000002 cycles: 3949445 heartbeat IPC: 2.532 cumulative IPC: 2.532 (Simulation time: 1 hr 24 min 24 sec) 
 Total Blocks : 196608 Invalid Blocks : 0 Valid Blocks : 196608
 Total Tags : 491520 Threshold : 12288 Invalid Tags : 196611 Pr0 Tags : 98301 Pr1 Tags : 196608 num_pr0 : 12287
 SAE Count : 0
 Inter-Core Inteference in Data Store : 2307878
Heartbeat CPU 3 instructions: 10000002 cycles: 3949480 heartbeat IPC: 2.53198 cumulative IPC: 2.53198 (Simulation time: 1 hr 24 min 24 sec) 
 Total Blocks : 196608 Invalid Blocks : 0 Valid Blocks : 196608
 Total Tags : 491520 Threshold : 12288 Invalid Tags : 196611 Pr0 Tags : 98301 Pr1 Tags : 196608 num_pr0 : 12287
 SAE Count : 0
 Inter-Core Inteference in Data Store : 2307887
Heartbeat CPU 2 instructions: 10000002 cycles: 3949543 heartbeat IPC: 2.53194 cumulative IPC: 2.53194 (Simulation time: 1 hr 24 min 24 sec) 
 Total Blocks : 196608 Invalid Blocks : 0 Valid Blocks : 196608
 Total Tags : 491520 Threshold : 12288 Invalid Tags : 196613 Pr0 Tags : 98299 Pr1 Tags : 196608 num_pr0 : 12287
 SAE Count : 0
 Inter-Core Inteference in Data Store : 2307906
Heartbeat CPU 7 instructions: 10000002 cycles: 3949564 heartbeat IPC: 2.53193 cumulative IPC: 2.53193 (Simulation time: 1 hr 24 min 24 sec) 
 Total Blocks : 196608 Invalid Blocks : 0 Valid Blocks : 196608
 Total Tags : 491520 Threshold : 12288 Invalid Tags : 196611 Pr0 Tags : 98301 Pr1 Tags : 196608 num_pr0 : 12288
 SAE Count : 0
 Inter-Core Inteference in Data Store : 2307916
Heartbeat CPU 0 instructions: 10000002 cycles: 3949566 heartbeat IPC: 2.53192 cumulative IPC: 2.53192 (Simulation time: 1 hr 24 min 24 sec) 
 Total Blocks : 196608 Invalid Blocks : 0 Valid Blocks : 196608
 Total Tags : 491520 Threshold : 12288 Invalid Tags : 196611 Pr0 Tags : 98301 Pr1 Tags : 196608 num_pr0 : 12288
 SAE Count : 0
 Inter-Core Inteference in Data Store : 2307917
Heartbeat CPU 1 instructions: 10000002 cycles: 3949596 heartbeat IPC: 2.5319 cumulative IPC: 2.5319 (Simulation time: 1 hr 24 min 24 sec) 
 Total Blocks : 196608 Invalid Blocks : 0 Valid Blocks : 196608
 Total Tags : 491520 Threshold : 12288 Invalid Tags : 196610 Pr0 Tags : 98302 Pr1 Tags : 196608 num_pr0 : 12287
 SAE Count : 0
 Inter-Core Inteference in Data Store : 2307930
Heartbeat CPU 4 instructions: 10000002 cycles: 3949661 heartbeat IPC: 2.53186 cumulative IPC: 2.53186 (Simulation time: 1 hr 24 min 25 sec) 
 Total Blocks : 196608 Invalid Blocks : 0 Valid Blocks : 196608
 Total Tags : 491520 Threshold : 12288 Invalid Tags : 196611 Pr0 Tags : 98301 Pr1 Tags : 196608 num_pr0 : 12288
 SAE Count : 0
 Inter-Core Inteference in Data Store : 2307952
FILL
Heartbeat CPU 7 instructions: 20000000 cycles: 7884842 heartbeat IPC: 2.54112 cumulative IPC: 2.53651 (Simulation time: 2 hr 51 min 41 sec) 
 Total Blocks : 196608 Invalid Blocks : 0 Valid Blocks : 196608
 Total Tags : 491520 Threshold : 12288 Invalid Tags : 196614 Pr0 Tags : 98298 Pr1 Tags : 196608 num_pr0 : 12287
 SAE Count : 0
 Inter-Core Inteference in Data Store : 4742457
Heartbeat CPU 5 instructions: 20000000 cycles: 7884953 heartbeat IPC: 2.54097 cumulative IPC: 2.53648 (Simulation time: 2 hr 51 min 41 sec) 
 Total Blocks : 196608 Invalid Blocks : 0 Valid Blocks : 196608
 Total Tags : 491520 Threshold : 12288 Invalid Tags : 196615 Pr0 Tags : 98297 Pr1 Tags : 196608 num_pr0 : 12287
 SAE Count : 0
 Inter-Core Inteference in Data Store : 4742519
Heartbeat CPU 6 instructions: 20000000 cycles: 7884986 heartbeat IPC: 2.54093 cumulative IPC: 2.53647 (Simulation time: 2 hr 51 min 41 sec) 
 Total Blocks : 196608 Invalid Blocks : 0 Valid Blocks : 196608
 Total Tags : 491520 Threshold : 12288 Invalid Tags : 196612 Pr0 Tags : 98300 Pr1 Tags : 196608 num_pr0 : 12288
 SAE Count : 0
 Inter-Core Inteference in Data Store : 4742525
Heartbeat CPU 1 instructions: 20000000 cycles: 7885006 heartbeat IPC: 2.54103 cumulative IPC: 2.53646 (Simulation time: 2 hr 51 min 41 sec) 
 Total Blocks : 196608 Invalid Blocks : 0 Valid Blocks : 196608
 Total Tags : 491520 Threshold : 12288 Invalid Tags : 196615 Pr0 Tags : 98297 Pr1 Tags : 196608 num_pr0 : 12286
 SAE Count : 0
 Inter-Core Inteference in Data Store : 4742538
Heartbeat CPU 0 instructions: 20000000 cycles: 7885018 heartbeat IPC: 2.541 cumulative IPC: 2.53646 (Simulation time: 2 hr 51 min 41 sec) 
 Total Blocks : 196608 Invalid Blocks : 0 Valid Blocks : 196608
 Total Tags : 491520 Threshold : 12288 Invalid Tags : 196614 Pr0 Tags : 98298 Pr1 Tags : 196608 num_pr0 : 12287
 SAE Count : 0
 Inter-Core Inteference in Data Store : 4742544
Heartbeat CPU 3 instructions: 20000000 cycles: 7885349 heartbeat IPC: 2.54073 cumulative IPC: 2.53635 (Simulation time: 2 hr 51 min 42 sec) 
 Total Blocks : 196608 Invalid Blocks : 0 Valid Blocks : 196608
 Total Tags : 491520 Threshold : 12288 Invalid Tags : 196610 Pr0 Tags : 98302 Pr1 Tags : 196608 num_pr0 : 12287
 SAE Count : 0
 Inter-Core Inteference in Data Store : 4742888
Heartbeat CPU 4 instructions: 20000000 cycles: 7885394 heartbeat IPC: 2.54082 cumulative IPC: 2.53633 (Simulation time: 2 hr 51 min 42 sec) 
 Total Blocks : 196608 Invalid Blocks : 0 Valid Blocks : 196608
 Total Tags : 491520 Threshold : 12288 Invalid Tags : 196613 Pr0 Tags : 98299 Pr1 Tags : 196608 num_pr0 : 12288
 SAE Count : 0
 Inter-Core Inteference in Data Store : 4742936
Heartbeat CPU 2 instructions: 20000000 cycles: 7885418 heartbeat IPC: 2.54073 cumulative IPC: 2.53633 (Simulation time: 2 hr 51 min 42 sec) 
 Total Blocks : 196608 Invalid Blocks : 0 Valid Blocks : 196608
 Total Tags : 491520 Threshold : 12288 Invalid Tags : 196615 Pr0 Tags : 98297 Pr1 Tags : 196608 num_pr0 : 12286
 SAE Count : 0
 Inter-Core Inteference in Data Store : 4742961
FILL
Heartbeat CPU 7 instructions: 30000003 cycles: 11802231 heartbeat IPC: 2.55272 cumulative IPC: 2.54189 (Simulation time: 4 hr 28 min 3 sec) 
 Total Blocks : 196608 Invalid Blocks : 0 Valid Blocks : 196608
 Total Tags : 491520 Threshold : 12288 Invalid Tags : 196614 Pr0 Tags : 98298 Pr1 Tags : 196608 num_pr0 : 12287
 SAE Count : 0
 Inter-Core Inteference in Data Store : 7117906
Heartbeat CPU 5 instructions: 30000003 cycles: 11802545 heartbeat IPC: 2.55259 cumulative IPC: 2.54182 (Simulation time: 4 hr 28 min 3 sec) 
 Total Blocks : 196608 Invalid Blocks : 0 Valid Blocks : 196608
 Total Tags : 491520 Threshold : 12288 Invalid Tags : 196617 Pr0 Tags : 98295 Pr1 Tags : 196608 num_pr0 : 12287
 SAE Count : 0
 Inter-Core Inteference in Data Store : 7118118
Heartbeat CPU 1 instructions: 30000003 cycles: 11802696 heartbeat IPC: 2.55253 cumulative IPC: 2.54179 (Simulation time: 4 hr 28 min 4 sec) 
 Total Blocks : 196608 Invalid Blocks : 0 Valid Blocks : 196608
 Total Tags : 491520 Threshold : 12288 Invalid Tags : 196616 Pr0 Tags : 98296 Pr1 Tags : 196608 num_pr0 : 12288
 SAE Count : 0
 Inter-Core Inteference in Data Store : 7118210
Heartbeat CPU 0 instructions: 30000003 cycles: 11802711 heartbeat IPC: 2.55252 cumulative IPC: 2.54179 (Simulation time: 4 hr 28 min 4 sec) 
 Total Blocks : 196608 Invalid Blocks : 0 Valid Blocks : 196608
 Total Tags : 491520 Threshold : 12288 Invalid Tags : 196615 Pr0 Tags : 98297 Pr1 Tags : 196608 num_pr0 : 12288
 SAE Count : 0
 Inter-Core Inteference in Data Store : 7118227
Heartbeat CPU 3 instructions: 30000003 cycles: 11802885 heartbeat IPC: 2.55263 cumulative IPC: 2.54175 (Simulation time: 4 hr 28 min 4 sec) 
 Total Blocks : 196608 Invalid Blocks : 0 Valid Blocks : 196608
 Total Tags : 491520 Threshold : 12288 Invalid Tags : 196614 Pr0 Tags : 98298 Pr1 Tags : 196608 num_pr0 : 12288
 SAE Count : 0
 Inter-Core Inteference in Data Store : 7118405
Heartbeat CPU 6 instructions: 30000003 cycles: 11802990 heartbeat IPC: 2.55232 cumulative IPC: 2.54173 (Simulation time: 4 hr 28 min 4 sec) 
 Total Blocks : 196608 Invalid Blocks : 0 Valid Blocks : 196608
 Total Tags : 491520 Threshold : 12288 Invalid Tags : 196615 Pr0 Tags : 98297 Pr1 Tags : 196608 num_pr0 : 12287
 SAE Count : 0
 Inter-Core Inteference in Data Store : 7118503
Heartbeat CPU 4 instructions: 30000003 cycles: 11803325 heartbeat IPC: 2.55237 cumulative IPC: 2.54166 (Simulation time: 4 hr 28 min 5 sec) 
 Total Blocks : 196608 Invalid Blocks : 0 Valid Blocks : 196608
 Total Tags : 491520 Threshold : 12288 Invalid Tags : 196614 Pr0 Tags : 98298 Pr1 Tags : 196608 num_pr0 : 12287
 SAE Count : 0
 Inter-Core Inteference in Data Store : 7118842
Heartbeat CPU 2 instructions: 30000003 cycles: 11803548 heartbeat IPC: 2.55224 cumulative IPC: 2.54161 (Simulation time: 4 hr 28 min 5 sec) 
 Total Blocks : 196608 Invalid Blocks : 0 Valid Blocks : 196608
 Total Tags : 491520 Threshold : 12288 Invalid Tags : 196615 Pr0 Tags : 98297 Pr1 Tags : 196608 num_pr0 : 12287
 SAE Count : 0
 Inter-Core Inteference in Data Store : 7119030
Heartbeat CPU 7 instructions: 40000000 cycles: 15677169 heartbeat IPC: 2.58069 cumulative IPC: 2.55148 (Simulation time: 6 hr 14 min 19 sec) 
 Total Blocks : 196608 Invalid Blocks : 0 Valid Blocks : 196608
 Total Tags : 491520 Threshold : 12288 Invalid Tags : 196611 Pr0 Tags : 98301 Pr1 Tags : 196608 num_pr0 : 12288
 SAE Count : 0
 Inter-Core Inteference in Data Store : 9361881
Heartbeat CPU 5 instructions: 40000000 cycles: 15677837 heartbeat IPC: 2.58045 cumulative IPC: 2.55137 (Simulation time: 6 hr 14 min 20 sec) 
 Total Blocks : 196608 Invalid Blocks : 0 Valid Blocks : 196608
 Total Tags : 491520 Threshold : 12288 Invalid Tags : 196613 Pr0 Tags : 98299 Pr1 Tags : 196608 num_pr0 : 12288
 SAE Count : 0
 Inter-Core Inteference in Data Store : 9362092
Heartbeat CPU 1 instructions: 40000000 cycles: 15678080 heartbeat IPC: 2.58039 cumulative IPC: 2.55133 (Simulation time: 6 hr 14 min 20 sec) 
 Total Blocks : 196608 Invalid Blocks : 0 Valid Blocks : 196608
 Total Tags : 491520 Threshold : 12288 Invalid Tags : 196611 Pr0 Tags : 98301 Pr1 Tags : 196608 num_pr0 : 12288
 SAE Count : 0
 Inter-Core Inteference in Data Store : 9362169
Heartbeat CPU 6 instructions: 40000000 cycles: 15678088 heartbeat IPC: 2.58058 cumulative IPC: 2.55133 (Simulation time: 6 hr 14 min 20 sec) 
 Total Blocks : 196608 Invalid Blocks : 0 Valid Blocks : 196608
 Total Tags : 491520 Threshold : 12288 Invalid Tags : 196612 Pr0 Tags : 98300 Pr1 Tags : 196608 num_pr0 : 12288
 SAE Count : 0
 Inter-Core Inteference in Data Store : 9362170
Heartbeat CPU 0 instructions: 40000000 cycles: 15678100 heartbeat IPC: 2.58039 cumulative IPC: 2.55133 (Simulation time: 6 hr 14 min 20 sec) 
 Total Blocks : 196608 Invalid Blocks : 0 Valid Blocks : 196608
 Total Tags : 491520 Threshold : 12288 Invalid Tags : 196613 Pr0 Tags : 98299 Pr1 Tags : 196608 num_pr0 : 12287
 SAE Count : 0
 Inter-Core Inteference in Data Store : 9362170
Heartbeat CPU 3 instructions: 40000000 cycles: 15678326 heartbeat IPC: 2.58035 cumulative IPC: 2.55129 (Simulation time: 6 hr 14 min 20 sec) 
 Total Blocks : 196608 Invalid Blocks : 0 Valid Blocks : 196608
 Total Tags : 491520 Threshold : 12288 Invalid Tags : 196613 Pr0 Tags : 98299 Pr1 Tags : 196608 num_pr0 : 12288
 SAE Count : 0
 Inter-Core Inteference in Data Store : 9362246
Heartbeat CPU 4 instructions: 40000000 cycles: 15679190 heartbeat IPC: 2.58007 cumulative IPC: 2.55115 (Simulation time: 6 hr 14 min 21 sec) 
 Total Blocks : 196608 Invalid Blocks : 0 Valid Blocks : 196608
 Total Tags : 491520 Threshold : 12288 Invalid Tags : 196613 Pr0 Tags : 98299 Pr1 Tags : 196608 num_pr0 : 12288
 SAE Count : 0
 Inter-Core Inteference in Data Store : 9362512
Heartbeat CPU 2 instructions: 40000000 cycles: 15679283 heartbeat IPC: 2.58015 cumulative IPC: 2.55114 (Simulation time: 6 hr 14 min 21 sec) 
 Total Blocks : 196608 Invalid Blocks : 0 Valid Blocks : 196608
 Total Tags : 491520 Threshold : 12288 Invalid Tags : 196616 Pr0 Tags : 98296 Pr1 Tags : 196608 num_pr0 : 12287
 SAE Count : 0
 Inter-Core Inteference in Data Store : 9362545
Heartbeat CPU 7 instructions: 50000002 cycles: 19516291 heartbeat IPC: 2.60476 cumulative IPC: 2.56196 (Simulation time: 8 hr 9 min 26 sec) 
 Total Blocks : 196608 Invalid Blocks : 0 Valid Blocks : 196608
 Total Tags : 491520 Threshold : 12288 Invalid Tags : 196614 Pr0 Tags : 98298 Pr1 Tags : 196608 num_pr0 : 12287
 SAE Count : 0
 Inter-Core Inteference in Data Store : 11485046
Heartbeat CPU 5 instructions: 50000002 cycles: 19516385 heartbeat IPC: 2.60515 cumulative IPC: 2.56195 (Simulation time: 8 hr 9 min 27 sec) 
 Total Blocks : 196608 Invalid Blocks : 0 Valid Blocks : 196608
 Total Tags : 491520 Threshold : 12288 Invalid Tags : 196609 Pr0 Tags : 98303 Pr1 Tags : 196608 num_pr0 : 12288
 SAE Count : 0
 Inter-Core Inteference in Data Store : 11485095
Heartbeat CPU 1 instructions: 50000002 cycles: 19516666 heartbeat IPC: 2.60513 cumulative IPC: 2.56191 (Simulation time: 8 hr 9 min 27 sec) 
 Total Blocks : 196608 Invalid Blocks : 0 Valid Blocks : 196608
 Total Tags : 491520 Threshold : 12288 Invalid Tags : 196616 Pr0 Tags : 98296 Pr1 Tags : 196608 num_pr0 : 12286
 SAE Count : 0
 Inter-Core Inteference in Data Store : 11485263
Heartbeat CPU 6 instructions: 50000002 cycles: 19517048 heartbeat IPC: 2.60487 cumulative IPC: 2.56186 (Simulation time: 8 hr 9 min 29 sec) 
 Total Blocks : 196608 Invalid Blocks : 0 Valid Blocks : 196608
 Total Tags : 491520 Threshold : 12288 Invalid Tags : 196611 Pr0 Tags : 98301 Pr1 Tags : 196608 num_pr0 : 12288
 SAE Count : 0
 Inter-Core Inteference in Data Store : 11485556
Heartbeat CPU 3 instructions: 50000002 cycles: 19517437 heartbeat IPC: 2.60477 cumulative IPC: 2.56181 (Simulation time: 8 hr 9 min 30 sec) 
 Total Blocks : 196608 Invalid Blocks : 0 Valid Blocks : 196608
 Total Tags : 491520 Threshold : 12288 Invalid Tags : 196611 Pr0 Tags : 98301 Pr1 Tags : 196608 num_pr0 : 12286
 SAE Count : 0
 Inter-Core Inteference in Data Store : 11485697
Heartbeat CPU 0 instructions: 50000002 cycles: 19517456 heartbeat IPC: 2.6046 cumulative IPC: 2.56181 (Simulation time: 8 hr 9 min 30 sec) 
 Total Blocks : 196608 Invalid Blocks : 0 Valid Blocks : 196608
 Total Tags : 491520 Threshold : 12288 Invalid Tags : 196612 Pr0 Tags : 98300 Pr1 Tags : 196608 num_pr0 : 12287
 SAE Count : 0
 Inter-Core Inteference in Data Store : 11485707
Heartbeat CPU 4 instructions: 50000002 cycles: 19518072 heartbeat IPC: 2.60493 cumulative IPC: 2.56173 (Simulation time: 8 hr 9 min 31 sec) 
 Total Blocks : 196608 Invalid Blocks : 0 Valid Blocks : 196608
 Total Tags : 491520 Threshold : 12288 Invalid Tags : 196611 Pr0 Tags : 98301 Pr1 Tags : 196608 num_pr0 : 12288
 SAE Count : 0
 Inter-Core Inteference in Data Store : 11485975
Heartbeat CPU 2 instructions: 50000002 cycles: 19518605 heartbeat IPC: 2.60463 cumulative IPC: 2.56166 (Simulation time: 8 hr 9 min 32 sec) 
 Total Blocks : 196608 Invalid Blocks : 0 Valid Blocks : 196608
 Total Tags : 491520 Threshold : 12288 Invalid Tags : 196613 Pr0 Tags : 98299 Pr1 Tags : 196608 num_pr0 : 12286
 SAE Count : 0
 Inter-Core Inteference in Data Store : 11486327
Heartbeat CPU 7 instructions: 60000001 cycles: 23322747 heartbeat IPC: 2.62712 cumulative IPC: 2.5726 (Simulation time: 10 hr 5 min 18 sec) 
 Total Blocks : 196608 Invalid Blocks : 0 Valid Blocks : 196608
 Total Tags : 491520 Threshold : 12288 Invalid Tags : 196614 Pr0 Tags : 98298 Pr1 Tags : 196608 num_pr0 : 12288
 SAE Count : 0
 Inter-Core Inteference in Data Store : 13498323
Heartbeat CPU 6 instructions: 60000001 cycles: 23322999 heartbeat IPC: 2.62746 cumulative IPC: 2.57257 (Simulation time: 10 hr 5 min 18 sec) 
 Total Blocks : 196608 Invalid Blocks : 0 Valid Blocks : 196608
 Total Tags : 491520 Threshold : 12288 Invalid Tags : 196609 Pr0 Tags : 98303 Pr1 Tags : 196608 num_pr0 : 12288
 SAE Count : 0
 Inter-Core Inteference in Data Store : 13498410
Heartbeat CPU 5 instructions: 60000001 cycles: 23323019 heartbeat IPC: 2.62699 cumulative IPC: 2.57257 (Simulation time: 10 hr 5 min 18 sec) 
 Total Blocks : 196608 Invalid Blocks : 0 Valid Blocks : 196608
 Total Tags : 491520 Threshold : 12288 Invalid Tags : 196609 Pr0 Tags : 98303 Pr1 Tags : 196608 num_pr0 : 12287
 SAE Count : 0
 Inter-Core Inteference in Data Store : 13498415
Heartbeat CPU 1 instructions: 60000001 cycles: 23323133 heartbeat IPC: 2.62711 cumulative IPC: 2.57255 (Simulation time: 10 hr 5 min 19 sec) 
 Total Blocks : 196608 Invalid Blocks : 0 Valid Blocks : 196608
 Total Tags : 491520 Threshold : 12288 Invalid Tags : 196612 Pr0 Tags : 98300 Pr1 Tags : 196608 num_pr0 : 12288
 SAE Count : 0
 Inter-Core Inteference in Data Store : 13498452
Heartbeat CPU 3 instructions: 60000001 cycles: 23323729 heartbeat IPC: 2.62723 cumulative IPC: 2.57249 (Simulation time: 10 hr 5 min 19 sec) 
 Total Blocks : 196608 Invalid Blocks : 0 Valid Blocks : 196608
 Total Tags : 491520 Threshold : 12288 Invalid Tags : 196612 Pr0 Tags : 98300 Pr1 Tags : 196608 num_pr0 : 12287
 SAE Count : 0
 Inter-Core Inteference in Data Store : 13498654
Heartbeat CPU 4 instructions: 60000001 cycles: 23323738 heartbeat IPC: 2.62766 cumulative IPC: 2.57249 (Simulation time: 10 hr 5 min 19 sec) 
 Total Blocks : 196608 Invalid Blocks : 0 Valid Blocks : 196608
 Total Tags : 491520 Threshold : 12288 Invalid Tags : 196612 Pr0 Tags : 98300 Pr1 Tags : 196608 num_pr0 : 12287
 SAE Count : 0
 Inter-Core Inteference in Data Store : 13498658
Heartbeat CPU 0 instructions: 60000001 cycles: 23324013 heartbeat IPC: 2.62705 cumulative IPC: 2.57246 (Simulation time: 10 hr 5 min 20 sec) 
 Total Blocks : 196608 Invalid Blocks : 0 Valid Blocks : 196608
 Total Tags : 491520 Threshold : 12288 Invalid Tags : 196614 Pr0 Tags : 98298 Pr1 Tags : 196608 num_pr0 : 12287
 SAE Count : 0
 Inter-Core Inteference in Data Store : 13498764
Heartbeat CPU 2 instructions: 60000001 cycles: 23324860 heartbeat IPC: 2.62725 cumulative IPC: 2.57236 (Simulation time: 10 hr 5 min 21 sec) 
 Total Blocks : 196608 Invalid Blocks : 0 Valid Blocks : 196608
 Total Tags : 491520 Threshold : 12288 Invalid Tags : 196612 Pr0 Tags : 98300 Pr1 Tags : 196608 num_pr0 : 12288
 SAE Count : 0
 Inter-Core Inteference in Data Store : 13499053
Heartbeat CPU 7 instructions: 70000000 cycles: 27096684 heartbeat IPC: 2.64975 cumulative IPC: 2.58334 (Simulation time: 12 hr 9 min 19 sec) 
 Total Blocks : 196608 Invalid Blocks : 0 Valid Blocks : 196608
 Total Tags : 491520 Threshold : 12288 Invalid Tags : 196611 Pr0 Tags : 98301 Pr1 Tags : 196608 num_pr0 : 12287
 SAE Count : 0
 Inter-Core Inteference in Data Store : 15408960
Heartbeat CPU 6 instructions: 70000000 cycles: 27097041 heartbeat IPC: 2.64968 cumulative IPC: 2.58331 (Simulation time: 12 hr 9 min 20 sec) 
 Total Blocks : 196608 Invalid Blocks : 0 Valid Blocks : 196608
 Total Tags : 491520 Threshold : 12288 Invalid Tags : 196613 Pr0 Tags : 98299 Pr1 Tags : 196608 num_pr0 : 12288
 SAE Count : 0
 Inter-Core Inteference in Data Store : 15409186
Heartbeat CPU 5 instructions: 70000000 cycles: 27097421 heartbeat IPC: 2.64943 cumulative IPC: 2.58327 (Simulation time: 12 hr 9 min 21 sec) 
 Total Blocks : 196608 Invalid Blocks : 0 Valid Blocks : 196608
 Total Tags : 491520 Threshold : 12288 Invalid Tags : 196613 Pr0 Tags : 98299 Pr1 Tags : 196608 num_pr0 : 12287
 SAE Count : 0
 Inter-Core Inteference in Data Store : 15409414
Heartbeat CPU 3 instructions: 70000000 cycles: 27097870 heartbeat IPC: 2.64961 cumulative IPC: 2.58323 (Simulation time: 12 hr 9 min 22 sec) 
 Total Blocks : 196608 Invalid Blocks : 0 Valid Blocks : 196608
 Total Tags : 491520 Threshold : 12288 Invalid Tags : 196616 Pr0 Tags : 98296 Pr1 Tags : 196608 num_pr0 : 12287
 SAE Count : 0
 Inter-Core Inteference in Data Store : 15409832
Heartbeat CPU 1 instructions: 70000000 cycles: 27098013 heartbeat IPC: 2.64909 cumulative IPC: 2.58322 (Simulation time: 12 hr 9 min 22 sec) 
 Total Blocks : 196608 Invalid Blocks : 0 Valid Blocks : 196608
 Total Tags : 491520 Threshold : 12288 Invalid Tags : 196615 Pr0 Tags : 98297 Pr1 Tags : 196608 num_pr0 : 12288
 SAE Count : 0
 Inter-Core Inteference in Data Store : 15409899
Heartbeat CPU 4 instructions: 70000000 cycles: 27098066 heartbeat IPC: 2.64948 cumulative IPC: 2.58321 (Simulation time: 12 hr 9 min 23 sec) 
 Total Blocks : 196608 Invalid Blocks : 0 Valid Blocks : 196608
 Total Tags : 491520 Threshold : 12288 Invalid Tags : 196610 Pr0 Tags : 98302 Pr1 Tags : 196608 num_pr0 : 12288
 SAE Count : 0
 Inter-Core Inteference in Data Store : 15409932
Heartbeat CPU 0 instructions: 70000000 cycles: 27098511 heartbeat IPC: 2.64936 cumulative IPC: 2.58317 (Simulation time: 12 hr 9 min 23 sec) 
 Total Blocks : 196608 Invalid Blocks : 0 Valid Blocks : 196608
 Total Tags : 491520 Threshold : 12288 Invalid Tags : 196616 Pr0 Tags : 98296 Pr1 Tags : 196608 num_pr0 : 12288
 SAE Count : 0
 Inter-Core Inteference in Data Store : 15410103
Heartbeat CPU 2 instructions: 70000000 cycles: 27099137 heartbeat IPC: 2.64951 cumulative IPC: 2.58311 (Simulation time: 12 hr 9 min 24 sec) 
 Total Blocks : 196608 Invalid Blocks : 0 Valid Blocks : 196608
 Total Tags : 491520 Threshold : 12288 Invalid Tags : 196615 Pr0 Tags : 98297 Pr1 Tags : 196608 num_pr0 : 12286
 SAE Count : 0
 Inter-Core Inteference in Data Store : 15410455
Heartbeat CPU 7 instructions: 80000003 cycles: 30808888 heartbeat IPC: 2.69382 cumulative IPC: 2.59665 (Simulation time: 14 hr 10 min 41 sec) 
 Total Blocks : 196608 Invalid Blocks : 0 Valid Blocks : 196608
 Total Tags : 491520 Threshold : 12288 Invalid Tags : 196613 Pr0 Tags : 98299 Pr1 Tags : 196608 num_pr0 : 12287
 SAE Count : 0
 Inter-Core Inteference in Data Store : 17150379
Heartbeat CPU 6 instructions: 80000003 cycles: 30809265 heartbeat IPC: 2.6938 cumulative IPC: 2.59662 (Simulation time: 14 hr 10 min 42 sec) 
 Total Blocks : 196608 Invalid Blocks : 0 Valid Blocks : 196608
 Total Tags : 491520 Threshold : 12288 Invalid Tags : 196610 Pr0 Tags : 98302 Pr1 Tags : 196608 num_pr0 : 12288
 SAE Count : 0
 Inter-Core Inteference in Data Store : 17150547
Heartbeat CPU 5 instructions: 80000003 cycles: 30809473 heartbeat IPC: 2.69393 cumulative IPC: 2.5966 (Simulation time: 14 hr 10 min 43 sec) 
 Total Blocks : 196608 Invalid Blocks : 0 Valid Blocks : 196608
 Total Tags : 491520 Threshold : 12288 Invalid Tags : 196614 Pr0 Tags : 98298 Pr1 Tags : 196608 num_pr0 : 12287
 SAE Count : 0
 Inter-Core Inteference in Data Store : 17150610
Heartbeat CPU 3 instructions: 80000003 cycles: 30810165 heartbeat IPC: 2.69375 cumulative IPC: 2.59655 (Simulation time: 14 hr 10 min 44 sec) 
 Total Blocks : 196608 Invalid Blocks : 0 Valid Blocks : 196608
 Total Tags : 491520 Threshold : 12288 Invalid Tags : 196613 Pr0 Tags : 98299 Pr1 Tags : 196608 num_pr0 : 12288
 SAE Count : 0
 Inter-Core Inteference in Data Store : 17150876
Heartbeat CPU 1 instructions: 80000003 cycles: 30810332 heartbeat IPC: 2.69373 cumulative IPC: 2.59653 (Simulation time: 14 hr 10 min 45 sec) 
 Total Blocks : 196608 Invalid Blocks : 0 Valid Blocks : 196608
 Total Tags : 491520 Threshold : 12288 Invalid Tags : 196615 Pr0 Tags : 98297 Pr1 Tags : 196608 num_pr0 : 12287
 SAE Count : 0
 Inter-Core Inteference in Data Store : 17150967
Heartbeat CPU 4 instructions: 80000003 cycles: 30810627 heartbeat IPC: 2.69356 cumulative IPC: 2.59651 (Simulation time: 14 hr 10 min 46 sec) 
 Total Blocks : 196608 Invalid Blocks : 0 Valid Blocks : 196608
 Total Tags : 491520 Threshold : 12288 Invalid Tags : 196612 Pr0 Tags : 98300 Pr1 Tags : 196608 num_pr0 : 12287
 SAE Count : 0
 Inter-Core Inteference in Data Store : 17151111
Heartbeat CPU 0 instructions: 80000003 cycles: 30810998 heartbeat IPC: 2.69361 cumulative IPC: 2.59648 (Simulation time: 14 hr 10 min 46 sec) 
 Total Blocks : 196608 Invalid Blocks : 0 Valid Blocks : 196608
 Total Tags : 491520 Threshold : 12288 Invalid Tags : 196617 Pr0 Tags : 98295 Pr1 Tags : 196608 num_pr0 : 12286
 SAE Count : 0
 Inter-Core Inteference in Data Store : 17151311
Heartbeat CPU 2 instructions: 80000003 cycles: 30811482 heartbeat IPC: 2.69372 cumulative IPC: 2.59643 (Simulation time: 14 hr 10 min 47 sec) 
 Total Blocks : 196608 Invalid Blocks : 0 Valid Blocks : 196608
 Total Tags : 491520 Threshold : 12288 Invalid Tags : 196614 Pr0 Tags : 98298 Pr1 Tags : 196608 num_pr0 : 12287
 SAE Count : 0
 Inter-Core Inteference in Data Store : 17151528
Heartbeat CPU 7 instructions: 90000002 cycles: 34522250 heartbeat IPC: 2.69298 cumulative IPC: 2.60701 (Simulation time: 16 hr 9 min 18 sec) 
 Total Blocks : 196608 Invalid Blocks : 0 Valid Blocks : 196608
 Total Tags : 491520 Threshold : 12288 Invalid Tags : 196613 Pr0 Tags : 98299 Pr1 Tags : 196608 num_pr0 : 12287
 SAE Count : 0
 Inter-Core Inteference in Data Store : 18892423
Heartbeat CPU 6 instructions: 90000002 cycles: 34522587 heartbeat IPC: 2.69301 cumulative IPC: 2.60699 (Simulation time: 16 hr 9 min 18 sec) 
 Total Blocks : 196608 Invalid Blocks : 0 Valid Blocks : 196608
 Total Tags : 491520 Threshold : 12288 Invalid Tags : 196611 Pr0 Tags : 98301 Pr1 Tags : 196608 num_pr0 : 12288
 SAE Count : 0
 Inter-Core Inteference in Data Store : 18892524
Heartbeat CPU 5 instructions: 90000002 cycles: 34522632 heartbeat IPC: 2.69312 cumulative IPC: 2.60699 (Simulation time: 16 hr 9 min 18 sec) 
 Total Blocks : 196608 Invalid Blocks : 0 Valid Blocks : 196608
 Total Tags : 491520 Threshold : 12288 Invalid Tags : 196612 Pr0 Tags : 98300 Pr1 Tags : 196608 num_pr0 : 12288
 SAE Count : 0
 Inter-Core Inteference in Data Store : 18892540
Heartbeat CPU 3 instructions: 90000002 cycles: 34523130 heartbeat IPC: 2.69327 cumulative IPC: 2.60695 (Simulation time: 16 hr 9 min 19 sec) 
 Total Blocks : 196608 Invalid Blocks : 0 Valid Blocks : 196608
 Total Tags : 491520 Threshold : 12288 Invalid Tags : 196614 Pr0 Tags : 98298 Pr1 Tags : 196608 num_pr0 : 12288
 SAE Count : 0
 Inter-Core Inteference in Data Store : 18892727
Heartbeat CPU 1 instructions: 90000002 cycles: 34523389 heartbeat IPC: 2.6932 cumulative IPC: 2.60693 (Simulation time: 16 hr 9 min 20 sec) 
 Total Blocks : 196608 Invalid Blocks : 0 Valid Blocks : 196608
 Total Tags : 491520 Threshold : 12288 Invalid Tags : 196614 Pr0 Tags : 98298 Pr1 Tags : 196608 num_pr0 : 12287
 SAE Count : 0
 Inter-Core Inteference in Data Store : 18892808
Heartbeat CPU 4 instructions: 90000002 cycles: 34523828 heartbeat IPC: 2.69309 cumulative IPC: 2.6069 (Simulation time: 16 hr 9 min 21 sec) 
 Total Blocks : 196608 Invalid Blocks : 0 Valid Blocks : 196608
 Total Tags : 491520 Threshold : 12288 Invalid Tags : 196616 Pr0 Tags : 98296 Pr1 Tags : 196608 num_pr0 : 12288
 SAE Count : 0
 Inter-Core Inteference in Data Store : 18892965
Heartbeat CPU 0 instructions: 90000002 cycles: 34524064 heartbeat IPC: 2.69319 cumulative IPC: 2.60688 (Simulation time: 16 hr 9 min 21 sec) 
 Total Blocks : 196608 Invalid Blocks : 0 Valid Blocks : 196608
 Total Tags : 491520 Threshold : 12288 Invalid Tags : 196613 Pr0 Tags : 98299 Pr1 Tags : 196608 num_pr0 : 12288
 SAE Count : 0
 Inter-Core Inteference in Data Store : 18893045
Heartbeat CPU 2 instructions: 90000002 cycles: 34524623 heartbeat IPC: 2.69314 cumulative IPC: 2.60684 (Simulation time: 16 hr 9 min 21 sec) 
 Total Blocks : 196608 Invalid Blocks : 0 Valid Blocks : 196608
 Total Tags : 491520 Threshold : 12288 Invalid Tags : 196615 Pr0 Tags : 98297 Pr1 Tags : 196608 num_pr0 : 12288
 SAE Count : 0
 Inter-Core Inteference in Data Store : 18893257
Heartbeat CPU 7 instructions: 100000001 cycles: 38196444 heartbeat IPC: 2.72169 cumulative IPC: 2.61804 (Simulation time: 18 hr 1 min 23 sec) 
 Total Blocks : 196608 Invalid Blocks : 0 Valid Blocks : 196608
 Total Tags : 491520 Threshold : 12288 Invalid Tags : 196614 Pr0 Tags : 98298 Pr1 Tags : 196608 num_pr0 : 12288
 SAE Count : 0
 Inter-Core Inteference in Data Store : 20532595
Heartbeat CPU 6 instructions: 100000001 cycles: 38196563 heartbeat IPC: 2.72185 cumulative IPC: 2.61804 (Simulation time: 18 hr 1 min 23 sec) 
 Total Blocks : 196608 Invalid Blocks : 0 Valid Blocks : 196608
 Total Tags : 491520 Threshold : 12288 Invalid Tags : 196610 Pr0 Tags : 98302 Pr1 Tags : 196608 num_pr0 : 12288
 SAE Count : 0
 Inter-Core Inteference in Data Store : 20532633
Heartbeat CPU 5 instructions: 100000001 cycles: 38197032 heartbeat IPC: 2.72153 cumulative IPC: 2.618 (Simulation time: 18 hr 1 min 24 sec) 
 Total Blocks : 196608 Invalid Blocks : 0 Valid Blocks : 196608
 Total Tags : 491520 Threshold : 12288 Invalid Tags : 196611 Pr0 Tags : 98301 Pr1 Tags : 196608 num_pr0 : 12288
 SAE Count : 0
 Inter-Core Inteference in Data Store : 20532777
Heartbeat CPU 3 instructions: 100000001 cycles: 38197039 heartbeat IPC: 2.7219 cumulative IPC: 2.618 (Simulation time: 18 hr 1 min 24 sec) 
 Total Blocks : 196608 Invalid Blocks : 0 Valid Blocks : 196608
 Total Tags : 491520 Threshold : 12288 Invalid Tags : 196611 Pr0 Tags : 98301 Pr1 Tags : 196608 num_pr0 : 12288
 SAE Count : 0
 Inter-Core Inteference in Data Store : 20532779
Heartbeat CPU 1 instructions: 100000001 cycles: 38197292 heartbeat IPC: 2.7219 cumulative IPC: 2.61799 (Simulation time: 18 hr 1 min 24 sec) 
 Total Blocks : 196608 Invalid Blocks : 0 Valid Blocks : 196608
 Total Tags : 491520 Threshold : 12288 Invalid Tags : 196612 Pr0 Tags : 98300 Pr1 Tags : 196608 num_pr0 : 12287
 SAE Count : 0
 Inter-Core Inteference in Data Store : 20532863
Heartbeat CPU 4 instructions: 100000001 cycles: 38197667 heartbeat IPC: 2.72195 cumulative IPC: 2.61796 (Simulation time: 18 hr 1 min 25 sec) 
 Total Blocks : 196608 Invalid Blocks : 0 Valid Blocks : 196608
 Total Tags : 491520 Threshold : 12288 Invalid Tags : 196615 Pr0 Tags : 98297 Pr1 Tags : 196608 num_pr0 : 12287
 SAE Count : 0
 Inter-Core Inteference in Data Store : 20532994
Heartbeat CPU 0 instructions: 100000001 cycles: 38198021 heartbeat IPC: 2.72186 cumulative IPC: 2.61794 (Simulation time: 18 hr 1 min 25 sec) 
 Total Blocks : 196608 Invalid Blocks : 0 Valid Blocks : 196608
 Total Tags : 491520 Threshold : 12288 Invalid Tags : 196610 Pr0 Tags : 98302 Pr1 Tags : 196608 num_pr0 : 12288
 SAE Count : 0
 Inter-Core Inteference in Data Store : 20533102
Heartbeat CPU 2 instructions: 100000001 cycles: 38198829 heartbeat IPC: 2.72168 cumulative IPC: 2.61788 (Simulation time: 18 hr 1 min 26 sec) 
 Total Blocks : 196608 Invalid Blocks : 0 Valid Blocks : 196608
 Total Tags : 491520 Threshold : 12288 Invalid Tags : 196612 Pr0 Tags : 98300 Pr1 Tags : 196608 num_pr0 : 12287
 SAE Count : 0
 Inter-Core Inteference in Data Store : 20533366
Heartbeat CPU 7 instructions: 110000000 cycles: 41859317 heartbeat IPC: 2.7301 cumulative IPC: 2.62785 (Simulation time: 19 hr 49 min 4 sec) 
 Total Blocks : 196608 Invalid Blocks : 0 Valid Blocks : 196608
 Total Tags : 491520 Threshold : 12288 Invalid Tags : 196610 Pr0 Tags : 98302 Pr1 Tags : 196608 num_pr0 : 12288
 SAE Count : 0
 Inter-Core Inteference in Data Store : 22134990
Heartbeat CPU 6 instructions: 110000000 cycles: 41859590 heartbeat IPC: 2.72998 cumulative IPC: 2.62783 (Simulation time: 19 hr 49 min 5 sec) 
 Total Blocks : 196608 Invalid Blocks : 0 Valid Blocks : 196608
 Total Tags : 491520 Threshold : 12288 Invalid Tags : 196612 Pr0 Tags : 98300 Pr1 Tags : 196608 num_pr0 : 12288
 SAE Count : 0
 Inter-Core Inteference in Data Store : 22135192
Heartbeat CPU 5 instructions: 110000000 cycles: 41859852 heartbeat IPC: 2.73014 cumulative IPC: 2.62782 (Simulation time: 19 hr 49 min 6 sec) 
 Total Blocks : 196608 Invalid Blocks : 0 Valid Blocks : 196608
 Total Tags : 491520 Threshold : 12288 Invalid Tags : 196613 Pr0 Tags : 98299 Pr1 Tags : 196608 num_pr0 : 12288
 SAE Count : 0
 Inter-Core Inteference in Data Store : 22135407
Heartbeat CPU 3 instructions: 110000000 cycles: 41859919 heartbeat IPC: 2.73009 cumulative IPC: 2.62781 (Simulation time: 19 hr 49 min 6 sec) 
 Total Blocks : 196608 Invalid Blocks : 0 Valid Blocks : 196608
 Total Tags : 491520 Threshold : 12288 Invalid Tags : 196613 Pr0 Tags : 98299 Pr1 Tags : 196608 num_pr0 : 12288
 SAE Count : 0
 Inter-Core Inteference in Data Store : 22135453
Heartbeat CPU 1 instructions: 110000000 cycles: 41860188 heartbeat IPC: 2.73008 cumulative IPC: 2.6278 (Simulation time: 19 hr 49 min 7 sec) 
 Total Blocks : 196608 Invalid Blocks : 0 Valid Blocks : 196608
 Total Tags : 491520 Threshold : 12288 Invalid Tags : 196612 Pr0 Tags : 98300 Pr1 Tags : 196608 num_pr0 : 12288
 SAE Count : 0
 Inter-Core Inteference in Data Store : 22135713
Heartbeat CPU 4 instructions: 110000000 cycles: 41860531 heartbeat IPC: 2.7301 cumulative IPC: 2.62777 (Simulation time: 19 hr 49 min 8 sec) 
 Total Blocks : 196608 Invalid Blocks : 0 Valid Blocks : 196608
 Total Tags : 491520 Threshold : 12288 Invalid Tags : 196612 Pr0 Tags : 98300 Pr1 Tags : 196608 num_pr0 : 12287
 SAE Count : 0
 Inter-Core Inteference in Data Store : 22136067
Heartbeat CPU 0 instructions: 110000000 cycles: 41860960 heartbeat IPC: 2.73005 cumulative IPC: 2.62775 (Simulation time: 19 hr 49 min 9 sec) 
 Total Blocks : 196608 Invalid Blocks : 0 Valid Blocks : 196608
 Total Tags : 491520 Threshold : 12288 Invalid Tags : 196612 Pr0 Tags : 98300 Pr1 Tags : 196608 num_pr0 : 12287
 SAE Count : 0
 Inter-Core Inteference in Data Store : 22136429
Heartbeat CPU 2 instructions: 110000000 cycles: 41861634 heartbeat IPC: 2.73015 cumulative IPC: 2.6277 (Simulation time: 19 hr 49 min 11 sec) 
 Total Blocks : 196608 Invalid Blocks : 0 Valid Blocks : 196608
 Total Tags : 491520 Threshold : 12288 Invalid Tags : 196610 Pr0 Tags : 98302 Pr1 Tags : 196608 num_pr0 : 12288
 SAE Count : 0
 Inter-Core Inteference in Data Store : 22136792
Heartbeat CPU 7 instructions: 120000002 cycles: 45494683 heartbeat IPC: 2.75076 cumulative IPC: 2.63767 (Simulation time: 21 hr 31 min 8 sec) 
 Total Blocks : 196608 Invalid Blocks : 0 Valid Blocks : 196608
 Total Tags : 491520 Threshold : 12288 Invalid Tags : 196616 Pr0 Tags : 98296 Pr1 Tags : 196608 num_pr0 : 12286
 SAE Count : 0
 Inter-Core Inteference in Data Store : 23666258
Heartbeat CPU 6 instructions: 120000002 cycles: 45495014 heartbeat IPC: 2.75071 cumulative IPC: 2.63765 (Simulation time: 21 hr 31 min 9 sec) 
 Total Blocks : 196608 Invalid Blocks : 0 Valid Blocks : 196608
 Total Tags : 491520 Threshold : 12288 Invalid Tags : 196617 Pr0 Tags : 98295 Pr1 Tags : 196608 num_pr0 : 12286
 SAE Count : 0
 Inter-Core Inteference in Data Store : 23666372
Heartbeat CPU 5 instructions: 120000002 cycles: 45495065 heartbeat IPC: 2.75087 cumulative IPC: 2.63765 (Simulation time: 21 hr 31 min 9 sec) 
 Total Blocks : 196608 Invalid Blocks : 0 Valid Blocks : 196608
 Total Tags : 491520 Threshold : 12288 Invalid Tags : 196615 Pr0 Tags : 98297 Pr1 Tags : 196608 num_pr0 : 12287
 SAE Count : 0
 Inter-Core Inteference in Data Store : 23666383
Heartbeat CPU 3 instructions: 120000002 cycles: 45495307 heartbeat IPC: 2.75074 cumulative IPC: 2.63763 (Simulation time: 21 hr 31 min 9 sec) 
 Total Blocks : 196608 Invalid Blocks : 0 Valid Blocks : 196608
 Total Tags : 491520 Threshold : 12288 Invalid Tags : 196614 Pr0 Tags : 98298 Pr1 Tags : 196608 num_pr0 : 12287
 SAE Count : 0
 Inter-Core Inteference in Data Store : 23666451
Heartbeat CPU 1 instructions: 120000002 cycles: 45495442 heartbeat IPC: 2.75084 cumulative IPC: 2.63763 (Simulation time: 21 hr 31 min 10 sec) 
 Total Blocks : 196608 Invalid Blocks : 0 Valid Blocks : 196608
 Total Tags : 491520 Threshold : 12288 Invalid Tags : 196613 Pr0 Tags : 98299 Pr1 Tags : 196608 num_pr0 : 12286
 SAE Count : 0
 Inter-Core Inteference in Data Store : 23666500
Heartbeat CPU 4 instructions: 120000002 cycles: 45496010 heartbeat IPC: 2.75067 cumulative IPC: 2.63759 (Simulation time: 21 hr 31 min 11 sec) 
 Total Blocks : 196608 Invalid Blocks : 0 Valid Blocks : 196608
 Total Tags : 491520 Threshold : 12288 Invalid Tags : 196612 Pr0 Tags : 98300 Pr1 Tags : 196608 num_pr0 : 12287
 SAE Count : 0
 Inter-Core Inteference in Data Store : 23666673
Heartbeat CPU 0 instructions: 120000002 cycles: 45496535 heartbeat IPC: 2.7506 cumulative IPC: 2.63756 (Simulation time: 21 hr 31 min 12 sec) 
 Total Blocks : 196608 Invalid Blocks : 0 Valid Blocks : 196608
 Total Tags : 491520 Threshold : 12288 Invalid Tags : 196611 Pr0 Tags : 98301 Pr1 Tags : 196608 num_pr0 : 12288
 SAE Count : 0
 Inter-Core Inteference in Data Store : 23666834
Heartbeat CPU 2 instructions: 120000002 cycles: 45496759 heartbeat IPC: 2.75094 cumulative IPC: 2.63755 (Simulation time: 21 hr 31 min 12 sec) 
 Total Blocks : 196608 Invalid Blocks : 0 Valid Blocks : 196608
 Total Tags : 491520 Threshold : 12288 Invalid Tags : 196613 Pr0 Tags : 98299 Pr1 Tags : 196608 num_pr0 : 12288
 SAE Count : 0
 Inter-Core Inteference in Data Store : 23666907
Heartbeat CPU 7 instructions: 130000003 cycles: 49110318 heartbeat IPC: 2.76577 cumulative IPC: 2.6471 (Simulation time: 23 hr 11 min 20 sec) 
 Total Blocks : 196608 Invalid Blocks : 0 Valid Blocks : 196608
 Total Tags : 491520 Threshold : 12288 Invalid Tags : 196616 Pr0 Tags : 98296 Pr1 Tags : 196608 num_pr0 : 12287
 SAE Count : 0
 Inter-Core Inteference in Data Store : 25135835
Heartbeat CPU 6 instructions: 130000003 cycles: 49110517 heartbeat IPC: 2.76587 cumulative IPC: 2.64709 (Simulation time: 23 hr 11 min 20 sec) 
 Total Blocks : 196608 Invalid Blocks : 0 Valid Blocks : 196608
 Total Tags : 491520 Threshold : 12288 Invalid Tags : 196616 Pr0 Tags : 98296 Pr1 Tags : 196608 num_pr0 : 12286
 SAE Count : 0
 Inter-Core Inteference in Data Store : 25135908
Heartbeat CPU 5 instructions: 130000003 cycles: 49110642 heartbeat IPC: 2.76581 cumulative IPC: 2.64708 (Simulation time: 23 hr 11 min 20 sec) 
 Total Blocks : 196608 Invalid Blocks : 0 Valid Blocks : 196608
 Total Tags : 491520 Threshold : 12288 Invalid Tags : 196611 Pr0 Tags : 98301 Pr1 Tags : 196608 num_pr0 : 12288
 SAE Count : 0
 Inter-Core Inteference in Data Store : 25135944
Heartbeat CPU 3 instructions: 130000003 cycles: 49110875 heartbeat IPC: 2.76582 cumulative IPC: 2.64707 (Simulation time: 23 hr 11 min 20 sec) 
 Total Blocks : 196608 Invalid Blocks : 0 Valid Blocks : 196608
 Total Tags : 491520 Threshold : 12288 Invalid Tags : 196616 Pr0 Tags : 98296 Pr1 Tags : 196608 num_pr0 : 12288
 SAE Count : 0
 Inter-Core Inteference in Data Store : 25136027
Heartbeat CPU 1 instructions: 130000003 cycles: 49111020 heartbeat IPC: 2.76581 cumulative IPC: 2.64706 (Simulation time: 23 hr 11 min 21 sec) 
 Total Blocks : 196608 Invalid Blocks : 0 Valid Blocks : 196608
 Total Tags : 491520 Threshold : 12288 Invalid Tags : 196612 Pr0 Tags : 98300 Pr1 Tags : 196608 num_pr0 : 12288
 SAE Count : 0
 Inter-Core Inteference in Data Store : 25136066
Heartbeat CPU 4 instructions: 130000003 cycles: 49111581 heartbeat IPC: 2.76582 cumulative IPC: 2.64703 (Simulation time: 23 hr 11 min 21 sec) 
 Total Blocks : 196608 Invalid Blocks : 0 Valid Blocks : 196608
 Total Tags : 491520 Threshold : 12288 Invalid Tags : 196614 Pr0 Tags : 98298 Pr1 Tags : 196608 num_pr0 : 12288
 SAE Count : 0
 Inter-Core Inteference in Data Store : 25136253
Heartbeat CPU 2 instructions: 130000003 cycles: 49112159 heartbeat IPC: 2.76595 cumulative IPC: 2.647 (Simulation time: 23 hr 11 min 21 sec) 
 Total Blocks : 196608 Invalid Blocks : 0 Valid Blocks : 196608
 Total Tags : 491520 Threshold : 12288 Invalid Tags : 196616 Pr0 Tags : 98296 Pr1 Tags : 196608 num_pr0 : 12287
 SAE Count : 0
 Inter-Core Inteference in Data Store : 25136439
Heartbeat CPU 0 instructions: 130000003 cycles: 49112199 heartbeat IPC: 2.76574 cumulative IPC: 2.647 (Simulation time: 23 hr 11 min 22 sec) 
 Total Blocks : 196608 Invalid Blocks : 0 Valid Blocks : 196608
 Total Tags : 491520 Threshold : 12288 Invalid Tags : 196615 Pr0 Tags : 98297 Pr1 Tags : 196608 num_pr0 : 12288
 SAE Count : 0
 Inter-Core Inteference in Data Store : 25136456
Heartbeat CPU 7 instructions: 140000003 cycles: 52720985 heartbeat IPC: 2.76957 cumulative IPC: 2.65549 (Simulation time: 24 hr 49 min 20 sec) 
 Total Blocks : 196608 Invalid Blocks : 0 Valid Blocks : 196608
 Total Tags : 491520 Threshold : 12288 Invalid Tags : 196615 Pr0 Tags : 98297 Pr1 Tags : 196608 num_pr0 : 12288
 SAE Count : 0
 Inter-Core Inteference in Data Store : 26587247
Heartbeat CPU 6 instructions: 140000003 cycles: 52721109 heartbeat IPC: 2.76963 cumulative IPC: 2.65548 (Simulation time: 24 hr 49 min 20 sec) 
 Total Blocks : 196608 Invalid Blocks : 0 Valid Blocks : 196608
 Total Tags : 491520 Threshold : 12288 Invalid Tags : 196612 Pr0 Tags : 98300 Pr1 Tags : 196608 num_pr0 : 12287
 SAE Count : 0
 Inter-Core Inteference in Data Store : 26587276
Heartbeat CPU 5 instructions: 140000003 cycles: 52721146 heartbeat IPC: 2.7697 cumulative IPC: 2.65548 (Simulation time: 24 hr 49 min 20 sec) 
 Total Blocks : 196608 Invalid Blocks : 0 Valid Blocks : 196608
 Total Tags : 491520 Threshold : 12288 Invalid Tags : 196611 Pr0 Tags : 98301 Pr1 Tags : 196608 num_pr0 : 12288
 SAE Count : 0
 Inter-Core Inteference in Data Store : 26587279
Heartbeat CPU 3 instructions: 140000003 cycles: 52721441 heartbeat IPC: 2.76965 cumulative IPC: 2.65547 (Simulation time: 24 hr 49 min 20 sec) 
 Total Blocks : 196608 Invalid Blocks : 0 Valid Blocks : 196608
 Total Tags : 491520 Threshold : 12288 Invalid Tags : 196613 Pr0 Tags : 98299 Pr1 Tags : 196608 num_pr0 : 12288
 SAE Count : 0
 Inter-Core Inteference in Data Store : 26587324
Heartbeat CPU 1 instructions: 140000003 cycles: 52721646 heartbeat IPC: 2.7696 cumulative IPC: 2.65546 (Simulation time: 24 hr 49 min 21 sec) 
 Total Blocks : 196608 Invalid Blocks : 0 Valid Blocks : 196608
 Total Tags : 491520 Threshold : 12288 Invalid Tags : 196610 Pr0 Tags : 98302 Pr1 Tags : 196608 num_pr0 : 12288
 SAE Count : 0
 Inter-Core Inteference in Data Store : 26587357
Heartbeat CPU 4 instructions: 140000003 cycles: 52722207 heartbeat IPC: 2.7696 cumulative IPC: 2.65543 (Simulation time: 24 hr 49 min 21 sec) 
 Total Blocks : 196608 Invalid Blocks : 0 Valid Blocks : 196608
 Total Tags : 491520 Threshold : 12288 Invalid Tags : 196612 Pr0 Tags : 98300 Pr1 Tags : 196608 num_pr0 : 12287
 SAE Count : 0
 Inter-Core Inteference in Data Store : 26587463
Heartbeat CPU 2 instructions: 140000003 cycles: 52722633 heartbeat IPC: 2.76972 cumulative IPC: 2.65541 (Simulation time: 24 hr 49 min 21 sec) 
 Total Blocks : 196608 Invalid Blocks : 0 Valid Blocks : 196608
 Total Tags : 491520 Threshold : 12288 Invalid Tags : 196609 Pr0 Tags : 98303 Pr1 Tags : 196608 num_pr0 : 12288
 SAE Count : 0
 Inter-Core Inteference in Data Store : 26587546
Heartbeat CPU 0 instructions: 140000003 cycles: 52722660 heartbeat IPC: 2.76973 cumulative IPC: 2.6554 (Simulation time: 24 hr 49 min 21 sec) 
 Total Blocks : 196608 Invalid Blocks : 0 Valid Blocks : 196608
 Total Tags : 491520 Threshold : 12288 Invalid Tags : 196611 Pr0 Tags : 98301 Pr1 Tags : 196608 num_pr0 : 12288
 SAE Count : 0
 Inter-Core Inteference in Data Store : 26587552
Heartbeat CPU 7 instructions: 150000002 cycles: 56308694 heartbeat IPC: 2.78729 cumulative IPC: 2.66389 (Simulation time: 26 hr 25 min 47 sec) 
 Total Blocks : 196608 Invalid Blocks : 0 Valid Blocks : 196608
 Total Tags : 491520 Threshold : 12288 Invalid Tags : 196615 Pr0 Tags : 98297 Pr1 Tags : 196608 num_pr0 : 12288
 SAE Count : 0
 Inter-Core Inteference in Data Store : 27987425
Heartbeat CPU 6 instructions: 150000002 cycles: 56308872 heartbeat IPC: 2.78725 cumulative IPC: 2.66388 (Simulation time: 26 hr 25 min 47 sec) 
 Total Blocks : 196608 Invalid Blocks : 0 Valid Blocks : 196608
 Total Tags : 491520 Threshold : 12288 Invalid Tags : 196613 Pr0 Tags : 98299 Pr1 Tags : 196608 num_pr0 : 12287
 SAE Count : 0
 Inter-Core Inteference in Data Store : 27987463
Heartbeat CPU 5 instructions: 150000002 cycles: 56308890 heartbeat IPC: 2.78727 cumulative IPC: 2.66388 (Simulation time: 26 hr 25 min 47 sec) 
 Total Blocks : 196608 Invalid Blocks : 0 Valid Blocks : 196608
 Total Tags : 491520 Threshold : 12288 Invalid Tags : 196613 Pr0 Tags : 98299 Pr1 Tags : 196608 num_pr0 : 12288
 SAE Count : 0
 Inter-Core Inteference in Data Store : 27987472
Heartbeat CPU 3 instructions: 150000002 cycles: 56309225 heartbeat IPC: 2.78724 cumulative IPC: 2.66386 (Simulation time: 26 hr 25 min 48 sec) 
 Total Blocks : 196608 Invalid Blocks : 0 Valid Blocks : 196608
 Total Tags : 491520 Threshold : 12288 Invalid Tags : 196611 Pr0 Tags : 98301 Pr1 Tags : 196608 num_pr0 : 12288
 SAE Count : 0
 Inter-Core Inteference in Data Store : 27987548
Heartbeat CPU 1 instructions: 150000002 cycles: 56309508 heartbeat IPC: 2.78717 cumulative IPC: 2.66385 (Simulation time: 26 hr 25 min 48 sec) 
 Total Blocks : 196608 Invalid Blocks : 0 Valid Blocks : 196608
 Total Tags : 491520 Threshold : 12288 Invalid Tags : 196611 Pr0 Tags : 98301 Pr1 Tags : 196608 num_pr0 : 12288
 SAE Count : 0
 Inter-Core Inteference in Data Store : 27987608
Heartbeat CPU 0 instructions: 150000002 cycles: 56310307 heartbeat IPC: 2.78734 cumulative IPC: 2.66381 (Simulation time: 26 hr 25 min 50 sec) 
 Total Blocks : 196608 Invalid Blocks : 0 Valid Blocks : 196608
 Total Tags : 491520 Threshold : 12288 Invalid Tags : 196611 Pr0 Tags : 98301 Pr1 Tags : 196608 num_pr0 : 12288
 SAE Count : 0
 Inter-Core Inteference in Data Store : 27987767
Heartbeat CPU 4 instructions: 150000002 cycles: 56310335 heartbeat IPC: 2.78697 cumulative IPC: 2.66381 (Simulation time: 26 hr 25 min 50 sec) 
 Total Blocks : 196608 Invalid Blocks : 0 Valid Blocks : 196608
 Total Tags : 491520 Threshold : 12288 Invalid Tags : 196613 Pr0 Tags : 98299 Pr1 Tags : 196608 num_pr0 : 12287
 SAE Count : 0
 Inter-Core Inteference in Data Store : 27987778
Heartbeat CPU 2 instructions: 150000002 cycles: 56310412 heartbeat IPC: 2.78724 cumulative IPC: 2.66381 (Simulation time: 26 hr 25 min 50 sec) 
 Total Blocks : 196608 Invalid Blocks : 0 Valid Blocks : 196608
 Total Tags : 491520 Threshold : 12288 Invalid Tags : 196611 Pr0 Tags : 98301 Pr1 Tags : 196608 num_pr0 : 12288
 SAE Count : 0
 Inter-Core Inteference in Data Store : 27987792
Heartbeat CPU 7 instructions: 160000002 cycles: 59877929 heartbeat IPC: 2.80172 cumulative IPC: 2.6721 (Simulation time: 27 hr 59 min 37 sec) 
 Total Blocks : 196608 Invalid Blocks : 0 Valid Blocks : 196608
 Total Tags : 491520 Threshold : 12288 Invalid Tags : 196618 Pr0 Tags : 98294 Pr1 Tags : 196608 num_pr0 : 12287
 SAE Count : 0
 Inter-Core Inteference in Data Store : 29329385
Heartbeat CPU 5 instructions: 160000002 cycles: 59878110 heartbeat IPC: 2.80173 cumulative IPC: 2.6721 (Simulation time: 27 hr 59 min 37 sec) 
 Total Blocks : 196608 Invalid Blocks : 0 Valid Blocks : 196608
 Total Tags : 491520 Threshold : 12288 Invalid Tags : 196615 Pr0 Tags : 98297 Pr1 Tags : 196608 num_pr0 : 12286
 SAE Count : 0
 Inter-Core Inteference in Data Store : 29329466
Heartbeat CPU 6 instructions: 160000002 cycles: 59878207 heartbeat IPC: 2.80164 cumulative IPC: 2.67209 (Simulation time: 27 hr 59 min 37 sec) 
 Total Blocks : 196608 Invalid Blocks : 0 Valid Blocks : 196608
 Total Tags : 491520 Threshold : 12288 Invalid Tags : 196616 Pr0 Tags : 98296 Pr1 Tags : 196608 num_pr0 : 12287
 SAE Count : 0
 Inter-Core Inteference in Data Store : 29329525
Heartbeat CPU 3 instructions: 160000002 cycles: 59878610 heartbeat IPC: 2.8016 cumulative IPC: 2.67207 (Simulation time: 27 hr 59 min 38 sec) 
 Total Blocks : 196608 Invalid Blocks : 0 Valid Blocks : 196608
 Total Tags : 491520 Threshold : 12288 Invalid Tags : 196620 Pr0 Tags : 98292 Pr1 Tags : 196608 num_pr0 : 12286
 SAE Count : 0
 Inter-Core Inteference in Data Store : 29329706
Heartbeat CPU 1 instructions: 160000002 cycles: 59879003 heartbeat IPC: 2.80152 cumulative IPC: 2.67206 (Simulation time: 27 hr 59 min 39 sec) 
 Total Blocks : 196608 Invalid Blocks : 0 Valid Blocks : 196608
 Total Tags : 491520 Threshold : 12288 Invalid Tags : 196612 Pr0 Tags : 98300 Pr1 Tags : 196608 num_pr0 : 12288
 SAE Count : 0
 Inter-Core Inteference in Data Store : 29329861
Heartbeat CPU 0 instructions: 160000002 cycles: 59879782 heartbeat IPC: 2.80153 cumulative IPC: 2.67202 (Simulation time: 27 hr 59 min 40 sec) 
 Total Blocks : 196608 Invalid Blocks : 0 Valid Blocks : 196608
 Total Tags : 491520 Threshold : 12288 Invalid Tags : 196617 Pr0 Tags : 98295 Pr1 Tags : 196608 num_pr0 : 12287
 SAE Count : 0
 Inter-Core Inteference in Data Store : 29330114
Heartbeat CPU 2 instructions: 160000002 cycles: 59879928 heartbeat IPC: 2.8015 cumulative IPC: 2.67201 (Simulation time: 27 hr 59 min 40 sec) 
 Total Blocks : 196608 Invalid Blocks : 0 Valid Blocks : 196608
 Total Tags : 491520 Threshold : 12288 Invalid Tags : 196614 Pr0 Tags : 98298 Pr1 Tags : 196608 num_pr0 : 12287
 SAE Count : 0
 Inter-Core Inteference in Data Store : 29330158
Heartbeat CPU 4 instructions: 160000002 cycles: 59880115 heartbeat IPC: 2.80129 cumulative IPC: 2.67201 (Simulation time: 27 hr 59 min 40 sec) 
 Total Blocks : 196608 Invalid Blocks : 0 Valid Blocks : 196608
 Total Tags : 491520 Threshold : 12288 Invalid Tags : 196615 Pr0 Tags : 98297 Pr1 Tags : 196608 num_pr0 : 12286
 SAE Count : 0
 Inter-Core Inteference in Data Store : 29330229
Heartbeat CPU 7 instructions: 170000000 cycles: 63443772 heartbeat IPC: 2.80439 cumulative IPC: 2.67954 (Simulation time: 29 hr 33 min 1 sec) 
 Total Blocks : 196608 Invalid Blocks : 0 Valid Blocks : 196608
 Total Tags : 491520 Threshold : 12288 Invalid Tags : 196613 Pr0 Tags : 98299 Pr1 Tags : 196608 num_pr0 : 12288
 SAE Count : 0
 Inter-Core Inteference in Data Store : 30666481
Heartbeat CPU 5 instructions: 170000000 cycles: 63443878 heartbeat IPC: 2.80444 cumulative IPC: 2.67953 (Simulation time: 29 hr 33 min 1 sec) 
 Total Blocks : 196608 Invalid Blocks : 0 Valid Blocks : 196608
 Total Tags : 491520 Threshold : 12288 Invalid Tags : 196617 Pr0 Tags : 98295 Pr1 Tags : 196608 num_pr0 : 12286
 SAE Count : 0
 Inter-Core Inteference in Data Store : 30666513
Heartbeat CPU 6 instructions: 170000000 cycles: 63444139 heartbeat IPC: 2.80432 cumulative IPC: 2.67952 (Simulation time: 29 hr 33 min 1 sec) 
 Total Blocks : 196608 Invalid Blocks : 0 Valid Blocks : 196608
 Total Tags : 491520 Threshold : 12288 Invalid Tags : 196614 Pr0 Tags : 98298 Pr1 Tags : 196608 num_pr0 : 12287
 SAE Count : 0
 Inter-Core Inteference in Data Store : 30666602
Heartbeat CPU 3 instructions: 170000000 cycles: 63444420 heartbeat IPC: 2.80441 cumulative IPC: 2.67951 (Simulation time: 29 hr 33 min 2 sec) 
 Total Blocks : 196608 Invalid Blocks : 0 Valid Blocks : 196608
 Total Tags : 491520 Threshold : 12288 Invalid Tags : 196611 Pr0 Tags : 98301 Pr1 Tags : 196608 num_pr0 : 12287
 SAE Count : 0
 Inter-Core Inteference in Data Store : 30666690
Heartbeat CPU 1 instructions: 170000000 cycles: 63444868 heartbeat IPC: 2.80437 cumulative IPC: 2.67949 (Simulation time: 29 hr 33 min 3 sec) 
 Total Blocks : 196608 Invalid Blocks : 0 Valid Blocks : 196608
 Total Tags : 491520 Threshold : 12288 Invalid Tags : 196618 Pr0 Tags : 98294 Pr1 Tags : 196608 num_pr0 : 12286
 SAE Count : 0
 Inter-Core Inteference in Data Store : 30666849
Heartbeat CPU 0 instructions: 170000000 cycles: 63445491 heartbeat IPC: 2.80449 cumulative IPC: 2.67947 (Simulation time: 29 hr 33 min 4 sec) 
 Total Blocks : 196608 Invalid Blocks : 0 Valid Blocks : 196608
 Total Tags : 491520 Threshold : 12288 Invalid Tags : 196617 Pr0 Tags : 98295 Pr1 Tags : 196608 num_pr0 : 12287
 SAE Count : 0
 Inter-Core Inteference in Data Store : 30667067
Heartbeat CPU 2 instructions: 170000000 cycles: 63445739 heartbeat IPC: 2.80441 cumulative IPC: 2.67946 (Simulation time: 29 hr 33 min 4 sec) 
 Total Blocks : 196608 Invalid Blocks : 0 Valid Blocks : 196608
 Total Tags : 491520 Threshold : 12288 Invalid Tags : 196614 Pr0 Tags : 98298 Pr1 Tags : 196608 num_pr0 : 12286
 SAE Count : 0
 Inter-Core Inteference in Data Store : 30667138
Heartbeat CPU 4 instructions: 170000000 cycles: 63446152 heartbeat IPC: 2.80423 cumulative IPC: 2.67944 (Simulation time: 29 hr 33 min 5 sec) 
 Total Blocks : 196608 Invalid Blocks : 0 Valid Blocks : 196608
 Total Tags : 491520 Threshold : 12288 Invalid Tags : 196614 Pr0 Tags : 98298 Pr1 Tags : 196608 num_pr0 : 12287
 SAE Count : 0
 Inter-Core Inteference in Data Store : 30667269
Heartbeat CPU 7 instructions: 180000002 cycles: 67008967 heartbeat IPC: 2.8049 cumulative IPC: 2.68621 (Simulation time: 31 hr 9 min 3 sec) 
 Total Blocks : 196608 Invalid Blocks : 0 Valid Blocks : 196608
 Total Tags : 491520 Threshold : 12288 Invalid Tags : 196610 Pr0 Tags : 98302 Pr1 Tags : 196608 num_pr0 : 12288
 SAE Count : 0
 Inter-Core Inteference in Data Store : 31995181
Heartbeat CPU 5 instructions: 180000002 cycles: 67008995 heartbeat IPC: 2.80496 cumulative IPC: 2.68621 (Simulation time: 31 hr 9 min 3 sec) 
 Total Blocks : 196608 Invalid Blocks : 0 Valid Blocks : 196608
 Total Tags : 491520 Threshold : 12288 Invalid Tags : 196612 Pr0 Tags : 98300 Pr1 Tags : 196608 num_pr0 : 12288
 SAE Count : 0
 Inter-Core Inteference in Data Store : 31995202
Heartbeat CPU 6 instructions: 180000002 cycles: 67009343 heartbeat IPC: 2.80489 cumulative IPC: 2.68619 (Simulation time: 31 hr 9 min 4 sec) 
 Total Blocks : 196608 Invalid Blocks : 0 Valid Blocks : 196608
 Total Tags : 491520 Threshold : 12288 Invalid Tags : 196611 Pr0 Tags : 98301 Pr1 Tags : 196608 num_pr0 : 12287
 SAE Count : 0
 Inter-Core Inteference in Data Store : 31995446
Heartbeat CPU 3 instructions: 180000002 cycles: 67009594 heartbeat IPC: 2.80491 cumulative IPC: 2.68618 (Simulation time: 31 hr 9 min 4 sec) 
 Total Blocks : 196608 Invalid Blocks : 0 Valid Blocks : 196608
 Total Tags : 491520 Threshold : 12288 Invalid Tags : 196611 Pr0 Tags : 98301 Pr1 Tags : 196608 num_pr0 : 12288
 SAE Count : 0
 Inter-Core Inteference in Data Store : 31995574
Heartbeat CPU 1 instructions: 180000002 cycles: 67010245 heartbeat IPC: 2.80475 cumulative IPC: 2.68616 (Simulation time: 31 hr 9 min 5 sec) 
 Total Blocks : 196608 Invalid Blocks : 0 Valid Blocks : 196608
 Total Tags : 491520 Threshold : 12288 Invalid Tags : 196615 Pr0 Tags : 98297 Pr1 Tags : 196608 num_pr0 : 12287
 SAE Count : 0
 Inter-Core Inteference in Data Store : 31995836
Heartbeat CPU 0 instructions: 180000002 cycles: 67010757 heartbeat IPC: 2.80484 cumulative IPC: 2.68614 (Simulation time: 31 hr 9 min 7 sec) 
 Total Blocks : 196608 Invalid Blocks : 0 Valid Blocks : 196608
 Total Tags : 491520 Threshold : 12288 Invalid Tags : 196614 Pr0 Tags : 98298 Pr1 Tags : 196608 num_pr0 : 12286
 SAE Count : 0
 Inter-Core Inteference in Data Store : 31996057
Heartbeat CPU 2 instructions: 180000002 cycles: 67010770 heartbeat IPC: 2.80503 cumulative IPC: 2.68614 (Simulation time: 31 hr 9 min 7 sec) 
 Total Blocks : 196608 Invalid Blocks : 0 Valid Blocks : 196608
 Total Tags : 491520 Threshold : 12288 Invalid Tags : 196614 Pr0 Tags : 98298 Pr1 Tags : 196608 num_pr0 : 12286
 SAE Count : 0
 Inter-Core Inteference in Data Store : 31996057
Heartbeat CPU 4 instructions: 180000002 cycles: 67011084 heartbeat IPC: 2.8051 cumulative IPC: 2.68612 (Simulation time: 31 hr 9 min 7 sec) 
 Total Blocks : 196608 Invalid Blocks : 0 Valid Blocks : 196608
 Total Tags : 491520 Threshold : 12288 Invalid Tags : 196617 Pr0 Tags : 98295 Pr1 Tags : 196608 num_pr0 : 12288
 SAE Count : 0
 Inter-Core Inteference in Data Store : 31996208
Heartbeat CPU 7 instructions: 190000003 cycles: 70559826 heartbeat IPC: 2.81622 cumulative IPC: 2.69275 (Simulation time: 56 hr 55 min 55 sec) 
 Total Blocks : 196608 Invalid Blocks : 0 Valid Blocks : 196608
 Total Tags : 491520 Threshold : 12288 Invalid Tags : 196611 Pr0 Tags : 98301 Pr1 Tags : 196608 num_pr0 : 12287
 SAE Count : 0
 Inter-Core Inteference in Data Store : 33285098
Heartbeat CPU 5 instructions: 190000003 cycles: 70559900 heartbeat IPC: 2.81618 cumulative IPC: 2.69275 (Simulation time: 56 hr 55 min 57 sec) 
 Total Blocks : 196608 Invalid Blocks : 0 Valid Blocks : 196608
 Total Tags : 491520 Threshold : 12288 Invalid Tags : 196609 Pr0 Tags : 98303 Pr1 Tags : 196608 num_pr0 : 12288
 SAE Count : 0
 Inter-Core Inteference in Data Store : 33285108
Heartbeat CPU 6 instructions: 190000003 cycles: 70560175 heartbeat IPC: 2.81624 cumulative IPC: 2.69274 (Simulation time: 56 hr 55 min 57 sec) 
 Total Blocks : 196608 Invalid Blocks : 0 Valid Blocks : 196608
 Total Tags : 491520 Threshold : 12288 Invalid Tags : 196611 Pr0 Tags : 98301 Pr1 Tags : 196608 num_pr0 : 12288
 SAE Count : 0
 Inter-Core Inteference in Data Store : 33285178
Heartbeat CPU 3 instructions: 190000003 cycles: 70560414 heartbeat IPC: 2.81625 cumulative IPC: 2.69273 (Simulation time: 56 hr 55 min 58 sec) 
 Total Blocks : 196608 Invalid Blocks : 0 Valid Blocks : 196608
 Total Tags : 491520 Threshold : 12288 Invalid Tags : 196615 Pr0 Tags : 98297 Pr1 Tags : 196608 num_pr0 : 12287
 SAE Count : 0
 Inter-Core Inteference in Data Store : 33285233
Heartbeat CPU 2 instructions: 190000003 cycles: 70561546 heartbeat IPC: 2.81629 cumulative IPC: 2.69268 (Simulation time: 56 hr 57 min 15 sec) 
 Total Blocks : 196608 Invalid Blocks : 0 Valid Blocks : 196608
 Total Tags : 491520 Threshold : 12288 Invalid Tags : 196612 Pr0 Tags : 98300 Pr1 Tags : 196608 num_pr0 : 12288
 SAE Count : 0
 Inter-Core Inteference in Data Store : 33285536
Heartbeat CPU 0 instructions: 190000001 cycles: 70561628 heartbeat IPC: 2.81621 cumulative IPC: 2.69268 (Simulation time: 56 hr 57 min 18 sec) 
 Total Blocks : 196608 Invalid Blocks : 0 Valid Blocks : 196608
 Total Tags : 491520 Threshold : 12288 Invalid Tags : 196613 Pr0 Tags : 98299 Pr1 Tags : 196608 num_pr0 : 12287
 SAE Count : 0
 Inter-Core Inteference in Data Store : 33285561
Heartbeat CPU 1 instructions: 190000003 cycles: 70561632 heartbeat IPC: 2.8158 cumulative IPC: 2.69268 (Simulation time: 56 hr 57 min 18 sec) 
 Total Blocks : 196608 Invalid Blocks : 0 Valid Blocks : 196608
 Total Tags : 491520 Threshold : 12288 Invalid Tags : 196615 Pr0 Tags : 98297 Pr1 Tags : 196608 num_pr0 : 12287
 SAE Count : 0
 Inter-Core Inteference in Data Store : 33285563
Heartbeat CPU 4 instructions: 190000003 cycles: 70561792 heartbeat IPC: 2.81634 cumulative IPC: 2.69268 (Simulation time: 56 hr 57 min 28 sec) 
 Total Blocks : 196608 Invalid Blocks : 0 Valid Blocks : 196608
 Total Tags : 491520 Threshold : 12288 Invalid Tags : 196615 Pr0 Tags : 98297 Pr1 Tags : 196608 num_pr0 : 12287
 SAE Count : 0
 Inter-Core Inteference in Data Store : 33285609
Heartbeat CPU 7 instructions: 200000000 cycles: 74105194 heartbeat IPC: 2.82058 cumulative IPC: 2.69887 (Simulation time: 73 hr 22 min 8 sec) 
 Total Blocks : 196608 Invalid Blocks : 0 Valid Blocks : 196608
 Total Tags : 491520 Threshold : 12288 Invalid Tags : 196611 Pr0 Tags : 98301 Pr1 Tags : 196608 num_pr0 : 12288
 SAE Count : 0
 Inter-Core Inteference in Data Store : 34563057
Heartbeat CPU 5 instructions: 200000001 cycles: 74105278 heartbeat IPC: 2.82057 cumulative IPC: 2.69886 (Simulation time: 73 hr 22 min 9 sec) 
 Total Blocks : 196608 Invalid Blocks : 0 Valid Blocks : 196608
 Total Tags : 491520 Threshold : 12288 Invalid Tags : 196611 Pr0 Tags : 98301 Pr1 Tags : 196608 num_pr0 : 12288
 SAE Count : 0
 Inter-Core Inteference in Data Store : 34563118
Heartbeat CPU 6 instructions: 200000001 cycles: 74105397 heartbeat IPC: 2.8207 cumulative IPC: 2.69886 (Simulation time: 73 hr 22 min 9 sec) 
 Total Blocks : 196608 Invalid Blocks : 0 Valid Blocks : 196608
 Total Tags : 491520 Threshold : 12288 Invalid Tags : 196613 Pr0 Tags : 98299 Pr1 Tags : 196608 num_pr0 : 12288
 SAE Count : 0
 Inter-Core Inteference in Data Store : 34563208
Heartbeat CPU 3 instructions: 200000000 cycles: 74105798 heartbeat IPC: 2.82057 cumulative IPC: 2.69884 (Simulation time: 73 hr 22 min 13 sec) 
 Total Blocks : 196608 Invalid Blocks : 0 Valid Blocks : 196608
 Total Tags : 491520 Threshold : 12288 Invalid Tags : 196610 Pr0 Tags : 98302 Pr1 Tags : 196608 num_pr0 : 12288
 SAE Count : 0
 Inter-Core Inteference in Data Store : 34563561
Heartbeat CPU 4 instructions: 200000001 cycles: 74106893 heartbeat IPC: 2.82079 cumulative IPC: 2.6988 (Simulation time: 73 hr 22 min 19 sec) 
 Total Blocks : 196608 Invalid Blocks : 0 Valid Blocks : 196608
 Total Tags : 491520 Threshold : 12288 Invalid Tags : 196616 Pr0 Tags : 98296 Pr1 Tags : 196608 num_pr0 : 12288
 SAE Count : 0
 Inter-Core Inteference in Data Store : 34564202
Heartbeat CPU 2 instructions: 200000001 cycles: 74106899 heartbeat IPC: 2.82059 cumulative IPC: 2.6988 (Simulation time: 73 hr 22 min 20 sec) 
 Total Blocks : 196608 Invalid Blocks : 0 Valid Blocks : 196608
 Total Tags : 491520 Threshold : 12288 Invalid Tags : 196615 Pr0 Tags : 98297 Pr1 Tags : 196608 num_pr0 : 12288
 SAE Count : 0
 Inter-Core Inteference in Data Store : 34564208
Heartbeat CPU 0 instructions: 200000001 cycles: 74106958 heartbeat IPC: 2.82061 cumulative IPC: 2.6988 (Simulation time: 73 hr 22 min 20 sec) 
 Total Blocks : 196608 Invalid Blocks : 0 Valid Blocks : 196608
 Total Tags : 491520 Threshold : 12288 Invalid Tags : 196615 Pr0 Tags : 98297 Pr1 Tags : 196608 num_pr0 : 12287
 SAE Count : 0
 Inter-Core Inteference in Data Store : 34564284
Heartbeat CPU 1 instructions: 200000001 cycles: 74107153 heartbeat IPC: 2.82046 cumulative IPC: 2.69879 (Simulation time: 73 hr 22 min 21 sec) 
 Total Blocks : 196608 Invalid Blocks : 0 Valid Blocks : 196608
 Total Tags : 491520 Threshold : 12288 Invalid Tags : 196609 Pr0 Tags : 98303 Pr1 Tags : 196608 num_pr0 : 12288
 SAE Count : 0
 Inter-Core Inteference in Data Store : 34564526

Warmup complete CPU 0 instructions: 200000278 cycles: 74107153 (Simulation time: 73 hr 22 min 21 sec) 
Warmup complete CPU 1 instructions: 200000001 cycles: 74107153 (Simulation time: 73 hr 22 min 21 sec) 
Warmup complete CPU 2 instructions: 200000345 cycles: 74107152 (Simulation time: 73 hr 22 min 21 sec) 
Warmup complete CPU 3 instructions: 200003328 cycles: 74107152 (Simulation time: 73 hr 22 min 21 sec) 
Warmup complete CPU 4 instructions: 200000372 cycles: 74107152 (Simulation time: 73 hr 22 min 21 sec) 
Warmup complete CPU 5 instructions: 200004880 cycles: 74107152 (Simulation time: 73 hr 22 min 21 sec) 
Warmup complete CPU 6 instructions: 200004602 cycles: 74107152 (Simulation time: 73 hr 22 min 21 sec) 
Warmup complete CPU 7 instructions: 200005125 cycles: 74107152 (Simulation time: 73 hr 22 min 21 sec) 

Heartbeat CPU 4 instructions: 210000003 cycles: 108791697 heartbeat IPC: 0.288311 cumulative IPC: 0.288302 (Simulation time: 84 hr 52 min 26 sec) 
 Total Blocks : 196608 Invalid Blocks : 0 Valid Blocks : 196608
 Total Tags : 491520 Threshold : 12288 Invalid Tags : 196616 Pr0 Tags : 98296 Pr1 Tags : 196608 num_pr0 : 12286
 SAE Count : 0
 Inter-Core Inteference in Data Store : 1236164
Heartbeat CPU 3 instructions: 210000002 cycles: 108818571 heartbeat IPC: 0.288078 cumulative IPC: 0.287994 (Simulation time: 84 hr 52 min 41 sec) 
 Total Blocks : 196608 Invalid Blocks : 0 Valid Blocks : 196608
 Total Tags : 491520 Threshold : 12288 Invalid Tags : 196608 Pr0 Tags : 98304 Pr1 Tags : 196608 num_pr0 : 12288
 SAE Count : 0
 Inter-Core Inteference in Data Store : 1237125
Heartbeat CPU 6 instructions: 210000003 cycles: 108821370 heartbeat IPC: 0.288052 cumulative IPC: 0.287934 (Simulation time: 84 hr 52 min 43 sec) 
 Total Blocks : 196608 Invalid Blocks : 0 Valid Blocks : 196608
 Total Tags : 491520 Threshold : 12288 Invalid Tags : 196618 Pr0 Tags : 98294 Pr1 Tags : 196608 num_pr0 : 12287
 SAE Count : 0
 Inter-Core Inteference in Data Store : 1237226
Heartbeat CPU 1 instructions: 210000003 cycles: 108824695 heartbeat IPC: 0.288039 cumulative IPC: 0.288039 (Simulation time: 84 hr 52 min 47 sec) 
 Total Blocks : 196608 Invalid Blocks : 0 Valid Blocks : 196608
 Total Tags : 491520 Threshold : 12288 Invalid Tags : 196614 Pr0 Tags : 98298 Pr1 Tags : 196608 num_pr0 : 12288
 SAE Count : 0
 Inter-Core Inteference in Data Store : 1237324
Heartbeat CPU 7 instructions: 210000002 cycles: 108847998 heartbeat IPC: 0.287829 cumulative IPC: 0.287698 (Simulation time: 84 hr 53 min 2 sec) 
 Total Blocks : 196608 Invalid Blocks : 0 Valid Blocks : 196608
 Total Tags : 491520 Threshold : 12288 Invalid Tags : 196613 Pr0 Tags : 98299 Pr1 Tags : 196608 num_pr0 : 12287
 SAE Count : 0
 Inter-Core Inteference in Data Store : 1238092
Heartbeat CPU 0 instructions: 210000003 cycles: 109063699 heartbeat IPC: 0.286068 cumulative IPC: 0.286062 (Simulation time: 84 hr 56 min 7 sec) 
 Total Blocks : 196608 Invalid Blocks : 0 Valid Blocks : 196608
 Total Tags : 491520 Threshold : 12288 Invalid Tags : 196619 Pr0 Tags : 98293 Pr1 Tags : 196608 num_pr0 : 12287
 SAE Count : 0
 Inter-Core Inteference in Data Store : 1245852
Heartbeat CPU 2 instructions: 210000003 cycles: 109268753 heartbeat IPC: 0.284399 cumulative IPC: 0.284391 (Simulation time: 84 hr 58 min 52 sec) 
 Total Blocks : 196608 Invalid Blocks : 0 Valid Blocks : 196608
 Total Tags : 491520 Threshold : 12288 Invalid Tags : 196610 Pr0 Tags : 98302 Pr1 Tags : 196608 num_pr0 : 12288
 SAE Count : 0
 Inter-Core Inteference in Data Store : 1253240
Heartbeat CPU 5 instructions: 210000002 cycles: 109421170 heartbeat IPC: 0.283159 cumulative IPC: 0.283036 (Simulation time: 85 hr 0 min 54 sec) 
 Total Blocks : 196608 Invalid Blocks : 0 Valid Blocks : 196608
 Total Tags : 491520 Threshold : 12288 Invalid Tags : 196612 Pr0 Tags : 98300 Pr1 Tags : 196608 num_pr0 : 12288
 SAE Count : 0
 Inter-Core Inteference in Data Store : 1258667
Heartbeat CPU 1 instructions: 220000000 cycles: 144054498 heartbeat IPC: 0.28385 cumulative IPC: 0.285929 (Simulation time: 91 hr 30 min 25 sec) 
 Total Blocks : 196608 Invalid Blocks : 0 Valid Blocks : 196608
 Total Tags : 491520 Threshold : 12288 Invalid Tags : 196612 Pr0 Tags : 98300 Pr1 Tags : 196608 num_pr0 : 12287
 SAE Count : 0
 Inter-Core Inteference in Data Store : 2459309
Heartbeat CPU 4 instructions: 220000000 cycles: 144072506 heartbeat IPC: 0.28344 cumulative IPC: 0.28585 (Simulation time: 91 hr 30 min 35 sec) 
 Total Blocks : 196608 Invalid Blocks : 0 Valid Blocks : 196608
 Total Tags : 491520 Threshold : 12288 Invalid Tags : 196613 Pr0 Tags : 98299 Pr1 Tags : 196608 num_pr0 : 12288
 SAE Count : 0
 Inter-Core Inteference in Data Store : 2459921
Heartbeat CPU 7 instructions: 220000000 cycles: 144177803 heartbeat IPC: 0.283047 cumulative IPC: 0.285353 (Simulation time: 91 hr 31 min 36 sec) 
 Total Blocks : 196608 Invalid Blocks : 0 Valid Blocks : 196608
 Total Tags : 491520 Threshold : 12288 Invalid Tags : 196614 Pr0 Tags : 98298 Pr1 Tags : 196608 num_pr0 : 12287
 SAE Count : 0
 Inter-Core Inteference in Data Store : 2463533
Heartbeat CPU 6 instructions: 220000000 cycles: 144276971 heartbeat IPC: 0.282043 cumulative IPC: 0.284957 (Simulation time: 91 hr 32 min 27 sec) 
 Total Blocks : 196608 Invalid Blocks : 0 Valid Blocks : 196608
 Total Tags : 491520 Threshold : 12288 Invalid Tags : 196611 Pr0 Tags : 98301 Pr1 Tags : 196608 num_pr0 : 12288
 SAE Count : 0
 Inter-Core Inteference in Data Store : 2467088
Heartbeat CPU 3 instructions: 220000000 cycles: 144763584 heartbeat IPC: 0.278203 cumulative IPC: 0.283013 (Simulation time: 91 hr 37 min 27 sec) 
 Total Blocks : 196608 Invalid Blocks : 0 Valid Blocks : 196608
 Total Tags : 491520 Threshold : 12288 Invalid Tags : 196614 Pr0 Tags : 98298 Pr1 Tags : 196608 num_pr0 : 12287
 SAE Count : 0
 Inter-Core Inteference in Data Store : 2483989
Heartbeat CPU 0 instructions: 220000000 cycles: 144952073 heartbeat IPC: 0.278642 cumulative IPC: 0.282303 (Simulation time: 91 hr 39 min 20 sec) 
 Total Blocks : 196608 Invalid Blocks : 0 Valid Blocks : 196608
 Total Tags : 491520 Threshold : 12288 Invalid Tags : 196615 Pr0 Tags : 98297 Pr1 Tags : 196608 num_pr0 : 12288
 SAE Count : 0
 Inter-Core Inteference in Data Store : 2490397
Heartbeat CPU 2 instructions: 220000000 cycles: 145069615 heartbeat IPC: 0.279323 cumulative IPC: 0.281834 (Simulation time: 91 hr 40 min 35 sec) 
 Total Blocks : 196608 Invalid Blocks : 0 Valid Blocks : 196608
 Total Tags : 491520 Threshold : 12288 Invalid Tags : 196613 Pr0 Tags : 98299 Pr1 Tags : 196608 num_pr0 : 12287
 SAE Count : 0
 Inter-Core Inteference in Data Store : 2494410
Heartbeat CPU 5 instructions: 220000000 cycles: 145347123 heartbeat IPC: 0.27835 cumulative IPC: 0.280673 (Simulation time: 91 hr 43 min 3 sec) 
 Total Blocks : 196608 Invalid Blocks : 0 Valid Blocks : 196608
 Total Tags : 491520 Threshold : 12288 Invalid Tags : 196609 Pr0 Tags : 98303 Pr1 Tags : 196608 num_pr0 : 12288
 SAE Count : 0
 Inter-Core Inteference in Data Store : 2504114
Heartbeat CPU 7 instructions: 230000001 cycles: 179249921 heartbeat IPC: 0.285127 cumulative IPC: 0.285278 (Simulation time: 96 hr 43 min 55 sec) 
 Total Blocks : 196608 Invalid Blocks : 0 Valid Blocks : 196608
 Total Tags : 491520 Threshold : 12288 Invalid Tags : 196611 Pr0 Tags : 98301 Pr1 Tags : 196608 num_pr0 : 12287
 SAE Count : 0
 Inter-Core Inteference in Data Store : 3659199
Heartbeat CPU 4 instructions: 230000001 cycles: 179281172 heartbeat IPC: 0.284021 cumulative IPC: 0.285238 (Simulation time: 96 hr 44 min 9 sec) 
 Total Blocks : 196608 Invalid Blocks : 0 Valid Blocks : 196608
 Total Tags : 491520 Threshold : 12288 Invalid Tags : 196614 Pr0 Tags : 98298 Pr1 Tags : 196608 num_pr0 : 12286
 SAE Count : 0
 Inter-Core Inteference in Data Store : 3660310
Heartbeat CPU 1 instructions: 230000001 cycles: 179399541 heartbeat IPC: 0.282925 cumulative IPC: 0.284921 (Simulation time: 96 hr 45 min 3 sec) 
 Total Blocks : 196608 Invalid Blocks : 0 Valid Blocks : 196608
 Total Tags : 491520 Threshold : 12288 Invalid Tags : 196615 Pr0 Tags : 98297 Pr1 Tags : 196608 num_pr0 : 12286
 SAE Count : 0
 Inter-Core Inteference in Data Store : 3664388
Heartbeat CPU 6 instructions: 230000001 cycles: 179445396 heartbeat IPC: 0.284346 cumulative IPC: 0.284753 (Simulation time: 96 hr 45 min 28 sec) 
 Total Blocks : 196608 Invalid Blocks : 0 Valid Blocks : 196608
 Total Tags : 491520 Threshold : 12288 Invalid Tags : 196620 Pr0 Tags : 98292 Pr1 Tags : 196608 num_pr0 : 12286
 SAE Count : 0
 Inter-Core Inteference in Data Store : 3666010
Heartbeat CPU 3 instructions: 230000001 cycles: 180208611 heartbeat IPC: 0.282127 cumulative IPC: 0.282717 (Simulation time: 96 hr 51 min 38 sec) 
 Total Blocks : 196608 Invalid Blocks : 0 Valid Blocks : 196608
 Total Tags : 491520 Threshold : 12288 Invalid Tags : 196612 Pr0 Tags : 98300 Pr1 Tags : 196608 num_pr0 : 12287
 SAE Count : 0
 Inter-Core Inteference in Data Store : 3691417
Heartbeat CPU 0 instructions: 230000001 cycles: 180341660 heartbeat IPC: 0.282569 cumulative IPC: 0.282392 (Simulation time: 96 hr 52 min 37 sec) 
 Total Blocks : 196608 Invalid Blocks : 0 Valid Blocks : 196608
 Total Tags : 491520 Threshold : 12288 Invalid Tags : 196615 Pr0 Tags : 98297 Pr1 Tags : 196608 num_pr0 : 12288
 SAE Count : 0
 Inter-Core Inteference in Data Store : 3695933
Heartbeat CPU 2 instructions: 230000001 cycles: 180431237 heartbeat IPC: 0.282792 cumulative IPC: 0.282153 (Simulation time: 96 hr 53 min 15 sec) 
 Total Blocks : 196608 Invalid Blocks : 0 Valid Blocks : 196608
 Total Tags : 491520 Threshold : 12288 Invalid Tags : 196612 Pr0 Tags : 98300 Pr1 Tags : 196608 num_pr0 : 12288
 SAE Count : 0
 Inter-Core Inteference in Data Store : 3698898
Heartbeat CPU 5 instructions: 230000001 cycles: 180925430 heartbeat IPC: 0.28107 cumulative IPC: 0.280805 (Simulation time: 96 hr 57 min 23 sec) 
 Total Blocks : 196608 Invalid Blocks : 0 Valid Blocks : 196608
 Total Tags : 491520 Threshold : 12288 Invalid Tags : 196613 Pr0 Tags : 98299 Pr1 Tags : 196608 num_pr0 : 12288
 SAE Count : 0
 Inter-Core Inteference in Data Store : 3716189
Heartbeat CPU 7 instructions: 240000000 cycles: 214967083 heartbeat IPC: 0.279977 cumulative IPC: 0.283934 (Simulation time: 101 hr 29 min 7 sec) 
 Total Blocks : 196608 Invalid Blocks : 0 Valid Blocks : 196608
 Total Tags : 491520 Threshold : 12288 Invalid Tags : 196616 Pr0 Tags : 98296 Pr1 Tags : 196608 num_pr0 : 12287
 SAE Count : 0
 Inter-Core Inteference in Data Store : 4862776
Heartbeat CPU 4 instructions: 240000000 cycles: 214978227 heartbeat IPC: 0.280135 cumulative IPC: 0.283945 (Simulation time: 101 hr 29 min 14 sec) 
 Total Blocks : 196608 Invalid Blocks : 0 Valid Blocks : 196608
 Total Tags : 491520 Threshold : 12288 Invalid Tags : 196609 Pr0 Tags : 98303 Pr1 Tags : 196608 num_pr0 : 12288
 SAE Count : 0
 Inter-Core Inteference in Data Store : 4863146
Heartbeat CPU 6 instructions: 240000001 cycles: 215056058 heartbeat IPC: 0.280815 cumulative IPC: 0.283758 (Simulation time: 101 hr 29 min 48 sec) 
 Total Blocks : 196608 Invalid Blocks : 0 Valid Blocks : 196608
 Total Tags : 491520 Threshold : 12288 Invalid Tags : 196613 Pr0 Tags : 98299 Pr1 Tags : 196608 num_pr0 : 12288
 SAE Count : 0
 Inter-Core Inteference in Data Store : 4865749
Heartbeat CPU 1 instructions: 240000001 cycles: 215247894 heartbeat IPC: 0.278953 cumulative IPC: 0.283405 (Simulation time: 101 hr 31 min 13 sec) 
 Total Blocks : 196608 Invalid Blocks : 0 Valid Blocks : 196608
 Total Tags : 491520 Threshold : 12288 Invalid Tags : 196615 Pr0 Tags : 98297 Pr1 Tags : 196608 num_pr0 : 12288
 SAE Count : 0
 Inter-Core Inteference in Data Store : 4872172
Heartbeat CPU 3 instructions: 240000000 cycles: 216124640 heartbeat IPC: 0.278427 cumulative IPC: 0.281632 (Simulation time: 101 hr 37 min 56 sec) 
 Total Blocks : 196608 Invalid Blocks : 0 Valid Blocks : 196608
 Total Tags : 491520 Threshold : 12288 Invalid Tags : 196610 Pr0 Tags : 98302 Pr1 Tags : 196608 num_pr0 : 12288
 SAE Count : 0
 Inter-Core Inteference in Data Store : 4901617
Heartbeat CPU 0 instructions: 240000000 cycles: 216185417 heartbeat IPC: 0.278989 cumulative IPC: 0.281533 (Simulation time: 101 hr 38 min 23 sec) 
 Total Blocks : 196608 Invalid Blocks : 0 Valid Blocks : 196608
 Total Tags : 491520 Threshold : 12288 Invalid Tags : 196613 Pr0 Tags : 98299 Pr1 Tags : 196608 num_pr0 : 12286
 SAE Count : 0
 Inter-Core Inteference in Data Store : 4903730
Heartbeat CPU 2 instructions: 240000000 cycles: 216471717 heartbeat IPC: 0.277466 cumulative IPC: 0.280966 (Simulation time: 101 hr 41 min 4 sec) 
 Total Blocks : 196608 Invalid Blocks : 0 Valid Blocks : 196608
 Total Tags : 491520 Threshold : 12288 Invalid Tags : 196614 Pr0 Tags : 98298 Pr1 Tags : 196608 num_pr0 : 12287
 SAE Count : 0
 Inter-Core Inteference in Data Store : 4913246
Heartbeat CPU 5 instructions: 240000000 cycles: 217156063 heartbeat IPC: 0.27601 cumulative IPC: 0.279591 (Simulation time: 101 hr 46 min 19 sec) 
 Total Blocks : 196608 Invalid Blocks : 0 Valid Blocks : 196608
 Total Tags : 491520 Threshold : 12288 Invalid Tags : 196610 Pr0 Tags : 98302 Pr1 Tags : 196608 num_pr0 : 12287
 SAE Count : 0
 Inter-Core Inteference in Data Store : 4936237
Heartbeat CPU 4 instructions: 250000000 cycles: 250711164 heartbeat IPC: 0.279854 cumulative IPC: 0.283117 (Simulation time: 105 hr 57 min 16 sec) 
 Total Blocks : 196608 Invalid Blocks : 0 Valid Blocks : 196608
 Total Tags : 491520 Threshold : 12288 Invalid Tags : 196609 Pr0 Tags : 98303 Pr1 Tags : 196608 num_pr0 : 12288
 SAE Count : 0
 Inter-Core Inteference in Data Store : 6057639
Heartbeat CPU 7 instructions: 250000003 cycles: 250798371 heartbeat IPC: 0.279086 cumulative IPC: 0.282951 (Simulation time: 105 hr 57 min 51 sec) 
 Total Blocks : 196608 Invalid Blocks : 0 Valid Blocks : 196608
 Total Tags : 491520 Threshold : 12288 Invalid Tags : 196612 Pr0 Tags : 98300 Pr1 Tags : 196608 num_pr0 : 12288
 SAE Count : 0
 Inter-Core Inteference in Data Store : 6060631
Heartbeat CPU 6 instructions: 250000001 cycles: 250912703 heartbeat IPC: 0.278888 cumulative IPC: 0.282771 (Simulation time: 105 hr 58 min 59 sec) 
 Total Blocks : 196608 Invalid Blocks : 0 Valid Blocks : 196608
 Total Tags : 491520 Threshold : 12288 Invalid Tags : 196614 Pr0 Tags : 98298 Pr1 Tags : 196608 num_pr0 : 12287
 SAE Count : 0
 Inter-Core Inteference in Data Store : 6064242
Heartbeat CPU 1 instructions: 250000000 cycles: 251111439 heartbeat IPC: 0.278835 cumulative IPC: 0.282479 (Simulation time: 106 hr 0 min 29 sec) 
 Total Blocks : 196608 Invalid Blocks : 0 Valid Blocks : 196608
 Total Tags : 491520 Threshold : 12288 Invalid Tags : 196612 Pr0 Tags : 98300 Pr1 Tags : 196608 num_pr0 : 12287
 SAE Count : 0
 Inter-Core Inteference in Data Store : 6070755
Heartbeat CPU 3 instructions: 250000001 cycles: 252041048 heartbeat IPC: 0.278424 cumulative IPC: 0.280985 (Simulation time: 106 hr 7 min 6 sec) 
 Total Blocks : 196608 Invalid Blocks : 0 Valid Blocks : 196608
 Total Tags : 491520 Threshold : 12288 Invalid Tags : 196610 Pr0 Tags : 98302 Pr1 Tags : 196608 num_pr0 : 12288
 SAE Count : 0
 Inter-Core Inteference in Data Store : 6102290
Heartbeat CPU 0 instructions: 250000003 cycles: 252092824 heartbeat IPC: 0.278494 cumulative IPC: 0.28092 (Simulation time: 106 hr 7 min 32 sec) 
 Total Blocks : 196608 Invalid Blocks : 0 Valid Blocks : 196608
 Total Tags : 491520 Threshold : 12288 Invalid Tags : 196613 Pr0 Tags : 98299 Pr1 Tags : 196608 num_pr0 : 12288
 SAE Count : 0
 Inter-Core Inteference in Data Store : 6103893
[...]

LLC3 Set Associative Eviction Count : 0
LLC3 Priority 0 entries : 12288
LLC3 Inter-Core Interference : 2955260
LLC4 TOTAL     ACCESS: 1128632  HIT: 159629  MISS: 969003  HIT %: 14.1436  MISS %: 85.8564  AVERAGE MISS PENALTY: 1237.91
LLC4 LOAD      ACCESS:  5407  HIT:     0  MISS:  5407  HIT %:     0  MISS %:   100  AVERAGE MISS PENALTY: 1753.99
LLC4 RFO       ACCESS: 495762  HIT: 82648  MISS: 413114  HIT %: 16.6709  MISS %: 83.3291  AVERAGE MISS PENALTY: 2280.75
LLC4 PREFETCH  ACCESS: 131576  HIT:    47  MISS: 131529  HIT %: 0.0357208  MISS %: 99.9643  AVERAGE MISS PENALTY: 1884.35
LLC4 WRITEBACK ACCESS: 495887  HIT: 76934  MISS: 418953  HIT %: 15.5144  MISS %: 84.4856  AVERAGE MISS PENALTY: 0
LLC4 PREFETCH  REQUESTED:     0  ISSUED:     0  USEFUL:     0  USELESS:   288
 USEFUL LOAD PREFETCHES:          0 PREFETCH ISSUED TO LOWER LEVEL:  176423501  ACCURACY: 0
 TIMELY PREFETCHES:          0 LATE PREFETCHES: 0 DROPPED PREFETCHES: 0
LLC4 AVERAGE MISS LATENCY: 1237.91 cycles

LLC4 Set Associative Eviction Count : 0
LLC4 Priority 0 entries : 12287
LLC4 Inter-Core Interference : 2956122
LLC5 TOTAL     ACCESS: 1128272  HIT: 159130  MISS: 969142  HIT %: 14.1039  MISS %: 85.8961  AVERAGE MISS PENALTY: 1235.72
LLC5 LOAD      ACCESS:  6059  HIT:     0  MISS:  6059  HIT %:     0  MISS %:   100  AVERAGE MISS PENALTY: 1704.7
LLC5 RFO       ACCESS: 495572  HIT: 82516  MISS: 413056  HIT %: 16.6507  MISS %: 83.3493  AVERAGE MISS PENALTY: 2275.32
LLC5 PREFETCH  ACCESS: 130927  HIT:    42  MISS: 130885  HIT %: 0.0320789  MISS %: 99.9679  AVERAGE MISS PENALTY: 1890.38
LLC5 WRITEBACK ACCESS: 495714  HIT: 76572  MISS: 419142  HIT %: 15.4468  MISS %: 84.5532  AVERAGE MISS PENALTY: 0
LLC5 PREFETCH  REQUESTED:     0  ISSUED:     0  USEFUL:     0  USELESS:   245
 USEFUL LOAD PREFETCHES:          0 PREFETCH ISSUED TO LOWER LEVEL:  178632842  ACCURACY: 0
 TIMELY PREFETCHES:          0 LATE PREFETCHES: 0 DROPPED PREFETCHES: 0
LLC5 AVERAGE MISS LATENCY: 1235.72 cycles

LLC5 Set Associative Eviction Count : 0
LLC5 Priority 0 entries : 12288
LLC5 Inter-Core Interference : 2956300
LLC6 TOTAL     ACCESS: 1128349  HIT: 159343  MISS: 969006  HIT %: 14.1218  MISS %: 85.8782  AVERAGE MISS PENALTY: 1226.82
LLC6 LOAD      ACCESS:  5365  HIT:     0  MISS:  5365  HIT %:     0  MISS %:   100  AVERAGE MISS PENALTY: 1732.72
LLC6 RFO       ACCESS: 495585  HIT: 82515  MISS: 413070  HIT %: 16.65  MISS %: 83.35  AVERAGE MISS PENALTY: 2231.21
LLC6 PREFETCH  ACCESS: 131688  HIT:    54  MISS: 131634  HIT %: 0.041006  MISS %: 99.959  AVERAGE MISS PENALTY: 1958.88
LLC6 WRITEBACK ACCESS: 495711  HIT: 76774  MISS: 418937  HIT %: 15.4877  MISS %: 84.5123  AVERAGE MISS PENALTY: 0
LLC6 PREFETCH  REQUESTED:     0  ISSUED:     0  USEFUL:     0  USELESS:   343
 USEFUL LOAD PREFETCHES:          0 PREFETCH ISSUED TO LOWER LEVEL:  215614960  ACCURACY: 0
 TIMELY PREFETCHES:          0 LATE PREFETCHES: 0 DROPPED PREFETCHES: 0
LLC6 AVERAGE MISS LATENCY: 1226.82 cycles

LLC6 Set Associative Eviction Count : 0
LLC6 Priority 0 entries : 12287
LLC6 Inter-Core Interference : 2955629
LLC7 TOTAL     ACCESS: 1128447  HIT: 159467  MISS: 968980  HIT %: 14.1315  MISS %: 85.8685  AVERAGE MISS PENALTY: 1223.66
LLC7 LOAD      ACCESS:  4923  HIT:     0  MISS:  4923  HIT %:     0  MISS %:   100  AVERAGE MISS PENALTY: 1804.81
LLC7 RFO       ACCESS: 495632  HIT: 82518  MISS: 413114  HIT %: 16.649  MISS %: 83.351  AVERAGE MISS PENALTY: 2226.98
LLC7 PREFETCH  ACCESS: 132125  HIT:    70  MISS: 132055  HIT %: 0.0529801  MISS %: 99.947  AVERAGE MISS PENALTY: 1944.79
LLC7 WRITEBACK ACCESS: 495767  HIT: 76879  MISS: 418888  HIT %: 15.5071  MISS %: 84.4929  AVERAGE MISS PENALTY: 0
LLC7 PREFETCH  REQUESTED:     0  ISSUED:     0  USEFUL:     0  USELESS:   328
 USEFUL LOAD PREFETCHES:          0 PREFETCH ISSUED TO LOWER LEVEL:  219934214  ACCURACY: 0
 TIMELY PREFETCHES:          0 LATE PREFETCHES: 0 DROPPED PREFETCHES: 0
LLC7 AVERAGE MISS LATENCY: 1223.66 cycles

LLC7 Set Associative Eviction Count : 0
LLC7 Priority 0 entries : 12288
LLC7 Inter-Core Interference : 2954422
ROI Average ROB Stall Cycles:	52.5122
ROI Total ROB Stalls Cycles:	642996387
ROI TOTAL ROB counter      :	12244711
ROI Average Load ROB Stall Cycles:	403.144
ROI Total Load ROB Stalls Cycle  :	589124988
ROI Total Load ROB stalls Counter:	1461327
Major fault: 0 Minor fault: 86924

CPU 7 cumulative IPC: 0.286363 instructions: 200000002 cycles: 698415058
ITLB TOTAL     ACCESS: 33044052  HIT: 33044052  MISS:     0  HIT %:   100  MISS %:     0  AVERAGE MISS PENALTY: 0
ITLB LOAD      ACCESS: 33044052  HIT: 33044052  MISS:     0  HIT %:   100  MISS %:     0  AVERAGE MISS PENALTY: 0
ITLB RFO       ACCESS:     0  HIT:     0  MISS:     0  HIT %:     0  MISS %:     0  AVERAGE MISS PENALTY: 0
ITLB PREFETCH  ACCESS:     0  HIT:     0  MISS:     0  HIT %:     0  MISS %:     0  AVERAGE MISS PENALTY: 0
ITLB WRITEBACK ACCESS:     0  HIT:     0  MISS:     0  HIT %:     0  MISS %:     0  AVERAGE MISS PENALTY: 0
ITLB PREFETCH  REQUESTED:     0  ISSUED:     0  USEFUL:     0  USELESS:     0
 USEFUL LOAD PREFETCHES:          0 PREFETCH ISSUED TO LOWER LEVEL:          0  ACCURACY: -nan
 TIMELY PREFETCHES:          0 LATE PREFETCHES: 0 DROPPED PREFETCHES: 0
ITLB AVERAGE MISS LATENCY: -nan cycles

ITLB Set Associative Eviction Count : 0
ITLB Priority 0 entries : 0
ITLB Inter-Core Interference : 0
DTLB TOTAL     ACCESS: 32593223  HIT: 32467109  MISS: 126114  HIT %: 99.6131  MISS %: 0.386933  AVERAGE MISS PENALTY: 87.7285
DTLB LOAD      ACCESS: 18414282  HIT: 18397170  MISS: 17112  HIT %: 99.9071  MISS %: 0.0929279  AVERAGE MISS PENALTY: 109
DTLB RFO       ACCESS: 14178941  HIT: 14069939  MISS: 109002  HIT %: 99.2312  MISS %: 0.76876  AVERAGE MISS PENALTY: 84.3891
DTLB PREFETCH  ACCESS:     0  HIT:     0  MISS:     0  HIT %:     0  MISS %:     0  AVERAGE MISS PENALTY: 0
DTLB WRITEBACK ACCESS:     0  HIT:     0  MISS:     0  HIT %:     0  MISS %:     0  AVERAGE MISS PENALTY: 0
DTLB PREFETCH  REQUESTED:     0  ISSUED:     0  USEFUL:     0  USELESS:     0
 USEFUL LOAD PREFETCHES:          0 PREFETCH ISSUED TO LOWER LEVEL:          0  ACCURACY: -nan
 TIMELY PREFETCHES:          0 LATE PREFETCHES: 0 DROPPED PREFETCHES: 0
DTLB AVERAGE MISS LATENCY: 87.7285 cycles

DTLB Set Associative Eviction Count : 0
DTLB Priority 0 entries : 0
DTLB Inter-Core Interference : 0
STLB TOTAL     ACCESS: 126114  HIT: 57687  MISS: 68427  HIT %: 45.7419  MISS %: 54.2581  AVERAGE MISS PENALTY: 100
STLB LOAD      ACCESS: 17112  HIT:     0  MISS: 17112  HIT %:     0  MISS %:   100  AVERAGE MISS PENALTY: 100
STLB RFO       ACCESS: 109002  HIT: 57687  MISS: 51315  HIT %: 52.9229  MISS %: 47.0771  AVERAGE MISS PENALTY: 100
STLB PREFETCH  ACCESS:     0  HIT:     0  MISS:     0  HIT %:     0  MISS %:     0  AVERAGE MISS PENALTY: 0
STLB WRITEBACK ACCESS:     0  HIT:     0  MISS:     0  HIT %:     0  MISS %:     0  AVERAGE MISS PENALTY: 0
STLB PREFETCH  REQUESTED:     0  ISSUED:     0  USEFUL:     0  USELESS:     0
 USEFUL LOAD PREFETCHES:          0 PREFETCH ISSUED TO LOWER LEVEL:          0  ACCURACY: -nan
 TIMELY PREFETCHES:          0 LATE PREFETCHES: 0 DROPPED PREFETCHES: 0
STLB AVERAGE MISS LATENCY: 100 cycles

STLB Set Associative Eviction Count : 0
STLB Priority 0 entries : 0
STLB Inter-Core Interference : 0
L1D TOTAL     ACCESS: 51517813  HIT: 44291378  MISS: 7226435  HIT %: 85.9729  MISS %: 14.0271  AVERAGE MISS PENALTY: 2.09723e+07
L1D LOAD      ACCESS: 16555588  HIT: 16022558  MISS: 533030  HIT %: 96.7804  MISS %: 3.21964  AVERAGE MISS PENALTY: 2.84311e+08
L1D RFO       ACCESS: 28196007  HIT: 22066761  MISS: 6129246  HIT %: 78.262  MISS %: 21.738  AVERAGE MISS PENALTY: 1280.84
L1D PREFETCH  ACCESS: 6766218  HIT: 6202059  MISS: 564159  HIT %: 91.6621  MISS %: 8.33788  AVERAGE MISS PENALTY: 872.343
L1D WRITEBACK ACCESS:     0  HIT:     0  MISS:     0  HIT %:     0  MISS %:     0  AVERAGE MISS PENALTY: 0
L1D PREFETCH  REQUESTED: 20474679  ISSUED: 18165316  USEFUL: 561506  USELESS:  2652
 USEFUL LOAD PREFETCHES:     561506 PREFETCH ISSUED TO LOWER LEVEL:  692358158  ACCURACY: 0.0811005
 TIMELY PREFETCHES:     561506 LATE PREFETCHES: 729360 DROPPED PREFETCHES: 2309363
L1D AVERAGE MISS LATENCY: 1240.77 cycles

L1D Set Associative Eviction Count : 0
L1D Priority 0 entries : 0
L1D Inter-Core Interference : 0
L1I TOTAL     ACCESS: 43808851  HIT: 43808851  MISS:     0  HIT %:   100  MISS %:     0  AVERAGE MISS PENALTY: 0
L1I LOAD      ACCESS: 43808851  HIT: 43808851  MISS:     0  HIT %:   100  MISS %:     0  AVERAGE MISS PENALTY: 0
L1I RFO       ACCESS:     0  HIT:     0  MISS:     0  HIT %:     0  MISS %:     0  AVERAGE MISS PENALTY: 0
L1I PREFETCH  ACCESS:     0  HIT:     0  MISS:     0  HIT %:     0  MISS %:     0  AVERAGE MISS PENALTY: 0
L1I WRITEBACK ACCESS:     0  HIT:     0  MISS:     0  HIT %:     0  MISS %:     0  AVERAGE MISS PENALTY: 0
L1I PREFETCH  REQUESTED:     0  ISSUED:     0  USEFUL:     0  USELESS:     0
 USEFUL LOAD PREFETCHES:          0 PREFETCH ISSUED TO LOWER LEVEL:          0  ACCURACY: -nan
 TIMELY PREFETCHES:          0 LATE PREFETCHES: 0 DROPPED PREFETCHES: 0
L1I AVERAGE MISS LATENCY: -nan cycles

L1I Set Associative Eviction Count : 0
L1I Priority 0 entries : 0
L1I Inter-Core Interference : 0
L2C TOTAL     ACCESS: 13717577  HIT: 8288377  MISS: 5429200  HIT %: 60.4216  MISS %: 39.5784  AVERAGE MISS PENALTY: 3.10755e+07
L2C LOAD      ACCESS: 527982  HIT: 62433  MISS: 465549  HIT %: 11.8248  MISS %: 88.1752  AVERAGE MISS PENALTY: 3.62382e+08
L2C RFO       ACCESS: 6129246  HIT: 2151260  MISS: 3977986  HIT %: 35.0983  MISS %: 64.9017  AVERAGE MISS PENALTY: 1949.14
L2C PREFETCH  ACCESS: 931096  HIT: 301333  MISS: 629763  HIT %: 32.3633  MISS %: 67.6367  AVERAGE MISS PENALTY: 1556.36
L2C WRITEBACK ACCESS: 6129253  HIT: 5773351  MISS: 355902  HIT %: 94.1934  MISS %: 5.80661  AVERAGE MISS PENALTY: 0
L2C PREFETCH  REQUESTED: 1824705  ISSUED: 1824696  USEFUL: 62433  USELESS: 568476
 USEFUL LOAD PREFETCHES:      62433 PREFETCH ISSUED TO LOWER LEVEL:    1919107  ACCURACY: 3.25323
 TIMELY PREFETCHES:      62433 LATE PREFETCHES: 582530 DROPPED PREFETCHES: 9
L2C AVERAGE MISS LATENCY: 1715.45 cycles

L2C Set Associative Eviction Count : 0
L2C Priority 0 entries : 0
L2C Inter-Core Interference : 0
LLC0 TOTAL     ACCESS: 1131002  HIT: 162420  MISS: 968582  HIT %: 14.3607  MISS %: 85.6393  AVERAGE MISS PENALTY: 1233.98
LLC0 LOAD      ACCESS: 20697  HIT:     0  MISS: 20697  HIT %:     0  MISS %:   100  AVERAGE MISS PENALTY: 1752.8
LLC0 RFO       ACCESS: 497036  HIT: 83882  MISS: 413154  HIT %: 16.8764  MISS %: 83.1236  AVERAGE MISS PENALTY: 2273.62
LLC0 PREFETCH  ACCESS: 116116  HIT:     0  MISS: 116116  HIT %:     0  MISS %:   100  AVERAGE MISS PENALTY: 1891.05
LLC0 WRITEBACK ACCESS: 497153  HIT: 78538  MISS: 418615  HIT %: 15.7976  MISS %: 84.2024  AVERAGE MISS PENALTY: 0
LLC0 PREFETCH  REQUESTED:     0  ISSUED:     0  USEFUL:     0  USELESS:     0
 USEFUL LOAD PREFETCHES:          0 PREFETCH ISSUED TO LOWER LEVEL:  139211559  ACCURACY: 0
 TIMELY PREFETCHES:          0 LATE PREFETCHES: 0 DROPPED PREFETCHES: 0
LLC0 AVERAGE MISS LATENCY: 1233.98 cycles

LLC0 Set Associative Eviction Count : 0
LLC0 Priority 0 entries : 12287
LLC0 Inter-Core Interference : 2955374
LLC1 TOTAL     ACCESS: 1131275  HIT: 162608  MISS: 968667  HIT %: 14.3739  MISS %: 85.6261  AVERAGE MISS PENALTY: 1236.19
LLC1 LOAD      ACCESS: 13338  HIT:     0  MISS: 13338  HIT %:     0  MISS %:   100  AVERAGE MISS PENALTY: 1733.46
LLC1 RFO       ACCESS: 497159  HIT: 83982  MISS: 413177  HIT %: 16.8924  MISS %: 83.1076  AVERAGE MISS PENALTY: 2276.39
LLC1 PREFETCH  ACCESS: 123485  HIT:     0  MISS: 123485  HIT %:     0  MISS %:   100  AVERAGE MISS PENALTY: 1893.25
LLC1 WRITEBACK ACCESS: 497293  HIT: 78626  MISS: 418667  HIT %: 15.8108  MISS %: 84.1892  AVERAGE MISS PENALTY: 0
LLC1 PREFETCH  REQUESTED:     0  ISSUED:     0  USEFUL:     0  USELESS:     0
 USEFUL LOAD PREFETCHES:          0 PREFETCH ISSUED TO LOWER LEVEL:  145915241  ACCURACY: 0
 TIMELY PREFETCHES:          0 LATE PREFETCHES: 0 DROPPED PREFETCHES: 0
LLC1 AVERAGE MISS LATENCY: 1236.19 cycles

LLC1 Set Associative Eviction Count : 0
LLC1 Priority 0 entries : 12288
LLC1 Inter-Core Interference : 2955435
LLC2 TOTAL     ACCESS: 1131169  HIT: 162374  MISS: 968795  HIT %: 14.3545  MISS %: 85.6455  AVERAGE MISS PENALTY: 1220.01
LLC2 LOAD      ACCESS:  7884  HIT:     0  MISS:  7884  HIT %:     0  MISS %:   100  AVERAGE MISS PENALTY: 1735.07
LLC2 RFO       ACCESS: 497100  HIT: 83858  MISS: 413242  HIT %: 16.8694  MISS %: 83.1306  AVERAGE MISS PENALTY: 2219.46
LLC2 PREFETCH  ACCESS: 128939  HIT:     0  MISS: 128939  HIT %:     0  MISS %:   100  AVERAGE MISS PENALTY: 1947.29
LLC2 WRITEBACK ACCESS: 497246  HIT: 78516  MISS: 418730  HIT %: 15.7902  MISS %: 84.2098  AVERAGE MISS PENALTY: 0
LLC2 PREFETCH  REQUESTED:     0  ISSUED:     0  USEFUL:     0  USELESS:     0
 USEFUL LOAD PREFETCHES:          0 PREFETCH ISSUED TO LOWER LEVEL:  164982727  ACCURACY: 0
 TIMELY PREFETCHES:          0 LATE PREFETCHES: 0 DROPPED PREFETCHES: 0
LLC2 AVERAGE MISS LATENCY: 1220.01 cycles

LLC2 Set Associative Eviction Count : 0
LLC2 Priority 0 entries : 12287
LLC2 Inter-Core Interference : 2955907
LLC3 TOTAL     ACCESS: 1131085  HIT: 162270  MISS: 968815  HIT %: 14.3464  MISS %: 85.6536  AVERAGE MISS PENALTY: 1221.16
LLC3 LOAD      ACCESS:  7834  HIT:     0  MISS:  7834  HIT %:     0  MISS %:   100  AVERAGE MISS PENALTY: 1771.03
LLC3 RFO       ACCESS: 497065  HIT: 83853  MISS: 413212  HIT %: 16.8696  MISS %: 83.1304  AVERAGE MISS PENALTY: 2225.21
LLC3 PREFETCH  ACCESS: 128990  HIT:     0  MISS: 128990  HIT %:     0  MISS %:   100  AVERAGE MISS PENALTY: 1935.95
LLC3 WRITEBACK ACCESS: 497196  HIT: 78417  MISS: 418779  HIT %: 15.7718  MISS %: 84.2282  AVERAGE MISS PENALTY: 0
LLC3 PREFETCH  REQUESTED:     0  ISSUED:     0  USEFUL:     0  USELESS:     0
 USEFUL LOAD PREFETCHES:          0 PREFETCH ISSUED TO LOWER LEVEL:  165785904  ACCURACY: 0
 TIMELY PREFETCHES:          0 LATE PREFETCHES: 0 DROPPED PREFETCHES: 0
LLC3 AVERAGE MISS LATENCY: 1221.16 cycles

LLC3 Set Associative Eviction Count : 0
LLC3 Priority 0 entries : 12288
LLC3 Inter-Core Interference : 2955260
LLC4 TOTAL     ACCESS: 1131839  HIT: 163049  MISS: 968790  HIT %: 14.4057  MISS %: 85.5943  AVERAGE MISS PENALTY: 1241.36
LLC4 LOAD      ACCESS:  5495  HIT:     0  MISS:  5495  HIT %:     0  MISS %:   100  AVERAGE MISS PENALTY: 1721.44
LLC4 RFO       ACCESS: 497367  HIT: 84268  MISS: 413099  HIT %: 16.9428  MISS %: 83.0572  AVERAGE MISS PENALTY: 2286.41
LLC4 PREFETCH  ACCESS: 131493  HIT:    58  MISS: 131435  HIT %: 0.0441088  MISS %: 99.9559  AVERAGE MISS PENALTY: 1891.76
LLC4 WRITEBACK ACCESS: 497484  HIT: 78723  MISS: 418761  HIT %: 15.8242  MISS %: 84.1758  AVERAGE MISS PENALTY: 0
LLC4 PREFETCH  REQUESTED:     0  ISSUED:     0  USEFUL:     0  USELESS:   288
 USEFUL LOAD PREFETCHES:          0 PREFETCH ISSUED TO LOWER LEVEL:  176423501  ACCURACY: 0
 TIMELY PREFETCHES:          0 LATE PREFETCHES: 0 DROPPED PREFETCHES: 0
LLC4 AVERAGE MISS LATENCY: 1241.36 cycles

LLC4 Set Associative Eviction Count : 0
LLC4 Priority 0 entries : 12287
LLC4 Inter-Core Interference : 2956122
LLC5 TOTAL     ACCESS: 1131461  HIT: 162691  MISS: 968770  HIT %: 14.3788  MISS %: 85.6212  AVERAGE MISS PENALTY: 1238.9
LLC5 LOAD      ACCESS:  5922  HIT:     0  MISS:  5922  HIT %:     0  MISS %:   100  AVERAGE MISS PENALTY: 1699.66
LLC5 RFO       ACCESS: 497171  HIT: 84013  MISS: 413158  HIT %: 16.8982  MISS %: 83.1018  AVERAGE MISS PENALTY: 2281.94
LLC5 PREFETCH  ACCESS: 131076  HIT:    59  MISS: 131017  HIT %: 0.0450121  MISS %: 99.955  AVERAGE MISS PENALTY: 1887.85
LLC5 WRITEBACK ACCESS: 497292  HIT: 78619  MISS: 418673  HIT %: 15.8094  MISS %: 84.1906  AVERAGE MISS PENALTY: 0
LLC5 PREFETCH  REQUESTED:     0  ISSUED:     0  USEFUL:     0  USELESS:   245
 USEFUL LOAD PREFETCHES:          0 PREFETCH ISSUED TO LOWER LEVEL:  178632842  ACCURACY: 0
 TIMELY PREFETCHES:          0 LATE PREFETCHES: 0 DROPPED PREFETCHES: 0
LLC5 AVERAGE MISS LATENCY: 1238.9 cycles

LLC5 Set Associative Eviction Count : 0
LLC5 Priority 0 entries : 12288
LLC5 Inter-Core Interference : 2956300
LLC6 TOTAL     ACCESS: 1131563  HIT: 162850  MISS: 968713  HIT %: 14.3916  MISS %: 85.6084  AVERAGE MISS PENALTY: 1227.04
LLC6 LOAD      ACCESS:  5445  HIT:     0  MISS:  5445  HIT %:     0  MISS %:   100  AVERAGE MISS PENALTY: 1785.88
LLC6 RFO       ACCESS: 497213  HIT: 84097  MISS: 413116  HIT %: 16.9137  MISS %: 83.0863  AVERAGE MISS PENALTY: 2230.7
LLC6 PREFETCH  ACCESS: 131581  HIT:    60  MISS: 131521  HIT %: 0.0455993  MISS %: 99.9544  AVERAGE MISS PENALTY: 1957.05
LLC6 WRITEBACK ACCESS: 497324  HIT: 78693  MISS: 418631  HIT %: 15.8233  MISS %: 84.1767  AVERAGE MISS PENALTY: 0
LLC6 PREFETCH  REQUESTED:     0  ISSUED:     0  USEFUL:     0  USELESS:   343
 USEFUL LOAD PREFETCHES:          0 PREFETCH ISSUED TO LOWER LEVEL:  215614960  ACCURACY: 0
 TIMELY PREFETCHES:          0 LATE PREFETCHES: 0 DROPPED PREFETCHES: 0
LLC6 AVERAGE MISS LATENCY: 1227.04 cycles

LLC6 Set Associative Eviction Count : 0
LLC6 Priority 0 entries : 12287
LLC6 Inter-Core Interference : 2955629
LLC7 TOTAL     ACCESS: 1131391  HIT: 162603  MISS: 968788  HIT %: 14.372  MISS %: 85.628  AVERAGE MISS PENALTY: 1226.08
LLC7 LOAD      ACCESS:  5132  HIT:     0  MISS:  5132  HIT %:     0  MISS %:   100  AVERAGE MISS PENALTY: 1792.31
LLC7 RFO       ACCESS: 497129  HIT: 84007  MISS: 413122  HIT %: 16.8984  MISS %: 83.1016  AVERAGE MISS PENALTY: 2232.19
LLC7 PREFETCH  ACCESS: 131885  HIT:    56  MISS: 131829  HIT %: 0.0424612  MISS %: 99.9575  AVERAGE MISS PENALTY: 1945.29
LLC7 WRITEBACK ACCESS: 497245  HIT: 78540  MISS: 418705  HIT %: 15.795  MISS %: 84.205  AVERAGE MISS PENALTY: 0
LLC7 PREFETCH  REQUESTED:     0  ISSUED:     0  USEFUL:     0  USELESS:   328
 USEFUL LOAD PREFETCHES:          0 PREFETCH ISSUED TO LOWER LEVEL:  219934214  ACCURACY: 0
 TIMELY PREFETCHES:          0 LATE PREFETCHES: 0 DROPPED PREFETCHES: 0
LLC7 AVERAGE MISS LATENCY: 1226.08 cycles

LLC7 Set Associative Eviction Count : 0
LLC7 Priority 0 entries : 12288
LLC7 Inter-Core Interference : 2954422
ROI Average ROB Stall Cycles:	52.6441
ROI Total ROB Stalls Cycles:	644350205
ROI TOTAL ROB counter      :	12239745
ROI Average Load ROB Stall Cycles:	404.378
ROI Total Load ROB Stalls Cycle  :	590353533
ROI Total Load ROB stalls Counter:	1459906
Major fault: 0 Minor fault: 86853








Interconnect Stats 
LINK 0 BW : 0LINK 1 BW : 0LINK 2 BW : 0LINK 3 BW : 0LINK 4 BW : 0LINK 5 BW : 0LINK 6 BW : 0LINK 7 BW : 0
DRAM Statistics
 CHANNEL 0
 RQ ROW_BUFFER_HIT: 6995424  ROW_BUFFER_MISS: 10642174
 DBUS_CONGESTED: 36896826
 WQ ROW_BUFFER_HIT: 270884  ROW_BUFFER_MISS: 13233095  FULL: 363209

 CHANNEL 1
 RQ ROW_BUFFER_HIT: 6996812  ROW_BUFFER_MISS: 10640347
 DBUS_CONGESTED: 36896826
 WQ ROW_BUFFER_HIT: 270359  ROW_BUFFER_MISS: 13233526  FULL: 358801

 AVG_CONGESTED_CYCLE: 6
DRAM PAGES: 2097152
Allocated PAGES: 694347
L2C destructor called
L1D destructor called
L1I destructor called
STLB destructor called
DTLB destructor called
ITLB destructor called
L2C destructor called
L1D destructor called
L1I destructor called
STLB destructor called
DTLB destructor called
ITLB destructor called
L2C destructor called
L1D destructor called
L1I destructor called
STLB destructor called
DTLB destructor called
ITLB destructor called
L2C destructor called
L1D destructor called
L1I destructor called
STLB destructor called
DTLB destructor called
ITLB destructor called
L2C destructor called
L1D destructor called
L1I destructor called
STLB destructor called
DTLB destructor called
ITLB destructor called
L2C destructor called
L1D destructor called
L1I destructor called
STLB destructor called
DTLB destructor called
ITLB destructor called
L2C destructor called
L1D destructor called
L1I destructor called
STLB destructor called
DTLB destructor called
ITLB destructor called
L2C destructor called
L1D destructor called
L1I destructor called
STLB destructor called
DTLB destructor called
ITLB destructor called
