
*** ChampSim Multicore Out-of-Order Simulator ***

Warmup Instructions: 200000000
Simulation Instructions: 200000000
Number of CPUs: 8
threads:1

L1I Configuration:
L1I_SET:64
L1I_WAY:8
L1I_RQ_SIZE:64
L1I_WQ_SIZE:64
L1I_PQ_SIZE:8
L1I_MSHR_SIZE:8

L1D Configuration:
L1D_SET:64
L1D_WAY:12
L1D_RQ_SIZE:64
L1D_WQ_SIZE:64
L1D_PQ_SIZE:8
L1D_MSHR_SIZE:16

L2C Configuration:
L2C_SET:1024
L2C_WAY:8
L2C_RQ_SIZE:32
L2C_WQ_SIZE:32
L2C_PQ_SIZE:16
L2C_MSHR_SIZE:32

LLC Configuration:
LLC_SET:2048
LLC_WAY:12
LLC SLICES:8
LLC_RQ_SIZE:64
LLC_WQ_SIZE:64
LLC_PQ_SIZE:32
LLC_MSHR_SIZE:64

Interconnect OFF
Attacker deprioritize is: OFF
Off-chip DRAM Size: 8192 MB Channels: 2 Width: 64-bit Data Rate: 3200 MT/s
PAGE SIZE in KB: 4.000000 
PAGE SIZE in MB: 0.003906 
PAGE offset in bits: 12 
CEASER-S_LLC:0
MIRAGE : 1
CEASER_LATENCY:3
REMAP : OFF
Partitions : 1
Multi-Step : OFF
BFS : OFF

CPU 0 runs /home/anubhav/spec_2017/619.lbm_s-4268B.champsimtrace.xz
CPU 1 runs /home/anubhav/spec_2017/619.lbm_s-4268B.champsimtrace.xz
CPU 2 runs /home/anubhav/spec_2017/619.lbm_s-4268B.champsimtrace.xz
CPU 3 runs /home/anubhav/spec_2017/619.lbm_s-4268B.champsimtrace.xz
CPU 4 runs /home/anubhav/spec_2017/619.lbm_s-4268B.champsimtrace.xz
CPU 5 runs /home/anubhav/spec_2017/619.lbm_s-4268B.champsimtrace.xz
CPU 6 runs /home/anubhav/spec_2017/619.lbm_s-4268B.champsimtrace.xz
CPU 7 runs /home/anubhav/spec_2017/619.lbm_s-4268B.champsimtrace.xz
CPU 0 Bimodal branch predictor
Initialize Hawkeye state
Initialize Hawkeye state
Initialize Hawkeye state
Initialize Hawkeye state
Initialize Hawkeye state
Initialize Hawkeye state
Initialize Hawkeye state
Initialize Hawkeye state
CPU 1 Bimodal branch predictor
Initialize Hawkeye state
Initialize Hawkeye state
Initialize Hawkeye state
Initialize Hawkeye state
Initialize Hawkeye state
Initialize Hawkeye state
Initialize Hawkeye state
Initialize Hawkeye state
CPU 2 Bimodal branch predictor
Initialize Hawkeye state
Initialize Hawkeye state
Initialize Hawkeye state
Initialize Hawkeye state
Initialize Hawkeye state
Initialize Hawkeye state
Initialize Hawkeye state
Initialize Hawkeye state
CPU 3 Bimodal branch predictor
Initialize Hawkeye state
Initialize Hawkeye state
Initialize Hawkeye state
Initialize Hawkeye state
Initialize Hawkeye state
Initialize Hawkeye state
Initialize Hawkeye state
Initialize Hawkeye state
CPU 4 Bimodal branch predictor
Initialize Hawkeye state
Initialize Hawkeye state
Initialize Hawkeye state
Initialize Hawkeye state
Initialize Hawkeye state
Initialize Hawkeye state
Initialize Hawkeye state
Initialize Hawkeye state
CPU 5 Bimodal branch predictor
Initialize Hawkeye state
Initialize Hawkeye state
Initialize Hawkeye state
Initialize Hawkeye state
Initialize Hawkeye state
Initialize Hawkeye state
Initialize Hawkeye state
Initialize Hawkeye state
CPU 6 Bimodal branch predictor
Initialize Hawkeye state
Initialize Hawkeye state
Initialize Hawkeye state
Initialize Hawkeye state
Initialize Hawkeye state
Initialize Hawkeye state
Initialize Hawkeye state
Initialize Hawkeye state
CPU 7 Bimodal branch predictor
Initialize Hawkeye state
Initialize Hawkeye state
Initialize Hawkeye state
Initialize Hawkeye state
Initialize Hawkeye state
Initialize Hawkeye state
Initialize Hawkeye state
Initialize Hawkeye state
FILL
Heartbeat CPU 7 instructions: 10000001 cycles: 3994270 heartbeat IPC: 2.50359 cumulative IPC: 2.50359 (Simulation time: 1 hr 28 min 17 sec) 
 Total Blocks : 196608 Invalid Blocks : 0 Valid Blocks : 196608
 Total Tags : 491520 Threshold : 12288 Invalid Tags : 196614 Pr0 Tags : 98298 Pr1 Tags : 196608 num_pr0 : 12288
 SAE Count : 0
 Inter-Core Inteference in Data Store : 2435275
Heartbeat CPU 4 instructions: 10000001 cycles: 3994305 heartbeat IPC: 2.50356 cumulative IPC: 2.50356 (Simulation time: 1 hr 28 min 17 sec) 
 Total Blocks : 196608 Invalid Blocks : 0 Valid Blocks : 196608
 Total Tags : 491520 Threshold : 12288 Invalid Tags : 196611 Pr0 Tags : 98301 Pr1 Tags : 196608 num_pr0 : 12288
 SAE Count : 0
 Inter-Core Inteference in Data Store : 2435290
Heartbeat CPU 3 instructions: 10000001 cycles: 3994319 heartbeat IPC: 2.50356 cumulative IPC: 2.50356 (Simulation time: 1 hr 28 min 17 sec) 
 Total Blocks : 196608 Invalid Blocks : 0 Valid Blocks : 196608
 Total Tags : 491520 Threshold : 12288 Invalid Tags : 196612 Pr0 Tags : 98300 Pr1 Tags : 196608 num_pr0 : 12288
 SAE Count : 0
 Inter-Core Inteference in Data Store : 2435295
Heartbeat CPU 6 instructions: 10000001 cycles: 3994425 heartbeat IPC: 2.50349 cumulative IPC: 2.50349 (Simulation time: 1 hr 28 min 18 sec) 
 Total Blocks : 196608 Invalid Blocks : 0 Valid Blocks : 196608
 Total Tags : 491520 Threshold : 12288 Invalid Tags : 196612 Pr0 Tags : 98300 Pr1 Tags : 196608 num_pr0 : 12287
 SAE Count : 0
 Inter-Core Inteference in Data Store : 2435318
Heartbeat CPU 2 instructions: 10000001 cycles: 3994438 heartbeat IPC: 2.50348 cumulative IPC: 2.50348 (Simulation time: 1 hr 28 min 18 sec) 
 Total Blocks : 196608 Invalid Blocks : 0 Valid Blocks : 196608
 Total Tags : 491520 Threshold : 12288 Invalid Tags : 196611 Pr0 Tags : 98301 Pr1 Tags : 196608 num_pr0 : 12287
 SAE Count : 0
 Inter-Core Inteference in Data Store : 2435325
Heartbeat CPU 1 instructions: 10000001 cycles: 3994448 heartbeat IPC: 2.50348 cumulative IPC: 2.50348 (Simulation time: 1 hr 28 min 18 sec) 
 Total Blocks : 196608 Invalid Blocks : 0 Valid Blocks : 196608
 Total Tags : 491520 Threshold : 12288 Invalid Tags : 196612 Pr0 Tags : 98300 Pr1 Tags : 196608 num_pr0 : 12288
 SAE Count : 0
 Inter-Core Inteference in Data Store : 2435330
Heartbeat CPU 0 instructions: 10000001 cycles: 3994474 heartbeat IPC: 2.50346 cumulative IPC: 2.50346 (Simulation time: 1 hr 28 min 18 sec) 
 Total Blocks : 196608 Invalid Blocks : 0 Valid Blocks : 196608
 Total Tags : 491520 Threshold : 12288 Invalid Tags : 196609 Pr0 Tags : 98303 Pr1 Tags : 196608 num_pr0 : 12288
 SAE Count : 0
 Inter-Core Inteference in Data Store : 2435341
Heartbeat CPU 5 instructions: 10000001 cycles: 3994497 heartbeat IPC: 2.50344 cumulative IPC: 2.50344 (Simulation time: 1 hr 28 min 18 sec) 
 Total Blocks : 196608 Invalid Blocks : 0 Valid Blocks : 196608
 Total Tags : 491520 Threshold : 12288 Invalid Tags : 196612 Pr0 Tags : 98300 Pr1 Tags : 196608 num_pr0 : 12288
 SAE Count : 0
 Inter-Core Inteference in Data Store : 2435349
Heartbeat CPU 4 instructions: 20000000 cycles: 7982599 heartbeat IPC: 2.50734 cumulative IPC: 2.50545 (Simulation time: 3 hr 1 min 10 sec) 
 Total Blocks : 196608 Invalid Blocks : 0 Valid Blocks : 196608
 Total Tags : 491520 Threshold : 12288 Invalid Tags : 196613 Pr0 Tags : 98299 Pr1 Tags : 196608 num_pr0 : 12287
 SAE Count : 0
 Inter-Core Inteference in Data Store : 5022287
Heartbeat CPU 5 instructions: 20000000 cycles: 7982626 heartbeat IPC: 2.50744 cumulative IPC: 2.50544 (Simulation time: 3 hr 1 min 10 sec) 
 Total Blocks : 196608 Invalid Blocks : 0 Valid Blocks : 196608
 Total Tags : 491520 Threshold : 12288 Invalid Tags : 196609 Pr0 Tags : 98303 Pr1 Tags : 196608 num_pr0 : 12288
 SAE Count : 0
 Inter-Core Inteference in Data Store : 5022295
Heartbeat CPU 3 instructions: 20000000 cycles: 7982693 heartbeat IPC: 2.50729 cumulative IPC: 2.50542 (Simulation time: 3 hr 1 min 10 sec) 
 Total Blocks : 196608 Invalid Blocks : 0 Valid Blocks : 196608
 Total Tags : 491520 Threshold : 12288 Invalid Tags : 196613 Pr0 Tags : 98299 Pr1 Tags : 196608 num_pr0 : 12288
 SAE Count : 0
 Inter-Core Inteference in Data Store : 5022336
Heartbeat CPU 6 instructions: 20000000 cycles: 7982698 heartbeat IPC: 2.50735 cumulative IPC: 2.50542 (Simulation time: 3 hr 1 min 11 sec) 
 Total Blocks : 196608 Invalid Blocks : 0 Valid Blocks : 196608
 Total Tags : 491520 Threshold : 12288 Invalid Tags : 196614 Pr0 Tags : 98298 Pr1 Tags : 196608 num_pr0 : 12288
 SAE Count : 0
 Inter-Core Inteference in Data Store : 5022339
Heartbeat CPU 7 instructions: 20000000 cycles: 7982831 heartbeat IPC: 2.50717 cumulative IPC: 2.50538 (Simulation time: 3 hr 1 min 11 sec) 
 Total Blocks : 196608 Invalid Blocks : 0 Valid Blocks : 196608
 Total Tags : 491520 Threshold : 12288 Invalid Tags : 196614 Pr0 Tags : 98298 Pr1 Tags : 196608 num_pr0 : 12288
 SAE Count : 0
 Inter-Core Inteference in Data Store : 5022431
Heartbeat CPU 2 instructions: 20000000 cycles: 7982885 heartbeat IPC: 2.50724 cumulative IPC: 2.50536 (Simulation time: 3 hr 1 min 11 sec) 
 Total Blocks : 196608 Invalid Blocks : 0 Valid Blocks : 196608
 Total Tags : 491520 Threshold : 12288 Invalid Tags : 196616 Pr0 Tags : 98296 Pr1 Tags : 196608 num_pr0 : 12288
 SAE Count : 0
 Inter-Core Inteference in Data Store : 5022466
Heartbeat CPU 1 instructions: 20000000 cycles: 7983146 heartbeat IPC: 2.50708 cumulative IPC: 2.50528 (Simulation time: 3 hr 1 min 11 sec) 
 Total Blocks : 196608 Invalid Blocks : 0 Valid Blocks : 196608
 Total Tags : 491520 Threshold : 12288 Invalid Tags : 196614 Pr0 Tags : 98298 Pr1 Tags : 196608 num_pr0 : 12287
 SAE Count : 0
 Inter-Core Inteference in Data Store : 5022578
Heartbeat CPU 0 instructions: 20000000 cycles: 7983365 heartbeat IPC: 2.50696 cumulative IPC: 2.50521 (Simulation time: 3 hr 1 min 11 sec) 
 Total Blocks : 196608 Invalid Blocks : 0 Valid Blocks : 196608
 Total Tags : 491520 Threshold : 12288 Invalid Tags : 196610 Pr0 Tags : 98302 Pr1 Tags : 196608 num_pr0 : 12288
 SAE Count : 0
 Inter-Core Inteference in Data Store : 5022654
Heartbeat CPU 6 instructions: 30000000 cycles: 11960172 heartbeat IPC: 2.51416 cumulative IPC: 2.50833 (Simulation time: 4 hr 45 min 0 sec) 
 Total Blocks : 196608 Invalid Blocks : 0 Valid Blocks : 196608
 Total Tags : 491520 Threshold : 12288 Invalid Tags : 196612 Pr0 Tags : 98300 Pr1 Tags : 196608 num_pr0 : 12287
 SAE Count : 0
 Inter-Core Inteference in Data Store : 7579871
Heartbeat CPU 7 instructions: 30000000 cycles: 11960258 heartbeat IPC: 2.51419 cumulative IPC: 2.50831 (Simulation time: 4 hr 45 min 0 sec) 
 Total Blocks : 196608 Invalid Blocks : 0 Valid Blocks : 196608
 Total Tags : 491520 Threshold : 12288 Invalid Tags : 196612 Pr0 Tags : 98300 Pr1 Tags : 196608 num_pr0 : 12288
 SAE Count : 0
 Inter-Core Inteference in Data Store : 7579915
Heartbeat CPU 5 instructions: 30000000 cycles: 11960286 heartbeat IPC: 2.51404 cumulative IPC: 2.5083 (Simulation time: 4 hr 45 min 0 sec) 
 Total Blocks : 196608 Invalid Blocks : 0 Valid Blocks : 196608
 Total Tags : 491520 Threshold : 12288 Invalid Tags : 196615 Pr0 Tags : 98297 Pr1 Tags : 196608 num_pr0 : 12287
 SAE Count : 0
 Inter-Core Inteference in Data Store : 7579929
Heartbeat CPU 2 instructions: 30000000 cycles: 11960418 heartbeat IPC: 2.51412 cumulative IPC: 2.50827 (Simulation time: 4 hr 45 min 1 sec) 
 Total Blocks : 196608 Invalid Blocks : 0 Valid Blocks : 196608
 Total Tags : 491520 Threshold : 12288 Invalid Tags : 196617 Pr0 Tags : 98295 Pr1 Tags : 196608 num_pr0 : 12286
 SAE Count : 0
 Inter-Core Inteference in Data Store : 7579998
Heartbeat CPU 4 instructions: 30000000 cycles: 11960437 heartbeat IPC: 2.51393 cumulative IPC: 2.50827 (Simulation time: 4 hr 45 min 1 sec) 
 Total Blocks : 196608 Invalid Blocks : 0 Valid Blocks : 196608
 Total Tags : 491520 Threshold : 12288 Invalid Tags : 196611 Pr0 Tags : 98301 Pr1 Tags : 196608 num_pr0 : 12288
 SAE Count : 0
 Inter-Core Inteference in Data Store : 7580014
Heartbeat CPU 3 instructions: 30000000 cycles: 11960466 heartbeat IPC: 2.51397 cumulative IPC: 2.50826 (Simulation time: 4 hr 45 min 1 sec) 
 Total Blocks : 196608 Invalid Blocks : 0 Valid Blocks : 196608
 Total Tags : 491520 Threshold : 12288 Invalid Tags : 196611 Pr0 Tags : 98301 Pr1 Tags : 196608 num_pr0 : 12288
 SAE Count : 0
 Inter-Core Inteference in Data Store : 7580049
Heartbeat CPU 1 instructions: 30000000 cycles: 11961072 heartbeat IPC: 2.51387 cumulative IPC: 2.50814 (Simulation time: 4 hr 45 min 2 sec) 
 Total Blocks : 196608 Invalid Blocks : 0 Valid Blocks : 196608
 Total Tags : 491520 Threshold : 12288 Invalid Tags : 196610 Pr0 Tags : 98302 Pr1 Tags : 196608 num_pr0 : 12288
 SAE Count : 0
 Inter-Core Inteference in Data Store : 7580646
Heartbeat CPU 0 instructions: 30000000 cycles: 11961273 heartbeat IPC: 2.51388 cumulative IPC: 2.50809 (Simulation time: 4 hr 45 min 2 sec) 
 Total Blocks : 196608 Invalid Blocks : 0 Valid Blocks : 196608
 Total Tags : 491520 Threshold : 12288 Invalid Tags : 196611 Pr0 Tags : 98301 Pr1 Tags : 196608 num_pr0 : 12288
 SAE Count : 0
 Inter-Core Inteference in Data Store : 7580742
Heartbeat CPU 7 instructions: 40000001 cycles: 15960299 heartbeat IPC: 2.49997 cumulative IPC: 2.50622 (Simulation time: 6 hr 47 min 32 sec) 
 Total Blocks : 196608 Invalid Blocks : 0 Valid Blocks : 196608
 Total Tags : 491520 Threshold : 12288 Invalid Tags : 196616 Pr0 Tags : 98296 Pr1 Tags : 196608 num_pr0 : 12288
 SAE Count : 0
 Inter-Core Inteference in Data Store : 10186013
Heartbeat CPU 5 instructions: 40000001 cycles: 15960741 heartbeat IPC: 2.49972 cumulative IPC: 2.50615 (Simulation time: 6 hr 47 min 33 sec) 
 Total Blocks : 196608 Invalid Blocks : 0 Valid Blocks : 196608
 Total Tags : 491520 Threshold : 12288 Invalid Tags : 196615 Pr0 Tags : 98297 Pr1 Tags : 196608 num_pr0 : 12288
 SAE Count : 0
 Inter-Core Inteference in Data Store : 10186270
Heartbeat CPU 4 instructions: 40000001 cycles: 15960824 heartbeat IPC: 2.49976 cumulative IPC: 2.50614 (Simulation time: 6 hr 47 min 33 sec) 
 Total Blocks : 196608 Invalid Blocks : 0 Valid Blocks : 196608
 Total Tags : 491520 Threshold : 12288 Invalid Tags : 196612 Pr0 Tags : 98300 Pr1 Tags : 196608 num_pr0 : 12288
 SAE Count : 0
 Inter-Core Inteference in Data Store : 10186311
Heartbeat CPU 6 instructions: 40000001 cycles: 15960834 heartbeat IPC: 2.49959 cumulative IPC: 2.50613 (Simulation time: 6 hr 47 min 33 sec) 
 Total Blocks : 196608 Invalid Blocks : 0 Valid Blocks : 196608
 Total Tags : 491520 Threshold : 12288 Invalid Tags : 196615 Pr0 Tags : 98297 Pr1 Tags : 196608 num_pr0 : 12287
 SAE Count : 0
 Inter-Core Inteference in Data Store : 10186316
Heartbeat CPU 2 instructions: 40000001 cycles: 15960837 heartbeat IPC: 2.49974 cumulative IPC: 2.50613 (Simulation time: 6 hr 47 min 33 sec) 
 Total Blocks : 196608 Invalid Blocks : 0 Valid Blocks : 196608
 Total Tags : 491520 Threshold : 12288 Invalid Tags : 196616 Pr0 Tags : 98296 Pr1 Tags : 196608 num_pr0 : 12286
 SAE Count : 0
 Inter-Core Inteference in Data Store : 10186319
Heartbeat CPU 3 instructions: 40000001 cycles: 15960844 heartbeat IPC: 2.49976 cumulative IPC: 2.50613 (Simulation time: 6 hr 47 min 33 sec) 
 Total Blocks : 196608 Invalid Blocks : 0 Valid Blocks : 196608
 Total Tags : 491520 Threshold : 12288 Invalid Tags : 196615 Pr0 Tags : 98297 Pr1 Tags : 196608 num_pr0 : 12286
 SAE Count : 0
 Inter-Core Inteference in Data Store : 10186320
Heartbeat CPU 1 instructions: 40000001 cycles: 15961948 heartbeat IPC: 2.49945 cumulative IPC: 2.50596 (Simulation time: 6 hr 47 min 36 sec) 
 Total Blocks : 196608 Invalid Blocks : 0 Valid Blocks : 196608
 Total Tags : 491520 Threshold : 12288 Invalid Tags : 196615 Pr0 Tags : 98297 Pr1 Tags : 196608 num_pr0 : 12287
 SAE Count : 0
 Inter-Core Inteference in Data Store : 10186818
Heartbeat CPU 0 instructions: 40000001 cycles: 15962501 heartbeat IPC: 2.49923 cumulative IPC: 2.50587 (Simulation time: 6 hr 47 min 37 sec) 
 Total Blocks : 196608 Invalid Blocks : 0 Valid Blocks : 196608
 Total Tags : 491520 Threshold : 12288 Invalid Tags : 196615 Pr0 Tags : 98297 Pr1 Tags : 196608 num_pr0 : 12288
 SAE Count : 0
 Inter-Core Inteference in Data Store : 10187046
Heartbeat CPU 7 instructions: 50000000 cycles: 19965511 heartbeat IPC: 2.49675 cumulative IPC: 2.50432 (Simulation time: 9 hr 5 min 29 sec) 
 Total Blocks : 196608 Invalid Blocks : 0 Valid Blocks : 196608
 Total Tags : 491520 Threshold : 12288 Invalid Tags : 196613 Pr0 Tags : 98299 Pr1 Tags : 196608 num_pr0 : 12287
 SAE Count : 0
 Inter-Core Inteference in Data Store : 12775311
Heartbeat CPU 4 instructions: 50000000 cycles: 19965805 heartbeat IPC: 2.49689 cumulative IPC: 2.50428 (Simulation time: 9 hr 5 min 30 sec) 
 Total Blocks : 196608 Invalid Blocks : 0 Valid Blocks : 196608
 Total Tags : 491520 Threshold : 12288 Invalid Tags : 196613 Pr0 Tags : 98299 Pr1 Tags : 196608 num_pr0 : 12288
 SAE Count : 0
 Inter-Core Inteference in Data Store : 12775625
Heartbeat CPU 6 instructions: 50000000 cycles: 19965876 heartbeat IPC: 2.49685 cumulative IPC: 2.50427 (Simulation time: 9 hr 5 min 30 sec) 
 Total Blocks : 196608 Invalid Blocks : 0 Valid Blocks : 196608
 Total Tags : 491520 Threshold : 12288 Invalid Tags : 196615 Pr0 Tags : 98297 Pr1 Tags : 196608 num_pr0 : 12287
 SAE Count : 0
 Inter-Core Inteference in Data Store : 12775702
Heartbeat CPU 5 instructions: 50000000 cycles: 19965914 heartbeat IPC: 2.49677 cumulative IPC: 2.50427 (Simulation time: 9 hr 5 min 30 sec) 
 Total Blocks : 196608 Invalid Blocks : 0 Valid Blocks : 196608
 Total Tags : 491520 Threshold : 12288 Invalid Tags : 196613 Pr0 Tags : 98299 Pr1 Tags : 196608 num_pr0 : 12288
 SAE Count : 0
 Inter-Core Inteference in Data Store : 12775727
Heartbeat CPU 2 instructions: 50000000 cycles: 19966351 heartbeat IPC: 2.49656 cumulative IPC: 2.50421 (Simulation time: 9 hr 5 min 32 sec) 
 Total Blocks : 196608 Invalid Blocks : 0 Valid Blocks : 196608
 Total Tags : 491520 Threshold : 12288 Invalid Tags : 196612 Pr0 Tags : 98300 Pr1 Tags : 196608 num_pr0 : 12288
 SAE Count : 0
 Inter-Core Inteference in Data Store : 12776169
Heartbeat CPU 3 instructions: 50000000 cycles: 19966567 heartbeat IPC: 2.49643 cumulative IPC: 2.50419 (Simulation time: 9 hr 5 min 32 sec) 
 Total Blocks : 196608 Invalid Blocks : 0 Valid Blocks : 196608
 Total Tags : 491520 Threshold : 12288 Invalid Tags : 196612 Pr0 Tags : 98300 Pr1 Tags : 196608 num_pr0 : 12288
 SAE Count : 0
 Inter-Core Inteference in Data Store : 12776330
Heartbeat CPU 1 instructions: 50000000 cycles: 19967146 heartbeat IPC: 2.49676 cumulative IPC: 2.50411 (Simulation time: 9 hr 5 min 34 sec) 
 Total Blocks : 196608 Invalid Blocks : 0 Valid Blocks : 196608
 Total Tags : 491520 Threshold : 12288 Invalid Tags : 196612 Pr0 Tags : 98300 Pr1 Tags : 196608 num_pr0 : 12288
 SAE Count : 0
 Inter-Core Inteference in Data Store : 12777065
Heartbeat CPU 0 instructions: 50000000 cycles: 19967878 heartbeat IPC: 2.49664 cumulative IPC: 2.50402 (Simulation time: 9 hr 5 min 37 sec) 
 Total Blocks : 196608 Invalid Blocks : 0 Valid Blocks : 196608
 Total Tags : 491520 Threshold : 12288 Invalid Tags : 196610 Pr0 Tags : 98302 Pr1 Tags : 196608 num_pr0 : 12288
 SAE Count : 0
 Inter-Core Inteference in Data Store : 12777675
Heartbeat CPU 4 instructions: 60000003 cycles: 23980842 heartbeat IPC: 2.49064 cumulative IPC: 2.502 (Simulation time: 11 hr 41 min 1 sec) 
 Total Blocks : 196608 Invalid Blocks : 0 Valid Blocks : 196608
 Total Tags : 491520 Threshold : 12288 Invalid Tags : 196616 Pr0 Tags : 98296 Pr1 Tags : 196608 num_pr0 : 12286
 SAE Count : 0
 Inter-Core Inteference in Data Store : 15399849
Heartbeat CPU 7 instructions: 60000003 cycles: 23980910 heartbeat IPC: 2.49041 cumulative IPC: 2.50199 (Simulation time: 11 hr 41 min 1 sec) 
 Total Blocks : 196608 Invalid Blocks : 0 Valid Blocks : 196608
 Total Tags : 491520 Threshold : 12288 Invalid Tags : 196615 Pr0 Tags : 98297 Pr1 Tags : 196608 num_pr0 : 12287
 SAE Count : 0
 Inter-Core Inteference in Data Store : 15399896
Heartbeat CPU 6 instructions: 60000003 cycles: 23981165 heartbeat IPC: 2.49048 cumulative IPC: 2.50196 (Simulation time: 11 hr 41 min 2 sec) 
 Total Blocks : 196608 Invalid Blocks : 0 Valid Blocks : 196608
 Total Tags : 491520 Threshold : 12288 Invalid Tags : 196612 Pr0 Tags : 98300 Pr1 Tags : 196608 num_pr0 : 12287
 SAE Count : 0
 Inter-Core Inteference in Data Store : 15400095
Heartbeat CPU 5 instructions: 60000003 cycles: 23981522 heartbeat IPC: 2.49028 cumulative IPC: 2.50193 (Simulation time: 11 hr 41 min 3 sec) 
 Total Blocks : 196608 Invalid Blocks : 0 Valid Blocks : 196608
 Total Tags : 491520 Threshold : 12288 Invalid Tags : 196614 Pr0 Tags : 98298 Pr1 Tags : 196608 num_pr0 : 12286
 SAE Count : 0
 Inter-Core Inteference in Data Store : 15400392
Heartbeat CPU 2 instructions: 60000003 cycles: 23981882 heartbeat IPC: 2.49033 cumulative IPC: 2.50189 (Simulation time: 11 hr 41 min 4 sec) 
 Total Blocks : 196608 Invalid Blocks : 0 Valid Blocks : 196608
 Total Tags : 491520 Threshold : 12288 Invalid Tags : 196613 Pr0 Tags : 98299 Pr1 Tags : 196608 num_pr0 : 12286
 SAE Count : 0
 Inter-Core Inteference in Data Store : 15400549
Heartbeat CPU 3 instructions: 60000003 cycles: 23981901 heartbeat IPC: 2.49045 cumulative IPC: 2.50189 (Simulation time: 11 hr 41 min 4 sec) 
 Total Blocks : 196608 Invalid Blocks : 0 Valid Blocks : 196608
 Total Tags : 491520 Threshold : 12288 Invalid Tags : 196612 Pr0 Tags : 98300 Pr1 Tags : 196608 num_pr0 : 12286
 SAE Count : 0
 Inter-Core Inteference in Data Store : 15400553
Heartbeat CPU 1 instructions: 60000003 cycles: 23982808 heartbeat IPC: 2.49025 cumulative IPC: 2.50179 (Simulation time: 11 hr 41 min 6 sec) 
 Total Blocks : 196608 Invalid Blocks : 0 Valid Blocks : 196608
 Total Tags : 491520 Threshold : 12288 Invalid Tags : 196611 Pr0 Tags : 98301 Pr1 Tags : 196608 num_pr0 : 12288
 SAE Count : 0
 Inter-Core Inteference in Data Store : 15400919
Heartbeat CPU 0 instructions: 60000003 cycles: 23983662 heartbeat IPC: 2.49017 cumulative IPC: 2.5017 (Simulation time: 11 hr 41 min 7 sec) 
 Total Blocks : 196608 Invalid Blocks : 0 Valid Blocks : 196608
 Total Tags : 491520 Threshold : 12288 Invalid Tags : 196611 Pr0 Tags : 98301 Pr1 Tags : 196608 num_pr0 : 12287
 SAE Count : 0
 Inter-Core Inteference in Data Store : 15401258
Heartbeat CPU 4 instructions: 70000000 cycles: 27989526 heartbeat IPC: 2.49458 cumulative IPC: 2.50094 (Simulation time: 14 hr 29 min 29 sec) 
 Total Blocks : 196608 Invalid Blocks : 0 Valid Blocks : 196608
 Total Tags : 491520 Threshold : 12288 Invalid Tags : 196611 Pr0 Tags : 98301 Pr1 Tags : 196608 num_pr0 : 12288
 SAE Count : 0
 Inter-Core Inteference in Data Store : 18002125
Heartbeat CPU 7 instructions: 70000000 cycles: 27989781 heartbeat IPC: 2.49447 cumulative IPC: 2.50091 (Simulation time: 14 hr 29 min 29 sec) 
 Total Blocks : 196608 Invalid Blocks : 0 Valid Blocks : 196608
 Total Tags : 491520 Threshold : 12288 Invalid Tags : 196612 Pr0 Tags : 98300 Pr1 Tags : 196608 num_pr0 : 12288
 SAE Count : 0
 Inter-Core Inteference in Data Store : 18002282
Heartbeat CPU 6 instructions: 70000000 cycles: 27989992 heartbeat IPC: 2.49449 cumulative IPC: 2.50089 (Simulation time: 14 hr 29 min 29 sec) 
 Total Blocks : 196608 Invalid Blocks : 0 Valid Blocks : 196608
 Total Tags : 491520 Threshold : 12288 Invalid Tags : 196611 Pr0 Tags : 98301 Pr1 Tags : 196608 num_pr0 : 12288
 SAE Count : 0
 Inter-Core Inteference in Data Store : 18002358
Heartbeat CPU 5 instructions: 70000000 cycles: 27990030 heartbeat IPC: 2.49469 cumulative IPC: 2.50089 (Simulation time: 14 hr 29 min 29 sec) 
 Total Blocks : 196608 Invalid Blocks : 0 Valid Blocks : 196608
 Total Tags : 491520 Threshold : 12288 Invalid Tags : 196612 Pr0 Tags : 98300 Pr1 Tags : 196608 num_pr0 : 12288
 SAE Count : 0
 Inter-Core Inteference in Data Store : 18002373
Heartbeat CPU 2 instructions: 70000000 cycles: 27990515 heartbeat IPC: 2.49462 cumulative IPC: 2.50085 (Simulation time: 14 hr 29 min 31 sec) 
 Total Blocks : 196608 Invalid Blocks : 0 Valid Blocks : 196608
 Total Tags : 491520 Threshold : 12288 Invalid Tags : 196615 Pr0 Tags : 98297 Pr1 Tags : 196608 num_pr0 : 12287
 SAE Count : 0
 Inter-Core Inteference in Data Store : 18002578
Heartbeat CPU 3 instructions: 70000000 cycles: 27990562 heartbeat IPC: 2.4946 cumulative IPC: 2.50084 (Simulation time: 14 hr 29 min 31 sec) 
 Total Blocks : 196608 Invalid Blocks : 0 Valid Blocks : 196608
 Total Tags : 491520 Threshold : 12288 Invalid Tags : 196612 Pr0 Tags : 98300 Pr1 Tags : 196608 num_pr0 : 12288
 SAE Count : 0
 Inter-Core Inteference in Data Store : 18002603
Heartbeat CPU 1 instructions: 70000000 cycles: 27991574 heartbeat IPC: 2.49453 cumulative IPC: 2.50075 (Simulation time: 14 hr 29 min 34 sec) 
 Total Blocks : 196608 Invalid Blocks : 0 Valid Blocks : 196608
 Total Tags : 491520 Threshold : 12288 Invalid Tags : 196610 Pr0 Tags : 98302 Pr1 Tags : 196608 num_pr0 : 12288
 SAE Count : 0
 Inter-Core Inteference in Data Store : 18003275
Heartbeat CPU 0 instructions: 70000000 cycles: 27992394 heartbeat IPC: 2.49455 cumulative IPC: 2.50068 (Simulation time: 14 hr 29 min 36 sec) 
 Total Blocks : 196608 Invalid Blocks : 0 Valid Blocks : 196608
 Total Tags : 491520 Threshold : 12288 Invalid Tags : 196614 Pr0 Tags : 98298 Pr1 Tags : 196608 num_pr0 : 12288
 SAE Count : 0
 Inter-Core Inteference in Data Store : 18003746
Heartbeat CPU 6 instructions: 80000003 cycles: 31981984 heartbeat IPC: 2.50502 cumulative IPC: 2.50141 (Simulation time: 17 hr 14 min 18 sec) 
 Total Blocks : 196608 Invalid Blocks : 0 Valid Blocks : 196608
 Total Tags : 491520 Threshold : 12288 Invalid Tags : 196614 Pr0 Tags : 98298 Pr1 Tags : 196608 num_pr0 : 12287
 SAE Count : 0
 Inter-Core Inteference in Data Store : 20544892
Heartbeat CPU 4 instructions: 80000003 cycles: 31981991 heartbeat IPC: 2.50472 cumulative IPC: 2.50141 (Simulation time: 17 hr 14 min 18 sec) 
 Total Blocks : 196608 Invalid Blocks : 0 Valid Blocks : 196608
 Total Tags : 491520 Threshold : 12288 Invalid Tags : 196612 Pr0 Tags : 98300 Pr1 Tags : 196608 num_pr0 : 12288
 SAE Count : 0
 Inter-Core Inteference in Data Store : 20544897
Heartbeat CPU 7 instructions: 80000003 cycles: 31982224 heartbeat IPC: 2.50473 cumulative IPC: 2.50139 (Simulation time: 17 hr 14 min 18 sec) 
 Total Blocks : 196608 Invalid Blocks : 0 Valid Blocks : 196608
 Total Tags : 491520 Threshold : 12288 Invalid Tags : 196614 Pr0 Tags : 98298 Pr1 Tags : 196608 num_pr0 : 12288
 SAE Count : 0
 Inter-Core Inteference in Data Store : 20545048
Heartbeat CPU 5 instructions: 80000003 cycles: 31982297 heartbeat IPC: 2.50484 cumulative IPC: 2.50138 (Simulation time: 17 hr 14 min 19 sec) 
 Total Blocks : 196608 Invalid Blocks : 0 Valid Blocks : 196608
 Total Tags : 491520 Threshold : 12288 Invalid Tags : 196616 Pr0 Tags : 98296 Pr1 Tags : 196608 num_pr0 : 12286
 SAE Count : 0
 Inter-Core Inteference in Data Store : 20545089
Heartbeat CPU 2 instructions: 80000003 cycles: 31982615 heartbeat IPC: 2.50495 cumulative IPC: 2.50136 (Simulation time: 17 hr 14 min 20 sec) 
 Total Blocks : 196608 Invalid Blocks : 0 Valid Blocks : 196608
 Total Tags : 491520 Threshold : 12288 Invalid Tags : 196612 Pr0 Tags : 98300 Pr1 Tags : 196608 num_pr0 : 12288
 SAE Count : 0
 Inter-Core Inteference in Data Store : 20545374
Heartbeat CPU 3 instructions: 80000003 cycles: 31982969 heartbeat IPC: 2.50476 cumulative IPC: 2.50133 (Simulation time: 17 hr 14 min 22 sec) 
 Total Blocks : 196608 Invalid Blocks : 0 Valid Blocks : 196608
 Total Tags : 491520 Threshold : 12288 Invalid Tags : 196613 Pr0 Tags : 98299 Pr1 Tags : 196608 num_pr0 : 12288
 SAE Count : 0
 Inter-Core Inteference in Data Store : 20545759
Heartbeat CPU 1 instructions: 80000003 cycles: 31984067 heartbeat IPC: 2.5047 cumulative IPC: 2.50125 (Simulation time: 17 hr 14 min 25 sec) 
 Total Blocks : 196608 Invalid Blocks : 0 Valid Blocks : 196608
 Total Tags : 491520 Threshold : 12288 Invalid Tags : 196615 Pr0 Tags : 98297 Pr1 Tags : 196608 num_pr0 : 12288
 SAE Count : 0
 Inter-Core Inteference in Data Store : 20546921
Heartbeat CPU 0 instructions: 80000003 cycles: 31984886 heartbeat IPC: 2.5047 cumulative IPC: 2.50118 (Simulation time: 17 hr 14 min 28 sec) 
 Total Blocks : 196608 Invalid Blocks : 0 Valid Blocks : 196608
 Total Tags : 491520 Threshold : 12288 Invalid Tags : 196613 Pr0 Tags : 98299 Pr1 Tags : 196608 num_pr0 : 12287
 SAE Count : 0
 Inter-Core Inteference in Data Store : 20547375
Heartbeat CPU 6 instructions: 90000000 cycles: 35984841 heartbeat IPC: 2.49821 cumulative IPC: 2.50105 (Simulation time: 20 hr 1 min 12 sec) 
 Total Blocks : 196608 Invalid Blocks : 0 Valid Blocks : 196608
 Total Tags : 491520 Threshold : 12288 Invalid Tags : 196612 Pr0 Tags : 98300 Pr1 Tags : 196608 num_pr0 : 12288
 SAE Count : 0
 Inter-Core Inteference in Data Store : 23116423
Heartbeat CPU 4 instructions: 90000000 cycles: 35984962 heartbeat IPC: 2.49814 cumulative IPC: 2.50104 (Simulation time: 20 hr 1 min 13 sec) 
 Total Blocks : 196608 Invalid Blocks : 0 Valid Blocks : 196608
 Total Tags : 491520 Threshold : 12288 Invalid Tags : 196613 Pr0 Tags : 98299 Pr1 Tags : 196608 num_pr0 : 12288
 SAE Count : 0
 Inter-Core Inteference in Data Store : 23116530
Heartbeat CPU 7 instructions: 90000000 cycles: 35985062 heartbeat IPC: 2.49823 cumulative IPC: 2.50104 (Simulation time: 20 hr 1 min 13 sec) 
 Total Blocks : 196608 Invalid Blocks : 0 Valid Blocks : 196608
 Total Tags : 491520 Threshold : 12288 Invalid Tags : 196615 Pr0 Tags : 98297 Pr1 Tags : 196608 num_pr0 : 12286
 SAE Count : 0
 Inter-Core Inteference in Data Store : 23116637
Heartbeat CPU 5 instructions: 90000000 cycles: 35985228 heartbeat IPC: 2.49817 cumulative IPC: 2.50103 (Simulation time: 20 hr 1 min 14 sec) 
 Total Blocks : 196608 Invalid Blocks : 0 Valid Blocks : 196608
 Total Tags : 491520 Threshold : 12288 Invalid Tags : 196612 Pr0 Tags : 98300 Pr1 Tags : 196608 num_pr0 : 12287
 SAE Count : 0
 Inter-Core Inteference in Data Store : 23116856
Heartbeat CPU 2 instructions: 90000000 cycles: 35985358 heartbeat IPC: 2.49829 cumulative IPC: 2.50102 (Simulation time: 20 hr 1 min 15 sec) 
 Total Blocks : 196608 Invalid Blocks : 0 Valid Blocks : 196608
 Total Tags : 491520 Threshold : 12288 Invalid Tags : 196613 Pr0 Tags : 98299 Pr1 Tags : 196608 num_pr0 : 12287
 SAE Count : 0
 Inter-Core Inteference in Data Store : 23117016
Heartbeat CPU 3 instructions: 90000000 cycles: 35985882 heartbeat IPC: 2.49818 cumulative IPC: 2.50098 (Simulation time: 20 hr 1 min 16 sec) 
 Total Blocks : 196608 Invalid Blocks : 0 Valid Blocks : 196608
 Total Tags : 491520 Threshold : 12288 Invalid Tags : 196612 Pr0 Tags : 98300 Pr1 Tags : 196608 num_pr0 : 12288
 SAE Count : 0
 Inter-Core Inteference in Data Store : 23117390
Heartbeat CPU 1 instructions: 90000000 cycles: 35987286 heartbeat IPC: 2.49799 cumulative IPC: 2.50088 (Simulation time: 20 hr 1 min 19 sec) 
 Total Blocks : 196608 Invalid Blocks : 0 Valid Blocks : 196608
 Total Tags : 491520 Threshold : 12288 Invalid Tags : 196611 Pr0 Tags : 98301 Pr1 Tags : 196608 num_pr0 : 12288
 SAE Count : 0
 Inter-Core Inteference in Data Store : 23118293
Heartbeat CPU 0 instructions: 90000000 cycles: 35987537 heartbeat IPC: 2.49834 cumulative IPC: 2.50087 (Simulation time: 20 hr 1 min 20 sec) 
 Total Blocks : 196608 Invalid Blocks : 0 Valid Blocks : 196608
 Total Tags : 491520 Threshold : 12288 Invalid Tags : 196613 Pr0 Tags : 98299 Pr1 Tags : 196608 num_pr0 : 12287
 SAE Count : 0
 Inter-Core Inteference in Data Store : 23118483
Heartbeat CPU 7 instructions: 100000003 cycles: 39974971 heartbeat IPC: 2.50632 cumulative IPC: 2.50157 (Simulation time: 22 hr 45 min 5 sec) 
 Total Blocks : 196608 Invalid Blocks : 0 Valid Blocks : 196608
 Total Tags : 491520 Threshold : 12288 Invalid Tags : 196611 Pr0 Tags : 98301 Pr1 Tags : 196608 num_pr0 : 12288
 SAE Count : 0
 Inter-Core Inteference in Data Store : 25650863
Heartbeat CPU 2 instructions: 100000003 cycles: 39975112 heartbeat IPC: 2.50642 cumulative IPC: 2.50156 (Simulation time: 22 hr 45 min 6 sec) 
 Total Blocks : 196608 Invalid Blocks : 0 Valid Blocks : 196608
 Total Tags : 491520 Threshold : 12288 Invalid Tags : 196615 Pr0 Tags : 98297 Pr1 Tags : 196608 num_pr0 : 12288
 SAE Count : 0
 Inter-Core Inteference in Data Store : 25651003
Heartbeat CPU 6 instructions: 100000003 cycles: 39975309 heartbeat IPC: 2.50597 cumulative IPC: 2.50154 (Simulation time: 22 hr 45 min 6 sec) 
 Total Blocks : 196608 Invalid Blocks : 0 Valid Blocks : 196608
 Total Tags : 491520 Threshold : 12288 Invalid Tags : 196613 Pr0 Tags : 98299 Pr1 Tags : 196608 num_pr0 : 12287
 SAE Count : 0
 Inter-Core Inteference in Data Store : 25651178
Heartbeat CPU 4 instructions: 100000003 cycles: 39975359 heartbeat IPC: 2.50602 cumulative IPC: 2.50154 (Simulation time: 22 hr 45 min 6 sec) 
 Total Blocks : 196608 Invalid Blocks : 0 Valid Blocks : 196608
 Total Tags : 491520 Threshold : 12288 Invalid Tags : 196613 Pr0 Tags : 98299 Pr1 Tags : 196608 num_pr0 : 12287
 SAE Count : 0
 Inter-Core Inteference in Data Store : 25651193
Heartbeat CPU 5 instructions: 100000003 cycles: 39975743 heartbeat IPC: 2.50594 cumulative IPC: 2.50152 (Simulation time: 22 hr 45 min 7 sec) 
 Total Blocks : 196608 Invalid Blocks : 0 Valid Blocks : 196608
 Total Tags : 491520 Threshold : 12288 Invalid Tags : 196612 Pr0 Tags : 98300 Pr1 Tags : 196608 num_pr0 : 12288
 SAE Count : 0
 Inter-Core Inteference in Data Store : 25651373
Heartbeat CPU 3 instructions: 100000003 cycles: 39976219 heartbeat IPC: 2.50605 cumulative IPC: 2.50149 (Simulation time: 22 hr 45 min 9 sec) 
 Total Blocks : 196608 Invalid Blocks : 0 Valid Blocks : 196608
 Total Tags : 491520 Threshold : 12288 Invalid Tags : 196615 Pr0 Tags : 98297 Pr1 Tags : 196608 num_pr0 : 12287
 SAE Count : 0
 Inter-Core Inteference in Data Store : 25651710
Heartbeat CPU 1 instructions: 100000003 cycles: 39977510 heartbeat IPC: 2.50613 cumulative IPC: 2.50141 (Simulation time: 22 hr 45 min 14 sec) 
 Total Blocks : 196608 Invalid Blocks : 0 Valid Blocks : 196608
 Total Tags : 491520 Threshold : 12288 Invalid Tags : 196611 Pr0 Tags : 98301 Pr1 Tags : 196608 num_pr0 : 12288
 SAE Count : 0
 Inter-Core Inteference in Data Store : 25653184
Heartbeat CPU 0 instructions: 100000003 cycles: 39977553 heartbeat IPC: 2.50626 cumulative IPC: 2.5014 (Simulation time: 22 hr 45 min 15 sec) 
 Total Blocks : 196608 Invalid Blocks : 0 Valid Blocks : 196608
 Total Tags : 491520 Threshold : 12288 Invalid Tags : 196611 Pr0 Tags : 98301 Pr1 Tags : 196608 num_pr0 : 12288
 SAE Count : 0
 Inter-Core Inteference in Data Store : 25653221
Heartbeat CPU 7 instructions: 110000000 cycles: 43977090 heartbeat IPC: 2.49868 cumulative IPC: 2.5013 (Simulation time: 25 hr 33 min 33 sec) 
 Total Blocks : 196608 Invalid Blocks : 0 Valid Blocks : 196608
 Total Tags : 491520 Threshold : 12288 Invalid Tags : 196611 Pr0 Tags : 98301 Pr1 Tags : 196608 num_pr0 : 12288
 SAE Count : 0
 Inter-Core Inteference in Data Store : 28221140
Heartbeat CPU 2 instructions: 110000000 cycles: 43977326 heartbeat IPC: 2.49862 cumulative IPC: 2.50129 (Simulation time: 25 hr 33 min 33 sec) 
 Total Blocks : 196608 Invalid Blocks : 0 Valid Blocks : 196608
 Total Tags : 491520 Threshold : 12288 Invalid Tags : 196615 Pr0 Tags : 98297 Pr1 Tags : 196608 num_pr0 : 12287
 SAE Count : 0
 Inter-Core Inteference in Data Store : 28221260
Heartbeat CPU 4 instructions: 110000000 cycles: 43977350 heartbeat IPC: 2.49876 cumulative IPC: 2.50129 (Simulation time: 25 hr 33 min 33 sec) 
 Total Blocks : 196608 Invalid Blocks : 0 Valid Blocks : 196608
 Total Tags : 491520 Threshold : 12288 Invalid Tags : 196613 Pr0 Tags : 98299 Pr1 Tags : 196608 num_pr0 : 12287
 SAE Count : 0
 Inter-Core Inteference in Data Store : 28221267
Heartbeat CPU 6 instructions: 110000000 cycles: 43977515 heartbeat IPC: 2.49862 cumulative IPC: 2.50128 (Simulation time: 25 hr 33 min 34 sec) 
 Total Blocks : 196608 Invalid Blocks : 0 Valid Blocks : 196608
 Total Tags : 491520 Threshold : 12288 Invalid Tags : 196615 Pr0 Tags : 98297 Pr1 Tags : 196608 num_pr0 : 12288
 SAE Count : 0
 Inter-Core Inteference in Data Store : 28221321
Heartbeat CPU 5 instructions: 110000000 cycles: 43978077 heartbeat IPC: 2.49854 cumulative IPC: 2.50125 (Simulation time: 25 hr 33 min 34 sec) 
 Total Blocks : 196608 Invalid Blocks : 0 Valid Blocks : 196608
 Total Tags : 491520 Threshold : 12288 Invalid Tags : 196614 Pr0 Tags : 98298 Pr1 Tags : 196608 num_pr0 : 12287
 SAE Count : 0
 Inter-Core Inteference in Data Store : 28221554
Heartbeat CPU 3 instructions: 110000000 cycles: 43978396 heartbeat IPC: 2.49864 cumulative IPC: 2.50123 (Simulation time: 25 hr 33 min 35 sec) 
 Total Blocks : 196608 Invalid Blocks : 0 Valid Blocks : 196608
 Total Tags : 491520 Threshold : 12288 Invalid Tags : 196612 Pr0 Tags : 98300 Pr1 Tags : 196608 num_pr0 : 12287
 SAE Count : 0
 Inter-Core Inteference in Data Store : 28221675
Heartbeat CPU 1 instructions: 110000000 cycles: 43979904 heartbeat IPC: 2.4985 cumulative IPC: 2.50114 (Simulation time: 25 hr 33 min 39 sec) 
 Total Blocks : 196608 Invalid Blocks : 0 Valid Blocks : 196608
 Total Tags : 491520 Threshold : 12288 Invalid Tags : 196611 Pr0 Tags : 98301 Pr1 Tags : 196608 num_pr0 : 12287
 SAE Count : 0
 Inter-Core Inteference in Data Store : 28222473
Heartbeat CPU 0 instructions: 110000000 cycles: 43980328 heartbeat IPC: 2.49827 cumulative IPC: 2.50112 (Simulation time: 25 hr 33 min 41 sec) 
 Total Blocks : 196608 Invalid Blocks : 0 Valid Blocks : 196608
 Total Tags : 491520 Threshold : 12288 Invalid Tags : 196613 Pr0 Tags : 98299 Pr1 Tags : 196608 num_pr0 : 12287
 SAE Count : 0
 Inter-Core Inteference in Data Store : 28222739
Heartbeat CPU 2 instructions: 120000000 cycles: 47995153 heartbeat IPC: 2.48891 cumulative IPC: 2.50025 (Simulation time: 28 hr 28 min 29 sec) 
 Total Blocks : 196608 Invalid Blocks : 0 Valid Blocks : 196608
 Total Tags : 491520 Threshold : 12288 Invalid Tags : 196615 Pr0 Tags : 98297 Pr1 Tags : 196608 num_pr0 : 12288
 SAE Count : 0
 Inter-Core Inteference in Data Store : 30830246
Heartbeat CPU 7 instructions: 120000000 cycles: 47995179 heartbeat IPC: 2.48875 cumulative IPC: 2.50025 (Simulation time: 28 hr 28 min 29 sec) 
 Total Blocks : 196608 Invalid Blocks : 0 Valid Blocks : 196608
 Total Tags : 491520 Threshold : 12288 Invalid Tags : 196614 Pr0 Tags : 98298 Pr1 Tags : 196608 num_pr0 : 12288
 SAE Count : 0
 Inter-Core Inteference in Data Store : 30830264
Heartbeat CPU 4 instructions: 120000000 cycles: 47995249 heartbeat IPC: 2.48886 cumulative IPC: 2.50025 (Simulation time: 28 hr 28 min 29 sec) 
 Total Blocks : 196608 Invalid Blocks : 0 Valid Blocks : 196608
 Total Tags : 491520 Threshold : 12288 Invalid Tags : 196613 Pr0 Tags : 98299 Pr1 Tags : 196608 num_pr0 : 12286
 SAE Count : 0
 Inter-Core Inteference in Data Store : 30830329
Heartbeat CPU 6 instructions: 120000000 cycles: 47995615 heartbeat IPC: 2.48874 cumulative IPC: 2.50023 (Simulation time: 28 hr 28 min 31 sec) 
 Total Blocks : 196608 Invalid Blocks : 0 Valid Blocks : 196608
 Total Tags : 491520 Threshold : 12288 Invalid Tags : 196613 Pr0 Tags : 98299 Pr1 Tags : 196608 num_pr0 : 12286
 SAE Count : 0
 Inter-Core Inteference in Data Store : 30830587
Heartbeat CPU 5 instructions: 120000000 cycles: 47995724 heartbeat IPC: 2.48902 cumulative IPC: 2.50022 (Simulation time: 28 hr 28 min 31 sec) 
 Total Blocks : 196608 Invalid Blocks : 0 Valid Blocks : 196608
 Total Tags : 491520 Threshold : 12288 Invalid Tags : 196610 Pr0 Tags : 98302 Pr1 Tags : 196608 num_pr0 : 12288
 SAE Count : 0
 Inter-Core Inteference in Data Store : 30830639
Heartbeat CPU 3 instructions: 120000000 cycles: 47996401 heartbeat IPC: 2.4888 cumulative IPC: 2.50019 (Simulation time: 28 hr 28 min 32 sec) 
 Total Blocks : 196608 Invalid Blocks : 0 Valid Blocks : 196608
 Total Tags : 491520 Threshold : 12288 Invalid Tags : 196613 Pr0 Tags : 98299 Pr1 Tags : 196608 num_pr0 : 12286
 SAE Count : 0
 Inter-Core Inteference in Data Store : 30831015
Heartbeat CPU 1 instructions: 120000000 cycles: 47997699 heartbeat IPC: 2.48893 cumulative IPC: 2.50012 (Simulation time: 28 hr 28 min 35 sec) 
 Total Blocks : 196608 Invalid Blocks : 0 Valid Blocks : 196608
 Total Tags : 491520 Threshold : 12288 Invalid Tags : 196611 Pr0 Tags : 98301 Pr1 Tags : 196608 num_pr0 : 12287
 SAE Count : 0
 Inter-Core Inteference in Data Store : 30831789
Heartbeat CPU 0 instructions: 120000000 cycles: 47998232 heartbeat IPC: 2.48886 cumulative IPC: 2.50009 (Simulation time: 28 hr 28 min 37 sec) 
 Total Blocks : 196608 Invalid Blocks : 0 Valid Blocks : 196608
 Total Tags : 491520 Threshold : 12288 Invalid Tags : 196613 Pr0 Tags : 98299 Pr1 Tags : 196608 num_pr0 : 12287
 SAE Count : 0
 Inter-Core Inteference in Data Store : 30832210
Heartbeat CPU 6 instructions: 130000003 cycles: 51983645 heartbeat IPC: 2.5075 cumulative IPC: 2.50079 (Simulation time: 31 hr 25 min 13 sec) 
 Total Blocks : 196608 Invalid Blocks : 0 Valid Blocks : 196608
 Total Tags : 491520 Threshold : 12288 Invalid Tags : 196617 Pr0 Tags : 98295 Pr1 Tags : 196608 num_pr0 : 12286
 SAE Count : 0
 Inter-Core Inteference in Data Store : 33362748
Heartbeat CPU 4 instructions: 130000003 cycles: 51983863 heartbeat IPC: 2.50714 cumulative IPC: 2.50078 (Simulation time: 31 hr 25 min 14 sec) 
 Total Blocks : 196608 Invalid Blocks : 0 Valid Blocks : 196608
 Total Tags : 491520 Threshold : 12288 Invalid Tags : 196613 Pr0 Tags : 98299 Pr1 Tags : 196608 num_pr0 : 12288
 SAE Count : 0
 Inter-Core Inteference in Data Store : 33362822
Heartbeat CPU 2 instructions: 130000003 cycles: 51983993 heartbeat IPC: 2.507 cumulative IPC: 2.50077 (Simulation time: 31 hr 25 min 14 sec) 
 Total Blocks : 196608 Invalid Blocks : 0 Valid Blocks : 196608
 Total Tags : 491520 Threshold : 12288 Invalid Tags : 196617 Pr0 Tags : 98295 Pr1 Tags : 196608 num_pr0 : 12288
 SAE Count : 0
 Inter-Core Inteference in Data Store : 33362869
Heartbeat CPU 7 instructions: 130000003 cycles: 51984064 heartbeat IPC: 2.50697 cumulative IPC: 2.50077 (Simulation time: 31 hr 25 min 14 sec) 
 Total Blocks : 196608 Invalid Blocks : 0 Valid Blocks : 196608
 Total Tags : 491520 Threshold : 12288 Invalid Tags : 196616 Pr0 Tags : 98296 Pr1 Tags : 196608 num_pr0 : 12286
 SAE Count : 0
 Inter-Core Inteference in Data Store : 33362898
Heartbeat CPU 5 instructions: 130000003 cycles: 51984393 heartbeat IPC: 2.5071 cumulative IPC: 2.50075 (Simulation time: 31 hr 25 min 15 sec) 
 Total Blocks : 196608 Invalid Blocks : 0 Valid Blocks : 196608
 Total Tags : 491520 Threshold : 12288 Invalid Tags : 196615 Pr0 Tags : 98297 Pr1 Tags : 196608 num_pr0 : 12287
 SAE Count : 0
 Inter-Core Inteference in Data Store : 33363013
Heartbeat CPU 3 instructions: 130000003 cycles: 51984928 heartbeat IPC: 2.50719 cumulative IPC: 2.50072 (Simulation time: 31 hr 25 min 15 sec) 
 Total Blocks : 196608 Invalid Blocks : 0 Valid Blocks : 196608
 Total Tags : 491520 Threshold : 12288 Invalid Tags : 196611 Pr0 Tags : 98301 Pr1 Tags : 196608 num_pr0 : 12288
 SAE Count : 0
 Inter-Core Inteference in Data Store : 33363192
Heartbeat CPU 1 instructions: 130000003 cycles: 51986161 heartbeat IPC: 2.50723 cumulative IPC: 2.50067 (Simulation time: 31 hr 25 min 16 sec) 
 Total Blocks : 196608 Invalid Blocks : 0 Valid Blocks : 196608
 Total Tags : 491520 Threshold : 12288 Invalid Tags : 196612 Pr0 Tags : 98300 Pr1 Tags : 196608 num_pr0 : 12288
 SAE Count : 0
 Inter-Core Inteference in Data Store : 33363633
Heartbeat CPU 0 instructions: 130000003 cycles: 51986541 heartbeat IPC: 2.50733 cumulative IPC: 2.50065 (Simulation time: 31 hr 25 min 17 sec) 
 Total Blocks : 196608 Invalid Blocks : 0 Valid Blocks : 196608
 Total Tags : 491520 Threshold : 12288 Invalid Tags : 196614 Pr0 Tags : 98298 Pr1 Tags : 196608 num_pr0 : 12288
 SAE Count : 0
 Inter-Core Inteference in Data Store : 33363778
Heartbeat CPU 6 instructions: 140000001 cycles: 55983377 heartbeat IPC: 2.50017 cumulative IPC: 2.50074 (Simulation time: 65 hr 19 min 39 sec) 
 Total Blocks : 196608 Invalid Blocks : 0 Valid Blocks : 196608
 Total Tags : 491520 Threshold : 12288 Invalid Tags : 196612 Pr0 Tags : 98300 Pr1 Tags : 196608 num_pr0 : 12288
 SAE Count : 0
 Inter-Core Inteference in Data Store : 35915102
Heartbeat CPU 2 instructions: 140000001 cycles: 55984178 heartbeat IPC: 2.49988 cumulative IPC: 2.50071 (Simulation time: 65 hr 19 min 48 sec) 
 Total Blocks : 196608 Invalid Blocks : 0 Valid Blocks : 196608
 Total Tags : 491520 Threshold : 12288 Invalid Tags : 196610 Pr0 Tags : 98302 Pr1 Tags : 196608 num_pr0 : 12288
 SAE Count : 0
 Inter-Core Inteference in Data Store : 35915641
Heartbeat CPU 7 instructions: 140000001 cycles: 55984191 heartbeat IPC: 2.49992 cumulative IPC: 2.50071 (Simulation time: 65 hr 19 min 49 sec) 
 Total Blocks : 196608 Invalid Blocks : 0 Valid Blocks : 196608
 Total Tags : 491520 Threshold : 12288 Invalid Tags : 196611 Pr0 Tags : 98301 Pr1 Tags : 196608 num_pr0 : 12288
 SAE Count : 0
 Inter-Core Inteference in Data Store : 35915649
Heartbeat CPU 4 instructions: 140000001 cycles: 55984356 heartbeat IPC: 2.49969 cumulative IPC: 2.5007 (Simulation time: 65 hr 19 min 50 sec) 
 Total Blocks : 196608 Invalid Blocks : 0 Valid Blocks : 196608
 Total Tags : 491520 Threshold : 12288 Invalid Tags : 196613 Pr0 Tags : 98299 Pr1 Tags : 196608 num_pr0 : 12288
 SAE Count : 0
 Inter-Core Inteference in Data Store : 35915706
Heartbeat CPU 5 instructions: 140000001 cycles: 55984598 heartbeat IPC: 2.49987 cumulative IPC: 2.50069 (Simulation time: 65 hr 19 min 51 sec) 
 Total Blocks : 196608 Invalid Blocks : 0 Valid Blocks : 196608
 Total Tags : 491520 Threshold : 12288 Invalid Tags : 196611 Pr0 Tags : 98301 Pr1 Tags : 196608 num_pr0 : 12288
 SAE Count : 0
 Inter-Core Inteference in Data Store : 35915860
Heartbeat CPU 3 instructions: 140000001 cycles: 55984705 heartbeat IPC: 2.50014 cumulative IPC: 2.50068 (Simulation time: 65 hr 19 min 51 sec) 
 Total Blocks : 196608 Invalid Blocks : 0 Valid Blocks : 196608
 Total Tags : 491520 Threshold : 12288 Invalid Tags : 196610 Pr0 Tags : 98302 Pr1 Tags : 196608 num_pr0 : 12288
 SAE Count : 0
 Inter-Core Inteference in Data Store : 35915919
Heartbeat CPU 1 instructions: 140000001 cycles: 55986363 heartbeat IPC: 2.49987 cumulative IPC: 2.50061 (Simulation time: 65 hr 20 min 4 sec) 
 Total Blocks : 196608 Invalid Blocks : 0 Valid Blocks : 196608
 Total Tags : 491520 Threshold : 12288 Invalid Tags : 196615 Pr0 Tags : 98297 Pr1 Tags : 196608 num_pr0 : 12288
 SAE Count : 0
 Inter-Core Inteference in Data Store : 35917225
Heartbeat CPU 0 instructions: 140000001 cycles: 55987350 heartbeat IPC: 2.49949 cumulative IPC: 2.50056 (Simulation time: 65 hr 20 min 8 sec) 
 Total Blocks : 196608 Invalid Blocks : 0 Valid Blocks : 196608
 Total Tags : 491520 Threshold : 12288 Invalid Tags : 196608 Pr0 Tags : 98304 Pr1 Tags : 196608 num_pr0 : 12288
 SAE Count : 0
 Inter-Core Inteference in Data Store : 35917638
Heartbeat CPU 6 instructions: 150000000 cycles: 60000203 heartbeat IPC: 2.48953 cumulative IPC: 2.49999 (Simulation time: 78 hr 27 min 20 sec) 
 Total Blocks : 196608 Invalid Blocks : 0 Valid Blocks : 196608
 Total Tags : 491520 Threshold : 12288 Invalid Tags : 196611 Pr0 Tags : 98301 Pr1 Tags : 196608 num_pr0 : 12288
 SAE Count : 0
 Inter-Core Inteference in Data Store : 38519356
Heartbeat CPU 4 instructions: 150000000 cycles: 60000695 heartbeat IPC: 2.48983 cumulative IPC: 2.49997 (Simulation time: 78 hr 27 min 24 sec) 
 Total Blocks : 196608 Invalid Blocks : 0 Valid Blocks : 196608
 Total Tags : 491520 Threshold : 12288 Invalid Tags : 196613 Pr0 Tags : 98299 Pr1 Tags : 196608 num_pr0 : 12288
 SAE Count : 0
 Inter-Core Inteference in Data Store : 38519735
Heartbeat CPU 2 instructions: 150000000 cycles: 60000785 heartbeat IPC: 2.48966 cumulative IPC: 2.49997 (Simulation time: 78 hr 27 min 26 sec) 
 Total Blocks : 196608 Invalid Blocks : 0 Valid Blocks : 196608
 Total Tags : 491520 Threshold : 12288 Invalid Tags : 196613 Pr0 Tags : 98299 Pr1 Tags : 196608 num_pr0 : 12288
 SAE Count : 0
 Inter-Core Inteference in Data Store : 38519837
Heartbeat CPU 7 instructions: 150000000 cycles: 60000819 heartbeat IPC: 2.48965 cumulative IPC: 2.49997 (Simulation time: 78 hr 27 min 26 sec) 
 Total Blocks : 196608 Invalid Blocks : 0 Valid Blocks : 196608
 Total Tags : 491520 Threshold : 12288 Invalid Tags : 196614 Pr0 Tags : 98298 Pr1 Tags : 196608 num_pr0 : 12286
 SAE Count : 0
 Inter-Core Inteference in Data Store : 38519876
Heartbeat CPU 5 instructions: 150000000 cycles: 60000958 heartbeat IPC: 2.48982 cumulative IPC: 2.49996 (Simulation time: 78 hr 27 min 27 sec) 
 Total Blocks : 196608 Invalid Blocks : 0 Valid Blocks : 196608
 Total Tags : 491520 Threshold : 12288 Invalid Tags : 196612 Pr0 Tags : 98300 Pr1 Tags : 196608 num_pr0 : 12287
 SAE Count : 0
 Inter-Core Inteference in Data Store : 38519960
Heartbeat CPU 3 instructions: 150000000 cycles: 60001237 heartbeat IPC: 2.48971 cumulative IPC: 2.49995 (Simulation time: 78 hr 27 min 29 sec) 
 Total Blocks : 196608 Invalid Blocks : 0 Valid Blocks : 196608
 Total Tags : 491520 Threshold : 12288 Invalid Tags : 196612 Pr0 Tags : 98300 Pr1 Tags : 196608 num_pr0 : 12287
 SAE Count : 0
 Inter-Core Inteference in Data Store : 38520106
Heartbeat CPU 1 instructions: 150000000 cycles: 60003121 heartbeat IPC: 2.48957 cumulative IPC: 2.49987 (Simulation time: 78 hr 27 min 37 sec) 
 Total Blocks : 196608 Invalid Blocks : 0 Valid Blocks : 196608
 Total Tags : 491520 Threshold : 12288 Invalid Tags : 196612 Pr0 Tags : 98300 Pr1 Tags : 196608 num_pr0 : 12288
 SAE Count : 0
 Inter-Core Inteference in Data Store : 38520922
Heartbeat CPU 0 instructions: 150000000 cycles: 60004226 heartbeat IPC: 2.4895 cumulative IPC: 2.49982 (Simulation time: 78 hr 27 min 40 sec) 
 Total Blocks : 196608 Invalid Blocks : 0 Valid Blocks : 196608
 Total Tags : 491520 Threshold : 12288 Invalid Tags : 196611 Pr0 Tags : 98301 Pr1 Tags : 196608 num_pr0 : 12287
 SAE Count : 0
 Inter-Core Inteference in Data Store : 38521344
Heartbeat CPU 6 instructions: 160000000 cycles: 64025253 heartbeat IPC: 2.48444 cumulative IPC: 2.49901 (Simulation time: 86 hr 27 min 14 sec) 
 Total Blocks : 196608 Invalid Blocks : 0 Valid Blocks : 196608
 Total Tags : 491520 Threshold : 12288 Invalid Tags : 196612 Pr0 Tags : 98300 Pr1 Tags : 196608 num_pr0 : 12288
 SAE Count : 0
 Inter-Core Inteference in Data Store : 41147285
Heartbeat CPU 7 instructions: 160000000 cycles: 64026104 heartbeat IPC: 2.4843 cumulative IPC: 2.49898 (Simulation time: 86 hr 27 min 20 sec) 
 Total Blocks : 196608 Invalid Blocks : 0 Valid Blocks : 196608
 Total Tags : 491520 Threshold : 12288 Invalid Tags : 196613 Pr0 Tags : 98299 Pr1 Tags : 196608 num_pr0 : 12286
 SAE Count : 0
 Inter-Core Inteference in Data Store : 41148104
Heartbeat CPU 2 instructions: 160000000 cycles: 64026181 heartbeat IPC: 2.48423 cumulative IPC: 2.49898 (Simulation time: 86 hr 27 min 21 sec) 
 Total Blocks : 196608 Invalid Blocks : 0 Valid Blocks : 196608
 Total Tags : 491520 Threshold : 12288 Invalid Tags : 196612 Pr0 Tags : 98300 Pr1 Tags : 196608 num_pr0 : 12287
 SAE Count : 0
 Inter-Core Inteference in Data Store : 41148215
Heartbeat CPU 4 instructions: 160000000 cycles: 64026211 heartbeat IPC: 2.48415 cumulative IPC: 2.49898 (Simulation time: 86 hr 27 min 21 sec) 
 Total Blocks : 196608 Invalid Blocks : 0 Valid Blocks : 196608
 Total Tags : 491520 Threshold : 12288 Invalid Tags : 196613 Pr0 Tags : 98299 Pr1 Tags : 196608 num_pr0 : 12287
 SAE Count : 0
 Inter-Core Inteference in Data Store : 41148244
Heartbeat CPU 5 instructions: 160000000 cycles: 64026296 heartbeat IPC: 2.48426 cumulative IPC: 2.49897 (Simulation time: 86 hr 27 min 21 sec) 
 Total Blocks : 196608 Invalid Blocks : 0 Valid Blocks : 196608
 Total Tags : 491520 Threshold : 12288 Invalid Tags : 196615 Pr0 Tags : 98297 Pr1 Tags : 196608 num_pr0 : 12287
 SAE Count : 0
 Inter-Core Inteference in Data Store : 41148368
Heartbeat CPU 3 instructions: 160000000 cycles: 64026499 heartbeat IPC: 2.48431 cumulative IPC: 2.49897 (Simulation time: 86 hr 27 min 22 sec) 
 Total Blocks : 196608 Invalid Blocks : 0 Valid Blocks : 196608
 Total Tags : 491520 Threshold : 12288 Invalid Tags : 196613 Pr0 Tags : 98299 Pr1 Tags : 196608 num_pr0 : 12286
 SAE Count : 0
 Inter-Core Inteference in Data Store : 41148626
Heartbeat CPU 1 instructions: 160000000 cycles: 64028591 heartbeat IPC: 2.48418 cumulative IPC: 2.49888 (Simulation time: 86 hr 27 min 35 sec) 
 Total Blocks : 196608 Invalid Blocks : 0 Valid Blocks : 196608
 Total Tags : 491520 Threshold : 12288 Invalid Tags : 196614 Pr0 Tags : 98298 Pr1 Tags : 196608 num_pr0 : 12288
 SAE Count : 0
 Inter-Core Inteference in Data Store : 41150085
Heartbeat CPU 0 instructions: 160000000 cycles: 64029600 heartbeat IPC: 2.48424 cumulative IPC: 2.49884 (Simulation time: 86 hr 27 min 40 sec) 
 Total Blocks : 196608 Invalid Blocks : 0 Valid Blocks : 196608
 Total Tags : 491520 Threshold : 12288 Invalid Tags : 196611 Pr0 Tags : 98301 Pr1 Tags : 196608 num_pr0 : 12288
 SAE Count : 0
 Inter-Core Inteference in Data Store : 41150630
Heartbeat CPU 6 instructions: 170000003 cycles: 68043213 heartbeat IPC: 2.48883 cumulative IPC: 2.49841 (Simulation time: 93 hr 35 min 1 sec) 
 Total Blocks : 196608 Invalid Blocks : 0 Valid Blocks : 196608
 Total Tags : 491520 Threshold : 12288 Invalid Tags : 196609 Pr0 Tags : 98303 Pr1 Tags : 196608 num_pr0 : 12287
 SAE Count : 0
 Inter-Core Inteference in Data Store : 43747667
Heartbeat CPU 5 instructions: 170000003 cycles: 68043806 heartbeat IPC: 2.4891 cumulative IPC: 2.49839 (Simulation time: 93 hr 35 min 3 sec) 
 Total Blocks : 196608 Invalid Blocks : 0 Valid Blocks : 196608
 Total Tags : 491520 Threshold : 12288 Invalid Tags : 196612 Pr0 Tags : 98300 Pr1 Tags : 196608 num_pr0 : 12288
 SAE Count : 0
 Inter-Core Inteference in Data Store : 43748152
Heartbeat CPU 4 instructions: 170000003 cycles: 68043859 heartbeat IPC: 2.48902 cumulative IPC: 2.49839 (Simulation time: 93 hr 35 min 3 sec) 
 Total Blocks : 196608 Invalid Blocks : 0 Valid Blocks : 196608
 Total Tags : 491520 Threshold : 12288 Invalid Tags : 196610 Pr0 Tags : 98302 Pr1 Tags : 196608 num_pr0 : 12288
 SAE Count : 0
 Inter-Core Inteference in Data Store : 43748188
Heartbeat CPU 3 instructions: 170000003 cycles: 68043955 heartbeat IPC: 2.48914 cumulative IPC: 2.49839 (Simulation time: 93 hr 35 min 4 sec) 
 Total Blocks : 196608 Invalid Blocks : 0 Valid Blocks : 196608
 Total Tags : 491520 Threshold : 12288 Invalid Tags : 196612 Pr0 Tags : 98300 Pr1 Tags : 196608 num_pr0 : 12286
 SAE Count : 0
 Inter-Core Inteference in Data Store : 43748245
Heartbeat CPU 7 instructions: 170000003 cycles: 68044131 heartbeat IPC: 2.48878 cumulative IPC: 2.49838 (Simulation time: 93 hr 35 min 6 sec) 
 Total Blocks : 196608 Invalid Blocks : 0 Valid Blocks : 196608
 Total Tags : 491520 Threshold : 12288 Invalid Tags : 196612 Pr0 Tags : 98300 Pr1 Tags : 196608 num_pr0 : 12287
 SAE Count : 0
 Inter-Core Inteference in Data Store : 43748428
Heartbeat CPU 2 instructions: 170000003 cycles: 68044705 heartbeat IPC: 2.48848 cumulative IPC: 2.49836 (Simulation time: 93 hr 35 min 9 sec) 
 Total Blocks : 196608 Invalid Blocks : 0 Valid Blocks : 196608
 Total Tags : 491520 Threshold : 12288 Invalid Tags : 196609 Pr0 Tags : 98303 Pr1 Tags : 196608 num_pr0 : 12288
 SAE Count : 0
 Inter-Core Inteference in Data Store : 43748883
Heartbeat CPU 1 instructions: 170000003 cycles: 68046686 heartbeat IPC: 2.48874 cumulative IPC: 2.49828 (Simulation time: 93 hr 35 min 19 sec) 
 Total Blocks : 196608 Invalid Blocks : 0 Valid Blocks : 196608
 Total Tags : 491520 Threshold : 12288 Invalid Tags : 196610 Pr0 Tags : 98302 Pr1 Tags : 196608 num_pr0 : 12288
 SAE Count : 0
 Inter-Core Inteference in Data Store : 43750077
Heartbeat CPU 0 instructions: 170000003 cycles: 68047684 heartbeat IPC: 2.48875 cumulative IPC: 2.49825 (Simulation time: 93 hr 35 min 26 sec) 
 Total Blocks : 196608 Invalid Blocks : 0 Valid Blocks : 196608
 Total Tags : 491520 Threshold : 12288 Invalid Tags : 196615 Pr0 Tags : 98297 Pr1 Tags : 196608 num_pr0 : 12287
 SAE Count : 0
 Inter-Core Inteference in Data Store : 43750958
Heartbeat CPU 6 instructions: 180000003 cycles: 72057176 heartbeat IPC: 2.4913 cumulative IPC: 2.49802 (Simulation time: 100 hr 3 min 15 sec) 
 Total Blocks : 196608 Invalid Blocks : 0 Valid Blocks : 196608
 Total Tags : 491520 Threshold : 12288 Invalid Tags : 196615 Pr0 Tags : 98297 Pr1 Tags : 196608 num_pr0 : 12287
 SAE Count : 0
 Inter-Core Inteference in Data Store : 46335205
Heartbeat CPU 5 instructions: 180000003 cycles: 72057509 heartbeat IPC: 2.49146 cumulative IPC: 2.498 (Simulation time: 100 hr 3 min 17 sec) 
 Total Blocks : 196608 Invalid Blocks : 0 Valid Blocks : 196608
 Total Tags : 491520 Threshold : 12288 Invalid Tags : 196614 Pr0 Tags : 98298 Pr1 Tags : 196608 num_pr0 : 12287
 SAE Count : 0
 Inter-Core Inteference in Data Store : 46335283
Heartbeat CPU 4 instructions: 180000003 cycles: 72057555 heartbeat IPC: 2.49147 cumulative IPC: 2.498 (Simulation time: 100 hr 3 min 17 sec) 
 Total Blocks : 196608 Invalid Blocks : 0 Valid Blocks : 196608
 Total Tags : 491520 Threshold : 12288 Invalid Tags : 196615 Pr0 Tags : 98297 Pr1 Tags : 196608 num_pr0 : 12286
 SAE Count : 0
 Inter-Core Inteference in Data Store : 46335299
Heartbeat CPU 3 instructions: 180000003 cycles: 72057616 heartbeat IPC: 2.49149 cumulative IPC: 2.498 (Simulation time: 100 hr 3 min 17 sec) 
 Total Blocks : 196608 Invalid Blocks : 0 Valid Blocks : 196608
 Total Tags : 491520 Threshold : 12288 Invalid Tags : 196612 Pr0 Tags : 98300 Pr1 Tags : 196608 num_pr0 : 12288
 SAE Count : 0
 Inter-Core Inteference in Data Store : 46335307
Heartbeat CPU 7 instructions: 180000003 cycles: 72057999 heartbeat IPC: 2.49136 cumulative IPC: 2.49799 (Simulation time: 100 hr 3 min 17 sec) 
 Total Blocks : 196608 Invalid Blocks : 0 Valid Blocks : 196608
 Total Tags : 491520 Threshold : 12288 Invalid Tags : 196611 Pr0 Tags : 98301 Pr1 Tags : 196608 num_pr0 : 12286
 SAE Count : 0
 Inter-Core Inteference in Data Store : 46335400
Heartbeat CPU 2 instructions: 180000003 cycles: 72058302 heartbeat IPC: 2.49153 cumulative IPC: 2.49798 (Simulation time: 100 hr 3 min 18 sec) 
 Total Blocks : 196608 Invalid Blocks : 0 Valid Blocks : 196608
 Total Tags : 491520 Threshold : 12288 Invalid Tags : 196614 Pr0 Tags : 98298 Pr1 Tags : 196608 num_pr0 : 12287
 SAE Count : 0
 Inter-Core Inteference in Data Store : 46335473
Heartbeat CPU 1 instructions: 180000003 cycles: 72060701 heartbeat IPC: 2.49127 cumulative IPC: 2.49789 (Simulation time: 100 hr 3 min 25 sec) 
 Total Blocks : 196608 Invalid Blocks : 0 Valid Blocks : 196608
 Total Tags : 491520 Threshold : 12288 Invalid Tags : 196609 Pr0 Tags : 98303 Pr1 Tags : 196608 num_pr0 : 12288
 SAE Count : 0
 Inter-Core Inteference in Data Store : 46336086
Heartbeat CPU 0 instructions: 180000003 cycles: 72061562 heartbeat IPC: 2.49136 cumulative IPC: 2.49786 (Simulation time: 100 hr 3 min 29 sec) 
 Total Blocks : 196608 Invalid Blocks : 0 Valid Blocks : 196608
 Total Tags : 491520 Threshold : 12288 Invalid Tags : 196612 Pr0 Tags : 98300 Pr1 Tags : 196608 num_pr0 : 12286
 SAE Count : 0
 Inter-Core Inteference in Data Store : 46336291
Heartbeat CPU 6 instructions: 190000001 cycles: 76078839 heartbeat IPC: 2.48653 cumulative IPC: 2.49741 (Simulation time: 106 hr 25 min 34 sec) 
 Total Blocks : 196608 Invalid Blocks : 0 Valid Blocks : 196608
 Total Tags : 491520 Threshold : 12288 Invalid Tags : 196609 Pr0 Tags : 98303 Pr1 Tags : 196608 num_pr0 : 12288
 SAE Count : 0
 Inter-Core Inteference in Data Store : 48944134
Heartbeat CPU 3 instructions: 190000001 cycles: 76079076 heartbeat IPC: 2.48666 cumulative IPC: 2.4974 (Simulation time: 106 hr 25 min 35 sec) 
 Total Blocks : 196608 Invalid Blocks : 0 Valid Blocks : 196608
 Total Tags : 491520 Threshold : 12288 Invalid Tags : 196610 Pr0 Tags : 98302 Pr1 Tags : 196608 num_pr0 : 12288
 SAE Count : 0
 Inter-Core Inteference in Data Store : 48944340
Heartbeat CPU 4 instructions: 190000001 cycles: 76079118 heartbeat IPC: 2.48659 cumulative IPC: 2.4974 (Simulation time: 106 hr 25 min 35 sec) 
 Total Blocks : 196608 Invalid Blocks : 0 Valid Blocks : 196608
 Total Tags : 491520 Threshold : 12288 Invalid Tags : 196611 Pr0 Tags : 98301 Pr1 Tags : 196608 num_pr0 : 12288
 SAE Count : 0
 Inter-Core Inteference in Data Store : 48944382
Heartbeat CPU 5 instructions: 190000001 cycles: 76079326 heartbeat IPC: 2.48644 cumulative IPC: 2.49739 (Simulation time: 106 hr 25 min 35 sec) 
 Total Blocks : 196608 Invalid Blocks : 0 Valid Blocks : 196608
 Total Tags : 491520 Threshold : 12288 Invalid Tags : 196612 Pr0 Tags : 98300 Pr1 Tags : 196608 num_pr0 : 12287
 SAE Count : 0
 Inter-Core Inteference in Data Store : 48944535
Heartbeat CPU 2 instructions: 190000001 cycles: 76079684 heartbeat IPC: 2.48671 cumulative IPC: 2.49738 (Simulation time: 106 hr 25 min 37 sec) 
 Total Blocks : 196608 Invalid Blocks : 0 Valid Blocks : 196608
 Total Tags : 491520 Threshold : 12288 Invalid Tags : 196612 Pr0 Tags : 98300 Pr1 Tags : 196608 num_pr0 : 12288
 SAE Count : 0
 Inter-Core Inteference in Data Store : 48944859
Heartbeat CPU 7 instructions: 190000001 cycles: 76079800 heartbeat IPC: 2.48645 cumulative IPC: 2.49738 (Simulation time: 106 hr 25 min 39 sec) 
 Total Blocks : 196608 Invalid Blocks : 0 Valid Blocks : 196608
 Total Tags : 491520 Threshold : 12288 Invalid Tags : 196612 Pr0 Tags : 98300 Pr1 Tags : 196608 num_pr0 : 12288
 SAE Count : 0
 Inter-Core Inteference in Data Store : 48944950
Heartbeat CPU 1 instructions: 190000001 cycles: 76082355 heartbeat IPC: 2.48654 cumulative IPC: 2.49729 (Simulation time: 106 hr 25 min 53 sec) 
 Total Blocks : 196608 Invalid Blocks : 0 Valid Blocks : 196608
 Total Tags : 491520 Threshold : 12288 Invalid Tags : 196617 Pr0 Tags : 98295 Pr1 Tags : 196608 num_pr0 : 12287
 SAE Count : 0
 Inter-Core Inteference in Data Store : 48946421
Heartbeat CPU 0 instructions: 190000001 cycles: 76083626 heartbeat IPC: 2.48629 cumulative IPC: 2.49725 (Simulation time: 106 hr 26 min 2 sec) 
 Total Blocks : 196608 Invalid Blocks : 0 Valid Blocks : 196608
 Total Tags : 491520 Threshold : 12288 Invalid Tags : 196611 Pr0 Tags : 98301 Pr1 Tags : 196608 num_pr0 : 12288
 SAE Count : 0
 Inter-Core Inteference in Data Store : 48947482
Heartbeat CPU 3 instructions: 200000001 cycles: 80089897 heartbeat IPC: 2.49326 cumulative IPC: 2.49719 (Simulation time: 112 hr 46 min 18 sec) 
 Total Blocks : 196608 Invalid Blocks : 0 Valid Blocks : 196608
 Total Tags : 491520 Threshold : 12288 Invalid Tags : 196614 Pr0 Tags : 98298 Pr1 Tags : 196608 num_pr0 : 12287
 SAE Count : 0
 Inter-Core Inteference in Data Store : 51540508
Heartbeat CPU 6 instructions: 200000001 cycles: 80089917 heartbeat IPC: 2.4931 cumulative IPC: 2.49719 (Simulation time: 112 hr 46 min 18 sec) 
 Total Blocks : 196608 Invalid Blocks : 0 Valid Blocks : 196608
 Total Tags : 491520 Threshold : 12288 Invalid Tags : 196614 Pr0 Tags : 98298 Pr1 Tags : 196608 num_pr0 : 12287
 SAE Count : 0
 Inter-Core Inteference in Data Store : 51540511
Heartbeat CPU 5 instructions: 200000001 cycles: 80090340 heartbeat IPC: 2.49314 cumulative IPC: 2.49718 (Simulation time: 112 hr 46 min 20 sec) 
 Total Blocks : 196608 Invalid Blocks : 0 Valid Blocks : 196608
 Total Tags : 491520 Threshold : 12288 Invalid Tags : 196611 Pr0 Tags : 98301 Pr1 Tags : 196608 num_pr0 : 12288
 SAE Count : 0
 Inter-Core Inteference in Data Store : 51540813
Heartbeat CPU 4 instructions: 200000001 cycles: 80090393 heartbeat IPC: 2.49297 cumulative IPC: 2.49718 (Simulation time: 112 hr 46 min 21 sec) 
 Total Blocks : 196608 Invalid Blocks : 0 Valid Blocks : 196608
 Total Tags : 491520 Threshold : 12288 Invalid Tags : 196614 Pr0 Tags : 98298 Pr1 Tags : 196608 num_pr0 : 12287
 SAE Count : 0
 Inter-Core Inteference in Data Store : 51540845
Heartbeat CPU 2 instructions: 200000001 cycles: 80090414 heartbeat IPC: 2.49331 cumulative IPC: 2.49718 (Simulation time: 112 hr 46 min 21 sec) 
 Total Blocks : 196608 Invalid Blocks : 0 Valid Blocks : 196608
 Total Tags : 491520 Threshold : 12288 Invalid Tags : 196612 Pr0 Tags : 98300 Pr1 Tags : 196608 num_pr0 : 12287
 SAE Count : 0
 Inter-Core Inteference in Data Store : 51540848
Heartbeat CPU 7 instructions: 200000001 cycles: 80090591 heartbeat IPC: 2.49327 cumulative IPC: 2.49717 (Simulation time: 112 hr 46 min 21 sec) 
 Total Blocks : 196608 Invalid Blocks : 0 Valid Blocks : 196608
 Total Tags : 491520 Threshold : 12288 Invalid Tags : 196610 Pr0 Tags : 98302 Pr1 Tags : 196608 num_pr0 : 12288
 SAE Count : 0
 Inter-Core Inteference in Data Store : 51540971
Heartbeat CPU 1 instructions: 200000001 cycles: 80093732 heartbeat IPC: 2.49291 cumulative IPC: 2.49707 (Simulation time: 112 hr 46 min 39 sec) 
 Total Blocks : 196608 Invalid Blocks : 0 Valid Blocks : 196608
 Total Tags : 491520 Threshold : 12288 Invalid Tags : 196613 Pr0 Tags : 98299 Pr1 Tags : 196608 num_pr0 : 12288
 SAE Count : 0
 Inter-Core Inteference in Data Store : 51542858
Heartbeat CPU 0 instructions: 200000001 cycles: 80094870 heartbeat IPC: 2.49299 cumulative IPC: 2.49704 (Simulation time: 112 hr 46 min 47 sec) 
 Total Blocks : 196608 Invalid Blocks : 0 Valid Blocks : 196608
 Total Tags : 491520 Threshold : 12288 Invalid Tags : 196610 Pr0 Tags : 98302 Pr1 Tags : 196608 num_pr0 : 12288
 SAE Count : 0
 Inter-Core Inteference in Data Store : 51543827

Warmup complete CPU 0 instructions: 200000001 cycles: 80094870 (Simulation time: 112 hr 46 min 48 sec) 
Warmup complete CPU 1 instructions: 200001918 cycles: 80094869 (Simulation time: 112 hr 46 min 48 sec) 
Warmup complete CPU 2 instructions: 200010333 cycles: 80094869 (Simulation time: 112 hr 46 min 48 sec) 
Warmup complete CPU 3 instructions: 200011492 cycles: 80094869 (Simulation time: 112 hr 46 min 48 sec) 
Warmup complete CPU 4 instructions: 200010377 cycles: 80094869 (Simulation time: 112 hr 46 min 48 sec) 
Warmup complete CPU 5 instructions: 200010574 cycles: 80094869 (Simulation time: 112 hr 46 min 48 sec) 
Warmup complete CPU 6 instructions: 200011484 cycles: 80094869 (Simulation time: 112 hr 46 min 48 sec) 
Warmup complete CPU 7 instructions: 200009777 cycles: 80094869 (Simulation time: 112 hr 46 min 48 sec) 

Heartbeat CPU 1 instructions: 210000001 cycles: 156307201 heartbeat IPC: 0.13121 cumulative IPC: 0.131187 (Simulation time: 125 hr 34 min 36 sec) 
 Total Blocks : 196608 Invalid Blocks : 0 Valid Blocks : 196608
 Total Tags : 491520 Threshold : 12288 Invalid Tags : 196611 Pr0 Tags : 98301 Pr1 Tags : 196608 num_pr0 : 12287
 SAE Count : 0
 Inter-Core Inteference in Data Store : 2617072
Heartbeat CPU 3 instructions: 210000000 cycles: 156361028 heartbeat IPC: 0.131111 cumulative IPC: 0.130969 (Simulation time: 125 hr 35 min 0 sec) 
 Total Blocks : 196608 Invalid Blocks : 0 Valid Blocks : 196608
 Total Tags : 491520 Threshold : 12288 Invalid Tags : 196611 Pr0 Tags : 98301 Pr1 Tags : 196608 num_pr0 : 12288
 SAE Count : 0
 Inter-Core Inteference in Data Store : 2618883
Heartbeat CPU 6 instructions: 210000001 cycles: 156657319 heartbeat IPC: 0.130604 cumulative IPC: 0.130462 (Simulation time: 125 hr 37 min 27 sec) 
 Total Blocks : 196608 Invalid Blocks : 0 Valid Blocks : 196608
 Total Tags : 491520 Threshold : 12288 Invalid Tags : 196610 Pr0 Tags : 98302 Pr1 Tags : 196608 num_pr0 : 12288
 SAE Count : 0
 Inter-Core Inteference in Data Store : 2628900
Heartbeat CPU 0 instructions: 210000000 cycles: 156674087 heartbeat IPC: 0.130584 cumulative IPC: 0.130584 (Simulation time: 125 hr 37 min 36 sec) 
 Total Blocks : 196608 Invalid Blocks : 0 Valid Blocks : 196608
 Total Tags : 491520 Threshold : 12288 Invalid Tags : 196612 Pr0 Tags : 98300 Pr1 Tags : 196608 num_pr0 : 12288
 SAE Count : 0
 Inter-Core Inteference in Data Store : 2629467
Heartbeat CPU 2 instructions: 210000000 cycles: 156716711 heartbeat IPC: 0.130503 cumulative IPC: 0.130376 (Simulation time: 125 hr 37 min 57 sec) 
 Total Blocks : 196608 Invalid Blocks : 0 Valid Blocks : 196608
 Total Tags : 491520 Threshold : 12288 Invalid Tags : 196613 Pr0 Tags : 98299 Pr1 Tags : 196608 num_pr0 : 12288
 SAE Count : 0
 Inter-Core Inteference in Data Store : 2630895
Heartbeat CPU 5 instructions: 210000000 cycles: 157080874 heartbeat IPC: 0.129886 cumulative IPC: 0.129756 (Simulation time: 125 hr 41 min 13 sec) 
 Total Blocks : 196608 Invalid Blocks : 0 Valid Blocks : 196608
 Total Tags : 491520 Threshold : 12288 Invalid Tags : 196612 Pr0 Tags : 98300 Pr1 Tags : 196608 num_pr0 : 12287
 SAE Count : 0
 Inter-Core Inteference in Data Store : 2642856
Heartbeat CPU 7 instructions: 210000000 cycles: 157586492 heartbeat IPC: 0.129039 cumulative IPC: 0.12892 (Simulation time: 125 hr 45 min 36 sec) 
 Total Blocks : 196608 Invalid Blocks : 0 Valid Blocks : 196608
 Total Tags : 491520 Threshold : 12288 Invalid Tags : 196614 Pr0 Tags : 98298 Pr1 Tags : 196608 num_pr0 : 12286
 SAE Count : 0
 Inter-Core Inteference in Data Store : 2659519
Heartbeat CPU 4 instructions: 210000001 cycles: 158008752 heartbeat IPC: 0.128339 cumulative IPC: 0.128214 (Simulation time: 125 hr 49 min 10 sec) 
 Total Blocks : 196608 Invalid Blocks : 0 Valid Blocks : 196608
 Total Tags : 491520 Threshold : 12288 Invalid Tags : 196611 Pr0 Tags : 98301 Pr1 Tags : 196608 num_pr0 : 12288
 SAE Count : 0
 Inter-Core Inteference in Data Store : 2674089
Heartbeat CPU 3 instructions: 220000000 cycles: 234419050 heartbeat IPC: 0.12811 cumulative IPC: 0.129523 (Simulation time: 135 hr 51 min 24 sec) 
 Total Blocks : 196608 Invalid Blocks : 0 Valid Blocks : 196608
 Total Tags : 491520 Threshold : 12288 Invalid Tags : 196617 Pr0 Tags : 98295 Pr1 Tags : 196608 num_pr0 : 12286
 SAE Count : 0
 Inter-Core Inteference in Data Store : 5235834
Heartbeat CPU 1 instructions: 220000000 cycles: 234665995 heartbeat IPC: 0.127618 cumulative IPC: 0.129378 (Simulation time: 135 hr 53 min 11 sec) 
 Total Blocks : 196608 Invalid Blocks : 0 Valid Blocks : 196608
 Total Tags : 491520 Threshold : 12288 Invalid Tags : 196615 Pr0 Tags : 98297 Pr1 Tags : 196608 num_pr0 : 12287
 SAE Count : 0
 Inter-Core Inteference in Data Store : 5244362
Heartbeat CPU 0 instructions: 220000000 cycles: 234687958 heartbeat IPC: 0.128182 cumulative IPC: 0.129372 (Simulation time: 135 hr 53 min 19 sec) 
 Total Blocks : 196608 Invalid Blocks : 0 Valid Blocks : 196608
 Total Tags : 491520 Threshold : 12288 Invalid Tags : 196611 Pr0 Tags : 98301 Pr1 Tags : 196608 num_pr0 : 12288
 SAE Count : 0
 Inter-Core Inteference in Data Store : 5245089
Heartbeat CPU 6 instructions: 220000000 cycles: 234772210 heartbeat IPC: 0.128017 cumulative IPC: 0.129227 (Simulation time: 135 hr 54 min 4 sec) 
 Total Blocks : 196608 Invalid Blocks : 0 Valid Blocks : 196608
 Total Tags : 491520 Threshold : 12288 Invalid Tags : 196610 Pr0 Tags : 98302 Pr1 Tags : 196608 num_pr0 : 12287
 SAE Count : 0
 Inter-Core Inteference in Data Store : 5247906
Heartbeat CPU 2 instructions: 220000000 cycles: 235723105 heartbeat IPC: 0.126572 cumulative IPC: 0.128445 (Simulation time: 136 hr 1 min 7 sec) 
 Total Blocks : 196608 Invalid Blocks : 0 Valid Blocks : 196608
 Total Tags : 491520 Threshold : 12288 Invalid Tags : 196614 Pr0 Tags : 98298 Pr1 Tags : 196608 num_pr0 : 12288
 SAE Count : 0
 Inter-Core Inteference in Data Store : 5279819
Heartbeat CPU 5 instructions: 220000000 cycles: 235908881 heartbeat IPC: 0.126858 cumulative IPC: 0.12829 (Simulation time: 136 hr 2 min 37 sec) 
 Total Blocks : 196608 Invalid Blocks : 0 Valid Blocks : 196608
 Total Tags : 491520 Threshold : 12288 Invalid Tags : 196616 Pr0 Tags : 98296 Pr1 Tags : 196608 num_pr0 : 12287
 SAE Count : 0
 Inter-Core Inteference in Data Store : 5286209
Heartbeat CPU 7 instructions: 220000000 cycles: 236252387 heartbeat IPC: 0.12712 cumulative IPC: 0.128013 (Simulation time: 136 hr 5 min 21 sec) 
 Total Blocks : 196608 Invalid Blocks : 0 Valid Blocks : 196608
 Total Tags : 491520 Threshold : 12288 Invalid Tags : 196609 Pr0 Tags : 98303 Pr1 Tags : 196608 num_pr0 : 12288
 SAE Count : 0
 Inter-Core Inteference in Data Store : 5297401
Heartbeat CPU 4 instructions: 220000000 cycles: 236674167 heartbeat IPC: 0.127121 cumulative IPC: 0.127665 (Simulation time: 136 hr 8 min 37 sec) 
 Total Blocks : 196608 Invalid Blocks : 0 Valid Blocks : 196608
 Total Tags : 491520 Threshold : 12288 Invalid Tags : 196610 Pr0 Tags : 98302 Pr1 Tags : 196608 num_pr0 : 12288
 SAE Count : 0
 Inter-Core Inteference in Data Store : 5311358
Heartbeat CPU 3 instructions: 230000003 cycles: 311387593 heartbeat IPC: 0.129923 cumulative IPC: 0.129656 (Simulation time: 144 hr 31 min 26 sec) 
 Total Blocks : 196608 Invalid Blocks : 0 Valid Blocks : 196608
 Total Tags : 491520 Threshold : 12288 Invalid Tags : 196616 Pr0 Tags : 98296 Pr1 Tags : 196608 num_pr0 : 12287
 SAE Count : 0
 Inter-Core Inteference in Data Store : 7835529
Heartbeat CPU 1 instructions: 230000003 cycles: 311429909 heartbeat IPC: 0.13027 cumulative IPC: 0.129674 (Simulation time: 144 hr 31 min 42 sec) 
 Total Blocks : 196608 Invalid Blocks : 0 Valid Blocks : 196608
 Total Tags : 491520 Threshold : 12288 Invalid Tags : 196610 Pr0 Tags : 98302 Pr1 Tags : 196608 num_pr0 : 12288
 SAE Count : 0
 Inter-Core Inteference in Data Store : 7836995
Heartbeat CPU 0 instructions: 230000003 cycles: 311498350 heartbeat IPC: 0.130191 cumulative IPC: 0.129644 (Simulation time: 144 hr 32 min 8 sec) 
 Total Blocks : 196608 Invalid Blocks : 0 Valid Blocks : 196608
 Total Tags : 491520 Threshold : 12288 Invalid Tags : 196617 Pr0 Tags : 98295 Pr1 Tags : 196608 num_pr0 : 12286
 SAE Count : 0
 Inter-Core Inteference in Data Store : 7839223
Heartbeat CPU 6 instructions: 230000003 cycles: 311608986 heartbeat IPC: 0.130146 cumulative IPC: 0.129532 (Simulation time: 144 hr 32 min 48 sec) 
 Total Blocks : 196608 Invalid Blocks : 0 Valid Blocks : 196608
 Total Tags : 491520 Threshold : 12288 Invalid Tags : 196614 Pr0 Tags : 98298 Pr1 Tags : 196608 num_pr0 : 12287
 SAE Count : 0
 Inter-Core Inteference in Data Store : 7842935
Heartbeat CPU 7 instructions: 230000003 cycles: 312950564 heartbeat IPC: 0.130381 cumulative IPC: 0.128793 (Simulation time: 144 hr 40 min 28 sec) 
 Total Blocks : 196608 Invalid Blocks : 0 Valid Blocks : 196608
 Total Tags : 491520 Threshold : 12288 Invalid Tags : 196612 Pr0 Tags : 98300 Pr1 Tags : 196608 num_pr0 : 12287
 SAE Count : 0
 Inter-Core Inteference in Data Store : 7888145
Heartbeat CPU 5 instructions: 230000003 cycles: 312970776 heartbeat IPC: 0.129766 cumulative IPC: 0.128779 (Simulation time: 144 hr 40 min 34 sec) 
 Total Blocks : 196608 Invalid Blocks : 0 Valid Blocks : 196608
 Total Tags : 491520 Threshold : 12288 Invalid Tags : 196615 Pr0 Tags : 98297 Pr1 Tags : 196608 num_pr0 : 12286
 SAE Count : 0
 Inter-Core Inteference in Data Store : 7888796
Heartbeat CPU 2 instructions: 230000003 cycles: 313402733 heartbeat IPC: 0.128734 cumulative IPC: 0.128541 (Simulation time: 144 hr 42 min 59 sec) 
 Total Blocks : 196608 Invalid Blocks : 0 Valid Blocks : 196608
 Total Tags : 491520 Threshold : 12288 Invalid Tags : 196610 Pr0 Tags : 98302 Pr1 Tags : 196608 num_pr0 : 12288
 SAE Count : 0
 Inter-Core Inteference in Data Store : 7903433
Heartbeat CPU 4 instructions: 230000003 cycles: 313469408 heartbeat IPC: 0.130216 cumulative IPC: 0.128504 (Simulation time: 144 hr 43 min 22 sec) 
 Total Blocks : 196608 Invalid Blocks : 0 Valid Blocks : 196608
 Total Tags : 491520 Threshold : 12288 Invalid Tags : 196613 Pr0 Tags : 98299 Pr1 Tags : 196608 num_pr0 : 12288
 SAE Count : 0
 Inter-Core Inteference in Data Store : 7905599
Heartbeat CPU 3 instructions: 240000000 cycles: 388400656 heartbeat IPC: 0.129848 cumulative IPC: 0.129704 (Simulation time: 151 hr 43 min 6 sec) 
 Total Blocks : 196608 Invalid Blocks : 0 Valid Blocks : 196608
 Total Tags : 491520 Threshold : 12288 Invalid Tags : 196615 Pr0 Tags : 98297 Pr1 Tags : 196608 num_pr0 : 12287
 SAE Count : 0
 Inter-Core Inteference in Data Store : 10431377
Heartbeat CPU 1 instructions: 240000000 cycles: 388440094 heartbeat IPC: 0.129853 cumulative IPC: 0.129719 (Simulation time: 151 hr 43 min 15 sec) 
 Total Blocks : 196608 Invalid Blocks : 0 Valid Blocks : 196608
 Total Tags : 491520 Threshold : 12288 Invalid Tags : 196612 Pr0 Tags : 98300 Pr1 Tags : 196608 num_pr0 : 12287
 SAE Count : 0
 Inter-Core Inteference in Data Store : 10432679
Heartbeat CPU 6 instructions: 240000001 cycles: 388483251 heartbeat IPC: 0.130083 cumulative IPC: 0.129669 (Simulation time: 151 hr 43 min 27 sec) 
 Total Blocks : 196608 Invalid Blocks : 0 Valid Blocks : 196608
 Total Tags : 491520 Threshold : 12288 Invalid Tags : 196610 Pr0 Tags : 98302 Pr1 Tags : 196608 num_pr0 : 12288
 SAE Count : 0
 Inter-Core Inteference in Data Store : 10434215
Heartbeat CPU 0 instructions: 240000001 cycles: 388957696 heartbeat IPC: 0.1291 cumulative IPC: 0.129507 (Simulation time: 151 hr 45 min 51 sec) 
 Total Blocks : 196608 Invalid Blocks : 0 Valid Blocks : 196608
 Total Tags : 491520 Threshold : 12288 Invalid Tags : 196614 Pr0 Tags : 98298 Pr1 Tags : 196608 num_pr0 : 12288
 SAE Count : 0
 Inter-Core Inteference in Data Store : 10449959
Heartbeat CPU 7 instructions: 240000001 cycles: 389889235 heartbeat IPC: 0.129974 cumulative IPC: 0.129086 (Simulation time: 151 hr 50 min 29 sec) 
 Total Blocks : 196608 Invalid Blocks : 0 Valid Blocks : 196608
 Total Tags : 491520 Threshold : 12288 Invalid Tags : 196611 Pr0 Tags : 98301 Pr1 Tags : 196608 num_pr0 : 12287
 SAE Count : 0
 Inter-Core Inteference in Data Store : 10481588
Heartbeat CPU 5 instructions: 240000000 cycles: 391231979 heartbeat IPC: 0.127777 cumulative IPC: 0.128527 (Simulation time: 151 hr 57 min 21 sec) 
 Total Blocks : 196608 Invalid Blocks : 0 Valid Blocks : 196608
 Total Tags : 491520 Threshold : 12288 Invalid Tags : 196614 Pr0 Tags : 98298 Pr1 Tags : 196608 num_pr0 : 12288
 SAE Count : 0
 Inter-Core Inteference in Data Store : 10527114
Heartbeat CPU 4 instructions: 240000000 cycles: 391251596 heartbeat IPC: 0.128564 cumulative IPC: 0.128519 (Simulation time: 151 hr 57 min 27 sec) 
 Total Blocks : 196608 Invalid Blocks : 0 Valid Blocks : 196608
 Total Tags : 491520 Threshold : 12288 Invalid Tags : 196614 Pr0 Tags : 98298 Pr1 Tags : 196608 num_pr0 : 12286
 SAE Count : 0
 Inter-Core Inteference in Data Store : 10527749
Heartbeat CPU 2 instructions: 240000000 cycles: 392202539 heartbeat IPC: 0.126904 cumulative IPC: 0.128128 (Simulation time: 152 hr 2 min 30 sec) 
 Total Blocks : 196608 Invalid Blocks : 0 Valid Blocks : 196608
 Total Tags : 491520 Threshold : 12288 Invalid Tags : 196612 Pr0 Tags : 98300 Pr1 Tags : 196608 num_pr0 : 12287
 SAE Count : 0
 Inter-Core Inteference in Data Store : 10559808
Heartbeat CPU 6 instructions: 250000001 cycles: 463935125 heartbeat IPC: 0.132535 cumulative IPC: 0.130233 (Simulation time: 157 hr 58 min 50 sec) 
 Total Blocks : 196608 Invalid Blocks : 0 Valid Blocks : 196608
 Total Tags : 491520 Threshold : 12288 Invalid Tags : 196618 Pr0 Tags : 98294 Pr1 Tags : 196608 num_pr0 : 12286
 SAE Count : 0
 Inter-Core Inteference in Data Store : 12965214
Heartbeat CPU 3 instructions: 250000000 cycles: 463998900 heartbeat IPC: 0.132278 cumulative IPC: 0.130211 (Simulation time: 157 hr 59 min 9 sec) 
 Total Blocks : 196608 Invalid Blocks : 0 Valid Blocks : 196608
 Total Tags : 491520 Threshold : 12288 Invalid Tags : 196610 Pr0 Tags : 98302 Pr1 Tags : 196608 num_pr0 : 12287
 SAE Count : 0
 Inter-Core Inteference in Data Store : 12967385
Heartbeat CPU 1 instructions: 250000000 cycles: 464125567 heartbeat IPC: 0.132126 cumulative IPC: 0.130193 (Simulation time: 157 hr 59 min 46 sec) 
 Total Blocks : 196608 Invalid Blocks : 0 Valid Blocks : 196608
 Total Tags : 491520 Threshold : 12288 Invalid Tags : 196611 Pr0 Tags : 98301 Pr1 Tags : 196608 num_pr0 : 12287
 SAE Count : 0
 Inter-Core Inteference in Data Store : 12971622
Heartbeat CPU 0 instructions: 250000001 cycles: 465241628 heartbeat IPC: 0.131089 cumulative IPC: 0.129821 (Simulation time: 158 hr 4 min 53 sec) 
 Total Blocks : 196608 Invalid Blocks : 0 Valid Blocks : 196608
 Total Tags : 491520 Threshold : 12288 Invalid Tags : 196618 Pr0 Tags : 98294 Pr1 Tags : 196608 num_pr0 : 12286
 SAE Count : 0
 Inter-Core Inteference in Data Store : 13009228
Heartbeat CPU 7 instructions: 250000000 cycles: 465356397 heartbeat IPC: 0.132508 cumulative IPC: 0.129757 (Simulation time: 158 hr 5 min 32 sec) 
 Total Blocks : 196608 Invalid Blocks : 0 Valid Blocks : 196608
 Total Tags : 491520 Threshold : 12288 Invalid Tags : 196612 Pr0 Tags : 98300 Pr1 Tags : 196608 num_pr0 : 12287
 SAE Count : 0
 Inter-Core Inteference in Data Store : 13012994
Heartbeat CPU 4 instructions: 250000000 cycles: 467422533 heartbeat IPC: 0.131284 cumulative IPC: 0.129063 (Simulation time: 158 hr 15 min 19 sec) 
 Total Blocks : 196608 Invalid Blocks : 0 Valid Blocks : 196608
 Total Tags : 491520 Threshold : 12288 Invalid Tags : 196610 Pr0 Tags : 98302 Pr1 Tags : 196608 num_pr0 : 12288
 SAE Count : 0
[...]
LLC4 TOTAL     ACCESS: 2328351  HIT: 237413  MISS: 2090938  HIT %: 10.1966  MISS %: 89.8034  AVERAGE MISS PENALTY: 1320.99
LLC4 LOAD      ACCESS: 40199  HIT:     0  MISS: 40199  HIT %:     0  MISS %:   100  AVERAGE MISS PENALTY: 1909.02
LLC4 RFO       ACCESS: 1015966  HIT: 125507  MISS: 890459  HIT %: 12.3535  MISS %: 87.6465  AVERAGE MISS PENALTY: 2432.02
LLC4 PREFETCH  ACCESS: 256178  HIT:   146  MISS: 256032  HIT %: 0.0569916  MISS %: 99.943  AVERAGE MISS PENALTY: 2030.05
LLC4 WRITEBACK ACCESS: 1016008  HIT: 111760  MISS: 904248  HIT %: 10.9999  MISS %: 89.0001  AVERAGE MISS PENALTY: 0
LLC4 PREFETCH  REQUESTED:     0  ISSUED:     0  USEFUL:     0  USELESS:  1008
 USEFUL LOAD PREFETCHES:          0 PREFETCH ISSUED TO LOWER LEVEL:  761927849  ACCURACY: 0
 TIMELY PREFETCHES:          0 LATE PREFETCHES: 0 DROPPED PREFETCHES: 0
LLC4 AVERAGE MISS LATENCY: 1320.99 cycles

LLC4 Set Associative Eviction Count : 0
LLC4 Priority 0 entries : 12288
LLC4 Inter-Core Interference : 6374503
LLC5 TOTAL     ACCESS: 2327916  HIT: 237004  MISS: 2090912  HIT %: 10.181  MISS %: 89.819  AVERAGE MISS PENALTY: 1318.04
LLC5 LOAD      ACCESS: 40869  HIT:     0  MISS: 40869  HIT %:     0  MISS %:   100  AVERAGE MISS PENALTY: 1906
LLC5 RFO       ACCESS: 1015750  HIT: 125129  MISS: 890621  HIT %: 12.3189  MISS %: 87.6811  AVERAGE MISS PENALTY: 2424.53
LLC5 PREFETCH  ACCESS: 255526  HIT:   146  MISS: 255380  HIT %: 0.057137  MISS %: 99.9429  AVERAGE MISS PENALTY: 2030.93
LLC5 WRITEBACK ACCESS: 1015771  HIT: 111729  MISS: 904042  HIT %: 10.9994  MISS %: 89.0006  AVERAGE MISS PENALTY: 0
LLC5 PREFETCH  REQUESTED:     0  ISSUED:     0  USEFUL:     0  USELESS:   964
 USEFUL LOAD PREFETCHES:          0 PREFETCH ISSUED TO LOWER LEVEL:  762189914  ACCURACY: 0
 TIMELY PREFETCHES:          0 LATE PREFETCHES: 0 DROPPED PREFETCHES: 0
LLC5 AVERAGE MISS LATENCY: 1318.04 cycles

LLC5 Set Associative Eviction Count : 0
LLC5 Priority 0 entries : 12287
LLC5 Inter-Core Interference : 6375871
LLC6 TOTAL     ACCESS: 2326330  HIT: 235743  MISS: 2090587  HIT %: 10.1337  MISS %: 89.8663  AVERAGE MISS PENALTY: 1296.67
LLC6 LOAD      ACCESS: 40329  HIT:     0  MISS: 40329  HIT %:     0  MISS %:   100  AVERAGE MISS PENALTY: 1960.74
LLC6 RFO       ACCESS: 1015243  HIT: 124668  MISS: 890575  HIT %: 12.2796  MISS %: 87.7204  AVERAGE MISS PENALTY: 2354.03
LLC6 PREFETCH  ACCESS: 255436  HIT:     0  MISS: 255436  HIT %:     0  MISS %:   100  AVERAGE MISS PENALTY: 2095.56
LLC6 WRITEBACK ACCESS: 1015322  HIT: 111075  MISS: 904247  HIT %: 10.9399  MISS %: 89.0601  AVERAGE MISS PENALTY: 0
LLC6 PREFETCH  REQUESTED:     0  ISSUED:     0  USEFUL:     0  USELESS:     0
 USEFUL LOAD PREFETCHES:          0 PREFETCH ISSUED TO LOWER LEVEL:  982065854  ACCURACY: 0
 TIMELY PREFETCHES:          0 LATE PREFETCHES: 0 DROPPED PREFETCHES: 0
LLC6 AVERAGE MISS LATENCY: 1296.67 cycles

LLC6 Set Associative Eviction Count : 0
LLC6 Priority 0 entries : 12287
LLC6 Inter-Core Interference : 6373811
LLC7 TOTAL     ACCESS: 2325994  HIT: 235328  MISS: 2090666  HIT %: 10.1173  MISS %: 89.8827  AVERAGE MISS PENALTY: 1296.27
LLC7 LOAD      ACCESS: 40360  HIT:     0  MISS: 40360  HIT %:     0  MISS %:   100  AVERAGE MISS PENALTY: 1942.21
LLC7 RFO       ACCESS: 1015075  HIT: 124451  MISS: 890624  HIT %: 12.2603  MISS %: 87.7397  AVERAGE MISS PENALTY: 2354.57
LLC7 PREFETCH  ACCESS: 255405  HIT:     0  MISS: 255405  HIT %:     0  MISS %:   100  AVERAGE MISS PENALTY: 2093.29
LLC7 WRITEBACK ACCESS: 1015154  HIT: 110877  MISS: 904277  HIT %: 10.9222  MISS %: 89.0778  AVERAGE MISS PENALTY: 0
LLC7 PREFETCH  REQUESTED:     0  ISSUED:     0  USEFUL:     0  USELESS:     0
 USEFUL LOAD PREFETCHES:          0 PREFETCH ISSUED TO LOWER LEVEL:  998204756  ACCURACY: 0
 TIMELY PREFETCHES:          0 LATE PREFETCHES: 0 DROPPED PREFETCHES: 0
LLC7 AVERAGE MISS LATENCY: 1296.27 cycles

LLC7 Set Associative Eviction Count : 0
LLC7 Priority 0 entries : 12287
LLC7 Inter-Core Interference : 6373186
ROI Average ROB Stall Cycles:	113.845
ROI Total ROB Stalls Cycles:	1432425139
ROI TOTAL ROB counter      :	12582268
ROI Average Load ROB Stall Cycles:	728.606
ROI Total Load ROB Stalls Cycle  :	1369060350
ROI Total Load ROB stalls Counter:	1879014
Major fault: 0 Minor fault: 151897

CPU 7 cumulative IPC: 0.13233 instructions: 200000002 cycles: 1511374109
ITLB TOTAL     ACCESS: 30687017  HIT: 30687017  MISS:     0  HIT %:   100  MISS %:     0  AVERAGE MISS PENALTY: 0
ITLB LOAD      ACCESS: 30687017  HIT: 30687017  MISS:     0  HIT %:   100  MISS %:     0  AVERAGE MISS PENALTY: 0
ITLB RFO       ACCESS:     0  HIT:     0  MISS:     0  HIT %:     0  MISS %:     0  AVERAGE MISS PENALTY: 0
ITLB PREFETCH  ACCESS:     0  HIT:     0  MISS:     0  HIT %:     0  MISS %:     0  AVERAGE MISS PENALTY: 0
ITLB WRITEBACK ACCESS:     0  HIT:     0  MISS:     0  HIT %:     0  MISS %:     0  AVERAGE MISS PENALTY: 0
ITLB PREFETCH  REQUESTED:     0  ISSUED:     0  USEFUL:     0  USELESS:     0
 USEFUL LOAD PREFETCHES:          0 PREFETCH ISSUED TO LOWER LEVEL:          0  ACCURACY: -nan
 TIMELY PREFETCHES:          0 LATE PREFETCHES: 0 DROPPED PREFETCHES: 0
ITLB AVERAGE MISS LATENCY: -nan cycles

ITLB Set Associative Eviction Count : 0
ITLB Priority 0 entries : 0
ITLB Inter-Core Interference : 0
DTLB TOTAL     ACCESS: 40274951  HIT: 40002327  MISS: 272624  HIT %: 99.3231  MISS %: 0.676907  AVERAGE MISS PENALTY: 87.2265
DTLB LOAD      ACCESS: 19475074  HIT: 19438078  MISS: 36996  HIT %: 99.81  MISS %: 0.189966  AVERAGE MISS PENALTY: 109.005
DTLB RFO       ACCESS: 20799877  HIT: 20564249  MISS: 235628  HIT %: 98.8672  MISS %: 1.13283  AVERAGE MISS PENALTY: 83.8071
DTLB PREFETCH  ACCESS:     0  HIT:     0  MISS:     0  HIT %:     0  MISS %:     0  AVERAGE MISS PENALTY: 0
DTLB WRITEBACK ACCESS:     0  HIT:     0  MISS:     0  HIT %:     0  MISS %:     0  AVERAGE MISS PENALTY: 0
DTLB PREFETCH  REQUESTED:     0  ISSUED:     0  USEFUL:     0  USELESS:     0
 USEFUL LOAD PREFETCHES:          0 PREFETCH ISSUED TO LOWER LEVEL:          0  ACCURACY: -nan
 TIMELY PREFETCHES:          0 LATE PREFETCHES: 0 DROPPED PREFETCHES: 0
DTLB AVERAGE MISS LATENCY: 87.2265 cycles

DTLB Set Associative Eviction Count : 0
DTLB Priority 0 entries : 0
DTLB Inter-Core Interference : 0
STLB TOTAL     ACCESS: 272624  HIT: 124693  MISS: 147931  HIT %: 45.7381  MISS %: 54.2619  AVERAGE MISS PENALTY: 100
STLB LOAD      ACCESS: 36996  HIT:     1  MISS: 36995  HIT %: 0.00270299  MISS %: 99.9973  AVERAGE MISS PENALTY: 100
STLB RFO       ACCESS: 235628  HIT: 124692  MISS: 110936  HIT %: 52.919  MISS %: 47.081  AVERAGE MISS PENALTY: 100
STLB PREFETCH  ACCESS:     0  HIT:     0  MISS:     0  HIT %:     0  MISS %:     0  AVERAGE MISS PENALTY: 0
STLB WRITEBACK ACCESS:     0  HIT:     0  MISS:     0  HIT %:     0  MISS %:     0  AVERAGE MISS PENALTY: 0
STLB PREFETCH  REQUESTED:     0  ISSUED:     0  USEFUL:     0  USELESS:     0
 USEFUL LOAD PREFETCHES:          0 PREFETCH ISSUED TO LOWER LEVEL:          0  ACCURACY: -nan
 TIMELY PREFETCHES:          0 LATE PREFETCHES: 0 DROPPED PREFETCHES: 0
STLB AVERAGE MISS LATENCY: 100 cycles

STLB Set Associative Eviction Count : 0
STLB Priority 0 entries : 0
STLB Inter-Core Interference : 0
L1D TOTAL     ACCESS: 57785966  HIT: 42157281  MISS: 15628685  HIT %: 72.9542  MISS %: 27.0458  AVERAGE MISS PENALTY: 3.06201e+07
L1D LOAD      ACCESS: 16198021  HIT: 14625220  MISS: 1572801  HIT %: 90.2902  MISS %: 9.70983  AVERAGE MISS PENALTY: 3.04254e+08
L1D RFO       ACCESS: 34432448  HIT: 21181709  MISS: 13250739  HIT %: 61.5167  MISS %: 38.4833  AVERAGE MISS PENALTY: 1433.85
L1D PREFETCH  ACCESS: 7155497  HIT: 6350352  MISS: 805145  HIT %: 88.7479  MISS %: 11.2521  AVERAGE MISS PENALTY: 1075.96
L1D WRITEBACK ACCESS:     0  HIT:     0  MISS:     0  HIT %:     0  MISS %:     0  AVERAGE MISS PENALTY: 0
L1D PREFETCH  REQUESTED: 25998341  ISSUED: 21740862  USEFUL: 793757  USELESS: 11390
 USEFUL LOAD PREFETCHES:     793757 PREFETCH ISSUED TO LOWER LEVEL: 1917032973  ACCURACY: 0.0414055
 TIMELY PREFETCHES:     793757 LATE PREFETCHES: 1793317 DROPPED PREFETCHES: 4257479
L1D AVERAGE MISS LATENCY: 1405.67 cycles

L1D Set Associative Eviction Count : 0
L1D Priority 0 entries : 0
L1D Inter-Core Interference : 0
L1I TOTAL     ACCESS: 42333345  HIT: 42333345  MISS:     0  HIT %:   100  MISS %:     0  AVERAGE MISS PENALTY: 0
L1I LOAD      ACCESS: 42333345  HIT: 42333345  MISS:     0  HIT %:   100  MISS %:     0  AVERAGE MISS PENALTY: 0
L1I RFO       ACCESS:     0  HIT:     0  MISS:     0  HIT %:     0  MISS %:     0  AVERAGE MISS PENALTY: 0
L1I PREFETCH  ACCESS:     0  HIT:     0  MISS:     0  HIT %:     0  MISS %:     0  AVERAGE MISS PENALTY: 0
L1I WRITEBACK ACCESS:     0  HIT:     0  MISS:     0  HIT %:     0  MISS %:     0  AVERAGE MISS PENALTY: 0
L1I PREFETCH  REQUESTED:     0  ISSUED:     0  USEFUL:     0  USELESS:     0
 USEFUL LOAD PREFETCHES:          0 PREFETCH ISSUED TO LOWER LEVEL:          0  ACCURACY: -nan
 TIMELY PREFETCHES:          0 LATE PREFETCHES: 0 DROPPED PREFETCHES: 0
L1I AVERAGE MISS LATENCY: -nan cycles

L1I Set Associative Eviction Count : 0
L1I Priority 0 entries : 0
L1I Inter-Core Interference : 0
L2C TOTAL     ACCESS: 29708102  HIT: 19205395  MISS: 10502707  HIT %: 64.647  MISS %: 35.353  AVERAGE MISS PENALTY: 7.8538e+07
L2C LOAD      ACCESS: 1563860  HIT: 292246  MISS: 1271614  HIT %: 18.6875  MISS %: 81.3125  AVERAGE MISS PENALTY: 6.48658e+08
L2C RFO       ACCESS: 13250733  HIT: 5116594  MISS: 8134139  HIT %: 38.6137  MISS %: 61.3863  AVERAGE MISS PENALTY: 2194.89
L2C PREFETCH  ACCESS: 1642766  HIT: 546484  MISS: 1096282  HIT %: 33.2661  MISS %: 66.7339  AVERAGE MISS PENALTY: 1704.26
L2C WRITEBACK ACCESS: 13250743  HIT: 13250071  MISS:   672  HIT %: 99.9949  MISS %: 0.00507141  AVERAGE MISS PENALTY: 0
L2C PREFETCH  REQUESTED: 4126010  ISSUED: 4125997  USEFUL: 292121  USELESS: 805379
 USEFUL LOAD PREFETCHES:     292121 PREFETCH ISSUED TO LOWER LEVEL:    4098611  ACCURACY: 7.12732
 TIMELY PREFETCHES:     292121 LATE PREFETCHES: 1645207 DROPPED PREFETCHES: 13
L2C AVERAGE MISS LATENCY: 2068.35 cycles

L2C Set Associative Eviction Count : 0
L2C Priority 0 entries : 0
L2C Inter-Core Interference : 0
LLC0 TOTAL     ACCESS: 2329152  HIT: 237824  MISS: 2091328  HIT %: 10.2108  MISS %: 89.7892  AVERAGE MISS PENALTY: 1317.51
LLC0 LOAD      ACCESS: 67111  HIT:     0  MISS: 67111  HIT %:     0  MISS %:   100  AVERAGE MISS PENALTY: 1901.96
LLC0 RFO       ACCESS: 1016552  HIT: 125941  MISS: 890611  HIT %: 12.389  MISS %: 87.611  AVERAGE MISS PENALTY: 2431.54
LLC0 PREFETCH  ACCESS: 228653  HIT:     1  MISS: 228652  HIT %: 0.000437344  MISS %: 99.9996  AVERAGE MISS PENALTY: 2021.18
LLC0 WRITEBACK ACCESS: 1016836  HIT: 111882  MISS: 904954  HIT %: 11.003  MISS %: 88.997  AVERAGE MISS PENALTY: 0
LLC0 PREFETCH  REQUESTED:     0  ISSUED:     0  USEFUL:     0  USELESS:     0
 USEFUL LOAD PREFETCHES:          0 PREFETCH ISSUED TO LOWER LEVEL:  589800275  ACCURACY: 0
 TIMELY PREFETCHES:          0 LATE PREFETCHES: 0 DROPPED PREFETCHES: 0
LLC0 AVERAGE MISS LATENCY: 1317.51 cycles

LLC0 Set Associative Eviction Count : 0
LLC0 Priority 0 entries : 12287
LLC0 Inter-Core Interference : 6374714
LLC1 TOTAL     ACCESS: 2328576  HIT: 237292  MISS: 2091284  HIT %: 10.1904  MISS %: 89.8096  AVERAGE MISS PENALTY: 1319.57
LLC1 LOAD      ACCESS: 51976  HIT:     5  MISS: 51971  HIT %: 0.00961982  MISS %: 99.9904  AVERAGE MISS PENALTY: 1897.51
LLC1 RFO       ACCESS: 1016221  HIT: 125691  MISS: 890530  HIT %: 12.3685  MISS %: 87.6315  AVERAGE MISS PENALTY: 2432.53
LLC1 PREFETCH  ACCESS: 243885  HIT:     0  MISS: 243885  HIT %:     0  MISS %:   100  AVERAGE MISS PENALTY: 2028.59
LLC1 WRITEBACK ACCESS: 1016494  HIT: 111596  MISS: 904898  HIT %: 10.9785  MISS %: 89.0215  AVERAGE MISS PENALTY: 0
LLC1 PREFETCH  REQUESTED:     0  ISSUED:     0  USEFUL:     0  USELESS:     0
 USEFUL LOAD PREFETCHES:          0 PREFETCH ISSUED TO LOWER LEVEL:  621687328  ACCURACY: 0
 TIMELY PREFETCHES:          0 LATE PREFETCHES: 0 DROPPED PREFETCHES: 0
LLC1 AVERAGE MISS LATENCY: 1319.57 cycles

LLC1 Set Associative Eviction Count : 0
LLC1 Priority 0 entries : 12288
LLC1 Inter-Core Interference : 6374112
LLC2 TOTAL     ACCESS: 2328942  HIT: 237480  MISS: 2091462  HIT %: 10.1969  MISS %: 89.8031  AVERAGE MISS PENALTY: 1295.77
LLC2 LOAD      ACCESS: 42370  HIT:     2  MISS: 42368  HIT %: 0.00472032  MISS %: 99.9953  AVERAGE MISS PENALTY: 1916.25
LLC2 RFO       ACCESS: 1016405  HIT: 125977  MISS: 890428  HIT %: 12.3944  MISS %: 87.6056  AVERAGE MISS PENALTY: 2357.87
LLC2 PREFETCH  ACCESS: 253496  HIT:     0  MISS: 253496  HIT %:     0  MISS %:   100  AVERAGE MISS PENALTY: 2088.23
LLC2 WRITEBACK ACCESS: 1016671  HIT: 111501  MISS: 905170  HIT %: 10.9673  MISS %: 89.0327  AVERAGE MISS PENALTY: 0
LLC2 PREFETCH  REQUESTED:     0  ISSUED:     0  USEFUL:     0  USELESS:     0
 USEFUL LOAD PREFETCHES:          0 PREFETCH ISSUED TO LOWER LEVEL:  697469791  ACCURACY: 0
 TIMELY PREFETCHES:          0 LATE PREFETCHES: 0 DROPPED PREFETCHES: 0
LLC2 AVERAGE MISS LATENCY: 1295.77 cycles

LLC2 Set Associative Eviction Count : 0
LLC2 Priority 0 entries : 12286
LLC2 Inter-Core Interference : 6372356
LLC3 TOTAL     ACCESS: 2329312  HIT: 237771  MISS: 2091541  HIT %: 10.2078  MISS %: 89.7922  AVERAGE MISS PENALTY: 1299.1
LLC3 LOAD      ACCESS: 42017  HIT:     6  MISS: 42011  HIT %: 0.0142799  MISS %: 99.9857  AVERAGE MISS PENALTY: 1929.48
LLC3 RFO       ACCESS: 1016573  HIT: 125891  MISS: 890682  HIT %: 12.3839  MISS %: 87.6161  AVERAGE MISS PENALTY: 2362.87
LLC3 PREFETCH  ACCESS: 253866  HIT:     0  MISS: 253866  HIT %:     0  MISS %:   100  AVERAGE MISS PENALTY: 2093.64
LLC3 WRITEBACK ACCESS: 1016856  HIT: 111874  MISS: 904982  HIT %: 11.002  MISS %: 88.998  AVERAGE MISS PENALTY: 0
LLC3 PREFETCH  REQUESTED:     0  ISSUED:     0  USEFUL:     3  USELESS:    13
 USEFUL LOAD PREFETCHES:          3 PREFETCH ISSUED TO LOWER LEVEL:  699995122  ACCURACY: 4.28574e-07
 TIMELY PREFETCHES:          3 LATE PREFETCHES: 0 DROPPED PREFETCHES: 0
LLC3 AVERAGE MISS LATENCY: 1299.1 cycles

LLC3 Set Associative Eviction Count : 0
LLC3 Priority 0 entries : 12287
LLC3 Inter-Core Interference : 6373459
LLC4 TOTAL     ACCESS: 2330261  HIT: 238381  MISS: 2091880  HIT %: 10.2298  MISS %: 89.7702  AVERAGE MISS PENALTY: 1364.3
LLC4 LOAD      ACCESS: 40361  HIT:     0  MISS: 40361  HIT %:     0  MISS %:   100  AVERAGE MISS PENALTY: 1907.96
LLC4 RFO       ACCESS: 1016773  HIT: 126126  MISS: 890647  HIT %: 12.4045  MISS %: 87.5955  AVERAGE MISS PENALTY: 2534.85
LLC4 PREFETCH  ACCESS: 256134  HIT:   224  MISS: 255910  HIT %: 0.0874542  MISS %: 99.9125  AVERAGE MISS PENALTY: 2029.16
LLC4 WRITEBACK ACCESS: 1016993  HIT: 112031  MISS: 904962  HIT %: 11.0159  MISS %: 88.9841  AVERAGE MISS PENALTY: 0
LLC4 PREFETCH  REQUESTED:     0  ISSUED:     0  USEFUL:     0  USELESS:  1008
 USEFUL LOAD PREFETCHES:          0 PREFETCH ISSUED TO LOWER LEVEL:  761927849  ACCURACY: 0
 TIMELY PREFETCHES:          0 LATE PREFETCHES: 0 DROPPED PREFETCHES: 0
LLC4 AVERAGE MISS LATENCY: 1326.01 cycles

LLC4 Set Associative Eviction Count : 0
LLC4 Priority 0 entries : 12288
LLC4 Inter-Core Interference : 6374503
LLC5 TOTAL     ACCESS: 2331244  HIT: 239524  MISS: 2091720  HIT %: 10.2745  MISS %: 89.7255  AVERAGE MISS PENALTY: 1323.68
LLC5 LOAD      ACCESS: 40898  HIT:     0  MISS: 40898  HIT %:     0  MISS %:   100  AVERAGE MISS PENALTY: 1899.74
LLC5 RFO       ACCESS: 1017263  HIT: 126655  MISS: 890608  HIT %: 12.4506  MISS %: 87.5494  AVERAGE MISS PENALTY: 2440.31
LLC5 PREFETCH  ACCESS: 255602  HIT:   267  MISS: 255335  HIT %: 0.104459  MISS %: 99.8955  AVERAGE MISS PENALTY: 2027.59
LLC5 WRITEBACK ACCESS: 1017481  HIT: 112602  MISS: 904879  HIT %: 11.0667  MISS %: 88.9333  AVERAGE MISS PENALTY: 0
LLC5 PREFETCH  REQUESTED:     0  ISSUED:     0  USEFUL:     0  USELESS:   964
 USEFUL LOAD PREFETCHES:          0 PREFETCH ISSUED TO LOWER LEVEL:  762189914  ACCURACY: 0
 TIMELY PREFETCHES:          0 LATE PREFETCHES: 0 DROPPED PREFETCHES: 0
LLC5 AVERAGE MISS LATENCY: 1323.68 cycles

LLC5 Set Associative Eviction Count : 0
LLC5 Priority 0 entries : 12287
LLC5 Inter-Core Interference : 6375871
LLC6 TOTAL     ACCESS: 2328412  HIT: 237157  MISS: 2091255  HIT %: 10.1854  MISS %: 89.8146  AVERAGE MISS PENALTY: 1303.18
LLC6 LOAD      ACCESS: 40980  HIT:     0  MISS: 40980  HIT %:     0  MISS %:   100  AVERAGE MISS PENALTY: 1945.56
LLC6 RFO       ACCESS: 1016191  HIT: 125712  MISS: 890479  HIT %: 12.3709  MISS %: 87.6291  AVERAGE MISS PENALTY: 2371.28
LLC6 PREFETCH  ACCESS: 254783  HIT:     0  MISS: 254783  HIT %:     0  MISS %:   100  AVERAGE MISS PENALTY: 2095.78
LLC6 WRITEBACK ACCESS: 1016458  HIT: 111445  MISS: 905013  HIT %: 10.9641  MISS %: 89.0359  AVERAGE MISS PENALTY: 0
LLC6 PREFETCH  REQUESTED:     0  ISSUED:     0  USEFUL:     0  USELESS:     0
 USEFUL LOAD PREFETCHES:          0 PREFETCH ISSUED TO LOWER LEVEL:  982065854  ACCURACY: 0
 TIMELY PREFETCHES:          0 LATE PREFETCHES: 0 DROPPED PREFETCHES: 0
LLC6 AVERAGE MISS LATENCY: 1303.18 cycles

LLC6 Set Associative Eviction Count : 0
LLC6 Priority 0 entries : 12287
LLC6 Inter-Core Interference : 6373811
LLC7 TOTAL     ACCESS: 2328695  HIT: 237467  MISS: 2091228  HIT %: 10.1974  MISS %: 89.8026  AVERAGE MISS PENALTY: 1301.75
LLC7 LOAD      ACCESS: 40597  HIT:     0  MISS: 40597  HIT %:     0  MISS %:   100  AVERAGE MISS PENALTY: 1947.2
LLC7 RFO       ACCESS: 1016319  HIT: 125755  MISS: 890564  HIT %: 12.3736  MISS %: 87.6264  AVERAGE MISS PENALTY: 2369.22
LLC7 PREFETCH  ACCESS: 255167  HIT:     0  MISS: 255167  HIT %:     0  MISS %:   100  AVERAGE MISS PENALTY: 2089.86
LLC7 WRITEBACK ACCESS: 1016612  HIT: 111712  MISS: 904900  HIT %: 10.9887  MISS %: 89.0113  AVERAGE MISS PENALTY: 0
LLC7 PREFETCH  REQUESTED:     0  ISSUED:     0  USEFUL:     0  USELESS:     0
 USEFUL LOAD PREFETCHES:          0 PREFETCH ISSUED TO LOWER LEVEL:  998204756  ACCURACY: 0
 TIMELY PREFETCHES:          0 LATE PREFETCHES: 0 DROPPED PREFETCHES: 0
LLC7 AVERAGE MISS LATENCY: 1301.75 cycles

LLC7 Set Associative Eviction Count : 0
LLC7 Priority 0 entries : 12287
LLC7 Inter-Core Interference : 6373186
ROI Average ROB Stall Cycles:	114.174
ROI Total ROB Stalls Cycles:	1437863872
ROI TOTAL ROB counter      :	12593590
ROI Average Load ROB Stall Cycles:	730.035
ROI Total Load ROB Stalls Cycle  :	1374311869
ROI Total Load ROB stalls Counter:	1882528
Major fault: 0 Minor fault: 151627








Interconnect Stats 
LINK 0 BW : 0LINK 1 BW : 0LINK 2 BW : 0LINK 3 BW : 0LINK 4 BW : 0LINK 5 BW : 0LINK 6 BW : 0LINK 7 BW : 0
DRAM Statistics
 CHANNEL 0
 RQ ROW_BUFFER_HIT: 15268826  ROW_BUFFER_MISS: 22811296
 DBUS_CONGESTED: 80350081
 WQ ROW_BUFFER_HIT: 571030  ROW_BUFFER_MISS: 28553153  FULL: 686573

 CHANNEL 1
 RQ ROW_BUFFER_HIT: 15273695  ROW_BUFFER_MISS: 22807279
 DBUS_CONGESTED: 80350081
 WQ ROW_BUFFER_HIT: 570196  ROW_BUFFER_MISS: 28555214  FULL: 687768

 AVG_CONGESTED_CYCLE: 6
DRAM PAGES: 2097152
Allocated PAGES: 1213774
L2C destructor called
L1D destructor called
L1I destructor called
STLB destructor called
DTLB destructor called
ITLB destructor called
L2C destructor called
L1D destructor called
L1I destructor called
STLB destructor called
DTLB destructor called
ITLB destructor called
L2C destructor called
L1D destructor called
L1I destructor called
STLB destructor called
DTLB destructor called
ITLB destructor called
L2C destructor called
L1D destructor called
L1I destructor called
STLB destructor called
DTLB destructor called
ITLB destructor called
L2C destructor called
L1D destructor called
L1I destructor called
STLB destructor called
DTLB destructor called
ITLB destructor called
L2C destructor called
L1D destructor called
L1I destructor called
STLB destructor called
DTLB destructor called
ITLB destructor called
L2C destructor called
L1D destructor called
L1I destructor called
STLB destructor called
DTLB destructor called
ITLB destructor called
L2C destructor called
L1D destructor called
L1I destructor called
STLB destructor called
DTLB destructor called
ITLB destructor called
