
*** ChampSim Multicore Out-of-Order Simulator ***

Warmup Instructions: 200000000
Simulation Instructions: 200000000
Number of CPUs: 8
threads:1

L1I Configuration:
L1I_SET:64
L1I_WAY:8
L1I_RQ_SIZE:64
L1I_WQ_SIZE:64
L1I_PQ_SIZE:8
L1I_MSHR_SIZE:8

L1D Configuration:
L1D_SET:64
L1D_WAY:12
L1D_RQ_SIZE:64
L1D_WQ_SIZE:64
L1D_PQ_SIZE:8
L1D_MSHR_SIZE:16

L2C Configuration:
L2C_SET:1024
L2C_WAY:8
L2C_RQ_SIZE:32
L2C_WQ_SIZE:32
L2C_PQ_SIZE:16
L2C_MSHR_SIZE:32

LLC Configuration:
LLC_SET:2048
LLC_WAY:12
LLC SLICES:8
LLC_RQ_SIZE:64
LLC_WQ_SIZE:64
LLC_PQ_SIZE:32
LLC_MSHR_SIZE:64

Interconnect OFF
Attacker deprioritize is: OFF
Off-chip DRAM Size: 8192 MB Channels: 2 Width: 64-bit Data Rate: 3200 MT/s
PAGE SIZE in KB: 4.000000 
PAGE SIZE in MB: 0.003906 
PAGE offset in bits: 12 
CEASER-S_LLC:0
MIRAGE : 1
CEASER_LATENCY:3
REMAP : OFF
Partitions : 1
Multi-Step : OFF
BFS : OFF

CPU 0 runs /home/anubhav/spec_2017/623.xalancbmk_s-10B.champsimtrace.xz
CPU 1 runs /home/anubhav/spec_2017/623.xalancbmk_s-10B.champsimtrace.xz
CPU 2 runs /home/anubhav/spec_2017/623.xalancbmk_s-10B.champsimtrace.xz
CPU 3 runs /home/anubhav/spec_2017/623.xalancbmk_s-10B.champsimtrace.xz
CPU 4 runs /home/anubhav/spec_2017/623.xalancbmk_s-10B.champsimtrace.xz
CPU 5 runs /home/anubhav/spec_2017/623.xalancbmk_s-10B.champsimtrace.xz
CPU 6 runs /home/anubhav/spec_2017/623.xalancbmk_s-10B.champsimtrace.xz
CPU 7 runs /home/anubhav/spec_2017/623.xalancbmk_s-10B.champsimtrace.xz
CPU 0 Bimodal branch predictor
Initialize Hawkeye state
Initialize Hawkeye state
Initialize Hawkeye state
Initialize Hawkeye state
Initialize Hawkeye state
Initialize Hawkeye state
Initialize Hawkeye state
Initialize Hawkeye state
CPU 1 Bimodal branch predictor
Initialize Hawkeye state
Initialize Hawkeye state
Initialize Hawkeye state
Initialize Hawkeye state
Initialize Hawkeye state
Initialize Hawkeye state
Initialize Hawkeye state
Initialize Hawkeye state
CPU 2 Bimodal branch predictor
Initialize Hawkeye state
Initialize Hawkeye state
Initialize Hawkeye state
Initialize Hawkeye state
Initialize Hawkeye state
Initialize Hawkeye state
Initialize Hawkeye state
Initialize Hawkeye state
CPU 3 Bimodal branch predictor
Initialize Hawkeye state
Initialize Hawkeye state
Initialize Hawkeye state
Initialize Hawkeye state
Initialize Hawkeye state
Initialize Hawkeye state
Initialize Hawkeye state
Initialize Hawkeye state
CPU 4 Bimodal branch predictor
Initialize Hawkeye state
Initialize Hawkeye state
Initialize Hawkeye state
Initialize Hawkeye state
Initialize Hawkeye state
Initialize Hawkeye state
Initialize Hawkeye state
Initialize Hawkeye state
CPU 5 Bimodal branch predictor
Initialize Hawkeye state
Initialize Hawkeye state
Initialize Hawkeye state
Initialize Hawkeye state
Initialize Hawkeye state
Initialize Hawkeye state
Initialize Hawkeye state
Initialize Hawkeye state
CPU 6 Bimodal branch predictor
Initialize Hawkeye state
Initialize Hawkeye state
Initialize Hawkeye state
Initialize Hawkeye state
Initialize Hawkeye state
Initialize Hawkeye state
Initialize Hawkeye state
Initialize Hawkeye state
CPU 7 Bimodal branch predictor
Initialize Hawkeye state
Initialize Hawkeye state
Initialize Hawkeye state
Initialize Hawkeye state
Initialize Hawkeye state
Initialize Hawkeye state
Initialize Hawkeye state
Initialize Hawkeye state
Heartbeat CPU 0 instructions: 10000001 cycles: 7659103 heartbeat IPC: 1.30564 cumulative IPC: 1.30564 (Simulation time: 2 hr 4 min 47 sec) 
 Total Blocks : 196608 Invalid Blocks : 75573 Valid Blocks : 121035
 Total Tags : 491520 Threshold : 12288 Invalid Tags : 272184 Pr0 Tags : 98301 Pr1 Tags : 121035 num_pr0 : 12287
 SAE Count : 0
 Inter-Core Inteference in Data Store : 58897
Heartbeat CPU 2 instructions: 10000001 cycles: 7659305 heartbeat IPC: 1.3056 cumulative IPC: 1.3056 (Simulation time: 2 hr 4 min 47 sec) 
 Total Blocks : 196608 Invalid Blocks : 75573 Valid Blocks : 121035
 Total Tags : 491520 Threshold : 12288 Invalid Tags : 272183 Pr0 Tags : 98302 Pr1 Tags : 121035 num_pr0 : 12287
 SAE Count : 0
 Inter-Core Inteference in Data Store : 58898
Heartbeat CPU 1 instructions: 10000001 cycles: 7659545 heartbeat IPC: 1.30556 cumulative IPC: 1.30556 (Simulation time: 2 hr 4 min 47 sec) 
 Total Blocks : 196608 Invalid Blocks : 75572 Valid Blocks : 121036
 Total Tags : 491520 Threshold : 12288 Invalid Tags : 272182 Pr0 Tags : 98302 Pr1 Tags : 121036 num_pr0 : 12286
 SAE Count : 0
 Inter-Core Inteference in Data Store : 58899
Heartbeat CPU 3 instructions: 10000001 cycles: 7659642 heartbeat IPC: 1.30554 cumulative IPC: 1.30554 (Simulation time: 2 hr 4 min 47 sec) 
 Total Blocks : 196608 Invalid Blocks : 75572 Valid Blocks : 121036
 Total Tags : 491520 Threshold : 12288 Invalid Tags : 272182 Pr0 Tags : 98302 Pr1 Tags : 121036 num_pr0 : 12286
 SAE Count : 0
 Inter-Core Inteference in Data Store : 58899
Heartbeat CPU 5 instructions: 10000001 cycles: 7660152 heartbeat IPC: 1.30546 cumulative IPC: 1.30546 (Simulation time: 2 hr 4 min 47 sec) 
 Total Blocks : 196608 Invalid Blocks : 75570 Valid Blocks : 121038
 Total Tags : 491520 Threshold : 12288 Invalid Tags : 272180 Pr0 Tags : 98302 Pr1 Tags : 121038 num_pr0 : 12288
 SAE Count : 0
 Inter-Core Inteference in Data Store : 58901
Heartbeat CPU 4 instructions: 10000001 cycles: 7660153 heartbeat IPC: 1.30546 cumulative IPC: 1.30546 (Simulation time: 2 hr 4 min 47 sec) 
 Total Blocks : 196608 Invalid Blocks : 75570 Valid Blocks : 121038
 Total Tags : 491520 Threshold : 12288 Invalid Tags : 272180 Pr0 Tags : 98302 Pr1 Tags : 121038 num_pr0 : 12288
 SAE Count : 0
 Inter-Core Inteference in Data Store : 58901
Heartbeat CPU 6 instructions: 10000001 cycles: 7660899 heartbeat IPC: 1.30533 cumulative IPC: 1.30533 (Simulation time: 2 hr 4 min 47 sec) 
 Total Blocks : 196608 Invalid Blocks : 75570 Valid Blocks : 121038
 Total Tags : 491520 Threshold : 12288 Invalid Tags : 272180 Pr0 Tags : 98302 Pr1 Tags : 121038 num_pr0 : 12288
 SAE Count : 0
 Inter-Core Inteference in Data Store : 58902
Heartbeat CPU 7 instructions: 10000001 cycles: 7661307 heartbeat IPC: 1.30526 cumulative IPC: 1.30526 (Simulation time: 2 hr 4 min 48 sec) 
 Total Blocks : 196608 Invalid Blocks : 75570 Valid Blocks : 121038
 Total Tags : 491520 Threshold : 12288 Invalid Tags : 272180 Pr0 Tags : 98302 Pr1 Tags : 121038 num_pr0 : 12288
 SAE Count : 0
 Inter-Core Inteference in Data Store : 58902
Heartbeat CPU 0 instructions: 20000000 cycles: 15376848 heartbeat IPC: 1.29572 cumulative IPC: 1.30066 (Simulation time: 2 hr 28 min 36 sec) 
 Total Blocks : 196608 Invalid Blocks : 51955 Valid Blocks : 144653
 Total Tags : 491520 Threshold : 12288 Invalid Tags : 248563 Pr0 Tags : 98304 Pr1 Tags : 144653 num_pr0 : 12288
 SAE Count : 0
 Inter-Core Inteference in Data Store : 102289
Heartbeat CPU 2 instructions: 20000000 cycles: 15377030 heartbeat IPC: 1.29572 cumulative IPC: 1.30064 (Simulation time: 2 hr 28 min 37 sec) 
 Total Blocks : 196608 Invalid Blocks : 51955 Valid Blocks : 144653
 Total Tags : 491520 Threshold : 12288 Invalid Tags : 248564 Pr0 Tags : 98303 Pr1 Tags : 144653 num_pr0 : 12288
 SAE Count : 0
 Inter-Core Inteference in Data Store : 102291
Heartbeat CPU 1 instructions: 20000000 cycles: 15377435 heartbeat IPC: 1.29569 cumulative IPC: 1.30061 (Simulation time: 2 hr 28 min 37 sec) 
 Total Blocks : 196608 Invalid Blocks : 51953 Valid Blocks : 144655
 Total Tags : 491520 Threshold : 12288 Invalid Tags : 248562 Pr0 Tags : 98303 Pr1 Tags : 144655 num_pr0 : 12287
 SAE Count : 0
 Inter-Core Inteference in Data Store : 102295
Heartbeat CPU 3 instructions: 20000000 cycles: 15378175 heartbeat IPC: 1.29558 cumulative IPC: 1.30054 (Simulation time: 2 hr 28 min 37 sec) 
 Total Blocks : 196608 Invalid Blocks : 51950 Valid Blocks : 144658
 Total Tags : 491520 Threshold : 12288 Invalid Tags : 248560 Pr0 Tags : 98302 Pr1 Tags : 144658 num_pr0 : 12288
 SAE Count : 0
 Inter-Core Inteference in Data Store : 102306
Heartbeat CPU 4 instructions: 20000000 cycles: 15378786 heartbeat IPC: 1.29557 cumulative IPC: 1.30049 (Simulation time: 2 hr 28 min 37 sec) 
 Total Blocks : 196608 Invalid Blocks : 51949 Valid Blocks : 144659
 Total Tags : 491520 Threshold : 12288 Invalid Tags : 248557 Pr0 Tags : 98304 Pr1 Tags : 144659 num_pr0 : 12288
 SAE Count : 0
 Inter-Core Inteference in Data Store : 102307
Heartbeat CPU 5 instructions: 20000000 cycles: 15379238 heartbeat IPC: 1.29549 cumulative IPC: 1.30045 (Simulation time: 2 hr 28 min 37 sec) 
 Total Blocks : 196608 Invalid Blocks : 51947 Valid Blocks : 144661
 Total Tags : 491520 Threshold : 12288 Invalid Tags : 248558 Pr0 Tags : 98301 Pr1 Tags : 144661 num_pr0 : 12287
 SAE Count : 0
 Inter-Core Inteference in Data Store : 102308
Heartbeat CPU 6 instructions: 20000000 cycles: 15380600 heartbeat IPC: 1.29539 cumulative IPC: 1.30034 (Simulation time: 2 hr 28 min 38 sec) 
 Total Blocks : 196608 Invalid Blocks : 51947 Valid Blocks : 144661
 Total Tags : 491520 Threshold : 12288 Invalid Tags : 248555 Pr0 Tags : 98304 Pr1 Tags : 144661 num_pr0 : 12288
 SAE Count : 0
 Inter-Core Inteference in Data Store : 102317
Heartbeat CPU 7 instructions: 20000000 cycles: 15381070 heartbeat IPC: 1.29538 cumulative IPC: 1.3003 (Simulation time: 2 hr 28 min 38 sec) 
 Total Blocks : 196608 Invalid Blocks : 51946 Valid Blocks : 144662
 Total Tags : 491520 Threshold : 12288 Invalid Tags : 248555 Pr0 Tags : 98303 Pr1 Tags : 144662 num_pr0 : 12288
 SAE Count : 0
 Inter-Core Inteference in Data Store : 102319
Heartbeat CPU 0 instructions: 30000000 cycles: 23087561 heartbeat IPC: 1.2969 cumulative IPC: 1.2994 (Simulation time: 2 hr 51 min 20 sec) 
 Total Blocks : 196608 Invalid Blocks : 34201 Valid Blocks : 162407
 Total Tags : 491520 Threshold : 12288 Invalid Tags : 230810 Pr0 Tags : 98303 Pr1 Tags : 162407 num_pr0 : 12288
 SAE Count : 0
 Inter-Core Inteference in Data Store : 158503
Heartbeat CPU 1 instructions: 30000000 cycles: 23088754 heartbeat IPC: 1.2968 cumulative IPC: 1.29933 (Simulation time: 2 hr 51 min 20 sec) 
 Total Blocks : 196608 Invalid Blocks : 34200 Valid Blocks : 162408
 Total Tags : 491520 Threshold : 12288 Invalid Tags : 230808 Pr0 Tags : 98304 Pr1 Tags : 162408 num_pr0 : 12288
 SAE Count : 0
 Inter-Core Inteference in Data Store : 158508
Heartbeat CPU 2 instructions: 30000000 cycles: 23089279 heartbeat IPC: 1.29664 cumulative IPC: 1.2993 (Simulation time: 2 hr 51 min 20 sec) 
 Total Blocks : 196608 Invalid Blocks : 34199 Valid Blocks : 162409
 Total Tags : 491520 Threshold : 12288 Invalid Tags : 230807 Pr0 Tags : 98304 Pr1 Tags : 162409 num_pr0 : 12288
 SAE Count : 0
 Inter-Core Inteference in Data Store : 158509
Heartbeat CPU 4 instructions: 30000000 cycles: 23090224 heartbeat IPC: 1.29677 cumulative IPC: 1.29925 (Simulation time: 2 hr 51 min 20 sec) 
 Total Blocks : 196608 Invalid Blocks : 34195 Valid Blocks : 162413
 Total Tags : 491520 Threshold : 12288 Invalid Tags : 230804 Pr0 Tags : 98303 Pr1 Tags : 162413 num_pr0 : 12288
 SAE Count : 0
 Inter-Core Inteference in Data Store : 158518
Heartbeat CPU 3 instructions: 30000000 cycles: 23090932 heartbeat IPC: 1.29655 cumulative IPC: 1.29921 (Simulation time: 2 hr 51 min 21 sec) 
 Total Blocks : 196608 Invalid Blocks : 34194 Valid Blocks : 162414
 Total Tags : 491520 Threshold : 12288 Invalid Tags : 230803 Pr0 Tags : 98303 Pr1 Tags : 162414 num_pr0 : 12288
 SAE Count : 0
 Inter-Core Inteference in Data Store : 158523
Heartbeat CPU 5 instructions: 30000000 cycles: 23091198 heartbeat IPC: 1.29669 cumulative IPC: 1.2992 (Simulation time: 2 hr 51 min 21 sec) 
 Total Blocks : 196608 Invalid Blocks : 34193 Valid Blocks : 162415
 Total Tags : 491520 Threshold : 12288 Invalid Tags : 230802 Pr0 Tags : 98303 Pr1 Tags : 162415 num_pr0 : 12288
 SAE Count : 0
 Inter-Core Inteference in Data Store : 158525
Heartbeat CPU 6 instructions: 30000000 cycles: 23092532 heartbeat IPC: 1.29669 cumulative IPC: 1.29912 (Simulation time: 2 hr 51 min 21 sec) 
 Total Blocks : 196608 Invalid Blocks : 34191 Valid Blocks : 162417
 Total Tags : 491520 Threshold : 12288 Invalid Tags : 230799 Pr0 Tags : 98304 Pr1 Tags : 162417 num_pr0 : 12288
 SAE Count : 0
 Inter-Core Inteference in Data Store : 158530
Heartbeat CPU 7 instructions: 30000000 cycles: 23093781 heartbeat IPC: 1.29656 cumulative IPC: 1.29905 (Simulation time: 2 hr 51 min 22 sec) 
 Total Blocks : 196608 Invalid Blocks : 34190 Valid Blocks : 162418
 Total Tags : 491520 Threshold : 12288 Invalid Tags : 230799 Pr0 Tags : 98303 Pr1 Tags : 162418 num_pr0 : 12288
 SAE Count : 0
 Inter-Core Inteference in Data Store : 158533
Heartbeat CPU 0 instructions: 40000002 cycles: 30630174 heartbeat IPC: 1.3258 cumulative IPC: 1.3059 (Simulation time: 3 hr 13 min 58 sec) 
 Total Blocks : 196608 Invalid Blocks : 21321 Valid Blocks : 175287
 Total Tags : 491520 Threshold : 12288 Invalid Tags : 217929 Pr0 Tags : 98304 Pr1 Tags : 175287 num_pr0 : 12288
 SAE Count : 0
 Inter-Core Inteference in Data Store : 228267
Heartbeat CPU 1 instructions: 40000002 cycles: 30631991 heartbeat IPC: 1.32569 cumulative IPC: 1.30582 (Simulation time: 3 hr 13 min 59 sec) 
 Total Blocks : 196608 Invalid Blocks : 21319 Valid Blocks : 175289
 Total Tags : 491520 Threshold : 12288 Invalid Tags : 217927 Pr0 Tags : 98304 Pr1 Tags : 175289 num_pr0 : 12288
 SAE Count : 0
 Inter-Core Inteference in Data Store : 228279
Heartbeat CPU 2 instructions: 40000002 cycles: 30632250 heartbeat IPC: 1.32574 cumulative IPC: 1.30581 (Simulation time: 3 hr 13 min 59 sec) 
 Total Blocks : 196608 Invalid Blocks : 21319 Valid Blocks : 175289
 Total Tags : 491520 Threshold : 12288 Invalid Tags : 217927 Pr0 Tags : 98304 Pr1 Tags : 175289 num_pr0 : 12288
 SAE Count : 0
 Inter-Core Inteference in Data Store : 228280
Heartbeat CPU 4 instructions: 40000002 cycles: 30633827 heartbeat IPC: 1.32563 cumulative IPC: 1.30575 (Simulation time: 3 hr 13 min 59 sec) 
 Total Blocks : 196608 Invalid Blocks : 21315 Valid Blocks : 175293
 Total Tags : 491520 Threshold : 12288 Invalid Tags : 217925 Pr0 Tags : 98302 Pr1 Tags : 175293 num_pr0 : 12288
 SAE Count : 0
 Inter-Core Inteference in Data Store : 228298
Heartbeat CPU 3 instructions: 40000002 cycles: 30633994 heartbeat IPC: 1.32572 cumulative IPC: 1.30574 (Simulation time: 3 hr 13 min 59 sec) 
 Total Blocks : 196608 Invalid Blocks : 21315 Valid Blocks : 175293
 Total Tags : 491520 Threshold : 12288 Invalid Tags : 217925 Pr0 Tags : 98302 Pr1 Tags : 175293 num_pr0 : 12288
 SAE Count : 0
 Inter-Core Inteference in Data Store : 228298
Heartbeat CPU 5 instructions: 40000002 cycles: 30634900 heartbeat IPC: 1.32561 cumulative IPC: 1.3057 (Simulation time: 3 hr 13 min 59 sec) 
 Total Blocks : 196608 Invalid Blocks : 21313 Valid Blocks : 175295
 Total Tags : 491520 Threshold : 12288 Invalid Tags : 217921 Pr0 Tags : 98304 Pr1 Tags : 175295 num_pr0 : 12288
 SAE Count : 0
 Inter-Core Inteference in Data Store : 228311
Heartbeat CPU 6 instructions: 40000002 cycles: 30636138 heartbeat IPC: 1.32563 cumulative IPC: 1.30565 (Simulation time: 3 hr 14 min 0 sec) 
 Total Blocks : 196608 Invalid Blocks : 21310 Valid Blocks : 175298
 Total Tags : 491520 Threshold : 12288 Invalid Tags : 217920 Pr0 Tags : 98302 Pr1 Tags : 175298 num_pr0 : 12288
 SAE Count : 0
 Inter-Core Inteference in Data Store : 228319
Heartbeat CPU 7 instructions: 40000002 cycles: 30638028 heartbeat IPC: 1.32551 cumulative IPC: 1.30557 (Simulation time: 3 hr 14 min 0 sec) 
 Total Blocks : 196608 Invalid Blocks : 21308 Valid Blocks : 175300
 Total Tags : 491520 Threshold : 12288 Invalid Tags : 217918 Pr0 Tags : 98302 Pr1 Tags : 175300 num_pr0 : 12288
 SAE Count : 0
 Inter-Core Inteference in Data Store : 228334
Heartbeat CPU 0 instructions: 50000001 cycles: 38501431 heartbeat IPC: 1.27044 cumulative IPC: 1.29865 (Simulation time: 3 hr 36 min 24 sec) 
 Total Blocks : 196608 Invalid Blocks : 13426 Valid Blocks : 183182
 Total Tags : 491520 Threshold : 12288 Invalid Tags : 210034 Pr0 Tags : 98304 Pr1 Tags : 183182 num_pr0 : 12288
 SAE Count : 0
 Inter-Core Inteference in Data Store : 300275
Heartbeat CPU 1 instructions: 50000001 cycles: 38503511 heartbeat IPC: 1.2704 cumulative IPC: 1.29858 (Simulation time: 3 hr 36 min 24 sec) 
 Total Blocks : 196608 Invalid Blocks : 13426 Valid Blocks : 183182
 Total Tags : 491520 Threshold : 12288 Invalid Tags : 210034 Pr0 Tags : 98304 Pr1 Tags : 183182 num_pr0 : 12288
 SAE Count : 0
 Inter-Core Inteference in Data Store : 300282
Heartbeat CPU 2 instructions: 50000001 cycles: 38503859 heartbeat IPC: 1.27039 cumulative IPC: 1.29857 (Simulation time: 3 hr 36 min 24 sec) 
 Total Blocks : 196608 Invalid Blocks : 13426 Valid Blocks : 183182
 Total Tags : 491520 Threshold : 12288 Invalid Tags : 210034 Pr0 Tags : 98304 Pr1 Tags : 183182 num_pr0 : 12288
 SAE Count : 0
 Inter-Core Inteference in Data Store : 300282
Heartbeat CPU 4 instructions: 50000001 cycles: 38506079 heartbeat IPC: 1.27028 cumulative IPC: 1.2985 (Simulation time: 3 hr 36 min 25 sec) 
 Total Blocks : 196608 Invalid Blocks : 13425 Valid Blocks : 183183
 Total Tags : 491520 Threshold : 12288 Invalid Tags : 210033 Pr0 Tags : 98304 Pr1 Tags : 183183 num_pr0 : 12288
 SAE Count : 0
 Inter-Core Inteference in Data Store : 300286
Heartbeat CPU 3 instructions: 50000001 cycles: 38506080 heartbeat IPC: 1.27031 cumulative IPC: 1.2985 (Simulation time: 3 hr 36 min 25 sec) 
 Total Blocks : 196608 Invalid Blocks : 13425 Valid Blocks : 183183
 Total Tags : 491520 Threshold : 12288 Invalid Tags : 210033 Pr0 Tags : 98304 Pr1 Tags : 183183 num_pr0 : 12288
 SAE Count : 0
 Inter-Core Inteference in Data Store : 300286
Heartbeat CPU 5 instructions: 50000001 cycles: 38507034 heartbeat IPC: 1.2703 cumulative IPC: 1.29846 (Simulation time: 3 hr 36 min 25 sec) 
 Total Blocks : 196608 Invalid Blocks : 13425 Valid Blocks : 183183
 Total Tags : 491520 Threshold : 12288 Invalid Tags : 210033 Pr0 Tags : 98304 Pr1 Tags : 183183 num_pr0 : 12288
 SAE Count : 0
 Inter-Core Inteference in Data Store : 300287
Heartbeat CPU 6 instructions: 50000001 cycles: 38508898 heartbeat IPC: 1.2702 cumulative IPC: 1.2984 (Simulation time: 3 hr 36 min 25 sec) 
 Total Blocks : 196608 Invalid Blocks : 13425 Valid Blocks : 183183
 Total Tags : 491520 Threshold : 12288 Invalid Tags : 210033 Pr0 Tags : 98304 Pr1 Tags : 183183 num_pr0 : 12288
 SAE Count : 0
 Inter-Core Inteference in Data Store : 300294
Heartbeat CPU 7 instructions: 50000001 cycles: 38510941 heartbeat IPC: 1.27018 cumulative IPC: 1.29833 (Simulation time: 3 hr 36 min 26 sec) 
 Total Blocks : 196608 Invalid Blocks : 13425 Valid Blocks : 183183
 Total Tags : 491520 Threshold : 12288 Invalid Tags : 210033 Pr0 Tags : 98304 Pr1 Tags : 183183 num_pr0 : 12288
 SAE Count : 0
 Inter-Core Inteference in Data Store : 300297
Heartbeat CPU 0 instructions: 60000000 cycles: 46173836 heartbeat IPC: 1.30337 cumulative IPC: 1.29944 (Simulation time: 3 hr 58 min 40 sec) 
 Total Blocks : 196608 Invalid Blocks : 6807 Valid Blocks : 189801
 Total Tags : 491520 Threshold : 12288 Invalid Tags : 203415 Pr0 Tags : 98304 Pr1 Tags : 189801 num_pr0 : 12288
 SAE Count : 0
 Inter-Core Inteference in Data Store : 409022
Heartbeat CPU 1 instructions: 60000000 cycles: 46175786 heartbeat IPC: 1.30339 cumulative IPC: 1.29938 (Simulation time: 3 hr 58 min 41 sec) 
 Total Blocks : 196608 Invalid Blocks : 6806 Valid Blocks : 189802
 Total Tags : 491520 Threshold : 12288 Invalid Tags : 203414 Pr0 Tags : 98304 Pr1 Tags : 189802 num_pr0 : 12288
 SAE Count : 0
 Inter-Core Inteference in Data Store : 409026
Heartbeat CPU 2 instructions: 60000000 cycles: 46176144 heartbeat IPC: 1.30339 cumulative IPC: 1.29937 (Simulation time: 3 hr 58 min 41 sec) 
 Total Blocks : 196608 Invalid Blocks : 6806 Valid Blocks : 189802
 Total Tags : 491520 Threshold : 12288 Invalid Tags : 203414 Pr0 Tags : 98304 Pr1 Tags : 189802 num_pr0 : 12288
 SAE Count : 0
 Inter-Core Inteference in Data Store : 409029
Heartbeat CPU 4 instructions: 60000000 cycles: 46178866 heartbeat IPC: 1.30331 cumulative IPC: 1.2993 (Simulation time: 3 hr 58 min 41 sec) 
 Total Blocks : 196608 Invalid Blocks : 6806 Valid Blocks : 189802
 Total Tags : 491520 Threshold : 12288 Invalid Tags : 203414 Pr0 Tags : 98304 Pr1 Tags : 189802 num_pr0 : 12288
 SAE Count : 0
 Inter-Core Inteference in Data Store : 409035
Heartbeat CPU 3 instructions: 60000000 cycles: 46179722 heartbeat IPC: 1.30316 cumulative IPC: 1.29927 (Simulation time: 3 hr 58 min 42 sec) 
 Total Blocks : 196608 Invalid Blocks : 6806 Valid Blocks : 189802
 Total Tags : 491520 Threshold : 12288 Invalid Tags : 203414 Pr0 Tags : 98304 Pr1 Tags : 189802 num_pr0 : 12288
 SAE Count : 0
 Inter-Core Inteference in Data Store : 409035
Heartbeat CPU 5 instructions: 60000000 cycles: 46179947 heartbeat IPC: 1.30329 cumulative IPC: 1.29927 (Simulation time: 3 hr 58 min 42 sec) 
 Total Blocks : 196608 Invalid Blocks : 6806 Valid Blocks : 189802
 Total Tags : 491520 Threshold : 12288 Invalid Tags : 203414 Pr0 Tags : 98304 Pr1 Tags : 189802 num_pr0 : 12288
 SAE Count : 0
 Inter-Core Inteference in Data Store : 409035
Heartbeat CPU 6 instructions: 60000000 cycles: 46182178 heartbeat IPC: 1.30322 cumulative IPC: 1.2992 (Simulation time: 3 hr 58 min 42 sec) 
 Total Blocks : 196608 Invalid Blocks : 6806 Valid Blocks : 189802
 Total Tags : 491520 Threshold : 12288 Invalid Tags : 203414 Pr0 Tags : 98304 Pr1 Tags : 189802 num_pr0 : 12288
 SAE Count : 0
 Inter-Core Inteference in Data Store : 409040
Heartbeat CPU 7 instructions: 60000000 cycles: 46186332 heartbeat IPC: 1.30287 cumulative IPC: 1.29909 (Simulation time: 3 hr 58 min 42 sec) 
 Total Blocks : 196608 Invalid Blocks : 6806 Valid Blocks : 189802
 Total Tags : 491520 Threshold : 12288 Invalid Tags : 203414 Pr0 Tags : 98304 Pr1 Tags : 189802 num_pr0 : 12288
 SAE Count : 0
 Inter-Core Inteference in Data Store : 409049
Heartbeat CPU 3 instructions: 70000000 cycles: 53875781 heartbeat IPC: 1.29937 cumulative IPC: 1.29929 (Simulation time: 4 hr 20 min 34 sec) 
 Total Blocks : 196608 Invalid Blocks : 4083 Valid Blocks : 192525
 Total Tags : 491520 Threshold : 12288 Invalid Tags : 200691 Pr0 Tags : 98304 Pr1 Tags : 192525 num_pr0 : 12288
 SAE Count : 0
 Inter-Core Inteference in Data Store : 493135
Heartbeat CPU 5 instructions: 70000000 cycles: 53876316 heartbeat IPC: 1.29931 cumulative IPC: 1.29927 (Simulation time: 4 hr 20 min 34 sec) 
 Total Blocks : 196608 Invalid Blocks : 4083 Valid Blocks : 192525
 Total Tags : 491520 Threshold : 12288 Invalid Tags : 200691 Pr0 Tags : 98304 Pr1 Tags : 192525 num_pr0 : 12288
 SAE Count : 0
 Inter-Core Inteference in Data Store : 493141
Heartbeat CPU 7 instructions: 70000000 cycles: 53882998 heartbeat IPC: 1.29926 cumulative IPC: 1.29911 (Simulation time: 4 hr 20 min 35 sec) 
 Total Blocks : 196608 Invalid Blocks : 4082 Valid Blocks : 192526
 Total Tags : 491520 Threshold : 12288 Invalid Tags : 200690 Pr0 Tags : 98304 Pr1 Tags : 192526 num_pr0 : 12288
 SAE Count : 0
 Inter-Core Inteference in Data Store : 493215
Heartbeat CPU 0 instructions: 70000000 cycles: 53885510 heartbeat IPC: 1.29674 cumulative IPC: 1.29905 (Simulation time: 4 hr 20 min 35 sec) 
 Total Blocks : 196608 Invalid Blocks : 4082 Valid Blocks : 192526
 Total Tags : 491520 Threshold : 12288 Invalid Tags : 200690 Pr0 Tags : 98304 Pr1 Tags : 192526 num_pr0 : 12288
 SAE Count : 0
 Inter-Core Inteference in Data Store : 493244
Heartbeat CPU 2 instructions: 70000000 cycles: 53887981 heartbeat IPC: 1.29671 cumulative IPC: 1.29899 (Simulation time: 4 hr 20 min 36 sec) 
 Total Blocks : 196608 Invalid Blocks : 4080 Valid Blocks : 192528
 Total Tags : 491520 Threshold : 12288 Invalid Tags : 200688 Pr0 Tags : 98304 Pr1 Tags : 192528 num_pr0 : 12288
 SAE Count : 0
 Inter-Core Inteference in Data Store : 493272
Heartbeat CPU 1 instructions: 70000000 cycles: 53892332 heartbeat IPC: 1.29592 cumulative IPC: 1.29889 (Simulation time: 4 hr 20 min 37 sec) 
 Total Blocks : 196608 Invalid Blocks : 4079 Valid Blocks : 192529
 Total Tags : 491520 Threshold : 12288 Invalid Tags : 200687 Pr0 Tags : 98304 Pr1 Tags : 192529 num_pr0 : 12288
 SAE Count : 0
 Inter-Core Inteference in Data Store : 493330
Heartbeat CPU 6 instructions: 70000000 cycles: 53895256 heartbeat IPC: 1.2965 cumulative IPC: 1.29882 (Simulation time: 4 hr 20 min 37 sec) 
 Total Blocks : 196608 Invalid Blocks : 4077 Valid Blocks : 192531
 Total Tags : 491520 Threshold : 12288 Invalid Tags : 200685 Pr0 Tags : 98304 Pr1 Tags : 192531 num_pr0 : 12288
 SAE Count : 0
 Inter-Core Inteference in Data Store : 493359
Heartbeat CPU 4 instructions: 70000000 cycles: 53896178 heartbeat IPC: 1.29579 cumulative IPC: 1.29879 (Simulation time: 4 hr 20 min 38 sec) 
 Total Blocks : 196608 Invalid Blocks : 4077 Valid Blocks : 192531
 Total Tags : 491520 Threshold : 12288 Invalid Tags : 200685 Pr0 Tags : 98304 Pr1 Tags : 192531 num_pr0 : 12288
 SAE Count : 0
 Inter-Core Inteference in Data Store : 493372
Heartbeat CPU 3 instructions: 80000002 cycles: 61611845 heartbeat IPC: 1.29265 cumulative IPC: 1.29845 (Simulation time: 4 hr 41 min 31 sec) 
 Total Blocks : 196608 Invalid Blocks : 2136 Valid Blocks : 194472
 Total Tags : 491520 Threshold : 12288 Invalid Tags : 198744 Pr0 Tags : 98304 Pr1 Tags : 194472 num_pr0 : 12288
 SAE Count : 0
 Inter-Core Inteference in Data Store : 601496
Heartbeat CPU 5 instructions: 80000002 cycles: 61612967 heartbeat IPC: 1.29255 cumulative IPC: 1.29843 (Simulation time: 4 hr 41 min 32 sec) 
 Total Blocks : 196608 Invalid Blocks : 2135 Valid Blocks : 194473
 Total Tags : 491520 Threshold : 12288 Invalid Tags : 198743 Pr0 Tags : 98304 Pr1 Tags : 194473 num_pr0 : 12288
 SAE Count : 0
 Inter-Core Inteference in Data Store : 601509
Heartbeat CPU 7 instructions: 80000002 cycles: 61620084 heartbeat IPC: 1.29248 cumulative IPC: 1.29828 (Simulation time: 4 hr 41 min 33 sec) 
 Total Blocks : 196608 Invalid Blocks : 2133 Valid Blocks : 194475
 Total Tags : 491520 Threshold : 12288 Invalid Tags : 198741 Pr0 Tags : 98304 Pr1 Tags : 194475 num_pr0 : 12288
 SAE Count : 0
 Inter-Core Inteference in Data Store : 601597
Heartbeat CPU 0 instructions: 80000002 cycles: 61620980 heartbeat IPC: 1.29275 cumulative IPC: 1.29826 (Simulation time: 4 hr 41 min 33 sec) 
 Total Blocks : 196608 Invalid Blocks : 2132 Valid Blocks : 194476
 Total Tags : 491520 Threshold : 12288 Invalid Tags : 198740 Pr0 Tags : 98304 Pr1 Tags : 194476 num_pr0 : 12288
 SAE Count : 0
 Inter-Core Inteference in Data Store : 601611
Heartbeat CPU 2 instructions: 80000002 cycles: 61623443 heartbeat IPC: 1.29275 cumulative IPC: 1.29821 (Simulation time: 4 hr 41 min 34 sec) 
 Total Blocks : 196608 Invalid Blocks : 2131 Valid Blocks : 194477
 Total Tags : 491520 Threshold : 12288 Invalid Tags : 198739 Pr0 Tags : 98304 Pr1 Tags : 194477 num_pr0 : 12288
 SAE Count : 0
 Inter-Core Inteference in Data Store : 601644
Heartbeat CPU 1 instructions: 80000002 cycles: 61628238 heartbeat IPC: 1.29267 cumulative IPC: 1.29811 (Simulation time: 4 hr 41 min 36 sec) 
 Total Blocks : 196608 Invalid Blocks : 2130 Valid Blocks : 194478
 Total Tags : 491520 Threshold : 12288 Invalid Tags : 198738 Pr0 Tags : 98304 Pr1 Tags : 194478 num_pr0 : 12288
 SAE Count : 0
 Inter-Core Inteference in Data Store : 601717
Heartbeat CPU 6 instructions: 80000002 cycles: 61632099 heartbeat IPC: 1.29252 cumulative IPC: 1.29802 (Simulation time: 4 hr 41 min 37 sec) 
 Total Blocks : 196608 Invalid Blocks : 2129 Valid Blocks : 194479
 Total Tags : 491520 Threshold : 12288 Invalid Tags : 198737 Pr0 Tags : 98304 Pr1 Tags : 194479 num_pr0 : 12288
 SAE Count : 0
 Inter-Core Inteference in Data Store : 601790
Heartbeat CPU 4 instructions: 80000002 cycles: 61632409 heartbeat IPC: 1.29262 cumulative IPC: 1.29802 (Simulation time: 4 hr 41 min 37 sec) 
 Total Blocks : 196608 Invalid Blocks : 2129 Valid Blocks : 194479
 Total Tags : 491520 Threshold : 12288 Invalid Tags : 198737 Pr0 Tags : 98304 Pr1 Tags : 194479 num_pr0 : 12288
 SAE Count : 0
 Inter-Core Inteference in Data Store : 601792
Heartbeat CPU 3 instructions: 90000002 cycles: 69204547 heartbeat IPC: 1.31705 cumulative IPC: 1.30049 (Simulation time: 5 hr 3 min 4 sec) 
 Total Blocks : 196608 Invalid Blocks : 1155 Valid Blocks : 195453
 Total Tags : 491520 Threshold : 12288 Invalid Tags : 197763 Pr0 Tags : 98304 Pr1 Tags : 195453 num_pr0 : 12288
 SAE Count : 0
 Inter-Core Inteference in Data Store : 711322
Heartbeat CPU 5 instructions: 90000002 cycles: 69206697 heartbeat IPC: 1.31688 cumulative IPC: 1.30045 (Simulation time: 5 hr 3 min 5 sec) 
 Total Blocks : 196608 Invalid Blocks : 1153 Valid Blocks : 195455
 Total Tags : 491520 Threshold : 12288 Invalid Tags : 197761 Pr0 Tags : 98304 Pr1 Tags : 195455 num_pr0 : 12288
 SAE Count : 0
 Inter-Core Inteference in Data Store : 711352
Heartbeat CPU 7 instructions: 90000002 cycles: 69212208 heartbeat IPC: 1.31715 cumulative IPC: 1.30035 (Simulation time: 5 hr 3 min 6 sec) 
 Total Blocks : 196608 Invalid Blocks : 1153 Valid Blocks : 195455
 Total Tags : 491520 Threshold : 12288 Invalid Tags : 197761 Pr0 Tags : 98304 Pr1 Tags : 195455 num_pr0 : 12288
 SAE Count : 0
 Inter-Core Inteference in Data Store : 711429
Heartbeat CPU 0 instructions: 90000002 cycles: 69214124 heartbeat IPC: 1.31698 cumulative IPC: 1.30031 (Simulation time: 5 hr 3 min 7 sec) 
 Total Blocks : 196608 Invalid Blocks : 1153 Valid Blocks : 195455
 Total Tags : 491520 Threshold : 12288 Invalid Tags : 197761 Pr0 Tags : 98304 Pr1 Tags : 195455 num_pr0 : 12288
 SAE Count : 0
 Inter-Core Inteference in Data Store : 711439
Heartbeat CPU 2 instructions: 90000002 cycles: 69215862 heartbeat IPC: 1.3171 cumulative IPC: 1.30028 (Simulation time: 5 hr 3 min 7 sec) 
 Total Blocks : 196608 Invalid Blocks : 1153 Valid Blocks : 195455
 Total Tags : 491520 Threshold : 12288 Invalid Tags : 197761 Pr0 Tags : 98304 Pr1 Tags : 195455 num_pr0 : 12288
 SAE Count : 0
 Inter-Core Inteference in Data Store : 711475
Heartbeat CPU 1 instructions: 90000002 cycles: 69220602 heartbeat IPC: 1.31711 cumulative IPC: 1.30019 (Simulation time: 5 hr 3 min 8 sec) 
 Total Blocks : 196608 Invalid Blocks : 1152 Valid Blocks : 195456
 Total Tags : 491520 Threshold : 12288 Invalid Tags : 197760 Pr0 Tags : 98304 Pr1 Tags : 195456 num_pr0 : 12288
 SAE Count : 0
 Inter-Core Inteference in Data Store : 711535
Heartbeat CPU 6 instructions: 90000002 cycles: 69223836 heartbeat IPC: 1.31722 cumulative IPC: 1.30013 (Simulation time: 5 hr 3 min 9 sec) 
 Total Blocks : 196608 Invalid Blocks : 1152 Valid Blocks : 195456
 Total Tags : 491520 Threshold : 12288 Invalid Tags : 197760 Pr0 Tags : 98304 Pr1 Tags : 195456 num_pr0 : 12288
 SAE Count : 0
 Inter-Core Inteference in Data Store : 711569
Heartbeat CPU 4 instructions: 90000002 cycles: 69223963 heartbeat IPC: 1.31725 cumulative IPC: 1.30013 (Simulation time: 5 hr 3 min 9 sec) 
 Total Blocks : 196608 Invalid Blocks : 1152 Valid Blocks : 195456
 Total Tags : 491520 Threshold : 12288 Invalid Tags : 197760 Pr0 Tags : 98304 Pr1 Tags : 195456 num_pr0 : 12288
 SAE Count : 0
 Inter-Core Inteference in Data Store : 711569
Heartbeat CPU 3 instructions: 100000002 cycles: 76909094 heartbeat IPC: 1.29793 cumulative IPC: 1.30024 (Simulation time: 5 hr 25 min 23 sec) 
 Total Blocks : 196608 Invalid Blocks : 645 Valid Blocks : 195963
 Total Tags : 491520 Threshold : 12288 Invalid Tags : 197253 Pr0 Tags : 98304 Pr1 Tags : 195963 num_pr0 : 12288
 SAE Count : 0
 Inter-Core Inteference in Data Store : 805040
Heartbeat CPU 5 instructions: 100000002 cycles: 76911960 heartbeat IPC: 1.29781 cumulative IPC: 1.30019 (Simulation time: 5 hr 25 min 24 sec) 
 Total Blocks : 196608 Invalid Blocks : 645 Valid Blocks : 195963
 Total Tags : 491520 Threshold : 12288 Invalid Tags : 197253 Pr0 Tags : 98304 Pr1 Tags : 195963 num_pr0 : 12288
 SAE Count : 0
 Inter-Core Inteference in Data Store : 805049
Heartbeat CPU 7 instructions: 100000002 cycles: 76917849 heartbeat IPC: 1.29775 cumulative IPC: 1.30009 (Simulation time: 5 hr 25 min 25 sec) 
 Total Blocks : 196608 Invalid Blocks : 645 Valid Blocks : 195963
 Total Tags : 491520 Threshold : 12288 Invalid Tags : 197253 Pr0 Tags : 98304 Pr1 Tags : 195963 num_pr0 : 12288
 SAE Count : 0
 Inter-Core Inteference in Data Store : 805056
Heartbeat CPU 0 instructions: 100000002 cycles: 76918418 heartbeat IPC: 1.29798 cumulative IPC: 1.30008 (Simulation time: 5 hr 25 min 25 sec) 
 Total Blocks : 196608 Invalid Blocks : 645 Valid Blocks : 195963
 Total Tags : 491520 Threshold : 12288 Invalid Tags : 197253 Pr0 Tags : 98304 Pr1 Tags : 195963 num_pr0 : 12288
 SAE Count : 0
 Inter-Core Inteference in Data Store : 805056
Heartbeat CPU 2 instructions: 100000002 cycles: 76920649 heartbeat IPC: 1.29789 cumulative IPC: 1.30004 (Simulation time: 5 hr 25 min 25 sec) 
 Total Blocks : 196608 Invalid Blocks : 645 Valid Blocks : 195963
 Total Tags : 491520 Threshold : 12288 Invalid Tags : 197253 Pr0 Tags : 98304 Pr1 Tags : 195963 num_pr0 : 12288
 SAE Count : 0
 Inter-Core Inteference in Data Store : 805059
Heartbeat CPU 1 instructions: 100000002 cycles: 76925094 heartbeat IPC: 1.29794 cumulative IPC: 1.29997 (Simulation time: 5 hr 25 min 26 sec) 
 Total Blocks : 196608 Invalid Blocks : 645 Valid Blocks : 195963
 Total Tags : 491520 Threshold : 12288 Invalid Tags : 197253 Pr0 Tags : 98304 Pr1 Tags : 195963 num_pr0 : 12288
 SAE Count : 0
 Inter-Core Inteference in Data Store : 805060
Heartbeat CPU 6 instructions: 100000002 cycles: 76929553 heartbeat IPC: 1.29774 cumulative IPC: 1.29989 (Simulation time: 5 hr 25 min 26 sec) 
 Total Blocks : 196608 Invalid Blocks : 645 Valid Blocks : 195963
 Total Tags : 491520 Threshold : 12288 Invalid Tags : 197253 Pr0 Tags : 98304 Pr1 Tags : 195963 num_pr0 : 12288
 SAE Count : 0
 Inter-Core Inteference in Data Store : 805066
Heartbeat CPU 4 instructions: 100000002 cycles: 76930146 heartbeat IPC: 1.29766 cumulative IPC: 1.29988 (Simulation time: 5 hr 25 min 26 sec) 
 Total Blocks : 196608 Invalid Blocks : 645 Valid Blocks : 195963
 Total Tags : 491520 Threshold : 12288 Invalid Tags : 197253 Pr0 Tags : 98304 Pr1 Tags : 195963 num_pr0 : 12288
 SAE Count : 0
 Inter-Core Inteference in Data Store : 805066
Heartbeat CPU 3 instructions: 110000000 cycles: 84398537 heartbeat IPC: 1.33521 cumulative IPC: 1.30334 (Simulation time: 5 hr 48 min 19 sec) 
 Total Blocks : 196608 Invalid Blocks : 268 Valid Blocks : 196340
 Total Tags : 491520 Threshold : 12288 Invalid Tags : 196876 Pr0 Tags : 98304 Pr1 Tags : 196340 num_pr0 : 12288
 SAE Count : 0
 Inter-Core Inteference in Data Store : 950143
Heartbeat CPU 2 instructions: 110000000 cycles: 84417575 heartbeat IPC: 1.33388 cumulative IPC: 1.30305 (Simulation time: 5 hr 48 min 22 sec) 
 Total Blocks : 196608 Invalid Blocks : 268 Valid Blocks : 196340
 Total Tags : 491520 Threshold : 12288 Invalid Tags : 196876 Pr0 Tags : 98304 Pr1 Tags : 196340 num_pr0 : 12288
 SAE Count : 0
 Inter-Core Inteference in Data Store : 950280
Heartbeat CPU 5 instructions: 110000000 cycles: 84418351 heartbeat IPC: 1.3322 cumulative IPC: 1.30303 (Simulation time: 5 hr 48 min 22 sec) 
 Total Blocks : 196608 Invalid Blocks : 268 Valid Blocks : 196340
 Total Tags : 491520 Threshold : 12288 Invalid Tags : 196876 Pr0 Tags : 98304 Pr1 Tags : 196340 num_pr0 : 12288
 SAE Count : 0
 Inter-Core Inteference in Data Store : 950286
Heartbeat CPU 0 instructions: 110000000 cycles: 84423970 heartbeat IPC: 1.33235 cumulative IPC: 1.30295 (Simulation time: 5 hr 48 min 23 sec) 
 Total Blocks : 196608 Invalid Blocks : 268 Valid Blocks : 196340
 Total Tags : 491520 Threshold : 12288 Invalid Tags : 196876 Pr0 Tags : 98304 Pr1 Tags : 196340 num_pr0 : 12288
 SAE Count : 0
 Inter-Core Inteference in Data Store : 950319
Heartbeat CPU 7 instructions: 110000000 cycles: 84424317 heartbeat IPC: 1.33218 cumulative IPC: 1.30294 (Simulation time: 5 hr 48 min 23 sec) 
 Total Blocks : 196608 Invalid Blocks : 268 Valid Blocks : 196340
 Total Tags : 491520 Threshold : 12288 Invalid Tags : 196876 Pr0 Tags : 98304 Pr1 Tags : 196340 num_pr0 : 12288
 SAE Count : 0
 Inter-Core Inteference in Data Store : 950323
Heartbeat CPU 1 instructions: 110000000 cycles: 84430781 heartbeat IPC: 1.33232 cumulative IPC: 1.30284 (Simulation time: 5 hr 48 min 24 sec) 
 Total Blocks : 196608 Invalid Blocks : 268 Valid Blocks : 196340
 Total Tags : 491520 Threshold : 12288 Invalid Tags : 196876 Pr0 Tags : 98304 Pr1 Tags : 196340 num_pr0 : 12288
 SAE Count : 0
 Inter-Core Inteference in Data Store : 950354
Heartbeat CPU 6 instructions: 110000000 cycles: 84435941 heartbeat IPC: 1.3322 cumulative IPC: 1.30276 (Simulation time: 5 hr 48 min 25 sec) 
 Total Blocks : 196608 Invalid Blocks : 268 Valid Blocks : 196340
 Total Tags : 491520 Threshold : 12288 Invalid Tags : 196876 Pr0 Tags : 98304 Pr1 Tags : 196340 num_pr0 : 12288
 SAE Count : 0
 Inter-Core Inteference in Data Store : 950384
Heartbeat CPU 4 instructions: 110000000 cycles: 84436523 heartbeat IPC: 1.3322 cumulative IPC: 1.30275 (Simulation time: 5 hr 48 min 25 sec) 
 Total Blocks : 196608 Invalid Blocks : 268 Valid Blocks : 196340
 Total Tags : 491520 Threshold : 12288 Invalid Tags : 196876 Pr0 Tags : 98304 Pr1 Tags : 196340 num_pr0 : 12288
 SAE Count : 0
 Inter-Core Inteference in Data Store : 950385
Heartbeat CPU 3 instructions: 120000000 cycles: 91903330 heartbeat IPC: 1.33248 cumulative IPC: 1.30572 (Simulation time: 6 hr 8 min 44 sec) 
 Total Blocks : 196608 Invalid Blocks : 123 Valid Blocks : 196485
 Total Tags : 491520 Threshold : 12288 Invalid Tags : 196731 Pr0 Tags : 98304 Pr1 Tags : 196485 num_pr0 : 12288
 SAE Count : 0
 Inter-Core Inteference in Data Store : 1077114
Heartbeat CPU 2 instructions: 120000000 cycles: 91921863 heartbeat IPC: 1.33257 cumulative IPC: 1.30546 (Simulation time: 6 hr 8 min 46 sec) 
 Total Blocks : 196608 Invalid Blocks : 123 Valid Blocks : 196485
 Total Tags : 491520 Threshold : 12288 Invalid Tags : 196731 Pr0 Tags : 98304 Pr1 Tags : 196485 num_pr0 : 12288
 SAE Count : 0
 Inter-Core Inteference in Data Store : 1077498
Heartbeat CPU 5 instructions: 120000000 cycles: 91923571 heartbeat IPC: 1.33241 cumulative IPC: 1.30543 (Simulation time: 6 hr 8 min 47 sec) 
 Total Blocks : 196608 Invalid Blocks : 123 Valid Blocks : 196485
 Total Tags : 491520 Threshold : 12288 Invalid Tags : 196731 Pr0 Tags : 98304 Pr1 Tags : 196485 num_pr0 : 12288
 SAE Count : 0
 Inter-Core Inteference in Data Store : 1077538
Heartbeat CPU 0 instructions: 120000000 cycles: 91927908 heartbeat IPC: 1.33263 cumulative IPC: 1.30537 (Simulation time: 6 hr 8 min 47 sec) 
 Total Blocks : 196608 Invalid Blocks : 123 Valid Blocks : 196485
 Total Tags : 491520 Threshold : 12288 Invalid Tags : 196731 Pr0 Tags : 98304 Pr1 Tags : 196485 num_pr0 : 12288
 SAE Count : 0
 Inter-Core Inteference in Data Store : 1077616
Heartbeat CPU 7 instructions: 120000000 cycles: 91929901 heartbeat IPC: 1.33234 cumulative IPC: 1.30534 (Simulation time: 6 hr 8 min 48 sec) 
 Total Blocks : 196608 Invalid Blocks : 123 Valid Blocks : 196485
 Total Tags : 491520 Threshold : 12288 Invalid Tags : 196731 Pr0 Tags : 98304 Pr1 Tags : 196485 num_pr0 : 12288
 SAE Count : 0
 Inter-Core Inteference in Data Store : 1077664
Heartbeat CPU 1 instructions: 120000000 cycles: 91935206 heartbeat IPC: 1.33255 cumulative IPC: 1.30527 (Simulation time: 6 hr 8 min 48 sec) 
 Total Blocks : 196608 Invalid Blocks : 123 Valid Blocks : 196485
 Total Tags : 491520 Threshold : 12288 Invalid Tags : 196731 Pr0 Tags : 98304 Pr1 Tags : 196485 num_pr0 : 12288
 SAE Count : 0
 Inter-Core Inteference in Data Store : 1077774
Heartbeat CPU 6 instructions: 120000000 cycles: 91941037 heartbeat IPC: 1.33243 cumulative IPC: 1.30518 (Simulation time: 6 hr 8 min 49 sec) 
 Total Blocks : 196608 Invalid Blocks : 123 Valid Blocks : 196485
 Total Tags : 491520 Threshold : 12288 Invalid Tags : 196731 Pr0 Tags : 98304 Pr1 Tags : 196485 num_pr0 : 12288
 SAE Count : 0
 Inter-Core Inteference in Data Store : 1077873
Heartbeat CPU 4 instructions: 120000000 cycles: 91941996 heartbeat IPC: 1.33236 cumulative IPC: 1.30517 (Simulation time: 6 hr 8 min 49 sec) 
 Total Blocks : 196608 Invalid Blocks : 123 Valid Blocks : 196485
 Total Tags : 491520 Threshold : 12288 Invalid Tags : 196731 Pr0 Tags : 98304 Pr1 Tags : 196485 num_pr0 : 12288
 SAE Count : 0
 Inter-Core Inteference in Data Store : 1077893
Heartbeat CPU 3 instructions: 130000001 cycles: 99760619 heartbeat IPC: 1.2727 cumulative IPC: 1.30312 (Simulation time: 6 hr 29 min 28 sec) 
 Total Blocks : 196608 Invalid Blocks : 86 Valid Blocks : 196522
 Total Tags : 491520 Threshold : 12288 Invalid Tags : 196694 Pr0 Tags : 98304 Pr1 Tags : 196522 num_pr0 : 12288
 SAE Count : 0
 Inter-Core Inteference in Data Store : 1152265
Heartbeat CPU 2 instructions: 130000001 cycles: 99778933 heartbeat IPC: 1.27274 cumulative IPC: 1.30288 (Simulation time: 6 hr 29 min 32 sec) 
 Total Blocks : 196608 Invalid Blocks : 86 Valid Blocks : 196522
 Total Tags : 491520 Threshold : 12288 Invalid Tags : 196694 Pr0 Tags : 98304 Pr1 Tags : 196522 num_pr0 : 12288
 SAE Count : 0
 Inter-Core Inteference in Data Store : 1152473
Heartbeat CPU 5 instructions: 130000001 cycles: 99781248 heartbeat IPC: 1.27264 cumulative IPC: 1.30285 (Simulation time: 6 hr 29 min 33 sec) 
 Total Blocks : 196608 Invalid Blocks : 86 Valid Blocks : 196522
 Total Tags : 491520 Threshold : 12288 Invalid Tags : 196694 Pr0 Tags : 98304 Pr1 Tags : 196522 num_pr0 : 12288
 SAE Count : 0
 Inter-Core Inteference in Data Store : 1152493
Heartbeat CPU 0 instructions: 130000001 cycles: 99784372 heartbeat IPC: 1.27284 cumulative IPC: 1.30281 (Simulation time: 6 hr 29 min 33 sec) 
 Total Blocks : 196608 Invalid Blocks : 86 Valid Blocks : 196522
 Total Tags : 491520 Threshold : 12288 Invalid Tags : 196694 Pr0 Tags : 98304 Pr1 Tags : 196522 num_pr0 : 12288
 SAE Count : 0
 Inter-Core Inteference in Data Store : 1152524
Heartbeat CPU 7 instructions: 130000001 cycles: 99788007 heartbeat IPC: 1.27257 cumulative IPC: 1.30276 (Simulation time: 6 hr 29 min 34 sec) 
 Total Blocks : 196608 Invalid Blocks : 86 Valid Blocks : 196522
 Total Tags : 491520 Threshold : 12288 Invalid Tags : 196694 Pr0 Tags : 98304 Pr1 Tags : 196522 num_pr0 : 12288
 SAE Count : 0
 Inter-Core Inteference in Data Store : 1152540
Heartbeat CPU 1 instructions: 130000001 cycles: 99792278 heartbeat IPC: 1.27274 cumulative IPC: 1.30271 (Simulation time: 6 hr 29 min 35 sec) 
 Total Blocks : 196608 Invalid Blocks : 86 Valid Blocks : 196522
 Total Tags : 491520 Threshold : 12288 Invalid Tags : 196694 Pr0 Tags : 98304 Pr1 Tags : 196522 num_pr0 : 12288
 SAE Count : 0
 Inter-Core Inteference in Data Store : 1152570
Heartbeat CPU 6 instructions: 130000001 cycles: 99798763 heartbeat IPC: 1.27263 cumulative IPC: 1.30262 (Simulation time: 6 hr 29 min 36 sec) 
 Total Blocks : 196608 Invalid Blocks : 86 Valid Blocks : 196522
 Total Tags : 491520 Threshold : 12288 Invalid Tags : 196694 Pr0 Tags : 98304 Pr1 Tags : 196522 num_pr0 : 12288
 SAE Count : 0
 Inter-Core Inteference in Data Store : 1152598
Heartbeat CPU 4 instructions: 130000001 cycles: 99799674 heartbeat IPC: 1.27264 cumulative IPC: 1.30261 (Simulation time: 6 hr 29 min 36 sec) 
 Total Blocks : 196608 Invalid Blocks : 86 Valid Blocks : 196522
 Total Tags : 491520 Threshold : 12288 Invalid Tags : 196694 Pr0 Tags : 98304 Pr1 Tags : 196522 num_pr0 : 12288
 SAE Count : 0
 Inter-Core Inteference in Data Store : 1152602
Heartbeat CPU 3 instructions: 140000000 cycles: 107504123 heartbeat IPC: 1.2914 cumulative IPC: 1.30228 (Simulation time: 6 hr 50 min 24 sec) 
 Total Blocks : 196608 Invalid Blocks : 52 Valid Blocks : 196556
 Total Tags : 491520 Threshold : 12288 Invalid Tags : 196660 Pr0 Tags : 98304 Pr1 Tags : 196556 num_pr0 : 12288
 SAE Count : 0
 Inter-Core Inteference in Data Store : 1233975
Heartbeat CPU 2 instructions: 140000000 cycles: 107522359 heartbeat IPC: 1.29142 cumulative IPC: 1.30205 (Simulation time: 6 hr 50 min 28 sec) 
 Total Blocks : 196608 Invalid Blocks : 52 Valid Blocks : 196556
 Total Tags : 491520 Threshold : 12288 Invalid Tags : 196660 Pr0 Tags : 98304 Pr1 Tags : 196556 num_pr0 : 12288
 SAE Count : 0
 Inter-Core Inteference in Data Store : 1233993
Heartbeat CPU 0 instructions: 140000000 cycles: 107527271 heartbeat IPC: 1.29151 cumulative IPC: 1.302 (Simulation time: 6 hr 50 min 29 sec) 
 Total Blocks : 196608 Invalid Blocks : 52 Valid Blocks : 196556
 Total Tags : 491520 Threshold : 12288 Invalid Tags : 196660 Pr0 Tags : 98304 Pr1 Tags : 196556 num_pr0 : 12288
 SAE Count : 0
 Inter-Core Inteference in Data Store : 1233998
Heartbeat CPU 5 instructions: 140000000 cycles: 107533311 heartbeat IPC: 1.28998 cumulative IPC: 1.30192 (Simulation time: 6 hr 50 min 30 sec) 
 Total Blocks : 196608 Invalid Blocks : 52 Valid Blocks : 196556
 Total Tags : 491520 Threshold : 12288 Invalid Tags : 196660 Pr0 Tags : 98304 Pr1 Tags : 196556 num_pr0 : 12288
 SAE Count : 0
 Inter-Core Inteference in Data Store : 1234007
Heartbeat CPU 1 instructions: 140000000 cycles: 107535487 heartbeat IPC: 1.29145 cumulative IPC: 1.3019 (Simulation time: 6 hr 50 min 30 sec) 
 Total Blocks : 196608 Invalid Blocks : 52 Valid Blocks : 196556
 Total Tags : 491520 Threshold : 12288 Invalid Tags : 196660 Pr0 Tags : 98304 Pr1 Tags : 196556 num_pr0 : 12288
 SAE Count : 0
 Inter-Core Inteference in Data Store : 1234008
Heartbeat CPU 7 instructions: 140000000 cycles: 107540012 heartbeat IPC: 1.28999 cumulative IPC: 1.30184 (Simulation time: 6 hr 50 min 31 sec) 
 Total Blocks : 196608 Invalid Blocks : 52 Valid Blocks : 196556
 Total Tags : 491520 Threshold : 12288 Invalid Tags : 196660 Pr0 Tags : 98304 Pr1 Tags : 196556 num_pr0 : 12288
 SAE Count : 0
 Inter-Core Inteference in Data Store : 1234009
Heartbeat CPU 6 instructions: 140000000 cycles: 107543266 heartbeat IPC: 1.29124 cumulative IPC: 1.3018 (Simulation time: 6 hr 50 min 32 sec) 
 Total Blocks : 196608 Invalid Blocks : 52 Valid Blocks : 196556
 Total Tags : 491520 Threshold : 12288 Invalid Tags : 196660 Pr0 Tags : 98304 Pr1 Tags : 196556 num_pr0 : 12288
 SAE Count : 0
 Inter-Core Inteference in Data Store : 1234014
Heartbeat CPU 4 instructions: 140000000 cycles: 107543733 heartbeat IPC: 1.29131 cumulative IPC: 1.3018 (Simulation time: 6 hr 50 min 32 sec) 
 Total Blocks : 196608 Invalid Blocks : 52 Valid Blocks : 196556
 Total Tags : 491520 Threshold : 12288 Invalid Tags : 196660 Pr0 Tags : 98304 Pr1 Tags : 196556 num_pr0 : 12288
 SAE Count : 0
 Inter-Core Inteference in Data Store : 1234014
Heartbeat CPU 3 instructions: 150000000 cycles: 114929224 heartbeat IPC: 1.34678 cumulative IPC: 1.30515 (Simulation time: 7 hr 11 min 1 sec) 
 Total Blocks : 196608 Invalid Blocks : 24 Valid Blocks : 196584
 Total Tags : 491520 Threshold : 12288 Invalid Tags : 196632 Pr0 Tags : 98304 Pr1 Tags : 196584 num_pr0 : 12288
 SAE Count : 0
 Inter-Core Inteference in Data Store : 1365154
Heartbeat CPU 2 instructions: 150000000 cycles: 114939604 heartbeat IPC: 1.34821 cumulative IPC: 1.30503 (Simulation time: 7 hr 11 min 4 sec) 
 Total Blocks : 196608 Invalid Blocks : 24 Valid Blocks : 196584
 Total Tags : 491520 Threshold : 12288 Invalid Tags : 196632 Pr0 Tags : 98304 Pr1 Tags : 196584 num_pr0 : 12288
 SAE Count : 0
 Inter-Core Inteference in Data Store : 1365365
Heartbeat CPU 5 instructions: 150000000 cycles: 114951391 heartbeat IPC: 1.34806 cumulative IPC: 1.3049 (Simulation time: 7 hr 11 min 6 sec) 
 Total Blocks : 196608 Invalid Blocks : 24 Valid Blocks : 196584
 Total Tags : 491520 Threshold : 12288 Invalid Tags : 196633 Pr0 Tags : 98303 Pr1 Tags : 196584 num_pr0 : 12287
 SAE Count : 0
 Inter-Core Inteference in Data Store : 1365739
Heartbeat CPU 0 instructions: 150000000 cycles: 114951733 heartbeat IPC: 1.3469 cumulative IPC: 1.3049 (Simulation time: 7 hr 11 min 6 sec) 
 Total Blocks : 196608 Invalid Blocks : 24 Valid Blocks : 196584
 Total Tags : 491520 Threshold : 12288 Invalid Tags : 196632 Pr0 Tags : 98304 Pr1 Tags : 196584 num_pr0 : 12288
 SAE Count : 0
 Inter-Core Inteference in Data Store : 1365748
Heartbeat CPU 1 instructions: 150000000 cycles: 114952707 heartbeat IPC: 1.34821 cumulative IPC: 1.30488 (Simulation time: 7 hr 11 min 6 sec) 
 Total Blocks : 196608 Invalid Blocks : 24 Valid Blocks : 196584
 Total Tags : 491520 Threshold : 12288 Invalid Tags : 196632 Pr0 Tags : 98304 Pr1 Tags : 196584 num_pr0 : 12288
 SAE Count : 0
 Inter-Core Inteference in Data Store : 1365788
Heartbeat CPU 7 instructions: 150000000 cycles: 114957987 heartbeat IPC: 1.34808 cumulative IPC: 1.30482 (Simulation time: 7 hr 11 min 7 sec) 
 Total Blocks : 196608 Invalid Blocks : 24 Valid Blocks : 196584
 Total Tags : 491520 Threshold : 12288 Invalid Tags : 196632 Pr0 Tags : 98304 Pr1 Tags : 196584 num_pr0 : 12288
 SAE Count : 0
 Inter-Core Inteference in Data Store : 1366012
Heartbeat CPU 6 instructions: 150000000 cycles: 114960789 heartbeat IPC: 1.34816 cumulative IPC: 1.30479 (Simulation time: 7 hr 11 min 8 sec) 
 Total Blocks : 196608 Invalid Blocks : 24 Valid Blocks : 196584
 Total Tags : 491520 Threshold : 12288 Invalid Tags : 196634 Pr0 Tags : 98302 Pr1 Tags : 196584 num_pr0 : 12287
 SAE Count : 0
 Inter-Core Inteference in Data Store : 1366153
Heartbeat CPU 4 instructions: 150000000 cycles: 114968722 heartbeat IPC: 1.3468 cumulative IPC: 1.3047 (Simulation time: 7 hr 11 min 9 sec) 
 Total Blocks : 196608 Invalid Blocks : 24 Valid Blocks : 196584
 Total Tags : 491520 Threshold : 12288 Invalid Tags : 196632 Pr0 Tags : 98304 Pr1 Tags : 196584 num_pr0 : 12288
 SAE Count : 0
 Inter-Core Inteference in Data Store : 1366450
Heartbeat CPU 3 instructions: 160000000 cycles: 122703573 heartbeat IPC: 1.28628 cumulative IPC: 1.30396 (Simulation time: 7 hr 31 min 20 sec) 
 Total Blocks : 196608 Invalid Blocks : 20 Valid Blocks : 196588
 Total Tags : 491520 Threshold : 12288 Invalid Tags : 196628 Pr0 Tags : 98304 Pr1 Tags : 196588 num_pr0 : 12288
 SAE Count : 0
 Inter-Core Inteference in Data Store : 1438794
Heartbeat CPU 2 instructions: 160000000 cycles: 122713379 heartbeat IPC: 1.28638 cumulative IPC: 1.30385 (Simulation time: 7 hr 31 min 21 sec) 
 Total Blocks : 196608 Invalid Blocks : 20 Valid Blocks : 196588
 Total Tags : 491520 Threshold : 12288 Invalid Tags : 196628 Pr0 Tags : 98304 Pr1 Tags : 196588 num_pr0 : 12288
 SAE Count : 0
 Inter-Core Inteference in Data Store : 1438890
Heartbeat CPU 0 instructions: 160000000 cycles: 122724898 heartbeat IPC: 1.28648 cumulative IPC: 1.30373 (Simulation time: 7 hr 31 min 22 sec) 
 Total Blocks : 196608 Invalid Blocks : 20 Valid Blocks : 196588
 Total Tags : 491520 Threshold : 12288 Invalid Tags : 196628 Pr0 Tags : 98304 Pr1 Tags : 196588 num_pr0 : 12288
 SAE Count : 0
 Inter-Core Inteference in Data Store : 1439021
Heartbeat CPU 5 instructions: 160000000 cycles: 122726071 heartbeat IPC: 1.28623 cumulative IPC: 1.30372 (Simulation time: 7 hr 31 min 23 sec) 
 Total Blocks : 196608 Invalid Blocks : 20 Valid Blocks : 196588
 Total Tags : 491520 Threshold : 12288 Invalid Tags : 196628 Pr0 Tags : 98304 Pr1 Tags : 196588 num_pr0 : 12288
 SAE Count : 0
 Inter-Core Inteference in Data Store : 1439029
Heartbeat CPU 1 instructions: 160000000 cycles: 122726423 heartbeat IPC: 1.28639 cumulative IPC: 1.30371 (Simulation time: 7 hr 31 min 23 sec) 
 Total Blocks : 196608 Invalid Blocks : 20 Valid Blocks : 196588
 Total Tags : 491520 Threshold : 12288 Invalid Tags : 196628 Pr0 Tags : 98304 Pr1 Tags : 196588 num_pr0 : 12288
 SAE Count : 0
 Inter-Core Inteference in Data Store : 1439033
Heartbeat CPU 7 instructions: 160000003 cycles: 122733046 heartbeat IPC: 1.28616 cumulative IPC: 1.30364 (Simulation time: 7 hr 31 min 24 sec) 
 Total Blocks : 196608 Invalid Blocks : 20 Valid Blocks : 196588
 Total Tags : 491520 Threshold : 12288 Invalid Tags : 196628 Pr0 Tags : 98304 Pr1 Tags : 196588 num_pr0 : 12288
 SAE Count : 0
 Inter-Core Inteference in Data Store : 1439102
Heartbeat CPU 6 instructions: 160000000 cycles: 122735367 heartbeat IPC: 1.28624 cumulative IPC: 1.30362 (Simulation time: 7 hr 31 min 24 sec) 
 Total Blocks : 196608 Invalid Blocks : 20 Valid Blocks : 196588
 Total Tags : 491520 Threshold : 12288 Invalid Tags : 196628 Pr0 Tags : 98304 Pr1 Tags : 196588 num_pr0 : 12288
 SAE Count : 0
 Inter-Core Inteference in Data Store : 1439128
Heartbeat CPU 4 instructions: 160000003 cycles: 122743586 heartbeat IPC: 1.2862 cumulative IPC: 1.30353 (Simulation time: 7 hr 31 min 25 sec) 
 Total Blocks : 196608 Invalid Blocks : 20 Valid Blocks : 196588
 Total Tags : 491520 Threshold : 12288 Invalid Tags : 196628 Pr0 Tags : 98304 Pr1 Tags : 196588 num_pr0 : 12288
 SAE Count : 0
 Inter-Core Inteference in Data Store : 1439237
Heartbeat CPU 3 instructions: 170000000 cycles: 130349486 heartbeat IPC: 1.30789 cumulative IPC: 1.30419 (Simulation time: 7 hr 50 min 48 sec) 
 Total Blocks : 196608 Invalid Blocks : 8 Valid Blocks : 196600
 Total Tags : 491520 Threshold : 12288 Invalid Tags : 196616 Pr0 Tags : 98304 Pr1 Tags : 196600 num_pr0 : 12288
 SAE Count : 0
 Inter-Core Inteference in Data Store : 1563726
Heartbeat CPU 2 instructions: 170000000 cycles: 130358948 heartbeat IPC: 1.30795 cumulative IPC: 1.30409 (Simulation time: 7 hr 50 min 50 sec) 
 Total Blocks : 196608 Invalid Blocks : 8 Valid Blocks : 196600
 Total Tags : 491520 Threshold : 12288 Invalid Tags : 196617 Pr0 Tags : 98303 Pr1 Tags : 196600 num_pr0 : 12288
 SAE Count : 0
 Inter-Core Inteference in Data Store : 1563804
Heartbeat CPU 0 instructions: 170000000 cycles: 130369782 heartbeat IPC: 1.30806 cumulative IPC: 1.30398 (Simulation time: 7 hr 50 min 52 sec) 
 Total Blocks : 196608 Invalid Blocks : 8 Valid Blocks : 196600
 Total Tags : 491520 Threshold : 12288 Invalid Tags : 196616 Pr0 Tags : 98304 Pr1 Tags : 196600 num_pr0 : 12288
 SAE Count : 0
 Inter-Core Inteference in Data Store : 1563883
Heartbeat CPU 1 instructions: 170000000 cycles: 130371985 heartbeat IPC: 1.30795 cumulative IPC: 1.30396 (Simulation time: 7 hr 50 min 53 sec) 
 Total Blocks : 196608 Invalid Blocks : 8 Valid Blocks : 196600
 Total Tags : 491520 Threshold : 12288 Invalid Tags : 196616 Pr0 Tags : 98304 Pr1 Tags : 196600 num_pr0 : 12288
 SAE Count : 0
 Inter-Core Inteference in Data Store : 1563898
Heartbeat CPU 5 instructions: 170000000 cycles: 130372500 heartbeat IPC: 1.3078 cumulative IPC: 1.30396 (Simulation time: 7 hr 50 min 53 sec) 
 Total Blocks : 196608 Invalid Blocks : 8 Valid Blocks : 196600
 Total Tags : 491520 Threshold : 12288 Invalid Tags : 196616 Pr0 Tags : 98304 Pr1 Tags : 196600 num_pr0 : 12288
 SAE Count : 0
 Inter-Core Inteference in Data Store : 1563900
Heartbeat CPU 7 instructions: 170000000 cycles: 130379489 heartbeat IPC: 1.3078 cumulative IPC: 1.30389 (Simulation time: 7 hr 50 min 54 sec) 
 Total Blocks : 196608 Invalid Blocks : 8 Valid Blocks : 196600
 Total Tags : 491520 Threshold : 12288 Invalid Tags : 196617 Pr0 Tags : 98303 Pr1 Tags : 196600 num_pr0 : 12287
 SAE Count : 0
 Inter-Core Inteference in Data Store : 1563965
Heartbeat CPU 6 instructions: 170000000 cycles: 130381342 heartbeat IPC: 1.30788 cumulative IPC: 1.30387 (Simulation time: 7 hr 50 min 54 sec) 
 Total Blocks : 196608 Invalid Blocks : 8 Valid Blocks : 196600
 Total Tags : 491520 Threshold : 12288 Invalid Tags : 196617 Pr0 Tags : 98303 Pr1 Tags : 196600 num_pr0 : 12288
 SAE Count : 0
 Inter-Core Inteference in Data Store : 1563985
Heartbeat CPU 4 instructions: 170000000 cycles: 130389371 heartbeat IPC: 1.30791 cumulative IPC: 1.30379 (Simulation time: 7 hr 50 min 56 sec) 
 Total Blocks : 196608 Invalid Blocks : 8 Valid Blocks : 196600
 Total Tags : 491520 Threshold : 12288 Invalid Tags : 196616 Pr0 Tags : 98304 Pr1 Tags : 196600 num_pr0 : 12288
 SAE Count : 0
 Inter-Core Inteference in Data Store : 1564079
Heartbeat CPU 3 instructions: 180000003 cycles: 137922565 heartbeat IPC: 1.32047 cumulative IPC: 1.30508 (Simulation time: 8 hr 10 min 38 sec) 
 Total Blocks : 196608 Invalid Blocks : 4 Valid Blocks : 196604
 Total Tags : 491520 Threshold : 12288 Invalid Tags : 196612 Pr0 Tags : 98304 Pr1 Tags : 196604 num_pr0 : 12288
 SAE Count : 0
 Inter-Core Inteference in Data Store : 1666363
Heartbeat CPU 2 instructions: 180000003 cycles: 137930988 heartbeat IPC: 1.32065 cumulative IPC: 1.305 (Simulation time: 8 hr 10 min 39 sec) 
 Total Blocks : 196608 Invalid Blocks : 4 Valid Blocks : 196604
 Total Tags : 491520 Threshold : 12288 Invalid Tags : 196612 Pr0 Tags : 98304 Pr1 Tags : 196604 num_pr0 : 12288
 SAE Count : 0
 Inter-Core Inteference in Data Store : 1666555
Heartbeat CPU 0 instructions: 180000003 cycles: 137941487 heartbeat IPC: 1.32071 cumulative IPC: 1.3049 (Simulation time: 8 hr 10 min 41 sec) 
 Total Blocks : 196608 Invalid Blocks : 4 Valid Blocks : 196604
 Total Tags : 491520 Threshold : 12288 Invalid Tags : 196612 Pr0 Tags : 98304 Pr1 Tags : 196604 num_pr0 : 12288
 SAE Count : 0
 Inter-Core Inteference in Data Store : 1666758
Heartbeat CPU 1 instructions: 180000003 cycles: 137944278 heartbeat IPC: 1.3206 cumulative IPC: 1.30487 (Simulation time: 8 hr 10 min 41 sec) 
 Total Blocks : 196608 Invalid Blocks : 4 Valid Blocks : 196604
 Total Tags : 491520 Threshold : 12288 Invalid Tags : 196612 Pr0 Tags : 98304 Pr1 Tags : 196604 num_pr0 : 12288
 SAE Count : 0
 Inter-Core Inteference in Data Store : 1666827
Heartbeat CPU 5 instructions: 180000003 cycles: 137945883 heartbeat IPC: 1.32041 cumulative IPC: 1.30486 (Simulation time: 8 hr 10 min 41 sec) 
 Total Blocks : 196608 Invalid Blocks : 4 Valid Blocks : 196604
 Total Tags : 491520 Threshold : 12288 Invalid Tags : 196612 Pr0 Tags : 98304 Pr1 Tags : 196604 num_pr0 : 12288
 SAE Count : 0
 Inter-Core Inteference in Data Store : 1666860
Heartbeat CPU 7 instructions: 180000003 cycles: 137952959 heartbeat IPC: 1.3204 cumulative IPC: 1.30479 (Simulation time: 8 hr 10 min 42 sec) 
 Total Blocks : 196608 Invalid Blocks : 4 Valid Blocks : 196604
 Total Tags : 491520 Threshold : 12288 Invalid Tags : 196612 Pr0 Tags : 98304 Pr1 Tags : 196604 num_pr0 : 12288
 SAE Count : 0
 Inter-Core Inteference in Data Store : 1667008
Heartbeat CPU 6 instructions: 180000003 cycles: 137954289 heartbeat IPC: 1.32049 cumulative IPC: 1.30478 (Simulation time: 8 hr 10 min 42 sec) 
 Total Blocks : 196608 Invalid Blocks : 4 Valid Blocks : 196604
 Total Tags : 491520 Threshold : 12288 Invalid Tags : 196613 Pr0 Tags : 98303 Pr1 Tags : 196604 num_pr0 : 12288
 SAE Count : 0
 Inter-Core Inteference in Data Store : 1667031
Heartbeat CPU 4 instructions: 180000003 cycles: 137962270 heartbeat IPC: 1.3205 cumulative IPC: 1.3047 (Simulation time: 8 hr 10 min 43 sec) 
 Total Blocks : 196608 Invalid Blocks : 4 Valid Blocks : 196604
 Total Tags : 491520 Threshold : 12288 Invalid Tags : 196612 Pr0 Tags : 98304 Pr1 Tags : 196604 num_pr0 : 12288
 SAE Count : 0
 Inter-Core Inteference in Data Store : 1667203
Heartbeat CPU 3 instructions: 190000000 cycles: 145466045 heartbeat IPC: 1.32565 cumulative IPC: 1.30615 (Simulation time: 8 hr 29 min 48 sec) 
 Total Blocks : 196608 Invalid Blocks : 3 Valid Blocks : 196605
 Total Tags : 491520 Threshold : 12288 Invalid Tags : 196611 Pr0 Tags : 98304 Pr1 Tags : 196605 num_pr0 : 12288
 SAE Count : 0
 Inter-Core Inteference in Data Store : 1782265
Heartbeat CPU 2 instructions: 190000000 cycles: 145474339 heartbeat IPC: 1.32567 cumulative IPC: 1.30607 (Simulation time: 8 hr 29 min 49 sec) 
 Total Blocks : 196608 Invalid Blocks : 3 Valid Blocks : 196605
 Total Tags : 491520 Threshold : 12288 Invalid Tags : 196611 Pr0 Tags : 98304 Pr1 Tags : 196605 num_pr0 : 12288
 SAE Count : 0
 Inter-Core Inteference in Data Store : 1782306
Heartbeat CPU 0 instructions: 190000000 cycles: 145484149 heartbeat IPC: 1.32579 cumulative IPC: 1.30598 (Simulation time: 8 hr 29 min 50 sec) 
 Total Blocks : 196608 Invalid Blocks : 3 Valid Blocks : 196605
 Total Tags : 491520 Threshold : 12288 Invalid Tags : 196611 Pr0 Tags : 98304 Pr1 Tags : 196605 num_pr0 : 12288
 SAE Count : 0
 Inter-Core Inteference in Data Store : 1782351
Heartbeat CPU 1 instructions: 190000000 cycles: 145487643 heartbeat IPC: 1.32567 cumulative IPC: 1.30595 (Simulation time: 8 hr 29 min 51 sec) 
 Total Blocks : 196608 Invalid Blocks : 3 Valid Blocks : 196605
 Total Tags : 491520 Threshold : 12288 Invalid Tags : 196611 Pr0 Tags : 98304 Pr1 Tags : 196605 num_pr0 : 12288
 SAE Count : 0
 Inter-Core Inteference in Data Store : 1782364
Heartbeat CPU 5 instructions: 190000000 cycles: 145490060 heartbeat IPC: 1.32553 cumulative IPC: 1.30593 (Simulation time: 8 hr 29 min 51 sec) 
 Total Blocks : 196608 Invalid Blocks : 3 Valid Blocks : 196605
 Total Tags : 491520 Threshold : 12288 Invalid Tags : 196611 Pr0 Tags : 98304 Pr1 Tags : 196605 num_pr0 : 12288
 SAE Count : 0
 Inter-Core Inteference in Data Store : 1782379
Heartbeat CPU 7 instructions: 190000000 cycles: 145497665 heartbeat IPC: 1.32543 cumulative IPC: 1.30586 (Simulation time: 8 hr 29 min 52 sec) 
 Total Blocks : 196608 Invalid Blocks : 3 Valid Blocks : 196605
 Total Tags : 491520 Threshold : 12288 Invalid Tags : 196611 Pr0 Tags : 98304 Pr1 Tags : 196605 num_pr0 : 12288
 SAE Count : 0
 Inter-Core Inteference in Data Store : 1782421
Heartbeat CPU 6 instructions: 190000000 cycles: 145498563 heartbeat IPC: 1.32551 cumulative IPC: 1.30585 (Simulation time: 8 hr 29 min 52 sec) 
 Total Blocks : 196608 Invalid Blocks : 3 Valid Blocks : 196605
 Total Tags : 491520 Threshold : 12288 Invalid Tags : 196611 Pr0 Tags : 98304 Pr1 Tags : 196605 num_pr0 : 12288
 SAE Count : 0
 Inter-Core Inteference in Data Store : 1782424
Heartbeat CPU 4 instructions: 190000000 cycles: 145505932 heartbeat IPC: 1.32562 cumulative IPC: 1.30579 (Simulation time: 8 hr 29 min 54 sec) 
 Total Blocks : 196608 Invalid Blocks : 3 Valid Blocks : 196605
 Total Tags : 491520 Threshold : 12288 Invalid Tags : 196611 Pr0 Tags : 98304 Pr1 Tags : 196605 num_pr0 : 12288
 SAE Count : 0
 Inter-Core Inteference in Data Store : 1782465
Heartbeat CPU 3 instructions: 200000000 cycles: 153065457 heartbeat IPC: 1.31589 cumulative IPC: 1.30663 (Simulation time: 8 hr 50 min 0 sec) 
 Total Blocks : 196608 Invalid Blocks : 0 Valid Blocks : 196608
 Total Tags : 491520 Threshold : 12288 Invalid Tags : 196608 Pr0 Tags : 98304 Pr1 Tags : 196608 num_pr0 : 12288
 SAE Count : 0
 Inter-Core Inteference in Data Store : 1865337
Heartbeat CPU 2 instructions: 200000000 cycles: 153073228 heartbeat IPC: 1.31598 cumulative IPC: 1.30656 (Simulation time: 8 hr 50 min 1 sec) 
 Total Blocks : 196608 Invalid Blocks : 0 Valid Blocks : 196608
 Total Tags : 491520 Threshold : 12288 Invalid Tags : 196608 Pr0 Tags : 98304 Pr1 Tags : 196608 num_pr0 : 12288
 SAE Count : 0
 Inter-Core Inteference in Data Store : 1865420
Heartbeat CPU 0 instructions: 200000000 cycles: 153082403 heartbeat IPC: 1.31609 cumulative IPC: 1.30649 (Simulation time: 8 hr 50 min 2 sec) 
 Total Blocks : 196608 Invalid Blocks : 0 Valid Blocks : 196608
 Total Tags : 491520 Threshold : 12288 Invalid Tags : 196608 Pr0 Tags : 98304 Pr1 Tags : 196608 num_pr0 : 12288
 SAE Count : 0
 Inter-Core Inteference in Data Store : 1865537
Heartbeat CPU 1 instructions: 200000000 cycles: 153086995 heartbeat IPC: 1.3159 cumulative IPC: 1.30645 (Simulation time: 8 hr 50 min 3 sec) 
 Total Blocks : 196608 Invalid Blocks : 0 Valid Blocks : 196608
 Total Tags : 491520 Threshold : 12288 Invalid Tags : 196608 Pr0 Tags : 98304 Pr1 Tags : 196608 num_pr0 : 12288
 SAE Count : 0
 Inter-Core Inteference in Data Store : 1865584
Heartbeat CPU 5 instructions: 200000000 cycles: 153089870 heartbeat IPC: 1.31582 cumulative IPC: 1.30642 (Simulation time: 8 hr 50 min 3 sec) 
 Total Blocks : 196608 Invalid Blocks : 0 Valid Blocks : 196608
 Total Tags : 491520 Threshold : 12288 Invalid Tags : 196608 Pr0 Tags : 98304 Pr1 Tags : 196608 num_pr0 : 12288
 SAE Count : 0
 Inter-Core Inteference in Data Store : 1865603
Heartbeat CPU 7 instructions: 200000000 cycles: 153098096 heartbeat IPC: 1.31571 cumulative IPC: 1.30635 (Simulation time: 8 hr 50 min 4 sec) 
 Total Blocks : 196608 Invalid Blocks : 0 Valid Blocks : 196608
 Total Tags : 491520 Threshold : 12288 Invalid Tags : 196608 Pr0 Tags : 98304 Pr1 Tags : 196608 num_pr0 : 12288
 SAE Count : 0
 Inter-Core Inteference in Data Store : 1865658
Heartbeat CPU 6 instructions: 200000000 cycles: 153098103 heartbeat IPC: 1.31587 cumulative IPC: 1.30635 (Simulation time: 8 hr 50 min 4 sec) 
 Total Blocks : 196608 Invalid Blocks : 0 Valid Blocks : 196608
 Total Tags : 491520 Threshold : 12288 Invalid Tags : 196608 Pr0 Tags : 98304 Pr1 Tags : 196608 num_pr0 : 12288
 SAE Count : 0
 Inter-Core Inteference in Data Store : 1865658
Heartbeat CPU 4 instructions: 200000000 cycles: 153105463 heartbeat IPC: 1.31587 cumulative IPC: 1.30629 (Simulation time: 8 hr 50 min 6 sec) 
 Total Blocks : 196608 Invalid Blocks : 0 Valid Blocks : 196608
 Total Tags : 491520 Threshold : 12288 Invalid Tags : 196608 Pr0 Tags : 98304 Pr1 Tags : 196608 num_pr0 : 12288
 SAE Count : 0
 Inter-Core Inteference in Data Store : 1865711

Warmup complete CPU 0 instructions: 200033312 cycles: 153105464 (Simulation time: 8 hr 50 min 6 sec) 
Warmup complete CPU 1 instructions: 200026687 cycles: 153105464 (Simulation time: 8 hr 50 min 6 sec) 
Warmup complete CPU 2 instructions: 200046589 cycles: 153105464 (Simulation time: 8 hr 50 min 6 sec) 
Warmup complete CPU 3 instructions: 200057807 cycles: 153105464 (Simulation time: 8 hr 50 min 6 sec) 
Warmup complete CPU 4 instructions: 200000001 cycles: 153105464 (Simulation time: 8 hr 50 min 6 sec) 
Warmup complete CPU 5 instructions: 200022561 cycles: 153105463 (Simulation time: 8 hr 50 min 6 sec) 
Warmup complete CPU 6 instructions: 200010630 cycles: 153105463 (Simulation time: 8 hr 50 min 6 sec) 
Warmup complete CPU 7 instructions: 200010646 cycles: 153105463 (Simulation time: 8 hr 50 min 6 sec) 

Heartbeat CPU 2 instructions: 210000001 cycles: 203407821 heartbeat IPC: 0.198671 cumulative IPC: 0.197872 (Simulation time: 9 hr 27 min 47 sec) 
 Total Blocks : 196608 Invalid Blocks : 0 Valid Blocks : 196608
 Total Tags : 491520 Threshold : 12288 Invalid Tags : 196608 Pr0 Tags : 98304 Pr1 Tags : 196608 num_pr0 : 12288
 SAE Count : 0
 Inter-Core Inteference in Data Store : 81975
Heartbeat CPU 5 instructions: 210000001 cycles: 203479138 heartbeat IPC: 0.198455 cumulative IPC: 0.198069 (Simulation time: 9 hr 27 min 50 sec) 
 Total Blocks : 196608 Invalid Blocks : 0 Valid Blocks : 196608
 Total Tags : 491520 Threshold : 12288 Invalid Tags : 196608 Pr0 Tags : 98304 Pr1 Tags : 196608 num_pr0 : 12288
 SAE Count : 0
 Inter-Core Inteference in Data Store : 82050
Heartbeat CPU 0 instructions: 210000001 cycles: 203526412 heartbeat IPC: 0.19824 cumulative IPC: 0.19767 (Simulation time: 9 hr 27 min 52 sec) 
 Total Blocks : 196608 Invalid Blocks : 0 Valid Blocks : 196608
 Total Tags : 491520 Threshold : 12288 Invalid Tags : 196608 Pr0 Tags : 98304 Pr1 Tags : 196608 num_pr0 : 12288
 SAE Count : 0
 Inter-Core Inteference in Data Store : 82105
Heartbeat CPU 6 instructions: 210000001 cycles: 203537462 heartbeat IPC: 0.198258 cumulative IPC: 0.198076 (Simulation time: 9 hr 27 min 52 sec) 
 Total Blocks : 196608 Invalid Blocks : 0 Valid Blocks : 196608
 Total Tags : 491520 Threshold : 12288 Invalid Tags : 196608 Pr0 Tags : 98304 Pr1 Tags : 196608 num_pr0 : 12288
 SAE Count : 0
 Inter-Core Inteference in Data Store : 82119
Heartbeat CPU 3 instructions: 210000001 cycles: 203624216 heartbeat IPC: 0.19779 cumulative IPC: 0.196802 (Simulation time: 9 hr 27 min 56 sec) 
 Total Blocks : 196608 Invalid Blocks : 0 Valid Blocks : 196608
 Total Tags : 491520 Threshold : 12288 Invalid Tags : 196608 Pr0 Tags : 98304 Pr1 Tags : 196608 num_pr0 : 12288
 SAE Count : 0
 Inter-Core Inteference in Data Store : 82199
Heartbeat CPU 1 instructions: 210000001 cycles: 203780912 heartbeat IPC: 0.197262 cumulative IPC: 0.196808 (Simulation time: 9 hr 28 min 3 sec) 
 Total Blocks : 196608 Invalid Blocks : 0 Valid Blocks : 196608
 Total Tags : 491520 Threshold : 12288 Invalid Tags : 196608 Pr0 Tags : 98304 Pr1 Tags : 196608 num_pr0 : 12288
 SAE Count : 0
 Inter-Core Inteference in Data Store : 82378
Heartbeat CPU 7 instructions: 210000001 cycles: 203800868 heartbeat IPC: 0.197228 cumulative IPC: 0.197047 (Simulation time: 9 hr 28 min 4 sec) 
 Total Blocks : 196608 Invalid Blocks : 0 Valid Blocks : 196608
 Total Tags : 491520 Threshold : 12288 Invalid Tags : 196608 Pr0 Tags : 98304 Pr1 Tags : 196608 num_pr0 : 12288
 SAE Count : 0
 Inter-Core Inteference in Data Store : 82406
Heartbeat CPU 4 instructions: 210000001 cycles: 203853425 heartbeat IPC: 0.197052 cumulative IPC: 0.197052 (Simulation time: 9 hr 28 min 7 sec) 
 Total Blocks : 196608 Invalid Blocks : 0 Valid Blocks : 196608
 Total Tags : 491520 Threshold : 12288 Invalid Tags : 196608 Pr0 Tags : 98304 Pr1 Tags : 196608 num_pr0 : 12288
 SAE Count : 0
 Inter-Core Inteference in Data Store : 82493
Heartbeat CPU 0 instructions: 220000000 cycles: 251251076 heartbeat IPC: 0.209535 cumulative IPC: 0.203439 (Simulation time: 10 hr 5 min 20 sec) 
 Total Blocks : 196608 Invalid Blocks : 0 Valid Blocks : 196608
 Total Tags : 491520 Threshold : 12288 Invalid Tags : 196608 Pr0 Tags : 98304 Pr1 Tags : 196608 num_pr0 : 12288
 SAE Count : 0
 Inter-Core Inteference in Data Store : 173498
Heartbeat CPU 2 instructions: 220000000 cycles: 251338405 heartbeat IPC: 0.208635 cumulative IPC: 0.203123 (Simulation time: 10 hr 5 min 23 sec) 
 Total Blocks : 196608 Invalid Blocks : 0 Valid Blocks : 196608
 Total Tags : 491520 Threshold : 12288 Invalid Tags : 196608 Pr0 Tags : 98304 Pr1 Tags : 196608 num_pr0 : 12288
 SAE Count : 0
 Inter-Core Inteference in Data Store : 173595
Heartbeat CPU 5 instructions: 220000000 cycles: 251386578 heartbeat IPC: 0.208736 cumulative IPC: 0.203268 (Simulation time: 10 hr 5 min 25 sec) 
 Total Blocks : 196608 Invalid Blocks : 0 Valid Blocks : 196608
 Total Tags : 491520 Threshold : 12288 Invalid Tags : 196608 Pr0 Tags : 98304 Pr1 Tags : 196608 num_pr0 : 12288
 SAE Count : 0
 Inter-Core Inteference in Data Store : 173644
Heartbeat CPU 6 instructions: 220000000 cycles: 251581568 heartbeat IPC: 0.208142 cumulative IPC: 0.202987 (Simulation time: 10 hr 5 min 32 sec) 
 Total Blocks : 196608 Invalid Blocks : 0 Valid Blocks : 196608
 Total Tags : 491520 Threshold : 12288 Invalid Tags : 196608 Pr0 Tags : 98304 Pr1 Tags : 196608 num_pr0 : 12288
 SAE Count : 0
 Inter-Core Inteference in Data Store : 173862
Heartbeat CPU 3 instructions: 220000000 cycles: 251759670 heartbeat IPC: 0.207747 cumulative IPC: 0.202142 (Simulation time: 10 hr 5 min 38 sec) 
 Total Blocks : 196608 Invalid Blocks : 0 Valid Blocks : 196608
 Total Tags : 491520 Threshold : 12288 Invalid Tags : 196608 Pr0 Tags : 98304 Pr1 Tags : 196608 num_pr0 : 12288
 SAE Count : 0
 Inter-Core Inteference in Data Store : 174054
Heartbeat CPU 7 instructions: 220000000 cycles: 251766380 heartbeat IPC: 0.208483 cumulative IPC: 0.202607 (Simulation time: 10 hr 5 min 38 sec) 
 Total Blocks : 196608 Invalid Blocks : 0 Valid Blocks : 196608
 Total Tags : 491520 Threshold : 12288 Invalid Tags : 196608 Pr0 Tags : 98304 Pr1 Tags : 196608 num_pr0 : 12288
 SAE Count : 0
 Inter-Core Inteference in Data Store : 174062
Heartbeat CPU 1 instructions: 220000000 cycles: 251842213 heartbeat IPC: 0.208068 cumulative IPC: 0.202289 (Simulation time: 10 hr 5 min 41 sec) 
 Total Blocks : 196608 Invalid Blocks : 0 Valid Blocks : 196608
 Total Tags : 491520 Threshold : 12288 Invalid Tags : 196608 Pr0 Tags : 98304 Pr1 Tags : 196608 num_pr0 : 12288
 SAE Count : 0
 Inter-Core Inteference in Data Store : 174138
Heartbeat CPU 4 instructions: 220000000 cycles: 251903952 heartbeat IPC: 0.208114 cumulative IPC: 0.202432 (Simulation time: 10 hr 5 min 44 sec) 
 Total Blocks : 196608 Invalid Blocks : 0 Valid Blocks : 196608
 Total Tags : 491520 Threshold : 12288 Invalid Tags : 196608 Pr0 Tags : 98304 Pr1 Tags : 196608 num_pr0 : 12288
 SAE Count : 0
 Inter-Core Inteference in Data Store : 174203
Heartbeat CPU 0 instructions: 230000001 cycles: 295102665 heartbeat IPC: 0.228042 cumulative IPC: 0.211037 (Simulation time: 10 hr 40 min 41 sec) 
 Total Blocks : 196608 Invalid Blocks : 0 Valid Blocks : 196608
 Total Tags : 491520 Threshold : 12288 Invalid Tags : 196608 Pr0 Tags : 98304 Pr1 Tags : 196608 num_pr0 : 12288
 SAE Count : 0
 Inter-Core Inteference in Data Store : 274039
Heartbeat CPU 2 instructions: 230000001 cycles: 295374441 heartbeat IPC: 0.227087 cumulative IPC: 0.210541 (Simulation time: 10 hr 40 min 51 sec) 
 Total Blocks : 196608 Invalid Blocks : 0 Valid Blocks : 196608
 Total Tags : 491520 Threshold : 12288 Invalid Tags : 196608 Pr0 Tags : 98304 Pr1 Tags : 196608 num_pr0 : 12288
 SAE Count : 0
 Inter-Core Inteference in Data Store : 274399
Heartbeat CPU 5 instructions: 230000001 cycles: 295459642 heartbeat IPC: 0.226896 cumulative IPC: 0.210583 (Simulation time: 10 hr 40 min 54 sec) 
 Total Blocks : 196608 Invalid Blocks : 0 Valid Blocks : 196608
 Total Tags : 491520 Threshold : 12288 Invalid Tags : 196608 Pr0 Tags : 98304 Pr1 Tags : 196608 num_pr0 : 12288
 SAE Count : 0
 Inter-Core Inteference in Data Store : 274515
Heartbeat CPU 6 instructions: 230000001 cycles: 295710685 heartbeat IPC: 0.226608 cumulative IPC: 0.210296 (Simulation time: 10 hr 41 min 3 sec) 
 Total Blocks : 196608 Invalid Blocks : 0 Valid Blocks : 196608
 Total Tags : 491520 Threshold : 12288 Invalid Tags : 196608 Pr0 Tags : 98304 Pr1 Tags : 196608 num_pr0 : 12288
 SAE Count : 0
 Inter-Core Inteference in Data Store : 274820
Heartbeat CPU 3 instructions: 230000001 cycles: 295766891 heartbeat IPC: 0.227235 cumulative IPC: 0.209883 (Simulation time: 10 hr 41 min 5 sec) 
 Total Blocks : 196608 Invalid Blocks : 0 Valid Blocks : 196608
 Total Tags : 491520 Threshold : 12288 Invalid Tags : 196608 Pr0 Tags : 98304 Pr1 Tags : 196608 num_pr0 : 12288
 SAE Count : 0
 Inter-Core Inteference in Data Store : 274876
Heartbeat CPU 7 instructions: 230000001 cycles: 295777004 heartbeat IPC: 0.227218 cumulative IPC: 0.210199 (Simulation time: 10 hr 41 min 5 sec) 
 Total Blocks : 196608 Invalid Blocks : 0 Valid Blocks : 196608
 Total Tags : 491520 Threshold : 12288 Invalid Tags : 196608 Pr0 Tags : 98304 Pr1 Tags : 196608 num_pr0 : 12288
 SAE Count : 0
 Inter-Core Inteference in Data Store : 274887
Heartbeat CPU 1 instructions: 230000001 cycles: 295968357 heartbeat IPC: 0.226623 cumulative IPC: 0.209805 (Simulation time: 10 hr 41 min 13 sec) 
 Total Blocks : 196608 Invalid Blocks : 0 Valid Blocks : 196608
 Total Tags : 491520 Threshold : 12288 Invalid Tags : 196608 Pr0 Tags : 98304 Pr1 Tags : 196608 num_pr0 : 12288
 SAE Count : 0
 Inter-Core Inteference in Data Store : 275101
Heartbeat CPU 4 instructions: 230000001 cycles: 295977867 heartbeat IPC: 0.226892 cumulative IPC: 0.209978 (Simulation time: 10 hr 41 min 13 sec) 
 Total Blocks : 196608 Invalid Blocks : 0 Valid Blocks : 196608
 Total Tags : 491520 Threshold : 12288 Invalid Tags : 196608 Pr0 Tags : 98304 Pr1 Tags : 196608 num_pr0 : 12288
 SAE Count : 0
 Inter-Core Inteference in Data Store : 275109
Heartbeat CPU 0 instructions: 240000001 cycles: 345683456 heartbeat IPC: 0.197704 cumulative IPC: 0.207535 (Simulation time: 11 hr 19 min 43 sec) 
 Total Blocks : 196608 Invalid Blocks : 0 Valid Blocks : 196608
 Total Tags : 491520 Threshold : 12288 Invalid Tags : 196608 Pr0 Tags : 98304 Pr1 Tags : 196608 num_pr0 : 12288
 SAE Count : 0
 Inter-Core Inteference in Data Store : 354013
Heartbeat CPU 2 instructions: 240000001 cycles: 346196824 heartbeat IPC: 0.196764 cumulative IPC: 0.206915 (Simulation time: 11 hr 20 min 2 sec) 
 Total Blocks : 196608 Invalid Blocks : 0 Valid Blocks : 196608
 Total Tags : 491520 Threshold : 12288 Invalid Tags : 196608 Pr0 Tags : 98304 Pr1 Tags : 196608 num_pr0 : 12288
 SAE Count : 0
 Inter-Core Inteference in Data Store : 354821
Heartbeat CPU 5 instructions: 240000001 cycles: 346356510 heartbeat IPC: 0.196476 cumulative IPC: 0.206868 (Simulation time: 11 hr 20 min 7 sec) 
 Total Blocks : 196608 Invalid Blocks : 0 Valid Blocks : 196608
 Total Tags : 491520 Threshold : 12288 Invalid Tags : 196608 Pr0 Tags : 98304 Pr1 Tags : 196608 num_pr0 : 12288
 SAE Count : 0
 Inter-Core Inteference in Data Store : 355064
Heartbeat CPU 6 instructions: 240000001 cycles: 346542212 heartbeat IPC: 0.196728 cumulative IPC: 0.206731 (Simulation time: 11 hr 20 min 14 sec) 
 Total Blocks : 196608 Invalid Blocks : 0 Valid Blocks : 196608
 Total Tags : 491520 Threshold : 12288 Invalid Tags : 196608 Pr0 Tags : 98304 Pr1 Tags : 196608 num_pr0 : 12288
 SAE Count : 0
 Inter-Core Inteference in Data Store : 355354
Heartbeat CPU 3 instructions: 240000001 cycles: 346570336 heartbeat IPC: 0.196837 cumulative IPC: 0.206457 (Simulation time: 11 hr 20 min 16 sec) 
 Total Blocks : 196608 Invalid Blocks : 0 Valid Blocks : 196608
 Total Tags : 491520 Threshold : 12288 Invalid Tags : 196608 Pr0 Tags : 98304 Pr1 Tags : 196608 num_pr0 : 12288
 SAE Count : 0
 Inter-Core Inteference in Data Store : 355395
Heartbeat CPU 7 instructions: 240000001 cycles: 346616020 heartbeat IPC: 0.196699 cumulative IPC: 0.206652 (Simulation time: 11 hr 20 min 18 sec) 
 Total Blocks : 196608 Invalid Blocks : 0 Valid Blocks : 196608
 Total Tags : 491520 Threshold : 12288 Invalid Tags : 196608 Pr0 Tags : 98304 Pr1 Tags : 196608 num_pr0 : 12288
 SAE Count : 0
 Inter-Core Inteference in Data Store : 355453
Heartbeat CPU 1 instructions: 240000001 cycles: 346727162 heartbeat IPC: 0.19701 cumulative IPC: 0.206451 (Simulation time: 11 hr 20 min 22 sec) 
 Total Blocks : 196608 Invalid Blocks : 0 Valid Blocks : 196608
 Total Tags : 491520 Threshold : 12288 Invalid Tags : 196608 Pr0 Tags : 98304 Pr1 Tags : 196608 num_pr0 : 12288
 SAE Count : 0
 Inter-Core Inteference in Data Store : 355609
Heartbeat CPU 4 instructions: 240000001 cycles: 346763262 heartbeat IPC: 0.196907 cumulative IPC: 0.20655 (Simulation time: 11 hr 20 min 24 sec) 
 Total Blocks : 196608 Invalid Blocks : 0 Valid Blocks : 196608
 Total Tags : 491520 Threshold : 12288 Invalid Tags : 196608 Pr0 Tags : 98304 Pr1 Tags : 196608 num_pr0 : 12288
 SAE Count : 0
 Inter-Core Inteference in Data Store : 355655
Heartbeat CPU 0 instructions: 250000000 cycles: 394157537 heartbeat IPC: 0.206296 cumulative IPC: 0.207286 (Simulation time: 11 hr 56 min 37 sec) 
 Total Blocks : 196608 Invalid Blocks : 0 Valid Blocks : 196608
 Total Tags : 491520 Threshold : 12288 Invalid Tags : 196608 Pr0 Tags : 98304 Pr1 Tags : 196608 num_pr0 : 12288
 SAE Count : 0
 Inter-Core Inteference in Data Store : 451271
Heartbeat CPU 2 instructions: 250000000 cycles: 395022149 heartbeat IPC: 0.204812 cumulative IPC: 0.20649 (Simulation time: 11 hr 57 min 23 sec) 
 Total Blocks : 196608 Invalid Blocks : 0 Valid Blocks : 196608
 Total Tags : 491520 Threshold : 12288 Invalid Tags : 196608 Pr0 Tags : 98304 Pr1 Tags : 196608 num_pr0 : 12288
 SAE Count : 0
 Inter-Core Inteference in Data Store : 464596
Heartbeat CPU 5 instructions: 250000000 cycles: 395387589 heartbeat IPC: 0.203952 cumulative IPC: 0.206278 (Simulation time: 11 hr 57 min 41 sec) 
 Total Blocks : 196608 Invalid Blocks : 0 Valid Blocks : 196608
 Total Tags : 491520 Threshold : 12288 Invalid Tags : 196608 Pr0 Tags : 98304 Pr1 Tags : 196608 num_pr0 : 12288
 SAE Count : 0
 Inter-Core Inteference in Data Store : 466721
Heartbeat CPU 6 instructions: 250000000 cycles: 395472303 heartbeat IPC: 0.204373 cumulative IPC: 0.206255 (Simulation time: 11 hr 57 min 44 sec) 
 Total Blocks : 196608 Invalid Blocks : 0 Valid Blocks : 196608
 Total Tags : 491520 Threshold : 12288 Invalid Tags : 196608 Pr0 Tags : 98304 Pr1 Tags : 196608 num_pr0 : 12288
 SAE Count : 0
 Inter-Core Inteference in Data Store : 467101
Heartbeat CPU 7 instructions: 250000000 cycles: 395534563 heartbeat IPC: 0.204421 cumulative IPC: 0.206202 (Simulation time: 11 hr 57 min 47 sec) 
 Total Blocks : 196608 Invalid Blocks : 0 Valid Blocks : 196608
 Total Tags : 491520 Threshold : 12288 Invalid Tags : 196608 Pr0 Tags : 98304 Pr1 Tags : 196608 num_pr0 : 12288
 SAE Count : 0
 Inter-Core Inteference in Data Store : 467354
Heartbeat CPU 3 instructions: 250000000 cycles: 395680027 heartbeat IPC: 0.203626 cumulative IPC: 0.205884 (Simulation time: 11 hr 57 min 52 sec) 
 Total Blocks : 196608 Invalid Blocks : 0 Valid Blocks : 196608
 Total Tags : 491520 Threshold : 12288 Invalid Tags : 196608 Pr0 Tags : 98304 Pr1 Tags : 196608 num_pr0 : 12288
 SAE Count : 0
 Inter-Core Inteference in Data Store : 467843
[...]
LLC4 LOAD      ACCESS: 564499  HIT: 168309  MISS: 396190  HIT %: 29.8156  MISS %: 70.1844  AVERAGE MISS PENALTY: 207.966
LLC4 RFO       ACCESS:  4266  HIT:  2496  MISS:  1770  HIT %: 58.5091  MISS %: 41.4909  AVERAGE MISS PENALTY: 192.379
LLC4 PREFETCH  ACCESS: 260896  HIT: 104344  MISS: 156552  HIT %: 39.9945  MISS %: 60.0055  AVERAGE MISS PENALTY: 216.738
LLC4 WRITEBACK ACCESS: 11440  HIT:  7695  MISS:  3745  HIT %: 67.264  MISS %: 32.736  AVERAGE MISS PENALTY: 0
LLC4 PREFETCH  REQUESTED:     0  ISSUED:     0  USEFUL: 14374  USELESS: 85164
 USEFUL LOAD PREFETCHES:      14374 PREFETCH ISSUED TO LOWER LEVEL:    1265391  ACCURACY: 1.13593
 TIMELY PREFETCHES:      14374 LATE PREFETCHES: 0 DROPPED PREFETCHES: 0
LLC4 AVERAGE MISS LATENCY: 208.981 cycles

LLC4 Set Associative Eviction Count : 0
LLC4 Priority 0 entries : 12288
LLC4 Inter-Core Interference : 236942
LLC5 TOTAL     ACCESS: 838723  HIT: 291011  MISS: 547712  HIT %: 34.6969  MISS %: 65.3031  AVERAGE MISS PENALTY: 209.206
LLC5 LOAD      ACCESS: 560001  HIT: 173699  MISS: 386302  HIT %: 31.0176  MISS %: 68.9824  AVERAGE MISS PENALTY: 208.038
LLC5 RFO       ACCESS:  4395  HIT:  2503  MISS:  1892  HIT %: 56.9511  MISS %: 43.0489  AVERAGE MISS PENALTY: 199.175
LLC5 PREFETCH  ACCESS: 262879  HIT: 107240  MISS: 155639  HIT %: 40.7944  MISS %: 59.2056  AVERAGE MISS PENALTY: 217.441
LLC5 WRITEBACK ACCESS: 11448  HIT:  7569  MISS:  3879  HIT %: 66.1164  MISS %: 33.8836  AVERAGE MISS PENALTY: 0
LLC5 PREFETCH  REQUESTED:     0  ISSUED:     0  USEFUL: 14294  USELESS: 89573
 USEFUL LOAD PREFETCHES:      14294 PREFETCH ISSUED TO LOWER LEVEL:    1259615  ACCURACY: 1.13479
 TIMELY PREFETCHES:      14294 LATE PREFETCHES: 0 DROPPED PREFETCHES: 0
LLC5 AVERAGE MISS LATENCY: 209.206 cycles

LLC5 Set Associative Eviction Count : 0
LLC5 Priority 0 entries : 12288
LLC5 Inter-Core Interference : 246871
LLC6 TOTAL     ACCESS: 846376  HIT: 291218  MISS: 555158  HIT %: 34.4076  MISS %: 65.5924  AVERAGE MISS PENALTY: 210.552
LLC6 LOAD      ACCESS: 564006  HIT: 172873  MISS: 391133  HIT %: 30.6509  MISS %: 69.3491  AVERAGE MISS PENALTY: 209.445
LLC6 RFO       ACCESS:  5266  HIT:  3430  MISS:  1836  HIT %: 65.1348  MISS %: 34.8652  AVERAGE MISS PENALTY: 196.539
LLC6 PREFETCH  ACCESS: 263687  HIT: 105363  MISS: 158324  HIT %: 39.9576  MISS %: 60.0424  AVERAGE MISS PENALTY: 218.589
LLC6 WRITEBACK ACCESS: 13417  HIT:  9552  MISS:  3865  HIT %: 71.1933  MISS %: 28.8067  AVERAGE MISS PENALTY: 0
LLC6 PREFETCH  REQUESTED:     0  ISSUED:     0  USEFUL: 13956  USELESS: 88101
 USEFUL LOAD PREFETCHES:      13956 PREFETCH ISSUED TO LOWER LEVEL:    1272846  ACCURACY: 1.09644
 TIMELY PREFETCHES:      13956 LATE PREFETCHES: 0 DROPPED PREFETCHES: 0
LLC6 AVERAGE MISS LATENCY: 210.552 cycles

LLC6 Set Associative Eviction Count : 0
LLC6 Priority 0 entries : 12288
LLC6 Inter-Core Interference : 241182
LLC7 TOTAL     ACCESS: 846161  HIT: 287503  MISS: 558658  HIT %: 33.9773  MISS %: 66.0227  AVERAGE MISS PENALTY: 210.146
LLC7 LOAD      ACCESS: 562789  HIT: 168519  MISS: 394270  HIT %: 29.9435  MISS %: 70.0565  AVERAGE MISS PENALTY: 209.131
LLC7 RFO       ACCESS:  5068  HIT:  3244  MISS:  1824  HIT %: 64.0095  MISS %: 35.9905  AVERAGE MISS PENALTY: 194.283
LLC7 PREFETCH  ACCESS: 266639  HIT: 107877  MISS: 158762  HIT %: 40.4581  MISS %: 59.5419  AVERAGE MISS PENALTY: 217.884
LLC7 WRITEBACK ACCESS: 11665  HIT:  7863  MISS:  3802  HIT %: 67.4068  MISS %: 32.5932  AVERAGE MISS PENALTY: 0
LLC7 PREFETCH  REQUESTED:     0  ISSUED:     0  USEFUL: 14063  USELESS: 88618
 USEFUL LOAD PREFETCHES:      14063 PREFETCH ISSUED TO LOWER LEVEL:    1277713  ACCURACY: 1.10064
 TIMELY PREFETCHES:      14063 LATE PREFETCHES: 0 DROPPED PREFETCHES: 0
LLC7 AVERAGE MISS LATENCY: 210.146 cycles

LLC7 Set Associative Eviction Count : 0
LLC7 Priority 0 entries : 12288
LLC7 Inter-Core Interference : 240420
ROI Average ROB Stall Cycles:	13.3726
ROI Total ROB Stalls Cycles:	886402965
ROI TOTAL ROB counter      :	66284858
ROI Average Load ROB Stall Cycles:	53.7174
ROI Total Load ROB Stalls Cycle  :	648259224
ROI Total Load ROB stalls Counter:	12067952
Major fault: 0 Minor fault: 11834

CPU 7 cumulative IPC: 0.207686 instructions: 200000002 cycles: 962992594
ITLB TOTAL     ACCESS: 28282005  HIT: 28146535  MISS: 135470  HIT %: 99.521  MISS %: 0.478997  AVERAGE MISS PENALTY: 21.0036
ITLB LOAD      ACCESS: 28282005  HIT: 28146535  MISS: 135470  HIT %: 99.521  MISS %: 0.478997  AVERAGE MISS PENALTY: 21.0036
ITLB RFO       ACCESS:     0  HIT:     0  MISS:     0  HIT %:     0  MISS %:     0  AVERAGE MISS PENALTY: 0
ITLB PREFETCH  ACCESS:     0  HIT:     0  MISS:     0  HIT %:     0  MISS %:     0  AVERAGE MISS PENALTY: 0
ITLB WRITEBACK ACCESS:     0  HIT:     0  MISS:     0  HIT %:     0  MISS %:     0  AVERAGE MISS PENALTY: 0
ITLB PREFETCH  REQUESTED:     0  ISSUED:     0  USEFUL:     0  USELESS:     0
 USEFUL LOAD PREFETCHES:          0 PREFETCH ISSUED TO LOWER LEVEL:          0  ACCURACY: -nan
 TIMELY PREFETCHES:          0 LATE PREFETCHES: 0 DROPPED PREFETCHES: 0
ITLB AVERAGE MISS LATENCY: 21.0036 cycles

ITLB Set Associative Eviction Count : 0
ITLB Priority 0 entries : 0
ITLB Inter-Core Interference : 0
DTLB TOTAL     ACCESS: 54117652  HIT: 52789762  MISS: 1327890  HIT %: 97.5463  MISS %: 2.45371  AVERAGE MISS PENALTY: 105.368
DTLB LOAD      ACCESS: 45259707  HIT: 43974465  MISS: 1285242  HIT %: 97.1603  MISS %: 2.8397  AVERAGE MISS PENALTY: 108.377
DTLB RFO       ACCESS: 8857945  HIT: 8815297  MISS: 42648  HIT %: 99.5185  MISS %: 0.481466  AVERAGE MISS PENALTY: 14.6778
DTLB PREFETCH  ACCESS:     0  HIT:     0  MISS:     0  HIT %:     0  MISS %:     0  AVERAGE MISS PENALTY: 0
DTLB WRITEBACK ACCESS:     0  HIT:     0  MISS:     0  HIT %:     0  MISS %:     0  AVERAGE MISS PENALTY: 0
DTLB PREFETCH  REQUESTED:     0  ISSUED:     0  USEFUL:     0  USELESS:     0
 USEFUL LOAD PREFETCHES:          0 PREFETCH ISSUED TO LOWER LEVEL:          0  ACCURACY: -nan
 TIMELY PREFETCHES:          0 LATE PREFETCHES: 0 DROPPED PREFETCHES: 0
DTLB AVERAGE MISS LATENCY: 105.368 cycles

DTLB Set Associative Eviction Count : 0
DTLB Priority 0 entries : 0
DTLB Inter-Core Interference : 0
STLB TOTAL     ACCESS: 1463360  HIT: 490749  MISS: 972611  HIT %: 33.5358  MISS %: 66.4642  AVERAGE MISS PENALTY: 100
STLB LOAD      ACCESS: 1420712  HIT: 450237  MISS: 970475  HIT %: 31.6909  MISS %: 68.3091  AVERAGE MISS PENALTY: 100
STLB RFO       ACCESS: 42648  HIT: 40512  MISS:  2136  HIT %: 94.9916  MISS %: 5.00844  AVERAGE MISS PENALTY: 100
STLB PREFETCH  ACCESS:     0  HIT:     0  MISS:     0  HIT %:     0  MISS %:     0  AVERAGE MISS PENALTY: 0
STLB WRITEBACK ACCESS:     0  HIT:     0  MISS:     0  HIT %:     0  MISS %:     0  AVERAGE MISS PENALTY: 0
STLB PREFETCH  REQUESTED:     0  ISSUED:     0  USEFUL:     0  USELESS:     0
 USEFUL LOAD PREFETCHES:          0 PREFETCH ISSUED TO LOWER LEVEL:          0  ACCURACY: -nan
 TIMELY PREFETCHES:          0 LATE PREFETCHES: 0 DROPPED PREFETCHES: 0
STLB AVERAGE MISS LATENCY: 100 cycles

STLB Set Associative Eviction Count : 0
STLB Priority 0 entries : 0
STLB Inter-Core Interference : 0
L1D TOTAL     ACCESS: 54917536  HIT: 47918308  MISS: 6999228  HIT %: 87.255  MISS %: 12.745  AVERAGE MISS PENALTY: 6.06221e+06
L1D LOAD      ACCESS: 35795079  HIT: 30957876  MISS: 4837203  HIT %: 86.4864  MISS %: 13.5136  AVERAGE MISS PENALTY: 8.68572e+06
L1D RFO       ACCESS: 9757073  HIT: 9671745  MISS: 85328  HIT %: 99.1255  MISS %: 0.874525  AVERAGE MISS PENALTY: 4.87351e+06
L1D PREFETCH  ACCESS: 9365384  HIT: 7288687  MISS: 2076697  HIT %: 77.8258  MISS %: 22.1742  AVERAGE MISS PENALTY: 147.304
L1D WRITEBACK ACCESS:     0  HIT:     0  MISS:     0  HIT %:     0  MISS %:     0  AVERAGE MISS PENALTY: 0
L1D PREFETCH  REQUESTED: 10221641  ISSUED: 10025373  USEFUL: 507910  USELESS: 1568890
 USEFUL LOAD PREFETCHES:     507910 PREFETCH ISSUED TO LOWER LEVEL:    2544618  ACCURACY: 19.9602
 TIMELY PREFETCHES:     507910 LATE PREFETCHES: 179503 DROPPED PREFETCHES: 196268
L1D AVERAGE MISS LATENCY: 59592 cycles

L1D Set Associative Eviction Count : 0
L1D Priority 0 entries : 0
L1D Inter-Core Interference : 0
L1I TOTAL     ACCESS: 35815932  HIT: 35087300  MISS: 728632  HIT %: 97.9656  MISS %: 2.03438  AVERAGE MISS PENALTY: 30.0239
L1I LOAD      ACCESS: 35815932  HIT: 35087300  MISS: 728632  HIT %: 97.9656  MISS %: 2.03438  AVERAGE MISS PENALTY: 30.0239
L1I RFO       ACCESS:     0  HIT:     0  MISS:     0  HIT %:     0  MISS %:     0  AVERAGE MISS PENALTY: 0
L1I PREFETCH  ACCESS:     0  HIT:     0  MISS:     0  HIT %:     0  MISS %:     0  AVERAGE MISS PENALTY: 0
L1I WRITEBACK ACCESS:     0  HIT:     0  MISS:     0  HIT %:     0  MISS %:     0  AVERAGE MISS PENALTY: 0
L1I PREFETCH  REQUESTED:     0  ISSUED:     0  USEFUL:     0  USELESS:     0
 USEFUL LOAD PREFETCHES:          0 PREFETCH ISSUED TO LOWER LEVEL:          0  ACCURACY: -nan
 TIMELY PREFETCHES:          0 LATE PREFETCHES: 0 DROPPED PREFETCHES: 0
L1I AVERAGE MISS LATENCY: 30.0239 cycles

L1I Set Associative Eviction Count : 0
L1I Priority 0 entries : 0
L1I Inter-Core Interference : 0
L2C TOTAL     ACCESS: 9442398  HIT: 2762079  MISS: 6680319  HIT %: 29.2519  MISS %: 70.7481  AVERAGE MISS PENALTY: 4.45674e+06
L2C LOAD      ACCESS: 5560155  HIT: 1024901  MISS: 4535254  HIT %: 18.433  MISS %: 81.567  AVERAGE MISS PENALTY: 6.53472e+06
L2C RFO       ACCESS: 84644  HIT: 43981  MISS: 40663  HIT %: 51.96  MISS %: 48.04  AVERAGE MISS PENALTY: 3.33126e+06
L2C PREFETCH  ACCESS: 3583565  HIT: 1482052  MISS: 2101513  HIT %: 41.3569  MISS %: 58.6431  AVERAGE MISS PENALTY: 168.4
L2C WRITEBACK ACCESS: 214034  HIT: 211145  MISS:  2889  HIT %: 98.6502  MISS %: 1.34979  AVERAGE MISS PENALTY: 0
L2C PREFETCH  REQUESTED: 2531618  ISSUED: 2516901  USEFUL: 153089  USELESS: 1950849
 USEFUL LOAD PREFETCHES:     153089 PREFETCH ISSUED TO LOWER LEVEL:    2315881  ACCURACY: 6.6104
 TIMELY PREFETCHES:     153089 LATE PREFETCHES: 143836 DROPPED PREFETCHES: 14717
L2C AVERAGE MISS LATENCY: 179.084 cycles

L2C Set Associative Eviction Count : 0
L2C Priority 0 entries : 0
L2C Inter-Core Interference : 0
LLC0 TOTAL     ACCESS: 840102  HIT: 295286  MISS: 544816  HIT %: 35.1488  MISS %: 64.8512  AVERAGE MISS PENALTY: 209.582
LLC0 LOAD      ACCESS: 564131  HIT: 177372  MISS: 386759  HIT %: 31.4416  MISS %: 68.5584  AVERAGE MISS PENALTY: 207.605
LLC0 RFO       ACCESS:  5395  HIT:  3388  MISS:  2007  HIT %: 62.7989  MISS %: 37.2011  AVERAGE MISS PENALTY: 197.242
LLC0 PREFETCH  ACCESS: 257695  HIT: 105451  MISS: 152244  HIT %: 40.9209  MISS %: 59.0791  AVERAGE MISS PENALTY: 220.007
LLC0 WRITEBACK ACCESS: 12881  HIT:  9075  MISS:  3806  HIT %: 70.4526  MISS %: 29.5474  AVERAGE MISS PENALTY: 0
LLC0 PREFETCH  REQUESTED:     0  ISSUED:     0  USEFUL: 14032  USELESS: 89199
 USEFUL LOAD PREFETCHES:      14032 PREFETCH ISSUED TO LOWER LEVEL:    1236126  ACCURACY: 1.13516
 TIMELY PREFETCHES:      14032 LATE PREFETCHES: 0 DROPPED PREFETCHES: 0
LLC0 AVERAGE MISS LATENCY: 209.582 cycles

LLC0 Set Associative Eviction Count : 0
LLC0 Priority 0 entries : 12288
LLC0 Inter-Core Interference : 252833
LLC1 TOTAL     ACCESS: 848134  HIT: 291666  MISS: 556468  HIT %: 34.3891  MISS %: 65.6109  AVERAGE MISS PENALTY: 210.018
LLC1 LOAD      ACCESS: 565585  HIT: 172002  MISS: 393583  HIT %: 30.4113  MISS %: 69.5887  AVERAGE MISS PENALTY: 208.183
LLC1 RFO       ACCESS:  4566  HIT:  2749  MISS:  1817  HIT %: 60.2059  MISS %: 39.7941  AVERAGE MISS PENALTY: 193.158
LLC1 PREFETCH  ACCESS: 267506  HIT: 110102  MISS: 157404  HIT %: 41.1587  MISS %: 58.8413  AVERAGE MISS PENALTY: 219.688
LLC1 WRITEBACK ACCESS: 10477  HIT:  6813  MISS:  3664  HIT %: 65.0282  MISS %: 34.9718  AVERAGE MISS PENALTY: 0
LLC1 PREFETCH  REQUESTED:     0  ISSUED:     0  USEFUL: 13656  USELESS: 87649
 USEFUL LOAD PREFETCHES:      13656 PREFETCH ISSUED TO LOWER LEVEL:    1277807  ACCURACY: 1.06871
 TIMELY PREFETCHES:      13656 LATE PREFETCHES: 0 DROPPED PREFETCHES: 0
LLC1 AVERAGE MISS LATENCY: 210.018 cycles

LLC1 Set Associative Eviction Count : 0
LLC1 Priority 0 entries : 12288
LLC1 Inter-Core Interference : 238444
LLC2 TOTAL     ACCESS: 847730  HIT: 292285  MISS: 555445  HIT %: 34.4785  MISS %: 65.5215  AVERAGE MISS PENALTY: 210.806
LLC2 LOAD      ACCESS: 568423  HIT: 172373  MISS: 396050  HIT %: 30.3248  MISS %: 69.6752  AVERAGE MISS PENALTY: 208.768
LLC2 RFO       ACCESS:  4988  HIT:  3187  MISS:  1801  HIT %: 63.8933  MISS %: 36.1067  AVERAGE MISS PENALTY: 197.125
LLC2 PREFETCH  ACCESS: 261124  HIT: 107295  MISS: 153829  HIT %: 41.0897  MISS %: 58.9103  AVERAGE MISS PENALTY: 221.372
LLC2 WRITEBACK ACCESS: 13195  HIT:  9430  MISS:  3765  HIT %: 71.4665  MISS %: 28.5335  AVERAGE MISS PENALTY: 0
LLC2 PREFETCH  REQUESTED:     0  ISSUED:     0  USEFUL: 13926  USELESS: 87577
 USEFUL LOAD PREFETCHES:      13926 PREFETCH ISSUED TO LOWER LEVEL:    1240479  ACCURACY: 1.12263
 TIMELY PREFETCHES:      13926 LATE PREFETCHES: 0 DROPPED PREFETCHES: 0
LLC2 AVERAGE MISS LATENCY: 210.806 cycles

LLC2 Set Associative Eviction Count : 0
LLC2 Priority 0 entries : 12288
LLC2 Inter-Core Interference : 242512
LLC3 TOTAL     ACCESS: 852768  HIT: 294326  MISS: 558442  HIT %: 34.5142  MISS %: 65.4858  AVERAGE MISS PENALTY: 211.415
LLC3 LOAD      ACCESS: 562017  HIT: 166455  MISS: 395562  HIT %: 29.6174  MISS %: 70.3826  AVERAGE MISS PENALTY: 209.46
LLC3 RFO       ACCESS:  5072  HIT:  3261  MISS:  1811  HIT %: 64.2942  MISS %: 35.7058  AVERAGE MISS PENALTY: 197.103
LLC3 PREFETCH  ACCESS: 272350  HIT: 115033  MISS: 157317  HIT %: 42.2372  MISS %: 57.7628  AVERAGE MISS PENALTY: 221.538
LLC3 WRITEBACK ACCESS: 13329  HIT:  9577  MISS:  3752  HIT %: 71.8509  MISS %: 28.1491  AVERAGE MISS PENALTY: 0
LLC3 PREFETCH  REQUESTED:     0  ISSUED:     0  USEFUL: 14129  USELESS: 89285
 USEFUL LOAD PREFETCHES:      14129 PREFETCH ISSUED TO LOWER LEVEL:    1267319  ACCURACY: 1.11487
 TIMELY PREFETCHES:      14129 LATE PREFETCHES: 0 DROPPED PREFETCHES: 0
LLC3 AVERAGE MISS LATENCY: 211.415 cycles

LLC3 Set Associative Eviction Count : 0
LLC3 Priority 0 entries : 12288
LLC3 Inter-Core Interference : 241298
LLC4 TOTAL     ACCESS: 847878  HIT: 286836  MISS: 561042  HIT %: 33.8299  MISS %: 66.1701  AVERAGE MISS PENALTY: 210.57
LLC4 LOAD      ACCESS: 565757  HIT: 167360  MISS: 398397  HIT %: 29.5816  MISS %: 70.4184  AVERAGE MISS PENALTY: 208.671
LLC4 RFO       ACCESS:  4638  HIT:  2890  MISS:  1748  HIT %: 62.3113  MISS %: 37.6887  AVERAGE MISS PENALTY: 193.811
LLC4 PREFETCH  ACCESS: 264863  HIT: 107665  MISS: 157198  HIT %: 40.6493  MISS %: 59.3507  AVERAGE MISS PENALTY: 220.524
LLC4 WRITEBACK ACCESS: 12620  HIT:  8921  MISS:  3699  HIT %: 70.6894  MISS %: 29.3106  AVERAGE MISS PENALTY: 0
LLC4 PREFETCH  REQUESTED:     0  ISSUED:     0  USEFUL: 14374  USELESS: 85164
 USEFUL LOAD PREFETCHES:      14374 PREFETCH ISSUED TO LOWER LEVEL:    1265391  ACCURACY: 1.13593
 TIMELY PREFETCHES:      14374 LATE PREFETCHES: 0 DROPPED PREFETCHES: 0
LLC4 AVERAGE MISS LATENCY: 210.57 cycles

LLC4 Set Associative Eviction Count : 0
LLC4 Priority 0 entries : 12288
LLC4 Inter-Core Interference : 236942
LLC5 TOTAL     ACCESS: 843693  HIT: 291866  MISS: 551827  HIT %: 34.5939  MISS %: 65.4061  AVERAGE MISS PENALTY: 210.407
LLC5 LOAD      ACCESS: 560034  HIT: 169596  MISS: 390438  HIT %: 30.2832  MISS %: 69.7168  AVERAGE MISS PENALTY: 208.111
LLC5 RFO       ACCESS:  4916  HIT:  3119  MISS:  1797  HIT %: 63.4459  MISS %: 36.5541  AVERAGE MISS PENALTY: 194.442
LLC5 PREFETCH  ACCESS: 266017  HIT: 110149  MISS: 155868  HIT %: 41.4068  MISS %: 58.5932  AVERAGE MISS PENALTY: 221.371
LLC5 WRITEBACK ACCESS: 12726  HIT:  9002  MISS:  3724  HIT %: 70.7371  MISS %: 29.2629  AVERAGE MISS PENALTY: 0
LLC5 PREFETCH  REQUESTED:     0  ISSUED:     0  USEFUL: 14294  USELESS: 89573
 USEFUL LOAD PREFETCHES:      14294 PREFETCH ISSUED TO LOWER LEVEL:    1259615  ACCURACY: 1.13479
 TIMELY PREFETCHES:      14294 LATE PREFETCHES: 0 DROPPED PREFETCHES: 0
LLC5 AVERAGE MISS LATENCY: 210.407 cycles

LLC5 Set Associative Eviction Count : 0
LLC5 Priority 0 entries : 12288
LLC5 Inter-Core Interference : 246871
LLC6 TOTAL     ACCESS: 848762  HIT: 292698  MISS: 556064  HIT %: 34.4853  MISS %: 65.5147  AVERAGE MISS PENALTY: 211.736
LLC6 LOAD      ACCESS: 561732  HIT: 168440  MISS: 393292  HIT %: 29.9858  MISS %: 70.0142  AVERAGE MISS PENALTY: 209.682
LLC6 RFO       ACCESS:  5374  HIT:  3542  MISS:  1832  HIT %: 65.9099  MISS %: 34.0901  AVERAGE MISS PENALTY: 196.302
LLC6 PREFETCH  ACCESS: 267596  HIT: 110454  MISS: 157142  HIT %: 41.2764  MISS %: 58.7236  AVERAGE MISS PENALTY: 222.176
LLC6 WRITEBACK ACCESS: 14060  HIT: 10262  MISS:  3798  HIT %: 72.9872  MISS %: 27.0128  AVERAGE MISS PENALTY: 0
LLC6 PREFETCH  REQUESTED:     0  ISSUED:     0  USEFUL: 13956  USELESS: 88101
 USEFUL LOAD PREFETCHES:      13956 PREFETCH ISSUED TO LOWER LEVEL:    1272846  ACCURACY: 1.09644
 TIMELY PREFETCHES:      13956 LATE PREFETCHES: 0 DROPPED PREFETCHES: 0
LLC6 AVERAGE MISS LATENCY: 211.736 cycles

LLC6 Set Associative Eviction Count : 0
LLC6 Priority 0 entries : 12288
LLC6 Inter-Core Interference : 241182
LLC7 TOTAL     ACCESS: 850534  HIT: 290626  MISS: 559908  HIT %: 34.1698  MISS %: 65.8302  AVERAGE MISS PENALTY: 211.396
LLC7 LOAD      ACCESS: 563412  HIT: 166716  MISS: 396696  HIT %: 29.5904  MISS %: 70.4096  AVERAGE MISS PENALTY: 209.162
LLC7 RFO       ACCESS:  5666  HIT:  3844  MISS:  1822  HIT %: 67.8433  MISS %: 32.1567  AVERAGE MISS PENALTY: 194.652
LLC7 PREFETCH  ACCESS: 268572  HIT: 110938  MISS: 157634  HIT %: 41.3066  MISS %: 58.6934  AVERAGE MISS PENALTY: 222.251
LLC7 WRITEBACK ACCESS: 12884  HIT:  9128  MISS:  3756  HIT %: 70.8476  MISS %: 29.1524  AVERAGE MISS PENALTY: 0
LLC7 PREFETCH  REQUESTED:     0  ISSUED:     0  USEFUL: 14063  USELESS: 88618
 USEFUL LOAD PREFETCHES:      14063 PREFETCH ISSUED TO LOWER LEVEL:    1277713  ACCURACY: 1.10064
 TIMELY PREFETCHES:      14063 LATE PREFETCHES: 0 DROPPED PREFETCHES: 0
LLC7 AVERAGE MISS LATENCY: 211.396 cycles

LLC7 Set Associative Eviction Count : 0
LLC7 Priority 0 entries : 12288
LLC7 Inter-Core Interference : 240420
ROI Average ROB Stall Cycles:	13.4275
ROI Total ROB Stalls Cycles:	890073792
ROI TOTAL ROB counter      :	66287344
ROI Average Load ROB Stall Cycles:	53.995
ROI Total Load ROB Stalls Cycle  :	651935935
ROI Total Load ROB stalls Counter:	12074006
Major fault: 0 Minor fault: 11833








Interconnect Stats 
LINK 0 BW : 0LINK 1 BW : 0LINK 2 BW : 0LINK 3 BW : 0LINK 4 BW : 0LINK 5 BW : 0LINK 6 BW : 0LINK 7 BW : 0
DRAM Statistics
 CHANNEL 0
 RQ ROW_BUFFER_HIT: 2448816  ROW_BUFFER_MISS: 15211527
 DBUS_CONGESTED: 5881815
 WQ ROW_BUFFER_HIT: 23364  ROW_BUFFER_MISS: 112151  FULL:     0

 CHANNEL 1
 RQ ROW_BUFFER_HIT: 2439439  ROW_BUFFER_MISS: 15307028
 DBUS_CONGESTED: 5881815
 WQ ROW_BUFFER_HIT: 22642  ROW_BUFFER_MISS: 111587  FULL:     0

 AVG_CONGESTED_CYCLE: 4
DRAM PAGES: 2097152
Allocated PAGES: 94667
L2C destructor called
L1D destructor called
L1I destructor called
STLB destructor called
DTLB destructor called
ITLB destructor called
L2C destructor called
L1D destructor called
L1I destructor called
STLB destructor called
DTLB destructor called
ITLB destructor called
L2C destructor called
L1D destructor called
L1I destructor called
STLB destructor called
DTLB destructor called
ITLB destructor called
L2C destructor called
L1D destructor called
L1I destructor called
STLB destructor called
DTLB destructor called
ITLB destructor called
L2C destructor called
L1D destructor called
L1I destructor called
STLB destructor called
DTLB destructor called
ITLB destructor called
L2C destructor called
L1D destructor called
L1I destructor called
STLB destructor called
DTLB destructor called
ITLB destructor called
L2C destructor called
L1D destructor called
L1I destructor called
STLB destructor called
DTLB destructor called
ITLB destructor called
L2C destructor called
L1D destructor called
L1I destructor called
STLB destructor called
DTLB destructor called
ITLB destructor called
