
*** ChampSim Multicore Out-of-Order Simulator ***

Warmup Instructions: 200000000
Simulation Instructions: 200000000
Number of CPUs: 8
threads:1

L1I Configuration:
L1I_SET:64
L1I_WAY:8
L1I_RQ_SIZE:64
L1I_WQ_SIZE:64
L1I_PQ_SIZE:8
L1I_MSHR_SIZE:8

L1D Configuration:
L1D_SET:64
L1D_WAY:12
L1D_RQ_SIZE:64
L1D_WQ_SIZE:64
L1D_PQ_SIZE:8
L1D_MSHR_SIZE:16

L2C Configuration:
L2C_SET:1024
L2C_WAY:8
L2C_RQ_SIZE:32
L2C_WQ_SIZE:32
L2C_PQ_SIZE:16
L2C_MSHR_SIZE:32

LLC Configuration:
LLC_SET:2048
LLC_WAY:12
LLC SLICES:8
LLC_RQ_SIZE:64
LLC_WQ_SIZE:64
LLC_PQ_SIZE:32
LLC_MSHR_SIZE:64

Interconnect OFF
Attacker deprioritize is: OFF
Off-chip DRAM Size: 8192 MB Channels: 2 Width: 64-bit Data Rate: 3200 MT/s
PAGE SIZE in KB: 4.000000 
PAGE SIZE in MB: 0.003906 
PAGE offset in bits: 12 
CEASER-S_LLC:0
MIRAGE : 1
CEASER_LATENCY:3
REMAP : OFF
Partitions : 1
Multi-Step : OFF
BFS : OFF

CPU 0 runs /home/anubhav/spec_2017/625.x264_s-20B.champsimtrace.xz
CPU 1 runs /home/anubhav/spec_2017/625.x264_s-20B.champsimtrace.xz
CPU 2 runs /home/anubhav/spec_2017/625.x264_s-20B.champsimtrace.xz
CPU 3 runs /home/anubhav/spec_2017/625.x264_s-20B.champsimtrace.xz
CPU 4 runs /home/anubhav/spec_2017/625.x264_s-20B.champsimtrace.xz
CPU 5 runs /home/anubhav/spec_2017/625.x264_s-20B.champsimtrace.xz
CPU 6 runs /home/anubhav/spec_2017/625.x264_s-20B.champsimtrace.xz
CPU 7 runs /home/anubhav/spec_2017/625.x264_s-20B.champsimtrace.xz
CPU 0 Bimodal branch predictor
Initialize Hawkeye state
Initialize Hawkeye state
Initialize Hawkeye state
Initialize Hawkeye state
Initialize Hawkeye state
Initialize Hawkeye state
Initialize Hawkeye state
Initialize Hawkeye state
CPU 1 Bimodal branch predictor
Initialize Hawkeye state
Initialize Hawkeye state
Initialize Hawkeye state
Initialize Hawkeye state
Initialize Hawkeye state
Initialize Hawkeye state
Initialize Hawkeye state
Initialize Hawkeye state
CPU 2 Bimodal branch predictor
Initialize Hawkeye state
Initialize Hawkeye state
Initialize Hawkeye state
Initialize Hawkeye state
Initialize Hawkeye state
Initialize Hawkeye state
Initialize Hawkeye state
Initialize Hawkeye state
CPU 3 Bimodal branch predictor
Initialize Hawkeye state
Initialize Hawkeye state
Initialize Hawkeye state
Initialize Hawkeye state
Initialize Hawkeye state
Initialize Hawkeye state
Initialize Hawkeye state
Initialize Hawkeye state
CPU 4 Bimodal branch predictor
Initialize Hawkeye state
Initialize Hawkeye state
Initialize Hawkeye state
Initialize Hawkeye state
Initialize Hawkeye state
Initialize Hawkeye state
Initialize Hawkeye state
Initialize Hawkeye state
CPU 5 Bimodal branch predictor
Initialize Hawkeye state
Initialize Hawkeye state
Initialize Hawkeye state
Initialize Hawkeye state
Initialize Hawkeye state
Initialize Hawkeye state
Initialize Hawkeye state
Initialize Hawkeye state
CPU 6 Bimodal branch predictor
Initialize Hawkeye state
Initialize Hawkeye state
Initialize Hawkeye state
Initialize Hawkeye state
Initialize Hawkeye state
Initialize Hawkeye state
Initialize Hawkeye state
Initialize Hawkeye state
CPU 7 Bimodal branch predictor
Initialize Hawkeye state
Initialize Hawkeye state
Initialize Hawkeye state
Initialize Hawkeye state
Initialize Hawkeye state
Initialize Hawkeye state
Initialize Hawkeye state
Initialize Hawkeye state
Heartbeat CPU 2 instructions: 10000001 cycles: 3619638 heartbeat IPC: 2.76271 cumulative IPC: 2.76271 (Simulation time: 0 hr 34 min 31 sec) 
 Total Blocks : 196608 Invalid Blocks : 143878 Valid Blocks : 52730
 Total Tags : 491520 Threshold : 12288 Invalid Tags : 340487 Pr0 Tags : 98303 Pr1 Tags : 52730 num_pr0 : 12288
 SAE Count : 0
 Inter-Core Inteference in Data Store : 7474
Heartbeat CPU 7 instructions: 10000001 cycles: 3619654 heartbeat IPC: 2.7627 cumulative IPC: 2.7627 (Simulation time: 0 hr 34 min 31 sec) 
 Total Blocks : 196608 Invalid Blocks : 143878 Valid Blocks : 52730
 Total Tags : 491520 Threshold : 12288 Invalid Tags : 340487 Pr0 Tags : 98303 Pr1 Tags : 52730 num_pr0 : 12288
 SAE Count : 0
 Inter-Core Inteference in Data Store : 7474
Heartbeat CPU 1 instructions: 10000001 cycles: 3619658 heartbeat IPC: 2.76269 cumulative IPC: 2.76269 (Simulation time: 0 hr 34 min 32 sec) 
 Total Blocks : 196608 Invalid Blocks : 143878 Valid Blocks : 52730
 Total Tags : 491520 Threshold : 12288 Invalid Tags : 340487 Pr0 Tags : 98303 Pr1 Tags : 52730 num_pr0 : 12288
 SAE Count : 0
 Inter-Core Inteference in Data Store : 7474
Heartbeat CPU 4 instructions: 10000001 cycles: 3619694 heartbeat IPC: 2.76266 cumulative IPC: 2.76266 (Simulation time: 0 hr 34 min 32 sec) 
 Total Blocks : 196608 Invalid Blocks : 143878 Valid Blocks : 52730
 Total Tags : 491520 Threshold : 12288 Invalid Tags : 340487 Pr0 Tags : 98303 Pr1 Tags : 52730 num_pr0 : 12288
 SAE Count : 0
 Inter-Core Inteference in Data Store : 7474
Heartbeat CPU 6 instructions: 10000001 cycles: 3619705 heartbeat IPC: 2.76266 cumulative IPC: 2.76266 (Simulation time: 0 hr 34 min 32 sec) 
 Total Blocks : 196608 Invalid Blocks : 143878 Valid Blocks : 52730
 Total Tags : 491520 Threshold : 12288 Invalid Tags : 340487 Pr0 Tags : 98303 Pr1 Tags : 52730 num_pr0 : 12288
 SAE Count : 0
 Inter-Core Inteference in Data Store : 7474
Heartbeat CPU 0 instructions: 10000001 cycles: 3619725 heartbeat IPC: 2.76264 cumulative IPC: 2.76264 (Simulation time: 0 hr 34 min 32 sec) 
 Total Blocks : 196608 Invalid Blocks : 143878 Valid Blocks : 52730
 Total Tags : 491520 Threshold : 12288 Invalid Tags : 340487 Pr0 Tags : 98303 Pr1 Tags : 52730 num_pr0 : 12288
 SAE Count : 0
 Inter-Core Inteference in Data Store : 7474
Heartbeat CPU 5 instructions: 10000001 cycles: 3619726 heartbeat IPC: 2.76264 cumulative IPC: 2.76264 (Simulation time: 0 hr 34 min 32 sec) 
 Total Blocks : 196608 Invalid Blocks : 143878 Valid Blocks : 52730
 Total Tags : 491520 Threshold : 12288 Invalid Tags : 340487 Pr0 Tags : 98303 Pr1 Tags : 52730 num_pr0 : 12288
 SAE Count : 0
 Inter-Core Inteference in Data Store : 7474
Heartbeat CPU 3 instructions: 10000001 cycles: 3619793 heartbeat IPC: 2.76259 cumulative IPC: 2.76259 (Simulation time: 0 hr 34 min 32 sec) 
 Total Blocks : 196608 Invalid Blocks : 143878 Valid Blocks : 52730
 Total Tags : 491520 Threshold : 12288 Invalid Tags : 340487 Pr0 Tags : 98303 Pr1 Tags : 52730 num_pr0 : 12288
 SAE Count : 0
 Inter-Core Inteference in Data Store : 7474
Heartbeat CPU 1 instructions: 20000001 cycles: 7691677 heartbeat IPC: 2.45578 cumulative IPC: 2.60021 (Simulation time: 1 hr 6 min 40 sec) 
 Total Blocks : 196608 Invalid Blocks : 117090 Valid Blocks : 79518
 Total Tags : 491520 Threshold : 12288 Invalid Tags : 313709 Pr0 Tags : 98293 Pr1 Tags : 79518 num_pr0 : 12283
 SAE Count : 0
 Inter-Core Inteference in Data Store : 19507
Heartbeat CPU 4 instructions: 20000001 cycles: 7691782 heartbeat IPC: 2.45574 cumulative IPC: 2.60018 (Simulation time: 1 hr 6 min 40 sec) 
 Total Blocks : 196608 Invalid Blocks : 117090 Valid Blocks : 79518
 Total Tags : 491520 Threshold : 12288 Invalid Tags : 313709 Pr0 Tags : 98293 Pr1 Tags : 79518 num_pr0 : 12283
 SAE Count : 0
 Inter-Core Inteference in Data Store : 19507
Heartbeat CPU 2 instructions: 20000001 cycles: 7691823 heartbeat IPC: 2.45568 cumulative IPC: 2.60016 (Simulation time: 1 hr 6 min 41 sec) 
 Total Blocks : 196608 Invalid Blocks : 117090 Valid Blocks : 79518
 Total Tags : 491520 Threshold : 12288 Invalid Tags : 313709 Pr0 Tags : 98293 Pr1 Tags : 79518 num_pr0 : 12283
 SAE Count : 0
 Inter-Core Inteference in Data Store : 19507
Heartbeat CPU 7 instructions: 20000001 cycles: 7691840 heartbeat IPC: 2.45568 cumulative IPC: 2.60016 (Simulation time: 1 hr 6 min 41 sec) 
 Total Blocks : 196608 Invalid Blocks : 117090 Valid Blocks : 79518
 Total Tags : 491520 Threshold : 12288 Invalid Tags : 313709 Pr0 Tags : 98293 Pr1 Tags : 79518 num_pr0 : 12283
 SAE Count : 0
 Inter-Core Inteference in Data Store : 19507
Heartbeat CPU 5 instructions: 20000001 cycles: 7691907 heartbeat IPC: 2.45569 cumulative IPC: 2.60014 (Simulation time: 1 hr 6 min 41 sec) 
 Total Blocks : 196608 Invalid Blocks : 117090 Valid Blocks : 79518
 Total Tags : 491520 Threshold : 12288 Invalid Tags : 313709 Pr0 Tags : 98293 Pr1 Tags : 79518 num_pr0 : 12283
 SAE Count : 0
 Inter-Core Inteference in Data Store : 19507
Heartbeat CPU 6 instructions: 20000001 cycles: 7691940 heartbeat IPC: 2.45565 cumulative IPC: 2.60012 (Simulation time: 1 hr 6 min 41 sec) 
 Total Blocks : 196608 Invalid Blocks : 117090 Valid Blocks : 79518
 Total Tags : 491520 Threshold : 12288 Invalid Tags : 313708 Pr0 Tags : 98294 Pr1 Tags : 79518 num_pr0 : 12283
 SAE Count : 0
 Inter-Core Inteference in Data Store : 19507
Heartbeat CPU 0 instructions: 20000001 cycles: 7691959 heartbeat IPC: 2.45565 cumulative IPC: 2.60012 (Simulation time: 1 hr 6 min 41 sec) 
 Total Blocks : 196608 Invalid Blocks : 117090 Valid Blocks : 79518
 Total Tags : 491520 Threshold : 12288 Invalid Tags : 313708 Pr0 Tags : 98294 Pr1 Tags : 79518 num_pr0 : 12283
 SAE Count : 0
 Inter-Core Inteference in Data Store : 19507
Heartbeat CPU 3 instructions: 20000001 cycles: 7692224 heartbeat IPC: 2.45554 cumulative IPC: 2.60003 (Simulation time: 1 hr 6 min 41 sec) 
 Total Blocks : 196608 Invalid Blocks : 117090 Valid Blocks : 79518
 Total Tags : 491520 Threshold : 12288 Invalid Tags : 313707 Pr0 Tags : 98295 Pr1 Tags : 79518 num_pr0 : 12283
 SAE Count : 0
 Inter-Core Inteference in Data Store : 19507
Heartbeat CPU 1 instructions: 30000000 cycles: 11747542 heartbeat IPC: 2.46556 cumulative IPC: 2.55373 (Simulation time: 1 hr 37 min 7 sec) 
 Total Blocks : 196608 Invalid Blocks : 95575 Valid Blocks : 101033
 Total Tags : 491520 Threshold : 12288 Invalid Tags : 292185 Pr0 Tags : 98302 Pr1 Tags : 101033 num_pr0 : 12288
 SAE Count : 0
 Inter-Core Inteference in Data Store : 35451
Heartbeat CPU 4 instructions: 30000000 cycles: 11747578 heartbeat IPC: 2.46561 cumulative IPC: 2.55372 (Simulation time: 1 hr 37 min 8 sec) 
 Total Blocks : 196608 Invalid Blocks : 95575 Valid Blocks : 101033
 Total Tags : 491520 Threshold : 12288 Invalid Tags : 292185 Pr0 Tags : 98302 Pr1 Tags : 101033 num_pr0 : 12288
 SAE Count : 0
 Inter-Core Inteference in Data Store : 35451
Heartbeat CPU 7 instructions: 30000000 cycles: 11747727 heartbeat IPC: 2.46555 cumulative IPC: 2.55369 (Simulation time: 1 hr 37 min 8 sec) 
 Total Blocks : 196608 Invalid Blocks : 95575 Valid Blocks : 101033
 Total Tags : 491520 Threshold : 12288 Invalid Tags : 292185 Pr0 Tags : 98302 Pr1 Tags : 101033 num_pr0 : 12288
 SAE Count : 0
 Inter-Core Inteference in Data Store : 35451
Heartbeat CPU 2 instructions: 30000000 cycles: 11747730 heartbeat IPC: 2.46554 cumulative IPC: 2.55368 (Simulation time: 1 hr 37 min 8 sec) 
 Total Blocks : 196608 Invalid Blocks : 95575 Valid Blocks : 101033
 Total Tags : 491520 Threshold : 12288 Invalid Tags : 292185 Pr0 Tags : 98302 Pr1 Tags : 101033 num_pr0 : 12288
 SAE Count : 0
 Inter-Core Inteference in Data Store : 35451
Heartbeat CPU 5 instructions: 30000000 cycles: 11747752 heartbeat IPC: 2.46558 cumulative IPC: 2.55368 (Simulation time: 1 hr 37 min 8 sec) 
 Total Blocks : 196608 Invalid Blocks : 95575 Valid Blocks : 101033
 Total Tags : 491520 Threshold : 12288 Invalid Tags : 292185 Pr0 Tags : 98302 Pr1 Tags : 101033 num_pr0 : 12288
 SAE Count : 0
 Inter-Core Inteference in Data Store : 35451
Heartbeat CPU 6 instructions: 30000000 cycles: 11747769 heartbeat IPC: 2.46559 cumulative IPC: 2.55368 (Simulation time: 1 hr 37 min 8 sec) 
 Total Blocks : 196608 Invalid Blocks : 95575 Valid Blocks : 101033
 Total Tags : 491520 Threshold : 12288 Invalid Tags : 292185 Pr0 Tags : 98302 Pr1 Tags : 101033 num_pr0 : 12288
 SAE Count : 0
 Inter-Core Inteference in Data Store : 35451
Heartbeat CPU 0 instructions: 30000000 cycles: 11747899 heartbeat IPC: 2.46552 cumulative IPC: 2.55365 (Simulation time: 1 hr 37 min 8 sec) 
 Total Blocks : 196608 Invalid Blocks : 95575 Valid Blocks : 101033
 Total Tags : 491520 Threshold : 12288 Invalid Tags : 292185 Pr0 Tags : 98302 Pr1 Tags : 101033 num_pr0 : 12288
 SAE Count : 0
 Inter-Core Inteference in Data Store : 35451
Heartbeat CPU 3 instructions: 30000000 cycles: 11748261 heartbeat IPC: 2.46546 cumulative IPC: 2.55357 (Simulation time: 1 hr 37 min 8 sec) 
 Total Blocks : 196608 Invalid Blocks : 95575 Valid Blocks : 101033
 Total Tags : 491520 Threshold : 12288 Invalid Tags : 292185 Pr0 Tags : 98302 Pr1 Tags : 101033 num_pr0 : 12288
 SAE Count : 0
 Inter-Core Inteference in Data Store : 35451
Heartbeat CPU 1 instructions: 40000000 cycles: 15802117 heartbeat IPC: 2.46635 cumulative IPC: 2.53131 (Simulation time: 2 hr 8 min 35 sec) 
 Total Blocks : 196608 Invalid Blocks : 77928 Valid Blocks : 118680
 Total Tags : 491520 Threshold : 12288 Invalid Tags : 274537 Pr0 Tags : 98303 Pr1 Tags : 118680 num_pr0 : 12288
 SAE Count : 0
 Inter-Core Inteference in Data Store : 55129
Heartbeat CPU 4 instructions: 40000000 cycles: 15802156 heartbeat IPC: 2.46635 cumulative IPC: 2.5313 (Simulation time: 2 hr 8 min 35 sec) 
 Total Blocks : 196608 Invalid Blocks : 77928 Valid Blocks : 118680
 Total Tags : 491520 Threshold : 12288 Invalid Tags : 274537 Pr0 Tags : 98303 Pr1 Tags : 118680 num_pr0 : 12288
 SAE Count : 0
 Inter-Core Inteference in Data Store : 55129
Heartbeat CPU 7 instructions: 40000000 cycles: 15802286 heartbeat IPC: 2.46636 cumulative IPC: 2.53128 (Simulation time: 2 hr 8 min 35 sec) 
 Total Blocks : 196608 Invalid Blocks : 77928 Valid Blocks : 118680
 Total Tags : 491520 Threshold : 12288 Invalid Tags : 274537 Pr0 Tags : 98303 Pr1 Tags : 118680 num_pr0 : 12288
 SAE Count : 0
 Inter-Core Inteference in Data Store : 55129
Heartbeat CPU 5 instructions: 40000000 cycles: 15802351 heartbeat IPC: 2.46634 cumulative IPC: 2.53127 (Simulation time: 2 hr 8 min 35 sec) 
 Total Blocks : 196608 Invalid Blocks : 77928 Valid Blocks : 118680
 Total Tags : 491520 Threshold : 12288 Invalid Tags : 274537 Pr0 Tags : 98303 Pr1 Tags : 118680 num_pr0 : 12288
 SAE Count : 0
 Inter-Core Inteference in Data Store : 55129
Heartbeat CPU 2 instructions: 40000000 cycles: 15802419 heartbeat IPC: 2.46628 cumulative IPC: 2.53126 (Simulation time: 2 hr 8 min 35 sec) 
 Total Blocks : 196608 Invalid Blocks : 77928 Valid Blocks : 118680
 Total Tags : 491520 Threshold : 12288 Invalid Tags : 274537 Pr0 Tags : 98303 Pr1 Tags : 118680 num_pr0 : 12288
 SAE Count : 0
 Inter-Core Inteference in Data Store : 55130
Heartbeat CPU 6 instructions: 40000000 cycles: 15802471 heartbeat IPC: 2.46627 cumulative IPC: 2.53125 (Simulation time: 2 hr 8 min 35 sec) 
 Total Blocks : 196608 Invalid Blocks : 77928 Valid Blocks : 118680
 Total Tags : 491520 Threshold : 12288 Invalid Tags : 274537 Pr0 Tags : 98303 Pr1 Tags : 118680 num_pr0 : 12288
 SAE Count : 0
 Inter-Core Inteference in Data Store : 55130
Heartbeat CPU 0 instructions: 40000000 cycles: 15802521 heartbeat IPC: 2.46632 cumulative IPC: 2.53124 (Simulation time: 2 hr 8 min 36 sec) 
 Total Blocks : 196608 Invalid Blocks : 77928 Valid Blocks : 118680
 Total Tags : 491520 Threshold : 12288 Invalid Tags : 274537 Pr0 Tags : 98303 Pr1 Tags : 118680 num_pr0 : 12288
 SAE Count : 0
 Inter-Core Inteference in Data Store : 55130
Heartbeat CPU 3 instructions: 40000000 cycles: 15802998 heartbeat IPC: 2.46625 cumulative IPC: 2.53117 (Simulation time: 2 hr 8 min 36 sec) 
 Total Blocks : 196608 Invalid Blocks : 77928 Valid Blocks : 118680
 Total Tags : 491520 Threshold : 12288 Invalid Tags : 274537 Pr0 Tags : 98303 Pr1 Tags : 118680 num_pr0 : 12288
 SAE Count : 0
 Inter-Core Inteference in Data Store : 55130
Heartbeat CPU 1 instructions: 50000002 cycles: 19854457 heartbeat IPC: 2.46771 cumulative IPC: 2.51833 (Simulation time: 2 hr 38 min 17 sec) 
 Total Blocks : 196608 Invalid Blocks : 64012 Valid Blocks : 132596
 Total Tags : 491520 Threshold : 12288 Invalid Tags : 260620 Pr0 Tags : 98304 Pr1 Tags : 132596 num_pr0 : 12288
 SAE Count : 0
 Inter-Core Inteference in Data Store : 76365
Heartbeat CPU 4 instructions: 50000002 cycles: 19854497 heartbeat IPC: 2.46771 cumulative IPC: 2.51832 (Simulation time: 2 hr 38 min 17 sec) 
 Total Blocks : 196608 Invalid Blocks : 64012 Valid Blocks : 132596
 Total Tags : 491520 Threshold : 12288 Invalid Tags : 260620 Pr0 Tags : 98304 Pr1 Tags : 132596 num_pr0 : 12288
 SAE Count : 0
 Inter-Core Inteference in Data Store : 76365
Heartbeat CPU 7 instructions: 50000002 cycles: 19854638 heartbeat IPC: 2.4677 cumulative IPC: 2.5183 (Simulation time: 2 hr 38 min 17 sec) 
 Total Blocks : 196608 Invalid Blocks : 64012 Valid Blocks : 132596
 Total Tags : 491520 Threshold : 12288 Invalid Tags : 260621 Pr0 Tags : 98303 Pr1 Tags : 132596 num_pr0 : 12288
 SAE Count : 0
 Inter-Core Inteference in Data Store : 76368
Heartbeat CPU 2 instructions: 50000002 cycles: 19854740 heartbeat IPC: 2.46772 cumulative IPC: 2.51829 (Simulation time: 2 hr 38 min 17 sec) 
 Total Blocks : 196608 Invalid Blocks : 64012 Valid Blocks : 132596
 Total Tags : 491520 Threshold : 12288 Invalid Tags : 260620 Pr0 Tags : 98304 Pr1 Tags : 132596 num_pr0 : 12288
 SAE Count : 0
 Inter-Core Inteference in Data Store : 76368
Heartbeat CPU 5 instructions: 50000002 cycles: 19854750 heartbeat IPC: 2.46767 cumulative IPC: 2.51829 (Simulation time: 2 hr 38 min 17 sec) 
 Total Blocks : 196608 Invalid Blocks : 64012 Valid Blocks : 132596
 Total Tags : 491520 Threshold : 12288 Invalid Tags : 260620 Pr0 Tags : 98304 Pr1 Tags : 132596 num_pr0 : 12288
 SAE Count : 0
 Inter-Core Inteference in Data Store : 76368
Heartbeat CPU 6 instructions: 50000002 cycles: 19854827 heartbeat IPC: 2.4677 cumulative IPC: 2.51828 (Simulation time: 2 hr 38 min 17 sec) 
 Total Blocks : 196608 Invalid Blocks : 64012 Valid Blocks : 132596
 Total Tags : 491520 Threshold : 12288 Invalid Tags : 260621 Pr0 Tags : 98303 Pr1 Tags : 132596 num_pr0 : 12288
 SAE Count : 0
 Inter-Core Inteference in Data Store : 76369
Heartbeat CPU 0 instructions: 50000002 cycles: 19854929 heartbeat IPC: 2.46767 cumulative IPC: 2.51827 (Simulation time: 2 hr 38 min 18 sec) 
 Total Blocks : 196608 Invalid Blocks : 64012 Valid Blocks : 132596
 Total Tags : 491520 Threshold : 12288 Invalid Tags : 260621 Pr0 Tags : 98303 Pr1 Tags : 132596 num_pr0 : 12288
 SAE Count : 0
 Inter-Core Inteference in Data Store : 76369
Heartbeat CPU 3 instructions: 50000002 cycles: 19855555 heartbeat IPC: 2.46758 cumulative IPC: 2.51819 (Simulation time: 2 hr 38 min 18 sec) 
 Total Blocks : 196608 Invalid Blocks : 64012 Valid Blocks : 132596
 Total Tags : 491520 Threshold : 12288 Invalid Tags : 260620 Pr0 Tags : 98304 Pr1 Tags : 132596 num_pr0 : 12288
 SAE Count : 0
 Inter-Core Inteference in Data Store : 76370
Heartbeat CPU 1 instructions: 60000003 cycles: 23909709 heartbeat IPC: 2.46594 cumulative IPC: 2.50944 (Simulation time: 3 hr 8 min 17 sec) 
 Total Blocks : 196608 Invalid Blocks : 52683 Valid Blocks : 143925
 Total Tags : 491520 Threshold : 12288 Invalid Tags : 249293 Pr0 Tags : 98302 Pr1 Tags : 143925 num_pr0 : 12288
 SAE Count : 0
 Inter-Core Inteference in Data Store : 100037
Heartbeat CPU 4 instructions: 60000003 cycles: 23909719 heartbeat IPC: 2.46596 cumulative IPC: 2.50944 (Simulation time: 3 hr 8 min 17 sec) 
 Total Blocks : 196608 Invalid Blocks : 52683 Valid Blocks : 143925
 Total Tags : 491520 Threshold : 12288 Invalid Tags : 249293 Pr0 Tags : 98302 Pr1 Tags : 143925 num_pr0 : 12288
 SAE Count : 0
 Inter-Core Inteference in Data Store : 100037
Heartbeat CPU 2 instructions: 60000003 cycles: 23909910 heartbeat IPC: 2.46599 cumulative IPC: 2.50942 (Simulation time: 3 hr 8 min 18 sec) 
 Total Blocks : 196608 Invalid Blocks : 52683 Valid Blocks : 143925
 Total Tags : 491520 Threshold : 12288 Invalid Tags : 249293 Pr0 Tags : 98302 Pr1 Tags : 143925 num_pr0 : 12288
 SAE Count : 0
 Inter-Core Inteference in Data Store : 100037
Heartbeat CPU 7 instructions: 60000003 cycles: 23909923 heartbeat IPC: 2.46592 cumulative IPC: 2.50942 (Simulation time: 3 hr 8 min 18 sec) 
 Total Blocks : 196608 Invalid Blocks : 52683 Valid Blocks : 143925
 Total Tags : 491520 Threshold : 12288 Invalid Tags : 249293 Pr0 Tags : 98302 Pr1 Tags : 143925 num_pr0 : 12288
 SAE Count : 0
 Inter-Core Inteference in Data Store : 100037
Heartbeat CPU 5 instructions: 60000003 cycles: 23909989 heartbeat IPC: 2.46595 cumulative IPC: 2.50941 (Simulation time: 3 hr 8 min 18 sec) 
 Total Blocks : 196608 Invalid Blocks : 52683 Valid Blocks : 143925
 Total Tags : 491520 Threshold : 12288 Invalid Tags : 249293 Pr0 Tags : 98302 Pr1 Tags : 143925 num_pr0 : 12288
 SAE Count : 0
 Inter-Core Inteference in Data Store : 100037
Heartbeat CPU 6 instructions: 60000003 cycles: 23910128 heartbeat IPC: 2.46591 cumulative IPC: 2.5094 (Simulation time: 3 hr 8 min 18 sec) 
 Total Blocks : 196608 Invalid Blocks : 52683 Valid Blocks : 143925
 Total Tags : 491520 Threshold : 12288 Invalid Tags : 249293 Pr0 Tags : 98302 Pr1 Tags : 143925 num_pr0 : 12288
 SAE Count : 0
 Inter-Core Inteference in Data Store : 100037
Heartbeat CPU 0 instructions: 60000003 cycles: 23910206 heartbeat IPC: 2.46592 cumulative IPC: 2.50939 (Simulation time: 3 hr 8 min 18 sec) 
 Total Blocks : 196608 Invalid Blocks : 52683 Valid Blocks : 143925
 Total Tags : 491520 Threshold : 12288 Invalid Tags : 249293 Pr0 Tags : 98302 Pr1 Tags : 143925 num_pr0 : 12288
 SAE Count : 0
 Inter-Core Inteference in Data Store : 100037
Heartbeat CPU 3 instructions: 60000003 cycles: 23910942 heartbeat IPC: 2.46586 cumulative IPC: 2.50931 (Simulation time: 3 hr 8 min 18 sec) 
 Total Blocks : 196608 Invalid Blocks : 52683 Valid Blocks : 143925
 Total Tags : 491520 Threshold : 12288 Invalid Tags : 249293 Pr0 Tags : 98302 Pr1 Tags : 143925 num_pr0 : 12288
 SAE Count : 0
 Inter-Core Inteference in Data Store : 100037
Heartbeat CPU 4 instructions: 70000002 cycles: 27966194 heartbeat IPC: 2.46519 cumulative IPC: 2.50302 (Simulation time: 3 hr 36 min 54 sec) 
 Total Blocks : 196608 Invalid Blocks : 43557 Valid Blocks : 153051
 Total Tags : 491520 Threshold : 12288 Invalid Tags : 240171 Pr0 Tags : 98298 Pr1 Tags : 153051 num_pr0 : 12287
 SAE Count : 0
 Inter-Core Inteference in Data Store : 124771
Heartbeat CPU 1 instructions: 70000002 cycles: 27966219 heartbeat IPC: 2.46517 cumulative IPC: 2.50302 (Simulation time: 3 hr 36 min 54 sec) 
 Total Blocks : 196608 Invalid Blocks : 43557 Valid Blocks : 153051
 Total Tags : 491520 Threshold : 12288 Invalid Tags : 240171 Pr0 Tags : 98298 Pr1 Tags : 153051 num_pr0 : 12287
 SAE Count : 0
 Inter-Core Inteference in Data Store : 124771
Heartbeat CPU 7 instructions: 70000002 cycles: 27966444 heartbeat IPC: 2.46517 cumulative IPC: 2.503 (Simulation time: 3 hr 36 min 54 sec) 
 Total Blocks : 196608 Invalid Blocks : 43556 Valid Blocks : 153052
 Total Tags : 491520 Threshold : 12288 Invalid Tags : 240172 Pr0 Tags : 98296 Pr1 Tags : 153052 num_pr0 : 12287
 SAE Count : 0
 Inter-Core Inteference in Data Store : 124776
Heartbeat CPU 2 instructions: 70000002 cycles: 27966457 heartbeat IPC: 2.46515 cumulative IPC: 2.503 (Simulation time: 3 hr 36 min 55 sec) 
 Total Blocks : 196608 Invalid Blocks : 43556 Valid Blocks : 153052
 Total Tags : 491520 Threshold : 12288 Invalid Tags : 240172 Pr0 Tags : 98296 Pr1 Tags : 153052 num_pr0 : 12287
 SAE Count : 0
 Inter-Core Inteference in Data Store : 124776
Heartbeat CPU 5 instructions: 70000002 cycles: 27966557 heartbeat IPC: 2.46514 cumulative IPC: 2.50299 (Simulation time: 3 hr 36 min 55 sec) 
 Total Blocks : 196608 Invalid Blocks : 43555 Valid Blocks : 153053
 Total Tags : 491520 Threshold : 12288 Invalid Tags : 240171 Pr0 Tags : 98296 Pr1 Tags : 153053 num_pr0 : 12287
 SAE Count : 0
 Inter-Core Inteference in Data Store : 124778
Heartbeat CPU 6 instructions: 70000002 cycles: 27966703 heartbeat IPC: 2.46513 cumulative IPC: 2.50298 (Simulation time: 3 hr 36 min 55 sec) 
 Total Blocks : 196608 Invalid Blocks : 43555 Valid Blocks : 153053
 Total Tags : 491520 Threshold : 12288 Invalid Tags : 240171 Pr0 Tags : 98296 Pr1 Tags : 153053 num_pr0 : 12287
 SAE Count : 0
 Inter-Core Inteference in Data Store : 124778
Heartbeat CPU 0 instructions: 70000002 cycles: 27966813 heartbeat IPC: 2.46511 cumulative IPC: 2.50297 (Simulation time: 3 hr 36 min 55 sec) 
 Total Blocks : 196608 Invalid Blocks : 43555 Valid Blocks : 153053
 Total Tags : 491520 Threshold : 12288 Invalid Tags : 240171 Pr0 Tags : 98296 Pr1 Tags : 153053 num_pr0 : 12287
 SAE Count : 0
 Inter-Core Inteference in Data Store : 124778
Heartbeat CPU 3 instructions: 70000002 cycles: 27967605 heartbeat IPC: 2.46508 cumulative IPC: 2.5029 (Simulation time: 3 hr 36 min 55 sec) 
 Total Blocks : 196608 Invalid Blocks : 43554 Valid Blocks : 153054
 Total Tags : 491520 Threshold : 12288 Invalid Tags : 240172 Pr0 Tags : 98294 Pr1 Tags : 153054 num_pr0 : 12286
 SAE Count : 0
 Inter-Core Inteference in Data Store : 124780
Heartbeat CPU 4 instructions: 80000003 cycles: 32025532 heartbeat IPC: 2.46346 cumulative IPC: 2.49801 (Simulation time: 4 hr 5 min 42 sec) 
 Total Blocks : 196608 Invalid Blocks : 36090 Valid Blocks : 160518
 Total Tags : 491520 Threshold : 12288 Invalid Tags : 232704 Pr0 Tags : 98298 Pr1 Tags : 160518 num_pr0 : 12288
 SAE Count : 0
 Inter-Core Inteference in Data Store : 150815
Heartbeat CPU 1 instructions: 80000003 cycles: 32025562 heartbeat IPC: 2.46345 cumulative IPC: 2.498 (Simulation time: 4 hr 5 min 42 sec) 
 Total Blocks : 196608 Invalid Blocks : 36088 Valid Blocks : 160520
 Total Tags : 491520 Threshold : 12288 Invalid Tags : 232697 Pr0 Tags : 98303 Pr1 Tags : 160520 num_pr0 : 12287
 SAE Count : 0
 Inter-Core Inteference in Data Store : 150818
Heartbeat CPU 7 instructions: 80000003 cycles: 32025801 heartbeat IPC: 2.46344 cumulative IPC: 2.49799 (Simulation time: 4 hr 5 min 42 sec) 
 Total Blocks : 196608 Invalid Blocks : 36078 Valid Blocks : 160530
 Total Tags : 491520 Threshold : 12288 Invalid Tags : 232689 Pr0 Tags : 98301 Pr1 Tags : 160530 num_pr0 : 12288
 SAE Count : 0
 Inter-Core Inteference in Data Store : 150840
Heartbeat CPU 2 instructions: 80000003 cycles: 32025842 heartbeat IPC: 2.46343 cumulative IPC: 2.49798 (Simulation time: 4 hr 5 min 42 sec) 
 Total Blocks : 196608 Invalid Blocks : 36074 Valid Blocks : 160534
 Total Tags : 491520 Threshold : 12288 Invalid Tags : 232686 Pr0 Tags : 98300 Pr1 Tags : 160534 num_pr0 : 12287
 SAE Count : 0
 Inter-Core Inteference in Data Store : 150845
Heartbeat CPU 5 instructions: 80000003 cycles: 32025890 heartbeat IPC: 2.46346 cumulative IPC: 2.49798 (Simulation time: 4 hr 5 min 42 sec) 
 Total Blocks : 196608 Invalid Blocks : 36070 Valid Blocks : 160538
 Total Tags : 491520 Threshold : 12288 Invalid Tags : 232682 Pr0 Tags : 98300 Pr1 Tags : 160538 num_pr0 : 12286
 SAE Count : 0
 Inter-Core Inteference in Data Store : 150848
Heartbeat CPU 6 instructions: 80000003 cycles: 32026030 heartbeat IPC: 2.46346 cumulative IPC: 2.49797 (Simulation time: 4 hr 5 min 42 sec) 
 Total Blocks : 196608 Invalid Blocks : 36065 Valid Blocks : 160543
 Total Tags : 491520 Threshold : 12288 Invalid Tags : 232674 Pr0 Tags : 98303 Pr1 Tags : 160543 num_pr0 : 12288
 SAE Count : 0
 Inter-Core Inteference in Data Store : 150867
Heartbeat CPU 0 instructions: 80000003 cycles: 32026205 heartbeat IPC: 2.46342 cumulative IPC: 2.49795 (Simulation time: 4 hr 5 min 43 sec) 
 Total Blocks : 196608 Invalid Blocks : 36060 Valid Blocks : 160548
 Total Tags : 491520 Threshold : 12288 Invalid Tags : 232670 Pr0 Tags : 98302 Pr1 Tags : 160548 num_pr0 : 12287
 SAE Count : 0
 Inter-Core Inteference in Data Store : 150887
Heartbeat CPU 3 instructions: 80000003 cycles: 32026978 heartbeat IPC: 2.46343 cumulative IPC: 2.49789 (Simulation time: 4 hr 5 min 43 sec) 
 Total Blocks : 196608 Invalid Blocks : 36036 Valid Blocks : 160572
 Total Tags : 491520 Threshold : 12288 Invalid Tags : 232650 Pr0 Tags : 98298 Pr1 Tags : 160572 num_pr0 : 12286
 SAE Count : 0
 Inter-Core Inteference in Data Store : 150969
Heartbeat CPU 1 instructions: 90000000 cycles: 36210749 heartbeat IPC: 2.38938 cumulative IPC: 2.48545 (Simulation time: 4 hr 38 min 34 sec) 
 Total Blocks : 196608 Invalid Blocks : 3931 Valid Blocks : 192677
 Total Tags : 491520 Threshold : 12288 Invalid Tags : 200546 Pr0 Tags : 98297 Pr1 Tags : 192677 num_pr0 : 12288
 SAE Count : 0
 Inter-Core Inteference in Data Store : 501079
Heartbeat CPU 4 instructions: 90000000 cycles: 36210782 heartbeat IPC: 2.38934 cumulative IPC: 2.48545 (Simulation time: 4 hr 38 min 34 sec) 
 Total Blocks : 196608 Invalid Blocks : 3931 Valid Blocks : 192677
 Total Tags : 491520 Threshold : 12288 Invalid Tags : 200545 Pr0 Tags : 98298 Pr1 Tags : 192677 num_pr0 : 12288
 SAE Count : 0
 Inter-Core Inteference in Data Store : 501079
Heartbeat CPU 7 instructions: 90000000 cycles: 36211003 heartbeat IPC: 2.38937 cumulative IPC: 2.48543 (Simulation time: 4 hr 38 min 34 sec) 
 Total Blocks : 196608 Invalid Blocks : 3931 Valid Blocks : 192677
 Total Tags : 491520 Threshold : 12288 Invalid Tags : 200543 Pr0 Tags : 98300 Pr1 Tags : 192677 num_pr0 : 12287
 SAE Count : 0
 Inter-Core Inteference in Data Store : 501098
Heartbeat CPU 5 instructions: 90000000 cycles: 36211103 heartbeat IPC: 2.38936 cumulative IPC: 2.48543 (Simulation time: 4 hr 38 min 34 sec) 
 Total Blocks : 196608 Invalid Blocks : 3931 Valid Blocks : 192677
 Total Tags : 491520 Threshold : 12288 Invalid Tags : 200544 Pr0 Tags : 98299 Pr1 Tags : 192677 num_pr0 : 12287
 SAE Count : 0
 Inter-Core Inteference in Data Store : 501103
Heartbeat CPU 2 instructions: 90000000 cycles: 36211115 heartbeat IPC: 2.38933 cumulative IPC: 2.48542 (Simulation time: 4 hr 38 min 34 sec) 
 Total Blocks : 196608 Invalid Blocks : 3931 Valid Blocks : 192677
 Total Tags : 491520 Threshold : 12288 Invalid Tags : 200544 Pr0 Tags : 98299 Pr1 Tags : 192677 num_pr0 : 12287
 SAE Count : 0
 Inter-Core Inteference in Data Store : 501103
Heartbeat CPU 6 instructions: 90000000 cycles: 36211196 heartbeat IPC: 2.38939 cumulative IPC: 2.48542 (Simulation time: 4 hr 38 min 34 sec) 
 Total Blocks : 196608 Invalid Blocks : 3930 Valid Blocks : 192678
 Total Tags : 491520 Threshold : 12288 Invalid Tags : 200542 Pr0 Tags : 98300 Pr1 Tags : 192678 num_pr0 : 12286
 SAE Count : 0
 Inter-Core Inteference in Data Store : 501110
Heartbeat CPU 0 instructions: 90000000 cycles: 36211444 heartbeat IPC: 2.38935 cumulative IPC: 2.4854 (Simulation time: 4 hr 38 min 35 sec) 
 Total Blocks : 196608 Invalid Blocks : 3930 Valid Blocks : 192678
 Total Tags : 491520 Threshold : 12288 Invalid Tags : 200543 Pr0 Tags : 98299 Pr1 Tags : 192678 num_pr0 : 12287
 SAE Count : 0
 Inter-Core Inteference in Data Store : 501122
Heartbeat CPU 3 instructions: 90000000 cycles: 36212146 heartbeat IPC: 2.38939 cumulative IPC: 2.48535 (Simulation time: 4 hr 38 min 35 sec) 
 Total Blocks : 196608 Invalid Blocks : 3930 Valid Blocks : 192678
 Total Tags : 491520 Threshold : 12288 Invalid Tags : 200543 Pr0 Tags : 98299 Pr1 Tags : 192678 num_pr0 : 12287
 SAE Count : 0
 Inter-Core Inteference in Data Store : 501167
Heartbeat CPU 4 instructions: 100000001 cycles: 40126978 heartbeat IPC: 2.5535 cumulative IPC: 2.49209 (Simulation time: 5 hr 19 min 55 sec) 
 Total Blocks : 196608 Invalid Blocks : 2025 Valid Blocks : 194583
 Total Tags : 491520 Threshold : 12288 Invalid Tags : 198641 Pr0 Tags : 98296 Pr1 Tags : 194583 num_pr0 : 12286
 SAE Count : 0
 Inter-Core Inteference in Data Store : 612836
Heartbeat CPU 1 instructions: 100000001 cycles: 40127016 heartbeat IPC: 2.55345 cumulative IPC: 2.49209 (Simulation time: 5 hr 19 min 55 sec) 
 Total Blocks : 196608 Invalid Blocks : 2025 Valid Blocks : 194583
 Total Tags : 491520 Threshold : 12288 Invalid Tags : 198641 Pr0 Tags : 98296 Pr1 Tags : 194583 num_pr0 : 12286
 SAE Count : 0
 Inter-Core Inteference in Data Store : 612840
Heartbeat CPU 7 instructions: 100000001 cycles: 40127254 heartbeat IPC: 2.55346 cumulative IPC: 2.49207 (Simulation time: 5 hr 19 min 55 sec) 
 Total Blocks : 196608 Invalid Blocks : 2025 Valid Blocks : 194583
 Total Tags : 491520 Threshold : 12288 Invalid Tags : 198643 Pr0 Tags : 98294 Pr1 Tags : 194583 num_pr0 : 12286
 SAE Count : 0
 Inter-Core Inteference in Data Store : 612847
Heartbeat CPU 5 instructions: 100000001 cycles: 40127327 heartbeat IPC: 2.55348 cumulative IPC: 2.49207 (Simulation time: 5 hr 19 min 55 sec) 
 Total Blocks : 196608 Invalid Blocks : 2025 Valid Blocks : 194583
 Total Tags : 491520 Threshold : 12288 Invalid Tags : 198641 Pr0 Tags : 98296 Pr1 Tags : 194583 num_pr0 : 12286
 SAE Count : 0
 Inter-Core Inteference in Data Store : 612849
Heartbeat CPU 2 instructions: 100000001 cycles: 40127355 heartbeat IPC: 2.55347 cumulative IPC: 2.49207 (Simulation time: 5 hr 19 min 55 sec) 
 Total Blocks : 196608 Invalid Blocks : 2025 Valid Blocks : 194583
 Total Tags : 491520 Threshold : 12288 Invalid Tags : 198641 Pr0 Tags : 98296 Pr1 Tags : 194583 num_pr0 : 12286
 SAE Count : 0
 Inter-Core Inteference in Data Store : 612851
Heartbeat CPU 6 instructions: 100000001 cycles: 40127427 heartbeat IPC: 2.55348 cumulative IPC: 2.49206 (Simulation time: 5 hr 19 min 56 sec) 
 Total Blocks : 196608 Invalid Blocks : 2025 Valid Blocks : 194583
 Total Tags : 491520 Threshold : 12288 Invalid Tags : 198642 Pr0 Tags : 98295 Pr1 Tags : 194583 num_pr0 : 12286
 SAE Count : 0
 Inter-Core Inteference in Data Store : 612854
Heartbeat CPU 0 instructions: 100000001 cycles: 40127693 heartbeat IPC: 2.55346 cumulative IPC: 2.49204 (Simulation time: 5 hr 19 min 56 sec) 
 Total Blocks : 196608 Invalid Blocks : 2025 Valid Blocks : 194583
 Total Tags : 491520 Threshold : 12288 Invalid Tags : 198642 Pr0 Tags : 98295 Pr1 Tags : 194583 num_pr0 : 12286
 SAE Count : 0
 Inter-Core Inteference in Data Store : 612859
Heartbeat CPU 3 instructions: 100000001 cycles: 40128374 heartbeat IPC: 2.55348 cumulative IPC: 2.492 (Simulation time: 5 hr 19 min 56 sec) 
 Total Blocks : 196608 Invalid Blocks : 2025 Valid Blocks : 194583
 Total Tags : 491520 Threshold : 12288 Invalid Tags : 198642 Pr0 Tags : 98295 Pr1 Tags : 194583 num_pr0 : 12288
 SAE Count : 0
 Inter-Core Inteference in Data Store : 612881
Heartbeat CPU 4 instructions: 110000000 cycles: 43745788 heartbeat IPC: 2.76334 cumulative IPC: 2.51453 (Simulation time: 5 hr 50 min 31 sec) 
 Total Blocks : 196608 Invalid Blocks : 1153 Valid Blocks : 195455
 Total Tags : 491520 Threshold : 12288 Invalid Tags : 197761 Pr0 Tags : 98304 Pr1 Tags : 195455 num_pr0 : 12288
 SAE Count : 0
 Inter-Core Inteference in Data Store : 708949
Heartbeat CPU 1 instructions: 110000000 cycles: 43745948 heartbeat IPC: 2.76325 cumulative IPC: 2.51452 (Simulation time: 5 hr 50 min 31 sec) 
 Total Blocks : 196608 Invalid Blocks : 1153 Valid Blocks : 195455
 Total Tags : 491520 Threshold : 12288 Invalid Tags : 197761 Pr0 Tags : 98304 Pr1 Tags : 195455 num_pr0 : 12288
 SAE Count : 0
 Inter-Core Inteference in Data Store : 708949
Heartbeat CPU 7 instructions: 110000000 cycles: 43746051 heartbeat IPC: 2.76335 cumulative IPC: 2.51451 (Simulation time: 5 hr 50 min 32 sec) 
 Total Blocks : 196608 Invalid Blocks : 1153 Valid Blocks : 195455
 Total Tags : 491520 Threshold : 12288 Invalid Tags : 197761 Pr0 Tags : 98304 Pr1 Tags : 195455 num_pr0 : 12288
 SAE Count : 0
 Inter-Core Inteference in Data Store : 708949
Heartbeat CPU 2 instructions: 110000000 cycles: 43746205 heartbeat IPC: 2.76331 cumulative IPC: 2.5145 (Simulation time: 5 hr 50 min 32 sec) 
 Total Blocks : 196608 Invalid Blocks : 1153 Valid Blocks : 195455
 Total Tags : 491520 Threshold : 12288 Invalid Tags : 197761 Pr0 Tags : 98304 Pr1 Tags : 195455 num_pr0 : 12288
 SAE Count : 0
 Inter-Core Inteference in Data Store : 708949
Heartbeat CPU 6 instructions: 110000000 cycles: 43746207 heartbeat IPC: 2.76336 cumulative IPC: 2.5145 (Simulation time: 5 hr 50 min 32 sec) 
 Total Blocks : 196608 Invalid Blocks : 1153 Valid Blocks : 195455
 Total Tags : 491520 Threshold : 12288 Invalid Tags : 197761 Pr0 Tags : 98304 Pr1 Tags : 195455 num_pr0 : 12288
 SAE Count : 0
 Inter-Core Inteference in Data Store : 708949
Heartbeat CPU 5 instructions: 110000000 cycles: 43746210 heartbeat IPC: 2.76328 cumulative IPC: 2.5145 (Simulation time: 5 hr 50 min 32 sec) 
 Total Blocks : 196608 Invalid Blocks : 1153 Valid Blocks : 195455
 Total Tags : 491520 Threshold : 12288 Invalid Tags : 197761 Pr0 Tags : 98304 Pr1 Tags : 195455 num_pr0 : 12288
 SAE Count : 0
 Inter-Core Inteference in Data Store : 708949
Heartbeat CPU 0 instructions: 110000000 cycles: 43746524 heartbeat IPC: 2.76332 cumulative IPC: 2.51449 (Simulation time: 5 hr 50 min 32 sec) 
 Total Blocks : 196608 Invalid Blocks : 1153 Valid Blocks : 195455
 Total Tags : 491520 Threshold : 12288 Invalid Tags : 197761 Pr0 Tags : 98304 Pr1 Tags : 195455 num_pr0 : 12288
 SAE Count : 0
 Inter-Core Inteference in Data Store : 708949
Heartbeat CPU 3 instructions: 110000000 cycles: 43747228 heartbeat IPC: 2.76331 cumulative IPC: 2.51445 (Simulation time: 5 hr 50 min 32 sec) 
 Total Blocks : 196608 Invalid Blocks : 1153 Valid Blocks : 195455
 Total Tags : 491520 Threshold : 12288 Invalid Tags : 197761 Pr0 Tags : 98304 Pr1 Tags : 195455 num_pr0 : 12288
 SAE Count : 0
 Inter-Core Inteference in Data Store : 708949
Heartbeat CPU 4 instructions: 120000001 cycles: 47908154 heartbeat IPC: 2.40248 cumulative IPC: 2.50479 (Simulation time: 6 hr 10 min 55 sec) 
 Total Blocks : 196608 Invalid Blocks : 1150 Valid Blocks : 195458
 Total Tags : 491520 Threshold : 12288 Invalid Tags : 197758 Pr0 Tags : 98304 Pr1 Tags : 195458 num_pr0 : 12288
 SAE Count : 0
 Inter-Core Inteference in Data Store : 709612
Heartbeat CPU 1 instructions: 120000001 cycles: 47908310 heartbeat IPC: 2.40248 cumulative IPC: 2.50478 (Simulation time: 6 hr 10 min 56 sec) 
 Total Blocks : 196608 Invalid Blocks : 1150 Valid Blocks : 195458
 Total Tags : 491520 Threshold : 12288 Invalid Tags : 197758 Pr0 Tags : 98304 Pr1 Tags : 195458 num_pr0 : 12288
 SAE Count : 0
 Inter-Core Inteference in Data Store : 709612
Heartbeat CPU 7 instructions: 120000001 cycles: 47908413 heartbeat IPC: 2.40248 cumulative IPC: 2.50478 (Simulation time: 6 hr 10 min 56 sec) 
 Total Blocks : 196608 Invalid Blocks : 1150 Valid Blocks : 195458
 Total Tags : 491520 Threshold : 12288 Invalid Tags : 197758 Pr0 Tags : 98304 Pr1 Tags : 195458 num_pr0 : 12288
 SAE Count : 0
 Inter-Core Inteference in Data Store : 709612
Heartbeat CPU 2 instructions: 120000001 cycles: 47908571 heartbeat IPC: 2.40248 cumulative IPC: 2.50477 (Simulation time: 6 hr 10 min 56 sec) 
 Total Blocks : 196608 Invalid Blocks : 1150 Valid Blocks : 195458
 Total Tags : 491520 Threshold : 12288 Invalid Tags : 197758 Pr0 Tags : 98304 Pr1 Tags : 195458 num_pr0 : 12288
 SAE Count : 0
 Inter-Core Inteference in Data Store : 709612
Heartbeat CPU 6 instructions: 120000001 cycles: 47908574 heartbeat IPC: 2.40248 cumulative IPC: 2.50477 (Simulation time: 6 hr 10 min 56 sec) 
 Total Blocks : 196608 Invalid Blocks : 1150 Valid Blocks : 195458
 Total Tags : 491520 Threshold : 12288 Invalid Tags : 197758 Pr0 Tags : 98304 Pr1 Tags : 195458 num_pr0 : 12288
 SAE Count : 0
 Inter-Core Inteference in Data Store : 709612
Heartbeat CPU 5 instructions: 120000001 cycles: 47908576 heartbeat IPC: 2.40248 cumulative IPC: 2.50477 (Simulation time: 6 hr 10 min 56 sec) 
 Total Blocks : 196608 Invalid Blocks : 1150 Valid Blocks : 195458
 Total Tags : 491520 Threshold : 12288 Invalid Tags : 197758 Pr0 Tags : 98304 Pr1 Tags : 195458 num_pr0 : 12288
 SAE Count : 0
 Inter-Core Inteference in Data Store : 709612
Heartbeat CPU 0 instructions: 120000001 cycles: 47908886 heartbeat IPC: 2.40248 cumulative IPC: 2.50475 (Simulation time: 6 hr 10 min 56 sec) 
 Total Blocks : 196608 Invalid Blocks : 1150 Valid Blocks : 195458
 Total Tags : 491520 Threshold : 12288 Invalid Tags : 197758 Pr0 Tags : 98304 Pr1 Tags : 195458 num_pr0 : 12288
 SAE Count : 0
 Inter-Core Inteference in Data Store : 709612
Heartbeat CPU 3 instructions: 120000001 cycles: 47909590 heartbeat IPC: 2.40248 cumulative IPC: 2.50472 (Simulation time: 6 hr 10 min 57 sec) 
 Total Blocks : 196608 Invalid Blocks : 1150 Valid Blocks : 195458
 Total Tags : 491520 Threshold : 12288 Invalid Tags : 197758 Pr0 Tags : 98304 Pr1 Tags : 195458 num_pr0 : 12288
 SAE Count : 0
 Inter-Core Inteference in Data Store : 709612
Heartbeat CPU 4 instructions: 130000003 cycles: 52087884 heartbeat IPC: 2.3925 cumulative IPC: 2.49578 (Simulation time: 6 hr 30 min 53 sec) 
 Total Blocks : 196608 Invalid Blocks : 1147 Valid Blocks : 195461
 Total Tags : 491520 Threshold : 12288 Invalid Tags : 197756 Pr0 Tags : 98303 Pr1 Tags : 195461 num_pr0 : 12288
 SAE Count : 0
 Inter-Core Inteference in Data Store : 710280
Heartbeat CPU 1 instructions: 130000003 cycles: 52088040 heartbeat IPC: 2.3925 cumulative IPC: 2.49577 (Simulation time: 6 hr 30 min 54 sec) 
 Total Blocks : 196608 Invalid Blocks : 1147 Valid Blocks : 195461
 Total Tags : 491520 Threshold : 12288 Invalid Tags : 197756 Pr0 Tags : 98303 Pr1 Tags : 195461 num_pr0 : 12288
 SAE Count : 0
 Inter-Core Inteference in Data Store : 710280
Heartbeat CPU 7 instructions: 130000003 cycles: 52088143 heartbeat IPC: 2.3925 cumulative IPC: 2.49577 (Simulation time: 6 hr 30 min 55 sec) 
 Total Blocks : 196608 Invalid Blocks : 1147 Valid Blocks : 195461
 Total Tags : 491520 Threshold : 12288 Invalid Tags : 197756 Pr0 Tags : 98303 Pr1 Tags : 195461 num_pr0 : 12288
 SAE Count : 0
 Inter-Core Inteference in Data Store : 710280
Heartbeat CPU 2 instructions: 130000003 cycles: 52088301 heartbeat IPC: 2.3925 cumulative IPC: 2.49576 (Simulation time: 6 hr 30 min 55 sec) 
 Total Blocks : 196608 Invalid Blocks : 1147 Valid Blocks : 195461
 Total Tags : 491520 Threshold : 12288 Invalid Tags : 197756 Pr0 Tags : 98303 Pr1 Tags : 195461 num_pr0 : 12288
 SAE Count : 0
 Inter-Core Inteference in Data Store : 710280
Heartbeat CPU 6 instructions: 130000003 cycles: 52088305 heartbeat IPC: 2.3925 cumulative IPC: 2.49576 (Simulation time: 6 hr 30 min 55 sec) 
 Total Blocks : 196608 Invalid Blocks : 1147 Valid Blocks : 195461
 Total Tags : 491520 Threshold : 12288 Invalid Tags : 197756 Pr0 Tags : 98303 Pr1 Tags : 195461 num_pr0 : 12288
 SAE Count : 0
 Inter-Core Inteference in Data Store : 710280
Heartbeat CPU 5 instructions: 130000003 cycles: 52088307 heartbeat IPC: 2.3925 cumulative IPC: 2.49576 (Simulation time: 6 hr 30 min 55 sec) 
 Total Blocks : 196608 Invalid Blocks : 1147 Valid Blocks : 195461
 Total Tags : 491520 Threshold : 12288 Invalid Tags : 197756 Pr0 Tags : 98303 Pr1 Tags : 195461 num_pr0 : 12288
 SAE Count : 0
 Inter-Core Inteference in Data Store : 710280
Heartbeat CPU 0 instructions: 130000003 cycles: 52088616 heartbeat IPC: 2.3925 cumulative IPC: 2.49575 (Simulation time: 6 hr 30 min 55 sec) 
 Total Blocks : 196608 Invalid Blocks : 1147 Valid Blocks : 195461
 Total Tags : 491520 Threshold : 12288 Invalid Tags : 197756 Pr0 Tags : 98303 Pr1 Tags : 195461 num_pr0 : 12288
 SAE Count : 0
 Inter-Core Inteference in Data Store : 710280
Heartbeat CPU 3 instructions: 130000003 cycles: 52089320 heartbeat IPC: 2.3925 cumulative IPC: 2.49571 (Simulation time: 6 hr 30 min 55 sec) 
 Total Blocks : 196608 Invalid Blocks : 1147 Valid Blocks : 195461
 Total Tags : 491520 Threshold : 12288 Invalid Tags : 197756 Pr0 Tags : 98303 Pr1 Tags : 195461 num_pr0 : 12288
 SAE Count : 0
 Inter-Core Inteference in Data Store : 710280
Heartbeat CPU 4 instructions: 140000001 cycles: 56267648 heartbeat IPC: 2.39248 cumulative IPC: 2.48811 (Simulation time: 6 hr 50 min 38 sec) 
 Total Blocks : 196608 Invalid Blocks : 1144 Valid Blocks : 195464
 Total Tags : 491520 Threshold : 12288 Invalid Tags : 197753 Pr0 Tags : 98303 Pr1 Tags : 195464 num_pr0 : 12288
 SAE Count : 0
 Inter-Core Inteference in Data Store : 710710
Heartbeat CPU 1 instructions: 140000001 cycles: 56267804 heartbeat IPC: 2.39248 cumulative IPC: 2.4881 (Simulation time: 6 hr 50 min 40 sec) 
 Total Blocks : 196608 Invalid Blocks : 1144 Valid Blocks : 195464
 Total Tags : 491520 Threshold : 12288 Invalid Tags : 197753 Pr0 Tags : 98303 Pr1 Tags : 195464 num_pr0 : 12288
 SAE Count : 0
 Inter-Core Inteference in Data Store : 710710
Heartbeat CPU 7 instructions: 140000001 cycles: 56267907 heartbeat IPC: 2.39248 cumulative IPC: 2.4881 (Simulation time: 6 hr 50 min 40 sec) 
 Total Blocks : 196608 Invalid Blocks : 1144 Valid Blocks : 195464
 Total Tags : 491520 Threshold : 12288 Invalid Tags : 197753 Pr0 Tags : 98303 Pr1 Tags : 195464 num_pr0 : 12288
 SAE Count : 0
 Inter-Core Inteference in Data Store : 710710
Heartbeat CPU 2 instructions: 140000001 cycles: 56268064 heartbeat IPC: 2.39248 cumulative IPC: 2.48809 (Simulation time: 6 hr 50 min 40 sec) 
 Total Blocks : 196608 Invalid Blocks : 1144 Valid Blocks : 195464
 Total Tags : 491520 Threshold : 12288 Invalid Tags : 197753 Pr0 Tags : 98303 Pr1 Tags : 195464 num_pr0 : 12288
 SAE Count : 0
 Inter-Core Inteference in Data Store : 710710
Heartbeat CPU 6 instructions: 140000001 cycles: 56268068 heartbeat IPC: 2.39248 cumulative IPC: 2.48809 (Simulation time: 6 hr 50 min 40 sec) 
 Total Blocks : 196608 Invalid Blocks : 1144 Valid Blocks : 195464
 Total Tags : 491520 Threshold : 12288 Invalid Tags : 197753 Pr0 Tags : 98303 Pr1 Tags : 195464 num_pr0 : 12288
 SAE Count : 0
 Inter-Core Inteference in Data Store : 710710
Heartbeat CPU 5 instructions: 140000001 cycles: 56268071 heartbeat IPC: 2.39248 cumulative IPC: 2.48809 (Simulation time: 6 hr 50 min 40 sec) 
 Total Blocks : 196608 Invalid Blocks : 1144 Valid Blocks : 195464
 Total Tags : 491520 Threshold : 12288 Invalid Tags : 197753 Pr0 Tags : 98303 Pr1 Tags : 195464 num_pr0 : 12288
 SAE Count : 0
 Inter-Core Inteference in Data Store : 710710
Heartbeat CPU 0 instructions: 140000001 cycles: 56268380 heartbeat IPC: 2.39248 cumulative IPC: 2.48808 (Simulation time: 6 hr 50 min 40 sec) 
 Total Blocks : 196608 Invalid Blocks : 1144 Valid Blocks : 195464
 Total Tags : 491520 Threshold : 12288 Invalid Tags : 197753 Pr0 Tags : 98303 Pr1 Tags : 195464 num_pr0 : 12288
 SAE Count : 0
 Inter-Core Inteference in Data Store : 710710
Heartbeat CPU 3 instructions: 140000001 cycles: 56269084 heartbeat IPC: 2.39248 cumulative IPC: 2.48804 (Simulation time: 6 hr 50 min 41 sec) 
 Total Blocks : 196608 Invalid Blocks : 1144 Valid Blocks : 195464
 Total Tags : 491520 Threshold : 12288 Invalid Tags : 197753 Pr0 Tags : 98303 Pr1 Tags : 195464 num_pr0 : 12288
 SAE Count : 0
 Inter-Core Inteference in Data Store : 710710
Heartbeat CPU 4 instructions: 150000002 cycles: 60465929 heartbeat IPC: 2.38193 cumulative IPC: 2.48074 (Simulation time: 7 hr 10 min 56 sec) 
 Total Blocks : 196608 Invalid Blocks : 1139 Valid Blocks : 195469
 Total Tags : 491520 Threshold : 12288 Invalid Tags : 197747 Pr0 Tags : 98304 Pr1 Tags : 195469 num_pr0 : 12288
 SAE Count : 0
 Inter-Core Inteference in Data Store : 711516
Heartbeat CPU 1 instructions: 150000002 cycles: 60466085 heartbeat IPC: 2.38193 cumulative IPC: 2.48073 (Simulation time: 7 hr 10 min 57 sec) 
 Total Blocks : 196608 Invalid Blocks : 1139 Valid Blocks : 195469
 Total Tags : 491520 Threshold : 12288 Invalid Tags : 197747 Pr0 Tags : 98304 Pr1 Tags : 195469 num_pr0 : 12288
 SAE Count : 0
 Inter-Core Inteference in Data Store : 711516
Heartbeat CPU 7 instructions: 150000002 cycles: 60466188 heartbeat IPC: 2.38193 cumulative IPC: 2.48073 (Simulation time: 7 hr 10 min 58 sec) 
 Total Blocks : 196608 Invalid Blocks : 1139 Valid Blocks : 195469
 Total Tags : 491520 Threshold : 12288 Invalid Tags : 197747 Pr0 Tags : 98304 Pr1 Tags : 195469 num_pr0 : 12288
 SAE Count : 0
 Inter-Core Inteference in Data Store : 711516
Heartbeat CPU 2 instructions: 150000002 cycles: 60466345 heartbeat IPC: 2.38193 cumulative IPC: 2.48072 (Simulation time: 7 hr 10 min 58 sec) 
 Total Blocks : 196608 Invalid Blocks : 1139 Valid Blocks : 195469
 Total Tags : 491520 Threshold : 12288 Invalid Tags : 197747 Pr0 Tags : 98304 Pr1 Tags : 195469 num_pr0 : 12288
 SAE Count : 0
 Inter-Core Inteference in Data Store : 711516
Heartbeat CPU 6 instructions: 150000002 cycles: 60466349 heartbeat IPC: 2.38193 cumulative IPC: 2.48072 (Simulation time: 7 hr 10 min 58 sec) 
 Total Blocks : 196608 Invalid Blocks : 1139 Valid Blocks : 195469
 Total Tags : 491520 Threshold : 12288 Invalid Tags : 197747 Pr0 Tags : 98304 Pr1 Tags : 195469 num_pr0 : 12288
 SAE Count : 0
 Inter-Core Inteference in Data Store : 711516
Heartbeat CPU 5 instructions: 150000002 cycles: 60466352 heartbeat IPC: 2.38193 cumulative IPC: 2.48072 (Simulation time: 7 hr 10 min 58 sec) 
 Total Blocks : 196608 Invalid Blocks : 1139 Valid Blocks : 195469
 Total Tags : 491520 Threshold : 12288 Invalid Tags : 197747 Pr0 Tags : 98304 Pr1 Tags : 195469 num_pr0 : 12288
 SAE Count : 0
 Inter-Core Inteference in Data Store : 711516
Heartbeat CPU 0 instructions: 150000002 cycles: 60466661 heartbeat IPC: 2.38193 cumulative IPC: 2.48071 (Simulation time: 7 hr 10 min 58 sec) 
 Total Blocks : 196608 Invalid Blocks : 1139 Valid Blocks : 195469
 Total Tags : 491520 Threshold : 12288 Invalid Tags : 197747 Pr0 Tags : 98304 Pr1 Tags : 195469 num_pr0 : 12288
 SAE Count : 0
 Inter-Core Inteference in Data Store : 711516
Heartbeat CPU 3 instructions: 150000002 cycles: 60467365 heartbeat IPC: 2.38193 cumulative IPC: 2.48068 (Simulation time: 7 hr 10 min 58 sec) 
 Total Blocks : 196608 Invalid Blocks : 1139 Valid Blocks : 195469
 Total Tags : 491520 Threshold : 12288 Invalid Tags : 197747 Pr0 Tags : 98304 Pr1 Tags : 195469 num_pr0 : 12288
 SAE Count : 0
 Inter-Core Inteference in Data Store : 711516
Heartbeat CPU 4 instructions: 160000000 cycles: 64642415 heartbeat IPC: 2.39436 cumulative IPC: 2.47516 (Simulation time: 7 hr 30 min 47 sec) 
 Total Blocks : 196608 Invalid Blocks : 1136 Valid Blocks : 195472
 Total Tags : 491520 Threshold : 12288 Invalid Tags : 197744 Pr0 Tags : 98304 Pr1 Tags : 195472 num_pr0 : 12288
 SAE Count : 0
 Inter-Core Inteference in Data Store : 712288
Heartbeat CPU 1 instructions: 160000000 cycles: 64642571 heartbeat IPC: 2.39436 cumulative IPC: 2.47515 (Simulation time: 7 hr 30 min 48 sec) 
 Total Blocks : 196608 Invalid Blocks : 1136 Valid Blocks : 195472
 Total Tags : 491520 Threshold : 12288 Invalid Tags : 197744 Pr0 Tags : 98304 Pr1 Tags : 195472 num_pr0 : 12288
 SAE Count : 0
 Inter-Core Inteference in Data Store : 712288
Heartbeat CPU 7 instructions: 160000000 cycles: 64642674 heartbeat IPC: 2.39436 cumulative IPC: 2.47515 (Simulation time: 7 hr 30 min 48 sec) 
 Total Blocks : 196608 Invalid Blocks : 1136 Valid Blocks : 195472
 Total Tags : 491520 Threshold : 12288 Invalid Tags : 197744 Pr0 Tags : 98304 Pr1 Tags : 195472 num_pr0 : 12288
 SAE Count : 0
 Inter-Core Inteference in Data Store : 712288
Heartbeat CPU 2 instructions: 160000000 cycles: 64642831 heartbeat IPC: 2.39436 cumulative IPC: 2.47514 (Simulation time: 7 hr 30 min 48 sec) 
 Total Blocks : 196608 Invalid Blocks : 1136 Valid Blocks : 195472
 Total Tags : 491520 Threshold : 12288 Invalid Tags : 197744 Pr0 Tags : 98304 Pr1 Tags : 195472 num_pr0 : 12288
 SAE Count : 0
 Inter-Core Inteference in Data Store : 712288
Heartbeat CPU 6 instructions: 160000000 cycles: 64642835 heartbeat IPC: 2.39436 cumulative IPC: 2.47514 (Simulation time: 7 hr 30 min 48 sec) 
 Total Blocks : 196608 Invalid Blocks : 1136 Valid Blocks : 195472
 Total Tags : 491520 Threshold : 12288 Invalid Tags : 197744 Pr0 Tags : 98304 Pr1 Tags : 195472 num_pr0 : 12288
 SAE Count : 0
 Inter-Core Inteference in Data Store : 712288
Heartbeat CPU 5 instructions: 160000000 cycles: 64642838 heartbeat IPC: 2.39436 cumulative IPC: 2.47514 (Simulation time: 7 hr 30 min 48 sec) 
 Total Blocks : 196608 Invalid Blocks : 1136 Valid Blocks : 195472
 Total Tags : 491520 Threshold : 12288 Invalid Tags : 197744 Pr0 Tags : 98304 Pr1 Tags : 195472 num_pr0 : 12288
 SAE Count : 0
 Inter-Core Inteference in Data Store : 712288
Heartbeat CPU 0 instructions: 160000000 cycles: 64643147 heartbeat IPC: 2.39436 cumulative IPC: 2.47513 (Simulation time: 7 hr 30 min 48 sec) 
 Total Blocks : 196608 Invalid Blocks : 1136 Valid Blocks : 195472
 Total Tags : 491520 Threshold : 12288 Invalid Tags : 197744 Pr0 Tags : 98304 Pr1 Tags : 195472 num_pr0 : 12288
 SAE Count : 0
 Inter-Core Inteference in Data Store : 712288
Heartbeat CPU 3 instructions: 160000000 cycles: 64643851 heartbeat IPC: 2.39436 cumulative IPC: 2.4751 (Simulation time: 7 hr 30 min 48 sec) 
 Total Blocks : 196608 Invalid Blocks : 1136 Valid Blocks : 195472
 Total Tags : 491520 Threshold : 12288 Invalid Tags : 197744 Pr0 Tags : 98304 Pr1 Tags : 195472 num_pr0 : 12288
 SAE Count : 0
 Inter-Core Inteference in Data Store : 712288
Heartbeat CPU 4 instructions: 170000000 cycles: 68829480 heartbeat IPC: 2.38831 cumulative IPC: 2.46987 (Simulation time: 7 hr 50 min 3 sec) 
 Total Blocks : 196608 Invalid Blocks : 1134 Valid Blocks : 195474
 Total Tags : 491520 Threshold : 12288 Invalid Tags : 197742 Pr0 Tags : 98304 Pr1 Tags : 195474 num_pr0 : 12288
 SAE Count : 0
 Inter-Core Inteference in Data Store : 712716
Heartbeat CPU 1 instructions: 170000000 cycles: 68829636 heartbeat IPC: 2.38831 cumulative IPC: 2.46987 (Simulation time: 7 hr 50 min 4 sec) 
 Total Blocks : 196608 Invalid Blocks : 1134 Valid Blocks : 195474
 Total Tags : 491520 Threshold : 12288 Invalid Tags : 197742 Pr0 Tags : 98304 Pr1 Tags : 195474 num_pr0 : 12288
 SAE Count : 0
 Inter-Core Inteference in Data Store : 712716
Heartbeat CPU 7 instructions: 170000000 cycles: 68829739 heartbeat IPC: 2.38831 cumulative IPC: 2.46986 (Simulation time: 7 hr 50 min 5 sec) 
 Total Blocks : 196608 Invalid Blocks : 1134 Valid Blocks : 195474
 Total Tags : 491520 Threshold : 12288 Invalid Tags : 197742 Pr0 Tags : 98304 Pr1 Tags : 195474 num_pr0 : 12288
 SAE Count : 0
 Inter-Core Inteference in Data Store : 712716
Heartbeat CPU 2 instructions: 170000000 cycles: 68829896 heartbeat IPC: 2.38831 cumulative IPC: 2.46986 (Simulation time: 7 hr 50 min 5 sec) 
 Total Blocks : 196608 Invalid Blocks : 1134 Valid Blocks : 195474
 Total Tags : 491520 Threshold : 12288 Invalid Tags : 197742 Pr0 Tags : 98304 Pr1 Tags : 195474 num_pr0 : 12288
 SAE Count : 0
 Inter-Core Inteference in Data Store : 712716
Heartbeat CPU 6 instructions: 170000000 cycles: 68829900 heartbeat IPC: 2.38831 cumulative IPC: 2.46986 (Simulation time: 7 hr 50 min 5 sec) 
 Total Blocks : 196608 Invalid Blocks : 1134 Valid Blocks : 195474
 Total Tags : 491520 Threshold : 12288 Invalid Tags : 197742 Pr0 Tags : 98304 Pr1 Tags : 195474 num_pr0 : 12288
 SAE Count : 0
 Inter-Core Inteference in Data Store : 712716
Heartbeat CPU 5 instructions: 170000000 cycles: 68829903 heartbeat IPC: 2.38831 cumulative IPC: 2.46986 (Simulation time: 7 hr 50 min 5 sec) 
 Total Blocks : 196608 Invalid Blocks : 1134 Valid Blocks : 195474
 Total Tags : 491520 Threshold : 12288 Invalid Tags : 197742 Pr0 Tags : 98304 Pr1 Tags : 195474 num_pr0 : 12288
 SAE Count : 0
 Inter-Core Inteference in Data Store : 712716
Heartbeat CPU 0 instructions: 170000000 cycles: 68830212 heartbeat IPC: 2.38831 cumulative IPC: 2.46985 (Simulation time: 7 hr 50 min 5 sec) 
 Total Blocks : 196608 Invalid Blocks : 1134 Valid Blocks : 195474
 Total Tags : 491520 Threshold : 12288 Invalid Tags : 197742 Pr0 Tags : 98304 Pr1 Tags : 195474 num_pr0 : 12288
 SAE Count : 0
 Inter-Core Inteference in Data Store : 712716
Heartbeat CPU 3 instructions: 170000000 cycles: 68830916 heartbeat IPC: 2.38831 cumulative IPC: 2.46982 (Simulation time: 7 hr 50 min 5 sec) 
 Total Blocks : 196608 Invalid Blocks : 1134 Valid Blocks : 195474
 Total Tags : 491520 Threshold : 12288 Invalid Tags : 197742 Pr0 Tags : 98304 Pr1 Tags : 195474 num_pr0 : 12288
 SAE Count : 0
 Inter-Core Inteference in Data Store : 712716
Heartbeat CPU 4 instructions: 180000003 cycles: 72964720 heartbeat IPC: 2.41824 cumulative IPC: 2.46695 (Simulation time: 8 hr 9 min 13 sec) 
 Total Blocks : 196608 Invalid Blocks : 1132 Valid Blocks : 195476
 Total Tags : 491520 Threshold : 12288 Invalid Tags : 197740 Pr0 Tags : 98304 Pr1 Tags : 195476 num_pr0 : 12288
 SAE Count : 0
 Inter-Core Inteference in Data Store : 713101
Heartbeat CPU 1 instructions: 180000003 cycles: 72964878 heartbeat IPC: 2.41824 cumulative IPC: 2.46694 (Simulation time: 8 hr 9 min 14 sec) 
 Total Blocks : 196608 Invalid Blocks : 1132 Valid Blocks : 195476
 Total Tags : 491520 Threshold : 12288 Invalid Tags : 197740 Pr0 Tags : 98304 Pr1 Tags : 195476 num_pr0 : 12288
 SAE Count : 0
 Inter-Core Inteference in Data Store : 713101
Heartbeat CPU 7 instructions: 180000003 cycles: 72964981 heartbeat IPC: 2.41824 cumulative IPC: 2.46694 (Simulation time: 8 hr 9 min 14 sec) 
 Total Blocks : 196608 Invalid Blocks : 1132 Valid Blocks : 195476
 Total Tags : 491520 Threshold : 12288 Invalid Tags : 197740 Pr0 Tags : 98304 Pr1 Tags : 195476 num_pr0 : 12288
 SAE Count : 0
 Inter-Core Inteference in Data Store : 713101
Heartbeat CPU 2 instructions: 180000003 cycles: 72965136 heartbeat IPC: 2.41824 cumulative IPC: 2.46693 (Simulation time: 8 hr 9 min 14 sec) 
 Total Blocks : 196608 Invalid Blocks : 1132 Valid Blocks : 195476
 Total Tags : 491520 Threshold : 12288 Invalid Tags : 197740 Pr0 Tags : 98304 Pr1 Tags : 195476 num_pr0 : 12288
 SAE Count : 0
 Inter-Core Inteference in Data Store : 713101
Heartbeat CPU 6 instructions: 180000003 cycles: 72965140 heartbeat IPC: 2.41824 cumulative IPC: 2.46693 (Simulation time: 8 hr 9 min 14 sec) 
 Total Blocks : 196608 Invalid Blocks : 1132 Valid Blocks : 195476
 Total Tags : 491520 Threshold : 12288 Invalid Tags : 197740 Pr0 Tags : 98304 Pr1 Tags : 195476 num_pr0 : 12288
 SAE Count : 0
 Inter-Core Inteference in Data Store : 713101
Heartbeat CPU 5 instructions: 180000003 cycles: 72965144 heartbeat IPC: 2.41824 cumulative IPC: 2.46693 (Simulation time: 8 hr 9 min 14 sec) 
 Total Blocks : 196608 Invalid Blocks : 1132 Valid Blocks : 195476
 Total Tags : 491520 Threshold : 12288 Invalid Tags : 197740 Pr0 Tags : 98304 Pr1 Tags : 195476 num_pr0 : 12288
 SAE Count : 0
 Inter-Core Inteference in Data Store : 713101
Heartbeat CPU 0 instructions: 180000003 cycles: 72965454 heartbeat IPC: 2.41824 cumulative IPC: 2.46692 (Simulation time: 8 hr 9 min 15 sec) 
 Total Blocks : 196608 Invalid Blocks : 1132 Valid Blocks : 195476
 Total Tags : 491520 Threshold : 12288 Invalid Tags : 197740 Pr0 Tags : 98304 Pr1 Tags : 195476 num_pr0 : 12288
 SAE Count : 0
 Inter-Core Inteference in Data Store : 713101
Heartbeat CPU 3 instructions: 180000003 cycles: 72966158 heartbeat IPC: 2.41824 cumulative IPC: 2.4669 (Simulation time: 8 hr 9 min 15 sec) 
 Total Blocks : 196608 Invalid Blocks : 1132 Valid Blocks : 195476
 Total Tags : 491520 Threshold : 12288 Invalid Tags : 197740 Pr0 Tags : 98304 Pr1 Tags : 195476 num_pr0 : 12288
 SAE Count : 0
 Inter-Core Inteference in Data Store : 713101
Heartbeat CPU 4 instructions: 190000003 cycles: 77087954 heartbeat IPC: 2.42528 cumulative IPC: 2.46472 (Simulation time: 8 hr 27 min 56 sec) 
 Total Blocks : 196608 Invalid Blocks : 1131 Valid Blocks : 195477
 Total Tags : 491520 Threshold : 12288 Invalid Tags : 197741 Pr0 Tags : 98302 Pr1 Tags : 195477 num_pr0 : 12287
 SAE Count : 0
 Inter-Core Inteference in Data Store : 713514
Heartbeat CPU 1 instructions: 190000003 cycles: 77088112 heartbeat IPC: 2.42528 cumulative IPC: 2.46471 (Simulation time: 8 hr 27 min 57 sec) 
 Total Blocks : 196608 Invalid Blocks : 1131 Valid Blocks : 195477
 Total Tags : 491520 Threshold : 12288 Invalid Tags : 197741 Pr0 Tags : 98302 Pr1 Tags : 195477 num_pr0 : 12287
 SAE Count : 0
 Inter-Core Inteference in Data Store : 713514
Heartbeat CPU 7 instructions: 190000003 cycles: 77088215 heartbeat IPC: 2.42528 cumulative IPC: 2.46471 (Simulation time: 8 hr 27 min 57 sec) 
 Total Blocks : 196608 Invalid Blocks : 1131 Valid Blocks : 195477
 Total Tags : 491520 Threshold : 12288 Invalid Tags : 197741 Pr0 Tags : 98302 Pr1 Tags : 195477 num_pr0 : 12287
 SAE Count : 0
 Inter-Core Inteference in Data Store : 713514
Heartbeat CPU 2 instructions: 190000003 cycles: 77088370 heartbeat IPC: 2.42528 cumulative IPC: 2.4647 (Simulation time: 8 hr 27 min 57 sec) 
 Total Blocks : 196608 Invalid Blocks : 1131 Valid Blocks : 195477
 Total Tags : 491520 Threshold : 12288 Invalid Tags : 197741 Pr0 Tags : 98302 Pr1 Tags : 195477 num_pr0 : 12287
 SAE Count : 0
 Inter-Core Inteference in Data Store : 713514
Heartbeat CPU 6 instructions: 190000003 cycles: 77088374 heartbeat IPC: 2.42528 cumulative IPC: 2.4647 (Simulation time: 8 hr 27 min 57 sec) 
 Total Blocks : 196608 Invalid Blocks : 1131 Valid Blocks : 195477
 Total Tags : 491520 Threshold : 12288 Invalid Tags : 197741 Pr0 Tags : 98302 Pr1 Tags : 195477 num_pr0 : 12287
 SAE Count : 0
 Inter-Core Inteference in Data Store : 713514
Heartbeat CPU 5 instructions: 190000003 cycles: 77088378 heartbeat IPC: 2.42528 cumulative IPC: 2.4647 (Simulation time: 8 hr 27 min 57 sec) 
 Total Blocks : 196608 Invalid Blocks : 1131 Valid Blocks : 195477
 Total Tags : 491520 Threshold : 12288 Invalid Tags : 197741 Pr0 Tags : 98302 Pr1 Tags : 195477 num_pr0 : 12287
 SAE Count : 0
 Inter-Core Inteference in Data Store : 713514
Heartbeat CPU 0 instructions: 190000003 cycles: 77088688 heartbeat IPC: 2.42528 cumulative IPC: 2.46469 (Simulation time: 8 hr 27 min 57 sec) 
 Total Blocks : 196608 Invalid Blocks : 1131 Valid Blocks : 195477
 Total Tags : 491520 Threshold : 12288 Invalid Tags : 197741 Pr0 Tags : 98302 Pr1 Tags : 195477 num_pr0 : 12287
 SAE Count : 0
 Inter-Core Inteference in Data Store : 713514
Heartbeat CPU 3 instructions: 190000003 cycles: 77089392 heartbeat IPC: 2.42528 cumulative IPC: 2.46467 (Simulation time: 8 hr 27 min 58 sec) 
 Total Blocks : 196608 Invalid Blocks : 1131 Valid Blocks : 195477
 Total Tags : 491520 Threshold : 12288 Invalid Tags : 197741 Pr0 Tags : 98302 Pr1 Tags : 195477 num_pr0 : 12287
 SAE Count : 0
 Inter-Core Inteference in Data Store : 713514
Heartbeat CPU 4 instructions: 200000001 cycles: 81231828 heartbeat IPC: 2.4132 cumulative IPC: 2.46209 (Simulation time: 8 hr 47 min 41 sec) 
 Total Blocks : 196608 Invalid Blocks : 1125 Valid Blocks : 195483
 Total Tags : 491520 Threshold : 12288 Invalid Tags : 197733 Pr0 Tags : 98304 Pr1 Tags : 195483 num_pr0 : 12288
 SAE Count : 0
 Inter-Core Inteference in Data Store : 714526
Heartbeat CPU 1 instructions: 200000001 cycles: 81231999 heartbeat IPC: 2.41319 cumulative IPC: 2.46208 (Simulation time: 8 hr 47 min 42 sec) 
 Total Blocks : 196608 Invalid Blocks : 1125 Valid Blocks : 195483
 Total Tags : 491520 Threshold : 12288 Invalid Tags : 197733 Pr0 Tags : 98304 Pr1 Tags : 195483 num_pr0 : 12288
 SAE Count : 0
 Inter-Core Inteference in Data Store : 714526
Heartbeat CPU 7 instructions: 200000001 cycles: 81232095 heartbeat IPC: 2.4132 cumulative IPC: 2.46208 (Simulation time: 8 hr 47 min 42 sec) 
 Total Blocks : 196608 Invalid Blocks : 1125 Valid Blocks : 195483
 Total Tags : 491520 Threshold : 12288 Invalid Tags : 197733 Pr0 Tags : 98304 Pr1 Tags : 195483 num_pr0 : 12288
 SAE Count : 0
 Inter-Core Inteference in Data Store : 714526
Heartbeat CPU 2 instructions: 200000001 cycles: 81232254 heartbeat IPC: 2.41319 cumulative IPC: 2.46208 (Simulation time: 8 hr 47 min 42 sec) 
 Total Blocks : 196608 Invalid Blocks : 1125 Valid Blocks : 195483
 Total Tags : 491520 Threshold : 12288 Invalid Tags : 197733 Pr0 Tags : 98304 Pr1 Tags : 195483 num_pr0 : 12288
 SAE Count : 0
 Inter-Core Inteference in Data Store : 714526
Heartbeat CPU 6 instructions: 200000001 cycles: 81232255 heartbeat IPC: 2.4132 cumulative IPC: 2.46208 (Simulation time: 8 hr 47 min 42 sec) 
 Total Blocks : 196608 Invalid Blocks : 1125 Valid Blocks : 195483
 Total Tags : 491520 Threshold : 12288 Invalid Tags : 197733 Pr0 Tags : 98304 Pr1 Tags : 195483 num_pr0 : 12288
 SAE Count : 0
 Inter-Core Inteference in Data Store : 714526
Heartbeat CPU 5 instructions: 200000001 cycles: 81232258 heartbeat IPC: 2.4132 cumulative IPC: 2.46208 (Simulation time: 8 hr 47 min 43 sec) 
 Total Blocks : 196608 Invalid Blocks : 1125 Valid Blocks : 195483
 Total Tags : 491520 Threshold : 12288 Invalid Tags : 197733 Pr0 Tags : 98304 Pr1 Tags : 195483 num_pr0 : 12288
 SAE Count : 0
 Inter-Core Inteference in Data Store : 714526
Heartbeat CPU 0 instructions: 200000001 cycles: 81232563 heartbeat IPC: 2.4132 cumulative IPC: 2.46207 (Simulation time: 8 hr 47 min 43 sec) 
 Total Blocks : 196608 Invalid Blocks : 1125 Valid Blocks : 195483
 Total Tags : 491520 Threshold : 12288 Invalid Tags : 197733 Pr0 Tags : 98304 Pr1 Tags : 195483 num_pr0 : 12288
 SAE Count : 0
 Inter-Core Inteference in Data Store : 714526
Heartbeat CPU 3 instructions: 200000001 cycles: 81233273 heartbeat IPC: 2.4132 cumulative IPC: 2.46205 (Simulation time: 8 hr 47 min 43 sec) 
 Total Blocks : 196608 Invalid Blocks : 1125 Valid Blocks : 195483
 Total Tags : 491520 Threshold : 12288 Invalid Tags : 197733 Pr0 Tags : 98304 Pr1 Tags : 195483 num_pr0 : 12288
 SAE Count : 0
 Inter-Core Inteference in Data Store : 714526

Warmup complete CPU 0 instructions: 200001424 cycles: 81233273 (Simulation time: 8 hr 47 min 43 sec) 
Warmup complete CPU 1 instructions: 200002770 cycles: 81233273 (Simulation time: 8 hr 47 min 43 sec) 
Warmup complete CPU 2 instructions: 200002162 cycles: 81233273 (Simulation time: 8 hr 47 min 43 sec) 
Warmup complete CPU 3 instructions: 200000001 cycles: 81233273 (Simulation time: 8 hr 47 min 43 sec) 
Warmup complete CPU 4 instructions: 200003232 cycles: 81233272 (Simulation time: 8 hr 47 min 43 sec) 
Warmup complete CPU 5 instructions: 200002142 cycles: 81233272 (Simulation time: 8 hr 47 min 43 sec) 
Warmup complete CPU 6 instructions: 200002154 cycles: 81233272 (Simulation time: 8 hr 47 min 43 sec) 
Warmup complete CPU 7 instructions: 200002553 cycles: 81233272 (Simulation time: 8 hr 47 min 43 sec) 

Heartbeat CPU 6 instructions: 210000003 cycles: 89291411 heartbeat IPC: 1.24082 cumulative IPC: 1.24071 (Simulation time: 9 hr 10 min 2 sec) 
 Total Blocks : 196608 Invalid Blocks : 1111 Valid Blocks : 195497
 Total Tags : 491520 Threshold : 12288 Invalid Tags : 197719 Pr0 Tags : 98304 Pr1 Tags : 195497 num_pr0 : 12288
 SAE Count : 0
 Inter-Core Inteference in Data Store : 2013
Heartbeat CPU 5 instructions: 210000003 cycles: 89291462 heartbeat IPC: 1.24082 cumulative IPC: 1.24071 (Simulation time: 9 hr 10 min 3 sec) 
 Total Blocks : 196608 Invalid Blocks : 1111 Valid Blocks : 195497
 Total Tags : 491520 Threshold : 12288 Invalid Tags : 197719 Pr0 Tags : 98304 Pr1 Tags : 195497 num_pr0 : 12288
 SAE Count : 0
 Inter-Core Inteference in Data Store : 2013
Heartbeat CPU 2 instructions: 210000003 cycles: 89291513 heartbeat IPC: 1.24081 cumulative IPC: 1.2407 (Simulation time: 9 hr 10 min 3 sec) 
 Total Blocks : 196608 Invalid Blocks : 1111 Valid Blocks : 195497
 Total Tags : 491520 Threshold : 12288 Invalid Tags : 197719 Pr0 Tags : 98304 Pr1 Tags : 195497 num_pr0 : 12288
 SAE Count : 0
 Inter-Core Inteference in Data Store : 2013
Heartbeat CPU 0 instructions: 210000003 cycles: 89291564 heartbeat IPC: 1.24085 cumulative IPC: 1.24078 (Simulation time: 9 hr 10 min 3 sec) 
 Total Blocks : 196608 Invalid Blocks : 1111 Valid Blocks : 195497
 Total Tags : 491520 Threshold : 12288 Invalid Tags : 197719 Pr0 Tags : 98304 Pr1 Tags : 195497 num_pr0 : 12288
 SAE Count : 0
 Inter-Core Inteference in Data Store : 2013
Heartbeat CPU 7 instructions: 210000003 cycles: 89291645 heartbeat IPC: 1.24076 cumulative IPC: 1.24063 (Simulation time: 9 hr 10 min 3 sec) 
 Total Blocks : 196608 Invalid Blocks : 1111 Valid Blocks : 195497
 Total Tags : 491520 Threshold : 12288 Invalid Tags : 197719 Pr0 Tags : 98304 Pr1 Tags : 195497 num_pr0 : 12288
 SAE Count : 0
 Inter-Core Inteference in Data Store : 2013
Heartbeat CPU 4 instructions: 210000003 cycles: 89291728 heartbeat IPC: 1.24071 cumulative IPC: 1.24053 (Simulation time: 9 hr 10 min 3 sec) 
 Total Blocks : 196608 Invalid Blocks : 1111 Valid Blocks : 195497
 Total Tags : 491520 Threshold : 12288 Invalid Tags : 197719 Pr0 Tags : 98304 Pr1 Tags : 195497 num_pr0 : 12288
 SAE Count : 0
 Inter-Core Inteference in Data Store : 2013
Heartbeat CPU 3 instructions: 210000003 cycles: 89292169 heartbeat IPC: 1.24086 cumulative IPC: 1.24086 (Simulation time: 9 hr 10 min 3 sec) 
 Total Blocks : 196608 Invalid Blocks : 1111 Valid Blocks : 195497
 Total Tags : 491520 Threshold : 12288 Invalid Tags : 197719 Pr0 Tags : 98304 Pr1 Tags : 195497 num_pr0 : 12288
 SAE Count : 0
 Inter-Core Inteference in Data Store : 2013
Heartbeat CPU 1 instructions: 210000003 cycles: 89292220 heartbeat IPC: 1.24066 cumulative IPC: 1.24051 (Simulation time: 9 hr 10 min 3 sec) 
 Total Blocks : 196608 Invalid Blocks : 1111 Valid Blocks : 195497
 Total Tags : 491520 Threshold : 12288 Invalid Tags : 197719 Pr0 Tags : 98304 Pr1 Tags : 195497 num_pr0 : 12288
 SAE Count : 0
 Inter-Core Inteference in Data Store : 2013
Heartbeat CPU 3 instructions: 220000000 cycles: 97382634 heartbeat IPC: 1.23602 cumulative IPC: 1.23844 (Simulation time: 9 hr 31 min 37 sec) 
 Total Blocks : 196608 Invalid Blocks : 1102 Valid Blocks : 195506
 Total Tags : 491520 Threshold : 12288 Invalid Tags : 197710 Pr0 Tags : 98304 Pr1 Tags : 195506 num_pr0 : 12288
 SAE Count : 0
 Inter-Core Inteference in Data Store : 4120
Heartbeat CPU 0 instructions: 220000000 cycles: 97382685 heartbeat IPC: 1.23592 cumulative IPC: 1.23835 (Simulation time: 9 hr 31 min 38 sec) 
 Total Blocks : 196608 Invalid Blocks : 1102 Valid Blocks : 195506
 Total Tags : 491520 Threshold : 12288 Invalid Tags : 197710 Pr0 Tags : 98304 Pr1 Tags : 195506 num_pr0 : 12288
 SAE Count : 0
 Inter-Core Inteference in Data Store : 4120
Heartbeat CPU 1 instructions: 220000000 cycles: 97382736 heartbeat IPC: 1.23601 cumulative IPC: 1.23826 (Simulation time: 9 hr 31 min 39 sec) 
 Total Blocks : 196608 Invalid Blocks : 1102 Valid Blocks : 195506
 Total Tags : 491520 Threshold : 12288 Invalid Tags : 197710 Pr0 Tags : 98304 Pr1 Tags : 195506 num_pr0 : 12288
 SAE Count : 0
 Inter-Core Inteference in Data Store : 4120
Heartbeat CPU 2 instructions: 220000000 cycles: 97382887 heartbeat IPC: 1.23588 cumulative IPC: 1.23829 (Simulation time: 9 hr 31 min 39 sec) 
 Total Blocks : 196608 Invalid Blocks : 1102 Valid Blocks : 195506
 Total Tags : 491520 Threshold : 12288 Invalid Tags : 197710 Pr0 Tags : 98304 Pr1 Tags : 195506 num_pr0 : 12288
 SAE Count : 0
 Inter-Core Inteference in Data Store : 4120
Heartbeat CPU 5 instructions: 220000000 cycles: 97382938 heartbeat IPC: 1.23587 cumulative IPC: 1.23828 (Simulation time: 9 hr 31 min 39 sec) 
 Total Blocks : 196608 Invalid Blocks : 1102 Valid Blocks : 195506
 Total Tags : 491520 Threshold : 12288 Invalid Tags : 197710 Pr0 Tags : 98304 Pr1 Tags : 195506 num_pr0 : 12288
 SAE Count : 0
 Inter-Core Inteference in Data Store : 4120
Heartbeat CPU 7 instructions: 220000000 cycles: 97382989 heartbeat IPC: 1.23589 cumulative IPC: 1.23825 (Simulation time: 9 hr 31 min 39 sec) 
 Total Blocks : 196608 Invalid Blocks : 1102 Valid Blocks : 195506
 Total Tags : 491520 Threshold : 12288 Invalid Tags : 197710 Pr0 Tags : 98304 Pr1 Tags : 195506 num_pr0 : 12288
 SAE Count : 0
 Inter-Core Inteference in Data Store : 4120
Heartbeat CPU 6 instructions: 220000000 cycles: 97383040 heartbeat IPC: 1.23584 cumulative IPC: 1.23827 (Simulation time: 9 hr 31 min 39 sec) 
 Total Blocks : 196608 Invalid Blocks : 1102 Valid Blocks : 195506
 Total Tags : 491520 Threshold : 12288 Invalid Tags : 197710 Pr0 Tags : 98304 Pr1 Tags : 195506 num_pr0 : 12288
 SAE Count : 0
 Inter-Core Inteference in Data Store : 4120
Heartbeat CPU 4 instructions: 220000000 cycles: 97383191 heartbeat IPC: 1.23587 cumulative IPC: 1.2382 (Simulation time: 9 hr 31 min 39 sec) 
 Total Blocks : 196608 Invalid Blocks : 1102 Valid Blocks : 195506
 Total Tags : 491520 Threshold : 12288 Invalid Tags : 197710 Pr0 Tags : 98304 Pr1 Tags : 195506 num_pr0 : 12288
 SAE Count : 0
 Inter-Core Inteference in Data Store : 4120
Heartbeat CPU 6 instructions: 230000000 cycles: 105469343 heartbeat IPC: 1.23666 cumulative IPC: 1.23774 (Simulation time: 9 hr 53 min 0 sec) 
 Total Blocks : 196608 Invalid Blocks : 1090 Valid Blocks : 195518
 Total Tags : 491520 Threshold : 12288 Invalid Tags : 197698 Pr0 Tags : 98304 Pr1 Tags : 195518 num_pr0 : 12288
 SAE Count : 0
 Inter-Core Inteference in Data Store : 6070
Heartbeat CPU 0 instructions: 230000000 cycles: 105469394 heartbeat IPC: 1.2366 cumulative IPC: 1.23776 (Simulation time: 9 hr 53 min 1 sec) 
 Total Blocks : 196608 Invalid Blocks : 1090 Valid Blocks : 195518
 Total Tags : 491520 Threshold : 12288 Invalid Tags : 197698 Pr0 Tags : 98304 Pr1 Tags : 195518 num_pr0 : 12288
 SAE Count : 0
 Inter-Core Inteference in Data Store : 6070
Heartbeat CPU 2 instructions: 230000000 cycles: 105469545 heartbeat IPC: 1.2366 cumulative IPC: 1.23772 (Simulation time: 9 hr 53 min 1 sec) 
 Total Blocks : 196608 Invalid Blocks : 1090 Valid Blocks : 195518
 Total Tags : 491520 Threshold : 12288 Invalid Tags : 197698 Pr0 Tags : 98304 Pr1 Tags : 195518 num_pr0 : 12288
 SAE Count : 0
 Inter-Core Inteference in Data Store : 6070
Heartbeat CPU 1 instructions: 230000000 cycles: 105469606 heartbeat IPC: 1.23657 cumulative IPC: 1.2377 (Simulation time: 9 hr 53 min 1 sec) 
 Total Blocks : 196608 Invalid Blocks : 1090 Valid Blocks : 195518
 Total Tags : 491520 Threshold : 12288 Invalid Tags : 197698 Pr0 Tags : 98304 Pr1 Tags : 195518 num_pr0 : 12288
 SAE Count : 0
 Inter-Core Inteference in Data Store : 6070
Heartbeat CPU 7 instructions: 230000000 cycles: 105469657 heartbeat IPC: 1.2366 cumulative IPC: 1.2377 (Simulation time: 9 hr 53 min 1 sec) 
 Total Blocks : 196608 Invalid Blocks : 1090 Valid Blocks : 195518
 Total Tags : 491520 Threshold : 12288 Invalid Tags : 197698 Pr0 Tags : 98304 Pr1 Tags : 195518 num_pr0 : 12288
 SAE Count : 0
 Inter-Core Inteference in Data Store : 6070
Heartbeat CPU 4 instructions: 230000000 cycles: 105469708 heartbeat IPC: 1.23663 cumulative IPC: 1.23767 (Simulation time: 9 hr 53 min 2 sec) 
 Total Blocks : 196608 Invalid Blocks : 1090 Valid Blocks : 195518
 Total Tags : 491520 Threshold : 12288 Invalid Tags : 197698 Pr0 Tags : 98304 Pr1 Tags : 195518 num_pr0 : 12288
 SAE Count : 0
 Inter-Core Inteference in Data Store : 6070
Heartbeat CPU 5 instructions: 230000000 cycles: 105469849 heartbeat IPC: 1.23657 cumulative IPC: 1.23771 (Simulation time: 9 hr 53 min 2 sec) 
 Total Blocks : 196608 Invalid Blocks : 1090 Valid Blocks : 195518
 Total Tags : 491520 Threshold : 12288 Invalid Tags : 197698 Pr0 Tags : 98304 Pr1 Tags : 195518 num_pr0 : 12288
 SAE Count : 0
 Inter-Core Inteference in Data Store : 6070
Heartbeat CPU 3 instructions: 230000000 cycles: 105469910 heartbeat IPC: 1.23651 cumulative IPC: 1.2378 (Simulation time: 9 hr 53 min 2 sec) 
 Total Blocks : 196608 Invalid Blocks : 1090 Valid Blocks : 195518
 Total Tags : 491520 Threshold : 12288 Invalid Tags : 197698 Pr0 Tags : 98304 Pr1 Tags : 195518 num_pr0 : 12288
 SAE Count : 0
 Inter-Core Inteference in Data Store : 6070
Heartbeat CPU 7 instructions: 240000000 cycles: 113531683 heartbeat IPC: 1.24038 cumulative IPC: 1.23837 (Simulation time: 10 hr 14 min 24 sec) 
 Total Blocks : 196608 Invalid Blocks : 1083 Valid Blocks : 195525
 Total Tags : 491520 Threshold : 12288 Invalid Tags : 197691 Pr0 Tags : 98304 Pr1 Tags : 195525 num_pr0 : 12288
 SAE Count : 0
 Inter-Core Inteference in Data Store : 7915
Heartbeat CPU 3 instructions: 240000000 cycles: 113531888 heartbeat IPC: 1.24039 cumulative IPC: 1.23844 (Simulation time: 10 hr 14 min 25 sec) 
 Total Blocks : 196608 Invalid Blocks : 1083 Valid Blocks : 195525
 Total Tags : 491520 Threshold : 12288 Invalid Tags : 197691 Pr0 Tags : 98304 Pr1 Tags : 195525 num_pr0 : 12288
 SAE Count : 0
 Inter-Core Inteference in Data Store : 7915
Heartbeat CPU 4 instructions: 240000000 cycles: 113531939 heartbeat IPC: 1.24035 cumulative IPC: 1.23834 (Simulation time: 10 hr 14 min 25 sec) 
 Total Blocks : 196608 Invalid Blocks : 1083 Valid Blocks : 195525
 Total Tags : 491520 Threshold : 12288 Invalid Tags : 197691 Pr0 Tags : 98304 Pr1 Tags : 195525 num_pr0 : 12288
 SAE Count : 0
 Inter-Core Inteference in Data Store : 7915
Heartbeat CPU 5 instructions: 240000000 cycles: 113531990 heartbeat IPC: 1.24037 cumulative IPC: 1.23837 (Simulation time: 10 hr 14 min 25 sec) 
 Total Blocks : 196608 Invalid Blocks : 1083 Valid Blocks : 195525
 Total Tags : 491520 Threshold : 12288 Invalid Tags : 197691 Pr0 Tags : 98304 Pr1 Tags : 195525 num_pr0 : 12288
 SAE Count : 0
 Inter-Core Inteference in Data Store : 7915
Heartbeat CPU 1 instructions: 240000000 cycles: 113532041 heartbeat IPC: 1.24032 cumulative IPC: 1.23835 (Simulation time: 10 hr 14 min 25 sec) 
 Total Blocks : 196608 Invalid Blocks : 1083 Valid Blocks : 195525
 Total Tags : 491520 Threshold : 12288 Invalid Tags : 197691 Pr0 Tags : 98304 Pr1 Tags : 195525 num_pr0 : 12288
 SAE Count : 0
 Inter-Core Inteference in Data Store : 7915
Heartbeat CPU 2 instructions: 240000000 cycles: 113532098 heartbeat IPC: 1.2403 cumulative IPC: 1.23837 (Simulation time: 10 hr 14 min 25 sec) 
 Total Blocks : 196608 Invalid Blocks : 1083 Valid Blocks : 195525
 Total Tags : 491520 Threshold : 12288 Invalid Tags : 197691 Pr0 Tags : 98304 Pr1 Tags : 195525 num_pr0 : 12288
 SAE Count : 0
 Inter-Core Inteference in Data Store : 7915
Heartbeat CPU 6 instructions: 240000000 cycles: 113532149 heartbeat IPC: 1.24026 cumulative IPC: 1.23837 (Simulation time: 10 hr 14 min 25 sec) 
 Total Blocks : 196608 Invalid Blocks : 1083 Valid Blocks : 195525
 Total Tags : 491520 Threshold : 12288 Invalid Tags : 197691 Pr0 Tags : 98304 Pr1 Tags : 195525 num_pr0 : 12288
 SAE Count : 0
 Inter-Core Inteference in Data Store : 7915
Heartbeat CPU 0 instructions: 240000000 cycles: 113532200 heartbeat IPC: 1.24026 cumulative IPC: 1.23839 (Simulation time: 10 hr 14 min 26 sec) 
 Total Blocks : 196608 Invalid Blocks : 1083 Valid Blocks : 195525
 Total Tags : 491520 Threshold : 12288 Invalid Tags : 197691 Pr0 Tags : 98304 Pr1 Tags : 195525 num_pr0 : 12288
 SAE Count : 0
 Inter-Core Inteference in Data Store : 7915
Heartbeat CPU 7 instructions: 250000003 cycles: 121608235 heartbeat IPC: 1.23815 cumulative IPC: 1.23833 (Simulation time: 10 hr 36 min 14 sec) 
 Total Blocks : 196608 Invalid Blocks : 1076 Valid Blocks : 195532
 Total Tags : 491520 Threshold : 12288 Invalid Tags : 197684 Pr0 Tags : 98304 Pr1 Tags : 195532 num_pr0 : 12288
 SAE Count : 0
 Inter-Core Inteference in Data Store : 9493
Heartbeat CPU 1 instructions: 250000003 cycles: 121608286 heartbeat IPC: 1.2382 cumulative IPC: 1.23832 (Simulation time: 10 hr 36 min 15 sec) 
 Total Blocks : 196608 Invalid Blocks : 1076 Valid Blocks : 195532
 Total Tags : 491520 Threshold : 12288 Invalid Tags : 197684 Pr0 Tags : 98304 Pr1 Tags : 195532 num_pr0 : 12288
 SAE Count : 0
 Inter-Core Inteference in Data Store : 9493
Heartbeat CPU 6 instructions: 250000003 cycles: 121608337 heartbeat IPC: 1.23821 cumulative IPC: 1.23833 (Simulation time: 10 hr 36 min 15 sec) 
 Total Blocks : 196608 Invalid Blocks : 1076 Valid Blocks : 195532
 Total Tags : 491520 Threshold : 12288 Invalid Tags : 197684 Pr0 Tags : 98304 Pr1 Tags : 195532 num_pr0 : 12288
 SAE Count : 0
 Inter-Core Inteference in Data Store : 9493
Heartbeat CPU 0 instructions: 250000003 cycles: 121608388 heartbeat IPC: 1.23821 cumulative IPC: 1.23835 (Simulation time: 10 hr 36 min 15 sec) 
 Total Blocks : 196608 Invalid Blocks : 1076 Valid Blocks : 195532
 Total Tags : 491520 Threshold : 12288 Invalid Tags : 197684 Pr0 Tags : 98304 Pr1 Tags : 195532 num_pr0 : 12288
 SAE Count : 0
 Inter-Core Inteference in Data Store : 9493
Heartbeat CPU 3 instructions: 250000003 cycles: 121608578 heartbeat IPC: 1.23813 cumulative IPC: 1.23838 (Simulation time: 10 hr 36 min 15 sec) 
 Total Blocks : 196608 Invalid Blocks : 1076 Valid Blocks : 195532
 Total Tags : 491520 Threshold : 12288 Invalid Tags : 197684 Pr0 Tags : 98304 Pr1 Tags : 195532 num_pr0 : 12288
 SAE Count : 0
 Inter-Core Inteference in Data Store : 9493
Heartbeat CPU 2 instructions: 250000003 cycles: 121608629 heartbeat IPC: 1.23816 cumulative IPC: 1.23833 (Simulation time: 10 hr 36 min 15 sec) 
 Total Blocks : 196608 Invalid Blocks : 1076 Valid Blocks : 195532
 Total Tags : 491520 Threshold : 12288 Invalid Tags : 197684 Pr0 Tags : 98304 Pr1 Tags : 195532 num_pr0 : 12288
 SAE Count : 0
 Inter-Core Inteference in Data Store : 9493
Heartbeat CPU 4 instructions: 250000003 cycles: 121608680 heartbeat IPC: 1.23812 cumulative IPC: 1.2383 (Simulation time: 10 hr 36 min 15 sec) 
[...]
LLC3 AVERAGE MISS LATENCY: 163.889 cycles

LLC3 Set Associative Eviction Count : 0
LLC3 Priority 0 entries : 12288
LLC3 Inter-Core Interference : 4448
LLC4 TOTAL     ACCESS:  5400  HIT:   136  MISS:  5264  HIT %: 2.51852  MISS %: 97.4815  AVERAGE MISS PENALTY: 159.579
LLC4 LOAD      ACCESS:   738  HIT:    30  MISS:   708  HIT %: 4.06504  MISS %: 95.935  AVERAGE MISS PENALTY: 157.48
LLC4 RFO       ACCESS:   156  HIT:     2  MISS:   154  HIT %: 1.28205  MISS %: 98.7179  AVERAGE MISS PENALTY: 142.208
LLC4 PREFETCH  ACCESS:  4312  HIT:    90  MISS:  4222  HIT %: 2.0872  MISS %: 97.9128  AVERAGE MISS PENALTY: 167.368
LLC4 WRITEBACK ACCESS:   194  HIT:    14  MISS:   180  HIT %: 7.21649  MISS %: 92.7835  AVERAGE MISS PENALTY: 0
LLC4 PREFETCH  REQUESTED:     0  ISSUED:     0  USEFUL:    52  USELESS:  1264
 USEFUL LOAD PREFETCHES:         52 PREFETCH ISSUED TO LOWER LEVEL:      40733  ACCURACY: 0.127661
 TIMELY PREFETCHES:         52 LATE PREFETCHES: 0 DROPPED PREFETCHES: 0
LLC4 AVERAGE MISS LATENCY: 159.579 cycles

LLC4 Set Associative Eviction Count : 0
LLC4 Priority 0 entries : 12288
LLC4 Inter-Core Interference : 4565
LLC5 TOTAL     ACCESS:  5405  HIT:   132  MISS:  5273  HIT %: 2.44218  MISS %: 97.5578  AVERAGE MISS PENALTY: 163.881
LLC5 LOAD      ACCESS:   938  HIT:    34  MISS:   904  HIT %: 3.62473  MISS %: 96.3753  AVERAGE MISS PENALTY: 195.135
LLC5 RFO       ACCESS:   160  HIT:     3  MISS:   157  HIT %: 1.875  MISS %: 98.125  AVERAGE MISS PENALTY: 144.318
LLC5 PREFETCH  ACCESS:  4115  HIT:    83  MISS:  4032  HIT %: 2.01701  MISS %: 97.983  AVERAGE MISS PENALTY: 164.951
LLC5 WRITEBACK ACCESS:   192  HIT:    12  MISS:   180  HIT %:  6.25  MISS %: 93.75  AVERAGE MISS PENALTY: 0
LLC5 PREFETCH  REQUESTED:     0  ISSUED:     0  USEFUL:    43  USELESS:  1346
 USEFUL LOAD PREFETCHES:         43 PREFETCH ISSUED TO LOWER LEVEL:      35235  ACCURACY: 0.122038
 TIMELY PREFETCHES:         43 LATE PREFETCHES: 0 DROPPED PREFETCHES: 0
LLC5 AVERAGE MISS LATENCY: 163.881 cycles

LLC5 Set Associative Eviction Count : 0
LLC5 Priority 0 entries : 12288
LLC5 Inter-Core Interference : 4583
LLC6 TOTAL     ACCESS:  5383  HIT:   134  MISS:  5249  HIT %: 2.48932  MISS %: 97.5107  AVERAGE MISS PENALTY: 162.88
LLC6 LOAD      ACCESS:   938  HIT:    31  MISS:   907  HIT %: 3.3049  MISS %: 96.6951  AVERAGE MISS PENALTY: 163.479
LLC6 RFO       ACCESS:   162  HIT:     4  MISS:   158  HIT %: 2.46914  MISS %: 97.5309  AVERAGE MISS PENALTY: 138.905
LLC6 PREFETCH  ACCESS:  4092  HIT:    85  MISS:  4007  HIT %: 2.07722  MISS %: 97.9228  AVERAGE MISS PENALTY: 170.884
LLC6 WRITEBACK ACCESS:   191  HIT:    14  MISS:   177  HIT %: 7.32984  MISS %: 92.6702  AVERAGE MISS PENALTY: 0
LLC6 PREFETCH  REQUESTED:     0  ISSUED:     0  USEFUL:    50  USELESS:  1361
 USEFUL LOAD PREFETCHES:         50 PREFETCH ISSUED TO LOWER LEVEL:      41627  ACCURACY: 0.120114
 TIMELY PREFETCHES:         50 LATE PREFETCHES: 0 DROPPED PREFETCHES: 0
LLC6 AVERAGE MISS LATENCY: 162.88 cycles

LLC6 Set Associative Eviction Count : 0
LLC6 Priority 0 entries : 12288
LLC6 Inter-Core Interference : 4544
LLC7 TOTAL     ACCESS:  5398  HIT:   129  MISS:  5269  HIT %: 2.38977  MISS %: 97.6102  AVERAGE MISS PENALTY: 167.277
LLC7 LOAD      ACCESS:  1102  HIT:    41  MISS:  1061  HIT %: 3.72051  MISS %: 96.2795  AVERAGE MISS PENALTY: 158.002
LLC7 RFO       ACCESS:   161  HIT:     2  MISS:   159  HIT %: 1.24224  MISS %: 98.7578  AVERAGE MISS PENALTY: 157.151
LLC7 PREFETCH  ACCESS:  3944  HIT:    74  MISS:  3870  HIT %: 1.87627  MISS %: 98.1237  AVERAGE MISS PENALTY: 177.973
LLC7 WRITEBACK ACCESS:   191  HIT:    12  MISS:   179  HIT %: 6.28272  MISS %: 93.7173  AVERAGE MISS PENALTY: 0
LLC7 PREFETCH  REQUESTED:     0  ISSUED:     0  USEFUL:    58  USELESS:  1284
 USEFUL LOAD PREFETCHES:         58 PREFETCH ISSUED TO LOWER LEVEL:      34542  ACCURACY: 0.167912
 TIMELY PREFETCHES:         58 LATE PREFETCHES: 0 DROPPED PREFETCHES: 0
LLC7 AVERAGE MISS LATENCY: 167.277 cycles

LLC7 Set Associative Eviction Count : 0
LLC7 Priority 0 entries : 12288
LLC7 Inter-Core Interference : 4462
ROI Average ROB Stall Cycles:	4.82284
ROI Total ROB Stalls Cycles:	111779333
ROI TOTAL ROB counter      :	23177055
ROI Average Load ROB Stall Cycles:	5.90603
ROI Total Load ROB Stalls Cycle  :	20417692
ROI Total Load ROB stalls Counter:	3457091
Major fault: 0 Minor fault: 4882

CPU 7 cumulative IPC: 1.25898 instructions: 200000000 cycles: 158858555
ITLB TOTAL     ACCESS: 22283327  HIT: 22283327  MISS:     0  HIT %:   100  MISS %:     0  AVERAGE MISS PENALTY: 0
ITLB LOAD      ACCESS: 22283327  HIT: 22283327  MISS:     0  HIT %:   100  MISS %:     0  AVERAGE MISS PENALTY: 0
ITLB RFO       ACCESS:     0  HIT:     0  MISS:     0  HIT %:     0  MISS %:     0  AVERAGE MISS PENALTY: 0
ITLB PREFETCH  ACCESS:     0  HIT:     0  MISS:     0  HIT %:     0  MISS %:     0  AVERAGE MISS PENALTY: 0
ITLB WRITEBACK ACCESS:     0  HIT:     0  MISS:     0  HIT %:     0  MISS %:     0  AVERAGE MISS PENALTY: 0
ITLB PREFETCH  REQUESTED:     0  ISSUED:     0  USEFUL:     0  USELESS:     0
 USEFUL LOAD PREFETCHES:          0 PREFETCH ISSUED TO LOWER LEVEL:          0  ACCURACY: -nan
 TIMELY PREFETCHES:          0 LATE PREFETCHES: 0 DROPPED PREFETCHES: 0
ITLB AVERAGE MISS LATENCY: -nan cycles

ITLB Set Associative Eviction Count : 0
ITLB Priority 0 entries : 0
ITLB Inter-Core Interference : 0
DTLB TOTAL     ACCESS: 26800075  HIT: 26777121  MISS: 22954  HIT %: 99.9144  MISS %: 0.085649  AVERAGE MISS PENALTY: 10.4546
DTLB LOAD      ACCESS: 19114850  HIT: 19097867  MISS: 16983  HIT %: 99.9112  MISS %: 0.0888472  AVERAGE MISS PENALTY: 10.8364
DTLB RFO       ACCESS: 7685225  HIT: 7679254  MISS:  5971  HIT %: 99.9223  MISS %: 0.0776945  AVERAGE MISS PENALTY: 9.36895
DTLB PREFETCH  ACCESS:     0  HIT:     0  MISS:     0  HIT %:     0  MISS %:     0  AVERAGE MISS PENALTY: 0
DTLB WRITEBACK ACCESS:     0  HIT:     0  MISS:     0  HIT %:     0  MISS %:     0  AVERAGE MISS PENALTY: 0
DTLB PREFETCH  REQUESTED:     0  ISSUED:     0  USEFUL:     0  USELESS:     0
 USEFUL LOAD PREFETCHES:          0 PREFETCH ISSUED TO LOWER LEVEL:          0  ACCURACY: -nan
 TIMELY PREFETCHES:          0 LATE PREFETCHES: 0 DROPPED PREFETCHES: 0
DTLB AVERAGE MISS LATENCY: 10.4546 cycles

DTLB Set Associative Eviction Count : 0
DTLB Priority 0 entries : 0
DTLB Inter-Core Interference : 0
STLB TOTAL     ACCESS: 22954  HIT: 22630  MISS:   324  HIT %: 98.5885  MISS %: 1.41152  AVERAGE MISS PENALTY: 100
STLB LOAD      ACCESS: 16983  HIT: 16681  MISS:   302  HIT %: 98.2218  MISS %: 1.77825  AVERAGE MISS PENALTY: 100
STLB RFO       ACCESS:  5971  HIT:  5949  MISS:    22  HIT %: 99.6316  MISS %: 0.368447  AVERAGE MISS PENALTY: 100
STLB PREFETCH  ACCESS:     0  HIT:     0  MISS:     0  HIT %:     0  MISS %:     0  AVERAGE MISS PENALTY: 0
STLB WRITEBACK ACCESS:     0  HIT:     0  MISS:     0  HIT %:     0  MISS %:     0  AVERAGE MISS PENALTY: 0
STLB PREFETCH  REQUESTED:     0  ISSUED:     0  USEFUL:     0  USELESS:     0
 USEFUL LOAD PREFETCHES:          0 PREFETCH ISSUED TO LOWER LEVEL:          0  ACCURACY: -nan
 TIMELY PREFETCHES:          0 LATE PREFETCHES: 0 DROPPED PREFETCHES: 0
STLB AVERAGE MISS LATENCY: 100 cycles

STLB Set Associative Eviction Count : 0
STLB Priority 0 entries : 0
STLB Inter-Core Interference : 0
L1D TOTAL     ACCESS: 41222799  HIT: 41161258  MISS: 61541  HIT %: 99.8507  MISS %: 0.149289  AVERAGE MISS PENALTY: 1.07505e+07
L1D LOAD      ACCESS: 15257985  HIT: 15243310  MISS: 14675  HIT %: 99.9038  MISS %: 0.0961791  AVERAGE MISS PENALTY: 4.50829e+07
L1D RFO       ACCESS: 15190629  HIT: 15189222  MISS:  1407  HIT %: 99.9907  MISS %: 0.00926229  AVERAGE MISS PENALTY: 177.259
L1D PREFETCH  ACCESS: 10774185  HIT: 10728726  MISS: 45459  HIT %: 99.5781  MISS %: 0.421925  AVERAGE MISS PENALTY: 98.4398
L1D WRITEBACK ACCESS:     0  HIT:     0  MISS:     0  HIT %:     0  MISS %:     0  AVERAGE MISS PENALTY: 0
L1D PREFETCH  REQUESTED: 11183103  ISSUED: 11142625  USEFUL: 29740  USELESS: 15829
 USEFUL LOAD PREFETCHES:      29740 PREFETCH ISSUED TO LOWER LEVEL:      64185  ACCURACY: 46.3348
 TIMELY PREFETCHES:      29740 LATE PREFETCHES: 4804 DROPPED PREFETCHES: 40478
L1D AVERAGE MISS LATENCY: 113.42 cycles

L1D Set Associative Eviction Count : 0
L1D Priority 0 entries : 0
L1D Inter-Core Interference : 0
L1I TOTAL     ACCESS: 30610130  HIT: 30610129  MISS:     1  HIT %:   100  MISS %: 3.26689e-06  AVERAGE MISS PENALTY: 370
L1I LOAD      ACCESS: 30610130  HIT: 30610129  MISS:     1  HIT %:   100  MISS %: 3.26689e-06  AVERAGE MISS PENALTY: 370
L1I RFO       ACCESS:     0  HIT:     0  MISS:     0  HIT %:     0  MISS %:     0  AVERAGE MISS PENALTY: 0
L1I PREFETCH  ACCESS:     0  HIT:     0  MISS:     0  HIT %:     0  MISS %:     0  AVERAGE MISS PENALTY: 0
L1I WRITEBACK ACCESS:     0  HIT:     0  MISS:     0  HIT %:     0  MISS %:     0  AVERAGE MISS PENALTY: 0
L1I PREFETCH  REQUESTED:     0  ISSUED:     0  USEFUL:     0  USELESS:     0
 USEFUL LOAD PREFETCHES:          0 PREFETCH ISSUED TO LOWER LEVEL:          0  ACCURACY: -nan
 TIMELY PREFETCHES:          0 LATE PREFETCHES: 0 DROPPED PREFETCHES: 0
L1I AVERAGE MISS LATENCY: 370 cycles

L1I Set Associative Eviction Count : 0
L1I Priority 0 entries : 0
L1I Inter-Core Interference : 0
L2C TOTAL     ACCESS: 98418  HIT: 56882  MISS: 41536  HIT %: 57.7963  MISS %: 42.2037  AVERAGE MISS PENALTY: 1.3523e+07
L2C LOAD      ACCESS: 14436  HIT:  3685  MISS: 10751  HIT %: 25.5265  MISS %: 74.4735  AVERAGE MISS PENALTY: 5.22449e+07
L2C RFO       ACCESS:  1407  HIT:   154  MISS:  1253  HIT %: 10.9453  MISS %: 89.0547  AVERAGE MISS PENALTY: 182.201
L2C PREFETCH  ACCESS: 80880  HIT: 51393  MISS: 29487  HIT %: 63.5423  MISS %: 36.4577  AVERAGE MISS PENALTY: 200.018
L2C WRITEBACK ACCESS:  1695  HIT:  1650  MISS:    45  HIT %: 97.3451  MISS %: 2.65487  AVERAGE MISS PENALTY: 0
L2C PREFETCH  REQUESTED: 53103  ISSUED: 52883  USEFUL:  2644  USELESS: 27962
 USEFUL LOAD PREFETCHES:       2644 PREFETCH ISSUED TO LOWER LEVEL:      36321  ACCURACY: 7.27954
 TIMELY PREFETCHES:       2644 LATE PREFETCHES: 4173 DROPPED PREFETCHES: 220
L2C AVERAGE MISS LATENCY: 196.883 cycles

L2C Set Associative Eviction Count : 0
L2C Priority 0 entries : 0
L2C Inter-Core Interference : 0
LLC0 TOTAL     ACCESS:  5386  HIT:   146  MISS:  5240  HIT %: 2.71073  MISS %: 97.2893  AVERAGE MISS PENALTY: 161.946
LLC0 LOAD      ACCESS:  1184  HIT:    34  MISS:  1150  HIT %: 2.87162  MISS %: 97.1284  AVERAGE MISS PENALTY: 181.739
LLC0 RFO       ACCESS:   149  HIT:     1  MISS:   148  HIT %: 0.671141  MISS %: 99.3289  AVERAGE MISS PENALTY: 150.297
LLC0 PREFETCH  ACCESS:  3863  HIT:    94  MISS:  3769  HIT %: 2.43334  MISS %: 97.5667  AVERAGE MISS PENALTY: 163.797
LLC0 WRITEBACK ACCESS:   190  HIT:    17  MISS:   173  HIT %: 8.94737  MISS %: 91.0526  AVERAGE MISS PENALTY: 0
LLC0 PREFETCH  REQUESTED:     0  ISSUED:     0  USEFUL:    43  USELESS:  1203
 USEFUL LOAD PREFETCHES:         43 PREFETCH ISSUED TO LOWER LEVEL:      30715  ACCURACY: 0.139997
 TIMELY PREFETCHES:         43 LATE PREFETCHES: 0 DROPPED PREFETCHES: 0
LLC0 AVERAGE MISS LATENCY: 161.946 cycles

LLC0 Set Associative Eviction Count : 0
LLC0 Priority 0 entries : 12288
LLC0 Inter-Core Interference : 4493
LLC1 TOTAL     ACCESS:  5371  HIT:   151  MISS:  5220  HIT %: 2.81139  MISS %: 97.1886  AVERAGE MISS PENALTY: 162.699
LLC1 LOAD      ACCESS:  1058  HIT:    39  MISS:  1019  HIT %: 3.6862  MISS %: 96.3138  AVERAGE MISS PENALTY: 166.678
LLC1 RFO       ACCESS:   155  HIT:     2  MISS:   153  HIT %: 1.29032  MISS %: 98.7097  AVERAGE MISS PENALTY: 144.745
LLC1 PREFETCH  ACCESS:  3968  HIT:    96  MISS:  3872  HIT %: 2.41935  MISS %: 97.5806  AVERAGE MISS PENALTY: 169.756
LLC1 WRITEBACK ACCESS:   190  HIT:    14  MISS:   176  HIT %: 7.36842  MISS %: 92.6316  AVERAGE MISS PENALTY: 0
LLC1 PREFETCH  REQUESTED:     0  ISSUED:     0  USEFUL:    56  USELESS:  1196
 USEFUL LOAD PREFETCHES:         56 PREFETCH ISSUED TO LOWER LEVEL:      31722  ACCURACY: 0.176534
 TIMELY PREFETCHES:         56 LATE PREFETCHES: 0 DROPPED PREFETCHES: 0
LLC1 AVERAGE MISS LATENCY: 162.699 cycles

LLC1 Set Associative Eviction Count : 0
LLC1 Priority 0 entries : 12288
LLC1 Inter-Core Interference : 4496
LLC2 TOTAL     ACCESS:  5368  HIT:   136  MISS:  5232  HIT %: 2.53353  MISS %: 97.4665  AVERAGE MISS PENALTY: 168.925
LLC2 LOAD      ACCESS:  1122  HIT:    31  MISS:  1091  HIT %: 2.76292  MISS %: 97.2371  AVERAGE MISS PENALTY: 192.799
LLC2 RFO       ACCESS:   158  HIT:     2  MISS:   156  HIT %: 1.26582  MISS %: 98.7342  AVERAGE MISS PENALTY: 151.385
LLC2 PREFETCH  ACCESS:  3897  HIT:    88  MISS:  3809  HIT %: 2.25815  MISS %: 97.7419  AVERAGE MISS PENALTY: 170.611
LLC2 WRITEBACK ACCESS:   191  HIT:    15  MISS:   176  HIT %: 7.8534  MISS %: 92.1466  AVERAGE MISS PENALTY: 0
LLC2 PREFETCH  REQUESTED:     0  ISSUED:     0  USEFUL:    44  USELESS:  1146
 USEFUL LOAD PREFETCHES:         44 PREFETCH ISSUED TO LOWER LEVEL:      34769  ACCURACY: 0.12655
 TIMELY PREFETCHES:         44 LATE PREFETCHES: 0 DROPPED PREFETCHES: 0
LLC2 AVERAGE MISS LATENCY: 168.925 cycles

LLC2 Set Associative Eviction Count : 0
LLC2 Priority 0 entries : 12288
LLC2 Inter-Core Interference : 4585
LLC3 TOTAL     ACCESS:  5368  HIT:   149  MISS:  5219  HIT %: 2.77571  MISS %: 97.2243  AVERAGE MISS PENALTY: 164.661
LLC3 LOAD      ACCESS:   869  HIT:    42  MISS:   827  HIT %: 4.83314  MISS %: 95.1669  AVERAGE MISS PENALTY: 163.489
LLC3 RFO       ACCESS:   151  HIT:     2  MISS:   149  HIT %: 1.3245  MISS %: 98.6755  AVERAGE MISS PENALTY: 148.154
LLC3 PREFETCH  ACCESS:  4158  HIT:    88  MISS:  4070  HIT %: 2.1164  MISS %: 97.8836  AVERAGE MISS PENALTY: 172.503
LLC3 WRITEBACK ACCESS:   190  HIT:    17  MISS:   173  HIT %: 8.94737  MISS %: 91.0526  AVERAGE MISS PENALTY: 0
LLC3 PREFETCH  REQUESTED:     0  ISSUED:     0  USEFUL:    52  USELESS:  1165
 USEFUL LOAD PREFETCHES:         52 PREFETCH ISSUED TO LOWER LEVEL:      34438  ACCURACY: 0.150996
 TIMELY PREFETCHES:         52 LATE PREFETCHES: 0 DROPPED PREFETCHES: 0
LLC3 AVERAGE MISS LATENCY: 164.661 cycles

LLC3 Set Associative Eviction Count : 0
LLC3 Priority 0 entries : 12288
LLC3 Inter-Core Interference : 4448
LLC4 TOTAL     ACCESS:  5386  HIT:   143  MISS:  5243  HIT %: 2.65503  MISS %: 97.345  AVERAGE MISS PENALTY: 160.345
LLC4 LOAD      ACCESS:   723  HIT:    30  MISS:   693  HIT %: 4.14938  MISS %: 95.8506  AVERAGE MISS PENALTY: 155.185
LLC4 RFO       ACCESS:   156  HIT:     2  MISS:   154  HIT %: 1.28205  MISS %: 98.7179  AVERAGE MISS PENALTY: 145.591
LLC4 PREFETCH  ACCESS:  4319  HIT:    96  MISS:  4223  HIT %: 2.22274  MISS %: 97.7773  AVERAGE MISS PENALTY: 168.298
LLC4 WRITEBACK ACCESS:   188  HIT:    15  MISS:   173  HIT %: 7.97872  MISS %: 92.0213  AVERAGE MISS PENALTY: 0
LLC4 PREFETCH  REQUESTED:     0  ISSUED:     0  USEFUL:    52  USELESS:  1264
 USEFUL LOAD PREFETCHES:         52 PREFETCH ISSUED TO LOWER LEVEL:      40733  ACCURACY: 0.127661
 TIMELY PREFETCHES:         52 LATE PREFETCHES: 0 DROPPED PREFETCHES: 0
LLC4 AVERAGE MISS LATENCY: 160.345 cycles

LLC4 Set Associative Eviction Count : 0
LLC4 Priority 0 entries : 12288
LLC4 Inter-Core Interference : 4565
LLC5 TOTAL     ACCESS:  5386  HIT:   159  MISS:  5227  HIT %: 2.9521  MISS %: 97.0479  AVERAGE MISS PENALTY: 166.097
LLC5 LOAD      ACCESS:   931  HIT:    32  MISS:   899  HIT %: 3.43716  MISS %: 96.5628  AVERAGE MISS PENALTY: 199.736
LLC5 RFO       ACCESS:   160  HIT:     3  MISS:   157  HIT %: 1.875  MISS %: 98.125  AVERAGE MISS PENALTY: 140.675
LLC5 PREFETCH  ACCESS:  4101  HIT:   107  MISS:  3994  HIT %: 2.60912  MISS %: 97.3909  AVERAGE MISS PENALTY: 166.886
LLC5 WRITEBACK ACCESS:   194  HIT:    17  MISS:   177  HIT %: 8.76289  MISS %: 91.2371  AVERAGE MISS PENALTY: 0
LLC5 PREFETCH  REQUESTED:     0  ISSUED:     0  USEFUL:    43  USELESS:  1346
 USEFUL LOAD PREFETCHES:         43 PREFETCH ISSUED TO LOWER LEVEL:      35235  ACCURACY: 0.122038
 TIMELY PREFETCHES:         43 LATE PREFETCHES: 0 DROPPED PREFETCHES: 0
LLC5 AVERAGE MISS LATENCY: 166.097 cycles

LLC5 Set Associative Eviction Count : 0
LLC5 Priority 0 entries : 12288
LLC5 Inter-Core Interference : 4583
LLC6 TOTAL     ACCESS:  5365  HIT:   144  MISS:  5221  HIT %: 2.68406  MISS %: 97.3159  AVERAGE MISS PENALTY: 166.448
LLC6 LOAD      ACCESS:   917  HIT:    32  MISS:   885  HIT %: 3.48964  MISS %: 96.5104  AVERAGE MISS PENALTY: 165.609
LLC6 RFO       ACCESS:   161  HIT:     4  MISS:   157  HIT %: 2.48447  MISS %: 97.5155  AVERAGE MISS PENALTY: 144.796
LLC6 PREFETCH  ACCESS:  4097  HIT:    92  MISS:  4005  HIT %: 2.24555  MISS %: 97.7545  AVERAGE MISS PENALTY: 174.714
LLC6 WRITEBACK ACCESS:   190  HIT:    16  MISS:   174  HIT %: 8.42105  MISS %: 91.5789  AVERAGE MISS PENALTY: 0
LLC6 PREFETCH  REQUESTED:     0  ISSUED:     0  USEFUL:    50  USELESS:  1361
 USEFUL LOAD PREFETCHES:         50 PREFETCH ISSUED TO LOWER LEVEL:      41627  ACCURACY: 0.120114
 TIMELY PREFETCHES:         50 LATE PREFETCHES: 0 DROPPED PREFETCHES: 0
LLC6 AVERAGE MISS LATENCY: 166.448 cycles

LLC6 Set Associative Eviction Count : 0
LLC6 Priority 0 entries : 12288
LLC6 Inter-Core Interference : 4544
LLC7 TOTAL     ACCESS:  5383  HIT:   155  MISS:  5228  HIT %: 2.87944  MISS %: 97.1206  AVERAGE MISS PENALTY: 167.443
LLC7 LOAD      ACCESS:  1102  HIT:    43  MISS:  1059  HIT %: 3.902  MISS %: 96.098  AVERAGE MISS PENALTY: 157.938
LLC7 RFO       ACCESS:   163  HIT:     4  MISS:   159  HIT %: 2.45399  MISS %: 97.546  AVERAGE MISS PENALTY: 146.572
LLC7 PREFETCH  ACCESS:  3929  HIT:    93  MISS:  3836  HIT %: 2.36701  MISS %: 97.633  AVERAGE MISS PENALTY: 178.527
LLC7 WRITEBACK ACCESS:   189  HIT:    15  MISS:   174  HIT %: 7.93651  MISS %: 92.0635  AVERAGE MISS PENALTY: 0
LLC7 PREFETCH  REQUESTED:     0  ISSUED:     0  USEFUL:    58  USELESS:  1284
 USEFUL LOAD PREFETCHES:         58 PREFETCH ISSUED TO LOWER LEVEL:      34542  ACCURACY: 0.167912
 TIMELY PREFETCHES:         58 LATE PREFETCHES: 0 DROPPED PREFETCHES: 0
LLC7 AVERAGE MISS LATENCY: 167.443 cycles

LLC7 Set Associative Eviction Count : 0
LLC7 Priority 0 entries : 12288
LLC7 Inter-Core Interference : 4462
ROI Average ROB Stall Cycles:	4.8231
ROI Total ROB Stalls Cycles:	111778901
ROI TOTAL ROB counter      :	23175715
ROI Average Load ROB Stall Cycles:	5.90683
ROI Total Load ROB Stalls Cycle  :	20419335
ROI Total Load ROB stalls Counter:	3456901
Major fault: 0 Minor fault: 4882








Interconnect Stats 
LINK 0 BW : 0LINK 1 BW : 0LINK 2 BW : 0LINK 3 BW : 0LINK 4 BW : 0LINK 5 BW : 0LINK 6 BW : 0LINK 7 BW : 0
DRAM Statistics
 CHANNEL 0
 RQ ROW_BUFFER_HIT: 130147  ROW_BUFFER_MISS: 31236
 DBUS_CONGESTED: 33853
 WQ ROW_BUFFER_HIT:  1380  ROW_BUFFER_MISS: 12600  FULL:     0

 CHANNEL 1
 RQ ROW_BUFFER_HIT: 130122  ROW_BUFFER_MISS: 31233
 DBUS_CONGESTED: 33853
 WQ ROW_BUFFER_HIT:  1426  ROW_BUFFER_MISS: 12295  FULL:     0

 AVG_CONGESTED_CYCLE: 5
DRAM PAGES: 2097152
Allocated PAGES: 39056
L2C destructor called
L1D destructor called
L1I destructor called
STLB destructor called
DTLB destructor called
ITLB destructor called
L2C destructor called
L1D destructor called
L1I destructor called
STLB destructor called
DTLB destructor called
ITLB destructor called
L2C destructor called
L1D destructor called
L1I destructor called
STLB destructor called
DTLB destructor called
ITLB destructor called
L2C destructor called
L1D destructor called
L1I destructor called
STLB destructor called
DTLB destructor called
ITLB destructor called
L2C destructor called
L1D destructor called
L1I destructor called
STLB destructor called
DTLB destructor called
ITLB destructor called
L2C destructor called
L1D destructor called
L1I destructor called
STLB destructor called
DTLB destructor called
ITLB destructor called
L2C destructor called
L1D destructor called
L1I destructor called
STLB destructor called
DTLB destructor called
ITLB destructor called
L2C destructor called
L1D destructor called
L1I destructor called
STLB destructor called
DTLB destructor called
ITLB destructor called
