
*** ChampSim Multicore Out-of-Order Simulator ***

Warmup Instructions: 200000000
Simulation Instructions: 200000000
Number of CPUs: 8
threads:1

L1I Configuration:
L1I_SET:64
L1I_WAY:8
L1I_RQ_SIZE:64
L1I_WQ_SIZE:64
L1I_PQ_SIZE:8
L1I_MSHR_SIZE:8

L1D Configuration:
L1D_SET:64
L1D_WAY:12
L1D_RQ_SIZE:64
L1D_WQ_SIZE:64
L1D_PQ_SIZE:8
L1D_MSHR_SIZE:16

L2C Configuration:
L2C_SET:1024
L2C_WAY:8
L2C_RQ_SIZE:32
L2C_WQ_SIZE:32
L2C_PQ_SIZE:16
L2C_MSHR_SIZE:32

LLC Configuration:
LLC_SET:2048
LLC_WAY:12
LLC SLICES:8
LLC_RQ_SIZE:64
LLC_WQ_SIZE:64
LLC_PQ_SIZE:32
LLC_MSHR_SIZE:64

Interconnect OFF
Attacker deprioritize is: OFF
Off-chip DRAM Size: 8192 MB Channels: 2 Width: 64-bit Data Rate: 3200 MT/s
PAGE SIZE in KB: 4.000000 
PAGE SIZE in MB: 0.003906 
PAGE offset in bits: 12 
CEASER-S_LLC:0
MIRAGE : 1
CEASER_LATENCY:3
REMAP : OFF
Partitions : 1
Multi-Step : OFF
BFS : OFF

CPU 0 runs /home/anubhav/spec_2017/649.fotonik3d_s-8225B.champsimtrace.xz
CPU 1 runs /home/anubhav/spec_2017/649.fotonik3d_s-8225B.champsimtrace.xz
CPU 2 runs /home/anubhav/spec_2017/649.fotonik3d_s-8225B.champsimtrace.xz
CPU 3 runs /home/anubhav/spec_2017/649.fotonik3d_s-8225B.champsimtrace.xz
CPU 4 runs /home/anubhav/spec_2017/649.fotonik3d_s-8225B.champsimtrace.xz
CPU 5 runs /home/anubhav/spec_2017/649.fotonik3d_s-8225B.champsimtrace.xz
CPU 6 runs /home/anubhav/spec_2017/649.fotonik3d_s-8225B.champsimtrace.xz
CPU 7 runs /home/anubhav/spec_2017/649.fotonik3d_s-8225B.champsimtrace.xz
CPU 0 Bimodal branch predictor
Initialize Hawkeye state
Initialize Hawkeye state
Initialize Hawkeye state
Initialize Hawkeye state
Initialize Hawkeye state
Initialize Hawkeye state
Initialize Hawkeye state
Initialize Hawkeye state
CPU 1 Bimodal branch predictor
Initialize Hawkeye state
Initialize Hawkeye state
Initialize Hawkeye state
Initialize Hawkeye state
Initialize Hawkeye state
Initialize Hawkeye state
Initialize Hawkeye state
Initialize Hawkeye state
CPU 2 Bimodal branch predictor
Initialize Hawkeye state
Initialize Hawkeye state
Initialize Hawkeye state
Initialize Hawkeye state
Initialize Hawkeye state
Initialize Hawkeye state
Initialize Hawkeye state
Initialize Hawkeye state
CPU 3 Bimodal branch predictor
Initialize Hawkeye state
Initialize Hawkeye state
Initialize Hawkeye state
Initialize Hawkeye state
Initialize Hawkeye state
Initialize Hawkeye state
Initialize Hawkeye state
Initialize Hawkeye state
CPU 4 Bimodal branch predictor
Initialize Hawkeye state
Initialize Hawkeye state
Initialize Hawkeye state
Initialize Hawkeye state
Initialize Hawkeye state
Initialize Hawkeye state
Initialize Hawkeye state
Initialize Hawkeye state
CPU 5 Bimodal branch predictor
Initialize Hawkeye state
Initialize Hawkeye state
Initialize Hawkeye state
Initialize Hawkeye state
Initialize Hawkeye state
Initialize Hawkeye state
Initialize Hawkeye state
Initialize Hawkeye state
CPU 6 Bimodal branch predictor
Initialize Hawkeye state
Initialize Hawkeye state
Initialize Hawkeye state
Initialize Hawkeye state
Initialize Hawkeye state
Initialize Hawkeye state
Initialize Hawkeye state
Initialize Hawkeye state
CPU 7 Bimodal branch predictor
Initialize Hawkeye state
Initialize Hawkeye state
Initialize Hawkeye state
Initialize Hawkeye state
Initialize Hawkeye state
Initialize Hawkeye state
Initialize Hawkeye state
Initialize Hawkeye state
Heartbeat CPU 3 instructions: 10000003 cycles: 4250798 heartbeat IPC: 2.3525 cumulative IPC: 2.3525 (Simulation time: 0 hr 44 min 15 sec) 
 Total Blocks : 196608 Invalid Blocks : 4935 Valid Blocks : 191673
 Total Tags : 491520 Threshold : 12288 Invalid Tags : 201551 Pr0 Tags : 98296 Pr1 Tags : 191673 num_pr0 : 12288
 SAE Count : 0
 Inter-Core Inteference in Data Store : 468905
Heartbeat CPU 1 instructions: 10000003 cycles: 4250800 heartbeat IPC: 2.3525 cumulative IPC: 2.3525 (Simulation time: 0 hr 44 min 15 sec) 
 Total Blocks : 196608 Invalid Blocks : 4935 Valid Blocks : 191673
 Total Tags : 491520 Threshold : 12288 Invalid Tags : 201550 Pr0 Tags : 98297 Pr1 Tags : 191673 num_pr0 : 12288
 SAE Count : 0
 Inter-Core Inteference in Data Store : 468906
Heartbeat CPU 4 instructions: 10000003 cycles: 4250850 heartbeat IPC: 2.35247 cumulative IPC: 2.35247 (Simulation time: 0 hr 44 min 15 sec) 
 Total Blocks : 196608 Invalid Blocks : 4935 Valid Blocks : 191673
 Total Tags : 491520 Threshold : 12288 Invalid Tags : 201549 Pr0 Tags : 98298 Pr1 Tags : 191673 num_pr0 : 12288
 SAE Count : 0
 Inter-Core Inteference in Data Store : 468915
Heartbeat CPU 2 instructions: 10000003 cycles: 4250862 heartbeat IPC: 2.35246 cumulative IPC: 2.35246 (Simulation time: 0 hr 44 min 15 sec) 
 Total Blocks : 196608 Invalid Blocks : 4935 Valid Blocks : 191673
 Total Tags : 491520 Threshold : 12288 Invalid Tags : 201549 Pr0 Tags : 98298 Pr1 Tags : 191673 num_pr0 : 12288
 SAE Count : 0
 Inter-Core Inteference in Data Store : 468915
Heartbeat CPU 0 instructions: 10000003 cycles: 4250868 heartbeat IPC: 2.35246 cumulative IPC: 2.35246 (Simulation time: 0 hr 44 min 16 sec) 
 Total Blocks : 196608 Invalid Blocks : 4935 Valid Blocks : 191673
 Total Tags : 491520 Threshold : 12288 Invalid Tags : 201549 Pr0 Tags : 98298 Pr1 Tags : 191673 num_pr0 : 12288
 SAE Count : 0
 Inter-Core Inteference in Data Store : 468917
Heartbeat CPU 6 instructions: 10000003 cycles: 4250880 heartbeat IPC: 2.35245 cumulative IPC: 2.35245 (Simulation time: 0 hr 44 min 16 sec) 
 Total Blocks : 196608 Invalid Blocks : 4935 Valid Blocks : 191673
 Total Tags : 491520 Threshold : 12288 Invalid Tags : 201549 Pr0 Tags : 98298 Pr1 Tags : 191673 num_pr0 : 12288
 SAE Count : 0
 Inter-Core Inteference in Data Store : 468920
Heartbeat CPU 5 instructions: 10000003 cycles: 4250883 heartbeat IPC: 2.35245 cumulative IPC: 2.35245 (Simulation time: 0 hr 44 min 16 sec) 
 Total Blocks : 196608 Invalid Blocks : 4935 Valid Blocks : 191673
 Total Tags : 491520 Threshold : 12288 Invalid Tags : 201548 Pr0 Tags : 98299 Pr1 Tags : 191673 num_pr0 : 12288
 SAE Count : 0
 Inter-Core Inteference in Data Store : 468924
Heartbeat CPU 7 instructions: 10000003 cycles: 4250889 heartbeat IPC: 2.35245 cumulative IPC: 2.35245 (Simulation time: 0 hr 44 min 16 sec) 
 Total Blocks : 196608 Invalid Blocks : 4935 Valid Blocks : 191673
 Total Tags : 491520 Threshold : 12288 Invalid Tags : 201550 Pr0 Tags : 98297 Pr1 Tags : 191673 num_pr0 : 12288
 SAE Count : 0
 Inter-Core Inteference in Data Store : 468926
FILL
Heartbeat CPU 0 instructions: 20000002 cycles: 8501496 heartbeat IPC: 2.35259 cumulative IPC: 2.35253 (Simulation time: 1 hr 28 min 41 sec) 
 Total Blocks : 196608 Invalid Blocks : 99 Valid Blocks : 196509
 Total Tags : 491520 Threshold : 12288 Invalid Tags : 196714 Pr0 Tags : 98297 Pr1 Tags : 196509 num_pr0 : 12287
 SAE Count : 0
 Inter-Core Inteference in Data Store : 1123632
Heartbeat CPU 2 instructions: 20000002 cycles: 8501504 heartbeat IPC: 2.35259 cumulative IPC: 2.35253 (Simulation time: 1 hr 28 min 41 sec) 
 Total Blocks : 196608 Invalid Blocks : 99 Valid Blocks : 196509
 Total Tags : 491520 Threshold : 12288 Invalid Tags : 196713 Pr0 Tags : 98298 Pr1 Tags : 196509 num_pr0 : 12288
 SAE Count : 0
 Inter-Core Inteference in Data Store : 1123632
Heartbeat CPU 1 instructions: 20000002 cycles: 8501516 heartbeat IPC: 2.35254 cumulative IPC: 2.35252 (Simulation time: 1 hr 28 min 41 sec) 
 Total Blocks : 196608 Invalid Blocks : 99 Valid Blocks : 196509
 Total Tags : 491520 Threshold : 12288 Invalid Tags : 196714 Pr0 Tags : 98297 Pr1 Tags : 196509 num_pr0 : 12287
 SAE Count : 0
 Inter-Core Inteference in Data Store : 1123641
Heartbeat CPU 4 instructions: 20000002 cycles: 8501523 heartbeat IPC: 2.35257 cumulative IPC: 2.35252 (Simulation time: 1 hr 28 min 42 sec) 
 Total Blocks : 196608 Invalid Blocks : 99 Valid Blocks : 196509
 Total Tags : 491520 Threshold : 12288 Invalid Tags : 196714 Pr0 Tags : 98297 Pr1 Tags : 196509 num_pr0 : 12287
 SAE Count : 0
 Inter-Core Inteference in Data Store : 1123644
Heartbeat CPU 3 instructions: 20000002 cycles: 8501533 heartbeat IPC: 2.35253 cumulative IPC: 2.35252 (Simulation time: 1 hr 28 min 42 sec) 
 Total Blocks : 196608 Invalid Blocks : 99 Valid Blocks : 196509
 Total Tags : 491520 Threshold : 12288 Invalid Tags : 196715 Pr0 Tags : 98296 Pr1 Tags : 196509 num_pr0 : 12287
 SAE Count : 0
 Inter-Core Inteference in Data Store : 1123648
Heartbeat CPU 7 instructions: 20000002 cycles: 8501600 heartbeat IPC: 2.35255 cumulative IPC: 2.3525 (Simulation time: 1 hr 28 min 42 sec) 
 Total Blocks : 196608 Invalid Blocks : 99 Valid Blocks : 196509
 Total Tags : 491520 Threshold : 12288 Invalid Tags : 196718 Pr0 Tags : 98293 Pr1 Tags : 196509 num_pr0 : 12287
 SAE Count : 0
 Inter-Core Inteference in Data Store : 1123664
Heartbeat CPU 5 instructions: 20000002 cycles: 8501619 heartbeat IPC: 2.35253 cumulative IPC: 2.35249 (Simulation time: 1 hr 28 min 42 sec) 
 Total Blocks : 196608 Invalid Blocks : 99 Valid Blocks : 196509
 Total Tags : 491520 Threshold : 12288 Invalid Tags : 196715 Pr0 Tags : 98296 Pr1 Tags : 196509 num_pr0 : 12287
 SAE Count : 0
 Inter-Core Inteference in Data Store : 1123675
Heartbeat CPU 6 instructions: 20000002 cycles: 8501621 heartbeat IPC: 2.35253 cumulative IPC: 2.35249 (Simulation time: 1 hr 28 min 42 sec) 
 Total Blocks : 196608 Invalid Blocks : 99 Valid Blocks : 196509
 Total Tags : 491520 Threshold : 12288 Invalid Tags : 196715 Pr0 Tags : 98296 Pr1 Tags : 196509 num_pr0 : 12287
 SAE Count : 0
 Inter-Core Inteference in Data Store : 1123675
Heartbeat CPU 2 instructions: 30000000 cycles: 12752183 heartbeat IPC: 2.35256 cumulative IPC: 2.35254 (Simulation time: 2 hr 14 min 53 sec) 
 Total Blocks : 196608 Invalid Blocks : 1 Valid Blocks : 196607
 Total Tags : 491520 Threshold : 12288 Invalid Tags : 196617 Pr0 Tags : 98296 Pr1 Tags : 196607 num_pr0 : 12287
 SAE Count : 0
 Inter-Core Inteference in Data Store : 1783066
Heartbeat CPU 3 instructions: 30000000 cycles: 12752196 heartbeat IPC: 2.35257 cumulative IPC: 2.35254 (Simulation time: 2 hr 14 min 53 sec) 
 Total Blocks : 196608 Invalid Blocks : 1 Valid Blocks : 196607
 Total Tags : 491520 Threshold : 12288 Invalid Tags : 196617 Pr0 Tags : 98296 Pr1 Tags : 196607 num_pr0 : 12287
 SAE Count : 0
 Inter-Core Inteference in Data Store : 1783071
Heartbeat CPU 1 instructions: 30000000 cycles: 12752209 heartbeat IPC: 2.35256 cumulative IPC: 2.35253 (Simulation time: 2 hr 14 min 53 sec) 
 Total Blocks : 196608 Invalid Blocks : 1 Valid Blocks : 196607
 Total Tags : 491520 Threshold : 12288 Invalid Tags : 196619 Pr0 Tags : 98294 Pr1 Tags : 196607 num_pr0 : 12287
 SAE Count : 0
 Inter-Core Inteference in Data Store : 1783077
Heartbeat CPU 0 instructions: 30000000 cycles: 12752213 heartbeat IPC: 2.35254 cumulative IPC: 2.35253 (Simulation time: 2 hr 14 min 53 sec) 
 Total Blocks : 196608 Invalid Blocks : 1 Valid Blocks : 196607
 Total Tags : 491520 Threshold : 12288 Invalid Tags : 196619 Pr0 Tags : 98294 Pr1 Tags : 196607 num_pr0 : 12287
 SAE Count : 0
 Inter-Core Inteference in Data Store : 1783077
Heartbeat CPU 4 instructions: 30000000 cycles: 12752223 heartbeat IPC: 2.35255 cumulative IPC: 2.35253 (Simulation time: 2 hr 14 min 53 sec) 
 Total Blocks : 196608 Invalid Blocks : 1 Valid Blocks : 196607
 Total Tags : 491520 Threshold : 12288 Invalid Tags : 196616 Pr0 Tags : 98297 Pr1 Tags : 196607 num_pr0 : 12288
 SAE Count : 0
 Inter-Core Inteference in Data Store : 1783079
Heartbeat CPU 5 instructions: 30000000 cycles: 12752271 heartbeat IPC: 2.35258 cumulative IPC: 2.35252 (Simulation time: 2 hr 14 min 53 sec) 
 Total Blocks : 196608 Invalid Blocks : 1 Valid Blocks : 196607
 Total Tags : 491520 Threshold : 12288 Invalid Tags : 196615 Pr0 Tags : 98298 Pr1 Tags : 196607 num_pr0 : 12288
 SAE Count : 0
 Inter-Core Inteference in Data Store : 1783086
Heartbeat CPU 7 instructions: 30000000 cycles: 12752313 heartbeat IPC: 2.35255 cumulative IPC: 2.35251 (Simulation time: 2 hr 14 min 54 sec) 
 Total Blocks : 196608 Invalid Blocks : 1 Valid Blocks : 196607
 Total Tags : 491520 Threshold : 12288 Invalid Tags : 196618 Pr0 Tags : 98295 Pr1 Tags : 196607 num_pr0 : 12287
 SAE Count : 0
 Inter-Core Inteference in Data Store : 1783092
Heartbeat CPU 6 instructions: 30000000 cycles: 12752346 heartbeat IPC: 2.35254 cumulative IPC: 2.35251 (Simulation time: 2 hr 14 min 54 sec) 
 Total Blocks : 196608 Invalid Blocks : 1 Valid Blocks : 196607
 Total Tags : 491520 Threshold : 12288 Invalid Tags : 196617 Pr0 Tags : 98296 Pr1 Tags : 196607 num_pr0 : 12287
 SAE Count : 0
 Inter-Core Inteference in Data Store : 1783099
Heartbeat CPU 3 instructions: 40000002 cycles: 17002852 heartbeat IPC: 2.35258 cumulative IPC: 2.35255 (Simulation time: 3 hr 1 min 36 sec) 
 Total Blocks : 196608 Invalid Blocks : 0 Valid Blocks : 196608
 Total Tags : 491520 Threshold : 12288 Invalid Tags : 196620 Pr0 Tags : 98292 Pr1 Tags : 196608 num_pr0 : 12287
 SAE Count : 0
 Inter-Core Inteference in Data Store : 2442442
Heartbeat CPU 1 instructions: 40000002 cycles: 17002856 heartbeat IPC: 2.35258 cumulative IPC: 2.35255 (Simulation time: 3 hr 1 min 36 sec) 
 Total Blocks : 196608 Invalid Blocks : 0 Valid Blocks : 196608
 Total Tags : 491520 Threshold : 12288 Invalid Tags : 196620 Pr0 Tags : 98292 Pr1 Tags : 196608 num_pr0 : 12287
 SAE Count : 0
 Inter-Core Inteference in Data Store : 2442442
Heartbeat CPU 2 instructions: 40000002 cycles: 17002866 heartbeat IPC: 2.35256 cumulative IPC: 2.35254 (Simulation time: 3 hr 1 min 36 sec) 
 Total Blocks : 196608 Invalid Blocks : 0 Valid Blocks : 196608
 Total Tags : 491520 Threshold : 12288 Invalid Tags : 196619 Pr0 Tags : 98293 Pr1 Tags : 196608 num_pr0 : 12287
 SAE Count : 0
 Inter-Core Inteference in Data Store : 2442446
Heartbeat CPU 4 instructions: 40000002 cycles: 17002875 heartbeat IPC: 2.35258 cumulative IPC: 2.35254 (Simulation time: 3 hr 1 min 36 sec) 
 Total Blocks : 196608 Invalid Blocks : 0 Valid Blocks : 196608
 Total Tags : 491520 Threshold : 12288 Invalid Tags : 196620 Pr0 Tags : 98292 Pr1 Tags : 196608 num_pr0 : 12287
 SAE Count : 0
 Inter-Core Inteference in Data Store : 2442450
Heartbeat CPU 0 instructions: 40000002 cycles: 17002879 heartbeat IPC: 2.35257 cumulative IPC: 2.35254 (Simulation time: 3 hr 1 min 37 sec) 
 Total Blocks : 196608 Invalid Blocks : 0 Valid Blocks : 196608
 Total Tags : 491520 Threshold : 12288 Invalid Tags : 196620 Pr0 Tags : 98292 Pr1 Tags : 196608 num_pr0 : 12287
 SAE Count : 0
 Inter-Core Inteference in Data Store : 2442451
Heartbeat CPU 5 instructions: 40000002 cycles: 17002897 heartbeat IPC: 2.3526 cumulative IPC: 2.35254 (Simulation time: 3 hr 1 min 37 sec) 
 Total Blocks : 196608 Invalid Blocks : 0 Valid Blocks : 196608
 Total Tags : 491520 Threshold : 12288 Invalid Tags : 196619 Pr0 Tags : 98293 Pr1 Tags : 196608 num_pr0 : 12287
 SAE Count : 0
 Inter-Core Inteference in Data Store : 2442454
Heartbeat CPU 7 instructions: 40000002 cycles: 17002929 heartbeat IPC: 2.3526 cumulative IPC: 2.35254 (Simulation time: 3 hr 1 min 37 sec) 
 Total Blocks : 196608 Invalid Blocks : 0 Valid Blocks : 196608
 Total Tags : 491520 Threshold : 12288 Invalid Tags : 196619 Pr0 Tags : 98293 Pr1 Tags : 196608 num_pr0 : 12287
 SAE Count : 0
 Inter-Core Inteference in Data Store : 2442464
Heartbeat CPU 6 instructions: 40000002 cycles: 17003035 heartbeat IPC: 2.35256 cumulative IPC: 2.35252 (Simulation time: 3 hr 1 min 37 sec) 
 Total Blocks : 196608 Invalid Blocks : 0 Valid Blocks : 196608
 Total Tags : 491520 Threshold : 12288 Invalid Tags : 196618 Pr0 Tags : 98294 Pr1 Tags : 196608 num_pr0 : 12287
 SAE Count : 0
 Inter-Core Inteference in Data Store : 2442483
Heartbeat CPU 2 instructions: 50000001 cycles: 21253298 heartbeat IPC: 2.3527 cumulative IPC: 2.35258 (Simulation time: 3 hr 49 min 0 sec) 
 Total Blocks : 196608 Invalid Blocks : 0 Valid Blocks : 196608
 Total Tags : 491520 Threshold : 12288 Invalid Tags : 196617 Pr0 Tags : 98295 Pr1 Tags : 196608 num_pr0 : 12286
 SAE Count : 0
 Inter-Core Inteference in Data Store : 3105450
Heartbeat CPU 1 instructions: 50000001 cycles: 21253300 heartbeat IPC: 2.3527 cumulative IPC: 2.35258 (Simulation time: 3 hr 49 min 1 sec) 
 Total Blocks : 196608 Invalid Blocks : 0 Valid Blocks : 196608
 Total Tags : 491520 Threshold : 12288 Invalid Tags : 196617 Pr0 Tags : 98295 Pr1 Tags : 196608 num_pr0 : 12286
 SAE Count : 0
 Inter-Core Inteference in Data Store : 3105450
Heartbeat CPU 3 instructions: 50000001 cycles: 21253339 heartbeat IPC: 2.35267 cumulative IPC: 2.35257 (Simulation time: 3 hr 49 min 1 sec) 
 Total Blocks : 196608 Invalid Blocks : 0 Valid Blocks : 196608
 Total Tags : 491520 Threshold : 12288 Invalid Tags : 196618 Pr0 Tags : 98294 Pr1 Tags : 196608 num_pr0 : 12286
 SAE Count : 0
 Inter-Core Inteference in Data Store : 3105452
Heartbeat CPU 4 instructions: 50000001 cycles: 21253355 heartbeat IPC: 2.35268 cumulative IPC: 2.35257 (Simulation time: 3 hr 49 min 1 sec) 
 Total Blocks : 196608 Invalid Blocks : 0 Valid Blocks : 196608
 Total Tags : 491520 Threshold : 12288 Invalid Tags : 196618 Pr0 Tags : 98294 Pr1 Tags : 196608 num_pr0 : 12286
 SAE Count : 0
 Inter-Core Inteference in Data Store : 3105452
Heartbeat CPU 0 instructions: 50000001 cycles: 21253378 heartbeat IPC: 2.35266 cumulative IPC: 2.35257 (Simulation time: 3 hr 49 min 1 sec) 
 Total Blocks : 196608 Invalid Blocks : 0 Valid Blocks : 196608
 Total Tags : 491520 Threshold : 12288 Invalid Tags : 196618 Pr0 Tags : 98294 Pr1 Tags : 196608 num_pr0 : 12286
 SAE Count : 0
 Inter-Core Inteference in Data Store : 3105452
Heartbeat CPU 7 instructions: 50000001 cycles: 21253396 heartbeat IPC: 2.35268 cumulative IPC: 2.35257 (Simulation time: 3 hr 49 min 1 sec) 
 Total Blocks : 196608 Invalid Blocks : 0 Valid Blocks : 196608
 Total Tags : 491520 Threshold : 12288 Invalid Tags : 196618 Pr0 Tags : 98294 Pr1 Tags : 196608 num_pr0 : 12286
 SAE Count : 0
 Inter-Core Inteference in Data Store : 3105452
Heartbeat CPU 5 instructions: 50000001 cycles: 21253401 heartbeat IPC: 2.35266 cumulative IPC: 2.35256 (Simulation time: 3 hr 49 min 1 sec) 
 Total Blocks : 196608 Invalid Blocks : 0 Valid Blocks : 196608
 Total Tags : 491520 Threshold : 12288 Invalid Tags : 196618 Pr0 Tags : 98294 Pr1 Tags : 196608 num_pr0 : 12286
 SAE Count : 0
 Inter-Core Inteference in Data Store : 3105452
Heartbeat CPU 6 instructions: 50000001 cycles: 21253520 heartbeat IPC: 2.35267 cumulative IPC: 2.35255 (Simulation time: 3 hr 49 min 2 sec) 
 Total Blocks : 196608 Invalid Blocks : 0 Valid Blocks : 196608
 Total Tags : 491520 Threshold : 12288 Invalid Tags : 196611 Pr0 Tags : 98301 Pr1 Tags : 196608 num_pr0 : 12287
 SAE Count : 0
 Inter-Core Inteference in Data Store : 3105470
Heartbeat CPU 2 instructions: 60000003 cycles: 25503998 heartbeat IPC: 2.35255 cumulative IPC: 2.35257 (Simulation time: 4 hr 37 min 30 sec) 
 Total Blocks : 196608 Invalid Blocks : 0 Valid Blocks : 196608
 Total Tags : 491520 Threshold : 12288 Invalid Tags : 196623 Pr0 Tags : 98289 Pr1 Tags : 196608 num_pr0 : 12286
 SAE Count : 0
 Inter-Core Inteference in Data Store : 3767025
Heartbeat CPU 1 instructions: 60000003 cycles: 25504064 heartbeat IPC: 2.35252 cumulative IPC: 2.35257 (Simulation time: 4 hr 37 min 30 sec) 
 Total Blocks : 196608 Invalid Blocks : 0 Valid Blocks : 196608
 Total Tags : 491520 Threshold : 12288 Invalid Tags : 196622 Pr0 Tags : 98290 Pr1 Tags : 196608 num_pr0 : 12286
 SAE Count : 0
 Inter-Core Inteference in Data Store : 3767035
Heartbeat CPU 3 instructions: 60000003 cycles: 25504078 heartbeat IPC: 2.35253 cumulative IPC: 2.35257 (Simulation time: 4 hr 37 min 30 sec) 
 Total Blocks : 196608 Invalid Blocks : 0 Valid Blocks : 196608
 Total Tags : 491520 Threshold : 12288 Invalid Tags : 196622 Pr0 Tags : 98290 Pr1 Tags : 196608 num_pr0 : 12286
 SAE Count : 0
 Inter-Core Inteference in Data Store : 3767038
Heartbeat CPU 5 instructions: 60000003 cycles: 25504104 heartbeat IPC: 2.35255 cumulative IPC: 2.35256 (Simulation time: 4 hr 37 min 30 sec) 
 Total Blocks : 196608 Invalid Blocks : 0 Valid Blocks : 196608
 Total Tags : 491520 Threshold : 12288 Invalid Tags : 196620 Pr0 Tags : 98292 Pr1 Tags : 196608 num_pr0 : 12286
 SAE Count : 0
 Inter-Core Inteference in Data Store : 3767043
Heartbeat CPU 7 instructions: 60000003 cycles: 25504121 heartbeat IPC: 2.35254 cumulative IPC: 2.35256 (Simulation time: 4 hr 37 min 30 sec) 
 Total Blocks : 196608 Invalid Blocks : 0 Valid Blocks : 196608
 Total Tags : 491520 Threshold : 12288 Invalid Tags : 196619 Pr0 Tags : 98293 Pr1 Tags : 196608 num_pr0 : 12286
 SAE Count : 0
 Inter-Core Inteference in Data Store : 3767046
Heartbeat CPU 4 instructions: 60000003 cycles: 25504122 heartbeat IPC: 2.35252 cumulative IPC: 2.35256 (Simulation time: 4 hr 37 min 30 sec) 
 Total Blocks : 196608 Invalid Blocks : 0 Valid Blocks : 196608
 Total Tags : 491520 Threshold : 12288 Invalid Tags : 196620 Pr0 Tags : 98292 Pr1 Tags : 196608 num_pr0 : 12286
 SAE Count : 0
 Inter-Core Inteference in Data Store : 3767047
Heartbeat CPU 0 instructions: 60000003 cycles: 25504140 heartbeat IPC: 2.35252 cumulative IPC: 2.35256 (Simulation time: 4 hr 37 min 30 sec) 
 Total Blocks : 196608 Invalid Blocks : 0 Valid Blocks : 196608
 Total Tags : 491520 Threshold : 12288 Invalid Tags : 196621 Pr0 Tags : 98291 Pr1 Tags : 196608 num_pr0 : 12286
 SAE Count : 0
 Inter-Core Inteference in Data Store : 3767052
Heartbeat CPU 6 instructions: 60000003 cycles: 25504254 heartbeat IPC: 2.35254 cumulative IPC: 2.35255 (Simulation time: 4 hr 37 min 30 sec) 
 Total Blocks : 196608 Invalid Blocks : 0 Valid Blocks : 196608
 Total Tags : 491520 Threshold : 12288 Invalid Tags : 196622 Pr0 Tags : 98290 Pr1 Tags : 196608 num_pr0 : 12286
 SAE Count : 0
 Inter-Core Inteference in Data Store : 3767065
Heartbeat CPU 2 instructions: 70000001 cycles: 29754752 heartbeat IPC: 2.35252 cumulative IPC: 2.35257 (Simulation time: 5 hr 29 min 47 sec) 
 Total Blocks : 196608 Invalid Blocks : 0 Valid Blocks : 196608
 Total Tags : 491520 Threshold : 12288 Invalid Tags : 196620 Pr0 Tags : 98292 Pr1 Tags : 196608 num_pr0 : 12287
 SAE Count : 0
 Inter-Core Inteference in Data Store : 4427800
Heartbeat CPU 1 instructions: 70000001 cycles: 29754785 heartbeat IPC: 2.35254 cumulative IPC: 2.35256 (Simulation time: 5 hr 29 min 47 sec) 
 Total Blocks : 196608 Invalid Blocks : 0 Valid Blocks : 196608
 Total Tags : 491520 Threshold : 12288 Invalid Tags : 196621 Pr0 Tags : 98291 Pr1 Tags : 196608 num_pr0 : 12286
 SAE Count : 0
 Inter-Core Inteference in Data Store : 4427807
Heartbeat CPU 5 instructions: 70000001 cycles: 29754789 heartbeat IPC: 2.35256 cumulative IPC: 2.35256 (Simulation time: 5 hr 29 min 47 sec) 
 Total Blocks : 196608 Invalid Blocks : 0 Valid Blocks : 196608
 Total Tags : 491520 Threshold : 12288 Invalid Tags : 196620 Pr0 Tags : 98292 Pr1 Tags : 196608 num_pr0 : 12286
 SAE Count : 0
 Inter-Core Inteference in Data Store : 4427807
Heartbeat CPU 3 instructions: 70000001 cycles: 29754833 heartbeat IPC: 2.35252 cumulative IPC: 2.35256 (Simulation time: 5 hr 29 min 47 sec) 
 Total Blocks : 196608 Invalid Blocks : 0 Valid Blocks : 196608
 Total Tags : 491520 Threshold : 12288 Invalid Tags : 196620 Pr0 Tags : 98292 Pr1 Tags : 196608 num_pr0 : 12286
 SAE Count : 0
 Inter-Core Inteference in Data Store : 4427816
Heartbeat CPU 7 instructions: 70000001 cycles: 29754847 heartbeat IPC: 2.35254 cumulative IPC: 2.35256 (Simulation time: 5 hr 29 min 47 sec) 
 Total Blocks : 196608 Invalid Blocks : 0 Valid Blocks : 196608
 Total Tags : 491520 Threshold : 12288 Invalid Tags : 196620 Pr0 Tags : 98292 Pr1 Tags : 196608 num_pr0 : 12286
 SAE Count : 0
 Inter-Core Inteference in Data Store : 4427817
Heartbeat CPU 4 instructions: 70000001 cycles: 29754864 heartbeat IPC: 2.35253 cumulative IPC: 2.35256 (Simulation time: 5 hr 29 min 47 sec) 
 Total Blocks : 196608 Invalid Blocks : 0 Valid Blocks : 196608
 Total Tags : 491520 Threshold : 12288 Invalid Tags : 196619 Pr0 Tags : 98293 Pr1 Tags : 196608 num_pr0 : 12287
 SAE Count : 0
 Inter-Core Inteference in Data Store : 4427818
Heartbeat CPU 0 instructions: 70000001 cycles: 29754917 heartbeat IPC: 2.35251 cumulative IPC: 2.35255 (Simulation time: 5 hr 29 min 48 sec) 
 Total Blocks : 196608 Invalid Blocks : 0 Valid Blocks : 196608
 Total Tags : 491520 Threshold : 12288 Invalid Tags : 196620 Pr0 Tags : 98292 Pr1 Tags : 196608 num_pr0 : 12287
 SAE Count : 0
 Inter-Core Inteference in Data Store : 4427829
Heartbeat CPU 6 instructions: 70000001 cycles: 29754992 heartbeat IPC: 2.35253 cumulative IPC: 2.35255 (Simulation time: 5 hr 29 min 48 sec) 
 Total Blocks : 196608 Invalid Blocks : 0 Valid Blocks : 196608
 Total Tags : 491520 Threshold : 12288 Invalid Tags : 196620 Pr0 Tags : 98292 Pr1 Tags : 196608 num_pr0 : 12287
 SAE Count : 0
 Inter-Core Inteference in Data Store : 4427841
Heartbeat CPU 5 instructions: 80000001 cycles: 34005315 heartbeat IPC: 2.35265 cumulative IPC: 2.35257 (Simulation time: 6 hr 24 min 5 sec) 
 Total Blocks : 196608 Invalid Blocks : 0 Valid Blocks : 196608
 Total Tags : 491520 Threshold : 12288 Invalid Tags : 196619 Pr0 Tags : 98293 Pr1 Tags : 196608 num_pr0 : 12287
 SAE Count : 0
 Inter-Core Inteference in Data Store : 5088310
Heartbeat CPU 2 instructions: 80000001 cycles: 34005351 heartbeat IPC: 2.35261 cumulative IPC: 2.35257 (Simulation time: 6 hr 24 min 5 sec) 
 Total Blocks : 196608 Invalid Blocks : 0 Valid Blocks : 196608
 Total Tags : 491520 Threshold : 12288 Invalid Tags : 196616 Pr0 Tags : 98296 Pr1 Tags : 196608 num_pr0 : 12288
 SAE Count : 0
 Inter-Core Inteference in Data Store : 5088316
Heartbeat CPU 3 instructions: 80000001 cycles: 34005381 heartbeat IPC: 2.35264 cumulative IPC: 2.35257 (Simulation time: 6 hr 24 min 6 sec) 
 Total Blocks : 196608 Invalid Blocks : 0 Valid Blocks : 196608
 Total Tags : 491520 Threshold : 12288 Invalid Tags : 196618 Pr0 Tags : 98294 Pr1 Tags : 196608 num_pr0 : 12287
 SAE Count : 0
 Inter-Core Inteference in Data Store : 5088321
Heartbeat CPU 1 instructions: 80000001 cycles: 34005393 heartbeat IPC: 2.3526 cumulative IPC: 2.35257 (Simulation time: 6 hr 24 min 6 sec) 
 Total Blocks : 196608 Invalid Blocks : 0 Valid Blocks : 196608
 Total Tags : 491520 Threshold : 12288 Invalid Tags : 196617 Pr0 Tags : 98295 Pr1 Tags : 196608 num_pr0 : 12288
 SAE Count : 0
 Inter-Core Inteference in Data Store : 5088324
Heartbeat CPU 4 instructions: 80000001 cycles: 34005416 heartbeat IPC: 2.35264 cumulative IPC: 2.35257 (Simulation time: 6 hr 24 min 6 sec) 
 Total Blocks : 196608 Invalid Blocks : 0 Valid Blocks : 196608
 Total Tags : 491520 Threshold : 12288 Invalid Tags : 196618 Pr0 Tags : 98294 Pr1 Tags : 196608 num_pr0 : 12287
 SAE Count : 0
 Inter-Core Inteference in Data Store : 5088328
Heartbeat CPU 7 instructions: 80000001 cycles: 34005420 heartbeat IPC: 2.35262 cumulative IPC: 2.35257 (Simulation time: 6 hr 24 min 6 sec) 
 Total Blocks : 196608 Invalid Blocks : 0 Valid Blocks : 196608
 Total Tags : 491520 Threshold : 12288 Invalid Tags : 196618 Pr0 Tags : 98294 Pr1 Tags : 196608 num_pr0 : 12287
 SAE Count : 0
 Inter-Core Inteference in Data Store : 5088328
Heartbeat CPU 0 instructions: 80000001 cycles: 34005501 heartbeat IPC: 2.35262 cumulative IPC: 2.35256 (Simulation time: 6 hr 24 min 6 sec) 
 Total Blocks : 196608 Invalid Blocks : 0 Valid Blocks : 196608
 Total Tags : 491520 Threshold : 12288 Invalid Tags : 196618 Pr0 Tags : 98294 Pr1 Tags : 196608 num_pr0 : 12286
 SAE Count : 0
 Inter-Core Inteference in Data Store : 5088345
Heartbeat CPU 6 instructions: 80000001 cycles: 34005619 heartbeat IPC: 2.35259 cumulative IPC: 2.35255 (Simulation time: 6 hr 24 min 6 sec) 
 Total Blocks : 196608 Invalid Blocks : 0 Valid Blocks : 196608
 Total Tags : 491520 Threshold : 12288 Invalid Tags : 196620 Pr0 Tags : 98292 Pr1 Tags : 196608 num_pr0 : 12286
 SAE Count : 0
 Inter-Core Inteference in Data Store : 5088369
Heartbeat CPU 5 instructions: 90000000 cycles: 38256000 heartbeat IPC: 2.35256 cumulative IPC: 2.35257 (Simulation time: 7 hr 19 min 48 sec) 
 Total Blocks : 196608 Invalid Blocks : 0 Valid Blocks : 196608
 Total Tags : 491520 Threshold : 12288 Invalid Tags : 196614 Pr0 Tags : 98298 Pr1 Tags : 196608 num_pr0 : 12287
 SAE Count : 0
 Inter-Core Inteference in Data Store : 5749688
Heartbeat CPU 4 instructions: 90000000 cycles: 38256028 heartbeat IPC: 2.3526 cumulative IPC: 2.35257 (Simulation time: 7 hr 19 min 48 sec) 
 Total Blocks : 196608 Invalid Blocks : 0 Valid Blocks : 196608
 Total Tags : 491520 Threshold : 12288 Invalid Tags : 196614 Pr0 Tags : 98298 Pr1 Tags : 196608 num_pr0 : 12287
 SAE Count : 0
 Inter-Core Inteference in Data Store : 5749693
Heartbeat CPU 3 instructions: 90000000 cycles: 38256039 heartbeat IPC: 2.35258 cumulative IPC: 2.35257 (Simulation time: 7 hr 19 min 48 sec) 
 Total Blocks : 196608 Invalid Blocks : 0 Valid Blocks : 196608
 Total Tags : 491520 Threshold : 12288 Invalid Tags : 196615 Pr0 Tags : 98297 Pr1 Tags : 196608 num_pr0 : 12287
 SAE Count : 0
 Inter-Core Inteference in Data Store : 5749696
Heartbeat CPU 2 instructions: 90000000 cycles: 38256056 heartbeat IPC: 2.35255 cumulative IPC: 2.35257 (Simulation time: 7 hr 19 min 48 sec) 
 Total Blocks : 196608 Invalid Blocks : 0 Valid Blocks : 196608
 Total Tags : 491520 Threshold : 12288 Invalid Tags : 196614 Pr0 Tags : 98298 Pr1 Tags : 196608 num_pr0 : 12287
 SAE Count : 0
 Inter-Core Inteference in Data Store : 5749698
Heartbeat CPU 7 instructions: 90000000 cycles: 38256084 heartbeat IPC: 2.35257 cumulative IPC: 2.35257 (Simulation time: 7 hr 19 min 48 sec) 
 Total Blocks : 196608 Invalid Blocks : 0 Valid Blocks : 196608
 Total Tags : 491520 Threshold : 12288 Invalid Tags : 196614 Pr0 Tags : 98298 Pr1 Tags : 196608 num_pr0 : 12287
 SAE Count : 0
 Inter-Core Inteference in Data Store : 5749703
Heartbeat CPU 1 instructions: 90000000 cycles: 38256088 heartbeat IPC: 2.35256 cumulative IPC: 2.35257 (Simulation time: 7 hr 19 min 48 sec) 
 Total Blocks : 196608 Invalid Blocks : 0 Valid Blocks : 196608
 Total Tags : 491520 Threshold : 12288 Invalid Tags : 196614 Pr0 Tags : 98298 Pr1 Tags : 196608 num_pr0 : 12287
 SAE Count : 0
 Inter-Core Inteference in Data Store : 5749704
Heartbeat CPU 0 instructions: 90000000 cycles: 38256177 heartbeat IPC: 2.35257 cumulative IPC: 2.35256 (Simulation time: 7 hr 19 min 48 sec) 
 Total Blocks : 196608 Invalid Blocks : 0 Valid Blocks : 196608
 Total Tags : 491520 Threshold : 12288 Invalid Tags : 196611 Pr0 Tags : 98301 Pr1 Tags : 196608 num_pr0 : 12288
 SAE Count : 0
 Inter-Core Inteference in Data Store : 5749716
Heartbeat CPU 6 instructions: 90000000 cycles: 38256266 heartbeat IPC: 2.35258 cumulative IPC: 2.35256 (Simulation time: 7 hr 19 min 48 sec) 
 Total Blocks : 196608 Invalid Blocks : 0 Valid Blocks : 196608
 Total Tags : 491520 Threshold : 12288 Invalid Tags : 196614 Pr0 Tags : 98298 Pr1 Tags : 196608 num_pr0 : 12288
 SAE Count : 0
 Inter-Core Inteference in Data Store : 5749729
Heartbeat CPU 5 instructions: 100000000 cycles: 42506669 heartbeat IPC: 2.35257 cumulative IPC: 2.35257 (Simulation time: 8 hr 16 min 27 sec) 
 Total Blocks : 196608 Invalid Blocks : 0 Valid Blocks : 196608
 Total Tags : 491520 Threshold : 12288 Invalid Tags : 196616 Pr0 Tags : 98296 Pr1 Tags : 196608 num_pr0 : 12287
 SAE Count : 0
 Inter-Core Inteference in Data Store : 6413081
Heartbeat CPU 4 instructions: 100000000 cycles: 42506702 heartbeat IPC: 2.35257 cumulative IPC: 2.35257 (Simulation time: 8 hr 16 min 27 sec) 
 Total Blocks : 196608 Invalid Blocks : 0 Valid Blocks : 196608
 Total Tags : 491520 Threshold : 12288 Invalid Tags : 196616 Pr0 Tags : 98296 Pr1 Tags : 196608 num_pr0 : 12287
 SAE Count : 0
 Inter-Core Inteference in Data Store : 6413088
Heartbeat CPU 3 instructions: 100000000 cycles: 42506719 heartbeat IPC: 2.35256 cumulative IPC: 2.35257 (Simulation time: 8 hr 16 min 27 sec) 
 Total Blocks : 196608 Invalid Blocks : 0 Valid Blocks : 196608
 Total Tags : 491520 Threshold : 12288 Invalid Tags : 196615 Pr0 Tags : 98297 Pr1 Tags : 196608 num_pr0 : 12287
 SAE Count : 0
 Inter-Core Inteference in Data Store : 6413090
Heartbeat CPU 7 instructions: 100000000 cycles: 42506734 heartbeat IPC: 2.35258 cumulative IPC: 2.35257 (Simulation time: 8 hr 16 min 27 sec) 
 Total Blocks : 196608 Invalid Blocks : 0 Valid Blocks : 196608
 Total Tags : 491520 Threshold : 12288 Invalid Tags : 196616 Pr0 Tags : 98296 Pr1 Tags : 196608 num_pr0 : 12287
 SAE Count : 0
 Inter-Core Inteference in Data Store : 6413093
Heartbeat CPU 2 instructions: 100000000 cycles: 42506745 heartbeat IPC: 2.35256 cumulative IPC: 2.35257 (Simulation time: 8 hr 16 min 27 sec) 
 Total Blocks : 196608 Invalid Blocks : 0 Valid Blocks : 196608
 Total Tags : 491520 Threshold : 12288 Invalid Tags : 196616 Pr0 Tags : 98296 Pr1 Tags : 196608 num_pr0 : 12287
 SAE Count : 0
 Inter-Core Inteference in Data Store : 6413094
Heartbeat CPU 1 instructions: 100000000 cycles: 42506759 heartbeat IPC: 2.35257 cumulative IPC: 2.35257 (Simulation time: 8 hr 16 min 27 sec) 
 Total Blocks : 196608 Invalid Blocks : 0 Valid Blocks : 196608
 Total Tags : 491520 Threshold : 12288 Invalid Tags : 196616 Pr0 Tags : 98296 Pr1 Tags : 196608 num_pr0 : 12287
 SAE Count : 0
 Inter-Core Inteference in Data Store : 6413096
Heartbeat CPU 0 instructions: 100000000 cycles: 42506847 heartbeat IPC: 2.35257 cumulative IPC: 2.35256 (Simulation time: 8 hr 16 min 27 sec) 
 Total Blocks : 196608 Invalid Blocks : 0 Valid Blocks : 196608
 Total Tags : 491520 Threshold : 12288 Invalid Tags : 196615 Pr0 Tags : 98297 Pr1 Tags : 196608 num_pr0 : 12287
 SAE Count : 0
 Inter-Core Inteference in Data Store : 6413109
Heartbeat CPU 6 instructions: 100000000 cycles: 42506983 heartbeat IPC: 2.35254 cumulative IPC: 2.35255 (Simulation time: 8 hr 16 min 27 sec) 
 Total Blocks : 196608 Invalid Blocks : 0 Valid Blocks : 196608
 Total Tags : 491520 Threshold : 12288 Invalid Tags : 196615 Pr0 Tags : 98297 Pr1 Tags : 196608 num_pr0 : 12287
 SAE Count : 0
 Inter-Core Inteference in Data Store : 6413127
Heartbeat CPU 5 instructions: 110000000 cycles: 46757317 heartbeat IPC: 2.35258 cumulative IPC: 2.35257 (Simulation time: 9 hr 17 min 19 sec) 
 Total Blocks : 196608 Invalid Blocks : 0 Valid Blocks : 196608
 Total Tags : 491520 Threshold : 12288 Invalid Tags : 196612 Pr0 Tags : 98300 Pr1 Tags : 196608 num_pr0 : 12288
 SAE Count : 0
 Inter-Core Inteference in Data Store : 7074616
Heartbeat CPU 4 instructions: 110000000 cycles: 46757334 heartbeat IPC: 2.35259 cumulative IPC: 2.35257 (Simulation time: 9 hr 17 min 19 sec) 
 Total Blocks : 196608 Invalid Blocks : 0 Valid Blocks : 196608
 Total Tags : 491520 Threshold : 12288 Invalid Tags : 196614 Pr0 Tags : 98298 Pr1 Tags : 196608 num_pr0 : 12288
 SAE Count : 0
 Inter-Core Inteference in Data Store : 7074619
Heartbeat CPU 7 instructions: 110000000 cycles: 46757351 heartbeat IPC: 2.3526 cumulative IPC: 2.35257 (Simulation time: 9 hr 17 min 19 sec) 
 Total Blocks : 196608 Invalid Blocks : 0 Valid Blocks : 196608
 Total Tags : 491520 Threshold : 12288 Invalid Tags : 196613 Pr0 Tags : 98299 Pr1 Tags : 196608 num_pr0 : 12288
 SAE Count : 0
 Inter-Core Inteference in Data Store : 7074619
Heartbeat CPU 3 instructions: 110000000 cycles: 46757364 heartbeat IPC: 2.35258 cumulative IPC: 2.35257 (Simulation time: 9 hr 17 min 19 sec) 
 Total Blocks : 196608 Invalid Blocks : 0 Valid Blocks : 196608
 Total Tags : 491520 Threshold : 12288 Invalid Tags : 196614 Pr0 Tags : 98298 Pr1 Tags : 196608 num_pr0 : 12288
 SAE Count : 0
 Inter-Core Inteference in Data Store : 7074620
Heartbeat CPU 2 instructions: 110000000 cycles: 46757372 heartbeat IPC: 2.35259 cumulative IPC: 2.35257 (Simulation time: 9 hr 17 min 19 sec) 
 Total Blocks : 196608 Invalid Blocks : 0 Valid Blocks : 196608
 Total Tags : 491520 Threshold : 12288 Invalid Tags : 196614 Pr0 Tags : 98298 Pr1 Tags : 196608 num_pr0 : 12288
 SAE Count : 0
 Inter-Core Inteference in Data Store : 7074620
Heartbeat CPU 1 instructions: 110000000 cycles: 46757429 heartbeat IPC: 2.35257 cumulative IPC: 2.35257 (Simulation time: 9 hr 17 min 19 sec) 
 Total Blocks : 196608 Invalid Blocks : 0 Valid Blocks : 196608
 Total Tags : 491520 Threshold : 12288 Invalid Tags : 196614 Pr0 Tags : 98298 Pr1 Tags : 196608 num_pr0 : 12288
 SAE Count : 0
 Inter-Core Inteference in Data Store : 7074629
Heartbeat CPU 0 instructions: 110000000 cycles: 46757482 heartbeat IPC: 2.35259 cumulative IPC: 2.35256 (Simulation time: 9 hr 17 min 19 sec) 
 Total Blocks : 196608 Invalid Blocks : 0 Valid Blocks : 196608
 Total Tags : 491520 Threshold : 12288 Invalid Tags : 196616 Pr0 Tags : 98296 Pr1 Tags : 196608 num_pr0 : 12287
 SAE Count : 0
 Inter-Core Inteference in Data Store : 7074637
Heartbeat CPU 6 instructions: 110000000 cycles: 46757631 heartbeat IPC: 2.35258 cumulative IPC: 2.35256 (Simulation time: 9 hr 17 min 19 sec) 
 Total Blocks : 196608 Invalid Blocks : 0 Valid Blocks : 196608
 Total Tags : 491520 Threshold : 12288 Invalid Tags : 196615 Pr0 Tags : 98297 Pr1 Tags : 196608 num_pr0 : 12287
 SAE Count : 0
 Inter-Core Inteference in Data Store : 7074656
Heartbeat CPU 5 instructions: 120000003 cycles: 51007961 heartbeat IPC: 2.35259 cumulative IPC: 2.35257 (Simulation time: 10 hr 17 min 45 sec) 
 Total Blocks : 196608 Invalid Blocks : 0 Valid Blocks : 196608
 Total Tags : 491520 Threshold : 12288 Invalid Tags : 196622 Pr0 Tags : 98290 Pr1 Tags : 196608 num_pr0 : 12287
 SAE Count : 0
 Inter-Core Inteference in Data Store : 7736752
Heartbeat CPU 3 instructions: 120000003 cycles: 51008018 heartbeat IPC: 2.35258 cumulative IPC: 2.35257 (Simulation time: 10 hr 17 min 46 sec) 
 Total Blocks : 196608 Invalid Blocks : 0 Valid Blocks : 196608
 Total Tags : 491520 Threshold : 12288 Invalid Tags : 196622 Pr0 Tags : 98290 Pr1 Tags : 196608 num_pr0 : 12286
 SAE Count : 0
 Inter-Core Inteference in Data Store : 7736759
Heartbeat CPU 4 instructions: 120000003 cycles: 51008042 heartbeat IPC: 2.35255 cumulative IPC: 2.35257 (Simulation time: 10 hr 17 min 46 sec) 
 Total Blocks : 196608 Invalid Blocks : 0 Valid Blocks : 196608
 Total Tags : 491520 Threshold : 12288 Invalid Tags : 196622 Pr0 Tags : 98290 Pr1 Tags : 196608 num_pr0 : 12286
 SAE Count : 0
 Inter-Core Inteference in Data Store : 7736763
Heartbeat CPU 7 instructions: 120000003 cycles: 51008042 heartbeat IPC: 2.35256 cumulative IPC: 2.35257 (Simulation time: 10 hr 17 min 46 sec) 
 Total Blocks : 196608 Invalid Blocks : 0 Valid Blocks : 196608
 Total Tags : 491520 Threshold : 12288 Invalid Tags : 196622 Pr0 Tags : 98290 Pr1 Tags : 196608 num_pr0 : 12286
 SAE Count : 0
 Inter-Core Inteference in Data Store : 7736763
Heartbeat CPU 2 instructions: 120000003 cycles: 51008108 heartbeat IPC: 2.35253 cumulative IPC: 2.35257 (Simulation time: 10 hr 17 min 46 sec) 
 Total Blocks : 196608 Invalid Blocks : 0 Valid Blocks : 196608
 Total Tags : 491520 Threshold : 12288 Invalid Tags : 196623 Pr0 Tags : 98289 Pr1 Tags : 196608 num_pr0 : 12286
 SAE Count : 0
 Inter-Core Inteference in Data Store : 7736772
Heartbeat CPU 1 instructions: 120000003 cycles: 51008142 heartbeat IPC: 2.35255 cumulative IPC: 2.35257 (Simulation time: 10 hr 17 min 46 sec) 
 Total Blocks : 196608 Invalid Blocks : 0 Valid Blocks : 196608
 Total Tags : 491520 Threshold : 12288 Invalid Tags : 196624 Pr0 Tags : 98288 Pr1 Tags : 196608 num_pr0 : 12286
 SAE Count : 0
 Inter-Core Inteference in Data Store : 7736778
Heartbeat CPU 0 instructions: 120000003 cycles: 51008146 heartbeat IPC: 2.35257 cumulative IPC: 2.35257 (Simulation time: 10 hr 17 min 46 sec) 
 Total Blocks : 196608 Invalid Blocks : 0 Valid Blocks : 196608
 Total Tags : 491520 Threshold : 12288 Invalid Tags : 196624 Pr0 Tags : 98288 Pr1 Tags : 196608 num_pr0 : 12286
 SAE Count : 0
 Inter-Core Inteference in Data Store : 7736779
Heartbeat CPU 6 instructions: 120000003 cycles: 51008312 heartbeat IPC: 2.35256 cumulative IPC: 2.35256 (Simulation time: 10 hr 17 min 46 sec) 
 Total Blocks : 196608 Invalid Blocks : 0 Valid Blocks : 196608
 Total Tags : 491520 Threshold : 12288 Invalid Tags : 196621 Pr0 Tags : 98291 Pr1 Tags : 196608 num_pr0 : 12287
 SAE Count : 0
 Inter-Core Inteference in Data Store : 7736804
Heartbeat CPU 5 instructions: 130000003 cycles: 55258662 heartbeat IPC: 2.35255 cumulative IPC: 2.35257 (Simulation time: 11 hr 24 min 57 sec) 
 Total Blocks : 196608 Invalid Blocks : 0 Valid Blocks : 196608
 Total Tags : 491520 Threshold : 12288 Invalid Tags : 196616 Pr0 Tags : 98296 Pr1 Tags : 196608 num_pr0 : 12286
 SAE Count : 0
 Inter-Core Inteference in Data Store : 8397433
Heartbeat CPU 4 instructions: 130000003 cycles: 55258710 heartbeat IPC: 2.35257 cumulative IPC: 2.35257 (Simulation time: 11 hr 24 min 57 sec) 
 Total Blocks : 196608 Invalid Blocks : 0 Valid Blocks : 196608
 Total Tags : 491520 Threshold : 12288 Invalid Tags : 196618 Pr0 Tags : 98294 Pr1 Tags : 196608 num_pr0 : 12286
 SAE Count : 0
 Inter-Core Inteference in Data Store : 8397445
Heartbeat CPU 7 instructions: 130000003 cycles: 55258721 heartbeat IPC: 2.35257 cumulative IPC: 2.35257 (Simulation time: 11 hr 24 min 57 sec) 
 Total Blocks : 196608 Invalid Blocks : 0 Valid Blocks : 196608
 Total Tags : 491520 Threshold : 12288 Invalid Tags : 196617 Pr0 Tags : 98295 Pr1 Tags : 196608 num_pr0 : 12286
 SAE Count : 0
 Inter-Core Inteference in Data Store : 8397448
Heartbeat CPU 3 instructions: 130000003 cycles: 55258751 heartbeat IPC: 2.35254 cumulative IPC: 2.35257 (Simulation time: 11 hr 24 min 57 sec) 
 Total Blocks : 196608 Invalid Blocks : 0 Valid Blocks : 196608
 Total Tags : 491520 Threshold : 12288 Invalid Tags : 196617 Pr0 Tags : 98295 Pr1 Tags : 196608 num_pr0 : 12286
 SAE Count : 0
 Inter-Core Inteference in Data Store : 8397451
Heartbeat CPU 2 instructions: 130000003 cycles: 55258779 heartbeat IPC: 2.35257 cumulative IPC: 2.35257 (Simulation time: 11 hr 24 min 57 sec) 
 Total Blocks : 196608 Invalid Blocks : 0 Valid Blocks : 196608
 Total Tags : 491520 Threshold : 12288 Invalid Tags : 196617 Pr0 Tags : 98295 Pr1 Tags : 196608 num_pr0 : 12286
 SAE Count : 0
 Inter-Core Inteference in Data Store : 8397456
Heartbeat CPU 0 instructions: 130000003 cycles: 55258855 heartbeat IPC: 2.35255 cumulative IPC: 2.35256 (Simulation time: 11 hr 24 min 57 sec) 
 Total Blocks : 196608 Invalid Blocks : 0 Valid Blocks : 196608
 Total Tags : 491520 Threshold : 12288 Invalid Tags : 196616 Pr0 Tags : 98296 Pr1 Tags : 196608 num_pr0 : 12286
 SAE Count : 0
 Inter-Core Inteference in Data Store : 8397468
Heartbeat CPU 1 instructions: 130000003 cycles: 55258860 heartbeat IPC: 2.35254 cumulative IPC: 2.35256 (Simulation time: 11 hr 24 min 57 sec) 
 Total Blocks : 196608 Invalid Blocks : 0 Valid Blocks : 196608
 Total Tags : 491520 Threshold : 12288 Invalid Tags : 196617 Pr0 Tags : 98295 Pr1 Tags : 196608 num_pr0 : 12286
 SAE Count : 0
 Inter-Core Inteference in Data Store : 8397470
Heartbeat CPU 6 instructions: 130000003 cycles: 55258993 heartbeat IPC: 2.35256 cumulative IPC: 2.35256 (Simulation time: 11 hr 24 min 57 sec) 
 Total Blocks : 196608 Invalid Blocks : 0 Valid Blocks : 196608
 Total Tags : 491520 Threshold : 12288 Invalid Tags : 196616 Pr0 Tags : 98296 Pr1 Tags : 196608 num_pr0 : 12286
 SAE Count : 0
 Inter-Core Inteference in Data Store : 8397490
Heartbeat CPU 4 instructions: 140000000 cycles: 59509228 heartbeat IPC: 2.35265 cumulative IPC: 2.35258 (Simulation time: 12 hr 33 min 16 sec) 
 Total Blocks : 196608 Invalid Blocks : 0 Valid Blocks : 196608
 Total Tags : 491520 Threshold : 12288 Invalid Tags : 196616 Pr0 Tags : 98296 Pr1 Tags : 196608 num_pr0 : 12287
 SAE Count : 0
 Inter-Core Inteference in Data Store : 9058785
Heartbeat CPU 2 instructions: 140000000 cycles: 59509276 heartbeat IPC: 2.35267 cumulative IPC: 2.35257 (Simulation time: 12 hr 33 min 16 sec) 
 Total Blocks : 196608 Invalid Blocks : 0 Valid Blocks : 196608
 Total Tags : 491520 Threshold : 12288 Invalid Tags : 196615 Pr0 Tags : 98297 Pr1 Tags : 196608 num_pr0 : 12287
 SAE Count : 0
 Inter-Core Inteference in Data Store : 9058793
Heartbeat CPU 5 instructions: 140000000 cycles: 59509276 heartbeat IPC: 2.3526 cumulative IPC: 2.35257 (Simulation time: 12 hr 33 min 16 sec) 
 Total Blocks : 196608 Invalid Blocks : 0 Valid Blocks : 196608
 Total Tags : 491520 Threshold : 12288 Invalid Tags : 196615 Pr0 Tags : 98297 Pr1 Tags : 196608 num_pr0 : 12287
 SAE Count : 0
 Inter-Core Inteference in Data Store : 9058793
Heartbeat CPU 7 instructions: 140000000 cycles: 59509308 heartbeat IPC: 2.35262 cumulative IPC: 2.35257 (Simulation time: 12 hr 33 min 17 sec) 
 Total Blocks : 196608 Invalid Blocks : 0 Valid Blocks : 196608
 Total Tags : 491520 Threshold : 12288 Invalid Tags : 196616 Pr0 Tags : 98296 Pr1 Tags : 196608 num_pr0 : 12287
 SAE Count : 0
 Inter-Core Inteference in Data Store : 9058800
Heartbeat CPU 3 instructions: 140000000 cycles: 59509310 heartbeat IPC: 2.35263 cumulative IPC: 2.35257 (Simulation time: 12 hr 33 min 17 sec) 
 Total Blocks : 196608 Invalid Blocks : 0 Valid Blocks : 196608
 Total Tags : 491520 Threshold : 12288 Invalid Tags : 196616 Pr0 Tags : 98296 Pr1 Tags : 196608 num_pr0 : 12287
 SAE Count : 0
 Inter-Core Inteference in Data Store : 9058800
Heartbeat CPU 0 instructions: 140000000 cycles: 59509405 heartbeat IPC: 2.35264 cumulative IPC: 2.35257 (Simulation time: 12 hr 33 min 17 sec) 
 Total Blocks : 196608 Invalid Blocks : 0 Valid Blocks : 196608
 Total Tags : 491520 Threshold : 12288 Invalid Tags : 196615 Pr0 Tags : 98297 Pr1 Tags : 196608 num_pr0 : 12287
 SAE Count : 0
 Inter-Core Inteference in Data Store : 9058815
Heartbeat CPU 1 instructions: 140000000 cycles: 59509406 heartbeat IPC: 2.35264 cumulative IPC: 2.35257 (Simulation time: 12 hr 33 min 17 sec) 
 Total Blocks : 196608 Invalid Blocks : 0 Valid Blocks : 196608
 Total Tags : 491520 Threshold : 12288 Invalid Tags : 196615 Pr0 Tags : 98297 Pr1 Tags : 196608 num_pr0 : 12287
 SAE Count : 0
 Inter-Core Inteference in Data Store : 9058815
Heartbeat CPU 6 instructions: 140000000 cycles: 59509562 heartbeat IPC: 2.35263 cumulative IPC: 2.35256 (Simulation time: 12 hr 33 min 17 sec) 
 Total Blocks : 196608 Invalid Blocks : 0 Valid Blocks : 196608
 Total Tags : 491520 Threshold : 12288 Invalid Tags : 196618 Pr0 Tags : 98294 Pr1 Tags : 196608 num_pr0 : 12286
 SAE Count : 0
 Inter-Core Inteference in Data Store : 9058846
Heartbeat CPU 4 instructions: 150000000 cycles: 63759834 heartbeat IPC: 2.35261 cumulative IPC: 2.35258 (Simulation time: 13 hr 41 min 40 sec) 
 Total Blocks : 196608 Invalid Blocks : 0 Valid Blocks : 196608
 Total Tags : 491520 Threshold : 12288 Invalid Tags : 196621 Pr0 Tags : 98291 Pr1 Tags : 196608 num_pr0 : 12287
 SAE Count : 0
 Inter-Core Inteference in Data Store : 9721214
Heartbeat CPU 5 instructions: 150000000 cycles: 63759877 heartbeat IPC: 2.35261 cumulative IPC: 2.35258 (Simulation time: 13 hr 41 min 40 sec) 
 Total Blocks : 196608 Invalid Blocks : 0 Valid Blocks : 196608
 Total Tags : 491520 Threshold : 12288 Invalid Tags : 196621 Pr0 Tags : 98291 Pr1 Tags : 196608 num_pr0 : 12287
 SAE Count : 0
 Inter-Core Inteference in Data Store : 9721221
Heartbeat CPU 2 instructions: 150000000 cycles: 63759925 heartbeat IPC: 2.35258 cumulative IPC: 2.35257 (Simulation time: 13 hr 41 min 40 sec) 
 Total Blocks : 196608 Invalid Blocks : 0 Valid Blocks : 196608
 Total Tags : 491520 Threshold : 12288 Invalid Tags : 196619 Pr0 Tags : 98293 Pr1 Tags : 196608 num_pr0 : 12287
 SAE Count : 0
 Inter-Core Inteference in Data Store : 9721235
Heartbeat CPU 7 instructions: 150000000 cycles: 63759965 heartbeat IPC: 2.35258 cumulative IPC: 2.35257 (Simulation time: 13 hr 41 min 40 sec) 
 Total Blocks : 196608 Invalid Blocks : 0 Valid Blocks : 196608
 Total Tags : 491520 Threshold : 12288 Invalid Tags : 196619 Pr0 Tags : 98293 Pr1 Tags : 196608 num_pr0 : 12287
 SAE Count : 0
 Inter-Core Inteference in Data Store : 9721239
Heartbeat CPU 3 instructions: 150000000 cycles: 63759969 heartbeat IPC: 2.35258 cumulative IPC: 2.35257 (Simulation time: 13 hr 41 min 40 sec) 
 Total Blocks : 196608 Invalid Blocks : 0 Valid Blocks : 196608
 Total Tags : 491520 Threshold : 12288 Invalid Tags : 196619 Pr0 Tags : 98293 Pr1 Tags : 196608 num_pr0 : 12287
 SAE Count : 0
 Inter-Core Inteference in Data Store : 9721241
Heartbeat CPU 1 instructions: 150000000 cycles: 63760008 heartbeat IPC: 2.35261 cumulative IPC: 2.35257 (Simulation time: 13 hr 41 min 40 sec) 
 Total Blocks : 196608 Invalid Blocks : 0 Valid Blocks : 196608
 Total Tags : 491520 Threshold : 12288 Invalid Tags : 196619 Pr0 Tags : 98293 Pr1 Tags : 196608 num_pr0 : 12287
 SAE Count : 0
 Inter-Core Inteference in Data Store : 9721247
Heartbeat CPU 0 instructions: 150000000 cycles: 63760087 heartbeat IPC: 2.35256 cumulative IPC: 2.35257 (Simulation time: 13 hr 41 min 40 sec) 
 Total Blocks : 196608 Invalid Blocks : 0 Valid Blocks : 196608
 Total Tags : 491520 Threshold : 12288 Invalid Tags : 196619 Pr0 Tags : 98293 Pr1 Tags : 196608 num_pr0 : 12287
 SAE Count : 0
 Inter-Core Inteference in Data Store : 9721262
Heartbeat CPU 6 instructions: 150000000 cycles: 63760243 heartbeat IPC: 2.35256 cumulative IPC: 2.35256 (Simulation time: 13 hr 41 min 40 sec) 
 Total Blocks : 196608 Invalid Blocks : 0 Valid Blocks : 196608
 Total Tags : 491520 Threshold : 12288 Invalid Tags : 196619 Pr0 Tags : 98293 Pr1 Tags : 196608 num_pr0 : 12287
 SAE Count : 0
 Inter-Core Inteference in Data Store : 9721287
Heartbeat CPU 4 instructions: 160000001 cycles: 68010545 heartbeat IPC: 2.35255 cumulative IPC: 2.35258 (Simulation time: 14 hr 51 min 0 sec) 
 Total Blocks : 196608 Invalid Blocks : 0 Valid Blocks : 196608
 Total Tags : 491520 Threshold : 12288 Invalid Tags : 196615 Pr0 Tags : 98297 Pr1 Tags : 196608 num_pr0 : 12287
 SAE Count : 0
 Inter-Core Inteference in Data Store : 10383031
Heartbeat CPU 5 instructions: 160000001 cycles: 68010610 heartbeat IPC: 2.35254 cumulative IPC: 2.35257 (Simulation time: 14 hr 51 min 1 sec) 
 Total Blocks : 196608 Invalid Blocks : 0 Valid Blocks : 196608
 Total Tags : 491520 Threshold : 12288 Invalid Tags : 196616 Pr0 Tags : 98296 Pr1 Tags : 196608 num_pr0 : 12287
 SAE Count : 0
 Inter-Core Inteference in Data Store : 10383042
Heartbeat CPU 2 instructions: 160000001 cycles: 68010684 heartbeat IPC: 2.35252 cumulative IPC: 2.35257 (Simulation time: 14 hr 51 min 1 sec) 
 Total Blocks : 196608 Invalid Blocks : 0 Valid Blocks : 196608
 Total Tags : 491520 Threshold : 12288 Invalid Tags : 196617 Pr0 Tags : 98295 Pr1 Tags : 196608 num_pr0 : 12288
 SAE Count : 0
 Inter-Core Inteference in Data Store : 10383055
Heartbeat CPU 3 instructions: 160000001 cycles: 68010713 heartbeat IPC: 2.35253 cumulative IPC: 2.35257 (Simulation time: 14 hr 51 min 1 sec) 
 Total Blocks : 196608 Invalid Blocks : 0 Valid Blocks : 196608
 Total Tags : 491520 Threshold : 12288 Invalid Tags : 196614 Pr0 Tags : 98298 Pr1 Tags : 196608 num_pr0 : 12288
 SAE Count : 0
 Inter-Core Inteference in Data Store : 10383058
Heartbeat CPU 7 instructions: 160000001 cycles: 68010775 heartbeat IPC: 2.35249 cumulative IPC: 2.35257 (Simulation time: 14 hr 51 min 1 sec) 
 Total Blocks : 196608 Invalid Blocks : 0 Valid Blocks : 196608
 Total Tags : 491520 Threshold : 12288 Invalid Tags : 196617 Pr0 Tags : 98295 Pr1 Tags : 196608 num_pr0 : 12287
 SAE Count : 0
 Inter-Core Inteference in Data Store : 10383069
Heartbeat CPU 1 instructions: 160000001 cycles: 68010782 heartbeat IPC: 2.35251 cumulative IPC: 2.35257 (Simulation time: 14 hr 51 min 1 sec) 
 Total Blocks : 196608 Invalid Blocks : 0 Valid Blocks : 196608
 Total Tags : 491520 Threshold : 12288 Invalid Tags : 196617 Pr0 Tags : 98295 Pr1 Tags : 196608 num_pr0 : 12287
 SAE Count : 0
 Inter-Core Inteference in Data Store : 10383069
Heartbeat CPU 0 instructions: 160000001 cycles: 68010860 heartbeat IPC: 2.35251 cumulative IPC: 2.35257 (Simulation time: 14 hr 51 min 1 sec) 
 Total Blocks : 196608 Invalid Blocks : 0 Valid Blocks : 196608
 Total Tags : 491520 Threshold : 12288 Invalid Tags : 196617 Pr0 Tags : 98295 Pr1 Tags : 196608 num_pr0 : 12287
 SAE Count : 0
 Inter-Core Inteference in Data Store : 10383084
Heartbeat CPU 6 instructions: 160000001 cycles: 68011001 heartbeat IPC: 2.35252 cumulative IPC: 2.35256 (Simulation time: 14 hr 51 min 1 sec) 
 Total Blocks : 196608 Invalid Blocks : 0 Valid Blocks : 196608
 Total Tags : 491520 Threshold : 12288 Invalid Tags : 196613 Pr0 Tags : 98299 Pr1 Tags : 196608 num_pr0 : 12288
 SAE Count : 0
 Inter-Core Inteference in Data Store : 10383102
Heartbeat CPU 4 instructions: 170000001 cycles: 72261110 heartbeat IPC: 2.35263 cumulative IPC: 2.35258 (Simulation time: 15 hr 58 min 6 sec) 
 Total Blocks : 196608 Invalid Blocks : 0 Valid Blocks : 196608
 Total Tags : 491520 Threshold : 12288 Invalid Tags : 196616 Pr0 Tags : 98296 Pr1 Tags : 196608 num_pr0 : 12287
 SAE Count : 0
 Inter-Core Inteference in Data Store : 11045104
Heartbeat CPU 5 instructions: 170000001 cycles: 72261178 heartbeat IPC: 2.35263 cumulative IPC: 2.35258 (Simulation time: 15 hr 58 min 7 sec) 
 Total Blocks : 196608 Invalid Blocks : 0 Valid Blocks : 196608
 Total Tags : 491520 Threshold : 12288 Invalid Tags : 196618 Pr0 Tags : 98294 Pr1 Tags : 196608 num_pr0 : 12287
 SAE Count : 0
 Inter-Core Inteference in Data Store : 11045112
Heartbeat CPU 2 instructions: 170000001 cycles: 72261224 heartbeat IPC: 2.35264 cumulative IPC: 2.35258 (Simulation time: 15 hr 58 min 7 sec) 
 Total Blocks : 196608 Invalid Blocks : 0 Valid Blocks : 196608
 Total Tags : 491520 Threshold : 12288 Invalid Tags : 196617 Pr0 Tags : 98295 Pr1 Tags : 196608 num_pr0 : 12287
 SAE Count : 0
 Inter-Core Inteference in Data Store : 11045125
Heartbeat CPU 3 instructions: 170000001 cycles: 72261264 heartbeat IPC: 2.35264 cumulative IPC: 2.35257 (Simulation time: 15 hr 58 min 7 sec) 
 Total Blocks : 196608 Invalid Blocks : 0 Valid Blocks : 196608
 Total Tags : 491520 Threshold : 12288 Invalid Tags : 196617 Pr0 Tags : 98295 Pr1 Tags : 196608 num_pr0 : 12288
 SAE Count : 0
 Inter-Core Inteference in Data Store : 11045132
Heartbeat CPU 1 instructions: 170000001 cycles: 72261323 heartbeat IPC: 2.35264 cumulative IPC: 2.35257 (Simulation time: 15 hr 58 min 7 sec) 
 Total Blocks : 196608 Invalid Blocks : 0 Valid Blocks : 196608
 Total Tags : 491520 Threshold : 12288 Invalid Tags : 196617 Pr0 Tags : 98295 Pr1 Tags : 196608 num_pr0 : 12288
 SAE Count : 0
 Inter-Core Inteference in Data Store : 11045137
Heartbeat CPU 0 instructions: 170000001 cycles: 72261363 heartbeat IPC: 2.35266 cumulative IPC: 2.35257 (Simulation time: 15 hr 58 min 8 sec) 
 Total Blocks : 196608 Invalid Blocks : 0 Valid Blocks : 196608
 Total Tags : 491520 Threshold : 12288 Invalid Tags : 196617 Pr0 Tags : 98295 Pr1 Tags : 196608 num_pr0 : 12287
 SAE Count : 0
 Inter-Core Inteference in Data Store : 11045148
Heartbeat CPU 7 instructions: 170000001 cycles: 72261375 heartbeat IPC: 2.35261 cumulative IPC: 2.35257 (Simulation time: 15 hr 58 min 8 sec) 
 Total Blocks : 196608 Invalid Blocks : 0 Valid Blocks : 196608
 Total Tags : 491520 Threshold : 12288 Invalid Tags : 196619 Pr0 Tags : 98293 Pr1 Tags : 196608 num_pr0 : 12286
 SAE Count : 0
 Inter-Core Inteference in Data Store : 11045154
Heartbeat CPU 6 instructions: 170000001 cycles: 72261522 heartbeat IPC: 2.35265 cumulative IPC: 2.35257 (Simulation time: 15 hr 58 min 8 sec) 
 Total Blocks : 196608 Invalid Blocks : 0 Valid Blocks : 196608
 Total Tags : 491520 Threshold : 12288 Invalid Tags : 196621 Pr0 Tags : 98291 Pr1 Tags : 196608 num_pr0 : 12286
 SAE Count : 0
 Inter-Core Inteference in Data Store : 11045185
Heartbeat CPU 4 instructions: 180000003 cycles: 76511719 heartbeat IPC: 2.3526 cumulative IPC: 2.35258 (Simulation time: 17 hr 2 min 26 sec) 
 Total Blocks : 196608 Invalid Blocks : 0 Valid Blocks : 196608
 Total Tags : 491520 Threshold : 12288 Invalid Tags : 196618 Pr0 Tags : 98294 Pr1 Tags : 196608 num_pr0 : 12286
 SAE Count : 0
 Inter-Core Inteference in Data Store : 11707234
Heartbeat CPU 5 instructions: 180000003 cycles: 76511763 heartbeat IPC: 2.35262 cumulative IPC: 2.35258 (Simulation time: 17 hr 2 min 26 sec) 
 Total Blocks : 196608 Invalid Blocks : 0 Valid Blocks : 196608
 Total Tags : 491520 Threshold : 12288 Invalid Tags : 196618 Pr0 Tags : 98294 Pr1 Tags : 196608 num_pr0 : 12286
 SAE Count : 0
 Inter-Core Inteference in Data Store : 11707237
Heartbeat CPU 2 instructions: 180000003 cycles: 76511813 heartbeat IPC: 2.35262 cumulative IPC: 2.35258 (Simulation time: 17 hr 2 min 26 sec) 
 Total Blocks : 196608 Invalid Blocks : 0 Valid Blocks : 196608
 Total Tags : 491520 Threshold : 12288 Invalid Tags : 196617 Pr0 Tags : 98295 Pr1 Tags : 196608 num_pr0 : 12286
 SAE Count : 0
 Inter-Core Inteference in Data Store : 11707244
Heartbeat CPU 3 instructions: 180000003 cycles: 76511893 heartbeat IPC: 2.35259 cumulative IPC: 2.35258 (Simulation time: 17 hr 2 min 26 sec) 
 Total Blocks : 196608 Invalid Blocks : 0 Valid Blocks : 196608
 Total Tags : 491520 Threshold : 12288 Invalid Tags : 196618 Pr0 Tags : 98294 Pr1 Tags : 196608 num_pr0 : 12286
 SAE Count : 0
 Inter-Core Inteference in Data Store : 11707248
Heartbeat CPU 7 instructions: 180000003 cycles: 76511951 heartbeat IPC: 2.35262 cumulative IPC: 2.35257 (Simulation time: 17 hr 2 min 27 sec) 
 Total Blocks : 196608 Invalid Blocks : 0 Valid Blocks : 196608
 Total Tags : 491520 Threshold : 12288 Invalid Tags : 196618 Pr0 Tags : 98294 Pr1 Tags : 196608 num_pr0 : 12286
 SAE Count : 0
 Inter-Core Inteference in Data Store : 11707256
Heartbeat CPU 1 instructions: 180000003 cycles: 76511965 heartbeat IPC: 2.35259 cumulative IPC: 2.35257 (Simulation time: 17 hr 2 min 27 sec) 
 Total Blocks : 196608 Invalid Blocks : 0 Valid Blocks : 196608
 Total Tags : 491520 Threshold : 12288 Invalid Tags : 196618 Pr0 Tags : 98294 Pr1 Tags : 196608 num_pr0 : 12286
 SAE Count : 0
 Inter-Core Inteference in Data Store : 11707256
Heartbeat CPU 0 instructions: 180000003 cycles: 76511974 heartbeat IPC: 2.3526 cumulative IPC: 2.35257 (Simulation time: 17 hr 2 min 27 sec) 
 Total Blocks : 196608 Invalid Blocks : 0 Valid Blocks : 196608
 Total Tags : 491520 Threshold : 12288 Invalid Tags : 196618 Pr0 Tags : 98294 Pr1 Tags : 196608 num_pr0 : 12286
 SAE Count : 0
 Inter-Core Inteference in Data Store : 11707256
Heartbeat CPU 6 instructions: 180000003 cycles: 76512094 heartbeat IPC: 2.35262 cumulative IPC: 2.35257 (Simulation time: 17 hr 2 min 27 sec) 
 Total Blocks : 196608 Invalid Blocks : 0 Valid Blocks : 196608
 Total Tags : 491520 Threshold : 12288 Invalid Tags : 196619 Pr0 Tags : 98293 Pr1 Tags : 196608 num_pr0 : 12286
 SAE Count : 0
 Inter-Core Inteference in Data Store : 11707275
Heartbeat CPU 4 instructions: 190000002 cycles: 80762453 heartbeat IPC: 2.35253 cumulative IPC: 2.35258 (Simulation time: 18 hr 7 min 46 sec) 
 Total Blocks : 196608 Invalid Blocks : 0 Valid Blocks : 196608
 Total Tags : 491520 Threshold : 12288 Invalid Tags : 196614 Pr0 Tags : 98298 Pr1 Tags : 196608 num_pr0 : 12287
 SAE Count : 0
 Inter-Core Inteference in Data Store : 12369539
Heartbeat CPU 5 instructions: 190000002 cycles: 80762465 heartbeat IPC: 2.35255 cumulative IPC: 2.35258 (Simulation time: 18 hr 7 min 46 sec) 
 Total Blocks : 196608 Invalid Blocks : 0 Valid Blocks : 196608
 Total Tags : 491520 Threshold : 12288 Invalid Tags : 196614 Pr0 Tags : 98298 Pr1 Tags : 196608 num_pr0 : 12287
 SAE Count : 0
 Inter-Core Inteference in Data Store : 12369543
Heartbeat CPU 2 instructions: 190000002 cycles: 80762523 heartbeat IPC: 2.35255 cumulative IPC: 2.35258 (Simulation time: 18 hr 7 min 46 sec) 
 Total Blocks : 196608 Invalid Blocks : 0 Valid Blocks : 196608
 Total Tags : 491520 Threshold : 12288 Invalid Tags : 196614 Pr0 Tags : 98298 Pr1 Tags : 196608 num_pr0 : 12287
 SAE Count : 0
 Inter-Core Inteference in Data Store : 12369546
Heartbeat CPU 3 instructions: 190000002 cycles: 80762695 heartbeat IPC: 2.3525 cumulative IPC: 2.35257 (Simulation time: 18 hr 7 min 46 sec) 
 Total Blocks : 196608 Invalid Blocks : 0 Valid Blocks : 196608
 Total Tags : 491520 Threshold : 12288 Invalid Tags : 196619 Pr0 Tags : 98293 Pr1 Tags : 196608 num_pr0 : 12287
 SAE Count : 0
 Inter-Core Inteference in Data Store : 12369568
Heartbeat CPU 7 instructions: 190000002 cycles: 80762728 heartbeat IPC: 2.35251 cumulative IPC: 2.35257 (Simulation time: 18 hr 7 min 46 sec) 
 Total Blocks : 196608 Invalid Blocks : 0 Valid Blocks : 196608
 Total Tags : 491520 Threshold : 12288 Invalid Tags : 196620 Pr0 Tags : 98292 Pr1 Tags : 196608 num_pr0 : 12287
 SAE Count : 0
 Inter-Core Inteference in Data Store : 12369570
Heartbeat CPU 0 instructions: 190000002 cycles: 80762757 heartbeat IPC: 2.35251 cumulative IPC: 2.35257 (Simulation time: 18 hr 7 min 46 sec) 
 Total Blocks : 196608 Invalid Blocks : 0 Valid Blocks : 196608
 Total Tags : 491520 Threshold : 12288 Invalid Tags : 196621 Pr0 Tags : 98291 Pr1 Tags : 196608 num_pr0 : 12287
 SAE Count : 0
 Inter-Core Inteference in Data Store : 12369573
Heartbeat CPU 1 instructions: 190000002 cycles: 80762773 heartbeat IPC: 2.35249 cumulative IPC: 2.35257 (Simulation time: 18 hr 7 min 47 sec) 
 Total Blocks : 196608 Invalid Blocks : 0 Valid Blocks : 196608
 Total Tags : 491520 Threshold : 12288 Invalid Tags : 196621 Pr0 Tags : 98291 Pr1 Tags : 196608 num_pr0 : 12287
 SAE Count : 0
 Inter-Core Inteference in Data Store : 12369578
Heartbeat CPU 6 instructions: 190000002 cycles: 80762904 heartbeat IPC: 2.35249 cumulative IPC: 2.35257 (Simulation time: 18 hr 7 min 47 sec) 
 Total Blocks : 196608 Invalid Blocks : 0 Valid Blocks : 196608
 Total Tags : 491520 Threshold : 12288 Invalid Tags : 196615 Pr0 Tags : 98297 Pr1 Tags : 196608 num_pr0 : 12288
 SAE Count : 0
 Inter-Core Inteference in Data Store : 12369594
Heartbeat CPU 4 instructions: 200000001 cycles: 85013064 heartbeat IPC: 2.3526 cumulative IPC: 2.35258 (Simulation time: 19 hr 11 min 28 sec) 
 Total Blocks : 196608 Invalid Blocks : 0 Valid Blocks : 196608
 Total Tags : 491520 Threshold : 12288 Invalid Tags : 196616 Pr0 Tags : 98296 Pr1 Tags : 196608 num_pr0 : 12287
 SAE Count : 0
 Inter-Core Inteference in Data Store : 13032453
Heartbeat CPU 5 instructions: 200000001 cycles: 85013093 heartbeat IPC: 2.35259 cumulative IPC: 2.35258 (Simulation time: 19 hr 11 min 28 sec) 
 Total Blocks : 196608 Invalid Blocks : 0 Valid Blocks : 196608
 Total Tags : 491520 Threshold : 12288 Invalid Tags : 196616 Pr0 Tags : 98296 Pr1 Tags : 196608 num_pr0 : 12288
 SAE Count : 0
 Inter-Core Inteference in Data Store : 13032455
Heartbeat CPU 2 instructions: 200000001 cycles: 85013117 heartbeat IPC: 2.35261 cumulative IPC: 2.35258 (Simulation time: 19 hr 11 min 28 sec) 
 Total Blocks : 196608 Invalid Blocks : 0 Valid Blocks : 196608
 Total Tags : 491520 Threshold : 12288 Invalid Tags : 196618 Pr0 Tags : 98294 Pr1 Tags : 196608 num_pr0 : 12287
 SAE Count : 0
 Inter-Core Inteference in Data Store : 13032461
Heartbeat CPU 7 instructions: 200000001 cycles: 85013318 heartbeat IPC: 2.35261 cumulative IPC: 2.35257 (Simulation time: 19 hr 11 min 28 sec) 
 Total Blocks : 196608 Invalid Blocks : 0 Valid Blocks : 196608
 Total Tags : 491520 Threshold : 12288 Invalid Tags : 196612 Pr0 Tags : 98300 Pr1 Tags : 196608 num_pr0 : 12288
 SAE Count : 0
 Inter-Core Inteference in Data Store : 13032488
Heartbeat CPU 0 instructions: 200000001 cycles: 85013361 heartbeat IPC: 2.35261 cumulative IPC: 2.35257 (Simulation time: 19 hr 11 min 28 sec) 
 Total Blocks : 196608 Invalid Blocks : 0 Valid Blocks : 196608
 Total Tags : 491520 Threshold : 12288 Invalid Tags : 196611 Pr0 Tags : 98301 Pr1 Tags : 196608 num_pr0 : 12287
 SAE Count : 0
 Inter-Core Inteference in Data Store : 13032496
Heartbeat CPU 3 instructions: 200000001 cycles: 85013396 heartbeat IPC: 2.35255 cumulative IPC: 2.35257 (Simulation time: 19 hr 11 min 28 sec) 
 Total Blocks : 196608 Invalid Blocks : 0 Valid Blocks : 196608
 Total Tags : 491520 Threshold : 12288 Invalid Tags : 196613 Pr0 Tags : 98299 Pr1 Tags : 196608 num_pr0 : 12287
 SAE Count : 0
 Inter-Core Inteference in Data Store : 13032501
Heartbeat CPU 1 instructions: 200000001 cycles: 85013432 heartbeat IPC: 2.35258 cumulative IPC: 2.35257 (Simulation time: 19 hr 11 min 28 sec) 
 Total Blocks : 196608 Invalid Blocks : 0 Valid Blocks : 196608
 Total Tags : 491520 Threshold : 12288 Invalid Tags : 196613 Pr0 Tags : 98299 Pr1 Tags : 196608 num_pr0 : 12287
 SAE Count : 0
 Inter-Core Inteference in Data Store : 13032504
Heartbeat CPU 6 instructions: 200000001 cycles: 85013529 heartbeat IPC: 2.35259 cumulative IPC: 2.35257 (Simulation time: 19 hr 11 min 28 sec) 
 Total Blocks : 196608 Invalid Blocks : 0 Valid Blocks : 196608
 Total Tags : 491520 Threshold : 12288 Invalid Tags : 196616 Pr0 Tags : 98296 Pr1 Tags : 196608 num_pr0 : 12287
 SAE Count : 0
 Inter-Core Inteference in Data Store : 13032515

Warmup complete CPU 0 instructions: 200000420 cycles: 85013529 (Simulation time: 19 hr 11 min 28 sec) 
Warmup complete CPU 1 instructions: 200000210 cycles: 85013529 (Simulation time: 19 hr 11 min 28 sec) 
Warmup complete CPU 2 instructions: 200000984 cycles: 85013529 (Simulation time: 19 hr 11 min 28 sec) 
Warmup complete CPU 3 instructions: 200000316 cycles: 85013529 (Simulation time: 19 hr 11 min 28 sec) 
Warmup complete CPU 4 instructions: 200001126 cycles: 85013529 (Simulation time: 19 hr 11 min 28 sec) 
Warmup complete CPU 5 instructions: 200001037 cycles: 85013529 (Simulation time: 19 hr 11 min 28 sec) 
Warmup complete CPU 6 instructions: 200000001 cycles: 85013529 (Simulation time: 19 hr 11 min 28 sec) 
Warmup complete CPU 7 instructions: 200000459 cycles: 85013528 (Simulation time: 19 hr 11 min 28 sec) 

Heartbeat CPU 6 instructions: 210000001 cycles: 101650216 heartbeat IPC: 0.601081 cumulative IPC: 0.601081 (Simulation time: 20 hr 22 min 7 sec) 
 Total Blocks : 196608 Invalid Blocks : 0 Valid Blocks : 196608
 Total Tags : 491520 Threshold : 12288 Invalid Tags : 196611 Pr0 Tags : 98301 Pr1 Tags : 196608 num_pr0 : 12287
 SAE Count : 0
 Inter-Core Inteference in Data Store : 650501
Heartbeat CPU 2 instructions: 210000001 cycles: 101678797 heartbeat IPC: 0.600036 cumulative IPC: 0.599991 (Simulation time: 20 hr 22 min 13 sec) 
 Total Blocks : 196608 Invalid Blocks : 0 Valid Blocks : 196608
 Total Tags : 491520 Threshold : 12288 Invalid Tags : 196614 Pr0 Tags : 98298 Pr1 Tags : 196608 num_pr0 : 12288
 SAE Count : 0
 Inter-Core Inteference in Data Store : 651644
Heartbeat CPU 4 instructions: 210000001 cycles: 101688607 heartbeat IPC: 0.599681 cumulative IPC: 0.59963 (Simulation time: 20 hr 22 min 16 sec) 
 Total Blocks : 196608 Invalid Blocks : 0 Valid Blocks : 196608
 Total Tags : 491520 Threshold : 12288 Invalid Tags : 196613 Pr0 Tags : 98299 Pr1 Tags : 196608 num_pr0 : 12287
 SAE Count : 0
 Inter-Core Inteference in Data Store : 652055
Heartbeat CPU 0 instructions: 210000002 cycles: 101708076 heartbeat IPC: 0.598992 cumulative IPC: 0.598973 (Simulation time: 20 hr 22 min 20 sec) 
 Total Blocks : 196608 Invalid Blocks : 0 Valid Blocks : 196608
 Total Tags : 491520 Threshold : 12288 Invalid Tags : 196612 Pr0 Tags : 98300 Pr1 Tags : 196608 num_pr0 : 12288
 SAE Count : 0
 Inter-Core Inteference in Data Store : 652859
Heartbeat CPU 1 instructions: 210000002 cycles: 101713889 heartbeat IPC: 0.598786 cumulative IPC: 0.598777 (Simulation time: 20 hr 22 min 21 sec) 
 Total Blocks : 196608 Invalid Blocks : 0 Valid Blocks : 196608
 Total Tags : 491520 Threshold : 12288 Invalid Tags : 196613 Pr0 Tags : 98299 Pr1 Tags : 196608 num_pr0 : 12288
 SAE Count : 0
 Inter-Core Inteference in Data Store : 653092
Heartbeat CPU 5 instructions: 210000002 cycles: 101722361 heartbeat IPC: 0.59847 cumulative IPC: 0.598424 (Simulation time: 20 hr 22 min 24 sec) 
 Total Blocks : 196608 Invalid Blocks : 0 Valid Blocks : 196608
 Total Tags : 491520 Threshold : 12288 Invalid Tags : 196614 Pr0 Tags : 98298 Pr1 Tags : 196608 num_pr0 : 12287
 SAE Count : 0
 Inter-Core Inteference in Data Store : 653440
Heartbeat CPU 3 instructions: 210000002 cycles: 101804023 heartbeat IPC: 0.59557 cumulative IPC: 0.595556 (Simulation time: 20 hr 22 min 42 sec) 
 Total Blocks : 196608 Invalid Blocks : 0 Valid Blocks : 196608
 Total Tags : 491520 Threshold : 12288 Invalid Tags : 196617 Pr0 Tags : 98295 Pr1 Tags : 196608 num_pr0 : 12287
 SAE Count : 0
 Inter-Core Inteference in Data Store : 656692
Heartbeat CPU 7 instructions: 210000002 cycles: 101863934 heartbeat IPC: 0.59345 cumulative IPC: 0.59343 (Simulation time: 20 hr 22 min 57 sec) 
 Total Blocks : 196608 Invalid Blocks : 0 Valid Blocks : 196608
 Total Tags : 491520 Threshold : 12288 Invalid Tags : 196611 Pr0 Tags : 98301 Pr1 Tags : 196608 num_pr0 : 12288
 SAE Count : 0
 Inter-Core Inteference in Data Store : 658933
Heartbeat CPU 4 instructions: 220000000 cycles: 118531559 heartbeat IPC: 0.59372 cumulative IPC: 0.59666 (Simulation time: 21 hr 32 min 59 sec) 
 Total Blocks : 196608 Invalid Blocks : 0 Valid Blocks : 196608
 Total Tags : 491520 Threshold : 12288 Invalid Tags : 196617 Pr0 Tags : 98295 Pr1 Tags : 196608 num_pr0 : 12287
 SAE Count : 0
 Inter-Core Inteference in Data Store : 1308679
Heartbeat CPU 6 instructions: 220000000 cycles: 118546828 heartbeat IPC: 0.591835 cumulative IPC: 0.596422 (Simulation time: 21 hr 33 min 3 sec) 
 Total Blocks : 196608 Invalid Blocks : 0 Valid Blocks : 196608
 Total Tags : 491520 Threshold : 12288 Invalid Tags : 196610 Pr0 Tags : 98302 Pr1 Tags : 196608 num_pr0 : 12288
 SAE Count : 0
 Inter-Core Inteference in Data Store : 1309248
Heartbeat CPU 0 instructions: 220000000 cycles: 118594287 heartbeat IPC: 0.592199 cumulative IPC: 0.595567 (Simulation time: 21 hr 33 min 14 sec) 
 Total Blocks : 196608 Invalid Blocks : 0 Valid Blocks : 196608
 Total Tags : 491520 Threshold : 12288 Invalid Tags : 196611 Pr0 Tags : 98301 Pr1 Tags : 196608 num_pr0 : 12287
 SAE Count : 0
 Inter-Core Inteference in Data Store : 1311027
Heartbeat CPU 1 instructions: 220000000 cycles: 118630673 heartbeat IPC: 0.591129 cumulative IPC: 0.594928 (Simulation time: 21 hr 33 min 22 sec) 
 Total Blocks : 196608 Invalid Blocks : 0 Valid Blocks : 196608
 Total Tags : 491520 Threshold : 12288 Invalid Tags : 196611 Pr0 Tags : 98301 Pr1 Tags : 196608 num_pr0 : 12288
 SAE Count : 0
 Inter-Core Inteference in Data Store : 1312432
Heartbeat CPU 5 instructions: 220000000 cycles: 118639792 heartbeat IPC: 0.591106 cumulative IPC: 0.594742 (Simulation time: 21 hr 33 min 25 sec) 
 Total Blocks : 196608 Invalid Blocks : 0 Valid Blocks : 196608
 Total Tags : 491520 Threshold : 12288 Invalid Tags : 196610 Pr0 Tags : 98302 Pr1 Tags : 196608 num_pr0 : 12288
 SAE Count : 0
 Inter-Core Inteference in Data Store : 1312759
Heartbeat CPU 2 instructions: 220000000 cycles: 118692339 heartbeat IPC: 0.587767 cumulative IPC: 0.593816 (Simulation time: 21 hr 33 min 37 sec) 
 Total Blocks : 196608 Invalid Blocks : 0 Valid Blocks : 196608
 Total Tags : 491520 Threshold : 12288 Invalid Tags : 196611 Pr0 Tags : 98301 Pr1 Tags : 196608 num_pr0 : 12288
 SAE Count : 0
 Inter-Core Inteference in Data Store : 1314838
Heartbeat CPU 7 instructions: 220000000 cycles: 118845804 heartbeat IPC: 0.588863 cumulative IPC: 0.591138 (Simulation time: 21 hr 34 min 12 sec) 
 Total Blocks : 196608 Invalid Blocks : 0 Valid Blocks : 196608
 Total Tags : 491520 Threshold : 12288 Invalid Tags : 196612 Pr0 Tags : 98300 Pr1 Tags : 196608 num_pr0 : 12286
 SAE Count : 0
 Inter-Core Inteference in Data Store : 1320718
Heartbeat CPU 3 instructions: 220000000 cycles: 118953511 heartbeat IPC: 0.583108 cumulative IPC: 0.589266 (Simulation time: 21 hr 34 min 38 sec) 
 Total Blocks : 196608 Invalid Blocks : 0 Valid Blocks : 196608
 Total Tags : 491520 Threshold : 12288 Invalid Tags : 196609 Pr0 Tags : 98303 Pr1 Tags : 196608 num_pr0 : 12288
 SAE Count : 0
 Inter-Core Inteference in Data Store : 1324828
Heartbeat CPU 6 instructions: 230000001 cycles: 135447914 heartbeat IPC: 0.591678 cumulative IPC: 0.594832 (Simulation time: 22 hr 45 min 49 sec) 
 Total Blocks : 196608 Invalid Blocks : 0 Valid Blocks : 196608
 Total Tags : 491520 Threshold : 12288 Invalid Tags : 196613 Pr0 Tags : 98299 Pr1 Tags : 196608 num_pr0 : 12287
 SAE Count : 0
 Inter-Core Inteference in Data Store : 1966904
Heartbeat CPU 4 instructions: 230000001 cycles: 135452063 heartbeat IPC: 0.590999 cumulative IPC: 0.594761 (Simulation time: 22 hr 45 min 50 sec) 
 Total Blocks : 196608 Invalid Blocks : 0 Valid Blocks : 196608
 Total Tags : 491520 Threshold : 12288 Invalid Tags : 196612 Pr0 Tags : 98300 Pr1 Tags : 196608 num_pr0 : 12288
 SAE Count : 0
 Inter-Core Inteference in Data Store : 1967062
Heartbeat CPU 5 instructions: 230000001 cycles: 135474814 heartbeat IPC: 0.594 cumulative IPC: 0.594495 (Simulation time: 22 hr 45 min 56 sec) 
 Total Blocks : 196608 Invalid Blocks : 0 Valid Blocks : 196608
 Total Tags : 491520 Threshold : 12288 Invalid Tags : 196612 Pr0 Tags : 98300 Pr1 Tags : 196608 num_pr0 : 12287
 SAE Count : 0
 Inter-Core Inteference in Data Store : 1967924
Heartbeat CPU 0 instructions: 230000001 cycles: 135551781 heartbeat IPC: 0.58971 cumulative IPC: 0.593601 (Simulation time: 22 hr 46 min 15 sec) 
 Total Blocks : 196608 Invalid Blocks : 0 Valid Blocks : 196608
 Total Tags : 491520 Threshold : 12288 Invalid Tags : 196617 Pr0 Tags : 98295 Pr1 Tags : 196608 num_pr0 : 12287
 SAE Count : 0
 Inter-Core Inteference in Data Store : 1971115
Heartbeat CPU 2 instructions: 230000001 cycles: 135680828 heartbeat IPC: 0.588634 cumulative IPC: 0.592078 (Simulation time: 22 hr 46 min 44 sec) 
 Total Blocks : 196608 Invalid Blocks : 0 Valid Blocks : 196608
 Total Tags : 491520 Threshold : 12288 Invalid Tags : 196616 Pr0 Tags : 98296 Pr1 Tags : 196608 num_pr0 : 12287
 SAE Count : 0
 Inter-Core Inteference in Data Store : 1976366
Heartbeat CPU 1 instructions: 230000001 cycles: 135682579 heartbeat IPC: 0.586445 cumulative IPC: 0.592073 (Simulation time: 22 hr 46 min 45 sec) 
 Total Blocks : 196608 Invalid Blocks : 0 Valid Blocks : 196608
 Total Tags : 491520 Threshold : 12288 Invalid Tags : 196612 Pr0 Tags : 98300 Pr1 Tags : 196608 num_pr0 : 12287
 SAE Count : 0
 Inter-Core Inteference in Data Store : 1976426
Heartbeat CPU 7 instructions: 230000001 cycles: 135794698 heartbeat IPC: 0.590009 cumulative IPC: 0.590761 (Simulation time: 22 hr 47 min 13 sec) 
 Total Blocks : 196608 Invalid Blocks : 0 Valid Blocks : 196608
 Total Tags : 491520 Threshold : 12288 Invalid Tags : 196613 Pr0 Tags : 98299 Pr1 Tags : 196608 num_pr0 : 12288
 SAE Count : 0
 Inter-Core Inteference in Data Store : 1980917
Heartbeat CPU 3 instructions: 230000001 cycles: 136092506 heartbeat IPC: 0.583465 cumulative IPC: 0.58732 (Simulation time: 22 hr 48 min 30 sec) 
 Total Blocks : 196608 Invalid Blocks : 0 Valid Blocks : 196608
 Total Tags : 491520 Threshold : 12288 Invalid Tags : 196616 Pr0 Tags : 98296 Pr1 Tags : 196608 num_pr0 : 12287
 SAE Count : 0
 Inter-Core Inteference in Data Store : 1992699
Heartbeat CPU 4 instructions: 240000002 cycles: 152413984 heartbeat IPC: 0.589556 cumulative IPC: 0.593451 (Simulation time: 23 hr 59 min 57 sec) 
 Total Blocks : 196608 Invalid Blocks : 0 Valid Blocks : 196608
 Total Tags : 491520 Threshold : 12288 Invalid Tags : 196616 Pr0 Tags : 98296 Pr1 Tags : 196608 num_pr0 : 12286
 SAE Count : 0
 Inter-Core Inteference in Data Store : 2627218
Heartbeat CPU 5 instructions: 240000002 cycles: 152452159 heartbeat IPC: 0.58902 cumulative IPC: 0.593117 (Simulation time: 24 hr 0 min 6 sec) 
 Total Blocks : 196608 Invalid Blocks : 0 Valid Blocks : 196608
 Total Tags : 491520 Threshold : 12288 Invalid Tags : 196611 Pr0 Tags : 98301 Pr1 Tags : 196608 num_pr0 : 12288
 SAE Count : 0
 Inter-Core Inteference in Data Store : 2628624
Heartbeat CPU 6 instructions: 240000002 cycles: 152518168 heartbeat IPC: 0.585814 cumulative IPC: 0.592552 (Simulation time: 24 hr 0 min 23 sec) 
 Total Blocks : 196608 Invalid Blocks : 0 Valid Blocks : 196608
 Total Tags : 491520 Threshold : 12288 Invalid Tags : 196617 Pr0 Tags : 98295 Pr1 Tags : 196608 num_pr0 : 12286
 SAE Count : 0
 Inter-Core Inteference in Data Store : 2631042
Heartbeat CPU 0 instructions: 240000002 cycles: 152586788 heartbeat IPC: 0.587027 cumulative IPC: 0.591944 (Simulation time: 24 hr 0 min 38 sec) 
 Total Blocks : 196608 Invalid Blocks : 0 Valid Blocks : 196608
 Total Tags : 491520 Threshold : 12288 Invalid Tags : 196612 Pr0 Tags : 98300 Pr1 Tags : 196608 num_pr0 : 12288
 SAE Count : 0
 Inter-Core Inteference in Data Store : 2633710
Heartbeat CPU 1 instructions: 240000002 cycles: 152625436 heartbeat IPC: 0.590219 cumulative IPC: 0.591609 (Simulation time: 24 hr 0 min 48 sec) 
 Total Blocks : 196608 Invalid Blocks : 0 Valid Blocks : 196608
 Total Tags : 491520 Threshold : 12288 Invalid Tags : 196608 Pr0 Tags : 98304 Pr1 Tags : 196608 num_pr0 : 12288
 SAE Count : 0
 Inter-Core Inteference in Data Store : 2635111
Heartbeat CPU 2 instructions: 240000002 cycles: 152675265 heartbeat IPC: 0.588428 cumulative IPC: 0.591162 (Simulation time: 24 hr 0 min 59 sec) 
 Total Blocks : 196608 Invalid Blocks : 0 Valid Blocks : 196608
 Total Tags : 491520 Threshold : 12288 Invalid Tags : 196613 Pr0 Tags : 98299 Pr1 Tags : 196608 num_pr0 : 12288
 SAE Count : 0
 Inter-Core Inteference in Data Store : 2637123
Heartbeat CPU 7 instructions: 240000002 cycles: 152751193 heartbeat IPC: 0.589745 cumulative IPC: 0.590507 (Simulation time: 24 hr 1 min 16 sec) 
 Total Blocks : 196608 Invalid Blocks : 0 Valid Blocks : 196608
 Total Tags : 491520 Threshold : 12288 Invalid Tags : 196611 Pr0 Tags : 98301 Pr1 Tags : 196608 num_pr0 : 12288
 SAE Count : 0
 Inter-Core Inteference in Data Store : 2640137
Heartbeat CPU 3 instructions: 240000002 cycles: 153164600 heartbeat IPC: 0.585751 cumulative IPC: 0.586927 (Simulation time: 24 hr 2 min 57 sec) 
 Total Blocks : 196608 Invalid Blocks : 0 Valid Blocks : 196608
 Total Tags : 491520 Threshold : 12288 Invalid Tags : 196614 Pr0 Tags : 98298 Pr1 Tags : 196608 num_pr0 : 12288
 SAE Count : 0
 Inter-Core Inteference in Data Store : 2656163
Heartbeat CPU 5 instructions: 250000003 cycles: 169365181 heartbeat IPC: 0.59126 cumulative IPC: 0.592744 (Simulation time: 25 hr 9 min 11 sec) 
 Total Blocks : 196608 Invalid Blocks : 0 Valid Blocks : 196608
 Total Tags : 491520 Threshold : 12288 Invalid Tags : 196611 Pr0 Tags : 98301 Pr1 Tags : 196608 num_pr0 : 12288
 SAE Count : 0
 Inter-Core Inteference in Data Store : 3287234
Heartbeat CPU 4 instructions: 250000003 cycles: 169403949 heartbeat IPC: 0.588583 cumulative IPC: 0.592471 (Simulation time: 25 hr 9 min 21 sec) 
 Total Blocks : 196608 Invalid Blocks : 0 Valid Blocks : 196608
 Total Tags : 491520 Threshold : 12288 Invalid Tags : 196611 Pr0 Tags : 98301 Pr1 Tags : 196608 num_pr0 : 12287
 SAE Count : 0
 Inter-Core Inteference in Data Store : 3288639
Heartbeat CPU 6 instructions: 250000003 cycles: 169531603 heartbeat IPC: 0.587771 cumulative IPC: 0.591589 (Simulation time: 25 hr 9 min 52 sec) 
 Total Blocks : 196608 Invalid Blocks : 0 Valid Blocks : 196608
 Total Tags : 491520 Threshold : 12288 Invalid Tags : 196612 Pr0 Tags : 98300 Pr1 Tags : 196608 num_pr0 : 12287
 SAE Count : 0
 Inter-Core Inteference in Data Store : 3293793
Heartbeat CPU 0 instructions: 250000003 cycles: 169567031 heartbeat IPC: 0.58892 cumulative IPC: 0.591337 (Simulation time: 25 hr 10 min 0 sec) 
 Total Blocks : 196608 Invalid Blocks : 0 Valid Blocks : 196608
 Total Tags : 491520 Threshold : 12288 Invalid Tags : 196610 Pr0 Tags : 98302 Pr1 Tags : 196608 num_pr0 : 12287
 SAE Count : 0
 Inter-Core Inteference in Data Store : 3295236
Heartbeat CPU 2 instructions: 250000003 cycles: 169567679 heartbeat IPC: 0.591982 cumulative IPC: 0.591325 (Simulation time: 25 hr 10 min 1 sec) 
 Total Blocks : 196608 Invalid Blocks : 0 Valid Blocks : 196608
 Total Tags : 491520 Threshold : 12288 Invalid Tags : 196612 Pr0 Tags : 98300 Pr1 Tags : 196608 num_pr0 : 12288
 SAE Count : 0
 Inter-Core Inteference in Data Store : 3295261
Heartbeat CPU 7 instructions: 250000003 cycles: 169663313 heartbeat IPC: 0.591292 cumulative IPC: 0.590664 (Simulation time: 25 hr 10 min 22 sec) 
 Total Blocks : 196608 Invalid Blocks : 0 Valid Blocks : 196608
 Total Tags : 491520 Threshold : 12288 Invalid Tags : 196611 Pr0 Tags : 98301 Pr1 Tags : 196608 num_pr0 : 12288
 SAE Count : 0
 Inter-Core Inteference in Data Store : 3299111
[...]
LLC3 Priority 0 entries : 12287
LLC3 Inter-Core Interference : 1657671
LLC4 TOTAL     ACCESS: 549866  HIT: 87891  MISS: 461975  HIT %: 15.9841  MISS %: 84.0159  AVERAGE MISS PENALTY: 321.444
LLC4 LOAD      ACCESS:  2226  HIT:  1857  MISS:   369  HIT %: 83.4232  MISS %: 16.5768  AVERAGE MISS PENALTY: 866.523
LLC4 RFO       ACCESS:    39  HIT:    36  MISS:     3  HIT %: 92.3077  MISS %: 7.69231  AVERAGE MISS PENALTY: 402.667
LLC4 PREFETCH  ACCESS: 328142  HIT: 85522  MISS: 242620  HIT %: 26.0625  MISS %: 73.9375  AVERAGE MISS PENALTY: 610.742
LLC4 WRITEBACK ACCESS: 219459  HIT:   476  MISS: 218983  HIT %: 0.216897  MISS %: 99.7831  AVERAGE MISS PENALTY: 0
LLC4 PREFETCH  REQUESTED:     0  ISSUED:     0  USEFUL:    83  USELESS: 133611
 USEFUL LOAD PREFETCHES:         83 PREFETCH ISSUED TO LOWER LEVEL:    1945661  ACCURACY: 0.0042659
 TIMELY PREFETCHES:         83 LATE PREFETCHES: 0 DROPPED PREFETCHES: 0
LLC4 AVERAGE MISS LATENCY: 321.444 cycles

LLC4 Set Associative Eviction Count : 0
LLC4 Priority 0 entries : 12288
LLC4 Inter-Core Interference : 1656451
LLC5 TOTAL     ACCESS: 549684  HIT: 87864  MISS: 461820  HIT %: 15.9845  MISS %: 84.0155  AVERAGE MISS PENALTY: 322.14
LLC5 LOAD      ACCESS:  1374  HIT:  1180  MISS:   194  HIT %: 85.8806  MISS %: 14.1194  AVERAGE MISS PENALTY: 860.139
LLC5 RFO       ACCESS:    34  HIT:    32  MISS:     2  HIT %: 94.1176  MISS %: 5.88235  AVERAGE MISS PENALTY: 819
LLC5 PREFETCH  ACCESS: 328816  HIT: 86182  MISS: 242634  HIT %: 26.2098  MISS %: 73.7902  AVERAGE MISS PENALTY: 612.455
LLC5 WRITEBACK ACCESS: 219460  HIT:   470  MISS: 218990  HIT %: 0.214162  MISS %: 99.7858  AVERAGE MISS PENALTY: 0
LLC5 PREFETCH  REQUESTED:     0  ISSUED:     0  USEFUL:    86  USELESS: 134834
 USEFUL LOAD PREFETCHES:         86 PREFETCH ISSUED TO LOWER LEVEL:    1947314  ACCURACY: 0.00441634
 TIMELY PREFETCHES:         86 LATE PREFETCHES: 0 DROPPED PREFETCHES: 0
LLC5 AVERAGE MISS LATENCY: 322.14 cycles

LLC5 Set Associative Eviction Count : 0
LLC5 Priority 0 entries : 12287
LLC5 Inter-Core Interference : 1657278
LLC6 TOTAL     ACCESS: 549034  HIT: 87371  MISS: 461663  HIT %: 15.9136  MISS %: 84.0864  AVERAGE MISS PENALTY: 356.281
LLC6 LOAD      ACCESS:  1377  HIT:  1111  MISS:   266  HIT %: 80.6826  MISS %: 19.3174  AVERAGE MISS PENALTY: 828.492
LLC6 RFO       ACCESS:   222  HIT:   205  MISS:    17  HIT %: 92.3423  MISS %: 7.65766  AVERAGE MISS PENALTY: 978.412
LLC6 PREFETCH  ACCESS: 327973  HIT: 85590  MISS: 242383  HIT %: 26.0967  MISS %: 73.9033  AVERAGE MISS PENALTY: 677.626
LLC6 WRITEBACK ACCESS: 219462  HIT:   465  MISS: 218997  HIT %: 0.211882  MISS %: 99.7881  AVERAGE MISS PENALTY: 0
LLC6 PREFETCH  REQUESTED:     0  ISSUED:     0  USEFUL:   226  USELESS: 133021
 USEFUL LOAD PREFETCHES:        226 PREFETCH ISSUED TO LOWER LEVEL:    1945050  ACCURACY: 0.0116192
 TIMELY PREFETCHES:        226 LATE PREFETCHES: 0 DROPPED PREFETCHES: 0
LLC6 AVERAGE MISS LATENCY: 356.281 cycles

LLC6 Set Associative Eviction Count : 0
LLC6 Priority 0 entries : 12288
LLC6 Inter-Core Interference : 1655033
LLC7 TOTAL     ACCESS: 548625  HIT: 87009  MISS: 461616  HIT %: 15.8595  MISS %: 84.1405  AVERAGE MISS PENALTY: 357.325
LLC7 LOAD      ACCESS:  1444  HIT:  1155  MISS:   289  HIT %: 79.9861  MISS %: 20.0139  AVERAGE MISS PENALTY: 916.204
LLC7 RFO       ACCESS:     0  HIT:     0  MISS:     0  HIT %:     0  MISS %:     0  AVERAGE MISS PENALTY: 0
LLC7 PREFETCH  ACCESS: 328198  HIT: 85791  MISS: 242407  HIT %: 26.14  MISS %: 73.86  AVERAGE MISS PENALTY: 679.362
LLC7 WRITEBACK ACCESS: 218983  HIT:    63  MISS: 218920  HIT %: 0.0287694  MISS %: 99.9712  AVERAGE MISS PENALTY: 0
LLC7 PREFETCH  REQUESTED:     0  ISSUED:     0  USEFUL:   395  USELESS: 133445
 USEFUL LOAD PREFETCHES:        395 PREFETCH ISSUED TO LOWER LEVEL:    1945889  ACCURACY: 0.0202992
 TIMELY PREFETCHES:        395 LATE PREFETCHES: 0 DROPPED PREFETCHES: 0
LLC7 AVERAGE MISS LATENCY: 357.325 cycles

LLC7 Set Associative Eviction Count : 0
LLC7 Priority 0 entries : 12286
LLC7 Inter-Core Interference : 1655843
ROI Average ROB Stall Cycles:	25.3821
ROI Total ROB Stalls Cycles:	293062306
ROI TOTAL ROB counter      :	11546026
ROI Average Load ROB Stall Cycles:	76.9065
ROI Total Load ROB Stalls Cycle  :	230798253
ROI Total Load ROB stalls Counter:	3001024
Major fault: 0 Minor fault: 55025

CPU 7 cumulative IPC: 0.588704 instructions: 200000003 cycles: 339729357
ITLB TOTAL     ACCESS: 32456148  HIT: 32456148  MISS:     0  HIT %:   100  MISS %:     0  AVERAGE MISS PENALTY: 0
ITLB LOAD      ACCESS: 32456148  HIT: 32456148  MISS:     0  HIT %:   100  MISS %:     0  AVERAGE MISS PENALTY: 0
ITLB RFO       ACCESS:     0  HIT:     0  MISS:     0  HIT %:     0  MISS %:     0  AVERAGE MISS PENALTY: 0
ITLB PREFETCH  ACCESS:     0  HIT:     0  MISS:     0  HIT %:     0  MISS %:     0  AVERAGE MISS PENALTY: 0
ITLB WRITEBACK ACCESS:     0  HIT:     0  MISS:     0  HIT %:     0  MISS %:     0  AVERAGE MISS PENALTY: 0
ITLB PREFETCH  REQUESTED:     0  ISSUED:     0  USEFUL:     0  USELESS:     0
 USEFUL LOAD PREFETCHES:          0 PREFETCH ISSUED TO LOWER LEVEL:          0  ACCURACY: -nan
 TIMELY PREFETCHES:          0 LATE PREFETCHES: 0 DROPPED PREFETCHES: 0
ITLB AVERAGE MISS LATENCY: -nan cycles

ITLB Set Associative Eviction Count : 0
ITLB Priority 0 entries : 0
ITLB Inter-Core Interference : 0
DTLB TOTAL     ACCESS: 33517128  HIT: 33470165  MISS: 46963  HIT %: 99.8599  MISS %: 0.140116  AVERAGE MISS PENALTY: 67.5617
DTLB LOAD      ACCESS: 28265575  HIT: 28219051  MISS: 46524  HIT %: 99.8354  MISS %: 0.164596  AVERAGE MISS PENALTY: 68.1143
DTLB RFO       ACCESS: 5251553  HIT: 5251114  MISS:   439  HIT %: 99.9916  MISS %: 0.00835943  AVERAGE MISS PENALTY: 9
DTLB PREFETCH  ACCESS:     0  HIT:     0  MISS:     0  HIT %:     0  MISS %:     0  AVERAGE MISS PENALTY: 0
DTLB WRITEBACK ACCESS:     0  HIT:     0  MISS:     0  HIT %:     0  MISS %:     0  AVERAGE MISS PENALTY: 0
DTLB PREFETCH  REQUESTED:     0  ISSUED:     0  USEFUL:     0  USELESS:     0
 USEFUL LOAD PREFETCHES:          0 PREFETCH ISSUED TO LOWER LEVEL:          0  ACCURACY: -nan
 TIMELY PREFETCHES:          0 LATE PREFETCHES: 0 DROPPED PREFETCHES: 0
DTLB AVERAGE MISS LATENCY: 67.5617 cycles

DTLB Set Associative Eviction Count : 0
DTLB Priority 0 entries : 0
DTLB Inter-Core Interference : 0
STLB TOTAL     ACCESS: 46963  HIT: 19512  MISS: 27451  HIT %: 41.5476  MISS %: 58.4524  AVERAGE MISS PENALTY: 100
STLB LOAD      ACCESS: 46524  HIT: 19073  MISS: 27451  HIT %: 40.996  MISS %: 59.004  AVERAGE MISS PENALTY: 100
STLB RFO       ACCESS:   439  HIT:   439  MISS:     0  HIT %:   100  MISS %:     0  AVERAGE MISS PENALTY: 0
STLB PREFETCH  ACCESS:     0  HIT:     0  MISS:     0  HIT %:     0  MISS %:     0  AVERAGE MISS PENALTY: 0
STLB WRITEBACK ACCESS:     0  HIT:     0  MISS:     0  HIT %:     0  MISS %:     0  AVERAGE MISS PENALTY: 0
STLB PREFETCH  REQUESTED:     0  ISSUED:     0  USEFUL:     0  USELESS:     0
 USEFUL LOAD PREFETCHES:          0 PREFETCH ISSUED TO LOWER LEVEL:          0  ACCURACY: -nan
 TIMELY PREFETCHES:          0 LATE PREFETCHES: 0 DROPPED PREFETCHES: 0
STLB AVERAGE MISS LATENCY: 100 cycles

STLB Set Associative Eviction Count : 0
STLB Priority 0 entries : 0
STLB Inter-Core Interference : 0
L1D TOTAL     ACCESS: 50025397  HIT: 47372163  MISS: 2653234  HIT %: 94.6962  MISS %: 5.30377  AVERAGE MISS PENALTY: 5.87431e+07
L1D LOAD      ACCESS: 26629596  HIT: 25961161  MISS: 668435  HIT %: 97.4899  MISS %: 2.51012  AVERAGE MISS PENALTY: 2.3317e+08
L1D RFO       ACCESS: 14036451  HIT: 14033812  MISS:  2639  HIT %: 99.9812  MISS %: 0.018801  AVERAGE MISS PENALTY: 63.8594
L1D PREFETCH  ACCESS: 9359350  HIT: 7377190  MISS: 1982160  HIT %: 78.8216  MISS %: 21.1784  AVERAGE MISS PENALTY: 267.696
L1D WRITEBACK ACCESS:     0  HIT:     0  MISS:     0  HIT %:     0  MISS %:     0  AVERAGE MISS PENALTY: 0
L1D PREFETCH  REQUESTED: 19628233  ISSUED: 19574003  USEFUL: 1975704  USELESS:  6445
 USEFUL LOAD PREFETCHES:    1975704 PREFETCH ISSUED TO LOWER LEVEL:   10724667  ACCURACY: 18.4221
 TIMELY PREFETCHES:    1975704 LATE PREFETCHES: 759381 DROPPED PREFETCHES: 54230
L1D AVERAGE MISS LATENCY: 303.066 cycles

L1D Set Associative Eviction Count : 0
L1D Priority 0 entries : 0
L1D Inter-Core Interference : 0
L1I TOTAL     ACCESS: 44294108  HIT: 44294108  MISS:     0  HIT %:   100  MISS %:     0  AVERAGE MISS PENALTY: 0
L1I LOAD      ACCESS: 44294108  HIT: 44294108  MISS:     0  HIT %:   100  MISS %:     0  AVERAGE MISS PENALTY: 0
L1I RFO       ACCESS:     0  HIT:     0  MISS:     0  HIT %:     0  MISS %:     0  AVERAGE MISS PENALTY: 0
L1I PREFETCH  ACCESS:     0  HIT:     0  MISS:     0  HIT %:     0  MISS %:     0  AVERAGE MISS PENALTY: 0
L1I WRITEBACK ACCESS:     0  HIT:     0  MISS:     0  HIT %:     0  MISS %:     0  AVERAGE MISS PENALTY: 0
L1I PREFETCH  REQUESTED:     0  ISSUED:     0  USEFUL:     0  USELESS:     0
 USEFUL LOAD PREFETCHES:          0 PREFETCH ISSUED TO LOWER LEVEL:          0  ACCURACY: -nan
 TIMELY PREFETCHES:          0 LATE PREFETCHES: 0 DROPPED PREFETCHES: 0
L1I AVERAGE MISS LATENCY: -nan cycles

L1I Set Associative Eviction Count : 0
L1I Priority 0 entries : 0
L1I Inter-Core Interference : 0
L2C TOTAL     ACCESS: 6067707  HIT: 3431660  MISS: 2636047  HIT %: 56.5561  MISS %: 43.4439  AVERAGE MISS PENALTY: 5.75417e+07
L2C LOAD      ACCESS: 652968  HIT:  6229  MISS: 646739  HIT %: 0.953952  MISS %: 99.046  AVERAGE MISS PENALTY: 2.34532e+08
L2C RFO       ACCESS:  2639  HIT:  1425  MISS:  1214  HIT %: 53.9977  MISS %: 46.0023  AVERAGE MISS PENALTY: 651585
L2C PREFETCH  ACCESS: 3654633  HIT: 1666542  MISS: 1988091  HIT %: 45.6008  MISS %: 54.3992  AVERAGE MISS PENALTY: 392.948
L2C WRITEBACK ACCESS: 1757467  HIT: 1757464  MISS:     3  HIT %: 99.9998  MISS %: 0.0001707  AVERAGE MISS PENALTY: 0
L2C PREFETCH  REQUESTED: 3938112  ISSUED: 3938109  USEFUL:  2107  USELESS: 1987294
 USEFUL LOAD PREFETCHES:       2107 PREFETCH ISSUED TO LOWER LEVEL:    4512274  ACCURACY: 0.0466949
 TIMELY PREFETCHES:       2107 LATE PREFETCHES: 596642 DROPPED PREFETCHES: 3
L2C AVERAGE MISS LATENCY: 397.423 cycles

L2C Set Associative Eviction Count : 0
L2C Priority 0 entries : 0
L2C Inter-Core Interference : 930
LLC0 TOTAL     ACCESS: 548203  HIT: 86613  MISS: 461590  HIT %: 15.7994  MISS %: 84.2006  AVERAGE MISS PENALTY: 320.004
LLC0 LOAD      ACCESS: 42032  HIT: 11487  MISS: 30545  HIT %: 27.3292  MISS %: 72.6708  AVERAGE MISS PENALTY: 571.944
LLC0 RFO       ACCESS:     0  HIT:     0  MISS:     0  HIT %:     0  MISS %:     0  AVERAGE MISS PENALTY: 0
LLC0 PREFETCH  ACCESS: 287208  HIT: 75069  MISS: 212139  HIT %: 26.1375  MISS %: 73.8625  AVERAGE MISS PENALTY: 613.94
LLC0 WRITEBACK ACCESS: 218963  HIT:    57  MISS: 218906  HIT %: 0.0260318  MISS %: 99.974  AVERAGE MISS PENALTY: 0
LLC0 PREFETCH  REQUESTED:     0  ISSUED:     0  USEFUL:    73  USELESS: 117253
 USEFUL LOAD PREFETCHES:         73 PREFETCH ISSUED TO LOWER LEVEL:    1703215  ACCURACY: 0.00428601
 TIMELY PREFETCHES:         73 LATE PREFETCHES: 0 DROPPED PREFETCHES: 0
LLC0 AVERAGE MISS LATENCY: 320.004 cycles

LLC0 Set Associative Eviction Count : 0
LLC0 Priority 0 entries : 12288
LLC0 Inter-Core Interference : 1656130
LLC1 TOTAL     ACCESS: 547585  HIT: 86214  MISS: 461371  HIT %: 15.7444  MISS %: 84.2556  AVERAGE MISS PENALTY: 319.021
LLC1 LOAD      ACCESS:  4372  HIT:   443  MISS:  3929  HIT %: 10.1327  MISS %: 89.8673  AVERAGE MISS PENALTY: 646.129
LLC1 RFO       ACCESS:     0  HIT:     0  MISS:     0  HIT %:     0  MISS %:     0  AVERAGE MISS PENALTY: 0
LLC1 PREFETCH  ACCESS: 324248  HIT: 85708  MISS: 238540  HIT %: 26.4329  MISS %: 73.5671  AVERAGE MISS PENALTY: 606.39
LLC1 WRITEBACK ACCESS: 218965  HIT:    63  MISS: 218902  HIT %: 0.0287717  MISS %: 99.9712  AVERAGE MISS PENALTY: 0
LLC1 PREFETCH  REQUESTED:     0  ISSUED:     0  USEFUL:    78  USELESS: 133725
 USEFUL LOAD PREFETCHES:         78 PREFETCH ISSUED TO LOWER LEVEL:    1915980  ACCURACY: 0.00407102
 TIMELY PREFETCHES:         78 LATE PREFETCHES: 0 DROPPED PREFETCHES: 0
LLC1 AVERAGE MISS LATENCY: 319.021 cycles

LLC1 Set Associative Eviction Count : 0
LLC1 Priority 0 entries : 12288
LLC1 Inter-Core Interference : 1655273
LLC2 TOTAL     ACCESS: 548316  HIT: 86796  MISS: 461520  HIT %: 15.8296  MISS %: 84.1704  AVERAGE MISS PENALTY: 358.548
LLC2 LOAD      ACCESS:   193  HIT:    71  MISS:   122  HIT %: 36.7876  MISS %: 63.2124  AVERAGE MISS PENALTY: 869.402
LLC2 RFO       ACCESS:   439  HIT:   395  MISS:    44  HIT %: 89.9772  MISS %: 10.0228  AVERAGE MISS PENALTY: 755.114
LLC2 PREFETCH  ACCESS: 328281  HIT: 85851  MISS: 242430  HIT %: 26.1517  MISS %: 73.8483  AVERAGE MISS PENALTY: 682.001
LLC2 WRITEBACK ACCESS: 219403  HIT:   479  MISS: 218924  HIT %: 0.21832  MISS %: 99.7817  AVERAGE MISS PENALTY: 0
LLC2 PREFETCH  REQUESTED:     0  ISSUED:     0  USEFUL:    75  USELESS: 134683
 USEFUL LOAD PREFETCHES:         75 PREFETCH ISSUED TO LOWER LEVEL:    1947231  ACCURACY: 0.00385162
 TIMELY PREFETCHES:         75 LATE PREFETCHES: 0 DROPPED PREFETCHES: 0
LLC2 AVERAGE MISS LATENCY: 358.548 cycles

LLC2 Set Associative Eviction Count : 0
LLC2 Priority 0 entries : 12287
LLC2 Inter-Core Interference : 1655945
LLC3 TOTAL     ACCESS: 548995  HIT: 87316  MISS: 461679  HIT %: 15.9047  MISS %: 84.0953  AVERAGE MISS PENALTY: 354.56
LLC3 LOAD      ACCESS:  1036  HIT:   761  MISS:   275  HIT %: 73.4556  MISS %: 26.5444  AVERAGE MISS PENALTY: 878.607
LLC3 RFO       ACCESS:   439  HIT:   398  MISS:    41  HIT %: 90.6606  MISS %: 9.33941  AVERAGE MISS PENALTY: 876.268
LLC3 PREFETCH  ACCESS: 328120  HIT: 85694  MISS: 242426  HIT %: 26.1167  MISS %: 73.8833  AVERAGE MISS PENALTY: 674.083
LLC3 WRITEBACK ACCESS: 219400  HIT:   463  MISS: 218937  HIT %: 0.21103  MISS %: 99.789  AVERAGE MISS PENALTY: 0
LLC3 PREFETCH  REQUESTED:     0  ISSUED:     0  USEFUL:    86  USELESS: 134209
 USEFUL LOAD PREFETCHES:         86 PREFETCH ISSUED TO LOWER LEVEL:    1946848  ACCURACY: 0.0044174
 TIMELY PREFETCHES:         86 LATE PREFETCHES: 0 DROPPED PREFETCHES: 0
LLC3 AVERAGE MISS LATENCY: 354.56 cycles

LLC3 Set Associative Eviction Count : 0
LLC3 Priority 0 entries : 12287
LLC3 Inter-Core Interference : 1657671
LLC4 TOTAL     ACCESS: 549834  HIT: 88072  MISS: 461762  HIT %: 16.0179  MISS %: 83.9821  AVERAGE MISS PENALTY: 320.753
LLC4 LOAD      ACCESS:  2292  HIT:  1900  MISS:   392  HIT %: 82.897  MISS %: 17.103  AVERAGE MISS PENALTY: 894.12
LLC4 RFO       ACCESS:    53  HIT:    53  MISS:     0  HIT %:   100  MISS %:     0  AVERAGE MISS PENALTY: 0
LLC4 PREFETCH  ACCESS: 328037  HIT: 85620  MISS: 242417  HIT %: 26.1007  MISS %: 73.8993  AVERAGE MISS PENALTY: 609.533
LLC4 WRITEBACK ACCESS: 219452  HIT:   499  MISS: 218953  HIT %: 0.227385  MISS %: 99.7726  AVERAGE MISS PENALTY: 0
LLC4 PREFETCH  REQUESTED:     0  ISSUED:     0  USEFUL:    83  USELESS: 133611
 USEFUL LOAD PREFETCHES:         83 PREFETCH ISSUED TO LOWER LEVEL:    1945661  ACCURACY: 0.0042659
 TIMELY PREFETCHES:         83 LATE PREFETCHES: 0 DROPPED PREFETCHES: 0
LLC4 AVERAGE MISS LATENCY: 320.753 cycles

LLC4 Set Associative Eviction Count : 0
LLC4 Priority 0 entries : 12288
LLC4 Inter-Core Interference : 1656451
LLC5 TOTAL     ACCESS: 549628  HIT: 87960  MISS: 461668  HIT %: 16.0036  MISS %: 83.9964  AVERAGE MISS PENALTY: 322.244
LLC5 LOAD      ACCESS:  1409  HIT:  1194  MISS:   215  HIT %: 84.741  MISS %: 15.259  AVERAGE MISS PENALTY: 821.442
LLC5 RFO       ACCESS:    44  HIT:    43  MISS:     1  HIT %: 97.7273  MISS %: 2.27273  AVERAGE MISS PENALTY: 826
LLC5 PREFETCH  ACCESS: 328730  HIT: 86227  MISS: 242503  HIT %: 26.2303  MISS %: 73.7697  AVERAGE MISS PENALTY: 612.743
LLC5 WRITEBACK ACCESS: 219445  HIT:   496  MISS: 218949  HIT %: 0.226025  MISS %: 99.774  AVERAGE MISS PENALTY: 0
LLC5 PREFETCH  REQUESTED:     0  ISSUED:     0  USEFUL:    86  USELESS: 134834
 USEFUL LOAD PREFETCHES:         86 PREFETCH ISSUED TO LOWER LEVEL:    1947314  ACCURACY: 0.00441634
 TIMELY PREFETCHES:         86 LATE PREFETCHES: 0 DROPPED PREFETCHES: 0
LLC5 AVERAGE MISS LATENCY: 322.244 cycles

LLC5 Set Associative Eviction Count : 0
LLC5 Priority 0 entries : 12287
LLC5 Inter-Core Interference : 1657278
LLC6 TOTAL     ACCESS: 548978  HIT: 87539  MISS: 461439  HIT %: 15.9458  MISS %: 84.0542  AVERAGE MISS PENALTY: 356.451
LLC6 LOAD      ACCESS:  1367  HIT:  1101  MISS:   266  HIT %: 80.5413  MISS %: 19.4587  AVERAGE MISS PENALTY: 864.086
LLC6 RFO       ACCESS:   235  HIT:   222  MISS:    13  HIT %: 94.4681  MISS %: 5.53191  AVERAGE MISS PENALTY: 794.231
LLC6 PREFETCH  ACCESS: 327934  HIT: 85740  MISS: 242194  HIT %: 26.1455  MISS %: 73.8545  AVERAGE MISS PENALTY: 678.135
LLC6 WRITEBACK ACCESS: 219442  HIT:   476  MISS: 218966  HIT %: 0.216914  MISS %: 99.7831  AVERAGE MISS PENALTY: 0
LLC6 PREFETCH  REQUESTED:     0  ISSUED:     0  USEFUL:   226  USELESS: 133021
 USEFUL LOAD PREFETCHES:        226 PREFETCH ISSUED TO LOWER LEVEL:    1945050  ACCURACY: 0.0116192
 TIMELY PREFETCHES:        226 LATE PREFETCHES: 0 DROPPED PREFETCHES: 0
LLC6 AVERAGE MISS LATENCY: 356.451 cycles

LLC6 Set Associative Eviction Count : 0
LLC6 Priority 0 entries : 12288
LLC6 Inter-Core Interference : 1655033
LLC7 TOTAL     ACCESS: 548539  HIT: 86900  MISS: 461639  HIT %: 15.8421  MISS %: 84.1579  AVERAGE MISS PENALTY: 358.141
LLC7 LOAD      ACCESS:  1445  HIT:  1145  MISS:   300  HIT %: 79.2388  MISS %: 20.7612  AVERAGE MISS PENALTY: 860.143
LLC7 RFO       ACCESS:     0  HIT:     0  MISS:     0  HIT %:     0  MISS %:     0  AVERAGE MISS PENALTY: 0
LLC7 PREFETCH  ACCESS: 328130  HIT: 85690  MISS: 242440  HIT %: 26.1146  MISS %: 73.8854  AVERAGE MISS PENALTY: 680.886
LLC7 WRITEBACK ACCESS: 218964  HIT:    65  MISS: 218899  HIT %: 0.0296852  MISS %: 99.9703  AVERAGE MISS PENALTY: 0
LLC7 PREFETCH  REQUESTED:     0  ISSUED:     0  USEFUL:   395  USELESS: 133445
 USEFUL LOAD PREFETCHES:        395 PREFETCH ISSUED TO LOWER LEVEL:    1945889  ACCURACY: 0.0202992
 TIMELY PREFETCHES:        395 LATE PREFETCHES: 0 DROPPED PREFETCHES: 0
LLC7 AVERAGE MISS LATENCY: 358.141 cycles

LLC7 Set Associative Eviction Count : 0
LLC7 Priority 0 entries : 12286
LLC7 Inter-Core Interference : 1655843
ROI Average ROB Stall Cycles:	25.3965
ROI Total ROB Stalls Cycles:	293308592
ROI TOTAL ROB counter      :	11549172
ROI Average Load ROB Stall Cycles:	76.9457
ROI Total Load ROB Stalls Cycle  :	230971239
ROI Total Load ROB stalls Counter:	3001743
Major fault: 0 Minor fault: 55005








Interconnect Stats 
LINK 0 BW : 0LINK 1 BW : 0LINK 2 BW : 0LINK 3 BW : 0LINK 4 BW : 0LINK 5 BW : 0LINK 6 BW : 0LINK 7 BW : 0
DRAM Statistics
 CHANNEL 0
 RQ ROW_BUFFER_HIT: 3902606  ROW_BUFFER_MISS: 3890370
 DBUS_CONGESTED: 16056767
 WQ ROW_BUFFER_HIT: 470049  ROW_BUFFER_MISS: 6561703  FULL: 18826

 CHANNEL 1
 RQ ROW_BUFFER_HIT: 3900984  ROW_BUFFER_MISS: 3893166
 DBUS_CONGESTED: 16056767
 WQ ROW_BUFFER_HIT: 469691  ROW_BUFFER_MISS: 6561227  FULL: 16418

 AVG_CONGESTED_CYCLE: 6
DRAM PAGES: 2097152
Allocated PAGES: 440150
L2C destructor called
L1D destructor called
L1I destructor called
STLB destructor called
DTLB destructor called
ITLB destructor called
L2C destructor called
L1D destructor called
L1I destructor called
STLB destructor called
DTLB destructor called
ITLB destructor called
L2C destructor called
L1D destructor called
L1I destructor called
STLB destructor called
DTLB destructor called
ITLB destructor called
L2C destructor called
L1D destructor called
L1I destructor called
STLB destructor called
DTLB destructor called
ITLB destructor called
L2C destructor called
L1D destructor called
L1I destructor called
STLB destructor called
DTLB destructor called
ITLB destructor called
L2C destructor called
L1D destructor called
L1I destructor called
STLB destructor called
DTLB destructor called
ITLB destructor called
L2C destructor called
L1D destructor called
L1I destructor called
STLB destructor called
DTLB destructor called
ITLB destructor called
L2C destructor called
L1D destructor called
L1I destructor called
STLB destructor called
DTLB destructor called
ITLB destructor called
