
*** ChampSim Multicore Out-of-Order Simulator ***

Warmup Instructions: 200000000
Simulation Instructions: 200000000
Number of CPUs: 8
threads:1

L1I Configuration:
L1I_SET:64
L1I_WAY:8
L1I_RQ_SIZE:64
L1I_WQ_SIZE:64
L1I_PQ_SIZE:8
L1I_MSHR_SIZE:8

L1D Configuration:
L1D_SET:64
L1D_WAY:12
L1D_RQ_SIZE:64
L1D_WQ_SIZE:64
L1D_PQ_SIZE:8
L1D_MSHR_SIZE:16

L2C Configuration:
L2C_SET:1024
L2C_WAY:8
L2C_RQ_SIZE:32
L2C_WQ_SIZE:32
L2C_PQ_SIZE:16
L2C_MSHR_SIZE:32

LLC Configuration:
LLC_SET:2048
LLC_WAY:12
LLC SLICES:8
LLC_RQ_SIZE:64
LLC_WQ_SIZE:64
LLC_PQ_SIZE:32
LLC_MSHR_SIZE:64

Interconnect OFF
Attacker deprioritize is: OFF
Off-chip DRAM Size: 8192 MB Channels: 2 Width: 64-bit Data Rate: 3200 MT/s
PAGE SIZE in KB: 4.000000 
PAGE SIZE in MB: 0.003906 
PAGE offset in bits: 12 
CEASER-S_LLC:0
MIRAGE : 1
CEASER_LATENCY:3
REMAP : OFF
Partitions : 1
Multi-Step : OFF
BFS : OFF

CPU 0 runs /home/anubhav/spec_2017/654.roms_s-1390B.champsimtrace.xz
CPU 1 runs /home/anubhav/spec_2017/654.roms_s-1390B.champsimtrace.xz
CPU 2 runs /home/anubhav/spec_2017/654.roms_s-1390B.champsimtrace.xz
CPU 3 runs /home/anubhav/spec_2017/654.roms_s-1390B.champsimtrace.xz
CPU 4 runs /home/anubhav/spec_2017/654.roms_s-1390B.champsimtrace.xz
CPU 5 runs /home/anubhav/spec_2017/654.roms_s-1390B.champsimtrace.xz
CPU 6 runs /home/anubhav/spec_2017/654.roms_s-1390B.champsimtrace.xz
CPU 7 runs /home/anubhav/spec_2017/654.roms_s-1390B.champsimtrace.xz
CPU 0 Bimodal branch predictor
Initialize Hawkeye state
Initialize Hawkeye state
Initialize Hawkeye state
Initialize Hawkeye state
Initialize Hawkeye state
Initialize Hawkeye state
Initialize Hawkeye state
Initialize Hawkeye state
CPU 1 Bimodal branch predictor
Initialize Hawkeye state
Initialize Hawkeye state
Initialize Hawkeye state
Initialize Hawkeye state
Initialize Hawkeye state
Initialize Hawkeye state
Initialize Hawkeye state
Initialize Hawkeye state
CPU 2 Bimodal branch predictor
Initialize Hawkeye state
Initialize Hawkeye state
Initialize Hawkeye state
Initialize Hawkeye state
Initialize Hawkeye state
Initialize Hawkeye state
Initialize Hawkeye state
Initialize Hawkeye state
CPU 3 Bimodal branch predictor
Initialize Hawkeye state
Initialize Hawkeye state
Initialize Hawkeye state
Initialize Hawkeye state
Initialize Hawkeye state
Initialize Hawkeye state
Initialize Hawkeye state
Initialize Hawkeye state
CPU 4 Bimodal branch predictor
Initialize Hawkeye state
Initialize Hawkeye state
Initialize Hawkeye state
Initialize Hawkeye state
Initialize Hawkeye state
Initialize Hawkeye state
Initialize Hawkeye state
Initialize Hawkeye state
CPU 5 Bimodal branch predictor
Initialize Hawkeye state
Initialize Hawkeye state
Initialize Hawkeye state
Initialize Hawkeye state
Initialize Hawkeye state
Initialize Hawkeye state
Initialize Hawkeye state
Initialize Hawkeye state
CPU 6 Bimodal branch predictor
Initialize Hawkeye state
Initialize Hawkeye state
Initialize Hawkeye state
Initialize Hawkeye state
Initialize Hawkeye state
Initialize Hawkeye state
Initialize Hawkeye state
Initialize Hawkeye state
CPU 7 Bimodal branch predictor
Initialize Hawkeye state
Initialize Hawkeye state
Initialize Hawkeye state
Initialize Hawkeye state
Initialize Hawkeye state
Initialize Hawkeye state
Initialize Hawkeye state
Initialize Hawkeye state
Heartbeat CPU 1 instructions: 10000001 cycles: 6407820 heartbeat IPC: 1.56059 cumulative IPC: 1.56059 (Simulation time: 1 hr 35 min 6 sec) 
 Total Blocks : 196608 Invalid Blocks : 38403 Valid Blocks : 158205
 Total Tags : 491520 Threshold : 12288 Invalid Tags : 235016 Pr0 Tags : 98299 Pr1 Tags : 158205 num_pr0 : 12287
 SAE Count : 0
 Inter-Core Inteference in Data Store : 142043
Heartbeat CPU 3 instructions: 10000001 cycles: 6407833 heartbeat IPC: 1.56059 cumulative IPC: 1.56059 (Simulation time: 1 hr 35 min 6 sec) 
 Total Blocks : 196608 Invalid Blocks : 38403 Valid Blocks : 158205
 Total Tags : 491520 Threshold : 12288 Invalid Tags : 235016 Pr0 Tags : 98299 Pr1 Tags : 158205 num_pr0 : 12287
 SAE Count : 0
 Inter-Core Inteference in Data Store : 142043
Heartbeat CPU 0 instructions: 10000001 cycles: 6407836 heartbeat IPC: 1.56059 cumulative IPC: 1.56059 (Simulation time: 1 hr 35 min 6 sec) 
 Total Blocks : 196608 Invalid Blocks : 38403 Valid Blocks : 158205
 Total Tags : 491520 Threshold : 12288 Invalid Tags : 235016 Pr0 Tags : 98299 Pr1 Tags : 158205 num_pr0 : 12287
 SAE Count : 0
 Inter-Core Inteference in Data Store : 142043
Heartbeat CPU 6 instructions: 10000001 cycles: 6407852 heartbeat IPC: 1.56059 cumulative IPC: 1.56059 (Simulation time: 1 hr 35 min 6 sec) 
 Total Blocks : 196608 Invalid Blocks : 38403 Valid Blocks : 158205
 Total Tags : 491520 Threshold : 12288 Invalid Tags : 235016 Pr0 Tags : 98299 Pr1 Tags : 158205 num_pr0 : 12287
 SAE Count : 0
 Inter-Core Inteference in Data Store : 142044
Heartbeat CPU 2 instructions: 10000001 cycles: 6407854 heartbeat IPC: 1.56059 cumulative IPC: 1.56059 (Simulation time: 1 hr 35 min 6 sec) 
 Total Blocks : 196608 Invalid Blocks : 38403 Valid Blocks : 158205
 Total Tags : 491520 Threshold : 12288 Invalid Tags : 235016 Pr0 Tags : 98299 Pr1 Tags : 158205 num_pr0 : 12287
 SAE Count : 0
 Inter-Core Inteference in Data Store : 142044
Heartbeat CPU 4 instructions: 10000001 cycles: 6407900 heartbeat IPC: 1.56057 cumulative IPC: 1.56057 (Simulation time: 1 hr 35 min 7 sec) 
 Total Blocks : 196608 Invalid Blocks : 38403 Valid Blocks : 158205
 Total Tags : 491520 Threshold : 12288 Invalid Tags : 235016 Pr0 Tags : 98299 Pr1 Tags : 158205 num_pr0 : 12287
 SAE Count : 0
 Inter-Core Inteference in Data Store : 142045
Heartbeat CPU 5 instructions: 10000001 cycles: 6407904 heartbeat IPC: 1.56057 cumulative IPC: 1.56057 (Simulation time: 1 hr 35 min 7 sec) 
 Total Blocks : 196608 Invalid Blocks : 38403 Valid Blocks : 158205
 Total Tags : 491520 Threshold : 12288 Invalid Tags : 235016 Pr0 Tags : 98299 Pr1 Tags : 158205 num_pr0 : 12287
 SAE Count : 0
 Inter-Core Inteference in Data Store : 142045
Heartbeat CPU 7 instructions: 10000001 cycles: 6407906 heartbeat IPC: 1.56057 cumulative IPC: 1.56057 (Simulation time: 1 hr 35 min 7 sec) 
 Total Blocks : 196608 Invalid Blocks : 38403 Valid Blocks : 158205
 Total Tags : 491520 Threshold : 12288 Invalid Tags : 235016 Pr0 Tags : 98299 Pr1 Tags : 158205 num_pr0 : 12287
 SAE Count : 0
 Inter-Core Inteference in Data Store : 142045
Heartbeat CPU 1 instructions: 20000001 cycles: 11136563 heartbeat IPC: 2.11473 cumulative IPC: 1.79589 (Simulation time: 4 hr 10 min 25 sec) 
 Total Blocks : 196608 Invalid Blocks : 216 Valid Blocks : 196392
 Total Tags : 491520 Threshold : 12288 Invalid Tags : 196824 Pr0 Tags : 98304 Pr1 Tags : 196392 num_pr0 : 12288
 SAE Count : 0
 Inter-Core Inteference in Data Store : 1007645
Heartbeat CPU 0 instructions: 20000001 cycles: 11136569 heartbeat IPC: 2.11473 cumulative IPC: 1.79589 (Simulation time: 4 hr 10 min 25 sec) 
 Total Blocks : 196608 Invalid Blocks : 216 Valid Blocks : 196392
 Total Tags : 491520 Threshold : 12288 Invalid Tags : 196824 Pr0 Tags : 98304 Pr1 Tags : 196392 num_pr0 : 12288
 SAE Count : 0
 Inter-Core Inteference in Data Store : 1007645
Heartbeat CPU 3 instructions: 20000001 cycles: 11136571 heartbeat IPC: 2.11473 cumulative IPC: 1.79588 (Simulation time: 4 hr 10 min 25 sec) 
 Total Blocks : 196608 Invalid Blocks : 216 Valid Blocks : 196392
 Total Tags : 491520 Threshold : 12288 Invalid Tags : 196824 Pr0 Tags : 98304 Pr1 Tags : 196392 num_pr0 : 12288
 SAE Count : 0
 Inter-Core Inteference in Data Store : 1007645
Heartbeat CPU 2 instructions: 20000001 cycles: 11136574 heartbeat IPC: 2.11474 cumulative IPC: 1.79588 (Simulation time: 4 hr 10 min 25 sec) 
 Total Blocks : 196608 Invalid Blocks : 216 Valid Blocks : 196392
 Total Tags : 491520 Threshold : 12288 Invalid Tags : 196824 Pr0 Tags : 98304 Pr1 Tags : 196392 num_pr0 : 12288
 SAE Count : 0
 Inter-Core Inteference in Data Store : 1007645
Heartbeat CPU 6 instructions: 20000001 cycles: 11136577 heartbeat IPC: 2.11473 cumulative IPC: 1.79588 (Simulation time: 4 hr 10 min 25 sec) 
 Total Blocks : 196608 Invalid Blocks : 216 Valid Blocks : 196392
 Total Tags : 491520 Threshold : 12288 Invalid Tags : 196824 Pr0 Tags : 98304 Pr1 Tags : 196392 num_pr0 : 12288
 SAE Count : 0
 Inter-Core Inteference in Data Store : 1007645
Heartbeat CPU 4 instructions: 20000001 cycles: 11136598 heartbeat IPC: 2.11475 cumulative IPC: 1.79588 (Simulation time: 4 hr 10 min 25 sec) 
 Total Blocks : 196608 Invalid Blocks : 216 Valid Blocks : 196392
 Total Tags : 491520 Threshold : 12288 Invalid Tags : 196824 Pr0 Tags : 98304 Pr1 Tags : 196392 num_pr0 : 12288
 SAE Count : 0
 Inter-Core Inteference in Data Store : 1007647
Heartbeat CPU 5 instructions: 20000001 cycles: 11136604 heartbeat IPC: 2.11475 cumulative IPC: 1.79588 (Simulation time: 4 hr 10 min 25 sec) 
 Total Blocks : 196608 Invalid Blocks : 216 Valid Blocks : 196392
 Total Tags : 491520 Threshold : 12288 Invalid Tags : 196824 Pr0 Tags : 98304 Pr1 Tags : 196392 num_pr0 : 12288
 SAE Count : 0
 Inter-Core Inteference in Data Store : 1007647
Heartbeat CPU 7 instructions: 20000001 cycles: 11136605 heartbeat IPC: 2.11475 cumulative IPC: 1.79588 (Simulation time: 4 hr 10 min 26 sec) 
 Total Blocks : 196608 Invalid Blocks : 216 Valid Blocks : 196392
 Total Tags : 491520 Threshold : 12288 Invalid Tags : 196824 Pr0 Tags : 98304 Pr1 Tags : 196392 num_pr0 : 12288
 SAE Count : 0
 Inter-Core Inteference in Data Store : 1007647
Heartbeat CPU 6 instructions: 30000001 cycles: 15398045 heartbeat IPC: 2.34661 cumulative IPC: 1.9483 (Simulation time: 7 hr 33 min 24 sec) 
 Total Blocks : 196608 Invalid Blocks : 1 Valid Blocks : 196607
 Total Tags : 491520 Threshold : 12288 Invalid Tags : 196610 Pr0 Tags : 98303 Pr1 Tags : 196607 num_pr0 : 12288
 SAE Count : 0
 Inter-Core Inteference in Data Store : 1894935
Heartbeat CPU 1 instructions: 30000001 cycles: 15398063 heartbeat IPC: 2.34659 cumulative IPC: 1.9483 (Simulation time: 7 hr 33 min 24 sec) 
 Total Blocks : 196608 Invalid Blocks : 1 Valid Blocks : 196607
 Total Tags : 491520 Threshold : 12288 Invalid Tags : 196612 Pr0 Tags : 98301 Pr1 Tags : 196607 num_pr0 : 12288
 SAE Count : 0
 Inter-Core Inteference in Data Store : 1894949
Heartbeat CPU 4 instructions: 30000001 cycles: 15398068 heartbeat IPC: 2.34661 cumulative IPC: 1.9483 (Simulation time: 7 hr 33 min 24 sec) 
 Total Blocks : 196608 Invalid Blocks : 1 Valid Blocks : 196607
 Total Tags : 491520 Threshold : 12288 Invalid Tags : 196613 Pr0 Tags : 98300 Pr1 Tags : 196607 num_pr0 : 12286
 SAE Count : 0
 Inter-Core Inteference in Data Store : 1894952
Heartbeat CPU 0 instructions: 30000001 cycles: 15398072 heartbeat IPC: 2.34659 cumulative IPC: 1.9483 (Simulation time: 7 hr 33 min 24 sec) 
 Total Blocks : 196608 Invalid Blocks : 1 Valid Blocks : 196607
 Total Tags : 491520 Threshold : 12288 Invalid Tags : 196614 Pr0 Tags : 98299 Pr1 Tags : 196607 num_pr0 : 12286
 SAE Count : 0
 Inter-Core Inteference in Data Store : 1894953
Heartbeat CPU 2 instructions: 30000001 cycles: 15398081 heartbeat IPC: 2.34659 cumulative IPC: 1.94829 (Simulation time: 7 hr 33 min 24 sec) 
 Total Blocks : 196608 Invalid Blocks : 1 Valid Blocks : 196607
 Total Tags : 491520 Threshold : 12288 Invalid Tags : 196614 Pr0 Tags : 98299 Pr1 Tags : 196607 num_pr0 : 12286
 SAE Count : 0
 Inter-Core Inteference in Data Store : 1894954
Heartbeat CPU 7 instructions: 30000001 cycles: 15398136 heartbeat IPC: 2.34657 cumulative IPC: 1.94829 (Simulation time: 7 hr 33 min 25 sec) 
 Total Blocks : 196608 Invalid Blocks : 1 Valid Blocks : 196607
 Total Tags : 491520 Threshold : 12288 Invalid Tags : 196612 Pr0 Tags : 98301 Pr1 Tags : 196607 num_pr0 : 12287
 SAE Count : 0
 Inter-Core Inteference in Data Store : 1894989
Heartbeat CPU 3 instructions: 30000001 cycles: 15398145 heartbeat IPC: 2.34655 cumulative IPC: 1.94829 (Simulation time: 7 hr 33 min 25 sec) 
 Total Blocks : 196608 Invalid Blocks : 1 Valid Blocks : 196607
 Total Tags : 491520 Threshold : 12288 Invalid Tags : 196615 Pr0 Tags : 98298 Pr1 Tags : 196607 num_pr0 : 12286
 SAE Count : 0
 Inter-Core Inteference in Data Store : 1894994
Heartbeat CPU 5 instructions: 30000001 cycles: 15398153 heartbeat IPC: 2.34656 cumulative IPC: 1.94829 (Simulation time: 7 hr 33 min 26 sec) 
 Total Blocks : 196608 Invalid Blocks : 1 Valid Blocks : 196607
 Total Tags : 491520 Threshold : 12288 Invalid Tags : 196616 Pr0 Tags : 98297 Pr1 Tags : 196607 num_pr0 : 12286
 SAE Count : 0
 Inter-Core Inteference in Data Store : 1894998
Heartbeat CPU 7 instructions: 40000001 cycles: 21042341 heartbeat IPC: 1.77173 cumulative IPC: 1.90093 (Simulation time: 11 hr 29 min 8 sec) 
 Total Blocks : 196608 Invalid Blocks : 0 Valid Blocks : 196608
 Total Tags : 491520 Threshold : 12288 Invalid Tags : 196610 Pr0 Tags : 98302 Pr1 Tags : 196608 num_pr0 : 12288
 SAE Count : 0
 Inter-Core Inteference in Data Store : 3187689
Heartbeat CPU 6 instructions: 40000001 cycles: 21042424 heartbeat IPC: 1.77167 cumulative IPC: 1.90092 (Simulation time: 11 hr 29 min 9 sec) 
 Total Blocks : 196608 Invalid Blocks : 0 Valid Blocks : 196608
 Total Tags : 491520 Threshold : 12288 Invalid Tags : 196610 Pr0 Tags : 98302 Pr1 Tags : 196608 num_pr0 : 12288
 SAE Count : 0
 Inter-Core Inteference in Data Store : 3187704
Heartbeat CPU 4 instructions: 40000001 cycles: 21042427 heartbeat IPC: 1.77168 cumulative IPC: 1.90092 (Simulation time: 11 hr 29 min 9 sec) 
 Total Blocks : 196608 Invalid Blocks : 0 Valid Blocks : 196608
 Total Tags : 491520 Threshold : 12288 Invalid Tags : 196610 Pr0 Tags : 98302 Pr1 Tags : 196608 num_pr0 : 12288
 SAE Count : 0
 Inter-Core Inteference in Data Store : 3187704
Heartbeat CPU 1 instructions: 40000001 cycles: 21042507 heartbeat IPC: 1.77165 cumulative IPC: 1.90091 (Simulation time: 11 hr 29 min 9 sec) 
 Total Blocks : 196608 Invalid Blocks : 0 Valid Blocks : 196608
 Total Tags : 491520 Threshold : 12288 Invalid Tags : 196608 Pr0 Tags : 98304 Pr1 Tags : 196608 num_pr0 : 12288
 SAE Count : 0
 Inter-Core Inteference in Data Store : 3187714
Heartbeat CPU 5 instructions: 40000001 cycles: 21042544 heartbeat IPC: 1.77167 cumulative IPC: 1.90091 (Simulation time: 11 hr 29 min 9 sec) 
 Total Blocks : 196608 Invalid Blocks : 0 Valid Blocks : 196608
 Total Tags : 491520 Threshold : 12288 Invalid Tags : 196610 Pr0 Tags : 98302 Pr1 Tags : 196608 num_pr0 : 12288
 SAE Count : 0
 Inter-Core Inteference in Data Store : 3187721
Heartbeat CPU 2 instructions: 40000001 cycles: 21042605 heartbeat IPC: 1.77163 cumulative IPC: 1.90091 (Simulation time: 11 hr 29 min 9 sec) 
 Total Blocks : 196608 Invalid Blocks : 0 Valid Blocks : 196608
 Total Tags : 491520 Threshold : 12288 Invalid Tags : 196609 Pr0 Tags : 98303 Pr1 Tags : 196608 num_pr0 : 12288
 SAE Count : 0
 Inter-Core Inteference in Data Store : 3187730
Heartbeat CPU 0 instructions: 40000001 cycles: 21042626 heartbeat IPC: 1.77162 cumulative IPC: 1.9009 (Simulation time: 11 hr 29 min 9 sec) 
 Total Blocks : 196608 Invalid Blocks : 0 Valid Blocks : 196608
 Total Tags : 491520 Threshold : 12288 Invalid Tags : 196611 Pr0 Tags : 98301 Pr1 Tags : 196608 num_pr0 : 12288
 SAE Count : 0
 Inter-Core Inteference in Data Store : 3187735
Heartbeat CPU 3 instructions: 40000001 cycles: 21042669 heartbeat IPC: 1.77163 cumulative IPC: 1.9009 (Simulation time: 11 hr 29 min 9 sec) 
 Total Blocks : 196608 Invalid Blocks : 0 Valid Blocks : 196608
 Total Tags : 491520 Threshold : 12288 Invalid Tags : 196611 Pr0 Tags : 98301 Pr1 Tags : 196608 num_pr0 : 12288
 SAE Count : 0
 Inter-Core Inteference in Data Store : 3187740
Heartbeat CPU 6 instructions: 50000003 cycles: 27309941 heartbeat IPC: 1.59553 cumulative IPC: 1.83084 (Simulation time: 16 hr 0 min 8 sec) 
 Total Blocks : 196608 Invalid Blocks : 0 Valid Blocks : 196608
 Total Tags : 491520 Threshold : 12288 Invalid Tags : 196610 Pr0 Tags : 98302 Pr1 Tags : 196608 num_pr0 : 12288
 SAE Count : 0
 Inter-Core Inteference in Data Store : 4458964
Heartbeat CPU 7 instructions: 50000003 cycles: 27309974 heartbeat IPC: 1.5955 cumulative IPC: 1.83083 (Simulation time: 16 hr 0 min 8 sec) 
 Total Blocks : 196608 Invalid Blocks : 0 Valid Blocks : 196608
 Total Tags : 491520 Threshold : 12288 Invalid Tags : 196609 Pr0 Tags : 98303 Pr1 Tags : 196608 num_pr0 : 12287
 SAE Count : 0
 Inter-Core Inteference in Data Store : 4458976
Heartbeat CPU 4 instructions: 50000003 cycles: 27310001 heartbeat IPC: 1.59551 cumulative IPC: 1.83083 (Simulation time: 16 hr 0 min 8 sec) 
 Total Blocks : 196608 Invalid Blocks : 0 Valid Blocks : 196608
 Total Tags : 491520 Threshold : 12288 Invalid Tags : 196609 Pr0 Tags : 98303 Pr1 Tags : 196608 num_pr0 : 12288
 SAE Count : 0
 Inter-Core Inteference in Data Store : 4458990
Heartbeat CPU 1 instructions: 50000003 cycles: 27310118 heartbeat IPC: 1.5955 cumulative IPC: 1.83082 (Simulation time: 16 hr 0 min 8 sec) 
 Total Blocks : 196608 Invalid Blocks : 0 Valid Blocks : 196608
 Total Tags : 491520 Threshold : 12288 Invalid Tags : 196610 Pr0 Tags : 98302 Pr1 Tags : 196608 num_pr0 : 12287
 SAE Count : 0
 Inter-Core Inteference in Data Store : 4459040
Heartbeat CPU 0 instructions: 50000003 cycles: 27310186 heartbeat IPC: 1.59552 cumulative IPC: 1.83082 (Simulation time: 16 hr 0 min 8 sec) 
 Total Blocks : 196608 Invalid Blocks : 0 Valid Blocks : 196608
 Total Tags : 491520 Threshold : 12288 Invalid Tags : 196609 Pr0 Tags : 98303 Pr1 Tags : 196608 num_pr0 : 12288
 SAE Count : 0
 Inter-Core Inteference in Data Store : 4459064
Heartbeat CPU 5 instructions: 50000003 cycles: 27310195 heartbeat IPC: 1.59549 cumulative IPC: 1.83082 (Simulation time: 16 hr 0 min 8 sec) 
 Total Blocks : 196608 Invalid Blocks : 0 Valid Blocks : 196608
 Total Tags : 491520 Threshold : 12288 Invalid Tags : 196610 Pr0 Tags : 98302 Pr1 Tags : 196608 num_pr0 : 12288
 SAE Count : 0
 Inter-Core Inteference in Data Store : 4459067
Heartbeat CPU 2 instructions: 50000003 cycles: 27310211 heartbeat IPC: 1.59551 cumulative IPC: 1.83082 (Simulation time: 16 hr 0 min 8 sec) 
 Total Blocks : 196608 Invalid Blocks : 0 Valid Blocks : 196608
 Total Tags : 491520 Threshold : 12288 Invalid Tags : 196608 Pr0 Tags : 98304 Pr1 Tags : 196608 num_pr0 : 12288
 SAE Count : 0
 Inter-Core Inteference in Data Store : 4459072
Heartbeat CPU 3 instructions: 50000003 cycles: 27310282 heartbeat IPC: 1.5955 cumulative IPC: 1.83081 (Simulation time: 16 hr 0 min 9 sec) 
 Total Blocks : 196608 Invalid Blocks : 0 Valid Blocks : 196608
 Total Tags : 491520 Threshold : 12288 Invalid Tags : 196609 Pr0 Tags : 98303 Pr1 Tags : 196608 num_pr0 : 12288
 SAE Count : 0
 Inter-Core Inteference in Data Store : 4459098
Heartbeat CPU 6 instructions: 60000000 cycles: 30804112 heartbeat IPC: 2.86191 cumulative IPC: 1.94779 (Simulation time: 16 hr 47 min 9 sec) 
 Total Blocks : 196608 Invalid Blocks : 0 Valid Blocks : 196608
 Total Tags : 491520 Threshold : 12288 Invalid Tags : 196608 Pr0 Tags : 98304 Pr1 Tags : 196608 num_pr0 : 12288
 SAE Count : 0
 Inter-Core Inteference in Data Store : 4821072
Heartbeat CPU 7 instructions: 60000000 cycles: 30804174 heartbeat IPC: 2.86188 cumulative IPC: 1.94779 (Simulation time: 16 hr 47 min 9 sec) 
 Total Blocks : 196608 Invalid Blocks : 0 Valid Blocks : 196608
 Total Tags : 491520 Threshold : 12288 Invalid Tags : 196609 Pr0 Tags : 98303 Pr1 Tags : 196608 num_pr0 : 12288
 SAE Count : 0
 Inter-Core Inteference in Data Store : 4821076
Heartbeat CPU 4 instructions: 60000000 cycles: 30804180 heartbeat IPC: 2.8619 cumulative IPC: 1.94779 (Simulation time: 16 hr 47 min 9 sec) 
 Total Blocks : 196608 Invalid Blocks : 0 Valid Blocks : 196608
 Total Tags : 491520 Threshold : 12288 Invalid Tags : 196608 Pr0 Tags : 98304 Pr1 Tags : 196608 num_pr0 : 12288
 SAE Count : 0
 Inter-Core Inteference in Data Store : 4821077
Heartbeat CPU 1 instructions: 60000000 cycles: 30804292 heartbeat IPC: 2.86191 cumulative IPC: 1.94778 (Simulation time: 16 hr 47 min 9 sec) 
 Total Blocks : 196608 Invalid Blocks : 0 Valid Blocks : 196608
 Total Tags : 491520 Threshold : 12288 Invalid Tags : 196608 Pr0 Tags : 98304 Pr1 Tags : 196608 num_pr0 : 12288
 SAE Count : 0
 Inter-Core Inteference in Data Store : 4821086
Heartbeat CPU 5 instructions: 60000000 cycles: 30804324 heartbeat IPC: 2.86194 cumulative IPC: 1.94778 (Simulation time: 16 hr 47 min 9 sec) 
 Total Blocks : 196608 Invalid Blocks : 0 Valid Blocks : 196608
 Total Tags : 491520 Threshold : 12288 Invalid Tags : 196608 Pr0 Tags : 98304 Pr1 Tags : 196608 num_pr0 : 12288
 SAE Count : 0
 Inter-Core Inteference in Data Store : 4821088
Heartbeat CPU 0 instructions: 60000000 cycles: 30804361 heartbeat IPC: 2.86191 cumulative IPC: 1.94778 (Simulation time: 16 hr 47 min 9 sec) 
 Total Blocks : 196608 Invalid Blocks : 0 Valid Blocks : 196608
 Total Tags : 491520 Threshold : 12288 Invalid Tags : 196610 Pr0 Tags : 98302 Pr1 Tags : 196608 num_pr0 : 12288
 SAE Count : 0
 Inter-Core Inteference in Data Store : 4821092
Heartbeat CPU 2 instructions: 60000000 cycles: 30804410 heartbeat IPC: 2.86189 cumulative IPC: 1.94777 (Simulation time: 16 hr 47 min 9 sec) 
 Total Blocks : 196608 Invalid Blocks : 0 Valid Blocks : 196608
 Total Tags : 491520 Threshold : 12288 Invalid Tags : 196608 Pr0 Tags : 98304 Pr1 Tags : 196608 num_pr0 : 12288
 SAE Count : 0
 Inter-Core Inteference in Data Store : 4821095
Heartbeat CPU 3 instructions: 60000000 cycles: 30804423 heartbeat IPC: 2.86193 cumulative IPC: 1.94777 (Simulation time: 16 hr 47 min 10 sec) 
 Total Blocks : 196608 Invalid Blocks : 0 Valid Blocks : 196608
 Total Tags : 491520 Threshold : 12288 Invalid Tags : 196608 Pr0 Tags : 98304 Pr1 Tags : 196608 num_pr0 : 12288
 SAE Count : 0
 Inter-Core Inteference in Data Store : 4821095
Heartbeat CPU 6 instructions: 70000002 cycles: 34291396 heartbeat IPC: 2.86756 cumulative IPC: 2.04133 (Simulation time: 17 hr 6 min 24 sec) 
 Total Blocks : 196608 Invalid Blocks : 0 Valid Blocks : 196608
 Total Tags : 491520 Threshold : 12288 Invalid Tags : 196611 Pr0 Tags : 98301 Pr1 Tags : 196608 num_pr0 : 12288
 SAE Count : 0
 Inter-Core Inteference in Data Store : 5011840
Heartbeat CPU 7 instructions: 70000002 cycles: 34291462 heartbeat IPC: 2.86756 cumulative IPC: 2.04132 (Simulation time: 17 hr 6 min 24 sec) 
 Total Blocks : 196608 Invalid Blocks : 0 Valid Blocks : 196608
 Total Tags : 491520 Threshold : 12288 Invalid Tags : 196609 Pr0 Tags : 98303 Pr1 Tags : 196608 num_pr0 : 12288
 SAE Count : 0
 Inter-Core Inteference in Data Store : 5011843
Heartbeat CPU 4 instructions: 70000002 cycles: 34291496 heartbeat IPC: 2.86754 cumulative IPC: 2.04132 (Simulation time: 17 hr 6 min 24 sec) 
 Total Blocks : 196608 Invalid Blocks : 0 Valid Blocks : 196608
 Total Tags : 491520 Threshold : 12288 Invalid Tags : 196610 Pr0 Tags : 98302 Pr1 Tags : 196608 num_pr0 : 12288
 SAE Count : 0
 Inter-Core Inteference in Data Store : 5011846
Heartbeat CPU 1 instructions: 70000002 cycles: 34291533 heartbeat IPC: 2.8676 cumulative IPC: 2.04132 (Simulation time: 17 hr 6 min 24 sec) 
 Total Blocks : 196608 Invalid Blocks : 0 Valid Blocks : 196608
 Total Tags : 491520 Threshold : 12288 Invalid Tags : 196610 Pr0 Tags : 98302 Pr1 Tags : 196608 num_pr0 : 12288
 SAE Count : 0
 Inter-Core Inteference in Data Store : 5011847
Heartbeat CPU 5 instructions: 70000002 cycles: 34291569 heartbeat IPC: 2.86759 cumulative IPC: 2.04132 (Simulation time: 17 hr 6 min 24 sec) 
 Total Blocks : 196608 Invalid Blocks : 0 Valid Blocks : 196608
 Total Tags : 491520 Threshold : 12288 Invalid Tags : 196611 Pr0 Tags : 98301 Pr1 Tags : 196608 num_pr0 : 12288
 SAE Count : 0
 Inter-Core Inteference in Data Store : 5011848
Heartbeat CPU 0 instructions: 70000002 cycles: 34291635 heartbeat IPC: 2.86757 cumulative IPC: 2.04131 (Simulation time: 17 hr 6 min 24 sec) 
 Total Blocks : 196608 Invalid Blocks : 0 Valid Blocks : 196608
 Total Tags : 491520 Threshold : 12288 Invalid Tags : 196610 Pr0 Tags : 98302 Pr1 Tags : 196608 num_pr0 : 12288
 SAE Count : 0
 Inter-Core Inteference in Data Store : 5011851
Heartbeat CPU 2 instructions: 70000002 cycles: 34291693 heartbeat IPC: 2.86756 cumulative IPC: 2.04131 (Simulation time: 17 hr 6 min 24 sec) 
 Total Blocks : 196608 Invalid Blocks : 0 Valid Blocks : 196608
 Total Tags : 491520 Threshold : 12288 Invalid Tags : 196610 Pr0 Tags : 98302 Pr1 Tags : 196608 num_pr0 : 12288
 SAE Count : 0
 Inter-Core Inteference in Data Store : 5011853
Heartbeat CPU 3 instructions: 70000002 cycles: 34291806 heartbeat IPC: 2.86748 cumulative IPC: 2.0413 (Simulation time: 17 hr 6 min 24 sec) 
 Total Blocks : 196608 Invalid Blocks : 0 Valid Blocks : 196608
 Total Tags : 491520 Threshold : 12288 Invalid Tags : 196610 Pr0 Tags : 98302 Pr1 Tags : 196608 num_pr0 : 12288
 SAE Count : 0
 Inter-Core Inteference in Data Store : 5011857
Heartbeat CPU 6 instructions: 80000001 cycles: 37778592 heartbeat IPC: 2.86763 cumulative IPC: 2.1176 (Simulation time: 17 hr 25 min 48 sec) 
 Total Blocks : 196608 Invalid Blocks : 0 Valid Blocks : 196608
 Total Tags : 491520 Threshold : 12288 Invalid Tags : 196611 Pr0 Tags : 98301 Pr1 Tags : 196608 num_pr0 : 12287
 SAE Count : 0
 Inter-Core Inteference in Data Store : 5217549
Heartbeat CPU 7 instructions: 80000001 cycles: 37778640 heartbeat IPC: 2.86765 cumulative IPC: 2.1176 (Simulation time: 17 hr 25 min 48 sec) 
 Total Blocks : 196608 Invalid Blocks : 0 Valid Blocks : 196608
 Total Tags : 491520 Threshold : 12288 Invalid Tags : 196608 Pr0 Tags : 98304 Pr1 Tags : 196608 num_pr0 : 12288
 SAE Count : 0
 Inter-Core Inteference in Data Store : 5217551
Heartbeat CPU 4 instructions: 80000001 cycles: 37778688 heartbeat IPC: 2.86764 cumulative IPC: 2.1176 (Simulation time: 17 hr 25 min 49 sec) 
 Total Blocks : 196608 Invalid Blocks : 0 Valid Blocks : 196608
 Total Tags : 491520 Threshold : 12288 Invalid Tags : 196610 Pr0 Tags : 98302 Pr1 Tags : 196608 num_pr0 : 12288
 SAE Count : 0
 Inter-Core Inteference in Data Store : 5217552
Heartbeat CPU 1 instructions: 80000001 cycles: 37778724 heartbeat IPC: 2.86764 cumulative IPC: 2.11759 (Simulation time: 17 hr 25 min 49 sec) 
 Total Blocks : 196608 Invalid Blocks : 0 Valid Blocks : 196608
 Total Tags : 491520 Threshold : 12288 Invalid Tags : 196609 Pr0 Tags : 98303 Pr1 Tags : 196608 num_pr0 : 12288
 SAE Count : 0
 Inter-Core Inteference in Data Store : 5217555
Heartbeat CPU 5 instructions: 80000001 cycles: 37778761 heartbeat IPC: 2.86764 cumulative IPC: 2.11759 (Simulation time: 17 hr 25 min 49 sec) 
 Total Blocks : 196608 Invalid Blocks : 0 Valid Blocks : 196608
 Total Tags : 491520 Threshold : 12288 Invalid Tags : 196608 Pr0 Tags : 98304 Pr1 Tags : 196608 num_pr0 : 12288
 SAE Count : 0
 Inter-Core Inteference in Data Store : 5217558
Heartbeat CPU 0 instructions: 80000001 cycles: 37778827 heartbeat IPC: 2.86764 cumulative IPC: 2.11759 (Simulation time: 17 hr 25 min 49 sec) 
 Total Blocks : 196608 Invalid Blocks : 0 Valid Blocks : 196608
 Total Tags : 491520 Threshold : 12288 Invalid Tags : 196608 Pr0 Tags : 98304 Pr1 Tags : 196608 num_pr0 : 12288
 SAE Count : 0
 Inter-Core Inteference in Data Store : 5217560
Heartbeat CPU 2 instructions: 80000001 cycles: 37778871 heartbeat IPC: 2.86765 cumulative IPC: 2.11759 (Simulation time: 17 hr 25 min 49 sec) 
 Total Blocks : 196608 Invalid Blocks : 0 Valid Blocks : 196608
 Total Tags : 491520 Threshold : 12288 Invalid Tags : 196608 Pr0 Tags : 98304 Pr1 Tags : 196608 num_pr0 : 12288
 SAE Count : 0
 Inter-Core Inteference in Data Store : 5217561
Heartbeat CPU 3 instructions: 80000001 cycles: 37778978 heartbeat IPC: 2.86765 cumulative IPC: 2.11758 (Simulation time: 17 hr 25 min 49 sec) 
 Total Blocks : 196608 Invalid Blocks : 0 Valid Blocks : 196608
 Total Tags : 491520 Threshold : 12288 Invalid Tags : 196609 Pr0 Tags : 98303 Pr1 Tags : 196608 num_pr0 : 12288
 SAE Count : 0
 Inter-Core Inteference in Data Store : 5217568
Heartbeat CPU 6 instructions: 90000000 cycles: 42999780 heartbeat IPC: 1.91527 cumulative IPC: 2.09303 (Simulation time: 18 hr 43 min 43 sec) 
 Total Blocks : 196608 Invalid Blocks : 0 Valid Blocks : 196608
 Total Tags : 491520 Threshold : 12288 Invalid Tags : 196610 Pr0 Tags : 98302 Pr1 Tags : 196608 num_pr0 : 12288
 SAE Count : 0
 Inter-Core Inteference in Data Store : 5892500
Heartbeat CPU 7 instructions: 90000000 cycles: 42999867 heartbeat IPC: 1.91526 cumulative IPC: 2.09303 (Simulation time: 18 hr 43 min 43 sec) 
 Total Blocks : 196608 Invalid Blocks : 0 Valid Blocks : 196608
 Total Tags : 491520 Threshold : 12288 Invalid Tags : 196611 Pr0 Tags : 98301 Pr1 Tags : 196608 num_pr0 : 12288
 SAE Count : 0
 Inter-Core Inteference in Data Store : 5892513
Heartbeat CPU 4 instructions: 90000000 cycles: 42999915 heartbeat IPC: 1.91526 cumulative IPC: 2.09303 (Simulation time: 18 hr 43 min 43 sec) 
 Total Blocks : 196608 Invalid Blocks : 0 Valid Blocks : 196608
 Total Tags : 491520 Threshold : 12288 Invalid Tags : 196610 Pr0 Tags : 98302 Pr1 Tags : 196608 num_pr0 : 12288
 SAE Count : 0
 Inter-Core Inteference in Data Store : 5892519
Heartbeat CPU 1 instructions: 90000000 cycles: 42999951 heartbeat IPC: 1.91526 cumulative IPC: 2.09303 (Simulation time: 18 hr 43 min 43 sec) 
 Total Blocks : 196608 Invalid Blocks : 0 Valid Blocks : 196608
 Total Tags : 491520 Threshold : 12288 Invalid Tags : 196613 Pr0 Tags : 98299 Pr1 Tags : 196608 num_pr0 : 12288
 SAE Count : 0
 Inter-Core Inteference in Data Store : 5892524
Heartbeat CPU 5 instructions: 90000000 cycles: 42999991 heartbeat IPC: 1.91526 cumulative IPC: 2.09302 (Simulation time: 18 hr 43 min 43 sec) 
 Total Blocks : 196608 Invalid Blocks : 0 Valid Blocks : 196608
 Total Tags : 491520 Threshold : 12288 Invalid Tags : 196610 Pr0 Tags : 98302 Pr1 Tags : 196608 num_pr0 : 12288
 SAE Count : 0
 Inter-Core Inteference in Data Store : 5892529
Heartbeat CPU 0 instructions: 90000000 cycles: 43000052 heartbeat IPC: 1.91526 cumulative IPC: 2.09302 (Simulation time: 18 hr 43 min 43 sec) 
 Total Blocks : 196608 Invalid Blocks : 0 Valid Blocks : 196608
 Total Tags : 491520 Threshold : 12288 Invalid Tags : 196610 Pr0 Tags : 98302 Pr1 Tags : 196608 num_pr0 : 12288
 SAE Count : 0
 Inter-Core Inteference in Data Store : 5892536
Heartbeat CPU 2 instructions: 90000000 cycles: 43000078 heartbeat IPC: 1.91527 cumulative IPC: 2.09302 (Simulation time: 18 hr 43 min 43 sec) 
 Total Blocks : 196608 Invalid Blocks : 0 Valid Blocks : 196608
 Total Tags : 491520 Threshold : 12288 Invalid Tags : 196609 Pr0 Tags : 98303 Pr1 Tags : 196608 num_pr0 : 12288
 SAE Count : 0
 Inter-Core Inteference in Data Store : 5892538
Heartbeat CPU 3 instructions: 90000000 cycles: 43000223 heartbeat IPC: 1.91525 cumulative IPC: 2.09301 (Simulation time: 18 hr 43 min 43 sec) 
 Total Blocks : 196608 Invalid Blocks : 0 Valid Blocks : 196608
 Total Tags : 491520 Threshold : 12288 Invalid Tags : 196611 Pr0 Tags : 98301 Pr1 Tags : 196608 num_pr0 : 12288
 SAE Count : 0
 Inter-Core Inteference in Data Store : 5892560
Heartbeat CPU 6 instructions: 100000003 cycles: 47760981 heartbeat IPC: 2.10031 cumulative IPC: 2.09376 (Simulation time: 19 hr 22 min 34 sec) 
 Total Blocks : 196608 Invalid Blocks : 0 Valid Blocks : 196608
 Total Tags : 491520 Threshold : 12288 Invalid Tags : 196609 Pr0 Tags : 98303 Pr1 Tags : 196608 num_pr0 : 12288
 SAE Count : 0
 Inter-Core Inteference in Data Store : 6535634
Heartbeat CPU 7 instructions: 100000003 cycles: 47761118 heartbeat IPC: 2.10029 cumulative IPC: 2.09375 (Simulation time: 19 hr 22 min 34 sec) 
 Total Blocks : 196608 Invalid Blocks : 0 Valid Blocks : 196608
 Total Tags : 491520 Threshold : 12288 Invalid Tags : 196609 Pr0 Tags : 98303 Pr1 Tags : 196608 num_pr0 : 12288
 SAE Count : 0
 Inter-Core Inteference in Data Store : 6535645
Heartbeat CPU 5 instructions: 100000003 cycles: 47761126 heartbeat IPC: 2.10034 cumulative IPC: 2.09375 (Simulation time: 19 hr 22 min 34 sec) 
 Total Blocks : 196608 Invalid Blocks : 0 Valid Blocks : 196608
 Total Tags : 491520 Threshold : 12288 Invalid Tags : 196609 Pr0 Tags : 98303 Pr1 Tags : 196608 num_pr0 : 12288
 SAE Count : 0
 Inter-Core Inteference in Data Store : 6535645
Heartbeat CPU 4 instructions: 100000003 cycles: 47761199 heartbeat IPC: 2.10027 cumulative IPC: 2.09375 (Simulation time: 19 hr 22 min 34 sec) 
 Total Blocks : 196608 Invalid Blocks : 0 Valid Blocks : 196608
 Total Tags : 491520 Threshold : 12288 Invalid Tags : 196609 Pr0 Tags : 98303 Pr1 Tags : 196608 num_pr0 : 12287
 SAE Count : 0
 Inter-Core Inteference in Data Store : 6535649
Heartbeat CPU 1 instructions: 100000003 cycles: 47761246 heartbeat IPC: 2.10027 cumulative IPC: 2.09375 (Simulation time: 19 hr 22 min 34 sec) 
 Total Blocks : 196608 Invalid Blocks : 0 Valid Blocks : 196608
 Total Tags : 491520 Threshold : 12288 Invalid Tags : 196610 Pr0 Tags : 98302 Pr1 Tags : 196608 num_pr0 : 12288
 SAE Count : 0
 Inter-Core Inteference in Data Store : 6535655
Heartbeat CPU 0 instructions: 100000003 cycles: 47761264 heartbeat IPC: 2.10031 cumulative IPC: 2.09375 (Simulation time: 19 hr 22 min 34 sec) 
 Total Blocks : 196608 Invalid Blocks : 0 Valid Blocks : 196608
 Total Tags : 491520 Threshold : 12288 Invalid Tags : 196610 Pr0 Tags : 98302 Pr1 Tags : 196608 num_pr0 : 12288
 SAE Count : 0
 Inter-Core Inteference in Data Store : 6535656
Heartbeat CPU 2 instructions: 100000003 cycles: 47761268 heartbeat IPC: 2.10032 cumulative IPC: 2.09375 (Simulation time: 19 hr 22 min 34 sec) 
 Total Blocks : 196608 Invalid Blocks : 0 Valid Blocks : 196608
 Total Tags : 491520 Threshold : 12288 Invalid Tags : 196611 Pr0 Tags : 98301 Pr1 Tags : 196608 num_pr0 : 12288
 SAE Count : 0
 Inter-Core Inteference in Data Store : 6535657
Heartbeat CPU 3 instructions: 100000003 cycles: 47761483 heartbeat IPC: 2.10029 cumulative IPC: 2.09374 (Simulation time: 19 hr 22 min 34 sec) 
 Total Blocks : 196608 Invalid Blocks : 0 Valid Blocks : 196608
 Total Tags : 491520 Threshold : 12288 Invalid Tags : 196608 Pr0 Tags : 98304 Pr1 Tags : 196608 num_pr0 : 12288
 SAE Count : 0
 Inter-Core Inteference in Data Store : 6535676
Heartbeat CPU 7 instructions: 110000000 cycles: 51747040 heartbeat IPC: 2.50883 cumulative IPC: 2.12573 (Simulation time: 19 hr 59 min 34 sec) 
 Total Blocks : 196608 Invalid Blocks : 0 Valid Blocks : 196608
 Total Tags : 491520 Threshold : 12288 Invalid Tags : 196608 Pr0 Tags : 98304 Pr1 Tags : 196608 num_pr0 : 12288
 SAE Count : 0
 Inter-Core Inteference in Data Store : 7190452
Heartbeat CPU 6 instructions: 110000000 cycles: 51747091 heartbeat IPC: 2.50871 cumulative IPC: 2.12572 (Simulation time: 19 hr 59 min 35 sec) 
 Total Blocks : 196608 Invalid Blocks : 0 Valid Blocks : 196608
 Total Tags : 491520 Threshold : 12288 Invalid Tags : 196609 Pr0 Tags : 98303 Pr1 Tags : 196608 num_pr0 : 12288
 SAE Count : 0
 Inter-Core Inteference in Data Store : 7190456
Heartbeat CPU 0 instructions: 110000000 cycles: 51747106 heartbeat IPC: 2.50888 cumulative IPC: 2.12572 (Simulation time: 19 hr 59 min 35 sec) 
 Total Blocks : 196608 Invalid Blocks : 0 Valid Blocks : 196608
 Total Tags : 491520 Threshold : 12288 Invalid Tags : 196610 Pr0 Tags : 98302 Pr1 Tags : 196608 num_pr0 : 12287
 SAE Count : 0
 Inter-Core Inteference in Data Store : 7190457
Heartbeat CPU 5 instructions: 110000000 cycles: 51747121 heartbeat IPC: 2.50878 cumulative IPC: 2.12572 (Simulation time: 19 hr 59 min 35 sec) 
 Total Blocks : 196608 Invalid Blocks : 0 Valid Blocks : 196608
 Total Tags : 491520 Threshold : 12288 Invalid Tags : 196608 Pr0 Tags : 98304 Pr1 Tags : 196608 num_pr0 : 12288
 SAE Count : 0
 Inter-Core Inteference in Data Store : 7190458
Heartbeat CPU 2 instructions: 110000000 cycles: 51747143 heartbeat IPC: 2.50886 cumulative IPC: 2.12572 (Simulation time: 19 hr 59 min 35 sec) 
 Total Blocks : 196608 Invalid Blocks : 0 Valid Blocks : 196608
 Total Tags : 491520 Threshold : 12288 Invalid Tags : 196608 Pr0 Tags : 98304 Pr1 Tags : 196608 num_pr0 : 12288
 SAE Count : 0
 Inter-Core Inteference in Data Store : 7190458
Heartbeat CPU 4 instructions: 110000000 cycles: 51747217 heartbeat IPC: 2.50877 cumulative IPC: 2.12572 (Simulation time: 19 hr 59 min 36 sec) 
 Total Blocks : 196608 Invalid Blocks : 0 Valid Blocks : 196608
 Total Tags : 491520 Threshold : 12288 Invalid Tags : 196608 Pr0 Tags : 98304 Pr1 Tags : 196608 num_pr0 : 12288
 SAE Count : 0
 Inter-Core Inteference in Data Store : 7190465
Heartbeat CPU 1 instructions: 110000000 cycles: 51747280 heartbeat IPC: 2.50876 cumulative IPC: 2.12572 (Simulation time: 19 hr 59 min 36 sec) 
 Total Blocks : 196608 Invalid Blocks : 0 Valid Blocks : 196608
 Total Tags : 491520 Threshold : 12288 Invalid Tags : 196610 Pr0 Tags : 98302 Pr1 Tags : 196608 num_pr0 : 12287
 SAE Count : 0
 Inter-Core Inteference in Data Store : 7190472
Heartbeat CPU 3 instructions: 110000000 cycles: 51747412 heartbeat IPC: 2.50882 cumulative IPC: 2.12571 (Simulation time: 19 hr 59 min 36 sec) 
 Total Blocks : 196608 Invalid Blocks : 0 Valid Blocks : 196608
 Total Tags : 491520 Threshold : 12288 Invalid Tags : 196610 Pr0 Tags : 98302 Pr1 Tags : 196608 num_pr0 : 12288
 SAE Count : 0
 Inter-Core Inteference in Data Store : 7190482
Heartbeat CPU 6 instructions: 120000000 cycles: 55059548 heartbeat IPC: 3.01891 cumulative IPC: 2.17946 (Simulation time: 20 hr 28 min 30 sec) 
 Total Blocks : 196608 Invalid Blocks : 0 Valid Blocks : 196608
 Total Tags : 491520 Threshold : 12288 Invalid Tags : 196615 Pr0 Tags : 98297 Pr1 Tags : 196608 num_pr0 : 12287
 SAE Count : 0
 Inter-Core Inteference in Data Store : 7603659
Heartbeat CPU 5 instructions: 120000000 cycles: 55059582 heartbeat IPC: 3.0189 cumulative IPC: 2.17946 (Simulation time: 20 hr 28 min 30 sec) 
 Total Blocks : 196608 Invalid Blocks : 0 Valid Blocks : 196608
 Total Tags : 491520 Threshold : 12288 Invalid Tags : 196615 Pr0 Tags : 98297 Pr1 Tags : 196608 num_pr0 : 12287
 SAE Count : 0
 Inter-Core Inteference in Data Store : 7603666
Heartbeat CPU 7 instructions: 120000000 cycles: 55059632 heartbeat IPC: 3.01878 cumulative IPC: 2.17946 (Simulation time: 20 hr 28 min 31 sec) 
 Total Blocks : 196608 Invalid Blocks : 0 Valid Blocks : 196608
 Total Tags : 491520 Threshold : 12288 Invalid Tags : 196614 Pr0 Tags : 98298 Pr1 Tags : 196608 num_pr0 : 12288
 SAE Count : 0
 Inter-Core Inteference in Data Store : 7603675
Heartbeat CPU 0 instructions: 120000000 cycles: 55059651 heartbeat IPC: 3.01883 cumulative IPC: 2.17945 (Simulation time: 20 hr 28 min 31 sec) 
 Total Blocks : 196608 Invalid Blocks : 0 Valid Blocks : 196608
 Total Tags : 491520 Threshold : 12288 Invalid Tags : 196613 Pr0 Tags : 98299 Pr1 Tags : 196608 num_pr0 : 12288
 SAE Count : 0
 Inter-Core Inteference in Data Store : 7603678
Heartbeat CPU 2 instructions: 120000000 cycles: 55059657 heartbeat IPC: 3.01886 cumulative IPC: 2.17945 (Simulation time: 20 hr 28 min 31 sec) 
 Total Blocks : 196608 Invalid Blocks : 0 Valid Blocks : 196608
 Total Tags : 491520 Threshold : 12288 Invalid Tags : 196614 Pr0 Tags : 98298 Pr1 Tags : 196608 num_pr0 : 12288
 SAE Count : 0
 Inter-Core Inteference in Data Store : 7603679
Heartbeat CPU 4 instructions: 120000000 cycles: 55059690 heartbeat IPC: 3.01889 cumulative IPC: 2.17945 (Simulation time: 20 hr 28 min 31 sec) 
 Total Blocks : 196608 Invalid Blocks : 0 Valid Blocks : 196608
 Total Tags : 491520 Threshold : 12288 Invalid Tags : 196617 Pr0 Tags : 98295 Pr1 Tags : 196608 num_pr0 : 12287
 SAE Count : 0
 Inter-Core Inteference in Data Store : 7603686
Heartbeat CPU 3 instructions: 120000000 cycles: 55059698 heartbeat IPC: 3.01906 cumulative IPC: 2.17945 (Simulation time: 20 hr 28 min 31 sec) 
 Total Blocks : 196608 Invalid Blocks : 0 Valid Blocks : 196608
 Total Tags : 491520 Threshold : 12288 Invalid Tags : 196615 Pr0 Tags : 98297 Pr1 Tags : 196608 num_pr0 : 12288
 SAE Count : 0
 Inter-Core Inteference in Data Store : 7603688
Heartbeat CPU 1 instructions: 120000000 cycles: 55059756 heartbeat IPC: 3.01889 cumulative IPC: 2.17945 (Simulation time: 20 hr 28 min 31 sec) 
 Total Blocks : 196608 Invalid Blocks : 0 Valid Blocks : 196608
 Total Tags : 491520 Threshold : 12288 Invalid Tags : 196615 Pr0 Tags : 98297 Pr1 Tags : 196608 num_pr0 : 12287
 SAE Count : 0
 Inter-Core Inteference in Data Store : 7603697
Heartbeat CPU 5 instructions: 130000003 cycles: 58613121 heartbeat IPC: 2.8141 cumulative IPC: 2.21793 (Simulation time: 21 hr 2 min 58 sec) 
 Total Blocks : 196608 Invalid Blocks : 0 Valid Blocks : 196608
 Total Tags : 491520 Threshold : 12288 Invalid Tags : 196609 Pr0 Tags : 98303 Pr1 Tags : 196608 num_pr0 : 12287
 SAE Count : 0
 Inter-Core Inteference in Data Store : 8030716
Heartbeat CPU 6 instructions: 130000003 cycles: 58613186 heartbeat IPC: 2.81402 cumulative IPC: 2.21793 (Simulation time: 21 hr 2 min 58 sec) 
 Total Blocks : 196608 Invalid Blocks : 0 Valid Blocks : 196608
 Total Tags : 491520 Threshold : 12288 Invalid Tags : 196610 Pr0 Tags : 98302 Pr1 Tags : 196608 num_pr0 : 12288
 SAE Count : 0
 Inter-Core Inteference in Data Store : 8030723
Heartbeat CPU 7 instructions: 130000003 cycles: 58613271 heartbeat IPC: 2.81402 cumulative IPC: 2.21793 (Simulation time: 21 hr 2 min 58 sec) 
 Total Blocks : 196608 Invalid Blocks : 0 Valid Blocks : 196608
 Total Tags : 491520 Threshold : 12288 Invalid Tags : 196609 Pr0 Tags : 98303 Pr1 Tags : 196608 num_pr0 : 12288
 SAE Count : 0
 Inter-Core Inteference in Data Store : 8030729
Heartbeat CPU 0 instructions: 130000003 cycles: 58613282 heartbeat IPC: 2.81402 cumulative IPC: 2.21793 (Simulation time: 21 hr 2 min 58 sec) 
 Total Blocks : 196608 Invalid Blocks : 0 Valid Blocks : 196608
 Total Tags : 491520 Threshold : 12288 Invalid Tags : 196610 Pr0 Tags : 98302 Pr1 Tags : 196608 num_pr0 : 12288
 SAE Count : 0
 Inter-Core Inteference in Data Store : 8030729
Heartbeat CPU 3 instructions: 130000003 cycles: 58613288 heartbeat IPC: 2.81406 cumulative IPC: 2.21793 (Simulation time: 21 hr 2 min 59 sec) 
 Total Blocks : 196608 Invalid Blocks : 0 Valid Blocks : 196608
 Total Tags : 491520 Threshold : 12288 Invalid Tags : 196611 Pr0 Tags : 98301 Pr1 Tags : 196608 num_pr0 : 12288
 SAE Count : 0
 Inter-Core Inteference in Data Store : 8030730
Heartbeat CPU 2 instructions: 130000003 cycles: 58613333 heartbeat IPC: 2.81399 cumulative IPC: 2.21793 (Simulation time: 21 hr 2 min 59 sec) 
 Total Blocks : 196608 Invalid Blocks : 0 Valid Blocks : 196608
 Total Tags : 491520 Threshold : 12288 Invalid Tags : 196610 Pr0 Tags : 98302 Pr1 Tags : 196608 num_pr0 : 12288
 SAE Count : 0
 Inter-Core Inteference in Data Store : 8030736
Heartbeat CPU 4 instructions: 130000003 cycles: 58613370 heartbeat IPC: 2.81399 cumulative IPC: 2.21792 (Simulation time: 21 hr 2 min 59 sec) 
 Total Blocks : 196608 Invalid Blocks : 0 Valid Blocks : 196608
 Total Tags : 491520 Threshold : 12288 Invalid Tags : 196608 Pr0 Tags : 98304 Pr1 Tags : 196608 num_pr0 : 12288
 SAE Count : 0
 Inter-Core Inteference in Data Store : 8030736
Heartbeat CPU 1 instructions: 130000003 cycles: 58613481 heartbeat IPC: 2.81395 cumulative IPC: 2.21792 (Simulation time: 21 hr 2 min 59 sec) 
 Total Blocks : 196608 Invalid Blocks : 0 Valid Blocks : 196608
 Total Tags : 491520 Threshold : 12288 Invalid Tags : 196609 Pr0 Tags : 98303 Pr1 Tags : 196608 num_pr0 : 12288
 SAE Count : 0
 Inter-Core Inteference in Data Store : 8030746
Heartbeat CPU 5 instructions: 140000003 cycles: 64347396 heartbeat IPC: 1.7439 cumulative IPC: 2.17569 (Simulation time: 23 hr 1 min 12 sec) 
 Total Blocks : 196608 Invalid Blocks : 0 Valid Blocks : 196608
 Total Tags : 491520 Threshold : 12288 Invalid Tags : 196611 Pr0 Tags : 98301 Pr1 Tags : 196608 num_pr0 : 12288
 SAE Count : 0
 Inter-Core Inteference in Data Store : 8856711
Heartbeat CPU 0 instructions: 140000003 cycles: 64347518 heartbeat IPC: 1.74391 cumulative IPC: 2.17569 (Simulation time: 23 hr 1 min 12 sec) 
 Total Blocks : 196608 Invalid Blocks : 0 Valid Blocks : 196608
 Total Tags : 491520 Threshold : 12288 Invalid Tags : 196608 Pr0 Tags : 98304 Pr1 Tags : 196608 num_pr0 : 12288
 SAE Count : 0
 Inter-Core Inteference in Data Store : 8856721
Heartbeat CPU 6 instructions: 140000003 cycles: 64347526 heartbeat IPC: 1.74388 cumulative IPC: 2.17569 (Simulation time: 23 hr 1 min 12 sec) 
 Total Blocks : 196608 Invalid Blocks : 0 Valid Blocks : 196608
 Total Tags : 491520 Threshold : 12288 Invalid Tags : 196609 Pr0 Tags : 98303 Pr1 Tags : 196608 num_pr0 : 12288
 SAE Count : 0
 Inter-Core Inteference in Data Store : 8856722
Heartbeat CPU 3 instructions: 140000003 cycles: 64347581 heartbeat IPC: 1.74389 cumulative IPC: 2.17568 (Simulation time: 23 hr 1 min 12 sec) 
 Total Blocks : 196608 Invalid Blocks : 0 Valid Blocks : 196608
 Total Tags : 491520 Threshold : 12288 Invalid Tags : 196608 Pr0 Tags : 98304 Pr1 Tags : 196608 num_pr0 : 12288
 SAE Count : 0
 Inter-Core Inteference in Data Store : 8856725
Heartbeat CPU 7 instructions: 140000003 cycles: 64347585 heartbeat IPC: 1.74389 cumulative IPC: 2.17568 (Simulation time: 23 hr 1 min 12 sec) 
 Total Blocks : 196608 Invalid Blocks : 0 Valid Blocks : 196608
 Total Tags : 491520 Threshold : 12288 Invalid Tags : 196609 Pr0 Tags : 98303 Pr1 Tags : 196608 num_pr0 : 12288
 SAE Count : 0
 Inter-Core Inteference in Data Store : 8856726
Heartbeat CPU 2 instructions: 140000003 cycles: 64347615 heartbeat IPC: 1.7439 cumulative IPC: 2.17568 (Simulation time: 23 hr 1 min 12 sec) 
 Total Blocks : 196608 Invalid Blocks : 0 Valid Blocks : 196608
 Total Tags : 491520 Threshold : 12288 Invalid Tags : 196608 Pr0 Tags : 98304 Pr1 Tags : 196608 num_pr0 : 12288
 SAE Count : 0
 Inter-Core Inteference in Data Store : 8856727
Heartbeat CPU 4 instructions: 140000003 cycles: 64347650 heartbeat IPC: 1.7439 cumulative IPC: 2.17568 (Simulation time: 23 hr 1 min 12 sec) 
 Total Blocks : 196608 Invalid Blocks : 0 Valid Blocks : 196608
 Total Tags : 491520 Threshold : 12288 Invalid Tags : 196608 Pr0 Tags : 98304 Pr1 Tags : 196608 num_pr0 : 12288
 SAE Count : 0
 Inter-Core Inteference in Data Store : 8856729
Heartbeat CPU 1 instructions: 140000003 cycles: 64347717 heartbeat IPC: 1.74391 cumulative IPC: 2.17568 (Simulation time: 23 hr 1 min 12 sec) 
 Total Blocks : 196608 Invalid Blocks : 0 Valid Blocks : 196608
 Total Tags : 491520 Threshold : 12288 Invalid Tags : 196611 Pr0 Tags : 98301 Pr1 Tags : 196608 num_pr0 : 12288
 SAE Count : 0
 Inter-Core Inteference in Data Store : 8856737
Heartbeat CPU 5 instructions: 150000003 cycles: 69441463 heartbeat IPC: 1.96307 cumulative IPC: 2.16009 (Simulation time: 24 hr 38 min 27 sec) 
 Total Blocks : 196608 Invalid Blocks : 0 Valid Blocks : 196608
 Total Tags : 491520 Threshold : 12288 Invalid Tags : 196608 Pr0 Tags : 98304 Pr1 Tags : 196608 num_pr0 : 12288
 SAE Count : 0
 Inter-Core Inteference in Data Store : 9740465
Heartbeat CPU 0 instructions: 150000003 cycles: 69441577 heartbeat IPC: 1.96307 cumulative IPC: 2.16009 (Simulation time: 24 hr 38 min 27 sec) 
 Total Blocks : 196608 Invalid Blocks : 0 Valid Blocks : 196608
 Total Tags : 491520 Threshold : 12288 Invalid Tags : 196608 Pr0 Tags : 98304 Pr1 Tags : 196608 num_pr0 : 12288
 SAE Count : 0
 Inter-Core Inteference in Data Store : 9740468
Heartbeat CPU 6 instructions: 150000003 cycles: 69441669 heartbeat IPC: 1.96304 cumulative IPC: 2.16009 (Simulation time: 24 hr 38 min 27 sec) 
 Total Blocks : 196608 Invalid Blocks : 0 Valid Blocks : 196608
 Total Tags : 491520 Threshold : 12288 Invalid Tags : 196609 Pr0 Tags : 98303 Pr1 Tags : 196608 num_pr0 : 12288
 SAE Count : 0
 Inter-Core Inteference in Data Store : 9740471
Heartbeat CPU 3 instructions: 150000003 cycles: 69441689 heartbeat IPC: 1.96305 cumulative IPC: 2.16009 (Simulation time: 24 hr 38 min 27 sec) 
 Total Blocks : 196608 Invalid Blocks : 0 Valid Blocks : 196608
 Total Tags : 491520 Threshold : 12288 Invalid Tags : 196609 Pr0 Tags : 98303 Pr1 Tags : 196608 num_pr0 : 12288
 SAE Count : 0
 Inter-Core Inteference in Data Store : 9740473
Heartbeat CPU 2 instructions: 150000003 cycles: 69441690 heartbeat IPC: 1.96306 cumulative IPC: 2.16009 (Simulation time: 24 hr 38 min 27 sec) 
 Total Blocks : 196608 Invalid Blocks : 0 Valid Blocks : 196608
 Total Tags : 491520 Threshold : 12288 Invalid Tags : 196609 Pr0 Tags : 98303 Pr1 Tags : 196608 num_pr0 : 12288
 SAE Count : 0
 Inter-Core Inteference in Data Store : 9740473
Heartbeat CPU 7 instructions: 150000003 cycles: 69441707 heartbeat IPC: 1.96305 cumulative IPC: 2.16009 (Simulation time: 24 hr 38 min 27 sec) 
 Total Blocks : 196608 Invalid Blocks : 0 Valid Blocks : 196608
 Total Tags : 491520 Threshold : 12288 Invalid Tags : 196608 Pr0 Tags : 98304 Pr1 Tags : 196608 num_pr0 : 12288
 SAE Count : 0
 Inter-Core Inteference in Data Store : 9740473
Heartbeat CPU 4 instructions: 150000003 cycles: 69441766 heartbeat IPC: 1.96305 cumulative IPC: 2.16008 (Simulation time: 24 hr 38 min 27 sec) 
 Total Blocks : 196608 Invalid Blocks : 0 Valid Blocks : 196608
 Total Tags : 491520 Threshold : 12288 Invalid Tags : 196609 Pr0 Tags : 98303 Pr1 Tags : 196608 num_pr0 : 12288
 SAE Count : 0
 Inter-Core Inteference in Data Store : 9740474
Heartbeat CPU 1 instructions: 150000003 cycles: 69441794 heartbeat IPC: 1.96306 cumulative IPC: 2.16008 (Simulation time: 24 hr 38 min 27 sec) 
 Total Blocks : 196608 Invalid Blocks : 0 Valid Blocks : 196608
 Total Tags : 491520 Threshold : 12288 Invalid Tags : 196608 Pr0 Tags : 98304 Pr1 Tags : 196608 num_pr0 : 12288
 SAE Count : 0
 Inter-Core Inteference in Data Store : 9740474
Heartbeat CPU 5 instructions: 160000001 cycles: 77429306 heartbeat IPC: 1.2519 cumulative IPC: 2.0664 (Simulation time: 27 hr 26 min 50 sec) 
 Total Blocks : 196608 Invalid Blocks : 0 Valid Blocks : 196608
 Total Tags : 491520 Threshold : 12288 Invalid Tags : 196609 Pr0 Tags : 98303 Pr1 Tags : 196608 num_pr0 : 12288
 SAE Count : 0
 Inter-Core Inteference in Data Store : 10049112
Heartbeat CPU 0 instructions: 160000001 cycles: 77429393 heartbeat IPC: 1.25191 cumulative IPC: 2.0664 (Simulation time: 27 hr 26 min 50 sec) 
 Total Blocks : 196608 Invalid Blocks : 0 Valid Blocks : 196608
 Total Tags : 491520 Threshold : 12288 Invalid Tags : 196608 Pr0 Tags : 98304 Pr1 Tags : 196608 num_pr0 : 12288
 SAE Count : 0
 Inter-Core Inteference in Data Store : 10049114
Heartbeat CPU 6 instructions: 160000001 cycles: 77429534 heartbeat IPC: 1.2519 cumulative IPC: 2.0664 (Simulation time: 27 hr 26 min 50 sec) 
 Total Blocks : 196608 Invalid Blocks : 0 Valid Blocks : 196608
 Total Tags : 491520 Threshold : 12288 Invalid Tags : 196608 Pr0 Tags : 98304 Pr1 Tags : 196608 num_pr0 : 12288
 SAE Count : 0
 Inter-Core Inteference in Data Store : 10049119
Heartbeat CPU 2 instructions: 160000001 cycles: 77429544 heartbeat IPC: 1.2519 cumulative IPC: 2.06639 (Simulation time: 27 hr 26 min 50 sec) 
 Total Blocks : 196608 Invalid Blocks : 0 Valid Blocks : 196608
 Total Tags : 491520 Threshold : 12288 Invalid Tags : 196609 Pr0 Tags : 98303 Pr1 Tags : 196608 num_pr0 : 12288
 SAE Count : 0
 Inter-Core Inteference in Data Store : 10049120
Heartbeat CPU 3 instructions: 160000001 cycles: 77429556 heartbeat IPC: 1.2519 cumulative IPC: 2.06639 (Simulation time: 27 hr 26 min 50 sec) 
 Total Blocks : 196608 Invalid Blocks : 0 Valid Blocks : 196608
 Total Tags : 491520 Threshold : 12288 Invalid Tags : 196609 Pr0 Tags : 98303 Pr1 Tags : 196608 num_pr0 : 12288
 SAE Count : 0
 Inter-Core Inteference in Data Store : 10049121
Heartbeat CPU 7 instructions: 160000001 cycles: 77429606 heartbeat IPC: 1.25189 cumulative IPC: 2.06639 (Simulation time: 27 hr 26 min 50 sec) 
 Total Blocks : 196608 Invalid Blocks : 0 Valid Blocks : 196608
 Total Tags : 491520 Threshold : 12288 Invalid Tags : 196609 Pr0 Tags : 98303 Pr1 Tags : 196608 num_pr0 : 12288
 SAE Count : 0
 Inter-Core Inteference in Data Store : 10049122
Heartbeat CPU 1 instructions: 160000001 cycles: 77429649 heartbeat IPC: 1.2519 cumulative IPC: 2.06639 (Simulation time: 27 hr 26 min 50 sec) 
 Total Blocks : 196608 Invalid Blocks : 0 Valid Blocks : 196608
 Total Tags : 491520 Threshold : 12288 Invalid Tags : 196609 Pr0 Tags : 98303 Pr1 Tags : 196608 num_pr0 : 12287
 SAE Count : 0
 Inter-Core Inteference in Data Store : 10049124
Heartbeat CPU 4 instructions: 160000001 cycles: 77429655 heartbeat IPC: 1.25189 cumulative IPC: 2.06639 (Simulation time: 27 hr 26 min 50 sec) 
 Total Blocks : 196608 Invalid Blocks : 0 Valid Blocks : 196608
 Total Tags : 491520 Threshold : 12288 Invalid Tags : 196609 Pr0 Tags : 98303 Pr1 Tags : 196608 num_pr0 : 12287
 SAE Count : 0
 Inter-Core Inteference in Data Store : 10049126
Heartbeat CPU 5 instructions: 170000003 cycles: 85510767 heartbeat IPC: 1.2374 cumulative IPC: 1.98805 (Simulation time: 29 hr 57 min 51 sec) 
 Total Blocks : 196608 Invalid Blocks : 0 Valid Blocks : 196608
 Total Tags : 491520 Threshold : 12288 Invalid Tags : 196609 Pr0 Tags : 98303 Pr1 Tags : 196608 num_pr0 : 12288
 SAE Count : 0
 Inter-Core Inteference in Data Store : 10341427
Heartbeat CPU 0 instructions: 170000003 cycles: 85510834 heartbeat IPC: 1.2374 cumulative IPC: 1.98805 (Simulation time: 29 hr 57 min 51 sec) 
 Total Blocks : 196608 Invalid Blocks : 0 Valid Blocks : 196608
 Total Tags : 491520 Threshold : 12288 Invalid Tags : 196609 Pr0 Tags : 98303 Pr1 Tags : 196608 num_pr0 : 12288
 SAE Count : 0
 Inter-Core Inteference in Data Store : 10341428
Heartbeat CPU 3 instructions: 170000003 cycles: 85511029 heartbeat IPC: 1.2374 cumulative IPC: 1.98805 (Simulation time: 29 hr 57 min 51 sec) 
 Total Blocks : 196608 Invalid Blocks : 0 Valid Blocks : 196608
 Total Tags : 491520 Threshold : 12288 Invalid Tags : 196610 Pr0 Tags : 98302 Pr1 Tags : 196608 num_pr0 : 12288
 SAE Count : 0
 Inter-Core Inteference in Data Store : 10341434
Heartbeat CPU 6 instructions: 170000003 cycles: 85511037 heartbeat IPC: 1.23739 cumulative IPC: 1.98805 (Simulation time: 29 hr 57 min 51 sec) 
 Total Blocks : 196608 Invalid Blocks : 0 Valid Blocks : 196608
 Total Tags : 491520 Threshold : 12288 Invalid Tags : 196610 Pr0 Tags : 98302 Pr1 Tags : 196608 num_pr0 : 12288
 SAE Count : 0
 Inter-Core Inteference in Data Store : 10341435
Heartbeat CPU 2 instructions: 170000003 cycles: 85511051 heartbeat IPC: 1.23739 cumulative IPC: 1.98805 (Simulation time: 29 hr 57 min 51 sec) 
 Total Blocks : 196608 Invalid Blocks : 0 Valid Blocks : 196608
 Total Tags : 491520 Threshold : 12288 Invalid Tags : 196609 Pr0 Tags : 98303 Pr1 Tags : 196608 num_pr0 : 12288
 SAE Count : 0
 Inter-Core Inteference in Data Store : 10341435
Heartbeat CPU 1 instructions: 170000003 cycles: 85511103 heartbeat IPC: 1.2374 cumulative IPC: 1.98805 (Simulation time: 29 hr 57 min 51 sec) 
 Total Blocks : 196608 Invalid Blocks : 0 Valid Blocks : 196608
 Total Tags : 491520 Threshold : 12288 Invalid Tags : 196610 Pr0 Tags : 98302 Pr1 Tags : 196608 num_pr0 : 12288
 SAE Count : 0
 Inter-Core Inteference in Data Store : 10341437
Heartbeat CPU 7 instructions: 170000003 cycles: 85511110 heartbeat IPC: 1.23739 cumulative IPC: 1.98805 (Simulation time: 29 hr 57 min 51 sec) 
 Total Blocks : 196608 Invalid Blocks : 0 Valid Blocks : 196608
 Total Tags : 491520 Threshold : 12288 Invalid Tags : 196610 Pr0 Tags : 98302 Pr1 Tags : 196608 num_pr0 : 12288
 SAE Count : 0
 Inter-Core Inteference in Data Store : 10341437
Heartbeat CPU 4 instructions: 170000003 cycles: 85511146 heartbeat IPC: 1.2374 cumulative IPC: 1.98804 (Simulation time: 29 hr 57 min 51 sec) 
 Total Blocks : 196608 Invalid Blocks : 0 Valid Blocks : 196608
 Total Tags : 491520 Threshold : 12288 Invalid Tags : 196609 Pr0 Tags : 98303 Pr1 Tags : 196608 num_pr0 : 12288
 SAE Count : 0
 Inter-Core Inteference in Data Store : 10341437
Heartbeat CPU 5 instructions: 180000002 cycles: 93549055 heartbeat IPC: 1.24405 cumulative IPC: 1.92412 (Simulation time: 34 hr 18 min 17 sec) 
 Total Blocks : 196608 Invalid Blocks : 0 Valid Blocks : 196608
 Total Tags : 491520 Threshold : 12288 Invalid Tags : 196608 Pr0 Tags : 98304 Pr1 Tags : 196608 num_pr0 : 12288
 SAE Count : 0
 Inter-Core Inteference in Data Store : 10633193
Heartbeat CPU 0 instructions: 180000002 cycles: 93549064 heartbeat IPC: 1.24405 cumulative IPC: 1.92412 (Simulation time: 34 hr 18 min 20 sec) 
 Total Blocks : 196608 Invalid Blocks : 0 Valid Blocks : 196608
 Total Tags : 491520 Threshold : 12288 Invalid Tags : 196609 Pr0 Tags : 98303 Pr1 Tags : 196608 num_pr0 : 12288
 SAE Count : 0
 Inter-Core Inteference in Data Store : 10633194
Heartbeat CPU 3 instructions: 180000002 cycles: 93549278 heartbeat IPC: 1.24405 cumulative IPC: 1.92412 (Simulation time: 34 hr 18 min 21 sec) 
 Total Blocks : 196608 Invalid Blocks : 0 Valid Blocks : 196608
 Total Tags : 491520 Threshold : 12288 Invalid Tags : 196609 Pr0 Tags : 98303 Pr1 Tags : 196608 num_pr0 : 12288
 SAE Count : 0
 Inter-Core Inteference in Data Store : 10633205
Heartbeat CPU 6 instructions: 180000002 cycles: 93549321 heartbeat IPC: 1.24405 cumulative IPC: 1.92412 (Simulation time: 34 hr 18 min 21 sec) 
 Total Blocks : 196608 Invalid Blocks : 0 Valid Blocks : 196608
 Total Tags : 491520 Threshold : 12288 Invalid Tags : 196609 Pr0 Tags : 98303 Pr1 Tags : 196608 num_pr0 : 12288
 SAE Count : 0
 Inter-Core Inteference in Data Store : 10633210
Heartbeat CPU 2 instructions: 180000002 cycles: 93549338 heartbeat IPC: 1.24405 cumulative IPC: 1.92412 (Simulation time: 34 hr 18 min 21 sec) 
 Total Blocks : 196608 Invalid Blocks : 0 Valid Blocks : 196608
 Total Tags : 491520 Threshold : 12288 Invalid Tags : 196608 Pr0 Tags : 98304 Pr1 Tags : 196608 num_pr0 : 12288
 SAE Count : 0
 Inter-Core Inteference in Data Store : 10633210
Heartbeat CPU 1 instructions: 180000002 cycles: 93549389 heartbeat IPC: 1.24405 cumulative IPC: 1.92412 (Simulation time: 34 hr 18 min 21 sec) 
 Total Blocks : 196608 Invalid Blocks : 0 Valid Blocks : 196608
 Total Tags : 491520 Threshold : 12288 Invalid Tags : 196609 Pr0 Tags : 98303 Pr1 Tags : 196608 num_pr0 : 12288
 SAE Count : 0
 Inter-Core Inteference in Data Store : 10633213
Heartbeat CPU 4 instructions: 180000002 cycles: 93549420 heartbeat IPC: 1.24405 cumulative IPC: 1.92412 (Simulation time: 34 hr 18 min 21 sec) 
 Total Blocks : 196608 Invalid Blocks : 0 Valid Blocks : 196608
 Total Tags : 491520 Threshold : 12288 Invalid Tags : 196610 Pr0 Tags : 98302 Pr1 Tags : 196608 num_pr0 : 12288
 SAE Count : 0
 Inter-Core Inteference in Data Store : 10633215
Heartbeat CPU 7 instructions: 180000002 cycles: 93549447 heartbeat IPC: 1.24404 cumulative IPC: 1.92412 (Simulation time: 34 hr 18 min 22 sec) 
 Total Blocks : 196608 Invalid Blocks : 0 Valid Blocks : 196608
 Total Tags : 491520 Threshold : 12288 Invalid Tags : 196608 Pr0 Tags : 98304 Pr1 Tags : 196608 num_pr0 : 12288
 SAE Count : 0
 Inter-Core Inteference in Data Store : 10633217
Heartbeat CPU 0 instructions: 190000001 cycles: 98353690 heartbeat IPC: 2.08133 cumulative IPC: 1.9318 (Simulation time: 41 hr 33 min 7 sec) 
 Total Blocks : 196608 Invalid Blocks : 0 Valid Blocks : 196608
 Total Tags : 491520 Threshold : 12288 Invalid Tags : 196609 Pr0 Tags : 98303 Pr1 Tags : 196608 num_pr0 : 12288
 SAE Count : 0
 Inter-Core Inteference in Data Store : 10974653
Heartbeat CPU 5 instructions: 190000001 cycles: 98353725 heartbeat IPC: 2.08131 cumulative IPC: 1.9318 (Simulation time: 41 hr 33 min 12 sec) 
 Total Blocks : 196608 Invalid Blocks : 0 Valid Blocks : 196608
 Total Tags : 491520 Threshold : 12288 Invalid Tags : 196610 Pr0 Tags : 98302 Pr1 Tags : 196608 num_pr0 : 12288
 SAE Count : 0
 Inter-Core Inteference in Data Store : 10974654
Heartbeat CPU 3 instructions: 190000001 cycles: 98353912 heartbeat IPC: 2.08132 cumulative IPC: 1.9318 (Simulation time: 41 hr 33 min 13 sec) 
 Total Blocks : 196608 Invalid Blocks : 0 Valid Blocks : 196608
 Total Tags : 491520 Threshold : 12288 Invalid Tags : 196609 Pr0 Tags : 98303 Pr1 Tags : 196608 num_pr0 : 12288
 SAE Count : 0
 Inter-Core Inteference in Data Store : 10974670
Heartbeat CPU 6 instructions: 190000001 cycles: 98353948 heartbeat IPC: 2.08133 cumulative IPC: 1.9318 (Simulation time: 41 hr 33 min 13 sec) 
 Total Blocks : 196608 Invalid Blocks : 0 Valid Blocks : 196608
 Total Tags : 491520 Threshold : 12288 Invalid Tags : 196608 Pr0 Tags : 98304 Pr1 Tags : 196608 num_pr0 : 12288
 SAE Count : 0
 Inter-Core Inteference in Data Store : 10974673
Heartbeat CPU 2 instructions: 190000001 cycles: 98353975 heartbeat IPC: 2.08132 cumulative IPC: 1.9318 (Simulation time: 41 hr 33 min 14 sec) 
 Total Blocks : 196608 Invalid Blocks : 0 Valid Blocks : 196608
 Total Tags : 491520 Threshold : 12288 Invalid Tags : 196609 Pr0 Tags : 98303 Pr1 Tags : 196608 num_pr0 : 12288
 SAE Count : 0
 Inter-Core Inteference in Data Store : 10974674
Heartbeat CPU 1 instructions: 190000001 cycles: 98354028 heartbeat IPC: 2.08132 cumulative IPC: 1.9318 (Simulation time: 41 hr 33 min 14 sec) 
 Total Blocks : 196608 Invalid Blocks : 0 Valid Blocks : 196608
 Total Tags : 491520 Threshold : 12288 Invalid Tags : 196610 Pr0 Tags : 98302 Pr1 Tags : 196608 num_pr0 : 12288
 SAE Count : 0
 Inter-Core Inteference in Data Store : 10974679
Heartbeat CPU 4 instructions: 190000001 cycles: 98354056 heartbeat IPC: 2.08132 cumulative IPC: 1.9318 (Simulation time: 41 hr 33 min 14 sec) 
 Total Blocks : 196608 Invalid Blocks : 0 Valid Blocks : 196608
 Total Tags : 491520 Threshold : 12288 Invalid Tags : 196610 Pr0 Tags : 98302 Pr1 Tags : 196608 num_pr0 : 12288
 SAE Count : 0
 Inter-Core Inteference in Data Store : 10974681
Heartbeat CPU 7 instructions: 190000001 cycles: 98354090 heartbeat IPC: 2.08132 cumulative IPC: 1.9318 (Simulation time: 41 hr 33 min 14 sec) 
 Total Blocks : 196608 Invalid Blocks : 0 Valid Blocks : 196608
 Total Tags : 491520 Threshold : 12288 Invalid Tags : 196610 Pr0 Tags : 98302 Pr1 Tags : 196608 num_pr0 : 12288
 SAE Count : 0
 Inter-Core Inteference in Data Store : 10974682
Heartbeat CPU 0 instructions: 200000002 cycles: 101962114 heartbeat IPC: 2.77129 cumulative IPC: 1.96151 (Simulation time: 59 hr 16 min 29 sec) 
 Total Blocks : 196608 Invalid Blocks : 0 Valid Blocks : 196608
 Total Tags : 491520 Threshold : 12288 Invalid Tags : 196608 Pr0 Tags : 98304 Pr1 Tags : 196608 num_pr0 : 12288
 SAE Count : 0
 Inter-Core Inteference in Data Store : 11733151
Heartbeat CPU 5 instructions: 200000002 cycles: 101962151 heartbeat IPC: 2.77129 cumulative IPC: 1.96151 (Simulation time: 59 hr 16 min 31 sec) 
 Total Blocks : 196608 Invalid Blocks : 0 Valid Blocks : 196608
 Total Tags : 491520 Threshold : 12288 Invalid Tags : 196609 Pr0 Tags : 98303 Pr1 Tags : 196608 num_pr0 : 12288
 SAE Count : 0
 Inter-Core Inteference in Data Store : 11733154
Heartbeat CPU 3 instructions: 200000002 cycles: 101962270 heartbeat IPC: 2.77134 cumulative IPC: 1.96151 (Simulation time: 59 hr 16 min 31 sec) 
 Total Blocks : 196608 Invalid Blocks : 0 Valid Blocks : 196608
 Total Tags : 491520 Threshold : 12288 Invalid Tags : 196608 Pr0 Tags : 98304 Pr1 Tags : 196608 num_pr0 : 12288
 SAE Count : 0
 Inter-Core Inteference in Data Store : 11733158
Heartbeat CPU 6 instructions: 200000002 cycles: 101962293 heartbeat IPC: 2.77135 cumulative IPC: 1.96151 (Simulation time: 59 hr 16 min 31 sec) 
 Total Blocks : 196608 Invalid Blocks : 0 Valid Blocks : 196608
 Total Tags : 491520 Threshold : 12288 Invalid Tags : 196608 Pr0 Tags : 98304 Pr1 Tags : 196608 num_pr0 : 12288
 SAE Count : 0
 Inter-Core Inteference in Data Store : 11733161
Heartbeat CPU 2 instructions: 200000002 cycles: 101962386 heartbeat IPC: 2.7713 cumulative IPC: 1.96151 (Simulation time: 59 hr 16 min 31 sec) 
 Total Blocks : 196608 Invalid Blocks : 0 Valid Blocks : 196608
 Total Tags : 491520 Threshold : 12288 Invalid Tags : 196608 Pr0 Tags : 98304 Pr1 Tags : 196608 num_pr0 : 12288
 SAE Count : 0
 Inter-Core Inteference in Data Store : 11733163
Heartbeat CPU 1 instructions: 200000002 cycles: 101962395 heartbeat IPC: 2.77134 cumulative IPC: 1.96151 (Simulation time: 59 hr 16 min 31 sec) 
 Total Blocks : 196608 Invalid Blocks : 0 Valid Blocks : 196608
 Total Tags : 491520 Threshold : 12288 Invalid Tags : 196608 Pr0 Tags : 98304 Pr1 Tags : 196608 num_pr0 : 12288
 SAE Count : 0
 Inter-Core Inteference in Data Store : 11733163
Heartbeat CPU 4 instructions: 200000002 cycles: 101962416 heartbeat IPC: 2.77134 cumulative IPC: 1.96151 (Simulation time: 59 hr 16 min 31 sec) 
 Total Blocks : 196608 Invalid Blocks : 0 Valid Blocks : 196608
 Total Tags : 491520 Threshold : 12288 Invalid Tags : 196608 Pr0 Tags : 98304 Pr1 Tags : 196608 num_pr0 : 12288
 SAE Count : 0
 Inter-Core Inteference in Data Store : 11733164
Heartbeat CPU 7 instructions: 200000002 cycles: 101962439 heartbeat IPC: 2.77135 cumulative IPC: 1.96151 (Simulation time: 59 hr 16 min 31 sec) 
 Total Blocks : 196608 Invalid Blocks : 0 Valid Blocks : 196608
 Total Tags : 491520 Threshold : 12288 Invalid Tags : 196608 Pr0 Tags : 98304 Pr1 Tags : 196608 num_pr0 : 12288
 SAE Count : 0
 Inter-Core Inteference in Data Store : 11733165

Warmup complete CPU 0 instructions: 200000468 cycles: 101962439 (Simulation time: 59 hr 16 min 31 sec) 
Warmup complete CPU 1 instructions: 200000073 cycles: 101962439 (Simulation time: 59 hr 16 min 31 sec) 
Warmup complete CPU 2 instructions: 200000073 cycles: 101962439 (Simulation time: 59 hr 16 min 31 sec) 
Warmup complete CPU 3 instructions: 200000251 cycles: 101962439 (Simulation time: 59 hr 16 min 31 sec) 
Warmup complete CPU 4 instructions: 200000066 cycles: 101962439 (Simulation time: 59 hr 16 min 31 sec) 
Warmup complete CPU 5 instructions: 200000419 cycles: 101962439 (Simulation time: 59 hr 16 min 31 sec) 
Warmup complete CPU 6 instructions: 200000224 cycles: 101962439 (Simulation time: 59 hr 16 min 31 sec) 
Warmup complete CPU 7 instructions: 200000002 cycles: 101962439 (Simulation time: 59 hr 16 min 31 sec) 

FILL
Heartbeat CPU 7 instructions: 210000000 cycles: 123702684 heartbeat IPC: 0.459976 cumulative IPC: 0.459976 (Simulation time: 75 hr 23 min 16 sec) 
 Total Blocks : 196608 Invalid Blocks : 0 Valid Blocks : 196608
 Total Tags : 491520 Threshold : 12288 Invalid Tags : 196608 Pr0 Tags : 98304 Pr1 Tags : 196608 num_pr0 : 12288
 SAE Count : 0
 Inter-Core Inteference in Data Store : 280355
Heartbeat CPU 0 instructions: 210000001 cycles: 123773527 heartbeat IPC: 0.458476 cumulative IPC: 0.458461 (Simulation time: 75 hr 24 min 59 sec) 
 Total Blocks : 196608 Invalid Blocks : 0 Valid Blocks : 196608
 Total Tags : 491520 Threshold : 12288 Invalid Tags : 196609 Pr0 Tags : 98303 Pr1 Tags : 196608 num_pr0 : 12288
 SAE Count : 0
 Inter-Core Inteference in Data Store : 281251
Heartbeat CPU 1 instructions: 210000001 cycles: 123787252 heartbeat IPC: 0.458193 cumulative IPC: 0.458191 (Simulation time: 75 hr 25 min 7 sec) 
 Total Blocks : 196608 Invalid Blocks : 0 Valid Blocks : 196608
 Total Tags : 491520 Threshold : 12288 Invalid Tags : 196609 Pr0 Tags : 98303 Pr1 Tags : 196608 num_pr0 : 12287
 SAE Count : 0
 Inter-Core Inteference in Data Store : 281423
Heartbeat CPU 6 instructions: 210000000 cycles: 123857999 heartbeat IPC: 0.45671 cumulative IPC: 0.456703 (Simulation time: 75 hr 26 min 32 sec) 
 Total Blocks : 196608 Invalid Blocks : 0 Valid Blocks : 196608
 Total Tags : 491520 Threshold : 12288 Invalid Tags : 196609 Pr0 Tags : 98303 Pr1 Tags : 196608 num_pr0 : 12288
 SAE Count : 0
 Inter-Core Inteference in Data Store : 282224
Heartbeat CPU 4 instructions: 210000001 cycles: 124027537 heartbeat IPC: 0.453204 cumulative IPC: 0.453201 (Simulation time: 75 hr 33 min 45 sec) 
 Total Blocks : 196608 Invalid Blocks : 0 Valid Blocks : 196608
 Total Tags : 491520 Threshold : 12288 Invalid Tags : 196608 Pr0 Tags : 98304 Pr1 Tags : 196608 num_pr0 : 12288
 SAE Count : 0
 Inter-Core Inteference in Data Store : 284434
Heartbeat CPU 2 instructions: 210000000 cycles: 124112377 heartbeat IPC: 0.451467 cumulative IPC: 0.451465 (Simulation time: 75 hr 36 min 57 sec) 
 Total Blocks : 196608 Invalid Blocks : 0 Valid Blocks : 196608
 Total Tags : 491520 Threshold : 12288 Invalid Tags : 196608 Pr0 Tags : 98304 Pr1 Tags : 196608 num_pr0 : 12288
 SAE Count : 0
 Inter-Core Inteference in Data Store : 285448
Heartbeat CPU 3 instructions: 210000001 cycles: 124255753 heartbeat IPC: 0.448562 cumulative IPC: 0.448554 (Simulation time: 75 hr 43 min 11 sec) 
 Total Blocks : 196608 Invalid Blocks : 0 Valid Blocks : 196608
 Total Tags : 491520 Threshold : 12288 Invalid Tags : 196608 Pr0 Tags : 98304 Pr1 Tags : 196608 num_pr0 : 12288
 SAE Count : 0
 Inter-Core Inteference in Data Store : 287139
Heartbeat CPU 5 instructions: 210000001 cycles: 124278401 heartbeat IPC: 0.448104 cumulative IPC: 0.448091 (Simulation time: 75 hr 43 min 56 sec) 
 Total Blocks : 196608 Invalid Blocks : 0 Valid Blocks : 196608
 Total Tags : 491520 Threshold : 12288 Invalid Tags : 196609 Pr0 Tags : 98303 Pr1 Tags : 196608 num_pr0 : 12288
 SAE Count : 0
 Inter-Core Inteference in Data Store : 287434
Heartbeat CPU 1 instructions: 220000000 cycles: 161188072 heartbeat IPC: 0.267374 cumulative IPC: 0.33769 (Simulation time: 83 hr 27 min 38 sec) 
 Total Blocks : 196608 Invalid Blocks : 0 Valid Blocks : 196608
 Total Tags : 491520 Threshold : 12288 Invalid Tags : 196608 Pr0 Tags : 98304 Pr1 Tags : 196608 num_pr0 : 12288
 SAE Count : 0
 Inter-Core Inteference in Data Store : 993561
Heartbeat CPU 7 instructions: 220000000 cycles: 161246666 heartbeat IPC: 0.266354 cumulative IPC: 0.337358 (Simulation time: 83 hr 27 min 43 sec) 
 Total Blocks : 196608 Invalid Blocks : 0 Valid Blocks : 196608
 Total Tags : 491520 Threshold : 12288 Invalid Tags : 196613 Pr0 Tags : 98299 Pr1 Tags : 196608 num_pr0 : 12288
 SAE Count : 0
 Inter-Core Inteference in Data Store : 994518
Heartbeat CPU 4 instructions: 220000000 cycles: 161569382 heartbeat IPC: 0.266369 cumulative IPC: 0.33553 (Simulation time: 83 hr 28 min 28 sec) 
 Total Blocks : 196608 Invalid Blocks : 0 Valid Blocks : 196608
 Total Tags : 491520 Threshold : 12288 Invalid Tags : 196609 Pr0 Tags : 98303 Pr1 Tags : 196608 num_pr0 : 12288
 SAE Count : 0
 Inter-Core Inteference in Data Store : 1000590
Heartbeat CPU 0 instructions: 220000000 cycles: 161572599 heartbeat IPC: 0.264557 cumulative IPC: 0.335505 (Simulation time: 83 hr 28 min 28 sec) 
 Total Blocks : 196608 Invalid Blocks : 0 Valid Blocks : 196608
 Total Tags : 491520 Threshold : 12288 Invalid Tags : 196610 Pr0 Tags : 98302 Pr1 Tags : 196608 num_pr0 : 12288
 SAE Count : 0
 Inter-Core Inteference in Data Store : 1000666
Heartbeat CPU 6 instructions: 220000000 cycles: 161792999 heartbeat IPC: 0.263609 cumulative IPC: 0.334274 (Simulation time: 83 hr 28 min 53 sec) 
 Total Blocks : 196608 Invalid Blocks : 0 Valid Blocks : 196608
 Total Tags : 491520 Threshold : 12288 Invalid Tags : 196608 Pr0 Tags : 98304 Pr1 Tags : 196608 num_pr0 : 12288
 SAE Count : 0
 Inter-Core Inteference in Data Store : 1004974
Heartbeat CPU 5 instructions: 220000000 cycles: 161902029 heartbeat IPC: 0.26579 cumulative IPC: 0.333662 (Simulation time: 83 hr 29 min 4 sec) 
 Total Blocks : 196608 Invalid Blocks : 0 Valid Blocks : 196608
 Total Tags : 491520 Threshold : 12288 Invalid Tags : 196615 Pr0 Tags : 98297 Pr1 Tags : 196608 num_pr0 : 12288
 SAE Count : 0
 Inter-Core Inteference in Data Store : 1007016
Heartbeat CPU 2 instructions: 220000000 cycles: 161915430 heartbeat IPC: 0.264529 cumulative IPC: 0.333593 (Simulation time: 83 hr 29 min 6 sec) 
 Total Blocks : 196608 Invalid Blocks : 0 Valid Blocks : 196608
 Total Tags : 491520 Threshold : 12288 Invalid Tags : 196611 Pr0 Tags : 98301 Pr1 Tags : 196608 num_pr0 : 12287
 SAE Count : 0
 Inter-Core Inteference in Data Store : 1007312
Heartbeat CPU 3 instructions: 220000000 cycles: 162000328 heartbeat IPC: 0.264939 cumulative IPC: 0.333119 (Simulation time: 83 hr 29 min 13 sec) 
 Total Blocks : 196608 Invalid Blocks : 0 Valid Blocks : 196608
 Total Tags : 491520 Threshold : 12288 Invalid Tags : 196610 Pr0 Tags : 98302 Pr1 Tags : 196608 num_pr0 : 12288
 SAE Count : 0
 Inter-Core Inteference in Data Store : 1009000
Heartbeat CPU 4 instructions: 230000001 cycles: 202987285 heartbeat IPC: 0.241442 cumulative IPC: 0.296956 (Simulation time: 85 hr 36 min 46 sec) 
 Total Blocks : 196608 Invalid Blocks : 0 Valid Blocks : 196608
 Total Tags : 491520 Threshold : 12288 Invalid Tags : 196612 Pr0 Tags : 98300 Pr1 Tags : 196608 num_pr0 : 12288
 SAE Count : 0
 Inter-Core Inteference in Data Store : 1748644
Heartbeat CPU 0 instructions: 230000001 cycles: 203011010 heartbeat IPC: 0.241322 cumulative IPC: 0.296882 (Simulation time: 85 hr 36 min 48 sec) 
 Total Blocks : 196608 Invalid Blocks : 0 Valid Blocks : 196608
 Total Tags : 491520 Threshold : 12288 Invalid Tags : 196617 Pr0 Tags : 98295 Pr1 Tags : 196608 num_pr0 : 12286
 SAE Count : 0
 Inter-Core Inteference in Data Store : 1749257
Heartbeat CPU 1 instructions: 230000001 cycles: 203164761 heartbeat IPC: 0.238227 cumulative IPC: 0.296435 (Simulation time: 85 hr 37 min 6 sec) 
 Total Blocks : 196608 Invalid Blocks : 0 Valid Blocks : 196608
 Total Tags : 491520 Threshold : 12288 Invalid Tags : 196614 Pr0 Tags : 98298 Pr1 Tags : 196608 num_pr0 : 12287
 SAE Count : 0
 Inter-Core Inteference in Data Store : 1752902
Heartbeat CPU 7 instructions: 230000001 cycles: 203416721 heartbeat IPC: 0.237135 cumulative IPC: 0.2957 (Simulation time: 85 hr 37 min 51 sec) 
 Total Blocks : 196608 Invalid Blocks : 0 Valid Blocks : 196608
 Total Tags : 491520 Threshold : 12288 Invalid Tags : 196609 Pr0 Tags : 98303 Pr1 Tags : 196608 num_pr0 : 12288
 SAE Count : 0
 Inter-Core Inteference in Data Store : 1758941
Heartbeat CPU 6 instructions: 230000001 cycles: 203706712 heartbeat IPC: 0.238585 cumulative IPC: 0.294855 (Simulation time: 85 hr 38 min 33 sec) 
 Total Blocks : 196608 Invalid Blocks : 0 Valid Blocks : 196608
 Total Tags : 491520 Threshold : 12288 Invalid Tags : 196613 Pr0 Tags : 98299 Pr1 Tags : 196608 num_pr0 : 12287
 SAE Count : 0
 Inter-Core Inteference in Data Store : 1765802
Heartbeat CPU 2 instructions: 230000001 cycles: 203754795 heartbeat IPC: 0.239009 cumulative IPC: 0.294717 (Simulation time: 85 hr 38 min 38 sec) 
 Total Blocks : 196608 Invalid Blocks : 0 Valid Blocks : 196608
 Total Tags : 491520 Threshold : 12288 Invalid Tags : 196616 Pr0 Tags : 98296 Pr1 Tags : 196608 num_pr0 : 12286
 SAE Count : 0
 Inter-Core Inteference in Data Store : 1766997
Heartbeat CPU 5 instructions: 230000001 cycles: 204146538 heartbeat IPC: 0.236717 cumulative IPC: 0.293584 (Simulation time: 85 hr 39 min 39 sec) 
 Total Blocks : 196608 Invalid Blocks : 0 Valid Blocks : 196608
 Total Tags : 491520 Threshold : 12288 Invalid Tags : 196613 Pr0 Tags : 98299 Pr1 Tags : 196608 num_pr0 : 12286
 SAE Count : 0
 Inter-Core Inteference in Data Store : 1776312
Heartbeat CPU 3 instructions: 230000001 cycles: 204468708 heartbeat IPC: 0.235469 cumulative IPC: 0.292663 (Simulation time: 85 hr 40 min 20 sec) 
 Total Blocks : 196608 Invalid Blocks : 0 Valid Blocks : 196608
 Total Tags : 491520 Threshold : 12288 Invalid Tags : 196612 Pr0 Tags : 98300 Pr1 Tags : 196608 num_pr0 : 12288
 SAE Count : 0
 Inter-Core Inteference in Data Store : 1784164
Heartbeat CPU 0 instructions: 240000001 cycles: 238863470 heartbeat IPC: 0.278921 cumulative IPC: 0.292178 (Simulation time: 94 hr 50 min 51 sec) 
 Total Blocks : 196608 Invalid Blocks : 0 Valid Blocks : 196608
 Total Tags : 491520 Threshold : 12288 Invalid Tags : 196611 Pr0 Tags : 98301 Pr1 Tags : 196608 num_pr0 : 12287
 SAE Count : 0
 Inter-Core Inteference in Data Store : 2512663
Heartbeat CPU 4 instructions: 240000001 cycles: 239091670 heartbeat IPC: 0.276975 cumulative IPC: 0.291695 (Simulation time: 94 hr 55 min 45 sec) 
 Total Blocks : 196608 Invalid Blocks : 0 Valid Blocks : 196608
 Total Tags : 491520 Threshold : 12288 Invalid Tags : 196616 Pr0 Tags : 98296 Pr1 Tags : 196608 num_pr0 : 12287
 SAE Count : 0
 Inter-Core Inteference in Data Store : 2516896
Heartbeat CPU 1 instructions: 240000001 cycles: 240083194 heartbeat IPC: 0.270867 cumulative IPC: 0.289601 (Simulation time: 95 hr 17 min 19 sec) 
 Total Blocks : 196608 Invalid Blocks : 0 Valid Blocks : 196608
 Total Tags : 491520 Threshold : 12288 Invalid Tags : 196610 Pr0 Tags : 98302 Pr1 Tags : 196608 num_pr0 : 12288
 SAE Count : 0
 Inter-Core Inteference in Data Store : 2535287
Heartbeat CPU 7 instructions: 240000001 cycles: 240524186 heartbeat IPC: 0.269488 cumulative IPC: 0.28868 (Simulation time: 95 hr 25 min 53 sec) 
 Total Blocks : 196608 Invalid Blocks : 0 Valid Blocks : 196608
 Total Tags : 491520 Threshold : 12288 Invalid Tags : 196615 Pr0 Tags : 98297 Pr1 Tags : 196608 num_pr0 : 12288
 SAE Count : 0
 Inter-Core Inteference in Data Store : 2543541
Heartbeat CPU 6 instructions: 240000001 cycles: 240773333 heartbeat IPC: 0.269785 cumulative IPC: 0.28816 (Simulation time: 95 hr 31 min 11 sec) 
 Total Blocks : 196608 Invalid Blocks : 0 Valid Blocks : 196608
 Total Tags : 491520 Threshold : 12288 Invalid Tags : 196611 Pr0 Tags : 98301 Pr1 Tags : 196608 num_pr0 : 12287
 SAE Count : 0
 Inter-Core Inteference in Data Store : 2548191
Heartbeat CPU 2 instructions: 240000001 cycles: 241131082 heartbeat IPC: 0.267549 cumulative IPC: 0.287421 (Simulation time: 95 hr 39 min 22 sec) 
 Total Blocks : 196608 Invalid Blocks : 0 Valid Blocks : 196608
 Total Tags : 491520 Threshold : 12288 Invalid Tags : 196611 Pr0 Tags : 98301 Pr1 Tags : 196608 num_pr0 : 12287
 SAE Count : 0
 Inter-Core Inteference in Data Store : 2555242
Heartbeat CPU 5 instructions: 240000001 cycles: 242769571 heartbeat IPC: 0.258913 cumulative IPC: 0.284074 (Simulation time: 96 hr 13 min 18 sec) 
 Total Blocks : 196608 Invalid Blocks : 0 Valid Blocks : 196608
 Total Tags : 491520 Threshold : 12288 Invalid Tags : 196613 Pr0 Tags : 98299 Pr1 Tags : 196608 num_pr0 : 12288
 SAE Count : 0
 Inter-Core Inteference in Data Store : 2585467
Heartbeat CPU 3 instructions: 240000001 cycles: 242960301 heartbeat IPC: 0.259797 cumulative IPC: 0.28369 (Simulation time: 96 hr 17 min 19 sec) 
 Total Blocks : 196608 Invalid Blocks : 0 Valid Blocks : 196608
 Total Tags : 491520 Threshold : 12288 Invalid Tags : 196610 Pr0 Tags : 98302 Pr1 Tags : 196608 num_pr0 : 12288
 SAE Count : 0
 Inter-Core Inteference in Data Store : 2588874
Heartbeat CPU 0 instructions: 250000003 cycles: 271334356 heartbeat IPC: 0.307968 cumulative IPC: 0.295206 (Simulation time: 105 hr 2 min 39 sec) 
 Total Blocks : 196608 Invalid Blocks : 0 Valid Blocks : 196608
 Total Tags : 491520 Threshold : 12288 Invalid Tags : 196611 Pr0 Tags : 98301 Pr1 Tags : 196608 num_pr0 : 12288
 SAE Count : 0
 Inter-Core Inteference in Data Store : 3121277
Heartbeat CPU 4 instructions: 250000003 cycles: 271695899 heartbeat IPC: 0.306709 cumulative IPC: 0.294579 (Simulation time: 105 hr 9 min 37 sec) 
 Total Blocks : 196608 Invalid Blocks : 0 Valid Blocks : 196608
 Total Tags : 491520 Threshold : 12288 Invalid Tags : 196613 Pr0 Tags : 98299 Pr1 Tags : 196608 num_pr0 : 12288
 SAE Count : 0
 Inter-Core Inteference in Data Store : 3128339
Heartbeat CPU 1 instructions: 250000003 cycles: 272399229 heartbeat IPC: 0.309444 cumulative IPC: 0.293363 (Simulation time: 105 hr 21 min 41 sec) 
 Total Blocks : 196608 Invalid Blocks : 0 Valid Blocks : 196608
 Total Tags : 491520 Threshold : 12288 Invalid Tags : 196611 Pr0 Tags : 98301 Pr1 Tags : 196608 num_pr0 : 12287
 SAE Count : 0
 Inter-Core Inteference in Data Store : 3141210
Heartbeat CPU 7 instructions: 250000003 cycles: 272573332 heartbeat IPC: 0.312021 cumulative IPC: 0.293065 (Simulation time: 105 hr 24 min 59 sec) 
 Total Blocks : 196608 Invalid Blocks : 0 Valid Blocks : 196608
 Total Tags : 491520 Threshold : 12288 Invalid Tags : 196613 Pr0 Tags : 98299 Pr1 Tags : 196608 num_pr0 : 12288
 SAE Count : 0
 Inter-Core Inteference in Data Store : 3144660
Heartbeat CPU 6 instructions: 250000003 cycles: 273259945 heartbeat IPC: 0.307819 cumulative IPC: 0.291889 (Simulation time: 105 hr 38 min 52 sec) 
 Total Blocks : 196608 Invalid Blocks : 0 Valid Blocks : 196608
 Total Tags : 491520 Threshold : 12288 Invalid Tags : 196611 Pr0 Tags : 98301 Pr1 Tags : 196608 num_pr0 : 12287
 SAE Count : 0
 Inter-Core Inteference in Data Store : 3157610
Heartbeat CPU 2 instructions: 250000003 cycles: 273510441 heartbeat IPC: 0.308839 cumulative IPC: 0.291463 (Simulation time: 105 hr 43 min 43 sec) 
 Total Blocks : 196608 Invalid Blocks : 0 Valid Blocks : 196608
 Total Tags : 491520 Threshold : 12288 Invalid Tags : 196610 Pr0 Tags : 98302 Pr1 Tags : 196608 num_pr0 : 12288
 SAE Count : 0
 Inter-Core Inteference in Data Store : 3162321
[...]
LLC4 LOAD      ACCESS:  8525  HIT:   126  MISS:  8399  HIT %: 1.47801  MISS %: 98.522  AVERAGE MISS PENALTY: 1236.42
LLC4 RFO       ACCESS: 145364  HIT:   646  MISS: 144718  HIT %: 0.444402  MISS %: 99.5556  AVERAGE MISS PENALTY: 1173.78
LLC4 PREFETCH  ACCESS: 492494  HIT: 10950  MISS: 481544  HIT %: 2.22338  MISS %: 97.7766  AVERAGE MISS PENALTY: 1189.46
LLC4 WRITEBACK ACCESS: 178433  HIT:   818  MISS: 177615  HIT %: 0.458435  MISS %: 99.5416  AVERAGE MISS PENALTY: 0
LLC4 PREFETCH  REQUESTED:     0  ISSUED:     0  USEFUL:   709  USELESS: 32846
 USEFUL LOAD PREFETCHES:        709 PREFETCH ISSUED TO LOWER LEVEL:  394031984  ACCURACY: 0.000179935
 TIMELY PREFETCHES:        709 LATE PREFETCHES: 0 DROPPED PREFETCHES: 0
LLC4 AVERAGE MISS LATENCY: 927.062 cycles

LLC4 Set Associative Eviction Count : 0
LLC4 Priority 0 entries : 12286
LLC4 Inter-Core Interference : 1293372
LLC5 TOTAL     ACCESS: 824730  HIT: 12590  MISS: 812140  HIT %: 1.52656  MISS %: 98.4734  AVERAGE MISS PENALTY: 904.751
LLC5 LOAD      ACCESS:  9004  HIT:   127  MISS:  8877  HIT %: 1.41048  MISS %: 98.5895  AVERAGE MISS PENALTY: 1193.1
LLC5 RFO       ACCESS: 145364  HIT:   663  MISS: 144701  HIT %: 0.456096  MISS %: 99.5439  AVERAGE MISS PENALTY: 1154.27
LLC5 PREFETCH  ACCESS: 491933  HIT: 10927  MISS: 481006  HIT %: 2.22124  MISS %: 97.7788  AVERAGE MISS PENALTY: 1158.34
LLC5 WRITEBACK ACCESS: 178429  HIT:   873  MISS: 177556  HIT %: 0.48927  MISS %: 99.5107  AVERAGE MISS PENALTY: 0
LLC5 PREFETCH  REQUESTED:     0  ISSUED:     0  USEFUL:   669  USELESS: 33164
 USEFUL LOAD PREFETCHES:        669 PREFETCH ISSUED TO LOWER LEVEL:  379255472  ACCURACY: 0.000176398
 TIMELY PREFETCHES:        669 LATE PREFETCHES: 0 DROPPED PREFETCHES: 0
LLC5 AVERAGE MISS LATENCY: 904.751 cycles

LLC5 Set Associative Eviction Count : 0
LLC5 Priority 0 entries : 12288
LLC5 Inter-Core Interference : 1293736
LLC6 TOTAL     ACCESS: 824575  HIT: 12739  MISS: 811836  HIT %: 1.54492  MISS %: 98.4551  AVERAGE MISS PENALTY: 887.596
LLC6 LOAD      ACCESS: 10455  HIT:   156  MISS: 10299  HIT %: 1.49211  MISS %: 98.5079  AVERAGE MISS PENALTY: 1354.13
LLC6 RFO       ACCESS: 145370  HIT:   711  MISS: 144659  HIT %: 0.489097  MISS %: 99.5109  AVERAGE MISS PENALTY: 1112.27
LLC6 PREFETCH  ACCESS: 490314  HIT: 10943  MISS: 479371  HIT %: 2.23184  MISS %: 97.7682  AVERAGE MISS PENALTY: 1138.44
LLC6 WRITEBACK ACCESS: 178436  HIT:   929  MISS: 177507  HIT %: 0.520635  MISS %: 99.4794  AVERAGE MISS PENALTY: 0
LLC6 PREFETCH  REQUESTED:     0  ISSUED:     0  USEFUL:   726  USELESS: 33528
 USEFUL LOAD PREFETCHES:        726 PREFETCH ISSUED TO LOWER LEVEL:  556141609  ACCURACY: 0.000130542
 TIMELY PREFETCHES:        726 LATE PREFETCHES: 0 DROPPED PREFETCHES: 0
LLC6 AVERAGE MISS LATENCY: 887.596 cycles

LLC6 Set Associative Eviction Count : 0
LLC6 Priority 0 entries : 12288
LLC6 Inter-Core Interference : 1294360
LLC7 TOTAL     ACCESS: 824558  HIT: 12452  MISS: 812106  HIT %: 1.51014  MISS %: 98.4899  AVERAGE MISS PENALTY: 873.573
LLC7 LOAD      ACCESS: 10436  HIT:   163  MISS: 10273  HIT %: 1.5619  MISS %: 98.4381  AVERAGE MISS PENALTY: 1319.6
LLC7 RFO       ACCESS: 145364  HIT:   648  MISS: 144716  HIT %: 0.445777  MISS %: 99.5542  AVERAGE MISS PENALTY: 1098.48
LLC7 PREFETCH  ACCESS: 490316  HIT: 10785  MISS: 479531  HIT %: 2.1996  MISS %: 97.8004  AVERAGE MISS PENALTY: 1119.65
LLC7 WRITEBACK ACCESS: 178442  HIT:   856  MISS: 177586  HIT %: 0.479708  MISS %: 99.5203  AVERAGE MISS PENALTY: 0
LLC7 PREFETCH  REQUESTED:     0  ISSUED:     0  USEFUL:   680  USELESS: 33136
 USEFUL LOAD PREFETCHES:        680 PREFETCH ISSUED TO LOWER LEVEL:  548207130  ACCURACY: 0.000124041
 TIMELY PREFETCHES:        680 LATE PREFETCHES: 0 DROPPED PREFETCHES: 0
LLC7 AVERAGE MISS LATENCY: 873.572 cycles

LLC7 Set Associative Eviction Count : 0
LLC7 Priority 0 entries : 12287
LLC7 Inter-Core Interference : 1293394
ROI Average ROB Stall Cycles:	31.0467
ROI Total ROB Stalls Cycles:	515365667
ROI TOTAL ROB counter      :	16599705
ROI Average Load ROB Stall Cycles:	108.861
ROI Total Load ROB Stalls Cycle  :	409302412
ROI Total Load ROB stalls Counter:	3759850
Major fault: 0 Minor fault: 55264

CPU 7 cumulative IPC: 0.357164 instructions: 200000000 cycles: 559967211
ITLB TOTAL     ACCESS: 35299436  HIT: 35299436  MISS:     0  HIT %:   100  MISS %:     0  AVERAGE MISS PENALTY: 0
ITLB LOAD      ACCESS: 35299436  HIT: 35299436  MISS:     0  HIT %:   100  MISS %:     0  AVERAGE MISS PENALTY: 0
ITLB RFO       ACCESS:     0  HIT:     0  MISS:     0  HIT %:     0  MISS %:     0  AVERAGE MISS PENALTY: 0
ITLB PREFETCH  ACCESS:     0  HIT:     0  MISS:     0  HIT %:     0  MISS %:     0  AVERAGE MISS PENALTY: 0
ITLB WRITEBACK ACCESS:     0  HIT:     0  MISS:     0  HIT %:     0  MISS %:     0  AVERAGE MISS PENALTY: 0
ITLB PREFETCH  REQUESTED:     0  ISSUED:     0  USEFUL:     0  USELESS:     0
 USEFUL LOAD PREFETCHES:          0 PREFETCH ISSUED TO LOWER LEVEL:          0  ACCURACY: -nan
 TIMELY PREFETCHES:          0 LATE PREFETCHES: 0 DROPPED PREFETCHES: 0
ITLB AVERAGE MISS LATENCY: -nan cycles

ITLB Set Associative Eviction Count : 0
ITLB Priority 0 entries : 0
ITLB Inter-Core Interference : 0
DTLB TOTAL     ACCESS: 60099654  HIT: 59910472  MISS: 189182  HIT %: 99.6852  MISS %: 0.314781  AVERAGE MISS PENALTY: 83.3419
DTLB LOAD      ACCESS: 52686101  HIT: 52546261  MISS: 139840  HIT %: 99.7346  MISS %: 0.265421  AVERAGE MISS PENALTY: 94.4133
DTLB RFO       ACCESS: 7413553  HIT: 7364211  MISS: 49342  HIT %: 99.3344  MISS %: 0.665565  AVERAGE MISS PENALTY: 51.9642
DTLB PREFETCH  ACCESS:     0  HIT:     0  MISS:     0  HIT %:     0  MISS %:     0  AVERAGE MISS PENALTY: 0
DTLB WRITEBACK ACCESS:     0  HIT:     0  MISS:     0  HIT %:     0  MISS %:     0  AVERAGE MISS PENALTY: 0
DTLB PREFETCH  REQUESTED:     0  ISSUED:     0  USEFUL:     0  USELESS:     0
 USEFUL LOAD PREFETCHES:          0 PREFETCH ISSUED TO LOWER LEVEL:          0  ACCURACY: -nan
 TIMELY PREFETCHES:          0 LATE PREFETCHES: 0 DROPPED PREFETCHES: 0
DTLB AVERAGE MISS LATENCY: 83.3419 cycles

DTLB Set Associative Eviction Count : 0
DTLB Priority 0 entries : 0
DTLB Inter-Core Interference : 0
STLB TOTAL     ACCESS: 189182  HIT: 76245  MISS: 112937  HIT %: 40.3025  MISS %: 59.6975  AVERAGE MISS PENALTY: 100
STLB LOAD      ACCESS: 139840  HIT: 47571  MISS: 92269  HIT %: 34.0182  MISS %: 65.9818  AVERAGE MISS PENALTY: 100
STLB RFO       ACCESS: 49342  HIT: 28674  MISS: 20668  HIT %: 58.1128  MISS %: 41.8872  AVERAGE MISS PENALTY: 100
STLB PREFETCH  ACCESS:     0  HIT:     0  MISS:     0  HIT %:     0  MISS %:     0  AVERAGE MISS PENALTY: 0
STLB WRITEBACK ACCESS:     0  HIT:     0  MISS:     0  HIT %:     0  MISS %:     0  AVERAGE MISS PENALTY: 0
STLB PREFETCH  REQUESTED:     0  ISSUED:     0  USEFUL:     0  USELESS:     0
 USEFUL LOAD PREFETCHES:          0 PREFETCH ISSUED TO LOWER LEVEL:          0  ACCURACY: -nan
 TIMELY PREFETCHES:          0 LATE PREFETCHES: 0 DROPPED PREFETCHES: 0
STLB AVERAGE MISS LATENCY: 100 cycles

STLB Set Associative Eviction Count : 0
STLB Priority 0 entries : 0
STLB Inter-Core Interference : 0
L1D TOTAL     ACCESS: 65042748  HIT: 59386393  MISS: 5656355  HIT %: 91.3036  MISS %: 8.69637  AVERAGE MISS PENALTY: 5.70378e+07
L1D LOAD      ACCESS: 47492669  HIT: 46497656  MISS: 995013  HIT %: 97.9049  MISS %: 2.09509  AVERAGE MISS PENALTY: 3.2424e+08
L1D RFO       ACCESS: 6408872  HIT: 5245699  MISS: 1163173  HIT %: 81.8506  MISS %: 18.1494  AVERAGE MISS PENALTY: 1454.46
L1D PREFETCH  ACCESS: 11141207  HIT: 7643038  MISS: 3498169  HIT %: 68.6015  MISS %: 31.3985  AVERAGE MISS PENALTY: 388.852
L1D WRITEBACK ACCESS:     0  HIT:     0  MISS:     0  HIT %:     0  MISS %:     0  AVERAGE MISS PENALTY: 0
L1D PREFETCH  REQUESTED: 15973971  ISSUED: 15618227  USEFUL: 3415752  USELESS: 82427
 USEFUL LOAD PREFETCHES:    3415752 PREFETCH ISSUED TO LOWER LEVEL:   56607069  ACCURACY: 6.03414
 TIMELY PREFETCHES:    3415752 LATE PREFETCHES: 929075 DROPPED PREFETCHES: 355744
L1D AVERAGE MISS LATENCY: 665.143 cycles

L1D Set Associative Eviction Count : 0
L1D Priority 0 entries : 0
L1D Inter-Core Interference : 0
L1I TOTAL     ACCESS: 46467729  HIT: 46466995  MISS:   734  HIT %: 99.9984  MISS %: 0.00157959  AVERAGE MISS PENALTY: 1103.3
L1I LOAD      ACCESS: 46467729  HIT: 46466995  MISS:   734  HIT %: 99.9984  MISS %: 0.00157959  AVERAGE MISS PENALTY: 1103.3
L1I RFO       ACCESS:     0  HIT:     0  MISS:     0  HIT %:     0  MISS %:     0  AVERAGE MISS PENALTY: 0
L1I PREFETCH  ACCESS:     0  HIT:     0  MISS:     0  HIT %:     0  MISS %:     0  AVERAGE MISS PENALTY: 0
L1I WRITEBACK ACCESS:     0  HIT:     0  MISS:     0  HIT %:     0  MISS %:     0  AVERAGE MISS PENALTY: 0
L1I PREFETCH  REQUESTED:     0  ISSUED:     0  USEFUL:     0  USELESS:     0
 USEFUL LOAD PREFETCHES:          0 PREFETCH ISSUED TO LOWER LEVEL:          0  ACCURACY: -nan
 TIMELY PREFETCHES:          0 LATE PREFETCHES: 0 DROPPED PREFETCHES: 0
L1I AVERAGE MISS LATENCY: 1103.3 cycles

L1I Set Associative Eviction Count : 0
L1I Priority 0 entries : 0
L1I Inter-Core Interference : 1
L2C TOTAL     ACCESS: 9963009  HIT: 4730794  MISS: 5232215  HIT %: 47.4836  MISS %: 52.5164  AVERAGE MISS PENALTY: 5.85619e+07
L2C LOAD      ACCESS: 974199  HIT: 59390  MISS: 914809  HIT %: 6.09629  MISS %: 93.9037  AVERAGE MISS PENALTY: 3.34937e+08
L2C RFO       ACCESS: 1163172  HIT:    37  MISS: 1163135  HIT %: 0.00318096  MISS %: 99.9968  AVERAGE MISS PENALTY: 1349.85
L2C PREFETCH  ACCESS: 6393911  HIT: 3304571  MISS: 3089340  HIT %: 51.6831  MISS %: 48.3169  AVERAGE MISS PENALTY: 1109.26
L2C WRITEBACK ACCESS: 1431727  HIT: 1366796  MISS: 64931  HIT %: 95.4648  MISS %: 4.53515  AVERAGE MISS PENALTY: 0
L2C PREFETCH  REQUESTED: 6944892  ISSUED: 6944840  USEFUL: 21951  USELESS: 3066586
 USEFUL LOAD PREFETCHES:      21951 PREFETCH ISSUED TO LOWER LEVEL:    8610830  ACCURACY: 0.254923
 TIMELY PREFETCHES:      21951 LATE PREFETCHES: 842919 DROPPED PREFETCHES: 52
L2C AVERAGE MISS LATENCY: 1050.43 cycles

L2C Set Associative Eviction Count : 0
L2C Priority 0 entries : 0
L2C Inter-Core Interference : 0
LLC0 TOTAL     ACCESS: 822969  HIT: 12357  MISS: 810612  HIT %: 1.50151  MISS %: 98.4985  AVERAGE MISS PENALTY: 857.543
LLC0 LOAD      ACCESS: 68720  HIT:  1532  MISS: 67188  HIT %: 2.22934  MISS %: 97.7707  AVERAGE MISS PENALTY: 931.035
LLC0 RFO       ACCESS: 145390  HIT:   716  MISS: 144674  HIT %: 0.492469  MISS %: 99.5075  AVERAGE MISS PENALTY: 1079.18
LLC0 PREFETCH  ACCESS: 430464  HIT:  9196  MISS: 421268  HIT %: 2.1363  MISS %: 97.8637  AVERAGE MISS PENALTY: 1130.99
LLC0 WRITEBACK ACCESS: 178395  HIT:   913  MISS: 177482  HIT %: 0.511786  MISS %: 99.4882  AVERAGE MISS PENALTY: 0
LLC0 PREFETCH  REQUESTED:     0  ISSUED:     0  USEFUL:   602  USELESS: 29346
 USEFUL LOAD PREFETCHES:        602 PREFETCH ISSUED TO LOWER LEVEL:  212341753  ACCURACY: 0.000283505
 TIMELY PREFETCHES:        602 LATE PREFETCHES: 0 DROPPED PREFETCHES: 0
LLC0 AVERAGE MISS LATENCY: 857.543 cycles

LLC0 Set Associative Eviction Count : 0
LLC0 Priority 0 entries : 12287
LLC0 Inter-Core Interference : 1294414
LLC1 TOTAL     ACCESS: 823440  HIT: 12387  MISS: 811053  HIT %: 1.5043  MISS %: 98.4957  AVERAGE MISS PENALTY: 859.443
LLC1 LOAD      ACCESS: 15925  HIT:   370  MISS: 15555  HIT %: 2.32339  MISS %: 97.6766  AVERAGE MISS PENALTY: 1039.61
LLC1 RFO       ACCESS: 145392  HIT:   671  MISS: 144721  HIT %: 0.461511  MISS %: 99.5385  AVERAGE MISS PENALTY: 1093.35
LLC1 PREFETCH  ACCESS: 483733  HIT: 10471  MISS: 473262  HIT %: 2.16462  MISS %: 97.8354  AVERAGE MISS PENALTY: 1104.36
LLC1 WRITEBACK ACCESS: 178390  HIT:   875  MISS: 177515  HIT %: 0.490498  MISS %: 99.5095  AVERAGE MISS PENALTY: 0
LLC1 PREFETCH  REQUESTED:     0  ISSUED:     0  USEFUL:   722  USELESS: 32281
 USEFUL LOAD PREFETCHES:        722 PREFETCH ISSUED TO LOWER LEVEL:  227890523  ACCURACY: 0.000316819
 TIMELY PREFETCHES:        722 LATE PREFETCHES: 0 DROPPED PREFETCHES: 0
LLC1 AVERAGE MISS LATENCY: 859.443 cycles

LLC1 Set Associative Eviction Count : 0
LLC1 Priority 0 entries : 12287
LLC1 Inter-Core Interference : 1294518
LLC2 TOTAL     ACCESS: 823806  HIT: 12472  MISS: 811334  HIT %: 1.51395  MISS %: 98.4861  AVERAGE MISS PENALTY: 857.561
LLC2 LOAD      ACCESS: 11425  HIT:   231  MISS: 11194  HIT %: 2.02188  MISS %: 97.9781  AVERAGE MISS PENALTY: 1127.24
LLC2 RFO       ACCESS: 145390  HIT:   739  MISS: 144651  HIT %: 0.508288  MISS %: 99.4917  AVERAGE MISS PENALTY: 1050.96
LLC2 PREFETCH  ACCESS: 488619  HIT: 10572  MISS: 478047  HIT %: 2.16365  MISS %: 97.8364  AVERAGE MISS PENALTY: 1111.04
LLC2 WRITEBACK ACCESS: 178372  HIT:   930  MISS: 177442  HIT %: 0.521382  MISS %: 99.4786  AVERAGE MISS PENALTY: 0
LLC2 PREFETCH  REQUESTED:     0  ISSUED:     0  USEFUL:   659  USELESS: 32333
 USEFUL LOAD PREFETCHES:        659 PREFETCH ISSUED TO LOWER LEVEL:  297174197  ACCURACY: 0.000221755
 TIMELY PREFETCHES:        659 LATE PREFETCHES: 0 DROPPED PREFETCHES: 0
LLC2 AVERAGE MISS LATENCY: 857.561 cycles

LLC2 Set Associative Eviction Count : 0
LLC2 Priority 0 entries : 12286
LLC2 Inter-Core Interference : 1293745
LLC3 TOTAL     ACCESS: 824502  HIT: 12201  MISS: 812301  HIT %: 1.4798  MISS %: 98.5202  AVERAGE MISS PENALTY: 864.927
LLC3 LOAD      ACCESS:  9188  HIT:   202  MISS:  8986  HIT %: 2.19852  MISS %: 97.8015  AVERAGE MISS PENALTY: 1202.21
LLC3 RFO       ACCESS: 145389  HIT:   648  MISS: 144741  HIT %: 0.445701  MISS %: 99.5543  AVERAGE MISS PENALTY: 1061.21
LLC3 PREFETCH  ACCESS: 491564  HIT: 10526  MISS: 481038  HIT %: 2.14133  MISS %: 97.8587  AVERAGE MISS PENALTY: 1118.78
LLC3 WRITEBACK ACCESS: 178361  HIT:   825  MISS: 177536  HIT %: 0.462545  MISS %: 99.5375  AVERAGE MISS PENALTY: 0
LLC3 PREFETCH  REQUESTED:     0  ISSUED:     0  USEFUL:   719  USELESS: 33060
 USEFUL LOAD PREFETCHES:        719 PREFETCH ISSUED TO LOWER LEVEL:  287267462  ACCURACY: 0.000250289
 TIMELY PREFETCHES:        719 LATE PREFETCHES: 0 DROPPED PREFETCHES: 0
LLC3 AVERAGE MISS LATENCY: 864.927 cycles

LLC3 Set Associative Eviction Count : 0
LLC3 Priority 0 entries : 12286
LLC3 Inter-Core Interference : 1293234
LLC4 TOTAL     ACCESS: 825056  HIT: 12253  MISS: 812803  HIT %: 1.48511  MISS %: 98.5149  AVERAGE MISS PENALTY: 920.342
LLC4 LOAD      ACCESS:  8672  HIT:   200  MISS:  8472  HIT %: 2.30627  MISS %: 97.6937  AVERAGE MISS PENALTY: 1267.38
LLC4 RFO       ACCESS: 145391  HIT:   694  MISS: 144697  HIT %: 0.477334  MISS %: 99.5227  AVERAGE MISS PENALTY: 1155.77
LLC4 PREFETCH  ACCESS: 492630  HIT: 10471  MISS: 482159  HIT %: 2.12553  MISS %: 97.8745  AVERAGE MISS PENALTY: 1182.35
LLC4 WRITEBACK ACCESS: 178363  HIT:   888  MISS: 177475  HIT %: 0.497861  MISS %: 99.5021  AVERAGE MISS PENALTY: 0
LLC4 PREFETCH  REQUESTED:     0  ISSUED:     0  USEFUL:   709  USELESS: 32846
 USEFUL LOAD PREFETCHES:        709 PREFETCH ISSUED TO LOWER LEVEL:  394031984  ACCURACY: 0.000179935
 TIMELY PREFETCHES:        709 LATE PREFETCHES: 0 DROPPED PREFETCHES: 0
LLC4 AVERAGE MISS LATENCY: 920.342 cycles

LLC4 Set Associative Eviction Count : 0
LLC4 Priority 0 entries : 12286
LLC4 Inter-Core Interference : 1293372
LLC5 TOTAL     ACCESS: 824883  HIT: 12459  MISS: 812424  HIT %: 1.5104  MISS %: 98.4896  AVERAGE MISS PENALTY: 899.271
LLC5 LOAD      ACCESS:  9073  HIT:   177  MISS:  8896  HIT %: 1.95084  MISS %: 98.0492  AVERAGE MISS PENALTY: 1213.67
LLC5 RFO       ACCESS: 145393  HIT:   717  MISS: 144676  HIT %: 0.493146  MISS %: 99.5069  AVERAGE MISS PENALTY: 1140.04
LLC5 PREFETCH  ACCESS: 492063  HIT: 10650  MISS: 481413  HIT %: 2.16436  MISS %: 97.8356  AVERAGE MISS PENALTY: 1152.56
LLC5 WRITEBACK ACCESS: 178354  HIT:   915  MISS: 177439  HIT %: 0.513025  MISS %: 99.487  AVERAGE MISS PENALTY: 0
LLC5 PREFETCH  REQUESTED:     0  ISSUED:     0  USEFUL:   669  USELESS: 33164
 USEFUL LOAD PREFETCHES:        669 PREFETCH ISSUED TO LOWER LEVEL:  379255472  ACCURACY: 0.000176398
 TIMELY PREFETCHES:        669 LATE PREFETCHES: 0 DROPPED PREFETCHES: 0
LLC5 AVERAGE MISS LATENCY: 899.27 cycles

LLC5 Set Associative Eviction Count : 0
LLC5 Priority 0 entries : 12288
LLC5 Inter-Core Interference : 1293736
LLC6 TOTAL     ACCESS: 824860  HIT: 12420  MISS: 812440  HIT %: 1.50571  MISS %: 98.4943  AVERAGE MISS PENALTY: 886.138
LLC6 LOAD      ACCESS: 10518  HIT:   235  MISS: 10283  HIT %: 2.23427  MISS %: 97.7657  AVERAGE MISS PENALTY: 1347.12
LLC6 RFO       ACCESS: 145397  HIT:   706  MISS: 144691  HIT %: 0.485567  MISS %: 99.5144  AVERAGE MISS PENALTY: 1107.42
LLC6 PREFETCH  ACCESS: 490585  HIT: 10581  MISS: 480004  HIT %: 2.15681  MISS %: 97.8432  AVERAGE MISS PENALTY: 1137.17
LLC6 WRITEBACK ACCESS: 178360  HIT:   898  MISS: 177462  HIT %: 0.503476  MISS %: 99.4965  AVERAGE MISS PENALTY: 0
LLC6 PREFETCH  REQUESTED:     0  ISSUED:     0  USEFUL:   726  USELESS: 33528
 USEFUL LOAD PREFETCHES:        726 PREFETCH ISSUED TO LOWER LEVEL:  556141609  ACCURACY: 0.000130542
 TIMELY PREFETCHES:        726 LATE PREFETCHES: 0 DROPPED PREFETCHES: 0
LLC6 AVERAGE MISS LATENCY: 886.138 cycles

LLC6 Set Associative Eviction Count : 0
LLC6 Priority 0 entries : 12288
LLC6 Inter-Core Interference : 1294360
LLC7 TOTAL     ACCESS: 824721  HIT: 12194  MISS: 812527  HIT %: 1.47856  MISS %: 98.5214  AVERAGE MISS PENALTY: 873.86
LLC7 LOAD      ACCESS: 10510  HIT:   181  MISS: 10329  HIT %: 1.72217  MISS %: 98.2778  AVERAGE MISS PENALTY: 1331.44
LLC7 RFO       ACCESS: 145392  HIT:   691  MISS: 144701  HIT %: 0.475267  MISS %: 99.5247  AVERAGE MISS PENALTY: 1099.94
LLC7 PREFETCH  ACCESS: 490461  HIT: 10456  MISS: 480005  HIT %: 2.13187  MISS %: 97.8681  AVERAGE MISS PENALTY: 1118.99
LLC7 WRITEBACK ACCESS: 178358  HIT:   866  MISS: 177492  HIT %: 0.48554  MISS %: 99.5145  AVERAGE MISS PENALTY: 0
LLC7 PREFETCH  REQUESTED:     0  ISSUED:     0  USEFUL:   680  USELESS: 33136
 USEFUL LOAD PREFETCHES:        680 PREFETCH ISSUED TO LOWER LEVEL:  548207130  ACCURACY: 0.000124041
 TIMELY PREFETCHES:        680 LATE PREFETCHES: 0 DROPPED PREFETCHES: 0
LLC7 AVERAGE MISS LATENCY: 873.86 cycles

LLC7 Set Associative Eviction Count : 0
LLC7 Priority 0 entries : 12287
LLC7 Inter-Core Interference : 1293394
ROI Average ROB Stall Cycles:	30.9429
ROI Total ROB Stalls Cycles:	513596810
ROI TOTAL ROB counter      :	16598206
ROI Average Load ROB Stall Cycles:	108.323
ROI Total Load ROB Stalls Cycle  :	407338057
ROI Total Load ROB stalls Counter:	3760415
Major fault: 0 Minor fault: 55264








Interconnect Stats 
LINK 0 BW : 0LINK 1 BW : 0LINK 2 BW : 0LINK 3 BW : 0LINK 4 BW : 0LINK 5 BW : 0LINK 6 BW : 0LINK 7 BW : 0
DRAM Statistics
 CHANNEL 0
 RQ ROW_BUFFER_HIT: 6534093  ROW_BUFFER_MISS: 14044726
 DBUS_CONGESTED: 23185446
 WQ ROW_BUFFER_HIT: 183250  ROW_BUFFER_MISS: 5601580  FULL:  2262

 CHANNEL 1
 RQ ROW_BUFFER_HIT: 6554132  ROW_BUFFER_MISS: 14031537
 DBUS_CONGESTED: 23185446
 WQ ROW_BUFFER_HIT: 183362  ROW_BUFFER_MISS: 5601879  FULL:  1934

 AVG_CONGESTED_CYCLE: 6
DRAM PAGES: 2097152
Allocated PAGES: 442112
L2C destructor called
L1D destructor called
L1I destructor called
STLB destructor called
DTLB destructor called
ITLB destructor called
L2C destructor called
L1D destructor called
L1I destructor called
STLB destructor called
DTLB destructor called
ITLB destructor called
L2C destructor called
L1D destructor called
L1I destructor called
STLB destructor called
DTLB destructor called
ITLB destructor called
L2C destructor called
L1D destructor called
L1I destructor called
STLB destructor called
DTLB destructor called
ITLB destructor called
L2C destructor called
L1D destructor called
L1I destructor called
STLB destructor called
DTLB destructor called
ITLB destructor called
L2C destructor called
L1D destructor called
L1I destructor called
STLB destructor called
DTLB destructor called
ITLB destructor called
L2C destructor called
L1D destructor called
L1I destructor called
STLB destructor called
DTLB destructor called
ITLB destructor called
L2C destructor called
L1D destructor called
L1I destructor called
STLB destructor called
DTLB destructor called
ITLB destructor called
