
*** ChampSim Multicore Out-of-Order Simulator ***

Warmup Instructions: 200000000
Simulation Instructions: 200000000
Number of CPUs: 8
threads:1

L1I Configuration:
L1I_SET:64
L1I_WAY:8
L1I_RQ_SIZE:64
L1I_WQ_SIZE:64
L1I_PQ_SIZE:8
L1I_MSHR_SIZE:8

L1D Configuration:
L1D_SET:64
L1D_WAY:12
L1D_RQ_SIZE:64
L1D_WQ_SIZE:64
L1D_PQ_SIZE:8
L1D_MSHR_SIZE:16

L2C Configuration:
L2C_SET:1024
L2C_WAY:8
L2C_RQ_SIZE:32
L2C_WQ_SIZE:32
L2C_PQ_SIZE:16
L2C_MSHR_SIZE:32

LLC Configuration:
LLC_SET:2048
LLC_WAY:12
LLC SLICES:8
LLC_RQ_SIZE:64
LLC_WQ_SIZE:64
LLC_PQ_SIZE:32
LLC_MSHR_SIZE:64

Interconnect OFF
Attacker deprioritize is: OFF
Off-chip DRAM Size: 8192 MB Channels: 2 Width: 64-bit Data Rate: 3200 MT/s
PAGE SIZE in KB: 4.000000 
PAGE SIZE in MB: 0.003906 
PAGE offset in bits: 12 
CEASER-S_LLC:0
MIRAGE : 1
CEASER_LATENCY:3
REMAP : OFF
Partitions : 1
Multi-Step : OFF
BFS : OFF

CPU 0 runs /home/anubhav/spec_2017/654.roms_s-523B.champsimtrace.xz
CPU 1 runs /home/anubhav/spec_2017/654.roms_s-523B.champsimtrace.xz
CPU 2 runs /home/anubhav/spec_2017/654.roms_s-523B.champsimtrace.xz
CPU 3 runs /home/anubhav/spec_2017/654.roms_s-523B.champsimtrace.xz
CPU 4 runs /home/anubhav/spec_2017/654.roms_s-523B.champsimtrace.xz
CPU 5 runs /home/anubhav/spec_2017/654.roms_s-523B.champsimtrace.xz
CPU 6 runs /home/anubhav/spec_2017/654.roms_s-523B.champsimtrace.xz
CPU 7 runs /home/anubhav/spec_2017/654.roms_s-523B.champsimtrace.xz
CPU 0 Bimodal branch predictor
Initialize Hawkeye state
Initialize Hawkeye state
Initialize Hawkeye state
Initialize Hawkeye state
Initialize Hawkeye state
Initialize Hawkeye state
Initialize Hawkeye state
Initialize Hawkeye state
CPU 1 Bimodal branch predictor
Initialize Hawkeye state
Initialize Hawkeye state
Initialize Hawkeye state
Initialize Hawkeye state
Initialize Hawkeye state
Initialize Hawkeye state
Initialize Hawkeye state
Initialize Hawkeye state
CPU 2 Bimodal branch predictor
Initialize Hawkeye state
Initialize Hawkeye state
Initialize Hawkeye state
Initialize Hawkeye state
Initialize Hawkeye state
Initialize Hawkeye state
Initialize Hawkeye state
Initialize Hawkeye state
CPU 3 Bimodal branch predictor
Initialize Hawkeye state
Initialize Hawkeye state
Initialize Hawkeye state
Initialize Hawkeye state
Initialize Hawkeye state
Initialize Hawkeye state
Initialize Hawkeye state
Initialize Hawkeye state
CPU 4 Bimodal branch predictor
Initialize Hawkeye state
Initialize Hawkeye state
Initialize Hawkeye state
Initialize Hawkeye state
Initialize Hawkeye state
Initialize Hawkeye state
Initialize Hawkeye state
Initialize Hawkeye state
CPU 5 Bimodal branch predictor
Initialize Hawkeye state
Initialize Hawkeye state
Initialize Hawkeye state
Initialize Hawkeye state
Initialize Hawkeye state
Initialize Hawkeye state
Initialize Hawkeye state
Initialize Hawkeye state
CPU 6 Bimodal branch predictor
Initialize Hawkeye state
Initialize Hawkeye state
Initialize Hawkeye state
Initialize Hawkeye state
Initialize Hawkeye state
Initialize Hawkeye state
Initialize Hawkeye state
Initialize Hawkeye state
CPU 7 Bimodal branch predictor
Initialize Hawkeye state
Initialize Hawkeye state
Initialize Hawkeye state
Initialize Hawkeye state
Initialize Hawkeye state
Initialize Hawkeye state
Initialize Hawkeye state
Initialize Hawkeye state
FILL
Heartbeat CPU 2 instructions: 10000001 cycles: 4579912 heartbeat IPC: 2.18345 cumulative IPC: 2.18345 (Simulation time: 0 hr 47 min 9 sec) 
 Total Blocks : 196608 Invalid Blocks : 17925 Valid Blocks : 178683
 Total Tags : 491520 Threshold : 12288 Invalid Tags : 214534 Pr0 Tags : 98303 Pr1 Tags : 178683 num_pr0 : 12288
 SAE Count : 0
 Inter-Core Inteference in Data Store : 254466
Heartbeat CPU 3 instructions: 10000001 cycles: 4579950 heartbeat IPC: 2.18343 cumulative IPC: 2.18343 (Simulation time: 0 hr 47 min 9 sec) 
 Total Blocks : 196608 Invalid Blocks : 17925 Valid Blocks : 178683
 Total Tags : 491520 Threshold : 12288 Invalid Tags : 214534 Pr0 Tags : 98303 Pr1 Tags : 178683 num_pr0 : 12288
 SAE Count : 0
 Inter-Core Inteference in Data Store : 254467
Heartbeat CPU 7 instructions: 10000001 cycles: 4579982 heartbeat IPC: 2.18341 cumulative IPC: 2.18341 (Simulation time: 0 hr 47 min 9 sec) 
 Total Blocks : 196608 Invalid Blocks : 17925 Valid Blocks : 178683
 Total Tags : 491520 Threshold : 12288 Invalid Tags : 214533 Pr0 Tags : 98304 Pr1 Tags : 178683 num_pr0 : 12288
 SAE Count : 0
 Inter-Core Inteference in Data Store : 254468
Heartbeat CPU 1 instructions: 10000001 cycles: 4579998 heartbeat IPC: 2.18341 cumulative IPC: 2.18341 (Simulation time: 0 hr 47 min 9 sec) 
 Total Blocks : 196608 Invalid Blocks : 17925 Valid Blocks : 178683
 Total Tags : 491520 Threshold : 12288 Invalid Tags : 214533 Pr0 Tags : 98304 Pr1 Tags : 178683 num_pr0 : 12288
 SAE Count : 0
 Inter-Core Inteference in Data Store : 254468
Heartbeat CPU 4 instructions: 10000001 cycles: 4580026 heartbeat IPC: 2.18339 cumulative IPC: 2.18339 (Simulation time: 0 hr 47 min 9 sec) 
 Total Blocks : 196608 Invalid Blocks : 17925 Valid Blocks : 178683
 Total Tags : 491520 Threshold : 12288 Invalid Tags : 214533 Pr0 Tags : 98304 Pr1 Tags : 178683 num_pr0 : 12288
 SAE Count : 0
 Inter-Core Inteference in Data Store : 254470
Heartbeat CPU 5 instructions: 10000001 cycles: 4580049 heartbeat IPC: 2.18338 cumulative IPC: 2.18338 (Simulation time: 0 hr 47 min 9 sec) 
 Total Blocks : 196608 Invalid Blocks : 17925 Valid Blocks : 178683
 Total Tags : 491520 Threshold : 12288 Invalid Tags : 214533 Pr0 Tags : 98304 Pr1 Tags : 178683 num_pr0 : 12288
 SAE Count : 0
 Inter-Core Inteference in Data Store : 254472
Heartbeat CPU 0 instructions: 10000001 cycles: 4580055 heartbeat IPC: 2.18338 cumulative IPC: 2.18338 (Simulation time: 0 hr 47 min 9 sec) 
 Total Blocks : 196608 Invalid Blocks : 17925 Valid Blocks : 178683
 Total Tags : 491520 Threshold : 12288 Invalid Tags : 214533 Pr0 Tags : 98304 Pr1 Tags : 178683 num_pr0 : 12288
 SAE Count : 0
 Inter-Core Inteference in Data Store : 254472
Heartbeat CPU 6 instructions: 10000001 cycles: 4580088 heartbeat IPC: 2.18336 cumulative IPC: 2.18336 (Simulation time: 0 hr 47 min 9 sec) 
 Total Blocks : 196608 Invalid Blocks : 17924 Valid Blocks : 178684
 Total Tags : 491520 Threshold : 12288 Invalid Tags : 214533 Pr0 Tags : 98303 Pr1 Tags : 178684 num_pr0 : 12288
 SAE Count : 0
 Inter-Core Inteference in Data Store : 254474
Heartbeat CPU 5 instructions: 20000003 cycles: 9026481 heartbeat IPC: 2.24899 cumulative IPC: 2.2157 (Simulation time: 1 hr 31 min 34 sec) 
 Total Blocks : 196608 Invalid Blocks : 3193 Valid Blocks : 193415
 Total Tags : 491520 Threshold : 12288 Invalid Tags : 199805 Pr0 Tags : 98300 Pr1 Tags : 193415 num_pr0 : 12288
 SAE Count : 0
 Inter-Core Inteference in Data Store : 539424
Heartbeat CPU 4 instructions: 20000003 cycles: 9026523 heartbeat IPC: 2.24896 cumulative IPC: 2.21569 (Simulation time: 1 hr 31 min 34 sec) 
 Total Blocks : 196608 Invalid Blocks : 3193 Valid Blocks : 193415
 Total Tags : 491520 Threshold : 12288 Invalid Tags : 199804 Pr0 Tags : 98301 Pr1 Tags : 193415 num_pr0 : 12287
 SAE Count : 0
 Inter-Core Inteference in Data Store : 539429
Heartbeat CPU 2 instructions: 20000003 cycles: 9026528 heartbeat IPC: 2.2489 cumulative IPC: 2.21569 (Simulation time: 1 hr 31 min 34 sec) 
 Total Blocks : 196608 Invalid Blocks : 3193 Valid Blocks : 193415
 Total Tags : 491520 Threshold : 12288 Invalid Tags : 199803 Pr0 Tags : 98302 Pr1 Tags : 193415 num_pr0 : 12288
 SAE Count : 0
 Inter-Core Inteference in Data Store : 539429
Heartbeat CPU 7 instructions: 20000003 cycles: 9026536 heartbeat IPC: 2.24893 cumulative IPC: 2.21569 (Simulation time: 1 hr 31 min 34 sec) 
 Total Blocks : 196608 Invalid Blocks : 3193 Valid Blocks : 193415
 Total Tags : 491520 Threshold : 12288 Invalid Tags : 199806 Pr0 Tags : 98299 Pr1 Tags : 193415 num_pr0 : 12288
 SAE Count : 0
 Inter-Core Inteference in Data Store : 539432
Heartbeat CPU 6 instructions: 20000003 cycles: 9026559 heartbeat IPC: 2.24898 cumulative IPC: 2.21568 (Simulation time: 1 hr 31 min 34 sec) 
 Total Blocks : 196608 Invalid Blocks : 3193 Valid Blocks : 193415
 Total Tags : 491520 Threshold : 12288 Invalid Tags : 199804 Pr0 Tags : 98301 Pr1 Tags : 193415 num_pr0 : 12288
 SAE Count : 0
 Inter-Core Inteference in Data Store : 539435
Heartbeat CPU 1 instructions: 20000003 cycles: 9026589 heartbeat IPC: 2.24891 cumulative IPC: 2.21568 (Simulation time: 1 hr 31 min 34 sec) 
 Total Blocks : 196608 Invalid Blocks : 3193 Valid Blocks : 193415
 Total Tags : 491520 Threshold : 12288 Invalid Tags : 199802 Pr0 Tags : 98303 Pr1 Tags : 193415 num_pr0 : 12288
 SAE Count : 0
 Inter-Core Inteference in Data Store : 539442
Heartbeat CPU 3 instructions: 20000003 cycles: 9026626 heartbeat IPC: 2.24887 cumulative IPC: 2.21567 (Simulation time: 1 hr 31 min 35 sec) 
 Total Blocks : 196608 Invalid Blocks : 3193 Valid Blocks : 193415
 Total Tags : 491520 Threshold : 12288 Invalid Tags : 199805 Pr0 Tags : 98300 Pr1 Tags : 193415 num_pr0 : 12288
 SAE Count : 0
 Inter-Core Inteference in Data Store : 539446
Heartbeat CPU 0 instructions: 20000003 cycles: 9026703 heartbeat IPC: 2.24889 cumulative IPC: 2.21565 (Simulation time: 1 hr 31 min 35 sec) 
 Total Blocks : 196608 Invalid Blocks : 3193 Valid Blocks : 193415
 Total Tags : 491520 Threshold : 12288 Invalid Tags : 199804 Pr0 Tags : 98301 Pr1 Tags : 193415 num_pr0 : 12288
 SAE Count : 0
 Inter-Core Inteference in Data Store : 539456
Heartbeat CPU 5 instructions: 30000001 cycles: 14181007 heartbeat IPC: 1.94004 cumulative IPC: 2.11551 (Simulation time: 3 hr 53 min 34 sec) 
 Total Blocks : 196608 Invalid Blocks : 74 Valid Blocks : 196534
 Total Tags : 491520 Threshold : 12288 Invalid Tags : 196683 Pr0 Tags : 98303 Pr1 Tags : 196534 num_pr0 : 12288
 SAE Count : 0
 Inter-Core Inteference in Data Store : 1184125
Heartbeat CPU 2 instructions: 30000001 cycles: 14181038 heartbeat IPC: 1.94005 cumulative IPC: 2.1155 (Simulation time: 3 hr 53 min 34 sec) 
 Total Blocks : 196608 Invalid Blocks : 74 Valid Blocks : 196534
 Total Tags : 491520 Threshold : 12288 Invalid Tags : 196683 Pr0 Tags : 98303 Pr1 Tags : 196534 num_pr0 : 12288
 SAE Count : 0
 Inter-Core Inteference in Data Store : 1184128
Heartbeat CPU 1 instructions: 30000001 cycles: 14181096 heartbeat IPC: 1.94005 cumulative IPC: 2.11549 (Simulation time: 3 hr 53 min 34 sec) 
 Total Blocks : 196608 Invalid Blocks : 74 Valid Blocks : 196534
 Total Tags : 491520 Threshold : 12288 Invalid Tags : 196682 Pr0 Tags : 98304 Pr1 Tags : 196534 num_pr0 : 12288
 SAE Count : 0
 Inter-Core Inteference in Data Store : 1184134
Heartbeat CPU 4 instructions: 30000001 cycles: 14181120 heartbeat IPC: 1.94002 cumulative IPC: 2.11549 (Simulation time: 3 hr 53 min 34 sec) 
 Total Blocks : 196608 Invalid Blocks : 74 Valid Blocks : 196534
 Total Tags : 491520 Threshold : 12288 Invalid Tags : 196683 Pr0 Tags : 98303 Pr1 Tags : 196534 num_pr0 : 12288
 SAE Count : 0
 Inter-Core Inteference in Data Store : 1184138
Heartbeat CPU 3 instructions: 30000001 cycles: 14181130 heartbeat IPC: 1.94005 cumulative IPC: 2.11549 (Simulation time: 3 hr 53 min 34 sec) 
 Total Blocks : 196608 Invalid Blocks : 74 Valid Blocks : 196534
 Total Tags : 491520 Threshold : 12288 Invalid Tags : 196683 Pr0 Tags : 98303 Pr1 Tags : 196534 num_pr0 : 12288
 SAE Count : 0
 Inter-Core Inteference in Data Store : 1184139
Heartbeat CPU 6 instructions: 30000001 cycles: 14181154 heartbeat IPC: 1.94002 cumulative IPC: 2.11548 (Simulation time: 3 hr 53 min 34 sec) 
 Total Blocks : 196608 Invalid Blocks : 74 Valid Blocks : 196534
 Total Tags : 491520 Threshold : 12288 Invalid Tags : 196682 Pr0 Tags : 98304 Pr1 Tags : 196534 num_pr0 : 12288
 SAE Count : 0
 Inter-Core Inteference in Data Store : 1184140
Heartbeat CPU 7 instructions: 30000001 cycles: 14181165 heartbeat IPC: 1.94 cumulative IPC: 2.11548 (Simulation time: 3 hr 53 min 34 sec) 
 Total Blocks : 196608 Invalid Blocks : 74 Valid Blocks : 196534
 Total Tags : 491520 Threshold : 12288 Invalid Tags : 196683 Pr0 Tags : 98303 Pr1 Tags : 196534 num_pr0 : 12288
 SAE Count : 0
 Inter-Core Inteference in Data Store : 1184141
Heartbeat CPU 0 instructions: 30000001 cycles: 14181190 heartbeat IPC: 1.94006 cumulative IPC: 2.11548 (Simulation time: 3 hr 53 min 34 sec) 
 Total Blocks : 196608 Invalid Blocks : 74 Valid Blocks : 196534
 Total Tags : 491520 Threshold : 12288 Invalid Tags : 196684 Pr0 Tags : 98302 Pr1 Tags : 196534 num_pr0 : 12288
 SAE Count : 0
 Inter-Core Inteference in Data Store : 1184144
Heartbeat CPU 2 instructions: 40000003 cycles: 18581455 heartbeat IPC: 2.27251 cumulative IPC: 2.15268 (Simulation time: 6 hr 22 min 51 sec) 
 Total Blocks : 196608 Invalid Blocks : 1 Valid Blocks : 196607
 Total Tags : 491520 Threshold : 12288 Invalid Tags : 196615 Pr0 Tags : 98298 Pr1 Tags : 196607 num_pr0 : 12287
 SAE Count : 0
 Inter-Core Inteference in Data Store : 2076085
Heartbeat CPU 5 instructions: 40000003 cycles: 18581483 heartbeat IPC: 2.27248 cumulative IPC: 2.15268 (Simulation time: 6 hr 22 min 52 sec) 
 Total Blocks : 196608 Invalid Blocks : 1 Valid Blocks : 196607
 Total Tags : 491520 Threshold : 12288 Invalid Tags : 196614 Pr0 Tags : 98299 Pr1 Tags : 196607 num_pr0 : 12288
 SAE Count : 0
 Inter-Core Inteference in Data Store : 2076093
Heartbeat CPU 1 instructions: 40000003 cycles: 18581500 heartbeat IPC: 2.27252 cumulative IPC: 2.15268 (Simulation time: 6 hr 22 min 52 sec) 
 Total Blocks : 196608 Invalid Blocks : 1 Valid Blocks : 196607
 Total Tags : 491520 Threshold : 12288 Invalid Tags : 196617 Pr0 Tags : 98296 Pr1 Tags : 196607 num_pr0 : 12287
 SAE Count : 0
 Inter-Core Inteference in Data Store : 2076099
Heartbeat CPU 3 instructions: 40000003 cycles: 18581582 heartbeat IPC: 2.27249 cumulative IPC: 2.15267 (Simulation time: 6 hr 22 min 52 sec) 
 Total Blocks : 196608 Invalid Blocks : 1 Valid Blocks : 196607
 Total Tags : 491520 Threshold : 12288 Invalid Tags : 196613 Pr0 Tags : 98300 Pr1 Tags : 196607 num_pr0 : 12287
 SAE Count : 0
 Inter-Core Inteference in Data Store : 2076113
Heartbeat CPU 6 instructions: 40000003 cycles: 18581588 heartbeat IPC: 2.2725 cumulative IPC: 2.15267 (Simulation time: 6 hr 22 min 52 sec) 
 Total Blocks : 196608 Invalid Blocks : 1 Valid Blocks : 196607
 Total Tags : 491520 Threshold : 12288 Invalid Tags : 196613 Pr0 Tags : 98300 Pr1 Tags : 196607 num_pr0 : 12287
 SAE Count : 0
 Inter-Core Inteference in Data Store : 2076115
Heartbeat CPU 0 instructions: 40000003 cycles: 18581591 heartbeat IPC: 2.27252 cumulative IPC: 2.15267 (Simulation time: 6 hr 22 min 52 sec) 
 Total Blocks : 196608 Invalid Blocks : 1 Valid Blocks : 196607
 Total Tags : 491520 Threshold : 12288 Invalid Tags : 196613 Pr0 Tags : 98300 Pr1 Tags : 196607 num_pr0 : 12287
 SAE Count : 0
 Inter-Core Inteference in Data Store : 2076115
Heartbeat CPU 7 instructions: 40000003 cycles: 18581623 heartbeat IPC: 2.27249 cumulative IPC: 2.15266 (Simulation time: 6 hr 22 min 52 sec) 
 Total Blocks : 196608 Invalid Blocks : 1 Valid Blocks : 196607
 Total Tags : 491520 Threshold : 12288 Invalid Tags : 196612 Pr0 Tags : 98301 Pr1 Tags : 196607 num_pr0 : 12288
 SAE Count : 0
 Inter-Core Inteference in Data Store : 2076123
Heartbeat CPU 4 instructions: 40000003 cycles: 18581661 heartbeat IPC: 2.27245 cumulative IPC: 2.15266 (Simulation time: 6 hr 22 min 52 sec) 
 Total Blocks : 196608 Invalid Blocks : 1 Valid Blocks : 196607
 Total Tags : 491520 Threshold : 12288 Invalid Tags : 196613 Pr0 Tags : 98300 Pr1 Tags : 196607 num_pr0 : 12287
 SAE Count : 0
 Inter-Core Inteference in Data Store : 2076135
Heartbeat CPU 2 instructions: 50000002 cycles: 23686291 heartbeat IPC: 1.95893 cumulative IPC: 2.11093 (Simulation time: 7 hr 21 min 25 sec) 
 Total Blocks : 196608 Invalid Blocks : 0 Valid Blocks : 196608
 Total Tags : 491520 Threshold : 12288 Invalid Tags : 196609 Pr0 Tags : 98303 Pr1 Tags : 196608 num_pr0 : 12288
 SAE Count : 0
 Inter-Core Inteference in Data Store : 2475920
Heartbeat CPU 1 instructions: 50000002 cycles: 23686327 heartbeat IPC: 1.95893 cumulative IPC: 2.11092 (Simulation time: 7 hr 21 min 25 sec) 
 Total Blocks : 196608 Invalid Blocks : 0 Valid Blocks : 196608
 Total Tags : 491520 Threshold : 12288 Invalid Tags : 196610 Pr0 Tags : 98302 Pr1 Tags : 196608 num_pr0 : 12288
 SAE Count : 0
 Inter-Core Inteference in Data Store : 2475922
Heartbeat CPU 5 instructions: 50000002 cycles: 23686331 heartbeat IPC: 1.95892 cumulative IPC: 2.11092 (Simulation time: 7 hr 21 min 25 sec) 
 Total Blocks : 196608 Invalid Blocks : 0 Valid Blocks : 196608
 Total Tags : 491520 Threshold : 12288 Invalid Tags : 196609 Pr0 Tags : 98303 Pr1 Tags : 196608 num_pr0 : 12288
 SAE Count : 0
 Inter-Core Inteference in Data Store : 2475922
Heartbeat CPU 3 instructions: 50000002 cycles: 23686413 heartbeat IPC: 1.95893 cumulative IPC: 2.11091 (Simulation time: 7 hr 21 min 25 sec) 
 Total Blocks : 196608 Invalid Blocks : 0 Valid Blocks : 196608
 Total Tags : 491520 Threshold : 12288 Invalid Tags : 196609 Pr0 Tags : 98303 Pr1 Tags : 196608 num_pr0 : 12288
 SAE Count : 0
 Inter-Core Inteference in Data Store : 2475925
Heartbeat CPU 0 instructions: 50000002 cycles: 23686434 heartbeat IPC: 1.95892 cumulative IPC: 2.11091 (Simulation time: 7 hr 21 min 25 sec) 
 Total Blocks : 196608 Invalid Blocks : 0 Valid Blocks : 196608
 Total Tags : 491520 Threshold : 12288 Invalid Tags : 196610 Pr0 Tags : 98302 Pr1 Tags : 196608 num_pr0 : 12288
 SAE Count : 0
 Inter-Core Inteference in Data Store : 2475927
Heartbeat CPU 6 instructions: 50000002 cycles: 23686440 heartbeat IPC: 1.95892 cumulative IPC: 2.11091 (Simulation time: 7 hr 21 min 25 sec) 
 Total Blocks : 196608 Invalid Blocks : 0 Valid Blocks : 196608
 Total Tags : 491520 Threshold : 12288 Invalid Tags : 196610 Pr0 Tags : 98302 Pr1 Tags : 196608 num_pr0 : 12288
 SAE Count : 0
 Inter-Core Inteference in Data Store : 2475927
Heartbeat CPU 7 instructions: 50000002 cycles: 23686470 heartbeat IPC: 1.95892 cumulative IPC: 2.11091 (Simulation time: 7 hr 21 min 25 sec) 
 Total Blocks : 196608 Invalid Blocks : 0 Valid Blocks : 196608
 Total Tags : 491520 Threshold : 12288 Invalid Tags : 196609 Pr0 Tags : 98303 Pr1 Tags : 196608 num_pr0 : 12288
 SAE Count : 0
 Inter-Core Inteference in Data Store : 2475929
Heartbeat CPU 4 instructions: 50000002 cycles: 23686512 heartbeat IPC: 1.95892 cumulative IPC: 2.11091 (Simulation time: 7 hr 21 min 25 sec) 
 Total Blocks : 196608 Invalid Blocks : 0 Valid Blocks : 196608
 Total Tags : 491520 Threshold : 12288 Invalid Tags : 196608 Pr0 Tags : 98304 Pr1 Tags : 196608 num_pr0 : 12288
 SAE Count : 0
 Inter-Core Inteference in Data Store : 2475930
Heartbeat CPU 2 instructions: 60000000 cycles: 28766168 heartbeat IPC: 1.96855 cumulative IPC: 2.08578 (Simulation time: 8 hr 56 min 38 sec) 
 Total Blocks : 196608 Invalid Blocks : 0 Valid Blocks : 196608
 Total Tags : 491520 Threshold : 12288 Invalid Tags : 196609 Pr0 Tags : 98303 Pr1 Tags : 196608 num_pr0 : 12287
 SAE Count : 0
 Inter-Core Inteference in Data Store : 3082987
Heartbeat CPU 1 instructions: 60000000 cycles: 28766261 heartbeat IPC: 1.96853 cumulative IPC: 2.08578 (Simulation time: 8 hr 56 min 38 sec) 
 Total Blocks : 196608 Invalid Blocks : 0 Valid Blocks : 196608
 Total Tags : 491520 Threshold : 12288 Invalid Tags : 196610 Pr0 Tags : 98302 Pr1 Tags : 196608 num_pr0 : 12287
 SAE Count : 0
 Inter-Core Inteference in Data Store : 3082990
Heartbeat CPU 0 instructions: 60000000 cycles: 28766285 heartbeat IPC: 1.96856 cumulative IPC: 2.08578 (Simulation time: 8 hr 56 min 39 sec) 
 Total Blocks : 196608 Invalid Blocks : 0 Valid Blocks : 196608
 Total Tags : 491520 Threshold : 12288 Invalid Tags : 196609 Pr0 Tags : 98303 Pr1 Tags : 196608 num_pr0 : 12287
 SAE Count : 0
 Inter-Core Inteference in Data Store : 3082992
Heartbeat CPU 5 instructions: 60000000 cycles: 28766290 heartbeat IPC: 1.96852 cumulative IPC: 2.08577 (Simulation time: 8 hr 56 min 39 sec) 
 Total Blocks : 196608 Invalid Blocks : 0 Valid Blocks : 196608
 Total Tags : 491520 Threshold : 12288 Invalid Tags : 196609 Pr0 Tags : 98303 Pr1 Tags : 196608 num_pr0 : 12288
 SAE Count : 0
 Inter-Core Inteference in Data Store : 3082993
Heartbeat CPU 3 instructions: 60000000 cycles: 28766295 heartbeat IPC: 1.96855 cumulative IPC: 2.08577 (Simulation time: 8 hr 56 min 39 sec) 
 Total Blocks : 196608 Invalid Blocks : 0 Valid Blocks : 196608
 Total Tags : 491520 Threshold : 12288 Invalid Tags : 196609 Pr0 Tags : 98303 Pr1 Tags : 196608 num_pr0 : 12288
 SAE Count : 0
 Inter-Core Inteference in Data Store : 3082993
Heartbeat CPU 6 instructions: 60000000 cycles: 28766298 heartbeat IPC: 1.96856 cumulative IPC: 2.08577 (Simulation time: 8 hr 56 min 39 sec) 
 Total Blocks : 196608 Invalid Blocks : 0 Valid Blocks : 196608
 Total Tags : 491520 Threshold : 12288 Invalid Tags : 196609 Pr0 Tags : 98303 Pr1 Tags : 196608 num_pr0 : 12288
 SAE Count : 0
 Inter-Core Inteference in Data Store : 3082993
Heartbeat CPU 7 instructions: 60000000 cycles: 28766346 heartbeat IPC: 1.96855 cumulative IPC: 2.08577 (Simulation time: 8 hr 56 min 39 sec) 
 Total Blocks : 196608 Invalid Blocks : 0 Valid Blocks : 196608
 Total Tags : 491520 Threshold : 12288 Invalid Tags : 196608 Pr0 Tags : 98304 Pr1 Tags : 196608 num_pr0 : 12288
 SAE Count : 0
 Inter-Core Inteference in Data Store : 3082993
Heartbeat CPU 4 instructions: 60000000 cycles: 28766409 heartbeat IPC: 1.96854 cumulative IPC: 2.08577 (Simulation time: 8 hr 56 min 39 sec) 
 Total Blocks : 196608 Invalid Blocks : 0 Valid Blocks : 196608
 Total Tags : 491520 Threshold : 12288 Invalid Tags : 196609 Pr0 Tags : 98303 Pr1 Tags : 196608 num_pr0 : 12288
 SAE Count : 0
 Inter-Core Inteference in Data Store : 3082993
Heartbeat CPU 2 instructions: 70000000 cycles: 33682752 heartbeat IPC: 2.03393 cumulative IPC: 2.07821 (Simulation time: 9 hr 59 min 16 sec) 
 Total Blocks : 196608 Invalid Blocks : 0 Valid Blocks : 196608
 Total Tags : 491520 Threshold : 12288 Invalid Tags : 196610 Pr0 Tags : 98302 Pr1 Tags : 196608 num_pr0 : 12287
 SAE Count : 0
 Inter-Core Inteference in Data Store : 3679181
Heartbeat CPU 1 instructions: 70000000 cycles: 33682859 heartbeat IPC: 2.03393 cumulative IPC: 2.07821 (Simulation time: 9 hr 59 min 16 sec) 
 Total Blocks : 196608 Invalid Blocks : 0 Valid Blocks : 196608
 Total Tags : 491520 Threshold : 12288 Invalid Tags : 196610 Pr0 Tags : 98302 Pr1 Tags : 196608 num_pr0 : 12287
 SAE Count : 0
 Inter-Core Inteference in Data Store : 3679185
Heartbeat CPU 0 instructions: 70000000 cycles: 33682875 heartbeat IPC: 2.03393 cumulative IPC: 2.07821 (Simulation time: 9 hr 59 min 16 sec) 
 Total Blocks : 196608 Invalid Blocks : 0 Valid Blocks : 196608
 Total Tags : 491520 Threshold : 12288 Invalid Tags : 196610 Pr0 Tags : 98302 Pr1 Tags : 196608 num_pr0 : 12288
 SAE Count : 0
 Inter-Core Inteference in Data Store : 3679188
Heartbeat CPU 3 instructions: 70000000 cycles: 33682920 heartbeat IPC: 2.03392 cumulative IPC: 2.0782 (Simulation time: 9 hr 59 min 16 sec) 
 Total Blocks : 196608 Invalid Blocks : 0 Valid Blocks : 196608
 Total Tags : 491520 Threshold : 12288 Invalid Tags : 196609 Pr0 Tags : 98303 Pr1 Tags : 196608 num_pr0 : 12288
 SAE Count : 0
 Inter-Core Inteference in Data Store : 3679190
Heartbeat CPU 6 instructions: 70000000 cycles: 33682920 heartbeat IPC: 2.03392 cumulative IPC: 2.0782 (Simulation time: 9 hr 59 min 16 sec) 
 Total Blocks : 196608 Invalid Blocks : 0 Valid Blocks : 196608
 Total Tags : 491520 Threshold : 12288 Invalid Tags : 196609 Pr0 Tags : 98303 Pr1 Tags : 196608 num_pr0 : 12288
 SAE Count : 0
 Inter-Core Inteference in Data Store : 3679190
Heartbeat CPU 5 instructions: 70000000 cycles: 33682934 heartbeat IPC: 2.03391 cumulative IPC: 2.0782 (Simulation time: 9 hr 59 min 16 sec) 
 Total Blocks : 196608 Invalid Blocks : 0 Valid Blocks : 196608
 Total Tags : 491520 Threshold : 12288 Invalid Tags : 196609 Pr0 Tags : 98303 Pr1 Tags : 196608 num_pr0 : 12288
 SAE Count : 0
 Inter-Core Inteference in Data Store : 3679191
Heartbeat CPU 7 instructions: 70000000 cycles: 33682935 heartbeat IPC: 2.03393 cumulative IPC: 2.0782 (Simulation time: 9 hr 59 min 16 sec) 
 Total Blocks : 196608 Invalid Blocks : 0 Valid Blocks : 196608
 Total Tags : 491520 Threshold : 12288 Invalid Tags : 196609 Pr0 Tags : 98303 Pr1 Tags : 196608 num_pr0 : 12288
 SAE Count : 0
 Inter-Core Inteference in Data Store : 3679191
Heartbeat CPU 4 instructions: 70000000 cycles: 33683041 heartbeat IPC: 2.03391 cumulative IPC: 2.0782 (Simulation time: 9 hr 59 min 16 sec) 
 Total Blocks : 196608 Invalid Blocks : 0 Valid Blocks : 196608
 Total Tags : 491520 Threshold : 12288 Invalid Tags : 196608 Pr0 Tags : 98304 Pr1 Tags : 196608 num_pr0 : 12288
 SAE Count : 0
 Inter-Core Inteference in Data Store : 3679197
Heartbeat CPU 2 instructions: 80000001 cycles: 38632570 heartbeat IPC: 2.02028 cumulative IPC: 2.07079 (Simulation time: 10 hr 33 min 4 sec) 
 Total Blocks : 196608 Invalid Blocks : 0 Valid Blocks : 196608
 Total Tags : 491520 Threshold : 12288 Invalid Tags : 196611 Pr0 Tags : 98301 Pr1 Tags : 196608 num_pr0 : 12288
 SAE Count : 0
 Inter-Core Inteference in Data Store : 4011292
Heartbeat CPU 1 instructions: 80000001 cycles: 38632686 heartbeat IPC: 2.02027 cumulative IPC: 2.07079 (Simulation time: 10 hr 33 min 4 sec) 
 Total Blocks : 196608 Invalid Blocks : 0 Valid Blocks : 196608
 Total Tags : 491520 Threshold : 12288 Invalid Tags : 196611 Pr0 Tags : 98301 Pr1 Tags : 196608 num_pr0 : 12287
 SAE Count : 0
 Inter-Core Inteference in Data Store : 4011307
Heartbeat CPU 0 instructions: 80000001 cycles: 38632699 heartbeat IPC: 2.02027 cumulative IPC: 2.07078 (Simulation time: 10 hr 33 min 4 sec) 
 Total Blocks : 196608 Invalid Blocks : 0 Valid Blocks : 196608
 Total Tags : 491520 Threshold : 12288 Invalid Tags : 196612 Pr0 Tags : 98300 Pr1 Tags : 196608 num_pr0 : 12287
 SAE Count : 0
 Inter-Core Inteference in Data Store : 4011309
Heartbeat CPU 3 instructions: 80000001 cycles: 38632736 heartbeat IPC: 2.02028 cumulative IPC: 2.07078 (Simulation time: 10 hr 33 min 5 sec) 
 Total Blocks : 196608 Invalid Blocks : 0 Valid Blocks : 196608
 Total Tags : 491520 Threshold : 12288 Invalid Tags : 196611 Pr0 Tags : 98301 Pr1 Tags : 196608 num_pr0 : 12287
 SAE Count : 0
 Inter-Core Inteference in Data Store : 4011315
Heartbeat CPU 6 instructions: 80000001 cycles: 38632758 heartbeat IPC: 2.02027 cumulative IPC: 2.07078 (Simulation time: 10 hr 33 min 5 sec) 
 Total Blocks : 196608 Invalid Blocks : 0 Valid Blocks : 196608
 Total Tags : 491520 Threshold : 12288 Invalid Tags : 196611 Pr0 Tags : 98301 Pr1 Tags : 196608 num_pr0 : 12287
 SAE Count : 0
 Inter-Core Inteference in Data Store : 4011317
Heartbeat CPU 5 instructions: 80000001 cycles: 38632764 heartbeat IPC: 2.02027 cumulative IPC: 2.07078 (Simulation time: 10 hr 33 min 5 sec) 
 Total Blocks : 196608 Invalid Blocks : 0 Valid Blocks : 196608
 Total Tags : 491520 Threshold : 12288 Invalid Tags : 196612 Pr0 Tags : 98300 Pr1 Tags : 196608 num_pr0 : 12287
 SAE Count : 0
 Inter-Core Inteference in Data Store : 4011318
Heartbeat CPU 7 instructions: 80000001 cycles: 38632796 heartbeat IPC: 2.02026 cumulative IPC: 2.07078 (Simulation time: 10 hr 33 min 5 sec) 
 Total Blocks : 196608 Invalid Blocks : 0 Valid Blocks : 196608
 Total Tags : 491520 Threshold : 12288 Invalid Tags : 196612 Pr0 Tags : 98300 Pr1 Tags : 196608 num_pr0 : 12287
 SAE Count : 0
 Inter-Core Inteference in Data Store : 4011323
Heartbeat CPU 4 instructions: 80000001 cycles: 38632895 heartbeat IPC: 2.02026 cumulative IPC: 2.07077 (Simulation time: 10 hr 33 min 5 sec) 
 Total Blocks : 196608 Invalid Blocks : 0 Valid Blocks : 196608
 Total Tags : 491520 Threshold : 12288 Invalid Tags : 196611 Pr0 Tags : 98301 Pr1 Tags : 196608 num_pr0 : 12288
 SAE Count : 0
 Inter-Core Inteference in Data Store : 4011338
FILL
Heartbeat CPU 2 instructions: 90000002 cycles: 43235192 heartbeat IPC: 2.17267 cumulative IPC: 2.08164 (Simulation time: 11 hr 0 min 37 sec) 
 Total Blocks : 196608 Invalid Blocks : 0 Valid Blocks : 196608
 Total Tags : 491520 Threshold : 12288 Invalid Tags : 196608 Pr0 Tags : 98304 Pr1 Tags : 196608 num_pr0 : 12288
 SAE Count : 0
 Inter-Core Inteference in Data Store : 4467035
Heartbeat CPU 0 instructions: 90000002 cycles: 43235348 heartbeat IPC: 2.17266 cumulative IPC: 2.08163 (Simulation time: 11 hr 0 min 37 sec) 
 Total Blocks : 196608 Invalid Blocks : 0 Valid Blocks : 196608
 Total Tags : 491520 Threshold : 12288 Invalid Tags : 196608 Pr0 Tags : 98304 Pr1 Tags : 196608 num_pr0 : 12288
 SAE Count : 0
 Inter-Core Inteference in Data Store : 4467039
Heartbeat CPU 1 instructions: 90000002 cycles: 43235403 heartbeat IPC: 2.17263 cumulative IPC: 2.08163 (Simulation time: 11 hr 0 min 37 sec) 
 Total Blocks : 196608 Invalid Blocks : 0 Valid Blocks : 196608
 Total Tags : 491520 Threshold : 12288 Invalid Tags : 196608 Pr0 Tags : 98304 Pr1 Tags : 196608 num_pr0 : 12288
 SAE Count : 0
 Inter-Core Inteference in Data Store : 4467042
Heartbeat CPU 6 instructions: 90000002 cycles: 43235472 heartbeat IPC: 2.17263 cumulative IPC: 2.08162 (Simulation time: 11 hr 0 min 37 sec) 
 Total Blocks : 196608 Invalid Blocks : 0 Valid Blocks : 196608
 Total Tags : 491520 Threshold : 12288 Invalid Tags : 196610 Pr0 Tags : 98302 Pr1 Tags : 196608 num_pr0 : 12287
 SAE Count : 0
 Inter-Core Inteference in Data Store : 4467044
Heartbeat CPU 3 instructions: 90000002 cycles: 43235491 heartbeat IPC: 2.17261 cumulative IPC: 2.08162 (Simulation time: 11 hr 0 min 37 sec) 
 Total Blocks : 196608 Invalid Blocks : 0 Valid Blocks : 196608
 Total Tags : 491520 Threshold : 12288 Invalid Tags : 196609 Pr0 Tags : 98303 Pr1 Tags : 196608 num_pr0 : 12287
 SAE Count : 0
 Inter-Core Inteference in Data Store : 4467044
Heartbeat CPU 5 instructions: 90000002 cycles: 43235493 heartbeat IPC: 2.17262 cumulative IPC: 2.08162 (Simulation time: 11 hr 0 min 37 sec) 
 Total Blocks : 196608 Invalid Blocks : 0 Valid Blocks : 196608
 Total Tags : 491520 Threshold : 12288 Invalid Tags : 196609 Pr0 Tags : 98303 Pr1 Tags : 196608 num_pr0 : 12287
 SAE Count : 0
 Inter-Core Inteference in Data Store : 4467044
Heartbeat CPU 7 instructions: 90000002 cycles: 43235535 heartbeat IPC: 2.17262 cumulative IPC: 2.08162 (Simulation time: 11 hr 0 min 37 sec) 
 Total Blocks : 196608 Invalid Blocks : 0 Valid Blocks : 196608
 Total Tags : 491520 Threshold : 12288 Invalid Tags : 196609 Pr0 Tags : 98303 Pr1 Tags : 196608 num_pr0 : 12287
 SAE Count : 0
 Inter-Core Inteference in Data Store : 4467045
Heartbeat CPU 4 instructions: 90000002 cycles: 43235554 heartbeat IPC: 2.17266 cumulative IPC: 2.08162 (Simulation time: 11 hr 0 min 37 sec) 
 Total Blocks : 196608 Invalid Blocks : 0 Valid Blocks : 196608
 Total Tags : 491520 Threshold : 12288 Invalid Tags : 196611 Pr0 Tags : 98301 Pr1 Tags : 196608 num_pr0 : 12287
 SAE Count : 0
 Inter-Core Inteference in Data Store : 4467047
FILL
Heartbeat CPU 2 instructions: 100000000 cycles: 47652033 heartbeat IPC: 2.26406 cumulative IPC: 2.09855 (Simulation time: 11 hr 25 min 16 sec) 
 Total Blocks : 196608 Invalid Blocks : 0 Valid Blocks : 196608
 Total Tags : 491520 Threshold : 12288 Invalid Tags : 196608 Pr0 Tags : 98304 Pr1 Tags : 196608 num_pr0 : 12288
 SAE Count : 0
 Inter-Core Inteference in Data Store : 4746178
Heartbeat CPU 1 instructions: 100000000 cycles: 47652109 heartbeat IPC: 2.26413 cumulative IPC: 2.09854 (Simulation time: 11 hr 25 min 16 sec) 
 Total Blocks : 196608 Invalid Blocks : 0 Valid Blocks : 196608
 Total Tags : 491520 Threshold : 12288 Invalid Tags : 196610 Pr0 Tags : 98302 Pr1 Tags : 196608 num_pr0 : 12288
 SAE Count : 0
 Inter-Core Inteference in Data Store : 4746190
Heartbeat CPU 0 instructions: 100000000 cycles: 47652165 heartbeat IPC: 2.26407 cumulative IPC: 2.09854 (Simulation time: 11 hr 25 min 16 sec) 
 Total Blocks : 196608 Invalid Blocks : 0 Valid Blocks : 196608
 Total Tags : 491520 Threshold : 12288 Invalid Tags : 196609 Pr0 Tags : 98303 Pr1 Tags : 196608 num_pr0 : 12288
 SAE Count : 0
 Inter-Core Inteference in Data Store : 4746201
Heartbeat CPU 7 instructions: 100000000 cycles: 47652250 heartbeat IPC: 2.26413 cumulative IPC: 2.09854 (Simulation time: 11 hr 25 min 16 sec) 
 Total Blocks : 196608 Invalid Blocks : 0 Valid Blocks : 196608
 Total Tags : 491520 Threshold : 12288 Invalid Tags : 196610 Pr0 Tags : 98302 Pr1 Tags : 196608 num_pr0 : 12288
 SAE Count : 0
 Inter-Core Inteference in Data Store : 4746215
Heartbeat CPU 3 instructions: 100000000 cycles: 47652252 heartbeat IPC: 2.2641 cumulative IPC: 2.09854 (Simulation time: 11 hr 25 min 16 sec) 
 Total Blocks : 196608 Invalid Blocks : 0 Valid Blocks : 196608
 Total Tags : 491520 Threshold : 12288 Invalid Tags : 196613 Pr0 Tags : 98299 Pr1 Tags : 196608 num_pr0 : 12288
 SAE Count : 0
 Inter-Core Inteference in Data Store : 4746218
Heartbeat CPU 6 instructions: 100000000 cycles: 47652276 heartbeat IPC: 2.26408 cumulative IPC: 2.09854 (Simulation time: 11 hr 25 min 16 sec) 
 Total Blocks : 196608 Invalid Blocks : 0 Valid Blocks : 196608
 Total Tags : 491520 Threshold : 12288 Invalid Tags : 196611 Pr0 Tags : 98301 Pr1 Tags : 196608 num_pr0 : 12288
 SAE Count : 0
 Inter-Core Inteference in Data Store : 4746222
Heartbeat CPU 5 instructions: 100000000 cycles: 47652401 heartbeat IPC: 2.26403 cumulative IPC: 2.09853 (Simulation time: 11 hr 25 min 16 sec) 
 Total Blocks : 196608 Invalid Blocks : 0 Valid Blocks : 196608
 Total Tags : 491520 Threshold : 12288 Invalid Tags : 196610 Pr0 Tags : 98302 Pr1 Tags : 196608 num_pr0 : 12288
 SAE Count : 0
 Inter-Core Inteference in Data Store : 4746238
Heartbeat CPU 4 instructions: 100000000 cycles: 47652486 heartbeat IPC: 2.26401 cumulative IPC: 2.09853 (Simulation time: 11 hr 25 min 16 sec) 
 Total Blocks : 196608 Invalid Blocks : 0 Valid Blocks : 196608
 Total Tags : 491520 Threshold : 12288 Invalid Tags : 196610 Pr0 Tags : 98302 Pr1 Tags : 196608 num_pr0 : 12288
 SAE Count : 0
 Inter-Core Inteference in Data Store : 4746250
Heartbeat CPU 2 instructions: 110000000 cycles: 52800723 heartbeat IPC: 1.94224 cumulative IPC: 2.0833 (Simulation time: 13 hr 12 min 6 sec) 
 Total Blocks : 196608 Invalid Blocks : 0 Valid Blocks : 196608
 Total Tags : 491520 Threshold : 12288 Invalid Tags : 196610 Pr0 Tags : 98302 Pr1 Tags : 196608 num_pr0 : 12288
 SAE Count : 0
 Inter-Core Inteference in Data Store : 5400311
Heartbeat CPU 0 instructions: 110000000 cycles: 52800834 heartbeat IPC: 1.94225 cumulative IPC: 2.0833 (Simulation time: 13 hr 12 min 7 sec) 
 Total Blocks : 196608 Invalid Blocks : 0 Valid Blocks : 196608
 Total Tags : 491520 Threshold : 12288 Invalid Tags : 196610 Pr0 Tags : 98302 Pr1 Tags : 196608 num_pr0 : 12288
 SAE Count : 0
 Inter-Core Inteference in Data Store : 5400324
Heartbeat CPU 1 instructions: 110000000 cycles: 52800848 heartbeat IPC: 1.94222 cumulative IPC: 2.0833 (Simulation time: 13 hr 12 min 7 sec) 
 Total Blocks : 196608 Invalid Blocks : 0 Valid Blocks : 196608
 Total Tags : 491520 Threshold : 12288 Invalid Tags : 196609 Pr0 Tags : 98303 Pr1 Tags : 196608 num_pr0 : 12288
 SAE Count : 0
 Inter-Core Inteference in Data Store : 5400324
Heartbeat CPU 3 instructions: 110000000 cycles: 52800928 heartbeat IPC: 1.94225 cumulative IPC: 2.0833 (Simulation time: 13 hr 12 min 7 sec) 
 Total Blocks : 196608 Invalid Blocks : 0 Valid Blocks : 196608
 Total Tags : 491520 Threshold : 12288 Invalid Tags : 196610 Pr0 Tags : 98302 Pr1 Tags : 196608 num_pr0 : 12288
 SAE Count : 0
 Inter-Core Inteference in Data Store : 5400336
Heartbeat CPU 7 instructions: 110000000 cycles: 52801003 heartbeat IPC: 1.94222 cumulative IPC: 2.08329 (Simulation time: 13 hr 12 min 7 sec) 
 Total Blocks : 196608 Invalid Blocks : 0 Valid Blocks : 196608
 Total Tags : 491520 Threshold : 12288 Invalid Tags : 196608 Pr0 Tags : 98304 Pr1 Tags : 196608 num_pr0 : 12288
 SAE Count : 0
 Inter-Core Inteference in Data Store : 5400345
Heartbeat CPU 6 instructions: 110000000 cycles: 52801004 heartbeat IPC: 1.94223 cumulative IPC: 2.08329 (Simulation time: 13 hr 12 min 7 sec) 
 Total Blocks : 196608 Invalid Blocks : 0 Valid Blocks : 196608
 Total Tags : 491520 Threshold : 12288 Invalid Tags : 196609 Pr0 Tags : 98303 Pr1 Tags : 196608 num_pr0 : 12288
 SAE Count : 0
 Inter-Core Inteference in Data Store : 5400346
Heartbeat CPU 5 instructions: 110000000 cycles: 52801111 heartbeat IPC: 1.94223 cumulative IPC: 2.08329 (Simulation time: 13 hr 12 min 7 sec) 
 Total Blocks : 196608 Invalid Blocks : 0 Valid Blocks : 196608
 Total Tags : 491520 Threshold : 12288 Invalid Tags : 196609 Pr0 Tags : 98303 Pr1 Tags : 196608 num_pr0 : 12287
 SAE Count : 0
 Inter-Core Inteference in Data Store : 5400359
Heartbeat CPU 4 instructions: 110000000 cycles: 52801228 heartbeat IPC: 1.94222 cumulative IPC: 2.08328 (Simulation time: 13 hr 12 min 7 sec) 
 Total Blocks : 196608 Invalid Blocks : 0 Valid Blocks : 196608
 Total Tags : 491520 Threshold : 12288 Invalid Tags : 196610 Pr0 Tags : 98302 Pr1 Tags : 196608 num_pr0 : 12287
 SAE Count : 0
 Inter-Core Inteference in Data Store : 5400372
Heartbeat CPU 2 instructions: 120000002 cycles: 57221921 heartbeat IPC: 2.26183 cumulative IPC: 2.0971 (Simulation time: 15 hr 42 min 40 sec) 
 Total Blocks : 196608 Invalid Blocks : 0 Valid Blocks : 196608
 Total Tags : 491520 Threshold : 12288 Invalid Tags : 196608 Pr0 Tags : 98304 Pr1 Tags : 196608 num_pr0 : 12288
 SAE Count : 0
 Inter-Core Inteference in Data Store : 6274023
Heartbeat CPU 1 instructions: 120000002 cycles: 57222044 heartbeat IPC: 2.26183 cumulative IPC: 2.09709 (Simulation time: 15 hr 42 min 40 sec) 
 Total Blocks : 196608 Invalid Blocks : 0 Valid Blocks : 196608
 Total Tags : 491520 Threshold : 12288 Invalid Tags : 196610 Pr0 Tags : 98302 Pr1 Tags : 196608 num_pr0 : 12288
 SAE Count : 0
 Inter-Core Inteference in Data Store : 6274057
Heartbeat CPU 3 instructions: 120000002 cycles: 57222065 heartbeat IPC: 2.26186 cumulative IPC: 2.09709 (Simulation time: 15 hr 42 min 41 sec) 
 Total Blocks : 196608 Invalid Blocks : 0 Valid Blocks : 196608
 Total Tags : 491520 Threshold : 12288 Invalid Tags : 196610 Pr0 Tags : 98302 Pr1 Tags : 196608 num_pr0 : 12288
 SAE Count : 0
 Inter-Core Inteference in Data Store : 6274061
Heartbeat CPU 0 instructions: 120000002 cycles: 57222098 heartbeat IPC: 2.2618 cumulative IPC: 2.09709 (Simulation time: 15 hr 42 min 41 sec) 
 Total Blocks : 196608 Invalid Blocks : 0 Valid Blocks : 196608
 Total Tags : 491520 Threshold : 12288 Invalid Tags : 196612 Pr0 Tags : 98300 Pr1 Tags : 196608 num_pr0 : 12287
 SAE Count : 0
 Inter-Core Inteference in Data Store : 6274070
Heartbeat CPU 7 instructions: 120000002 cycles: 57222205 heartbeat IPC: 2.26183 cumulative IPC: 2.09709 (Simulation time: 15 hr 42 min 41 sec) 
 Total Blocks : 196608 Invalid Blocks : 0 Valid Blocks : 196608
 Total Tags : 491520 Threshold : 12288 Invalid Tags : 196614 Pr0 Tags : 98298 Pr1 Tags : 196608 num_pr0 : 12288
 SAE Count : 0
 Inter-Core Inteference in Data Store : 6274095
Heartbeat CPU 6 instructions: 120000002 cycles: 57222247 heartbeat IPC: 2.26181 cumulative IPC: 2.09709 (Simulation time: 15 hr 42 min 41 sec) 
 Total Blocks : 196608 Invalid Blocks : 0 Valid Blocks : 196608
 Total Tags : 491520 Threshold : 12288 Invalid Tags : 196610 Pr0 Tags : 98302 Pr1 Tags : 196608 num_pr0 : 12288
 SAE Count : 0
 Inter-Core Inteference in Data Store : 6274101
Heartbeat CPU 5 instructions: 120000002 cycles: 57222409 heartbeat IPC: 2.26178 cumulative IPC: 2.09708 (Simulation time: 15 hr 42 min 41 sec) 
 Total Blocks : 196608 Invalid Blocks : 0 Valid Blocks : 196608
 Total Tags : 491520 Threshold : 12288 Invalid Tags : 196612 Pr0 Tags : 98300 Pr1 Tags : 196608 num_pr0 : 12288
 SAE Count : 0
 Inter-Core Inteference in Data Store : 6274145
Heartbeat CPU 4 instructions: 120000002 cycles: 57222410 heartbeat IPC: 2.26184 cumulative IPC: 2.09708 (Simulation time: 15 hr 42 min 41 sec) 
 Total Blocks : 196608 Invalid Blocks : 0 Valid Blocks : 196608
 Total Tags : 491520 Threshold : 12288 Invalid Tags : 196612 Pr0 Tags : 98300 Pr1 Tags : 196608 num_pr0 : 12288
 SAE Count : 0
 Inter-Core Inteference in Data Store : 6274145
Heartbeat CPU 2 instructions: 130000000 cycles: 62305021 heartbeat IPC: 1.9673 cumulative IPC: 2.08651 (Simulation time: 16 hr 26 min 56 sec) 
 Total Blocks : 196608 Invalid Blocks : 0 Valid Blocks : 196608
 Total Tags : 491520 Threshold : 12288 Invalid Tags : 196608 Pr0 Tags : 98304 Pr1 Tags : 196608 num_pr0 : 12288
 SAE Count : 0
 Inter-Core Inteference in Data Store : 6701201
Heartbeat CPU 1 instructions: 130000000 cycles: 62305083 heartbeat IPC: 1.96733 cumulative IPC: 2.08651 (Simulation time: 16 hr 26 min 56 sec) 
 Total Blocks : 196608 Invalid Blocks : 0 Valid Blocks : 196608
 Total Tags : 491520 Threshold : 12288 Invalid Tags : 196608 Pr0 Tags : 98304 Pr1 Tags : 196608 num_pr0 : 12288
 SAE Count : 0
 Inter-Core Inteference in Data Store : 6701204
Heartbeat CPU 3 instructions: 130000000 cycles: 62305094 heartbeat IPC: 1.96733 cumulative IPC: 2.08651 (Simulation time: 16 hr 26 min 56 sec) 
 Total Blocks : 196608 Invalid Blocks : 0 Valid Blocks : 196608
 Total Tags : 491520 Threshold : 12288 Invalid Tags : 196608 Pr0 Tags : 98304 Pr1 Tags : 196608 num_pr0 : 12288
 SAE Count : 0
 Inter-Core Inteference in Data Store : 6701204
Heartbeat CPU 0 instructions: 130000000 cycles: 62305147 heartbeat IPC: 1.96732 cumulative IPC: 2.0865 (Simulation time: 16 hr 26 min 56 sec) 
 Total Blocks : 196608 Invalid Blocks : 0 Valid Blocks : 196608
 Total Tags : 491520 Threshold : 12288 Invalid Tags : 196608 Pr0 Tags : 98304 Pr1 Tags : 196608 num_pr0 : 12288
 SAE Count : 0
 Inter-Core Inteference in Data Store : 6701205
Heartbeat CPU 7 instructions: 130000000 cycles: 62305232 heartbeat IPC: 1.96733 cumulative IPC: 2.0865 (Simulation time: 16 hr 26 min 56 sec) 
 Total Blocks : 196608 Invalid Blocks : 0 Valid Blocks : 196608
 Total Tags : 491520 Threshold : 12288 Invalid Tags : 196608 Pr0 Tags : 98304 Pr1 Tags : 196608 num_pr0 : 12288
 SAE Count : 0
 Inter-Core Inteference in Data Store : 6701208
Heartbeat CPU 6 instructions: 130000000 cycles: 62305313 heartbeat IPC: 1.96732 cumulative IPC: 2.0865 (Simulation time: 16 hr 26 min 56 sec) 
 Total Blocks : 196608 Invalid Blocks : 0 Valid Blocks : 196608
 Total Tags : 491520 Threshold : 12288 Invalid Tags : 196608 Pr0 Tags : 98304 Pr1 Tags : 196608 num_pr0 : 12288
 SAE Count : 0
 Inter-Core Inteference in Data Store : 6701210
Heartbeat CPU 4 instructions: 130000000 cycles: 62305472 heartbeat IPC: 1.96732 cumulative IPC: 2.08649 (Simulation time: 16 hr 26 min 56 sec) 
 Total Blocks : 196608 Invalid Blocks : 0 Valid Blocks : 196608
 Total Tags : 491520 Threshold : 12288 Invalid Tags : 196608 Pr0 Tags : 98304 Pr1 Tags : 196608 num_pr0 : 12288
 SAE Count : 0
 Inter-Core Inteference in Data Store : 6701214
Heartbeat CPU 5 instructions: 130000000 cycles: 62305489 heartbeat IPC: 1.96731 cumulative IPC: 2.08649 (Simulation time: 16 hr 26 min 56 sec) 
 Total Blocks : 196608 Invalid Blocks : 0 Valid Blocks : 196608
 Total Tags : 491520 Threshold : 12288 Invalid Tags : 196608 Pr0 Tags : 98304 Pr1 Tags : 196608 num_pr0 : 12288
 SAE Count : 0
 Inter-Core Inteference in Data Store : 6701214
Heartbeat CPU 2 instructions: 140000002 cycles: 67351116 heartbeat IPC: 1.98173 cumulative IPC: 2.07866 (Simulation time: 17 hr 30 min 5 sec) 
 Total Blocks : 196608 Invalid Blocks : 0 Valid Blocks : 196608
 Total Tags : 491520 Threshold : 12288 Invalid Tags : 196608 Pr0 Tags : 98304 Pr1 Tags : 196608 num_pr0 : 12288
 SAE Count : 0
 Inter-Core Inteference in Data Store : 7306588
Heartbeat CPU 1 instructions: 140000002 cycles: 67351215 heartbeat IPC: 1.98172 cumulative IPC: 2.07866 (Simulation time: 17 hr 30 min 5 sec) 
 Total Blocks : 196608 Invalid Blocks : 0 Valid Blocks : 196608
 Total Tags : 491520 Threshold : 12288 Invalid Tags : 196608 Pr0 Tags : 98304 Pr1 Tags : 196608 num_pr0 : 12288
 SAE Count : 0
 Inter-Core Inteference in Data Store : 7306593
Heartbeat CPU 3 instructions: 140000002 cycles: 67351248 heartbeat IPC: 1.98171 cumulative IPC: 2.07866 (Simulation time: 17 hr 30 min 5 sec) 
 Total Blocks : 196608 Invalid Blocks : 0 Valid Blocks : 196608
 Total Tags : 491520 Threshold : 12288 Invalid Tags : 196608 Pr0 Tags : 98304 Pr1 Tags : 196608 num_pr0 : 12288
 SAE Count : 0
 Inter-Core Inteference in Data Store : 7306593
Heartbeat CPU 0 instructions: 140000002 cycles: 67351296 heartbeat IPC: 1.98171 cumulative IPC: 2.07865 (Simulation time: 17 hr 30 min 5 sec) 
 Total Blocks : 196608 Invalid Blocks : 0 Valid Blocks : 196608
 Total Tags : 491520 Threshold : 12288 Invalid Tags : 196608 Pr0 Tags : 98304 Pr1 Tags : 196608 num_pr0 : 12288
 SAE Count : 0
 Inter-Core Inteference in Data Store : 7306597
Heartbeat CPU 7 instructions: 140000002 cycles: 67351467 heartbeat IPC: 1.98168 cumulative IPC: 2.07865 (Simulation time: 17 hr 30 min 5 sec) 
 Total Blocks : 196608 Invalid Blocks : 0 Valid Blocks : 196608
 Total Tags : 491520 Threshold : 12288 Invalid Tags : 196608 Pr0 Tags : 98304 Pr1 Tags : 196608 num_pr0 : 12288
 SAE Count : 0
 Inter-Core Inteference in Data Store : 7306603
Heartbeat CPU 6 instructions: 140000002 cycles: 67351574 heartbeat IPC: 1.98167 cumulative IPC: 2.07864 (Simulation time: 17 hr 30 min 5 sec) 
 Total Blocks : 196608 Invalid Blocks : 0 Valid Blocks : 196608
 Total Tags : 491520 Threshold : 12288 Invalid Tags : 196608 Pr0 Tags : 98304 Pr1 Tags : 196608 num_pr0 : 12288
 SAE Count : 0
 Inter-Core Inteference in Data Store : 7306605
Heartbeat CPU 4 instructions: 140000002 cycles: 67351598 heartbeat IPC: 1.98172 cumulative IPC: 2.07864 (Simulation time: 17 hr 30 min 5 sec) 
 Total Blocks : 196608 Invalid Blocks : 0 Valid Blocks : 196608
 Total Tags : 491520 Threshold : 12288 Invalid Tags : 196608 Pr0 Tags : 98304 Pr1 Tags : 196608 num_pr0 : 12288
 SAE Count : 0
 Inter-Core Inteference in Data Store : 7306605
Heartbeat CPU 5 instructions: 140000002 cycles: 67351601 heartbeat IPC: 1.98172 cumulative IPC: 2.07864 (Simulation time: 17 hr 30 min 5 sec) 
 Total Blocks : 196608 Invalid Blocks : 0 Valid Blocks : 196608
 Total Tags : 491520 Threshold : 12288 Invalid Tags : 196608 Pr0 Tags : 98304 Pr1 Tags : 196608 num_pr0 : 12288
 SAE Count : 0
 Inter-Core Inteference in Data Store : 7306606
Heartbeat CPU 2 instructions: 150000003 cycles: 72295843 heartbeat IPC: 2.02236 cumulative IPC: 2.07481 (Simulation time: 17 hr 57 min 21 sec) 
 Total Blocks : 196608 Invalid Blocks : 0 Valid Blocks : 196608
 Total Tags : 491520 Threshold : 12288 Invalid Tags : 196609 Pr0 Tags : 98303 Pr1 Tags : 196608 num_pr0 : 12288
 SAE Count : 0
 Inter-Core Inteference in Data Store : 7903470
Heartbeat CPU 1 instructions: 150000003 cycles: 72295909 heartbeat IPC: 2.02237 cumulative IPC: 2.07481 (Simulation time: 17 hr 57 min 22 sec) 
 Total Blocks : 196608 Invalid Blocks : 0 Valid Blocks : 196608
 Total Tags : 491520 Threshold : 12288 Invalid Tags : 196608 Pr0 Tags : 98304 Pr1 Tags : 196608 num_pr0 : 12288
 SAE Count : 0
 Inter-Core Inteference in Data Store : 7903471
Heartbeat CPU 0 instructions: 150000003 cycles: 72296022 heartbeat IPC: 2.02236 cumulative IPC: 2.0748 (Simulation time: 17 hr 57 min 22 sec) 
 Total Blocks : 196608 Invalid Blocks : 0 Valid Blocks : 196608
 Total Tags : 491520 Threshold : 12288 Invalid Tags : 196608 Pr0 Tags : 98304 Pr1 Tags : 196608 num_pr0 : 12288
 SAE Count : 0
 Inter-Core Inteference in Data Store : 7903474
Heartbeat CPU 3 instructions: 150000003 cycles: 72296030 heartbeat IPC: 2.02233 cumulative IPC: 2.0748 (Simulation time: 17 hr 57 min 22 sec) 
 Total Blocks : 196608 Invalid Blocks : 0 Valid Blocks : 196608
 Total Tags : 491520 Threshold : 12288 Invalid Tags : 196608 Pr0 Tags : 98304 Pr1 Tags : 196608 num_pr0 : 12288
 SAE Count : 0
 Inter-Core Inteference in Data Store : 7903474
Heartbeat CPU 7 instructions: 150000003 cycles: 72296182 heartbeat IPC: 2.02236 cumulative IPC: 2.0748 (Simulation time: 17 hr 57 min 22 sec) 
 Total Blocks : 196608 Invalid Blocks : 0 Valid Blocks : 196608
 Total Tags : 491520 Threshold : 12288 Invalid Tags : 196609 Pr0 Tags : 98303 Pr1 Tags : 196608 num_pr0 : 12288
 SAE Count : 0
 Inter-Core Inteference in Data Store : 7903478
Heartbeat CPU 4 instructions: 150000003 cycles: 72296257 heartbeat IPC: 2.02238 cumulative IPC: 2.0748 (Simulation time: 17 hr 57 min 22 sec) 
 Total Blocks : 196608 Invalid Blocks : 0 Valid Blocks : 196608
 Total Tags : 491520 Threshold : 12288 Invalid Tags : 196609 Pr0 Tags : 98303 Pr1 Tags : 196608 num_pr0 : 12288
 SAE Count : 0
 Inter-Core Inteference in Data Store : 7903480
Heartbeat CPU 5 instructions: 150000003 cycles: 72296264 heartbeat IPC: 2.02238 cumulative IPC: 2.0748 (Simulation time: 17 hr 57 min 22 sec) 
 Total Blocks : 196608 Invalid Blocks : 0 Valid Blocks : 196608
 Total Tags : 491520 Threshold : 12288 Invalid Tags : 196609 Pr0 Tags : 98303 Pr1 Tags : 196608 num_pr0 : 12288
 SAE Count : 0
 Inter-Core Inteference in Data Store : 7903480
Heartbeat CPU 6 instructions: 150000003 cycles: 72296375 heartbeat IPC: 2.02233 cumulative IPC: 2.07479 (Simulation time: 17 hr 57 min 22 sec) 
 Total Blocks : 196608 Invalid Blocks : 0 Valid Blocks : 196608
 Total Tags : 491520 Threshold : 12288 Invalid Tags : 196608 Pr0 Tags : 98304 Pr1 Tags : 196608 num_pr0 : 12288
 SAE Count : 0
 Inter-Core Inteference in Data Store : 7903481
Heartbeat CPU 2 instructions: 160000001 cycles: 77237676 heartbeat IPC: 2.02354 cumulative IPC: 2.07153 (Simulation time: 18 hr 23 min 38 sec) 
 Total Blocks : 196608 Invalid Blocks : 0 Valid Blocks : 196608
 Total Tags : 491520 Threshold : 12288 Invalid Tags : 196611 Pr0 Tags : 98301 Pr1 Tags : 196608 num_pr0 : 12288
 SAE Count : 0
 Inter-Core Inteference in Data Store : 8217317
Heartbeat CPU 1 instructions: 160000001 cycles: 77237775 heartbeat IPC: 2.02353 cumulative IPC: 2.07153 (Simulation time: 18 hr 23 min 38 sec) 
 Total Blocks : 196608 Invalid Blocks : 0 Valid Blocks : 196608
 Total Tags : 491520 Threshold : 12288 Invalid Tags : 196611 Pr0 Tags : 98301 Pr1 Tags : 196608 num_pr0 : 12288
 SAE Count : 0
 Inter-Core Inteference in Data Store : 8217335
Heartbeat CPU 3 instructions: 160000001 cycles: 77237879 heartbeat IPC: 2.02353 cumulative IPC: 2.07152 (Simulation time: 18 hr 23 min 38 sec) 
 Total Blocks : 196608 Invalid Blocks : 0 Valid Blocks : 196608
 Total Tags : 491520 Threshold : 12288 Invalid Tags : 196608 Pr0 Tags : 98304 Pr1 Tags : 196608 num_pr0 : 12288
 SAE Count : 0
 Inter-Core Inteference in Data Store : 8217351
Heartbeat CPU 0 instructions: 160000001 cycles: 77237906 heartbeat IPC: 2.02352 cumulative IPC: 2.07152 (Simulation time: 18 hr 23 min 38 sec) 
 Total Blocks : 196608 Invalid Blocks : 0 Valid Blocks : 196608
 Total Tags : 491520 Threshold : 12288 Invalid Tags : 196609 Pr0 Tags : 98303 Pr1 Tags : 196608 num_pr0 : 12287
 SAE Count : 0
 Inter-Core Inteference in Data Store : 8217356
Heartbeat CPU 7 instructions: 160000001 cycles: 77238020 heartbeat IPC: 2.02354 cumulative IPC: 2.07152 (Simulation time: 18 hr 23 min 38 sec) 
 Total Blocks : 196608 Invalid Blocks : 0 Valid Blocks : 196608
 Total Tags : 491520 Threshold : 12288 Invalid Tags : 196610 Pr0 Tags : 98302 Pr1 Tags : 196608 num_pr0 : 12287
 SAE Count : 0
 Inter-Core Inteference in Data Store : 8217376
Heartbeat CPU 4 instructions: 160000001 cycles: 77238135 heartbeat IPC: 2.02352 cumulative IPC: 2.07152 (Simulation time: 18 hr 23 min 38 sec) 
 Total Blocks : 196608 Invalid Blocks : 0 Valid Blocks : 196608
 Total Tags : 491520 Threshold : 12288 Invalid Tags : 196610 Pr0 Tags : 98302 Pr1 Tags : 196608 num_pr0 : 12288
 SAE Count : 0
 Inter-Core Inteference in Data Store : 8217394
Heartbeat CPU 5 instructions: 160000001 cycles: 77238140 heartbeat IPC: 2.02352 cumulative IPC: 2.07152 (Simulation time: 18 hr 23 min 38 sec) 
 Total Blocks : 196608 Invalid Blocks : 0 Valid Blocks : 196608
 Total Tags : 491520 Threshold : 12288 Invalid Tags : 196609 Pr0 Tags : 98303 Pr1 Tags : 196608 num_pr0 : 12288
 SAE Count : 0
 Inter-Core Inteference in Data Store : 8217394
Heartbeat CPU 6 instructions: 160000001 cycles: 77238222 heartbeat IPC: 2.02353 cumulative IPC: 2.07151 (Simulation time: 18 hr 23 min 38 sec) 
 Total Blocks : 196608 Invalid Blocks : 0 Valid Blocks : 196608
 Total Tags : 491520 Threshold : 12288 Invalid Tags : 196608 Pr0 Tags : 98304 Pr1 Tags : 196608 num_pr0 : 12288
 SAE Count : 0
 Inter-Core Inteference in Data Store : 8217410
FILL
Heartbeat CPU 2 instructions: 170000002 cycles: 81861593 heartbeat IPC: 2.16267 cumulative IPC: 2.07668 (Simulation time: 18 hr 44 min 6 sec) 
 Total Blocks : 196608 Invalid Blocks : 0 Valid Blocks : 196608
 Total Tags : 491520 Threshold : 12288 Invalid Tags : 196608 Pr0 Tags : 98304 Pr1 Tags : 196608 num_pr0 : 12288
 SAE Count : 0
 Inter-Core Inteference in Data Store : 8694390
Heartbeat CPU 1 instructions: 170000002 cycles: 81861635 heartbeat IPC: 2.1627 cumulative IPC: 2.07667 (Simulation time: 18 hr 44 min 6 sec) 
 Total Blocks : 196608 Invalid Blocks : 0 Valid Blocks : 196608
 Total Tags : 491520 Threshold : 12288 Invalid Tags : 196609 Pr0 Tags : 98303 Pr1 Tags : 196608 num_pr0 : 12288
 SAE Count : 0
 Inter-Core Inteference in Data Store : 8694394
Heartbeat CPU 3 instructions: 170000002 cycles: 81861763 heartbeat IPC: 2.16268 cumulative IPC: 2.07667 (Simulation time: 18 hr 44 min 6 sec) 
 Total Blocks : 196608 Invalid Blocks : 0 Valid Blocks : 196608
 Total Tags : 491520 Threshold : 12288 Invalid Tags : 196610 Pr0 Tags : 98302 Pr1 Tags : 196608 num_pr0 : 12288
 SAE Count : 0
 Inter-Core Inteference in Data Store : 8694397
Heartbeat CPU 0 instructions: 170000002 cycles: 81861790 heartbeat IPC: 2.16268 cumulative IPC: 2.07667 (Simulation time: 18 hr 44 min 7 sec) 
 Total Blocks : 196608 Invalid Blocks : 0 Valid Blocks : 196608
 Total Tags : 491520 Threshold : 12288 Invalid Tags : 196608 Pr0 Tags : 98304 Pr1 Tags : 196608 num_pr0 : 12288
 SAE Count : 0
 Inter-Core Inteference in Data Store : 8694397
Heartbeat CPU 5 instructions: 170000002 cycles: 81861901 heartbeat IPC: 2.16274 cumulative IPC: 2.07667 (Simulation time: 18 hr 44 min 7 sec) 
 Total Blocks : 196608 Invalid Blocks : 0 Valid Blocks : 196608
 Total Tags : 491520 Threshold : 12288 Invalid Tags : 196608 Pr0 Tags : 98304 Pr1 Tags : 196608 num_pr0 : 12288
 SAE Count : 0
 Inter-Core Inteference in Data Store : 8694400
Heartbeat CPU 7 instructions: 170000002 cycles: 81861934 heartbeat IPC: 2.16267 cumulative IPC: 2.07667 (Simulation time: 18 hr 44 min 7 sec) 
 Total Blocks : 196608 Invalid Blocks : 0 Valid Blocks : 196608
 Total Tags : 491520 Threshold : 12288 Invalid Tags : 196610 Pr0 Tags : 98302 Pr1 Tags : 196608 num_pr0 : 12288
 SAE Count : 0
 Inter-Core Inteference in Data Store : 8694403
Heartbeat CPU 4 instructions: 170000002 cycles: 81861955 heartbeat IPC: 2.16271 cumulative IPC: 2.07667 (Simulation time: 18 hr 44 min 7 sec) 
 Total Blocks : 196608 Invalid Blocks : 0 Valid Blocks : 196608
 Total Tags : 491520 Threshold : 12288 Invalid Tags : 196609 Pr0 Tags : 98303 Pr1 Tags : 196608 num_pr0 : 12288
 SAE Count : 0
 Inter-Core Inteference in Data Store : 8694403
Heartbeat CPU 6 instructions: 170000002 cycles: 81862085 heartbeat IPC: 2.16269 cumulative IPC: 2.07666 (Simulation time: 18 hr 44 min 7 sec) 
 Total Blocks : 196608 Invalid Blocks : 0 Valid Blocks : 196608
 Total Tags : 491520 Threshold : 12288 Invalid Tags : 196608 Pr0 Tags : 98304 Pr1 Tags : 196608 num_pr0 : 12288
 SAE Count : 0
 Inter-Core Inteference in Data Store : 8694406
FILL
Heartbeat CPU 1 instructions: 180000002 cycles: 86244988 heartbeat IPC: 2.28136 cumulative IPC: 2.08708 (Simulation time: 19 hr 0 min 47 sec) 
 Total Blocks : 196608 Invalid Blocks : 0 Valid Blocks : 196608
 Total Tags : 491520 Threshold : 12288 Invalid Tags : 196609 Pr0 Tags : 98303 Pr1 Tags : 196608 num_pr0 : 12287
 SAE Count : 0
 Inter-Core Inteference in Data Store : 8949168
Heartbeat CPU 2 instructions: 180000002 cycles: 86245094 heartbeat IPC: 2.28128 cumulative IPC: 2.08708 (Simulation time: 19 hr 0 min 47 sec) 
 Total Blocks : 196608 Invalid Blocks : 0 Valid Blocks : 196608
 Total Tags : 491520 Threshold : 12288 Invalid Tags : 196610 Pr0 Tags : 98302 Pr1 Tags : 196608 num_pr0 : 12288
 SAE Count : 0
 Inter-Core Inteference in Data Store : 8949182
Heartbeat CPU 5 instructions: 180000002 cycles: 86245173 heartbeat IPC: 2.2814 cumulative IPC: 2.08707 (Simulation time: 19 hr 0 min 47 sec) 
 Total Blocks : 196608 Invalid Blocks : 0 Valid Blocks : 196608
 Total Tags : 491520 Threshold : 12288 Invalid Tags : 196610 Pr0 Tags : 98302 Pr1 Tags : 196608 num_pr0 : 12288
 SAE Count : 0
 Inter-Core Inteference in Data Store : 8949197
Heartbeat CPU 0 instructions: 180000002 cycles: 86245176 heartbeat IPC: 2.28134 cumulative IPC: 2.08707 (Simulation time: 19 hr 0 min 47 sec) 
 Total Blocks : 196608 Invalid Blocks : 0 Valid Blocks : 196608
 Total Tags : 491520 Threshold : 12288 Invalid Tags : 196610 Pr0 Tags : 98302 Pr1 Tags : 196608 num_pr0 : 12288
 SAE Count : 0
 Inter-Core Inteference in Data Store : 8949197
Heartbeat CPU 7 instructions: 180000002 cycles: 86245266 heartbeat IPC: 2.28137 cumulative IPC: 2.08707 (Simulation time: 19 hr 0 min 47 sec) 
 Total Blocks : 196608 Invalid Blocks : 0 Valid Blocks : 196608
 Total Tags : 491520 Threshold : 12288 Invalid Tags : 196609 Pr0 Tags : 98303 Pr1 Tags : 196608 num_pr0 : 12288
 SAE Count : 0
 Inter-Core Inteference in Data Store : 8949211
Heartbeat CPU 3 instructions: 180000002 cycles: 86245292 heartbeat IPC: 2.28127 cumulative IPC: 2.08707 (Simulation time: 19 hr 0 min 48 sec) 
 Total Blocks : 196608 Invalid Blocks : 0 Valid Blocks : 196608
 Total Tags : 491520 Threshold : 12288 Invalid Tags : 196608 Pr0 Tags : 98304 Pr1 Tags : 196608 num_pr0 : 12288
 SAE Count : 0
 Inter-Core Inteference in Data Store : 8949212
Heartbeat CPU 4 instructions: 180000002 cycles: 86245417 heartbeat IPC: 2.2813 cumulative IPC: 2.08707 (Simulation time: 19 hr 0 min 48 sec) 
 Total Blocks : 196608 Invalid Blocks : 0 Valid Blocks : 196608
 Total Tags : 491520 Threshold : 12288 Invalid Tags : 196609 Pr0 Tags : 98303 Pr1 Tags : 196608 num_pr0 : 12287
 SAE Count : 0
 Inter-Core Inteference in Data Store : 8949232
Heartbeat CPU 6 instructions: 180000002 cycles: 86245459 heartbeat IPC: 2.28135 cumulative IPC: 2.08707 (Simulation time: 19 hr 0 min 48 sec) 
 Total Blocks : 196608 Invalid Blocks : 0 Valid Blocks : 196608
 Total Tags : 491520 Threshold : 12288 Invalid Tags : 196609 Pr0 Tags : 98303 Pr1 Tags : 196608 num_pr0 : 12288
 SAE Count : 0
 Inter-Core Inteference in Data Store : 8949239
Heartbeat CPU 1 instructions: 190000001 cycles: 91400243 heartbeat IPC: 1.93977 cumulative IPC: 2.07877 (Simulation time: 20 hr 30 min 58 sec) 
 Total Blocks : 196608 Invalid Blocks : 0 Valid Blocks : 196608
 Total Tags : 491520 Threshold : 12288 Invalid Tags : 196609 Pr0 Tags : 98303 Pr1 Tags : 196608 num_pr0 : 12287
 SAE Count : 0
 Inter-Core Inteference in Data Store : 9615656
Heartbeat CPU 2 instructions: 190000001 cycles: 91400334 heartbeat IPC: 1.93977 cumulative IPC: 2.07877 (Simulation time: 20 hr 30 min 59 sec) 
 Total Blocks : 196608 Invalid Blocks : 0 Valid Blocks : 196608
 Total Tags : 491520 Threshold : 12288 Invalid Tags : 196608 Pr0 Tags : 98304 Pr1 Tags : 196608 num_pr0 : 12288
 SAE Count : 0
 Inter-Core Inteference in Data Store : 9615665
Heartbeat CPU 0 instructions: 190000001 cycles: 91400419 heartbeat IPC: 1.93977 cumulative IPC: 2.07877 (Simulation time: 20 hr 30 min 59 sec) 
 Total Blocks : 196608 Invalid Blocks : 0 Valid Blocks : 196608
 Total Tags : 491520 Threshold : 12288 Invalid Tags : 196609 Pr0 Tags : 98303 Pr1 Tags : 196608 num_pr0 : 12288
 SAE Count : 0
 Inter-Core Inteference in Data Store : 9615676
Heartbeat CPU 5 instructions: 190000001 cycles: 91400505 heartbeat IPC: 1.93974 cumulative IPC: 2.07876 (Simulation time: 20 hr 30 min 59 sec) 
 Total Blocks : 196608 Invalid Blocks : 0 Valid Blocks : 196608
 Total Tags : 491520 Threshold : 12288 Invalid Tags : 196610 Pr0 Tags : 98302 Pr1 Tags : 196608 num_pr0 : 12288
 SAE Count : 0
 Inter-Core Inteference in Data Store : 9615689
Heartbeat CPU 7 instructions: 190000001 cycles: 91400524 heartbeat IPC: 1.93977 cumulative IPC: 2.07876 (Simulation time: 20 hr 30 min 59 sec) 
 Total Blocks : 196608 Invalid Blocks : 0 Valid Blocks : 196608
 Total Tags : 491520 Threshold : 12288 Invalid Tags : 196609 Pr0 Tags : 98303 Pr1 Tags : 196608 num_pr0 : 12288
 SAE Count : 0
 Inter-Core Inteference in Data Store : 9615693
Heartbeat CPU 3 instructions: 190000001 cycles: 91400542 heartbeat IPC: 1.93977 cumulative IPC: 2.07876 (Simulation time: 20 hr 30 min 59 sec) 
 Total Blocks : 196608 Invalid Blocks : 0 Valid Blocks : 196608
 Total Tags : 491520 Threshold : 12288 Invalid Tags : 196609 Pr0 Tags : 98303 Pr1 Tags : 196608 num_pr0 : 12288
 SAE Count : 0
 Inter-Core Inteference in Data Store : 9615696
Heartbeat CPU 4 instructions: 190000001 cycles: 91400731 heartbeat IPC: 1.93975 cumulative IPC: 2.07876 (Simulation time: 20 hr 30 min 59 sec) 
 Total Blocks : 196608 Invalid Blocks : 0 Valid Blocks : 196608
 Total Tags : 491520 Threshold : 12288 Invalid Tags : 196611 Pr0 Tags : 98301 Pr1 Tags : 196608 num_pr0 : 12287
 SAE Count : 0
 Inter-Core Inteference in Data Store : 9615724
Heartbeat CPU 6 instructions: 190000001 cycles: 91400758 heartbeat IPC: 1.93975 cumulative IPC: 2.07876 (Simulation time: 20 hr 30 min 59 sec) 
 Total Blocks : 196608 Invalid Blocks : 0 Valid Blocks : 196608
 Total Tags : 491520 Threshold : 12288 Invalid Tags : 196609 Pr0 Tags : 98303 Pr1 Tags : 196608 num_pr0 : 12288
 SAE Count : 0
 Inter-Core Inteference in Data Store : 9615725
Heartbeat CPU 1 instructions: 200000000 cycles: 95844435 heartbeat IPC: 2.25013 cumulative IPC: 2.08671 (Simulation time: 22 hr 52 min 41 sec) 
 Total Blocks : 196608 Invalid Blocks : 0 Valid Blocks : 196608
 Total Tags : 491520 Threshold : 12288 Invalid Tags : 196611 Pr0 Tags : 98301 Pr1 Tags : 196608 num_pr0 : 12287
 SAE Count : 0
 Inter-Core Inteference in Data Store : 10476940
Heartbeat CPU 2 instructions: 200000000 cycles: 95844552 heartbeat IPC: 2.25011 cumulative IPC: 2.08671 (Simulation time: 22 hr 52 min 41 sec) 
 Total Blocks : 196608 Invalid Blocks : 0 Valid Blocks : 196608
 Total Tags : 491520 Threshold : 12288 Invalid Tags : 196613 Pr0 Tags : 98299 Pr1 Tags : 196608 num_pr0 : 12288
 SAE Count : 0
 Inter-Core Inteference in Data Store : 10476969
Heartbeat CPU 0 instructions: 200000000 cycles: 95844594 heartbeat IPC: 2.25014 cumulative IPC: 2.08671 (Simulation time: 22 hr 52 min 41 sec) 
 Total Blocks : 196608 Invalid Blocks : 0 Valid Blocks : 196608
 Total Tags : 491520 Threshold : 12288 Invalid Tags : 196612 Pr0 Tags : 98300 Pr1 Tags : 196608 num_pr0 : 12287
 SAE Count : 0
 Inter-Core Inteference in Data Store : 10476984
Heartbeat CPU 3 instructions: 200000000 cycles: 95844689 heartbeat IPC: 2.25015 cumulative IPC: 2.08671 (Simulation time: 22 hr 52 min 41 sec) 
 Total Blocks : 196608 Invalid Blocks : 0 Valid Blocks : 196608
 Total Tags : 491520 Threshold : 12288 Invalid Tags : 196610 Pr0 Tags : 98302 Pr1 Tags : 196608 num_pr0 : 12288
 SAE Count : 0
 Inter-Core Inteference in Data Store : 10477006
Heartbeat CPU 5 instructions: 200000000 cycles: 95844764 heartbeat IPC: 2.25009 cumulative IPC: 2.08671 (Simulation time: 22 hr 52 min 41 sec) 
 Total Blocks : 196608 Invalid Blocks : 0 Valid Blocks : 196608
 Total Tags : 491520 Threshold : 12288 Invalid Tags : 196610 Pr0 Tags : 98302 Pr1 Tags : 196608 num_pr0 : 12288
 SAE Count : 0
 Inter-Core Inteference in Data Store : 10477024
Heartbeat CPU 7 instructions: 200000000 cycles: 95844808 heartbeat IPC: 2.25008 cumulative IPC: 2.08671 (Simulation time: 22 hr 52 min 41 sec) 
 Total Blocks : 196608 Invalid Blocks : 0 Valid Blocks : 196608
 Total Tags : 491520 Threshold : 12288 Invalid Tags : 196611 Pr0 Tags : 98301 Pr1 Tags : 196608 num_pr0 : 12287
 SAE Count : 0
 Inter-Core Inteference in Data Store : 10477035
Heartbeat CPU 4 instructions: 200000000 cycles: 95844942 heartbeat IPC: 2.25012 cumulative IPC: 2.0867 (Simulation time: 22 hr 52 min 42 sec) 
 Total Blocks : 196608 Invalid Blocks : 0 Valid Blocks : 196608
 Total Tags : 491520 Threshold : 12288 Invalid Tags : 196611 Pr0 Tags : 98301 Pr1 Tags : 196608 num_pr0 : 12288
 SAE Count : 0
 Inter-Core Inteference in Data Store : 10477074
Heartbeat CPU 6 instructions: 200000000 cycles: 95844983 heartbeat IPC: 2.25011 cumulative IPC: 2.0867 (Simulation time: 22 hr 52 min 42 sec) 
 Total Blocks : 196608 Invalid Blocks : 0 Valid Blocks : 196608
 Total Tags : 491520 Threshold : 12288 Invalid Tags : 196609 Pr0 Tags : 98303 Pr1 Tags : 196608 num_pr0 : 12288
 SAE Count : 0
 Inter-Core Inteference in Data Store : 10477083

Warmup complete CPU 0 instructions: 200000778 cycles: 95844984 (Simulation time: 22 hr 52 min 42 sec) 
Warmup complete CPU 1 instructions: 200001133 cycles: 95844984 (Simulation time: 22 hr 52 min 42 sec) 
Warmup complete CPU 2 instructions: 200000865 cycles: 95844984 (Simulation time: 22 hr 52 min 42 sec) 
Warmup complete CPU 3 instructions: 200000591 cycles: 95844984 (Simulation time: 22 hr 52 min 42 sec) 
Warmup complete CPU 4 instructions: 200000067 cycles: 95844984 (Simulation time: 22 hr 52 min 42 sec) 
Warmup complete CPU 5 instructions: 200000436 cycles: 95844984 (Simulation time: 22 hr 52 min 42 sec) 
Warmup complete CPU 6 instructions: 200000004 cycles: 95844984 (Simulation time: 22 hr 52 min 42 sec) 
Warmup complete CPU 7 instructions: 200000417 cycles: 95844983 (Simulation time: 22 hr 52 min 42 sec) 

Heartbeat CPU 0 instructions: 210000002 cycles: 118098206 heartbeat IPC: 0.449365 cumulative IPC: 0.449338 (Simulation time: 23 hr 43 min 41 sec) 
 Total Blocks : 196608 Invalid Blocks : 0 Valid Blocks : 196608
 Total Tags : 491520 Threshold : 12288 Invalid Tags : 196611 Pr0 Tags : 98301 Pr1 Tags : 196608 num_pr0 : 12288
 SAE Count : 0
 Inter-Core Inteference in Data Store : 451263
Heartbeat CPU 2 instructions: 210000002 cycles: 118114924 heartbeat IPC: 0.449027 cumulative IPC: 0.448997 (Simulation time: 23 hr 43 min 43 sec) 
 Total Blocks : 196608 Invalid Blocks : 0 Valid Blocks : 196608
 Total Tags : 491520 Threshold : 12288 Invalid Tags : 196610 Pr0 Tags : 98302 Pr1 Tags : 196608 num_pr0 : 12288
 SAE Count : 0
 Inter-Core Inteference in Data Store : 451528
Heartbeat CPU 4 instructions: 210000002 cycles: 118120844 heartbeat IPC: 0.448916 cumulative IPC: 0.448914 (Simulation time: 23 hr 43 min 44 sec) 
 Total Blocks : 196608 Invalid Blocks : 0 Valid Blocks : 196608
 Total Tags : 491520 Threshold : 12288 Invalid Tags : 196613 Pr0 Tags : 98299 Pr1 Tags : 196608 num_pr0 : 12287
 SAE Count : 0
 Inter-Core Inteference in Data Store : 451618
Heartbeat CPU 6 instructions: 210000002 cycles: 118365545 heartbeat IPC: 0.444039 cumulative IPC: 0.444039 (Simulation time: 23 hr 44 min 7 sec) 
 Total Blocks : 196608 Invalid Blocks : 0 Valid Blocks : 196608
 Total Tags : 491520 Threshold : 12288 Invalid Tags : 196609 Pr0 Tags : 98303 Pr1 Tags : 196608 num_pr0 : 12287
 SAE Count : 0
 Inter-Core Inteference in Data Store : 455668
Heartbeat CPU 5 instructions: 210000002 cycles: 118432489 heartbeat IPC: 0.442718 cumulative IPC: 0.442703 (Simulation time: 23 hr 44 min 15 sec) 
 Total Blocks : 196608 Invalid Blocks : 0 Valid Blocks : 196608
 Total Tags : 491520 Threshold : 12288 Invalid Tags : 196611 Pr0 Tags : 98301 Pr1 Tags : 196608 num_pr0 : 12288
 SAE Count : 0
 Inter-Core Inteference in Data Store : 456803
Heartbeat CPU 7 instructions: 210000002 cycles: 118469595 heartbeat IPC: 0.441993 cumulative IPC: 0.441978 (Simulation time: 23 hr 44 min 18 sec) 
 Total Blocks : 196608 Invalid Blocks : 0 Valid Blocks : 196608
 Total Tags : 491520 Threshold : 12288 Invalid Tags : 196608 Pr0 Tags : 98304 Pr1 Tags : 196608 num_pr0 : 12288
 SAE Count : 0
 Inter-Core Inteference in Data Store : 457431
Heartbeat CPU 1 instructions: 210000002 cycles: 118530106 heartbeat IPC: 0.440807 cumulative IPC: 0.440768 (Simulation time: 23 hr 44 min 24 sec) 
 Total Blocks : 196608 Invalid Blocks : 0 Valid Blocks : 196608
 Total Tags : 491520 Threshold : 12288 Invalid Tags : 196610 Pr0 Tags : 98302 Pr1 Tags : 196608 num_pr0 : 12286
 SAE Count : 0
 Inter-Core Inteference in Data Store : 458426
Heartbeat CPU 3 instructions: 210000002 cycles: 118626568 heartbeat IPC: 0.438945 cumulative IPC: 0.438925 (Simulation time: 23 hr 44 min 34 sec) 
 Total Blocks : 196608 Invalid Blocks : 0 Valid Blocks : 196608
 Total Tags : 491520 Threshold : 12288 Invalid Tags : 196611 Pr0 Tags : 98301 Pr1 Tags : 196608 num_pr0 : 12288
 SAE Count : 0
 Inter-Core Inteference in Data Store : 459782
Heartbeat CPU 4 instructions: 220000000 cycles: 146770234 heartbeat IPC: 0.349048 cumulative IPC: 0.392731 (Simulation time: 24 hr 52 min 34 sec) 
 Total Blocks : 196608 Invalid Blocks : 0 Valid Blocks : 196608
 Total Tags : 491520 Threshold : 12288 Invalid Tags : 196610 Pr0 Tags : 98302 Pr1 Tags : 196608 num_pr0 : 12287
 SAE Count : 0
 Inter-Core Inteference in Data Store : 1055043
Heartbeat CPU 0 instructions: 220000000 cycles: 146818945 heartbeat IPC: 0.34818 cumulative IPC: 0.392342 (Simulation time: 24 hr 52 min 38 sec) 
 Total Blocks : 196608 Invalid Blocks : 0 Valid Blocks : 196608
 Total Tags : 491520 Threshold : 12288 Invalid Tags : 196609 Pr0 Tags : 98303 Pr1 Tags : 196608 num_pr0 : 12287
 SAE Count : 0
 Inter-Core Inteference in Data Store : 1055796
Heartbeat CPU 1 instructions: 220000000 cycles: 146830059 heartbeat IPC: 0.353357 cumulative IPC: 0.392249 (Simulation time: 24 hr 52 min 39 sec) 
 Total Blocks : 196608 Invalid Blocks : 0 Valid Blocks : 196608
 Total Tags : 491520 Threshold : 12288 Invalid Tags : 196610 Pr0 Tags : 98302 Pr1 Tags : 196608 num_pr0 : 12288
 SAE Count : 0
 Inter-Core Inteference in Data Store : 1055944
Heartbeat CPU 2 instructions: 220000000 cycles: 146937240 heartbeat IPC: 0.346953 cumulative IPC: 0.391432 (Simulation time: 24 hr 52 min 50 sec) 
 Total Blocks : 196608 Invalid Blocks : 0 Valid Blocks : 196608
 Total Tags : 491520 Threshold : 12288 Invalid Tags : 196609 Pr0 Tags : 98303 Pr1 Tags : 196608 num_pr0 : 12287
 SAE Count : 0
 Inter-Core Inteference in Data Store : 1057489
Heartbeat CPU 6 instructions: 220000000 cycles: 147028999 heartbeat IPC: 0.348876 cumulative IPC: 0.390747 (Simulation time: 24 hr 52 min 58 sec) 
 Total Blocks : 196608 Invalid Blocks : 0 Valid Blocks : 196608
 Total Tags : 491520 Threshold : 12288 Invalid Tags : 196609 Pr0 Tags : 98303 Pr1 Tags : 196608 num_pr0 : 12288
 SAE Count : 0
 Inter-Core Inteference in Data Store : 1058781
Heartbeat CPU 5 instructions: 220000000 cycles: 147380952 heartbeat IPC: 0.345441 cumulative IPC: 0.38807 (Simulation time: 24 hr 53 min 32 sec) 
 Total Blocks : 196608 Invalid Blocks : 0 Valid Blocks : 196608
 Total Tags : 491520 Threshold : 12288 Invalid Tags : 196610 Pr0 Tags : 98302 Pr1 Tags : 196608 num_pr0 : 12288
 SAE Count : 0
 Inter-Core Inteference in Data Store : 1063502
Heartbeat CPU 7 instructions: 220000000 cycles: 147443646 heartbeat IPC: 0.345136 cumulative IPC: 0.387599 (Simulation time: 24 hr 53 min 38 sec) 
 Total Blocks : 196608 Invalid Blocks : 0 Valid Blocks : 196608
 Total Tags : 491520 Threshold : 12288 Invalid Tags : 196608 Pr0 Tags : 98304 Pr1 Tags : 196608 num_pr0 : 12288
 SAE Count : 0
 Inter-Core Inteference in Data Store : 1064178
Heartbeat CPU 3 instructions: 220000000 cycles: 147809182 heartbeat IPC: 0.34267 cumulative IPC: 0.384869 (Simulation time: 24 hr 54 min 11 sec) 
 Total Blocks : 196608 Invalid Blocks : 0 Valid Blocks : 196608
 Total Tags : 491520 Threshold : 12288 Invalid Tags : 196610 Pr0 Tags : 98302 Pr1 Tags : 196608 num_pr0 : 12288
 SAE Count : 0
 Inter-Core Inteference in Data Store : 1068732
Heartbeat CPU 1 instructions: 230000001 cycles: 175022469 heartbeat IPC: 0.354705 cumulative IPC: 0.378881 (Simulation time: 25 hr 25 min 40 sec) 
 Total Blocks : 196608 Invalid Blocks : 0 Valid Blocks : 196608
 Total Tags : 491520 Threshold : 12288 Invalid Tags : 196611 Pr0 Tags : 98301 Pr1 Tags : 196608 num_pr0 : 12286
 SAE Count : 0
 Inter-Core Inteference in Data Store : 1633996
Heartbeat CPU 2 instructions: 230000001 cycles: 175078095 heartbeat IPC: 0.355355 cumulative IPC: 0.378619 (Simulation time: 25 hr 25 min 44 sec) 
 Total Blocks : 196608 Invalid Blocks : 0 Valid Blocks : 196608
 Total Tags : 491520 Threshold : 12288 Invalid Tags : 196611 Pr0 Tags : 98301 Pr1 Tags : 196608 num_pr0 : 12287
 SAE Count : 0
 Inter-Core Inteference in Data Store : 1635462
Heartbeat CPU 4 instructions: 230000001 cycles: 175226590 heartbeat IPC: 0.351415 cumulative IPC: 0.37792 (Simulation time: 25 hr 25 min 57 sec) 
 Total Blocks : 196608 Invalid Blocks : 0 Valid Blocks : 196608
 Total Tags : 491520 Threshold : 12288 Invalid Tags : 196609 Pr0 Tags : 98303 Pr1 Tags : 196608 num_pr0 : 12288
 SAE Count : 0
 Inter-Core Inteference in Data Store : 1638942
Heartbeat CPU 0 instructions: 230000001 cycles: 175260679 heartbeat IPC: 0.351596 cumulative IPC: 0.377749 (Simulation time: 25 hr 25 min 59 sec) 
 Total Blocks : 196608 Invalid Blocks : 0 Valid Blocks : 196608
 Total Tags : 491520 Threshold : 12288 Invalid Tags : 196612 Pr0 Tags : 98300 Pr1 Tags : 196608 num_pr0 : 12288
 SAE Count : 0
 Inter-Core Inteference in Data Store : 1639747
Heartbeat CPU 6 instructions: 230000001 cycles: 175860332 heartbeat IPC: 0.346845 cumulative IPC: 0.374928 (Simulation time: 25 hr 26 min 47 sec) 
 Total Blocks : 196608 Invalid Blocks : 0 Valid Blocks : 196608
 Total Tags : 491520 Threshold : 12288 Invalid Tags : 196611 Pr0 Tags : 98301 Pr1 Tags : 196608 num_pr0 : 12288
 SAE Count : 0
 Inter-Core Inteference in Data Store : 1652135
Heartbeat CPU 5 instructions: 230000003 cycles: 176115423 heartbeat IPC: 0.348014 cumulative IPC: 0.373731 (Simulation time: 25 hr 27 min 14 sec) 
 Total Blocks : 196608 Invalid Blocks : 0 Valid Blocks : 196608
 Total Tags : 491520 Threshold : 12288 Invalid Tags : 196609 Pr0 Tags : 98303 Pr1 Tags : 196608 num_pr0 : 12288
 SAE Count : 0
 Inter-Core Inteference in Data Store : 1656692
Heartbeat CPU 7 instructions: 230000001 cycles: 176410408 heartbeat IPC: 0.345223 cumulative IPC: 0.372363 (Simulation time: 25 hr 27 min 38 sec) 
 Total Blocks : 196608 Invalid Blocks : 0 Valid Blocks : 196608
 Total Tags : 491520 Threshold : 12288 Invalid Tags : 196608 Pr0 Tags : 98304 Pr1 Tags : 196608 num_pr0 : 12288
 SAE Count : 0
 Inter-Core Inteference in Data Store : 1661876
Heartbeat CPU 3 instructions: 230000001 cycles: 176788935 heartbeat IPC: 0.345069 cumulative IPC: 0.37062 (Simulation time: 25 hr 28 min 11 sec) 
 Total Blocks : 196608 Invalid Blocks : 0 Valid Blocks : 196608
 Total Tags : 491520 Threshold : 12288 Invalid Tags : 196610 Pr0 Tags : 98302 Pr1 Tags : 196608 num_pr0 : 12288
 SAE Count : 0
 Inter-Core Inteference in Data Store : 1667879
Heartbeat CPU 1 instructions: 240000003 cycles: 194117270 heartbeat IPC: 0.523703 cumulative IPC: 0.407021 (Simulation time: 25 hr 54 min 18 sec) 
 Total Blocks : 196608 Invalid Blocks : 0 Valid Blocks : 196608
 Total Tags : 491520 Threshold : 12288 Invalid Tags : 196610 Pr0 Tags : 98302 Pr1 Tags : 196608 num_pr0 : 12288
 SAE Count : 0
 Inter-Core Inteference in Data Store : 1931878
Heartbeat CPU 2 instructions: 240000003 cycles: 194125834 heartbeat IPC: 0.524997 cumulative IPC: 0.406988 (Simulation time: 25 hr 54 min 19 sec) 
 Total Blocks : 196608 Invalid Blocks : 0 Valid Blocks : 196608
 Total Tags : 491520 Threshold : 12288 Invalid Tags : 196613 Pr0 Tags : 98299 Pr1 Tags : 196608 num_pr0 : 12287
 SAE Count : 0
 Inter-Core Inteference in Data Store : 1932072
Heartbeat CPU 4 instructions: 240000003 cycles: 194496913 heartbeat IPC: 0.518933 cumulative IPC: 0.405465 (Simulation time: 25 hr 54 min 48 sec) 
 Total Blocks : 196608 Invalid Blocks : 0 Valid Blocks : 196608
 Total Tags : 491520 Threshold : 12288 Invalid Tags : 196608 Pr0 Tags : 98304 Pr1 Tags : 196608 num_pr0 : 12288
 SAE Count : 0
 Inter-Core Inteference in Data Store : 1940701
Heartbeat CPU 0 instructions: 240000003 cycles: 194630334 heartbeat IPC: 0.516272 cumulative IPC: 0.404911 (Simulation time: 25 hr 54 min 56 sec) 
 Total Blocks : 196608 Invalid Blocks : 0 Valid Blocks : 196608
 Total Tags : 491520 Threshold : 12288 Invalid Tags : 196611 Pr0 Tags : 98301 Pr1 Tags : 196608 num_pr0 : 12288
 SAE Count : 0
 Inter-Core Inteference in Data Store : 1943969
Heartbeat CPU 6 instructions: 240000003 cycles: 195428758 heartbeat IPC: 0.511027 cumulative IPC: 0.401672 (Simulation time: 25 hr 55 min 48 sec) 
 Total Blocks : 196608 Invalid Blocks : 0 Valid Blocks : 196608
 Total Tags : 491520 Threshold : 12288 Invalid Tags : 196609 Pr0 Tags : 98303 Pr1 Tags : 196608 num_pr0 : 12288
 SAE Count : 0
 Inter-Core Inteference in Data Store : 1963588
Heartbeat CPU 5 instructions: 240000003 cycles: 195797626 heartbeat IPC: 0.508073 cumulative IPC: 0.400185 (Simulation time: 25 hr 56 min 12 sec) 
 Total Blocks : 196608 Invalid Blocks : 0 Valid Blocks : 196608
 Total Tags : 491520 Threshold : 12288 Invalid Tags : 196610 Pr0 Tags : 98302 Pr1 Tags : 196608 num_pr0 : 12288
 SAE Count : 0
 Inter-Core Inteference in Data Store : 1973402
Heartbeat CPU 7 instructions: 240000003 cycles: 196387310 heartbeat IPC: 0.500578 cumulative IPC: 0.397838 (Simulation time: 25 hr 56 min 52 sec) 
 Total Blocks : 196608 Invalid Blocks : 0 Valid Blocks : 196608
 Total Tags : 491520 Threshold : 12288 Invalid Tags : 196613 Pr0 Tags : 98299 Pr1 Tags : 196608 num_pr0 : 12288
 SAE Count : 0
 Inter-Core Inteference in Data Store : 1988262
Heartbeat CPU 3 instructions: 240000003 cycles: 196741398 heartbeat IPC: 0.501191 cumulative IPC: 0.39644 (Simulation time: 25 hr 57 min 15 sec) 
 Total Blocks : 196608 Invalid Blocks : 0 Valid Blocks : 196608
 Total Tags : 491520 Threshold : 12288 Invalid Tags : 196609 Pr0 Tags : 98303 Pr1 Tags : 196608 num_pr0 : 12288
 SAE Count : 0
 Inter-Core Inteference in Data Store : 1997238
FILL
Heartbeat CPU 1 instructions: 250000000 cycles: 216281235 heartbeat IPC: 0.451183 cumulative IPC: 0.415148 (Simulation time: 26 hr 21 min 33 sec) 
 Total Blocks : 196608 Invalid Blocks : 0 Valid Blocks : 196608
 Total Tags : 491520 Threshold : 12288 Invalid Tags : 196609 Pr0 Tags : 98303 Pr1 Tags : 196608 num_pr0 : 12288
 SAE Count : 0
 Inter-Core Inteference in Data Store : 2438613
Heartbeat CPU 2 instructions: 250000000 cycles: 216310707 heartbeat IPC: 0.450757 cumulative IPC: 0.415049 (Simulation time: 26 hr 21 min 36 sec) 
 Total Blocks : 196608 Invalid Blocks : 0 Valid Blocks : 196608
 Total Tags : 491520 Threshold : 12288 Invalid Tags : 196609 Pr0 Tags : 98303 Pr1 Tags : 196608 num_pr0 : 12288
 SAE Count : 0
 Inter-Core Inteference in Data Store : 2438998
Heartbeat CPU 4 instructions: 250000000 cycles: 216668291 heartbeat IPC: 0.451032 cumulative IPC: 0.413827 (Simulation time: 26 hr 22 min 13 sec) 
 Total Blocks : 196608 Invalid Blocks : 0 Valid Blocks : 196608
 Total Tags : 491520 Threshold : 12288 Invalid Tags : 196608 Pr0 Tags : 98304 Pr1 Tags : 196608 num_pr0 : 12288
 SAE Count : 0
 Inter-Core Inteference in Data Store : 2443519
Heartbeat CPU 0 instructions: 250000000 cycles: 216820566 heartbeat IPC: 0.450649 cumulative IPC: 0.4133 (Simulation time: 26 hr 22 min 28 sec) 
 Total Blocks : 196608 Invalid Blocks : 0 Valid Blocks : 196608
 Total Tags : 491520 Threshold : 12288 Invalid Tags : 196609 Pr0 Tags : 98303 Pr1 Tags : 196608 num_pr0 : 12288
 SAE Count : 0
 Inter-Core Inteference in Data Store : 2445668
Heartbeat CPU 6 instructions: 250000000 cycles: 217207942 heartbeat IPC: 0.459154 cumulative IPC: 0.411987 (Simulation time: 26 hr 23 min 16 sec) 
 Total Blocks : 196608 Invalid Blocks : 0 Valid Blocks : 196608
 Total Tags : 491520 Threshold : 12288 Invalid Tags : 196610 Pr0 Tags : 98302 Pr1 Tags : 196608 num_pr0 : 12288
 SAE Count : 0
 Inter-Core Inteference in Data Store : 2449740
Heartbeat CPU 5 instructions: 250000000 cycles: 217670963 heartbeat IPC: 0.457177 cumulative IPC: 0.410418 (Simulation time: 26 hr 24 min 2 sec) 
 Total Blocks : 196608 Invalid Blocks : 0 Valid Blocks : 196608
 Total Tags : 491520 Threshold : 12288 Invalid Tags : 196609 Pr0 Tags : 98303 Pr1 Tags : 196608 num_pr0 : 12287
 SAE Count : 0
 Inter-Core Inteference in Data Store : 2455240
[...]
LLC4 LOAD      ACCESS:  6341  HIT:    11  MISS:  6330  HIT %: 0.173474  MISS %: 99.8265  AVERAGE MISS PENALTY: 950.358
LLC4 RFO       ACCESS: 149717  HIT:   100  MISS: 149617  HIT %: 0.0667927  MISS %: 99.9332  AVERAGE MISS PENALTY: 1032.24
LLC4 PREFETCH  ACCESS: 413854  HIT: 17148  MISS: 396706  HIT %: 4.14349  MISS %: 95.8565  AVERAGE MISS PENALTY: 987.146
LLC4 WRITEBACK ACCESS: 183022  HIT:   120  MISS: 182902  HIT %: 0.0655659  MISS %: 99.9344  AVERAGE MISS PENALTY: 0
LLC4 PREFETCH  REQUESTED:     0  ISSUED:     0  USEFUL:   103  USELESS: 18477
 USEFUL LOAD PREFETCHES:        103 PREFETCH ISSUED TO LOWER LEVEL:   29506773  ACCURACY: 0.000349072
 TIMELY PREFETCHES:        103 LATE PREFETCHES: 0 DROPPED PREFETCHES: 0
LLC4 AVERAGE MISS LATENCY: 750.539 cycles

LLC4 Set Associative Eviction Count : 0
LLC4 Priority 0 entries : 12288
LLC4 Inter-Core Interference : 1306851
LLC5 TOTAL     ACCESS: 752607  HIT: 17551  MISS: 735056  HIT %: 2.33203  MISS %: 97.668  AVERAGE MISS PENALTY: 727.313
LLC5 LOAD      ACCESS:  6397  HIT:     4  MISS:  6393  HIT %: 0.0625293  MISS %: 99.9375  AVERAGE MISS PENALTY: 948.384
LLC5 RFO       ACCESS: 149716  HIT:   102  MISS: 149614  HIT %: 0.068129  MISS %: 99.9319  AVERAGE MISS PENALTY: 1011.18
LLC5 PREFETCH  ACCESS: 413467  HIT: 17316  MISS: 396151  HIT %: 4.188  MISS %: 95.812  AVERAGE MISS PENALTY: 952.328
LLC5 WRITEBACK ACCESS: 183027  HIT:   129  MISS: 182898  HIT %: 0.0704814  MISS %: 99.9295  AVERAGE MISS PENALTY: 0
LLC5 PREFETCH  REQUESTED:     0  ISSUED:     0  USEFUL:   123  USELESS: 18586
 USEFUL LOAD PREFETCHES:        123 PREFETCH ISSUED TO LOWER LEVEL:   24939536  ACCURACY: 0.000493193
 TIMELY PREFETCHES:        123 LATE PREFETCHES: 0 DROPPED PREFETCHES: 0
LLC5 AVERAGE MISS LATENCY: 727.313 cycles

LLC5 Set Associative Eviction Count : 0
LLC5 Priority 0 entries : 12288
LLC5 Inter-Core Interference : 1306714
LLC6 TOTAL     ACCESS: 752549  HIT: 17550  MISS: 734999  HIT %: 2.33207  MISS %: 97.6679  AVERAGE MISS PENALTY: 717.783
LLC6 LOAD      ACCESS:  6367  HIT:     8  MISS:  6359  HIT %: 0.125648  MISS %: 99.8744  AVERAGE MISS PENALTY: 1089.72
LLC6 RFO       ACCESS: 149718  HIT:    99  MISS: 149619  HIT %: 0.0661243  MISS %: 99.9339  AVERAGE MISS PENALTY: 957.99
LLC6 PREFETCH  ACCESS: 413459  HIT: 17338  MISS: 396121  HIT %: 4.1934  MISS %: 95.8066  AVERAGE MISS PENALTY: 952.503
LLC6 WRITEBACK ACCESS: 183005  HIT:   105  MISS: 182900  HIT %: 0.0573755  MISS %: 99.9426  AVERAGE MISS PENALTY: 0
LLC6 PREFETCH  REQUESTED:     0  ISSUED:     0  USEFUL:   137  USELESS: 18664
 USEFUL LOAD PREFETCHES:        137 PREFETCH ISSUED TO LOWER LEVEL:   32340205  ACCURACY: 0.000423621
 TIMELY PREFETCHES:        137 LATE PREFETCHES: 0 DROPPED PREFETCHES: 0
LLC6 AVERAGE MISS LATENCY: 717.783 cycles

LLC6 Set Associative Eviction Count : 0
LLC6 Priority 0 entries : 12288
LLC6 Inter-Core Interference : 1307172
LLC7 TOTAL     ACCESS: 752438  HIT: 17421  MISS: 735017  HIT %: 2.31527  MISS %: 97.6847  AVERAGE MISS PENALTY: 702.564
LLC7 LOAD      ACCESS:  6333  HIT:    13  MISS:  6320  HIT %: 0.205274  MISS %: 99.7947  AVERAGE MISS PENALTY: 1053.7
LLC7 RFO       ACCESS: 149722  HIT:    85  MISS: 149637  HIT %: 0.0567719  MISS %: 99.9432  AVERAGE MISS PENALTY: 942.332
LLC7 PREFETCH  ACCESS: 413389  HIT: 17234  MISS: 396155  HIT %: 4.16895  MISS %: 95.831  AVERAGE MISS PENALTY: 930.77
LLC7 WRITEBACK ACCESS: 182994  HIT:    89  MISS: 182905  HIT %: 0.0486355  MISS %: 99.9514  AVERAGE MISS PENALTY: 0
LLC7 PREFETCH  REQUESTED:     0  ISSUED:     0  USEFUL:   136  USELESS: 18550
 USEFUL LOAD PREFETCHES:        136 PREFETCH ISSUED TO LOWER LEVEL:   28931565  ACCURACY: 0.000470075
 TIMELY PREFETCHES:        136 LATE PREFETCHES: 0 DROPPED PREFETCHES: 0
LLC7 AVERAGE MISS LATENCY: 702.564 cycles

LLC7 Set Associative Eviction Count : 0
LLC7 Priority 0 entries : 12288
LLC7 Inter-Core Interference : 1306665
ROI Average ROB Stall Cycles:	29.4216
ROI Total ROB Stalls Cycles:	471250626
ROI TOTAL ROB counter      :	16017162
ROI Average Load ROB Stall Cycles:	123.368
ROI Total Load ROB Stalls Cycle  :	373400945
ROI Total Load ROB stalls Counter:	3026721
Major fault: 0 Minor fault: 49369

CPU 7 cumulative IPC: 0.387116 instructions: 200000000 cycles: 516641014
ITLB TOTAL     ACCESS: 35044615  HIT: 35044615  MISS:     0  HIT %:   100  MISS %:     0  AVERAGE MISS PENALTY: 0
ITLB LOAD      ACCESS: 35044615  HIT: 35044615  MISS:     0  HIT %:   100  MISS %:     0  AVERAGE MISS PENALTY: 0
ITLB RFO       ACCESS:     0  HIT:     0  MISS:     0  HIT %:     0  MISS %:     0  AVERAGE MISS PENALTY: 0
ITLB PREFETCH  ACCESS:     0  HIT:     0  MISS:     0  HIT %:     0  MISS %:     0  AVERAGE MISS PENALTY: 0
ITLB WRITEBACK ACCESS:     0  HIT:     0  MISS:     0  HIT %:     0  MISS %:     0  AVERAGE MISS PENALTY: 0
ITLB PREFETCH  REQUESTED:     0  ISSUED:     0  USEFUL:     0  USELESS:     0
 USEFUL LOAD PREFETCHES:          0 PREFETCH ISSUED TO LOWER LEVEL:          0  ACCURACY: -nan
 TIMELY PREFETCHES:          0 LATE PREFETCHES: 0 DROPPED PREFETCHES: 0
ITLB AVERAGE MISS LATENCY: -nan cycles

ITLB Set Associative Eviction Count : 0
ITLB Priority 0 entries : 0
ITLB Inter-Core Interference : 0
DTLB TOTAL     ACCESS: 54403496  HIT: 54302154  MISS: 101342  HIT %: 99.8137  MISS %: 0.186278  AVERAGE MISS PENALTY: 118.686
DTLB LOAD      ACCESS: 47655585  HIT: 47572996  MISS: 82589  HIT %: 99.8267  MISS %: 0.173304  AVERAGE MISS PENALTY: 120.768
DTLB RFO       ACCESS: 6747911  HIT: 6729158  MISS: 18753  HIT %: 99.7221  MISS %: 0.277908  AVERAGE MISS PENALTY: 109.519
DTLB PREFETCH  ACCESS:     0  HIT:     0  MISS:     0  HIT %:     0  MISS %:     0  AVERAGE MISS PENALTY: 0
DTLB WRITEBACK ACCESS:     0  HIT:     0  MISS:     0  HIT %:     0  MISS %:     0  AVERAGE MISS PENALTY: 0
DTLB PREFETCH  REQUESTED:     0  ISSUED:     0  USEFUL:     0  USELESS:     0
 USEFUL LOAD PREFETCHES:          0 PREFETCH ISSUED TO LOWER LEVEL:          0  ACCURACY: -nan
 TIMELY PREFETCHES:          0 LATE PREFETCHES: 0 DROPPED PREFETCHES: 0
DTLB AVERAGE MISS LATENCY: 118.686 cycles

DTLB Set Associative Eviction Count : 0
DTLB Priority 0 entries : 0
DTLB Inter-Core Interference : 0
STLB TOTAL     ACCESS: 101342  HIT:   732  MISS: 100610  HIT %: 0.722307  MISS %: 99.2777  AVERAGE MISS PENALTY: 100
STLB LOAD      ACCESS: 82589  HIT:   730  MISS: 81859  HIT %: 0.883895  MISS %: 99.1161  AVERAGE MISS PENALTY: 100
STLB RFO       ACCESS: 18753  HIT:     2  MISS: 18751  HIT %: 0.010665  MISS %: 99.9893  AVERAGE MISS PENALTY: 100
STLB PREFETCH  ACCESS:     0  HIT:     0  MISS:     0  HIT %:     0  MISS %:     0  AVERAGE MISS PENALTY: 0
STLB WRITEBACK ACCESS:     0  HIT:     0  MISS:     0  HIT %:     0  MISS %:     0  AVERAGE MISS PENALTY: 0
STLB PREFETCH  REQUESTED:     0  ISSUED:     0  USEFUL:     0  USELESS:     0
 USEFUL LOAD PREFETCHES:          0 PREFETCH ISSUED TO LOWER LEVEL:          0  ACCURACY: -nan
 TIMELY PREFETCHES:          0 LATE PREFETCHES: 0 DROPPED PREFETCHES: 0
STLB AVERAGE MISS LATENCY: 100 cycles

STLB Set Associative Eviction Count : 0
STLB Priority 0 entries : 0
STLB Inter-Core Interference : 0
L1D TOTAL     ACCESS: 56643194  HIT: 52129169  MISS: 4514025  HIT %: 92.0308  MISS %: 7.96923  AVERAGE MISS PENALTY: 5.92379e+07
L1D LOAD      ACCESS: 43028655  HIT: 42176322  MISS: 852333  HIT %: 98.0192  MISS %: 1.98085  AVERAGE MISS PENALTY: 3.13726e+08
L1D RFO       ACCESS: 4023952  HIT: 2826195  MISS: 1197757  HIT %: 70.2343  MISS %: 29.7657  AVERAGE MISS PENALTY: 1023.03
L1D PREFETCH  ACCESS: 9590587  HIT: 7126652  MISS: 2463935  HIT %: 74.3088  MISS %: 25.6912  AVERAGE MISS PENALTY: 406.892
L1D WRITEBACK ACCESS:     0  HIT:     0  MISS:     0  HIT %:     0  MISS %:     0  AVERAGE MISS PENALTY: 0
L1D PREFETCH  REQUESTED: 14957519  ISSUED: 14872963  USEFUL: 2382576  USELESS: 81356
 USEFUL LOAD PREFETCHES:    2382576 PREFETCH ISSUED TO LOWER LEVEL:   18256565  ACCURACY: 13.0505
 TIMELY PREFETCHES:    2382576 LATE PREFETCHES: 860226 DROPPED PREFETCHES: 84556
L1D AVERAGE MISS LATENCY: 616.847 cycles

L1D Set Associative Eviction Count : 0
L1D Priority 0 entries : 0
L1D Inter-Core Interference : 0
L1I TOTAL     ACCESS: 48257234  HIT: 48257234  MISS:     0  HIT %:   100  MISS %:     0  AVERAGE MISS PENALTY: 0
L1I LOAD      ACCESS: 48257234  HIT: 48257234  MISS:     0  HIT %:   100  MISS %:     0  AVERAGE MISS PENALTY: 0
L1I RFO       ACCESS:     0  HIT:     0  MISS:     0  HIT %:     0  MISS %:     0  AVERAGE MISS PENALTY: 0
L1I PREFETCH  ACCESS:     0  HIT:     0  MISS:     0  HIT %:     0  MISS %:     0  AVERAGE MISS PENALTY: 0
L1I WRITEBACK ACCESS:     0  HIT:     0  MISS:     0  HIT %:     0  MISS %:     0  AVERAGE MISS PENALTY: 0
L1I PREFETCH  REQUESTED:     0  ISSUED:     0  USEFUL:     0  USELESS:     0
 USEFUL LOAD PREFETCHES:          0 PREFETCH ISSUED TO LOWER LEVEL:          0  ACCURACY: -nan
 TIMELY PREFETCHES:          0 LATE PREFETCHES: 0 DROPPED PREFETCHES: 0
L1I AVERAGE MISS LATENCY: -nan cycles

L1I Set Associative Eviction Count : 0
L1I Priority 0 entries : 0
L1I Inter-Core Interference : 0
L2C TOTAL     ACCESS: 7396795  HIT: 2819604  MISS: 4577191  HIT %: 38.1193  MISS %: 61.8807  AVERAGE MISS PENALTY: 5.6867e+07
L2C LOAD      ACCESS: 833908  HIT:  2421  MISS: 831487  HIT %: 0.29032  MISS %: 99.7097  AVERAGE MISS PENALTY: 3.13039e+08
L2C RFO       ACCESS: 1197757  HIT:     7  MISS: 1197750  HIT %: 0.000584426  MISS %: 99.9994  AVERAGE MISS PENALTY: 1298.99
L2C PREFETCH  ACCESS: 3900997  HIT: 1377181  MISS: 2523816  HIT %: 35.3033  MISS %: 64.6967  AVERAGE MISS PENALTY: 819.411
L2C WRITEBACK ACCESS: 1464133  HIT: 1439995  MISS: 24138  HIT %: 98.3514  MISS %: 1.64862  AVERAGE MISS PENALTY: 0
L2C PREFETCH  REQUESTED: 4879588  ISSUED: 4879587  USEFUL:  1564  USELESS: 2523289
 USEFUL LOAD PREFETCHES:       1564 PREFETCH ISSUED TO LOWER LEVEL:    5652355  ACCURACY: 0.0276699
 TIMELY PREFETCHES:       1564 LATE PREFETCHES: 749729 DROPPED PREFETCHES: 1
L2C AVERAGE MISS LATENCY: 834.924 cycles

L2C Set Associative Eviction Count : 0
L2C Priority 0 entries : 0
L2C Inter-Core Interference : 0
LLC0 TOTAL     ACCESS: 750997  HIT: 18009  MISS: 732988  HIT %: 2.39801  MISS %: 97.602  AVERAGE MISS PENALTY: 711.563
LLC0 LOAD      ACCESS: 56074  HIT:  2192  MISS: 53882  HIT %: 3.90912  MISS %: 96.0909  AVERAGE MISS PENALTY: 789.465
LLC0 RFO       ACCESS: 149718  HIT:    83  MISS: 149635  HIT %: 0.0554376  MISS %: 99.9446  AVERAGE MISS PENALTY: 990.061
LLC0 PREFETCH  ACCESS: 362183  HIT: 15648  MISS: 346535  HIT %: 4.32047  MISS %: 95.6795  AVERAGE MISS PENALTY: 954.828
LLC0 WRITEBACK ACCESS: 183022  HIT:    86  MISS: 182936  HIT %: 0.0469889  MISS %: 99.953  AVERAGE MISS PENALTY: 0
LLC0 PREFETCH  REQUESTED:     0  ISSUED:     0  USEFUL:   102  USELESS: 16304
 USEFUL LOAD PREFETCHES:        102 PREFETCH ISSUED TO LOWER LEVEL:   20932849  ACCURACY: 0.000487272
 TIMELY PREFETCHES:        102 LATE PREFETCHES: 0 DROPPED PREFETCHES: 0
LLC0 AVERAGE MISS LATENCY: 711.563 cycles

LLC0 Set Associative Eviction Count : 0
LLC0 Priority 0 entries : 12288
LLC0 Inter-Core Interference : 1307453
LLC1 TOTAL     ACCESS: 751593  HIT: 17893  MISS: 733700  HIT %: 2.38068  MISS %: 97.6193  AVERAGE MISS PENALTY: 708.838
LLC1 LOAD      ACCESS: 11646  HIT:    89  MISS: 11557  HIT %: 0.764211  MISS %: 99.2358  AVERAGE MISS PENALTY: 877.265
LLC1 RFO       ACCESS: 149715  HIT:    77  MISS: 149638  HIT %: 0.0514311  MISS %: 99.9486  AVERAGE MISS PENALTY: 989.505
LLC1 PREFETCH  ACCESS: 407210  HIT: 17638  MISS: 389572  HIT %: 4.33143  MISS %: 95.6686  AVERAGE MISS PENALTY: 928.887
LLC1 WRITEBACK ACCESS: 183022  HIT:    89  MISS: 182933  HIT %: 0.048628  MISS %: 99.9514  AVERAGE MISS PENALTY: 0
LLC1 PREFETCH  REQUESTED:     0  ISSUED:     0  USEFUL:   108  USELESS: 18579
 USEFUL LOAD PREFETCHES:        108 PREFETCH ISSUED TO LOWER LEVEL:   20171349  ACCURACY: 0.000535413
 TIMELY PREFETCHES:        108 LATE PREFETCHES: 0 DROPPED PREFETCHES: 0
LLC1 AVERAGE MISS LATENCY: 708.838 cycles

LLC1 Set Associative Eviction Count : 0
LLC1 Priority 0 entries : 12288
LLC1 Inter-Core Interference : 1307654
LLC2 TOTAL     ACCESS: 751915  HIT: 17950  MISS: 733965  HIT %: 2.38724  MISS %: 97.6128  AVERAGE MISS PENALTY: 690.101
LLC2 LOAD      ACCESS:  6320  HIT:     8  MISS:  6312  HIT %: 0.126582  MISS %: 99.8734  AVERAGE MISS PENALTY: 1041.09
LLC2 RFO       ACCESS: 149726  HIT:   109  MISS: 149617  HIT %: 0.0727996  MISS %: 99.9272  AVERAGE MISS PENALTY: 921.601
LLC2 PREFETCH  ACCESS: 412794  HIT: 17691  MISS: 395103  HIT %: 4.28567  MISS %: 95.7143  AVERAGE MISS PENALTY: 916.346
LLC2 WRITEBACK ACCESS: 183075  HIT:   142  MISS: 182933  HIT %: 0.0775638  MISS %: 99.9224  AVERAGE MISS PENALTY: 0
LLC2 PREFETCH  REQUESTED:     0  ISSUED:     0  USEFUL:    97  USELESS: 18943
 USEFUL LOAD PREFETCHES:         97 PREFETCH ISSUED TO LOWER LEVEL:   25560090  ACCURACY: 0.000379498
 TIMELY PREFETCHES:         97 LATE PREFETCHES: 0 DROPPED PREFETCHES: 0
LLC2 AVERAGE MISS LATENCY: 690.101 cycles

LLC2 Set Associative Eviction Count : 0
LLC2 Priority 0 entries : 12288
LLC2 Inter-Core Interference : 1306958
LLC3 TOTAL     ACCESS: 752334  HIT: 18042  MISS: 734292  HIT %: 2.39814  MISS %: 97.6019  AVERAGE MISS PENALTY: 690.139
LLC3 LOAD      ACCESS:  6277  HIT:    16  MISS:  6261  HIT %: 0.254899  MISS %: 99.7451  AVERAGE MISS PENALTY: 1022.05
LLC3 RFO       ACCESS: 149715  HIT:    92  MISS: 149623  HIT %: 0.0614501  MISS %: 99.9385  AVERAGE MISS PENALTY: 924.805
LLC3 PREFETCH  ACCESS: 413313  HIT: 17829  MISS: 395484  HIT %: 4.31368  MISS %: 95.6863  AVERAGE MISS PENALTY: 915.314
LLC3 WRITEBACK ACCESS: 183029  HIT:   105  MISS: 182924  HIT %: 0.057368  MISS %: 99.9426  AVERAGE MISS PENALTY: 0
LLC3 PREFETCH  REQUESTED:     0  ISSUED:     0  USEFUL:   144  USELESS: 18538
 USEFUL LOAD PREFETCHES:        144 PREFETCH ISSUED TO LOWER LEVEL:   23095246  ACCURACY: 0.000623505
 TIMELY PREFETCHES:        144 LATE PREFETCHES: 0 DROPPED PREFETCHES: 0
LLC3 AVERAGE MISS LATENCY: 690.139 cycles

LLC3 Set Associative Eviction Count : 0
LLC3 Priority 0 entries : 12288
LLC3 Inter-Core Interference : 1307125
LLC4 TOTAL     ACCESS: 752929  HIT: 18045  MISS: 734884  HIT %: 2.39664  MISS %: 97.6034  AVERAGE MISS PENALTY: 748.904
LLC4 LOAD      ACCESS:  6337  HIT:    10  MISS:  6327  HIT %: 0.157803  MISS %: 99.8422  AVERAGE MISS PENALTY: 968.418
LLC4 RFO       ACCESS: 149718  HIT:    86  MISS: 149632  HIT %: 0.0574413  MISS %: 99.9426  AVERAGE MISS PENALTY: 1023.35
LLC4 PREFETCH  ACCESS: 413825  HIT: 17840  MISS: 395985  HIT %: 4.311  MISS %: 95.689  AVERAGE MISS PENALTY: 987.675
LLC4 WRITEBACK ACCESS: 183049  HIT:   109  MISS: 182940  HIT %: 0.0595469  MISS %: 99.9405  AVERAGE MISS PENALTY: 0
LLC4 PREFETCH  REQUESTED:     0  ISSUED:     0  USEFUL:   103  USELESS: 18477
 USEFUL LOAD PREFETCHES:        103 PREFETCH ISSUED TO LOWER LEVEL:   29506773  ACCURACY: 0.000349072
 TIMELY PREFETCHES:        103 LATE PREFETCHES: 0 DROPPED PREFETCHES: 0
LLC4 AVERAGE MISS LATENCY: 748.904 cycles

LLC4 Set Associative Eviction Count : 0
LLC4 Priority 0 entries : 12288
LLC4 Inter-Core Interference : 1306851
LLC5 TOTAL     ACCESS: 752593  HIT: 17997  MISS: 734596  HIT %: 2.39133  MISS %: 97.6087  AVERAGE MISS PENALTY: 724.739
LLC5 LOAD      ACCESS:  6410  HIT:     8  MISS:  6402  HIT %: 0.124805  MISS %: 99.8752  AVERAGE MISS PENALTY: 948.417
LLC5 RFO       ACCESS: 149715  HIT:    82  MISS: 149633  HIT %: 0.0547707  MISS %: 99.9452  AVERAGE MISS PENALTY: 1005.76
LLC5 PREFETCH  ACCESS: 413432  HIT: 17802  MISS: 395630  HIT %: 4.30591  MISS %: 95.6941  AVERAGE MISS PENALTY: 949.936
LLC5 WRITEBACK ACCESS: 183036  HIT:   105  MISS: 182931  HIT %: 0.0573658  MISS %: 99.9426  AVERAGE MISS PENALTY: 0
LLC5 PREFETCH  REQUESTED:     0  ISSUED:     0  USEFUL:   123  USELESS: 18586
 USEFUL LOAD PREFETCHES:        123 PREFETCH ISSUED TO LOWER LEVEL:   24939536  ACCURACY: 0.000493193
 TIMELY PREFETCHES:        123 LATE PREFETCHES: 0 DROPPED PREFETCHES: 0
LLC5 AVERAGE MISS LATENCY: 724.739 cycles

LLC5 Set Associative Eviction Count : 0
LLC5 Priority 0 entries : 12288
LLC5 Inter-Core Interference : 1306714
LLC6 TOTAL     ACCESS: 752575  HIT: 17995  MISS: 734580  HIT %: 2.39112  MISS %: 97.6089  AVERAGE MISS PENALTY: 715.72
LLC6 LOAD      ACCESS:  6361  HIT:    13  MISS:  6348  HIT %: 0.20437  MISS %: 99.7956  AVERAGE MISS PENALTY: 1074.14
LLC6 RFO       ACCESS: 149719  HIT:   100  MISS: 149619  HIT %: 0.0667918  MISS %: 99.9332  AVERAGE MISS PENALTY: 951.451
LLC6 PREFETCH  ACCESS: 413474  HIT: 17772  MISS: 395702  HIT %: 4.29821  MISS %: 95.7018  AVERAGE MISS PENALTY: 951.674
LLC6 WRITEBACK ACCESS: 183021  HIT:   110  MISS: 182911  HIT %: 0.0601024  MISS %: 99.9399  AVERAGE MISS PENALTY: 0
LLC6 PREFETCH  REQUESTED:     0  ISSUED:     0  USEFUL:   137  USELESS: 18664
 USEFUL LOAD PREFETCHES:        137 PREFETCH ISSUED TO LOWER LEVEL:   32340205  ACCURACY: 0.000423621
 TIMELY PREFETCHES:        137 LATE PREFETCHES: 0 DROPPED PREFETCHES: 0
LLC6 AVERAGE MISS LATENCY: 715.72 cycles

LLC6 Set Associative Eviction Count : 0
LLC6 Priority 0 entries : 12288
LLC6 Inter-Core Interference : 1307172
LLC7 TOTAL     ACCESS: 752392  HIT: 17846  MISS: 734546  HIT %: 2.3719  MISS %: 97.6281  AVERAGE MISS PENALTY: 699.912
LLC7 LOAD      ACCESS:  6336  HIT:    12  MISS:  6324  HIT %: 0.189394  MISS %: 99.8106  AVERAGE MISS PENALTY: 1047.98
LLC7 RFO       ACCESS: 149723  HIT:    89  MISS: 149634  HIT %: 0.0594431  MISS %: 99.9406  AVERAGE MISS PENALTY: 934.912
LLC7 PREFETCH  ACCESS: 413312  HIT: 17648  MISS: 395664  HIT %: 4.2699  MISS %: 95.7301  AVERAGE MISS PENALTY: 929.06
LLC7 WRITEBACK ACCESS: 183021  HIT:    97  MISS: 182924  HIT %: 0.0529994  MISS %: 99.947  AVERAGE MISS PENALTY: 0
LLC7 PREFETCH  REQUESTED:     0  ISSUED:     0  USEFUL:   136  USELESS: 18550
 USEFUL LOAD PREFETCHES:        136 PREFETCH ISSUED TO LOWER LEVEL:   28931565  ACCURACY: 0.000470075
 TIMELY PREFETCHES:        136 LATE PREFETCHES: 0 DROPPED PREFETCHES: 0
LLC7 AVERAGE MISS LATENCY: 699.912 cycles

LLC7 Set Associative Eviction Count : 0
LLC7 Priority 0 entries : 12288
LLC7 Inter-Core Interference : 1306665
ROI Average ROB Stall Cycles:	29.3695
ROI Total ROB Stalls Cycles:	470344942
ROI TOTAL ROB counter      :	16014721
ROI Average Load ROB Stall Cycles:	123.145
ROI Total Load ROB Stalls Cycle  :	372714167
ROI Total Load ROB stalls Counter:	3026624
Major fault: 0 Minor fault: 49369








Interconnect Stats 
LINK 0 BW : 0LINK 1 BW : 0LINK 2 BW : 0LINK 3 BW : 0LINK 4 BW : 0LINK 5 BW : 0LINK 6 BW : 0LINK 7 BW : 0
DRAM Statistics
 CHANNEL 0
 RQ ROW_BUFFER_HIT: 5847603  ROW_BUFFER_MISS: 11922699
 DBUS_CONGESTED: 22233106
 WQ ROW_BUFFER_HIT: 189445  ROW_BUFFER_MISS: 5712831  FULL:   707

 CHANNEL 1
 RQ ROW_BUFFER_HIT: 5897339  ROW_BUFFER_MISS: 11878758
 DBUS_CONGESTED: 22233106
 WQ ROW_BUFFER_HIT: 189533  ROW_BUFFER_MISS: 5712487  FULL:   773

 AVG_CONGESTED_CYCLE: 6
DRAM PAGES: 2097152
Allocated PAGES: 394952
L2C destructor called
L1D destructor called
L1I destructor called
STLB destructor called
DTLB destructor called
ITLB destructor called
L2C destructor called
L1D destructor called
L1I destructor called
STLB destructor called
DTLB destructor called
ITLB destructor called
L2C destructor called
L1D destructor called
L1I destructor called
STLB destructor called
DTLB destructor called
ITLB destructor called
L2C destructor called
L1D destructor called
L1I destructor called
STLB destructor called
DTLB destructor called
ITLB destructor called
L2C destructor called
L1D destructor called
L1I destructor called
STLB destructor called
DTLB destructor called
ITLB destructor called
L2C destructor called
L1D destructor called
L1I destructor called
STLB destructor called
DTLB destructor called
ITLB destructor called
L2C destructor called
L1D destructor called
L1I destructor called
STLB destructor called
DTLB destructor called
ITLB destructor called
L2C destructor called
L1D destructor called
L1I destructor called
STLB destructor called
DTLB destructor called
ITLB destructor called
