
*** ChampSim Multicore Out-of-Order Simulator ***

Warmup Instructions: 200000000
Simulation Instructions: 200000000
Number of CPUs: 8
threads:1

L1I Configuration:
L1I_SET:64
L1I_WAY:8
L1I_RQ_SIZE:64
L1I_WQ_SIZE:64
L1I_PQ_SIZE:8
L1I_MSHR_SIZE:8

L1D Configuration:
L1D_SET:64
L1D_WAY:12
L1D_RQ_SIZE:64
L1D_WQ_SIZE:64
L1D_PQ_SIZE:8
L1D_MSHR_SIZE:16

L2C Configuration:
L2C_SET:1024
L2C_WAY:8
L2C_RQ_SIZE:32
L2C_WQ_SIZE:32
L2C_PQ_SIZE:16
L2C_MSHR_SIZE:32

LLC Configuration:
LLC_SET:2048
LLC_WAY:12
LLC SLICES:8
LLC_RQ_SIZE:64
LLC_WQ_SIZE:64
LLC_PQ_SIZE:32
LLC_MSHR_SIZE:64

Interconnect OFF
Attacker deprioritize is: OFF
Off-chip DRAM Size: 8192 MB Channels: 2 Width: 64-bit Data Rate: 3200 MT/s
PAGE SIZE in KB: 4.000000 
PAGE SIZE in MB: 0.003906 
PAGE offset in bits: 12 
CEASER-S_LLC:0
MIRAGE : 1
CEASER_LATENCY:3
REMAP : OFF
Partitions : 1
Multi-Step : OFF
BFS : OFF

CPU 0 runs /home/anubhav/spec_2017/654.roms_s-293B.champsimtrace.xz
CPU 1 runs /home/anubhav/spec_2017/654.roms_s-293B.champsimtrace.xz
CPU 2 runs /home/anubhav/spec_2017/654.roms_s-293B.champsimtrace.xz
CPU 3 runs /home/anubhav/spec_2017/654.roms_s-293B.champsimtrace.xz
CPU 4 runs /home/anubhav/spec_2017/654.roms_s-293B.champsimtrace.xz
CPU 5 runs /home/anubhav/spec_2017/654.roms_s-293B.champsimtrace.xz
CPU 6 runs /home/anubhav/spec_2017/654.roms_s-293B.champsimtrace.xz
CPU 7 runs /home/anubhav/spec_2017/654.roms_s-293B.champsimtrace.xz
CPU 0 Bimodal branch predictor
Initialize Hawkeye state
Initialize Hawkeye state
Initialize Hawkeye state
Initialize Hawkeye state
Initialize Hawkeye state
Initialize Hawkeye state
Initialize Hawkeye state
Initialize Hawkeye state
CPU 1 Bimodal branch predictor
Initialize Hawkeye state
Initialize Hawkeye state
Initialize Hawkeye state
Initialize Hawkeye state
Initialize Hawkeye state
Initialize Hawkeye state
Initialize Hawkeye state
Initialize Hawkeye state
CPU 2 Bimodal branch predictor
Initialize Hawkeye state
Initialize Hawkeye state
Initialize Hawkeye state
Initialize Hawkeye state
Initialize Hawkeye state
Initialize Hawkeye state
Initialize Hawkeye state
Initialize Hawkeye state
CPU 3 Bimodal branch predictor
Initialize Hawkeye state
Initialize Hawkeye state
Initialize Hawkeye state
Initialize Hawkeye state
Initialize Hawkeye state
Initialize Hawkeye state
Initialize Hawkeye state
Initialize Hawkeye state
CPU 4 Bimodal branch predictor
Initialize Hawkeye state
Initialize Hawkeye state
Initialize Hawkeye state
Initialize Hawkeye state
Initialize Hawkeye state
Initialize Hawkeye state
Initialize Hawkeye state
Initialize Hawkeye state
CPU 5 Bimodal branch predictor
Initialize Hawkeye state
Initialize Hawkeye state
Initialize Hawkeye state
Initialize Hawkeye state
Initialize Hawkeye state
Initialize Hawkeye state
Initialize Hawkeye state
Initialize Hawkeye state
CPU 6 Bimodal branch predictor
Initialize Hawkeye state
Initialize Hawkeye state
Initialize Hawkeye state
Initialize Hawkeye state
Initialize Hawkeye state
Initialize Hawkeye state
Initialize Hawkeye state
Initialize Hawkeye state
CPU 7 Bimodal branch predictor
Initialize Hawkeye state
Initialize Hawkeye state
Initialize Hawkeye state
Initialize Hawkeye state
Initialize Hawkeye state
Initialize Hawkeye state
Initialize Hawkeye state
Initialize Hawkeye state
Heartbeat CPU 2 instructions: 10000000 cycles: 4295773 heartbeat IPC: 2.32787 cumulative IPC: 2.32787 (Simulation time: 0 hr 46 min 0 sec) 
 Total Blocks : 196608 Invalid Blocks : 30363 Valid Blocks : 166245
 Total Tags : 491520 Threshold : 12288 Invalid Tags : 226977 Pr0 Tags : 98298 Pr1 Tags : 166245 num_pr0 : 12288
 SAE Count : 0
 Inter-Core Inteference in Data Store : 175553
Heartbeat CPU 1 instructions: 10000000 cycles: 4295804 heartbeat IPC: 2.32785 cumulative IPC: 2.32785 (Simulation time: 0 hr 46 min 0 sec) 
 Total Blocks : 196608 Invalid Blocks : 30363 Valid Blocks : 166245
 Total Tags : 491520 Threshold : 12288 Invalid Tags : 226978 Pr0 Tags : 98297 Pr1 Tags : 166245 num_pr0 : 12288
 SAE Count : 0
 Inter-Core Inteference in Data Store : 175554
Heartbeat CPU 4 instructions: 10000000 cycles: 4295817 heartbeat IPC: 2.32785 cumulative IPC: 2.32785 (Simulation time: 0 hr 46 min 0 sec) 
 Total Blocks : 196608 Invalid Blocks : 30363 Valid Blocks : 166245
 Total Tags : 491520 Threshold : 12288 Invalid Tags : 226979 Pr0 Tags : 98296 Pr1 Tags : 166245 num_pr0 : 12288
 SAE Count : 0
 Inter-Core Inteference in Data Store : 175555
Heartbeat CPU 3 instructions: 10000000 cycles: 4295823 heartbeat IPC: 2.32784 cumulative IPC: 2.32784 (Simulation time: 0 hr 46 min 0 sec) 
 Total Blocks : 196608 Invalid Blocks : 30363 Valid Blocks : 166245
 Total Tags : 491520 Threshold : 12288 Invalid Tags : 226979 Pr0 Tags : 98296 Pr1 Tags : 166245 num_pr0 : 12288
 SAE Count : 0
 Inter-Core Inteference in Data Store : 175555
Heartbeat CPU 6 instructions: 10000000 cycles: 4295832 heartbeat IPC: 2.32784 cumulative IPC: 2.32784 (Simulation time: 0 hr 46 min 0 sec) 
 Total Blocks : 196608 Invalid Blocks : 30363 Valid Blocks : 166245
 Total Tags : 491520 Threshold : 12288 Invalid Tags : 226980 Pr0 Tags : 98295 Pr1 Tags : 166245 num_pr0 : 12288
 SAE Count : 0
 Inter-Core Inteference in Data Store : 175556
Heartbeat CPU 7 instructions: 10000000 cycles: 4295842 heartbeat IPC: 2.32783 cumulative IPC: 2.32783 (Simulation time: 0 hr 46 min 0 sec) 
 Total Blocks : 196608 Invalid Blocks : 30363 Valid Blocks : 166245
 Total Tags : 491520 Threshold : 12288 Invalid Tags : 226980 Pr0 Tags : 98295 Pr1 Tags : 166245 num_pr0 : 12288
 SAE Count : 0
 Inter-Core Inteference in Data Store : 175556
Heartbeat CPU 5 instructions: 10000000 cycles: 4295868 heartbeat IPC: 2.32782 cumulative IPC: 2.32782 (Simulation time: 0 hr 46 min 0 sec) 
 Total Blocks : 196608 Invalid Blocks : 30361 Valid Blocks : 166247
 Total Tags : 491520 Threshold : 12288 Invalid Tags : 226980 Pr0 Tags : 98293 Pr1 Tags : 166247 num_pr0 : 12288
 SAE Count : 0
 Inter-Core Inteference in Data Store : 175556
Heartbeat CPU 0 instructions: 10000000 cycles: 4295929 heartbeat IPC: 2.32779 cumulative IPC: 2.32779 (Simulation time: 0 hr 46 min 0 sec) 
 Total Blocks : 196608 Invalid Blocks : 30358 Valid Blocks : 166250
 Total Tags : 491520 Threshold : 12288 Invalid Tags : 226977 Pr0 Tags : 98293 Pr1 Tags : 166250 num_pr0 : 12288
 SAE Count : 0
 Inter-Core Inteference in Data Store : 175559
FILL
Heartbeat CPU 2 instructions: 20000002 cycles: 8742382 heartbeat IPC: 2.24891 cumulative IPC: 2.28771 (Simulation time: 1 hr 31 min 19 sec) 
 Total Blocks : 196608 Invalid Blocks : 4938 Valid Blocks : 191670
 Total Tags : 491520 Threshold : 12288 Invalid Tags : 201555 Pr0 Tags : 98295 Pr1 Tags : 191670 num_pr0 : 12288
 SAE Count : 0
 Inter-Core Inteference in Data Store : 466107
Heartbeat CPU 3 instructions: 20000002 cycles: 8742389 heartbeat IPC: 2.24893 cumulative IPC: 2.2877 (Simulation time: 1 hr 31 min 19 sec) 
 Total Blocks : 196608 Invalid Blocks : 4938 Valid Blocks : 191670
 Total Tags : 491520 Threshold : 12288 Invalid Tags : 201554 Pr0 Tags : 98296 Pr1 Tags : 191670 num_pr0 : 12288
 SAE Count : 0
 Inter-Core Inteference in Data Store : 466107
Heartbeat CPU 6 instructions: 20000002 cycles: 8742419 heartbeat IPC: 2.24892 cumulative IPC: 2.2877 (Simulation time: 1 hr 31 min 19 sec) 
 Total Blocks : 196608 Invalid Blocks : 4938 Valid Blocks : 191670
 Total Tags : 491520 Threshold : 12288 Invalid Tags : 201555 Pr0 Tags : 98295 Pr1 Tags : 191670 num_pr0 : 12288
 SAE Count : 0
 Inter-Core Inteference in Data Store : 466109
Heartbeat CPU 7 instructions: 20000002 cycles: 8742451 heartbeat IPC: 2.24891 cumulative IPC: 2.28769 (Simulation time: 1 hr 31 min 19 sec) 
 Total Blocks : 196608 Invalid Blocks : 4938 Valid Blocks : 191670
 Total Tags : 491520 Threshold : 12288 Invalid Tags : 201555 Pr0 Tags : 98295 Pr1 Tags : 191670 num_pr0 : 12287
 SAE Count : 0
 Inter-Core Inteference in Data Store : 466114
Heartbeat CPU 4 instructions: 20000002 cycles: 8742473 heartbeat IPC: 2.24888 cumulative IPC: 2.28768 (Simulation time: 1 hr 31 min 20 sec) 
 Total Blocks : 196608 Invalid Blocks : 4938 Valid Blocks : 191670
 Total Tags : 491520 Threshold : 12288 Invalid Tags : 201555 Pr0 Tags : 98295 Pr1 Tags : 191670 num_pr0 : 12287
 SAE Count : 0
 Inter-Core Inteference in Data Store : 466114
Heartbeat CPU 1 instructions: 20000002 cycles: 8742592 heartbeat IPC: 2.24881 cumulative IPC: 2.28765 (Simulation time: 1 hr 31 min 20 sec) 
 Total Blocks : 196608 Invalid Blocks : 4938 Valid Blocks : 191670
 Total Tags : 491520 Threshold : 12288 Invalid Tags : 201553 Pr0 Tags : 98297 Pr1 Tags : 191670 num_pr0 : 12287
 SAE Count : 0
 Inter-Core Inteference in Data Store : 466115
Heartbeat CPU 0 instructions: 20000002 cycles: 8742646 heartbeat IPC: 2.24885 cumulative IPC: 2.28764 (Simulation time: 1 hr 31 min 20 sec) 
 Total Blocks : 196608 Invalid Blocks : 4938 Valid Blocks : 191670
 Total Tags : 491520 Threshold : 12288 Invalid Tags : 201553 Pr0 Tags : 98297 Pr1 Tags : 191670 num_pr0 : 12287
 SAE Count : 0
 Inter-Core Inteference in Data Store : 466119
Heartbeat CPU 5 instructions: 20000002 cycles: 8742657 heartbeat IPC: 2.24881 cumulative IPC: 2.28763 (Simulation time: 1 hr 31 min 20 sec) 
 Total Blocks : 196608 Invalid Blocks : 4938 Valid Blocks : 191670
 Total Tags : 491520 Threshold : 12288 Invalid Tags : 201553 Pr0 Tags : 98297 Pr1 Tags : 191670 num_pr0 : 12287
 SAE Count : 0
 Inter-Core Inteference in Data Store : 466119
Heartbeat CPU 2 instructions: 30000003 cycles: 13038381 heartbeat IPC: 2.32775 cumulative IPC: 2.3009 (Simulation time: 2 hr 15 min 20 sec) 
 Total Blocks : 196608 Invalid Blocks : 1047 Valid Blocks : 195561
 Total Tags : 491520 Threshold : 12288 Invalid Tags : 197663 Pr0 Tags : 98296 Pr1 Tags : 195561 num_pr0 : 12288
 SAE Count : 0
 Inter-Core Inteference in Data Store : 726276
Heartbeat CPU 7 instructions: 30000003 cycles: 13038516 heartbeat IPC: 2.32771 cumulative IPC: 2.30088 (Simulation time: 2 hr 15 min 20 sec) 
 Total Blocks : 196608 Invalid Blocks : 1047 Valid Blocks : 195561
 Total Tags : 491520 Threshold : 12288 Invalid Tags : 197662 Pr0 Tags : 98297 Pr1 Tags : 195561 num_pr0 : 12288
 SAE Count : 0
 Inter-Core Inteference in Data Store : 726282
Heartbeat CPU 3 instructions: 30000003 cycles: 13038556 heartbeat IPC: 2.32766 cumulative IPC: 2.30087 (Simulation time: 2 hr 15 min 20 sec) 
 Total Blocks : 196608 Invalid Blocks : 1047 Valid Blocks : 195561
 Total Tags : 491520 Threshold : 12288 Invalid Tags : 197659 Pr0 Tags : 98300 Pr1 Tags : 195561 num_pr0 : 12288
 SAE Count : 0
 Inter-Core Inteference in Data Store : 726283
Heartbeat CPU 6 instructions: 30000003 cycles: 13038615 heartbeat IPC: 2.32764 cumulative IPC: 2.30086 (Simulation time: 2 hr 15 min 20 sec) 
 Total Blocks : 196608 Invalid Blocks : 1047 Valid Blocks : 195561
 Total Tags : 491520 Threshold : 12288 Invalid Tags : 197659 Pr0 Tags : 98300 Pr1 Tags : 195561 num_pr0 : 12288
 SAE Count : 0
 Inter-Core Inteference in Data Store : 726283
Heartbeat CPU 4 instructions: 30000003 cycles: 13038655 heartbeat IPC: 2.32765 cumulative IPC: 2.30085 (Simulation time: 2 hr 15 min 20 sec) 
 Total Blocks : 196608 Invalid Blocks : 1047 Valid Blocks : 195561
 Total Tags : 491520 Threshold : 12288 Invalid Tags : 197661 Pr0 Tags : 98298 Pr1 Tags : 195561 num_pr0 : 12288
 SAE Count : 0
 Inter-Core Inteference in Data Store : 726286
Heartbeat CPU 1 instructions: 30000003 cycles: 13038739 heartbeat IPC: 2.32767 cumulative IPC: 2.30084 (Simulation time: 2 hr 15 min 20 sec) 
 Total Blocks : 196608 Invalid Blocks : 1047 Valid Blocks : 195561
 Total Tags : 491520 Threshold : 12288 Invalid Tags : 197662 Pr0 Tags : 98297 Pr1 Tags : 195561 num_pr0 : 12286
 SAE Count : 0
 Inter-Core Inteference in Data Store : 726289
Heartbeat CPU 5 instructions: 30000003 cycles: 13038851 heartbeat IPC: 2.32764 cumulative IPC: 2.30082 (Simulation time: 2 hr 15 min 20 sec) 
 Total Blocks : 196608 Invalid Blocks : 1047 Valid Blocks : 195561
 Total Tags : 491520 Threshold : 12288 Invalid Tags : 197663 Pr0 Tags : 98296 Pr1 Tags : 195561 num_pr0 : 12287
 SAE Count : 0
 Inter-Core Inteference in Data Store : 726295
Heartbeat CPU 0 instructions: 30000003 cycles: 13038943 heartbeat IPC: 2.32759 cumulative IPC: 2.3008 (Simulation time: 2 hr 15 min 20 sec) 
 Total Blocks : 196608 Invalid Blocks : 1047 Valid Blocks : 195561
 Total Tags : 491520 Threshold : 12288 Invalid Tags : 197663 Pr0 Tags : 98296 Pr1 Tags : 195561 num_pr0 : 12287
 SAE Count : 0
 Inter-Core Inteference in Data Store : 726300
Heartbeat CPU 2 instructions: 40000002 cycles: 17484233 heartbeat IPC: 2.24929 cumulative IPC: 2.28778 (Simulation time: 3 hr 2 min 22 sec) 
 Total Blocks : 196608 Invalid Blocks : 172 Valid Blocks : 196436
 Total Tags : 491520 Threshold : 12288 Invalid Tags : 196784 Pr0 Tags : 98300 Pr1 Tags : 196436 num_pr0 : 12288
 SAE Count : 0
 Inter-Core Inteference in Data Store : 1027892
Heartbeat CPU 7 instructions: 40000002 cycles: 17484345 heartbeat IPC: 2.2493 cumulative IPC: 2.28776 (Simulation time: 3 hr 2 min 22 sec) 
 Total Blocks : 196608 Invalid Blocks : 172 Valid Blocks : 196436
 Total Tags : 491520 Threshold : 12288 Invalid Tags : 196783 Pr0 Tags : 98301 Pr1 Tags : 196436 num_pr0 : 12288
 SAE Count : 0
 Inter-Core Inteference in Data Store : 1027896
Heartbeat CPU 3 instructions: 40000002 cycles: 17484353 heartbeat IPC: 2.24932 cumulative IPC: 2.28776 (Simulation time: 3 hr 2 min 23 sec) 
 Total Blocks : 196608 Invalid Blocks : 172 Valid Blocks : 196436
 Total Tags : 491520 Threshold : 12288 Invalid Tags : 196783 Pr0 Tags : 98301 Pr1 Tags : 196436 num_pr0 : 12288
 SAE Count : 0
 Inter-Core Inteference in Data Store : 1027896
Heartbeat CPU 4 instructions: 40000002 cycles: 17484516 heartbeat IPC: 2.24928 cumulative IPC: 2.28774 (Simulation time: 3 hr 2 min 23 sec) 
 Total Blocks : 196608 Invalid Blocks : 172 Valid Blocks : 196436
 Total Tags : 491520 Threshold : 12288 Invalid Tags : 196784 Pr0 Tags : 98300 Pr1 Tags : 196436 num_pr0 : 12288
 SAE Count : 0
 Inter-Core Inteference in Data Store : 1027906
Heartbeat CPU 1 instructions: 40000002 cycles: 17484607 heartbeat IPC: 2.24928 cumulative IPC: 2.28773 (Simulation time: 3 hr 2 min 23 sec) 
 Total Blocks : 196608 Invalid Blocks : 172 Valid Blocks : 196436
 Total Tags : 491520 Threshold : 12288 Invalid Tags : 196786 Pr0 Tags : 98298 Pr1 Tags : 196436 num_pr0 : 12288
 SAE Count : 0
 Inter-Core Inteference in Data Store : 1027915
Heartbeat CPU 6 instructions: 40000002 cycles: 17484638 heartbeat IPC: 2.2492 cumulative IPC: 2.28772 (Simulation time: 3 hr 2 min 23 sec) 
 Total Blocks : 196608 Invalid Blocks : 172 Valid Blocks : 196436
 Total Tags : 491520 Threshold : 12288 Invalid Tags : 196786 Pr0 Tags : 98298 Pr1 Tags : 196436 num_pr0 : 12288
 SAE Count : 0
 Inter-Core Inteference in Data Store : 1027915
Heartbeat CPU 5 instructions: 40000002 cycles: 17484810 heartbeat IPC: 2.24923 cumulative IPC: 2.2877 (Simulation time: 3 hr 2 min 23 sec) 
 Total Blocks : 196608 Invalid Blocks : 172 Valid Blocks : 196436
 Total Tags : 491520 Threshold : 12288 Invalid Tags : 196785 Pr0 Tags : 98299 Pr1 Tags : 196436 num_pr0 : 12288
 SAE Count : 0
 Inter-Core Inteference in Data Store : 1027921
Heartbeat CPU 0 instructions: 40000002 cycles: 17485042 heartbeat IPC: 2.24916 cumulative IPC: 2.28767 (Simulation time: 3 hr 2 min 24 sec) 
 Total Blocks : 196608 Invalid Blocks : 172 Valid Blocks : 196436
 Total Tags : 491520 Threshold : 12288 Invalid Tags : 196783 Pr0 Tags : 98301 Pr1 Tags : 196436 num_pr0 : 12288
 SAE Count : 0
 Inter-Core Inteference in Data Store : 1027929
Heartbeat CPU 2 instructions: 50000002 cycles: 21780322 heartbeat IPC: 2.3277 cumulative IPC: 2.29565 (Simulation time: 3 hr 44 min 28 sec) 
 Total Blocks : 196608 Invalid Blocks : 42 Valid Blocks : 196566
 Total Tags : 491520 Threshold : 12288 Invalid Tags : 196657 Pr0 Tags : 98297 Pr1 Tags : 196566 num_pr0 : 12288
 SAE Count : 0
 Inter-Core Inteference in Data Store : 1289929
Heartbeat CPU 7 instructions: 50000002 cycles: 21780381 heartbeat IPC: 2.32773 cumulative IPC: 2.29564 (Simulation time: 3 hr 44 min 28 sec) 
 Total Blocks : 196608 Invalid Blocks : 42 Valid Blocks : 196566
 Total Tags : 491520 Threshold : 12288 Invalid Tags : 196658 Pr0 Tags : 98296 Pr1 Tags : 196566 num_pr0 : 12288
 SAE Count : 0
 Inter-Core Inteference in Data Store : 1289933
Heartbeat CPU 3 instructions: 50000002 cycles: 21780470 heartbeat IPC: 2.32768 cumulative IPC: 2.29563 (Simulation time: 3 hr 44 min 28 sec) 
 Total Blocks : 196608 Invalid Blocks : 42 Valid Blocks : 196566
 Total Tags : 491520 Threshold : 12288 Invalid Tags : 196656 Pr0 Tags : 98298 Pr1 Tags : 196566 num_pr0 : 12288
 SAE Count : 0
 Inter-Core Inteference in Data Store : 1289936
Heartbeat CPU 4 instructions: 50000002 cycles: 21780525 heartbeat IPC: 2.32774 cumulative IPC: 2.29563 (Simulation time: 3 hr 44 min 28 sec) 
 Total Blocks : 196608 Invalid Blocks : 42 Valid Blocks : 196566
 Total Tags : 491520 Threshold : 12288 Invalid Tags : 196658 Pr0 Tags : 98296 Pr1 Tags : 196566 num_pr0 : 12288
 SAE Count : 0
 Inter-Core Inteference in Data Store : 1289940
Heartbeat CPU 6 instructions: 50000002 cycles: 21780647 heartbeat IPC: 2.32774 cumulative IPC: 2.29562 (Simulation time: 3 hr 44 min 28 sec) 
 Total Blocks : 196608 Invalid Blocks : 42 Valid Blocks : 196566
 Total Tags : 491520 Threshold : 12288 Invalid Tags : 196659 Pr0 Tags : 98295 Pr1 Tags : 196566 num_pr0 : 12288
 SAE Count : 0
 Inter-Core Inteference in Data Store : 1289945
Heartbeat CPU 1 instructions: 50000002 cycles: 21780744 heartbeat IPC: 2.32767 cumulative IPC: 2.29561 (Simulation time: 3 hr 44 min 28 sec) 
 Total Blocks : 196608 Invalid Blocks : 42 Valid Blocks : 196566
 Total Tags : 491520 Threshold : 12288 Invalid Tags : 196655 Pr0 Tags : 98299 Pr1 Tags : 196566 num_pr0 : 12288
 SAE Count : 0
 Inter-Core Inteference in Data Store : 1289952
Heartbeat CPU 5 instructions: 50000002 cycles: 21780897 heartbeat IPC: 2.3277 cumulative IPC: 2.29559 (Simulation time: 3 hr 44 min 29 sec) 
 Total Blocks : 196608 Invalid Blocks : 42 Valid Blocks : 196566
 Total Tags : 491520 Threshold : 12288 Invalid Tags : 196656 Pr0 Tags : 98298 Pr1 Tags : 196566 num_pr0 : 12288
 SAE Count : 0
 Inter-Core Inteference in Data Store : 1289958
Heartbeat CPU 0 instructions: 50000002 cycles: 21781451 heartbeat IPC: 2.32753 cumulative IPC: 2.29553 (Simulation time: 3 hr 44 min 29 sec) 
 Total Blocks : 196608 Invalid Blocks : 42 Valid Blocks : 196566
 Total Tags : 491520 Threshold : 12288 Invalid Tags : 196657 Pr0 Tags : 98297 Pr1 Tags : 196566 num_pr0 : 12288
 SAE Count : 0
 Inter-Core Inteference in Data Store : 1289990
Heartbeat CPU 7 instructions: 60000001 cycles: 26226493 heartbeat IPC: 2.24916 cumulative IPC: 2.28776 (Simulation time: 4 hr 30 min 44 sec) 
 Total Blocks : 196608 Invalid Blocks : 9 Valid Blocks : 196599
 Total Tags : 491520 Threshold : 12288 Invalid Tags : 196627 Pr0 Tags : 98294 Pr1 Tags : 196599 num_pr0 : 12286
 SAE Count : 0
 Inter-Core Inteference in Data Store : 1596762
Heartbeat CPU 2 instructions: 60000001 cycles: 26226707 heartbeat IPC: 2.24902 cumulative IPC: 2.28774 (Simulation time: 4 hr 30 min 45 sec) 
 Total Blocks : 196608 Invalid Blocks : 9 Valid Blocks : 196599
 Total Tags : 491520 Threshold : 12288 Invalid Tags : 196622 Pr0 Tags : 98299 Pr1 Tags : 196599 num_pr0 : 12287
 SAE Count : 0
 Inter-Core Inteference in Data Store : 1596773
Heartbeat CPU 3 instructions: 60000001 cycles: 26226792 heartbeat IPC: 2.24905 cumulative IPC: 2.28774 (Simulation time: 4 hr 30 min 45 sec) 
 Total Blocks : 196608 Invalid Blocks : 9 Valid Blocks : 196599
 Total Tags : 491520 Threshold : 12288 Invalid Tags : 196623 Pr0 Tags : 98298 Pr1 Tags : 196599 num_pr0 : 12287
 SAE Count : 0
 Inter-Core Inteference in Data Store : 1596775
Heartbeat CPU 4 instructions: 60000001 cycles: 26226802 heartbeat IPC: 2.24907 cumulative IPC: 2.28774 (Simulation time: 4 hr 30 min 45 sec) 
 Total Blocks : 196608 Invalid Blocks : 9 Valid Blocks : 196599
 Total Tags : 491520 Threshold : 12288 Invalid Tags : 196623 Pr0 Tags : 98298 Pr1 Tags : 196599 num_pr0 : 12287
 SAE Count : 0
 Inter-Core Inteference in Data Store : 1596775
Heartbeat CPU 6 instructions: 60000001 cycles: 26226976 heartbeat IPC: 2.24905 cumulative IPC: 2.28772 (Simulation time: 4 hr 30 min 45 sec) 
 Total Blocks : 196608 Invalid Blocks : 9 Valid Blocks : 196599
 Total Tags : 491520 Threshold : 12288 Invalid Tags : 196621 Pr0 Tags : 98300 Pr1 Tags : 196599 num_pr0 : 12287
 SAE Count : 0
 Inter-Core Inteference in Data Store : 1596783
Heartbeat CPU 1 instructions: 60000001 cycles: 26227141 heartbeat IPC: 2.24901 cumulative IPC: 2.28771 (Simulation time: 4 hr 30 min 45 sec) 
 Total Blocks : 196608 Invalid Blocks : 9 Valid Blocks : 196599
 Total Tags : 491520 Threshold : 12288 Invalid Tags : 196624 Pr0 Tags : 98297 Pr1 Tags : 196599 num_pr0 : 12287
 SAE Count : 0
 Inter-Core Inteference in Data Store : 1596796
Heartbeat CPU 5 instructions: 60000001 cycles: 26227211 heartbeat IPC: 2.24905 cumulative IPC: 2.2877 (Simulation time: 4 hr 30 min 45 sec) 
 Total Blocks : 196608 Invalid Blocks : 9 Valid Blocks : 196599
 Total Tags : 491520 Threshold : 12288 Invalid Tags : 196623 Pr0 Tags : 98298 Pr1 Tags : 196599 num_pr0 : 12288
 SAE Count : 0
 Inter-Core Inteference in Data Store : 1596800
Heartbeat CPU 0 instructions: 60000001 cycles: 26227990 heartbeat IPC: 2.24894 cumulative IPC: 2.28763 (Simulation time: 4 hr 30 min 46 sec) 
 Total Blocks : 196608 Invalid Blocks : 9 Valid Blocks : 196599
 Total Tags : 491520 Threshold : 12288 Invalid Tags : 196624 Pr0 Tags : 98297 Pr1 Tags : 196599 num_pr0 : 12287
 SAE Count : 0
 Inter-Core Inteference in Data Store : 1596839
Heartbeat CPU 7 instructions: 70000002 cycles: 30521776 heartbeat IPC: 2.32814 cumulative IPC: 2.29344 (Simulation time: 5 hr 14 min 5 sec) 
 Total Blocks : 196608 Invalid Blocks : 1 Valid Blocks : 196607
 Total Tags : 491520 Threshold : 12288 Invalid Tags : 196612 Pr0 Tags : 98301 Pr1 Tags : 196607 num_pr0 : 12288
 SAE Count : 0
 Inter-Core Inteference in Data Store : 1860393
Heartbeat CPU 2 instructions: 70000002 cycles: 30521824 heartbeat IPC: 2.32823 cumulative IPC: 2.29344 (Simulation time: 5 hr 14 min 5 sec) 
 Total Blocks : 196608 Invalid Blocks : 1 Valid Blocks : 196607
 Total Tags : 491520 Threshold : 12288 Invalid Tags : 196612 Pr0 Tags : 98301 Pr1 Tags : 196607 num_pr0 : 12288
 SAE Count : 0
 Inter-Core Inteference in Data Store : 1860393
Heartbeat CPU 3 instructions: 70000002 cycles: 30522029 heartbeat IPC: 2.32816 cumulative IPC: 2.29343 (Simulation time: 5 hr 14 min 5 sec) 
 Total Blocks : 196608 Invalid Blocks : 1 Valid Blocks : 196607
 Total Tags : 491520 Threshold : 12288 Invalid Tags : 196615 Pr0 Tags : 98298 Pr1 Tags : 196607 num_pr0 : 12288
 SAE Count : 0
 Inter-Core Inteference in Data Store : 1860407
Heartbeat CPU 4 instructions: 70000002 cycles: 30522053 heartbeat IPC: 2.32815 cumulative IPC: 2.29342 (Simulation time: 5 hr 14 min 5 sec) 
 Total Blocks : 196608 Invalid Blocks : 1 Valid Blocks : 196607
 Total Tags : 491520 Threshold : 12288 Invalid Tags : 196616 Pr0 Tags : 98297 Pr1 Tags : 196607 num_pr0 : 12287
 SAE Count : 0
 Inter-Core Inteference in Data Store : 1860410
Heartbeat CPU 6 instructions: 70000002 cycles: 30522221 heartbeat IPC: 2.32816 cumulative IPC: 2.29341 (Simulation time: 5 hr 14 min 5 sec) 
 Total Blocks : 196608 Invalid Blocks : 1 Valid Blocks : 196607
 Total Tags : 491520 Threshold : 12288 Invalid Tags : 196616 Pr0 Tags : 98297 Pr1 Tags : 196607 num_pr0 : 12287
 SAE Count : 0
 Inter-Core Inteference in Data Store : 1860420
Heartbeat CPU 5 instructions: 70000002 cycles: 30522419 heartbeat IPC: 2.32818 cumulative IPC: 2.2934 (Simulation time: 5 hr 14 min 5 sec) 
 Total Blocks : 196608 Invalid Blocks : 1 Valid Blocks : 196607
 Total Tags : 491520 Threshold : 12288 Invalid Tags : 196615 Pr0 Tags : 98298 Pr1 Tags : 196607 num_pr0 : 12288
 SAE Count : 0
 Inter-Core Inteference in Data Store : 1860427
Heartbeat CPU 1 instructions: 70000002 cycles: 30522437 heartbeat IPC: 2.32813 cumulative IPC: 2.29339 (Simulation time: 5 hr 14 min 6 sec) 
 Total Blocks : 196608 Invalid Blocks : 1 Valid Blocks : 196607
 Total Tags : 491520 Threshold : 12288 Invalid Tags : 196615 Pr0 Tags : 98298 Pr1 Tags : 196607 num_pr0 : 12288
 SAE Count : 0
 Inter-Core Inteference in Data Store : 1860427
Heartbeat CPU 0 instructions: 70000002 cycles: 30523385 heartbeat IPC: 2.32807 cumulative IPC: 2.29332 (Simulation time: 5 hr 14 min 6 sec) 
 Total Blocks : 196608 Invalid Blocks : 1 Valid Blocks : 196607
 Total Tags : 491520 Threshold : 12288 Invalid Tags : 196619 Pr0 Tags : 98294 Pr1 Tags : 196607 num_pr0 : 12286
 SAE Count : 0
 Inter-Core Inteference in Data Store : 1860490
Heartbeat CPU 7 instructions: 80000001 cycles: 34943966 heartbeat IPC: 2.26132 cumulative IPC: 2.28938 (Simulation time: 6 hr 0 min 58 sec) 
 Total Blocks : 196608 Invalid Blocks : 0 Valid Blocks : 196608
 Total Tags : 491520 Threshold : 12288 Invalid Tags : 196611 Pr0 Tags : 98301 Pr1 Tags : 196608 num_pr0 : 12287
 SAE Count : 0
 Inter-Core Inteference in Data Store : 2142061
Heartbeat CPU 2 instructions: 80000001 cycles: 34944035 heartbeat IPC: 2.26131 cumulative IPC: 2.28938 (Simulation time: 6 hr 0 min 58 sec) 
 Total Blocks : 196608 Invalid Blocks : 0 Valid Blocks : 196608
 Total Tags : 491520 Threshold : 12288 Invalid Tags : 196612 Pr0 Tags : 98300 Pr1 Tags : 196608 num_pr0 : 12287
 SAE Count : 0
 Inter-Core Inteference in Data Store : 2142066
Heartbeat CPU 4 instructions: 80000001 cycles: 34944307 heartbeat IPC: 2.26129 cumulative IPC: 2.28936 (Simulation time: 6 hr 0 min 58 sec) 
 Total Blocks : 196608 Invalid Blocks : 0 Valid Blocks : 196608
 Total Tags : 491520 Threshold : 12288 Invalid Tags : 196611 Pr0 Tags : 98301 Pr1 Tags : 196608 num_pr0 : 12287
 SAE Count : 0
 Inter-Core Inteference in Data Store : 2142083
Heartbeat CPU 3 instructions: 80000001 cycles: 34944315 heartbeat IPC: 2.26127 cumulative IPC: 2.28936 (Simulation time: 6 hr 0 min 58 sec) 
 Total Blocks : 196608 Invalid Blocks : 0 Valid Blocks : 196608
 Total Tags : 491520 Threshold : 12288 Invalid Tags : 196611 Pr0 Tags : 98301 Pr1 Tags : 196608 num_pr0 : 12287
 SAE Count : 0
 Inter-Core Inteference in Data Store : 2142083
Heartbeat CPU 6 instructions: 80000001 cycles: 34944501 heartbeat IPC: 2.26128 cumulative IPC: 2.28934 (Simulation time: 6 hr 0 min 58 sec) 
 Total Blocks : 196608 Invalid Blocks : 0 Valid Blocks : 196608
 Total Tags : 491520 Threshold : 12288 Invalid Tags : 196611 Pr0 Tags : 98301 Pr1 Tags : 196608 num_pr0 : 12287
 SAE Count : 0
 Inter-Core Inteference in Data Store : 2142089
Heartbeat CPU 1 instructions: 80000001 cycles: 34944680 heartbeat IPC: 2.2613 cumulative IPC: 2.28933 (Simulation time: 6 hr 0 min 59 sec) 
 Total Blocks : 196608 Invalid Blocks : 0 Valid Blocks : 196608
 Total Tags : 491520 Threshold : 12288 Invalid Tags : 196609 Pr0 Tags : 98303 Pr1 Tags : 196608 num_pr0 : 12288
 SAE Count : 0
 Inter-Core Inteference in Data Store : 2142099
Heartbeat CPU 5 instructions: 80000001 cycles: 34944701 heartbeat IPC: 2.26128 cumulative IPC: 2.28933 (Simulation time: 6 hr 0 min 59 sec) 
 Total Blocks : 196608 Invalid Blocks : 0 Valid Blocks : 196608
 Total Tags : 491520 Threshold : 12288 Invalid Tags : 196611 Pr0 Tags : 98301 Pr1 Tags : 196608 num_pr0 : 12288
 SAE Count : 0
 Inter-Core Inteference in Data Store : 2142100
Heartbeat CPU 0 instructions: 80000001 cycles: 34945610 heartbeat IPC: 2.2613 cumulative IPC: 2.28927 (Simulation time: 6 hr 0 min 59 sec) 
 Total Blocks : 196608 Invalid Blocks : 0 Valid Blocks : 196608
 Total Tags : 491520 Threshold : 12288 Invalid Tags : 196611 Pr0 Tags : 98301 Pr1 Tags : 196608 num_pr0 : 12287
 SAE Count : 0
 Inter-Core Inteference in Data Store : 2142150
Heartbeat CPU 7 instructions: 90000001 cycles: 39264285 heartbeat IPC: 2.31464 cumulative IPC: 2.29216 (Simulation time: 6 hr 47 min 53 sec) 
 Total Blocks : 196608 Invalid Blocks : 0 Valid Blocks : 196608
 Total Tags : 491520 Threshold : 12288 Invalid Tags : 196616 Pr0 Tags : 98296 Pr1 Tags : 196608 num_pr0 : 12288
 SAE Count : 0
 Inter-Core Inteference in Data Store : 2434342
Heartbeat CPU 2 instructions: 90000001 cycles: 39264306 heartbeat IPC: 2.31467 cumulative IPC: 2.29216 (Simulation time: 6 hr 47 min 53 sec) 
 Total Blocks : 196608 Invalid Blocks : 0 Valid Blocks : 196608
 Total Tags : 491520 Threshold : 12288 Invalid Tags : 196616 Pr0 Tags : 98296 Pr1 Tags : 196608 num_pr0 : 12288
 SAE Count : 0
 Inter-Core Inteference in Data Store : 2434342
Heartbeat CPU 4 instructions: 90000001 cycles: 39264686 heartbeat IPC: 2.31461 cumulative IPC: 2.29214 (Simulation time: 6 hr 47 min 53 sec) 
 Total Blocks : 196608 Invalid Blocks : 0 Valid Blocks : 196608
 Total Tags : 491520 Threshold : 12288 Invalid Tags : 196611 Pr0 Tags : 98301 Pr1 Tags : 196608 num_pr0 : 12287
 SAE Count : 0
 Inter-Core Inteference in Data Store : 2434365
Heartbeat CPU 3 instructions: 90000001 cycles: 39264736 heartbeat IPC: 2.31459 cumulative IPC: 2.29213 (Simulation time: 6 hr 47 min 53 sec) 
 Total Blocks : 196608 Invalid Blocks : 0 Valid Blocks : 196608
 Total Tags : 491520 Threshold : 12288 Invalid Tags : 196612 Pr0 Tags : 98300 Pr1 Tags : 196608 num_pr0 : 12287
 SAE Count : 0
 Inter-Core Inteference in Data Store : 2434367
Heartbeat CPU 6 instructions: 90000001 cycles: 39264888 heartbeat IPC: 2.31461 cumulative IPC: 2.29212 (Simulation time: 6 hr 47 min 53 sec) 
 Total Blocks : 196608 Invalid Blocks : 0 Valid Blocks : 196608
 Total Tags : 491520 Threshold : 12288 Invalid Tags : 196617 Pr0 Tags : 98295 Pr1 Tags : 196608 num_pr0 : 12286
 SAE Count : 0
 Inter-Core Inteference in Data Store : 2434379
Heartbeat CPU 5 instructions: 90000001 cycles: 39265165 heartbeat IPC: 2.31457 cumulative IPC: 2.29211 (Simulation time: 6 hr 47 min 54 sec) 
 Total Blocks : 196608 Invalid Blocks : 0 Valid Blocks : 196608
 Total Tags : 491520 Threshold : 12288 Invalid Tags : 196611 Pr0 Tags : 98301 Pr1 Tags : 196608 num_pr0 : 12288
 SAE Count : 0
 Inter-Core Inteference in Data Store : 2434394
Heartbeat CPU 1 instructions: 90000001 cycles: 39265238 heartbeat IPC: 2.31452 cumulative IPC: 2.2921 (Simulation time: 6 hr 47 min 54 sec) 
 Total Blocks : 196608 Invalid Blocks : 0 Valid Blocks : 196608
 Total Tags : 491520 Threshold : 12288 Invalid Tags : 196611 Pr0 Tags : 98301 Pr1 Tags : 196608 num_pr0 : 12288
 SAE Count : 0
 Inter-Core Inteference in Data Store : 2434398
Heartbeat CPU 0 instructions: 90000001 cycles: 39266224 heartbeat IPC: 2.31449 cumulative IPC: 2.29205 (Simulation time: 6 hr 47 min 55 sec) 
 Total Blocks : 196608 Invalid Blocks : 0 Valid Blocks : 196608
 Total Tags : 491520 Threshold : 12288 Invalid Tags : 196614 Pr0 Tags : 98298 Pr1 Tags : 196608 num_pr0 : 12288
 SAE Count : 0
 Inter-Core Inteference in Data Store : 2434468
Heartbeat CPU 7 instructions: 100000001 cycles: 43617704 heartbeat IPC: 2.29705 cumulative IPC: 2.29265 (Simulation time: 7 hr 35 min 39 sec) 
 Total Blocks : 196608 Invalid Blocks : 0 Valid Blocks : 196608
 Total Tags : 491520 Threshold : 12288 Invalid Tags : 196612 Pr0 Tags : 98300 Pr1 Tags : 196608 num_pr0 : 12287
 SAE Count : 0
 Inter-Core Inteference in Data Store : 2706639
Heartbeat CPU 2 instructions: 100000001 cycles: 43617853 heartbeat IPC: 2.29698 cumulative IPC: 2.29264 (Simulation time: 7 hr 35 min 40 sec) 
 Total Blocks : 196608 Invalid Blocks : 0 Valid Blocks : 196608
 Total Tags : 491520 Threshold : 12288 Invalid Tags : 196612 Pr0 Tags : 98300 Pr1 Tags : 196608 num_pr0 : 12287
 SAE Count : 0
 Inter-Core Inteference in Data Store : 2706647
Heartbeat CPU 4 instructions: 100000001 cycles: 43618225 heartbeat IPC: 2.29698 cumulative IPC: 2.29262 (Simulation time: 7 hr 35 min 40 sec) 
 Total Blocks : 196608 Invalid Blocks : 0 Valid Blocks : 196608
 Total Tags : 491520 Threshold : 12288 Invalid Tags : 196611 Pr0 Tags : 98301 Pr1 Tags : 196608 num_pr0 : 12288
 SAE Count : 0
 Inter-Core Inteference in Data Store : 2706666
Heartbeat CPU 3 instructions: 100000001 cycles: 43618323 heartbeat IPC: 2.29696 cumulative IPC: 2.29261 (Simulation time: 7 hr 35 min 40 sec) 
 Total Blocks : 196608 Invalid Blocks : 0 Valid Blocks : 196608
 Total Tags : 491520 Threshold : 12288 Invalid Tags : 196612 Pr0 Tags : 98300 Pr1 Tags : 196608 num_pr0 : 12288
 SAE Count : 0
 Inter-Core Inteference in Data Store : 2706667
Heartbeat CPU 6 instructions: 100000001 cycles: 43618507 heartbeat IPC: 2.29694 cumulative IPC: 2.2926 (Simulation time: 7 hr 35 min 40 sec) 
 Total Blocks : 196608 Invalid Blocks : 0 Valid Blocks : 196608
 Total Tags : 491520 Threshold : 12288 Invalid Tags : 196612 Pr0 Tags : 98300 Pr1 Tags : 196608 num_pr0 : 12287
 SAE Count : 0
 Inter-Core Inteference in Data Store : 2706676
Heartbeat CPU 5 instructions: 100000001 cycles: 43618774 heartbeat IPC: 2.29694 cumulative IPC: 2.29259 (Simulation time: 7 hr 35 min 40 sec) 
 Total Blocks : 196608 Invalid Blocks : 0 Valid Blocks : 196608
 Total Tags : 491520 Threshold : 12288 Invalid Tags : 196611 Pr0 Tags : 98301 Pr1 Tags : 196608 num_pr0 : 12288
 SAE Count : 0
 Inter-Core Inteference in Data Store : 2706693
Heartbeat CPU 1 instructions: 100000001 cycles: 43618850 heartbeat IPC: 2.29694 cumulative IPC: 2.29259 (Simulation time: 7 hr 35 min 40 sec) 
 Total Blocks : 196608 Invalid Blocks : 0 Valid Blocks : 196608
 Total Tags : 491520 Threshold : 12288 Invalid Tags : 196611 Pr0 Tags : 98301 Pr1 Tags : 196608 num_pr0 : 12288
 SAE Count : 0
 Inter-Core Inteference in Data Store : 2706699
Heartbeat CPU 0 instructions: 100000001 cycles: 43619826 heartbeat IPC: 2.29695 cumulative IPC: 2.29254 (Simulation time: 7 hr 35 min 41 sec) 
 Total Blocks : 196608 Invalid Blocks : 0 Valid Blocks : 196608
 Total Tags : 491520 Threshold : 12288 Invalid Tags : 196611 Pr0 Tags : 98301 Pr1 Tags : 196608 num_pr0 : 12288
 SAE Count : 0
 Inter-Core Inteference in Data Store : 2706762
Heartbeat CPU 7 instructions: 110000000 cycles: 48006715 heartbeat IPC: 2.27842 cumulative IPC: 2.29135 (Simulation time: 8 hr 24 min 21 sec) 
 Total Blocks : 196608 Invalid Blocks : 0 Valid Blocks : 196608
 Total Tags : 491520 Threshold : 12288 Invalid Tags : 196612 Pr0 Tags : 98300 Pr1 Tags : 196608 num_pr0 : 12288
 SAE Count : 0
 Inter-Core Inteference in Data Store : 3007029
Heartbeat CPU 2 instructions: 110000000 cycles: 48006799 heartbeat IPC: 2.27845 cumulative IPC: 2.29134 (Simulation time: 8 hr 24 min 21 sec) 
 Total Blocks : 196608 Invalid Blocks : 0 Valid Blocks : 196608
 Total Tags : 491520 Threshold : 12288 Invalid Tags : 196612 Pr0 Tags : 98300 Pr1 Tags : 196608 num_pr0 : 12287
 SAE Count : 0
 Inter-Core Inteference in Data Store : 3007034
Heartbeat CPU 3 instructions: 110000000 cycles: 48007332 heartbeat IPC: 2.27842 cumulative IPC: 2.29132 (Simulation time: 8 hr 24 min 21 sec) 
 Total Blocks : 196608 Invalid Blocks : 0 Valid Blocks : 196608
 Total Tags : 491520 Threshold : 12288 Invalid Tags : 196617 Pr0 Tags : 98295 Pr1 Tags : 196608 num_pr0 : 12287
 SAE Count : 0
 Inter-Core Inteference in Data Store : 3007061
Heartbeat CPU 4 instructions: 110000000 cycles: 48007350 heartbeat IPC: 2.27836 cumulative IPC: 2.29132 (Simulation time: 8 hr 24 min 21 sec) 
 Total Blocks : 196608 Invalid Blocks : 0 Valid Blocks : 196608
 Total Tags : 491520 Threshold : 12288 Invalid Tags : 196617 Pr0 Tags : 98295 Pr1 Tags : 196608 num_pr0 : 12287
 SAE Count : 0
 Inter-Core Inteference in Data Store : 3007061
Heartbeat CPU 6 instructions: 110000000 cycles: 48007573 heartbeat IPC: 2.27839 cumulative IPC: 2.29131 (Simulation time: 8 hr 24 min 21 sec) 
 Total Blocks : 196608 Invalid Blocks : 0 Valid Blocks : 196608
 Total Tags : 491520 Threshold : 12288 Invalid Tags : 196615 Pr0 Tags : 98297 Pr1 Tags : 196608 num_pr0 : 12287
 SAE Count : 0
 Inter-Core Inteference in Data Store : 3007081
Heartbeat CPU 1 instructions: 110000000 cycles: 48007854 heartbeat IPC: 2.27842 cumulative IPC: 2.29129 (Simulation time: 8 hr 24 min 22 sec) 
 Total Blocks : 196608 Invalid Blocks : 0 Valid Blocks : 196608
 Total Tags : 491520 Threshold : 12288 Invalid Tags : 196611 Pr0 Tags : 98301 Pr1 Tags : 196608 num_pr0 : 12288
 SAE Count : 0
 Inter-Core Inteference in Data Store : 3007093
Heartbeat CPU 5 instructions: 110000000 cycles: 48007871 heartbeat IPC: 2.27837 cumulative IPC: 2.29129 (Simulation time: 8 hr 24 min 22 sec) 
 Total Blocks : 196608 Invalid Blocks : 0 Valid Blocks : 196608
 Total Tags : 491520 Threshold : 12288 Invalid Tags : 196611 Pr0 Tags : 98301 Pr1 Tags : 196608 num_pr0 : 12288
 SAE Count : 0
 Inter-Core Inteference in Data Store : 3007093
Heartbeat CPU 0 instructions: 110000000 cycles: 48008865 heartbeat IPC: 2.2784 cumulative IPC: 2.29124 (Simulation time: 8 hr 24 min 22 sec) 
 Total Blocks : 196608 Invalid Blocks : 0 Valid Blocks : 196608
 Total Tags : 491520 Threshold : 12288 Invalid Tags : 196616 Pr0 Tags : 98296 Pr1 Tags : 196608 num_pr0 : 12287
 SAE Count : 0
 Inter-Core Inteference in Data Store : 3007149
Heartbeat CPU 7 instructions: 120000003 cycles: 52308477 heartbeat IPC: 2.32463 cumulative IPC: 2.29408 (Simulation time: 9 hr 10 min 32 sec) 
 Total Blocks : 196608 Invalid Blocks : 0 Valid Blocks : 196608
 Total Tags : 491520 Threshold : 12288 Invalid Tags : 196612 Pr0 Tags : 98300 Pr1 Tags : 196608 num_pr0 : 12288
 SAE Count : 0
 Inter-Core Inteference in Data Store : 3276352
Heartbeat CPU 2 instructions: 120000003 cycles: 52308578 heartbeat IPC: 2.32462 cumulative IPC: 2.29408 (Simulation time: 9 hr 10 min 32 sec) 
 Total Blocks : 196608 Invalid Blocks : 0 Valid Blocks : 196608
 Total Tags : 491520 Threshold : 12288 Invalid Tags : 196611 Pr0 Tags : 98301 Pr1 Tags : 196608 num_pr0 : 12287
 SAE Count : 0
 Inter-Core Inteference in Data Store : 3276365
Heartbeat CPU 3 instructions: 120000003 cycles: 52309140 heartbeat IPC: 2.3246 cumulative IPC: 2.29405 (Simulation time: 9 hr 10 min 33 sec) 
 Total Blocks : 196608 Invalid Blocks : 0 Valid Blocks : 196608
 Total Tags : 491520 Threshold : 12288 Invalid Tags : 196609 Pr0 Tags : 98303 Pr1 Tags : 196608 num_pr0 : 12288
 SAE Count : 0
 Inter-Core Inteference in Data Store : 3276403
Heartbeat CPU 4 instructions: 120000003 cycles: 52309144 heartbeat IPC: 2.32461 cumulative IPC: 2.29405 (Simulation time: 9 hr 10 min 33 sec) 
 Total Blocks : 196608 Invalid Blocks : 0 Valid Blocks : 196608
 Total Tags : 491520 Threshold : 12288 Invalid Tags : 196609 Pr0 Tags : 98303 Pr1 Tags : 196608 num_pr0 : 12288
 SAE Count : 0
 Inter-Core Inteference in Data Store : 3276403
Heartbeat CPU 6 instructions: 120000003 cycles: 52309384 heartbeat IPC: 2.3246 cumulative IPC: 2.29404 (Simulation time: 9 hr 10 min 33 sec) 
 Total Blocks : 196608 Invalid Blocks : 0 Valid Blocks : 196608
 Total Tags : 491520 Threshold : 12288 Invalid Tags : 196609 Pr0 Tags : 98303 Pr1 Tags : 196608 num_pr0 : 12288
 SAE Count : 0
 Inter-Core Inteference in Data Store : 3276418
Heartbeat CPU 5 instructions: 120000003 cycles: 52309689 heartbeat IPC: 2.3246 cumulative IPC: 2.29403 (Simulation time: 9 hr 10 min 33 sec) 
 Total Blocks : 196608 Invalid Blocks : 0 Valid Blocks : 196608
 Total Tags : 491520 Threshold : 12288 Invalid Tags : 196611 Pr0 Tags : 98301 Pr1 Tags : 196608 num_pr0 : 12287
 SAE Count : 0
 Inter-Core Inteference in Data Store : 3276453
Heartbeat CPU 1 instructions: 120000003 cycles: 52309707 heartbeat IPC: 2.32458 cumulative IPC: 2.29403 (Simulation time: 9 hr 10 min 33 sec) 
 Total Blocks : 196608 Invalid Blocks : 0 Valid Blocks : 196608
 Total Tags : 491520 Threshold : 12288 Invalid Tags : 196610 Pr0 Tags : 98302 Pr1 Tags : 196608 num_pr0 : 12287
 SAE Count : 0
 Inter-Core Inteference in Data Store : 3276455
Heartbeat CPU 0 instructions: 120000003 cycles: 52310750 heartbeat IPC: 2.32456 cumulative IPC: 2.29398 (Simulation time: 9 hr 10 min 34 sec) 
 Total Blocks : 196608 Invalid Blocks : 0 Valid Blocks : 196608
 Total Tags : 491520 Threshold : 12288 Invalid Tags : 196608 Pr0 Tags : 98304 Pr1 Tags : 196608 num_pr0 : 12288
 SAE Count : 0
 Inter-Core Inteference in Data Store : 3276527
Heartbeat CPU 7 instructions: 130000003 cycles: 56846422 heartbeat IPC: 2.20364 cumulative IPC: 2.28686 (Simulation time: 10 hr 14 min 0 sec) 
 Total Blocks : 196608 Invalid Blocks : 0 Valid Blocks : 196608
 Total Tags : 491520 Threshold : 12288 Invalid Tags : 196608 Pr0 Tags : 98304 Pr1 Tags : 196608 num_pr0 : 12288
 SAE Count : 0
 Inter-Core Inteference in Data Store : 3570348
Heartbeat CPU 2 instructions: 130000003 cycles: 56846646 heartbeat IPC: 2.20358 cumulative IPC: 2.28685 (Simulation time: 10 hr 14 min 0 sec) 
 Total Blocks : 196608 Invalid Blocks : 0 Valid Blocks : 196608
 Total Tags : 491520 Threshold : 12288 Invalid Tags : 196608 Pr0 Tags : 98304 Pr1 Tags : 196608 num_pr0 : 12288
 SAE Count : 0
 Inter-Core Inteference in Data Store : 3570354
Heartbeat CPU 3 instructions: 130000003 cycles: 56847120 heartbeat IPC: 2.20362 cumulative IPC: 2.28684 (Simulation time: 10 hr 14 min 2 sec) 
 Total Blocks : 196608 Invalid Blocks : 0 Valid Blocks : 196608
 Total Tags : 491520 Threshold : 12288 Invalid Tags : 196608 Pr0 Tags : 98304 Pr1 Tags : 196608 num_pr0 : 12288
 SAE Count : 0
 Inter-Core Inteference in Data Store : 3570370
Heartbeat CPU 4 instructions: 130000003 cycles: 56847189 heartbeat IPC: 2.20359 cumulative IPC: 2.28683 (Simulation time: 10 hr 14 min 2 sec) 
 Total Blocks : 196608 Invalid Blocks : 0 Valid Blocks : 196608
 Total Tags : 491520 Threshold : 12288 Invalid Tags : 196608 Pr0 Tags : 98304 Pr1 Tags : 196608 num_pr0 : 12288
 SAE Count : 0
 Inter-Core Inteference in Data Store : 3570370
Heartbeat CPU 6 instructions: 130000003 cycles: 56847502 heartbeat IPC: 2.20356 cumulative IPC: 2.28682 (Simulation time: 10 hr 14 min 3 sec) 
 Total Blocks : 196608 Invalid Blocks : 0 Valid Blocks : 196608
 Total Tags : 491520 Threshold : 12288 Invalid Tags : 196608 Pr0 Tags : 98304 Pr1 Tags : 196608 num_pr0 : 12288
 SAE Count : 0
 Inter-Core Inteference in Data Store : 3570388
Heartbeat CPU 1 instructions: 130000003 cycles: 56847797 heartbeat IPC: 2.20357 cumulative IPC: 2.28681 (Simulation time: 10 hr 14 min 4 sec) 
 Total Blocks : 196608 Invalid Blocks : 0 Valid Blocks : 196608
 Total Tags : 491520 Threshold : 12288 Invalid Tags : 196608 Pr0 Tags : 98304 Pr1 Tags : 196608 num_pr0 : 12288
 SAE Count : 0
 Inter-Core Inteference in Data Store : 3570393
Heartbeat CPU 5 instructions: 130000003 cycles: 56847960 heartbeat IPC: 2.20348 cumulative IPC: 2.2868 (Simulation time: 10 hr 14 min 4 sec) 
 Total Blocks : 196608 Invalid Blocks : 0 Valid Blocks : 196608
 Total Tags : 491520 Threshold : 12288 Invalid Tags : 196608 Pr0 Tags : 98304 Pr1 Tags : 196608 num_pr0 : 12288
 SAE Count : 0
 Inter-Core Inteference in Data Store : 3570403
Heartbeat CPU 0 instructions: 130000003 cycles: 56848818 heartbeat IPC: 2.20358 cumulative IPC: 2.28677 (Simulation time: 10 hr 14 min 7 sec) 
 Total Blocks : 196608 Invalid Blocks : 0 Valid Blocks : 196608
 Total Tags : 491520 Threshold : 12288 Invalid Tags : 196608 Pr0 Tags : 98304 Pr1 Tags : 196608 num_pr0 : 12288
 SAE Count : 0
 Inter-Core Inteference in Data Store : 3570461
Heartbeat CPU 7 instructions: 140000002 cycles: 61543036 heartbeat IPC: 2.12919 cumulative IPC: 2.27483 (Simulation time: 12 hr 12 min 45 sec) 
 Total Blocks : 196608 Invalid Blocks : 0 Valid Blocks : 196608
 Total Tags : 491520 Threshold : 12288 Invalid Tags : 196608 Pr0 Tags : 98304 Pr1 Tags : 196608 num_pr0 : 12288
 SAE Count : 0
 Inter-Core Inteference in Data Store : 3620067
Heartbeat CPU 2 instructions: 140000002 cycles: 61543245 heartbeat IPC: 2.1292 cumulative IPC: 2.27482 (Simulation time: 12 hr 12 min 46 sec) 
 Total Blocks : 196608 Invalid Blocks : 0 Valid Blocks : 196608
 Total Tags : 491520 Threshold : 12288 Invalid Tags : 196608 Pr0 Tags : 98304 Pr1 Tags : 196608 num_pr0 : 12288
 SAE Count : 0
 Inter-Core Inteference in Data Store : 3620068
Heartbeat CPU 3 instructions: 140000002 cycles: 61543738 heartbeat IPC: 2.12919 cumulative IPC: 2.27481 (Simulation time: 12 hr 12 min 46 sec) 
 Total Blocks : 196608 Invalid Blocks : 0 Valid Blocks : 196608
 Total Tags : 491520 Threshold : 12288 Invalid Tags : 196608 Pr0 Tags : 98304 Pr1 Tags : 196608 num_pr0 : 12288
 SAE Count : 0
 Inter-Core Inteference in Data Store : 3620077
Heartbeat CPU 4 instructions: 140000002 cycles: 61543804 heartbeat IPC: 2.12919 cumulative IPC: 2.2748 (Simulation time: 12 hr 12 min 47 sec) 
 Total Blocks : 196608 Invalid Blocks : 0 Valid Blocks : 196608
 Total Tags : 491520 Threshold : 12288 Invalid Tags : 196608 Pr0 Tags : 98304 Pr1 Tags : 196608 num_pr0 : 12288
 SAE Count : 0
 Inter-Core Inteference in Data Store : 3620077
Heartbeat CPU 6 instructions: 140000002 cycles: 61544103 heartbeat IPC: 2.1292 cumulative IPC: 2.27479 (Simulation time: 12 hr 12 min 47 sec) 
 Total Blocks : 196608 Invalid Blocks : 0 Valid Blocks : 196608
 Total Tags : 491520 Threshold : 12288 Invalid Tags : 196608 Pr0 Tags : 98304 Pr1 Tags : 196608 num_pr0 : 12288
 SAE Count : 0
 Inter-Core Inteference in Data Store : 3620080
Heartbeat CPU 1 instructions: 140000002 cycles: 61544392 heartbeat IPC: 2.1292 cumulative IPC: 2.27478 (Simulation time: 12 hr 12 min 47 sec) 
 Total Blocks : 196608 Invalid Blocks : 0 Valid Blocks : 196608
 Total Tags : 491520 Threshold : 12288 Invalid Tags : 196608 Pr0 Tags : 98304 Pr1 Tags : 196608 num_pr0 : 12288
 SAE Count : 0
 Inter-Core Inteference in Data Store : 3620081
Heartbeat CPU 5 instructions: 140000002 cycles: 61544571 heartbeat IPC: 2.12919 cumulative IPC: 2.27477 (Simulation time: 12 hr 12 min 48 sec) 
 Total Blocks : 196608 Invalid Blocks : 0 Valid Blocks : 196608
 Total Tags : 491520 Threshold : 12288 Invalid Tags : 196608 Pr0 Tags : 98304 Pr1 Tags : 196608 num_pr0 : 12288
 SAE Count : 0
 Inter-Core Inteference in Data Store : 3620084
Heartbeat CPU 0 instructions: 140000002 cycles: 61545423 heartbeat IPC: 2.1292 cumulative IPC: 2.27474 (Simulation time: 12 hr 12 min 49 sec) 
 Total Blocks : 196608 Invalid Blocks : 0 Valid Blocks : 196608
 Total Tags : 491520 Threshold : 12288 Invalid Tags : 196608 Pr0 Tags : 98304 Pr1 Tags : 196608 num_pr0 : 12288
 SAE Count : 0
 Inter-Core Inteference in Data Store : 3620091
Heartbeat CPU 7 instructions: 150000002 cycles: 66239626 heartbeat IPC: 2.1292 cumulative IPC: 2.26451 (Simulation time: 14 hr 22 min 5 sec) 
 Total Blocks : 196608 Invalid Blocks : 0 Valid Blocks : 196608
 Total Tags : 491520 Threshold : 12288 Invalid Tags : 196608 Pr0 Tags : 98304 Pr1 Tags : 196608 num_pr0 : 12288
 SAE Count : 0
 Inter-Core Inteference in Data Store : 3666292
Heartbeat CPU 2 instructions: 150000002 cycles: 66239825 heartbeat IPC: 2.12921 cumulative IPC: 2.2645 (Simulation time: 14 hr 22 min 6 sec) 
 Total Blocks : 196608 Invalid Blocks : 0 Valid Blocks : 196608
 Total Tags : 491520 Threshold : 12288 Invalid Tags : 196608 Pr0 Tags : 98304 Pr1 Tags : 196608 num_pr0 : 12288
 SAE Count : 0
 Inter-Core Inteference in Data Store : 3666295
Heartbeat CPU 3 instructions: 150000002 cycles: 66240323 heartbeat IPC: 2.12921 cumulative IPC: 2.26448 (Simulation time: 14 hr 22 min 6 sec) 
 Total Blocks : 196608 Invalid Blocks : 0 Valid Blocks : 196608
 Total Tags : 491520 Threshold : 12288 Invalid Tags : 196608 Pr0 Tags : 98304 Pr1 Tags : 196608 num_pr0 : 12288
 SAE Count : 0
 Inter-Core Inteference in Data Store : 3666299
Heartbeat CPU 4 instructions: 150000002 cycles: 66240379 heartbeat IPC: 2.12921 cumulative IPC: 2.26448 (Simulation time: 14 hr 22 min 6 sec) 
 Total Blocks : 196608 Invalid Blocks : 0 Valid Blocks : 196608
 Total Tags : 491520 Threshold : 12288 Invalid Tags : 196608 Pr0 Tags : 98304 Pr1 Tags : 196608 num_pr0 : 12288
 SAE Count : 0
 Inter-Core Inteference in Data Store : 3666299
Heartbeat CPU 6 instructions: 150000002 cycles: 66240681 heartbeat IPC: 2.12921 cumulative IPC: 2.26447 (Simulation time: 14 hr 22 min 7 sec) 
 Total Blocks : 196608 Invalid Blocks : 0 Valid Blocks : 196608
 Total Tags : 491520 Threshold : 12288 Invalid Tags : 196608 Pr0 Tags : 98304 Pr1 Tags : 196608 num_pr0 : 12288
 SAE Count : 0
 Inter-Core Inteference in Data Store : 3666300
Heartbeat CPU 1 instructions: 150000002 cycles: 66240979 heartbeat IPC: 2.12921 cumulative IPC: 2.26446 (Simulation time: 14 hr 22 min 7 sec) 
 Total Blocks : 196608 Invalid Blocks : 0 Valid Blocks : 196608
 Total Tags : 491520 Threshold : 12288 Invalid Tags : 196608 Pr0 Tags : 98304 Pr1 Tags : 196608 num_pr0 : 12288
 SAE Count : 0
 Inter-Core Inteference in Data Store : 3666304
Heartbeat CPU 5 instructions: 150000002 cycles: 66241156 heartbeat IPC: 2.12921 cumulative IPC: 2.26445 (Simulation time: 14 hr 22 min 7 sec) 
 Total Blocks : 196608 Invalid Blocks : 0 Valid Blocks : 196608
 Total Tags : 491520 Threshold : 12288 Invalid Tags : 196608 Pr0 Tags : 98304 Pr1 Tags : 196608 num_pr0 : 12288
 SAE Count : 0
 Inter-Core Inteference in Data Store : 3666304
Heartbeat CPU 0 instructions: 150000002 cycles: 66241991 heartbeat IPC: 2.12921 cumulative IPC: 2.26442 (Simulation time: 14 hr 22 min 7 sec) 
 Total Blocks : 196608 Invalid Blocks : 0 Valid Blocks : 196608
 Total Tags : 491520 Threshold : 12288 Invalid Tags : 196608 Pr0 Tags : 98304 Pr1 Tags : 196608 num_pr0 : 12288
 SAE Count : 0
 Inter-Core Inteference in Data Store : 3666314
Heartbeat CPU 7 instructions: 160000002 cycles: 70936215 heartbeat IPC: 2.1292 cumulative IPC: 2.25555 (Simulation time: 16 hr 32 min 25 sec) 
 Total Blocks : 196608 Invalid Blocks : 0 Valid Blocks : 196608
 Total Tags : 491520 Threshold : 12288 Invalid Tags : 196608 Pr0 Tags : 98304 Pr1 Tags : 196608 num_pr0 : 12288
 SAE Count : 0
 Inter-Core Inteference in Data Store : 3712201
Heartbeat CPU 2 instructions: 160000002 cycles: 70936394 heartbeat IPC: 2.12921 cumulative IPC: 2.25554 (Simulation time: 16 hr 32 min 25 sec) 
 Total Blocks : 196608 Invalid Blocks : 0 Valid Blocks : 196608
 Total Tags : 491520 Threshold : 12288 Invalid Tags : 196608 Pr0 Tags : 98304 Pr1 Tags : 196608 num_pr0 : 12288
 SAE Count : 0
 Inter-Core Inteference in Data Store : 3712203
Heartbeat CPU 3 instructions: 160000002 cycles: 70936908 heartbeat IPC: 2.12921 cumulative IPC: 2.25553 (Simulation time: 16 hr 32 min 26 sec) 
 Total Blocks : 196608 Invalid Blocks : 0 Valid Blocks : 196608
 Total Tags : 491520 Threshold : 12288 Invalid Tags : 196608 Pr0 Tags : 98304 Pr1 Tags : 196608 num_pr0 : 12288
 SAE Count : 0
 Inter-Core Inteference in Data Store : 3712210
Heartbeat CPU 4 instructions: 160000002 cycles: 70936942 heartbeat IPC: 2.12922 cumulative IPC: 2.25552 (Simulation time: 16 hr 32 min 26 sec) 
 Total Blocks : 196608 Invalid Blocks : 0 Valid Blocks : 196608
 Total Tags : 491520 Threshold : 12288 Invalid Tags : 196608 Pr0 Tags : 98304 Pr1 Tags : 196608 num_pr0 : 12288
 SAE Count : 0
 Inter-Core Inteference in Data Store : 3712210
Heartbeat CPU 6 instructions: 160000002 cycles: 70937254 heartbeat IPC: 2.12921 cumulative IPC: 2.25551 (Simulation time: 16 hr 32 min 26 sec) 
 Total Blocks : 196608 Invalid Blocks : 0 Valid Blocks : 196608
 Total Tags : 491520 Threshold : 12288 Invalid Tags : 196608 Pr0 Tags : 98304 Pr1 Tags : 196608 num_pr0 : 12288
 SAE Count : 0
 Inter-Core Inteference in Data Store : 3712213
Heartbeat CPU 1 instructions: 160000002 cycles: 70937552 heartbeat IPC: 2.12921 cumulative IPC: 2.25551 (Simulation time: 16 hr 32 min 26 sec) 
 Total Blocks : 196608 Invalid Blocks : 0 Valid Blocks : 196608
 Total Tags : 491520 Threshold : 12288 Invalid Tags : 196608 Pr0 Tags : 98304 Pr1 Tags : 196608 num_pr0 : 12288
 SAE Count : 0
 Inter-Core Inteference in Data Store : 3712215
Heartbeat CPU 5 instructions: 160000002 cycles: 70937728 heartbeat IPC: 2.12921 cumulative IPC: 2.2555 (Simulation time: 16 hr 32 min 27 sec) 
 Total Blocks : 196608 Invalid Blocks : 0 Valid Blocks : 196608
 Total Tags : 491520 Threshold : 12288 Invalid Tags : 196608 Pr0 Tags : 98304 Pr1 Tags : 196608 num_pr0 : 12288
 SAE Count : 0
 Inter-Core Inteference in Data Store : 3712218
Heartbeat CPU 0 instructions: 160000002 cycles: 70938577 heartbeat IPC: 2.12921 cumulative IPC: 2.25547 (Simulation time: 16 hr 32 min 30 sec) 
 Total Blocks : 196608 Invalid Blocks : 0 Valid Blocks : 196608
 Total Tags : 491520 Threshold : 12288 Invalid Tags : 196608 Pr0 Tags : 98304 Pr1 Tags : 196608 num_pr0 : 12288
 SAE Count : 0
 Inter-Core Inteference in Data Store : 3712223
Heartbeat CPU 7 instructions: 170000002 cycles: 75632859 heartbeat IPC: 2.12918 cumulative IPC: 2.2477 (Simulation time: 18 hr 41 min 59 sec) 
 Total Blocks : 196608 Invalid Blocks : 0 Valid Blocks : 196608
 Total Tags : 491520 Threshold : 12288 Invalid Tags : 196608 Pr0 Tags : 98304 Pr1 Tags : 196608 num_pr0 : 12288
 SAE Count : 0
 Inter-Core Inteference in Data Store : 3758142
Heartbeat CPU 2 instructions: 170000002 cycles: 75633040 heartbeat IPC: 2.12918 cumulative IPC: 2.24769 (Simulation time: 18 hr 42 min 0 sec) 
 Total Blocks : 196608 Invalid Blocks : 0 Valid Blocks : 196608
 Total Tags : 491520 Threshold : 12288 Invalid Tags : 196608 Pr0 Tags : 98304 Pr1 Tags : 196608 num_pr0 : 12288
 SAE Count : 0
 Inter-Core Inteference in Data Store : 3758142
Heartbeat CPU 3 instructions: 170000002 cycles: 75633573 heartbeat IPC: 2.12917 cumulative IPC: 2.24768 (Simulation time: 18 hr 42 min 0 sec) 
 Total Blocks : 196608 Invalid Blocks : 0 Valid Blocks : 196608
 Total Tags : 491520 Threshold : 12288 Invalid Tags : 196608 Pr0 Tags : 98304 Pr1 Tags : 196608 num_pr0 : 12288
 SAE Count : 0
 Inter-Core Inteference in Data Store : 3758147
Heartbeat CPU 4 instructions: 170000002 cycles: 75633589 heartbeat IPC: 2.12918 cumulative IPC: 2.24768 (Simulation time: 18 hr 42 min 0 sec) 
 Total Blocks : 196608 Invalid Blocks : 0 Valid Blocks : 196608
 Total Tags : 491520 Threshold : 12288 Invalid Tags : 196608 Pr0 Tags : 98304 Pr1 Tags : 196608 num_pr0 : 12288
 SAE Count : 0
 Inter-Core Inteference in Data Store : 3758147
Heartbeat CPU 6 instructions: 170000002 cycles: 75633901 heartbeat IPC: 2.12918 cumulative IPC: 2.24767 (Simulation time: 18 hr 42 min 1 sec) 
 Total Blocks : 196608 Invalid Blocks : 0 Valid Blocks : 196608
 Total Tags : 491520 Threshold : 12288 Invalid Tags : 196608 Pr0 Tags : 98304 Pr1 Tags : 196608 num_pr0 : 12288
 SAE Count : 0
 Inter-Core Inteference in Data Store : 3758149
Heartbeat CPU 1 instructions: 170000002 cycles: 75634208 heartbeat IPC: 2.12917 cumulative IPC: 2.24766 (Simulation time: 18 hr 42 min 2 sec) 
 Total Blocks : 196608 Invalid Blocks : 0 Valid Blocks : 196608
 Total Tags : 491520 Threshold : 12288 Invalid Tags : 196608 Pr0 Tags : 98304 Pr1 Tags : 196608 num_pr0 : 12288
 SAE Count : 0
 Inter-Core Inteference in Data Store : 3758154
Heartbeat CPU 5 instructions: 170000002 cycles: 75634378 heartbeat IPC: 2.12918 cumulative IPC: 2.24766 (Simulation time: 18 hr 42 min 2 sec) 
 Total Blocks : 196608 Invalid Blocks : 0 Valid Blocks : 196608
 Total Tags : 491520 Threshold : 12288 Invalid Tags : 196608 Pr0 Tags : 98304 Pr1 Tags : 196608 num_pr0 : 12288
 SAE Count : 0
 Inter-Core Inteference in Data Store : 3758155
Heartbeat CPU 0 instructions: 170000002 cycles: 75635231 heartbeat IPC: 2.12918 cumulative IPC: 2.24763 (Simulation time: 18 hr 42 min 3 sec) 
 Total Blocks : 196608 Invalid Blocks : 0 Valid Blocks : 196608
 Total Tags : 491520 Threshold : 12288 Invalid Tags : 196608 Pr0 Tags : 98304 Pr1 Tags : 196608 num_pr0 : 12288
 SAE Count : 0
 Inter-Core Inteference in Data Store : 3758164
Heartbeat CPU 7 instructions: 180000000 cycles: 80329562 heartbeat IPC: 2.12915 cumulative IPC: 2.24077 (Simulation time: 20 hr 52 min 4 sec) 
 Total Blocks : 196608 Invalid Blocks : 0 Valid Blocks : 196608
 Total Tags : 491520 Threshold : 12288 Invalid Tags : 196608 Pr0 Tags : 98304 Pr1 Tags : 196608 num_pr0 : 12288
 SAE Count : 0
 Inter-Core Inteference in Data Store : 3804044
Heartbeat CPU 2 instructions: 180000000 cycles: 80329742 heartbeat IPC: 2.12915 cumulative IPC: 2.24076 (Simulation time: 20 hr 52 min 5 sec) 
 Total Blocks : 196608 Invalid Blocks : 0 Valid Blocks : 196608
 Total Tags : 491520 Threshold : 12288 Invalid Tags : 196608 Pr0 Tags : 98304 Pr1 Tags : 196608 num_pr0 : 12288
 SAE Count : 0
 Inter-Core Inteference in Data Store : 3804045
Heartbeat CPU 3 instructions: 180000000 cycles: 80330284 heartbeat IPC: 2.12915 cumulative IPC: 2.24075 (Simulation time: 20 hr 52 min 5 sec) 
 Total Blocks : 196608 Invalid Blocks : 0 Valid Blocks : 196608
 Total Tags : 491520 Threshold : 12288 Invalid Tags : 196608 Pr0 Tags : 98304 Pr1 Tags : 196608 num_pr0 : 12288
 SAE Count : 0
 Inter-Core Inteference in Data Store : 3804050
Heartbeat CPU 4 instructions: 180000000 cycles: 80330304 heartbeat IPC: 2.12915 cumulative IPC: 2.24075 (Simulation time: 20 hr 52 min 5 sec) 
 Total Blocks : 196608 Invalid Blocks : 0 Valid Blocks : 196608
 Total Tags : 491520 Threshold : 12288 Invalid Tags : 196608 Pr0 Tags : 98304 Pr1 Tags : 196608 num_pr0 : 12288
 SAE Count : 0
 Inter-Core Inteference in Data Store : 3804050
Heartbeat CPU 6 instructions: 180000000 cycles: 80330600 heartbeat IPC: 2.12915 cumulative IPC: 2.24074 (Simulation time: 20 hr 52 min 5 sec) 
 Total Blocks : 196608 Invalid Blocks : 0 Valid Blocks : 196608
 Total Tags : 491520 Threshold : 12288 Invalid Tags : 196608 Pr0 Tags : 98304 Pr1 Tags : 196608 num_pr0 : 12288
 SAE Count : 0
 Inter-Core Inteference in Data Store : 3804051
Heartbeat CPU 1 instructions: 180000000 cycles: 80330903 heartbeat IPC: 2.12916 cumulative IPC: 2.24073 (Simulation time: 20 hr 52 min 5 sec) 
 Total Blocks : 196608 Invalid Blocks : 0 Valid Blocks : 196608
 Total Tags : 491520 Threshold : 12288 Invalid Tags : 196608 Pr0 Tags : 98304 Pr1 Tags : 196608 num_pr0 : 12288
 SAE Count : 0
 Inter-Core Inteference in Data Store : 3804054
Heartbeat CPU 5 instructions: 180000000 cycles: 80331097 heartbeat IPC: 2.12915 cumulative IPC: 2.24073 (Simulation time: 20 hr 52 min 5 sec) 
 Total Blocks : 196608 Invalid Blocks : 0 Valid Blocks : 196608
 Total Tags : 491520 Threshold : 12288 Invalid Tags : 196608 Pr0 Tags : 98304 Pr1 Tags : 196608 num_pr0 : 12288
 SAE Count : 0
 Inter-Core Inteference in Data Store : 3804055
Heartbeat CPU 0 instructions: 180000000 cycles: 80331932 heartbeat IPC: 2.12915 cumulative IPC: 2.2407 (Simulation time: 20 hr 52 min 6 sec) 
 Total Blocks : 196608 Invalid Blocks : 0 Valid Blocks : 196608
 Total Tags : 491520 Threshold : 12288 Invalid Tags : 196608 Pr0 Tags : 98304 Pr1 Tags : 196608 num_pr0 : 12288
 SAE Count : 0
 Inter-Core Inteference in Data Store : 3804063
Heartbeat CPU 7 instructions: 190000002 cycles: 85026159 heartbeat IPC: 2.1292 cumulative IPC: 2.23461 (Simulation time: 23 hr 13 min 28 sec) 
 Total Blocks : 196608 Invalid Blocks : 0 Valid Blocks : 196608
 Total Tags : 491520 Threshold : 12288 Invalid Tags : 196608 Pr0 Tags : 98304 Pr1 Tags : 196608 num_pr0 : 12288
 SAE Count : 0
 Inter-Core Inteference in Data Store : 3850526
Heartbeat CPU 2 instructions: 190000002 cycles: 85026345 heartbeat IPC: 2.1292 cumulative IPC: 2.2346 (Simulation time: 23 hr 13 min 28 sec) 
 Total Blocks : 196608 Invalid Blocks : 0 Valid Blocks : 196608
 Total Tags : 491520 Threshold : 12288 Invalid Tags : 196608 Pr0 Tags : 98304 Pr1 Tags : 196608 num_pr0 : 12288
 SAE Count : 0
 Inter-Core Inteference in Data Store : 3850527
Heartbeat CPU 3 instructions: 190000002 cycles: 85026898 heartbeat IPC: 2.12919 cumulative IPC: 2.23459 (Simulation time: 23 hr 13 min 28 sec) 
 Total Blocks : 196608 Invalid Blocks : 0 Valid Blocks : 196608
 Total Tags : 491520 Threshold : 12288 Invalid Tags : 196608 Pr0 Tags : 98304 Pr1 Tags : 196608 num_pr0 : 12288
 SAE Count : 0
 Inter-Core Inteference in Data Store : 3850531
Heartbeat CPU 4 instructions: 190000002 cycles: 85026912 heartbeat IPC: 2.1292 cumulative IPC: 2.23459 (Simulation time: 23 hr 13 min 28 sec) 
 Total Blocks : 196608 Invalid Blocks : 0 Valid Blocks : 196608
 Total Tags : 491520 Threshold : 12288 Invalid Tags : 196608 Pr0 Tags : 98304 Pr1 Tags : 196608 num_pr0 : 12288
 SAE Count : 0
 Inter-Core Inteference in Data Store : 3850531
Heartbeat CPU 6 instructions: 190000002 cycles: 85027201 heartbeat IPC: 2.1292 cumulative IPC: 2.23458 (Simulation time: 23 hr 13 min 28 sec) 
 Total Blocks : 196608 Invalid Blocks : 0 Valid Blocks : 196608
 Total Tags : 491520 Threshold : 12288 Invalid Tags : 196608 Pr0 Tags : 98304 Pr1 Tags : 196608 num_pr0 : 12288
 SAE Count : 0
 Inter-Core Inteference in Data Store : 3850536
Heartbeat CPU 1 instructions: 190000002 cycles: 85027528 heartbeat IPC: 2.12919 cumulative IPC: 2.23457 (Simulation time: 23 hr 13 min 29 sec) 
 Total Blocks : 196608 Invalid Blocks : 0 Valid Blocks : 196608
 Total Tags : 491520 Threshold : 12288 Invalid Tags : 196608 Pr0 Tags : 98304 Pr1 Tags : 196608 num_pr0 : 12288
 SAE Count : 0
 Inter-Core Inteference in Data Store : 3850538
Heartbeat CPU 5 instructions: 190000002 cycles: 85027700 heartbeat IPC: 2.1292 cumulative IPC: 2.23457 (Simulation time: 23 hr 13 min 29 sec) 
 Total Blocks : 196608 Invalid Blocks : 0 Valid Blocks : 196608
 Total Tags : 491520 Threshold : 12288 Invalid Tags : 196608 Pr0 Tags : 98304 Pr1 Tags : 196608 num_pr0 : 12288
 SAE Count : 0
 Inter-Core Inteference in Data Store : 3850539
Heartbeat CPU 0 instructions: 190000002 cycles: 85028541 heartbeat IPC: 2.1292 cumulative IPC: 2.23454 (Simulation time: 23 hr 13 min 30 sec) 
 Total Blocks : 196608 Invalid Blocks : 0 Valid Blocks : 196608
 Total Tags : 491520 Threshold : 12288 Invalid Tags : 196608 Pr0 Tags : 98304 Pr1 Tags : 196608 num_pr0 : 12288
 SAE Count : 0
 Inter-Core Inteference in Data Store : 3850544
Heartbeat CPU 7 instructions: 200000000 cycles: 89724477 heartbeat IPC: 2.12842 cumulative IPC: 2.22905 (Simulation time: 25 hr 35 min 12 sec) 
 Total Blocks : 196608 Invalid Blocks : 0 Valid Blocks : 196608
 Total Tags : 491520 Threshold : 12288 Invalid Tags : 196608 Pr0 Tags : 98304 Pr1 Tags : 196608 num_pr0 : 12288
 SAE Count : 0
 Inter-Core Inteference in Data Store : 3897104
Heartbeat CPU 2 instructions: 200000000 cycles: 89724637 heartbeat IPC: 2.12843 cumulative IPC: 2.22904 (Simulation time: 25 hr 35 min 13 sec) 
 Total Blocks : 196608 Invalid Blocks : 0 Valid Blocks : 196608
 Total Tags : 491520 Threshold : 12288 Invalid Tags : 196608 Pr0 Tags : 98304 Pr1 Tags : 196608 num_pr0 : 12288
 SAE Count : 0
 Inter-Core Inteference in Data Store : 3897104
Heartbeat CPU 3 instructions: 200000000 cycles: 89725213 heartbeat IPC: 2.12842 cumulative IPC: 2.22903 (Simulation time: 25 hr 35 min 13 sec) 
 Total Blocks : 196608 Invalid Blocks : 0 Valid Blocks : 196608
 Total Tags : 491520 Threshold : 12288 Invalid Tags : 196608 Pr0 Tags : 98304 Pr1 Tags : 196608 num_pr0 : 12288
 SAE Count : 0
 Inter-Core Inteference in Data Store : 3897109
Heartbeat CPU 4 instructions: 200000000 cycles: 89725227 heartbeat IPC: 2.12842 cumulative IPC: 2.22903 (Simulation time: 25 hr 35 min 13 sec) 
 Total Blocks : 196608 Invalid Blocks : 0 Valid Blocks : 196608
 Total Tags : 491520 Threshold : 12288 Invalid Tags : 196608 Pr0 Tags : 98304 Pr1 Tags : 196608 num_pr0 : 12288
 SAE Count : 0
 Inter-Core Inteference in Data Store : 3897109
Heartbeat CPU 6 instructions: 200000000 cycles: 89725524 heartbeat IPC: 2.12842 cumulative IPC: 2.22902 (Simulation time: 25 hr 35 min 13 sec) 
 Total Blocks : 196608 Invalid Blocks : 0 Valid Blocks : 196608
 Total Tags : 491520 Threshold : 12288 Invalid Tags : 196608 Pr0 Tags : 98304 Pr1 Tags : 196608 num_pr0 : 12288
 SAE Count : 0
 Inter-Core Inteference in Data Store : 3897111
Heartbeat CPU 1 instructions: 200000000 cycles: 89725825 heartbeat IPC: 2.12843 cumulative IPC: 2.22901 (Simulation time: 25 hr 35 min 13 sec) 
 Total Blocks : 196608 Invalid Blocks : 0 Valid Blocks : 196608
 Total Tags : 491520 Threshold : 12288 Invalid Tags : 196608 Pr0 Tags : 98304 Pr1 Tags : 196608 num_pr0 : 12288
 SAE Count : 0
 Inter-Core Inteference in Data Store : 3897112
Heartbeat CPU 5 instructions: 200000000 cycles: 89726016 heartbeat IPC: 2.12842 cumulative IPC: 2.22901 (Simulation time: 25 hr 35 min 13 sec) 
 Total Blocks : 196608 Invalid Blocks : 0 Valid Blocks : 196608
 Total Tags : 491520 Threshold : 12288 Invalid Tags : 196608 Pr0 Tags : 98304 Pr1 Tags : 196608 num_pr0 : 12288
 SAE Count : 0
 Inter-Core Inteference in Data Store : 3897115
Heartbeat CPU 0 instructions: 200000000 cycles: 89726852 heartbeat IPC: 2.12842 cumulative IPC: 2.22899 (Simulation time: 25 hr 35 min 13 sec) 
 Total Blocks : 196608 Invalid Blocks : 0 Valid Blocks : 196608
 Total Tags : 491520 Threshold : 12288 Invalid Tags : 196608 Pr0 Tags : 98304 Pr1 Tags : 196608 num_pr0 : 12288
 SAE Count : 0
 Inter-Core Inteference in Data Store : 3897126

Warmup complete CPU 0 instructions: 200000004 cycles: 89726853 (Simulation time: 25 hr 35 min 13 sec) 
Warmup complete CPU 1 instructions: 200002178 cycles: 89726852 (Simulation time: 25 hr 35 min 13 sec) 
Warmup complete CPU 2 instructions: 200004672 cycles: 89726852 (Simulation time: 25 hr 35 min 13 sec) 
Warmup complete CPU 3 instructions: 200003472 cycles: 89726852 (Simulation time: 25 hr 35 min 13 sec) 
Warmup complete CPU 4 instructions: 200003439 cycles: 89726852 (Simulation time: 25 hr 35 min 13 sec) 
Warmup complete CPU 5 instructions: 200001767 cycles: 89726852 (Simulation time: 25 hr 35 min 13 sec) 
Warmup complete CPU 6 instructions: 200002844 cycles: 89726852 (Simulation time: 25 hr 35 min 13 sec) 
Warmup complete CPU 7 instructions: 200005015 cycles: 89726852 (Simulation time: 25 hr 35 min 13 sec) 

Heartbeat CPU 0 instructions: 210000003 cycles: 100213251 heartbeat IPC: 0.953616 cumulative IPC: 0.953616 (Simulation time: 28 hr 4 min 9 sec) 
 Total Blocks : 196608 Invalid Blocks : 0 Valid Blocks : 196608
 Total Tags : 491520 Threshold : 12288 Invalid Tags : 196608 Pr0 Tags : 98304 Pr1 Tags : 196608 num_pr0 : 12288
 SAE Count : 0
 Inter-Core Inteference in Data Store : 48768
Heartbeat CPU 5 instructions: 210000003 cycles: 100213907 heartbeat IPC: 0.953481 cumulative IPC: 0.953388 (Simulation time: 28 hr 4 min 9 sec) 
 Total Blocks : 196608 Invalid Blocks : 0 Valid Blocks : 196608
 Total Tags : 491520 Threshold : 12288 Invalid Tags : 196608 Pr0 Tags : 98304 Pr1 Tags : 196608 num_pr0 : 12288
 SAE Count : 0
 Inter-Core Inteference in Data Store : 48772
Heartbeat CPU 1 instructions: 210000003 cycles: 100214162 heartbeat IPC: 0.95344 cumulative IPC: 0.953326 (Simulation time: 28 hr 4 min 9 sec) 
 Total Blocks : 196608 Invalid Blocks : 0 Valid Blocks : 196608
 Total Tags : 491520 Threshold : 12288 Invalid Tags : 196608 Pr0 Tags : 98304 Pr1 Tags : 196608 num_pr0 : 12288
 SAE Count : 0
 Inter-Core Inteference in Data Store : 48774
Heartbeat CPU 2 instructions: 210000003 cycles: 100214575 heartbeat IPC: 0.953295 cumulative IPC: 0.953051 (Simulation time: 28 hr 4 min 9 sec) 
 Total Blocks : 196608 Invalid Blocks : 0 Valid Blocks : 196608
 Total Tags : 491520 Threshold : 12288 Invalid Tags : 196608 Pr0 Tags : 98304 Pr1 Tags : 196608 num_pr0 : 12288
 SAE Count : 0
 Inter-Core Inteference in Data Store : 48775
Heartbeat CPU 6 instructions: 210000000 cycles: 100231575 heartbeat IPC: 0.951832 cumulative IPC: 0.951682 (Simulation time: 28 hr 4 min 22 sec) 
 Total Blocks : 196608 Invalid Blocks : 0 Valid Blocks : 196608
 Total Tags : 491520 Threshold : 12288 Invalid Tags : 196608 Pr0 Tags : 98304 Pr1 Tags : 196608 num_pr0 : 12288
 SAE Count : 0
 Inter-Core Inteference in Data Store : 48835
Heartbeat CPU 4 instructions: 210000000 cycles: 100231677 heartbeat IPC: 0.951796 cumulative IPC: 0.951616 (Simulation time: 28 hr 4 min 22 sec) 
 Total Blocks : 196608 Invalid Blocks : 0 Valid Blocks : 196608
 Total Tags : 491520 Threshold : 12288 Invalid Tags : 196608 Pr0 Tags : 98304 Pr1 Tags : 196608 num_pr0 : 12288
 SAE Count : 0
 Inter-Core Inteference in Data Store : 48838
Heartbeat CPU 3 instructions: 210000000 cycles: 100231728 heartbeat IPC: 0.95179 cumulative IPC: 0.951608 (Simulation time: 28 hr 4 min 22 sec) 
 Total Blocks : 196608 Invalid Blocks : 0 Valid Blocks : 196608
 Total Tags : 491520 Threshold : 12288 Invalid Tags : 196608 Pr0 Tags : 98304 Pr1 Tags : 196608 num_pr0 : 12288
 SAE Count : 0
 Inter-Core Inteference in Data Store : 48838
Heartbeat CPU 7 instructions: 210000000 cycles: 100232185 heartbeat IPC: 0.951682 cumulative IPC: 0.95142 (Simulation time: 28 hr 4 min 23 sec) 
 Total Blocks : 196608 Invalid Blocks : 0 Valid Blocks : 196608
 Total Tags : 491520 Threshold : 12288 Invalid Tags : 196608 Pr0 Tags : 98304 Pr1 Tags : 196608 num_pr0 : 12288
 SAE Count : 0
 Inter-Core Inteference in Data Store : 48841
Heartbeat CPU 5 instructions: 220000000 cycles: 110433595 heartbeat IPC: 0.978503 cumulative IPC: 0.965784 (Simulation time: 30 hr 25 min 34 sec) 
 Total Blocks : 196608 Invalid Blocks : 0 Valid Blocks : 196608
 Total Tags : 491520 Threshold : 12288 Invalid Tags : 196608 Pr0 Tags : 98304 Pr1 Tags : 196608 num_pr0 : 12288
 SAE Count : 0
 Inter-Core Inteference in Data Store : 97123
Heartbeat CPU 0 instructions: 220000000 cycles: 110435249 heartbeat IPC: 0.978282 cumulative IPC: 0.965792 (Simulation time: 30 hr 25 min 35 sec) 
 Total Blocks : 196608 Invalid Blocks : 0 Valid Blocks : 196608
 Total Tags : 491520 Threshold : 12288 Invalid Tags : 196608 Pr0 Tags : 98304 Pr1 Tags : 196608 num_pr0 : 12288
 SAE Count : 0
 Inter-Core Inteference in Data Store : 97129
Heartbeat CPU 4 instructions: 220000000 cycles: 110483667 heartbeat IPC: 0.97542 cumulative IPC: 0.963373 (Simulation time: 30 hr 26 min 13 sec) 
 Total Blocks : 196608 Invalid Blocks : 0 Valid Blocks : 196608
 Total Tags : 491520 Threshold : 12288 Invalid Tags : 196608 Pr0 Tags : 98304 Pr1 Tags : 196608 num_pr0 : 12288
 SAE Count : 0
 Inter-Core Inteference in Data Store : 97354
Heartbeat CPU 2 instructions: 220000000 cycles: 110500397 heartbeat IPC: 0.972212 cumulative IPC: 0.962538 (Simulation time: 30 hr 26 min 31 sec) 
 Total Blocks : 196608 Invalid Blocks : 0 Valid Blocks : 196608
 Total Tags : 491520 Threshold : 12288 Invalid Tags : 196608 Pr0 Tags : 98304 Pr1 Tags : 196608 num_pr0 : 12288
 SAE Count : 0
 Inter-Core Inteference in Data Store : 97420
Heartbeat CPU 3 instructions: 220000000 cycles: 110501330 heartbeat IPC: 0.973748 cumulative IPC: 0.962553 (Simulation time: 30 hr 26 min 31 sec) 
 Total Blocks : 196608 Invalid Blocks : 0 Valid Blocks : 196608
 Total Tags : 491520 Threshold : 12288 Invalid Tags : 196608 Pr0 Tags : 98304 Pr1 Tags : 196608 num_pr0 : 12288
 SAE Count : 0
 Inter-Core Inteference in Data Store : 97426
Heartbeat CPU 6 instructions: 220000000 cycles: 110519110 heartbeat IPC: 0.97205 cumulative IPC: 0.96176 (Simulation time: 30 hr 26 min 42 sec) 
 Total Blocks : 196608 Invalid Blocks : 0 Valid Blocks : 196608
 Total Tags : 491520 Threshold : 12288 Invalid Tags : 196608 Pr0 Tags : 98304 Pr1 Tags : 196608 num_pr0 : 12288
 SAE Count : 0
 Inter-Core Inteference in Data Store : 97500
Heartbeat CPU 7 instructions: 220000000 cycles: 110533935 heartbeat IPC: 0.970709 cumulative IPC: 0.96097 (Simulation time: 30 hr 27 min 0 sec) 
 Total Blocks : 196608 Invalid Blocks : 0 Valid Blocks : 196608
 Total Tags : 491520 Threshold : 12288 Invalid Tags : 196608 Pr0 Tags : 98304 Pr1 Tags : 196608 num_pr0 : 12288
 SAE Count : 0
 Inter-Core Inteference in Data Store : 97571
Heartbeat CPU 1 instructions: 220000000 cycles: 110535466 heartbeat IPC: 0.96887 cumulative IPC: 0.961036 (Simulation time: 30 hr 27 min 0 sec) 
 Total Blocks : 196608 Invalid Blocks : 0 Valid Blocks : 196608
 Total Tags : 491520 Threshold : 12288 Invalid Tags : 196608 Pr0 Tags : 98304 Pr1 Tags : 196608 num_pr0 : 12288
 SAE Count : 0
 Inter-Core Inteference in Data Store : 97581
Heartbeat CPU 0 instructions: 230000000 cycles: 120388443 heartbeat IPC: 1.0047 cumulative IPC: 0.978423 (Simulation time: 52 hr 35 min 44 sec) 
 Total Blocks : 196608 Invalid Blocks : 0 Valid Blocks : 196608
 Total Tags : 491520 Threshold : 12288 Invalid Tags : 196608 Pr0 Tags : 98304 Pr1 Tags : 196608 num_pr0 : 12288
 SAE Count : 0
 Inter-Core Inteference in Data Store : 145405
Heartbeat CPU 5 instructions: 230000000 cycles: 120423244 heartbeat IPC: 1.00104 cumulative IPC: 0.977256 (Simulation time: 52 hr 46 min 45 sec) 
 Total Blocks : 196608 Invalid Blocks : 0 Valid Blocks : 196608
 Total Tags : 491520 Threshold : 12288 Invalid Tags : 196608 Pr0 Tags : 98304 Pr1 Tags : 196608 num_pr0 : 12288
 SAE Count : 0
 Inter-Core Inteference in Data Store : 145548
Heartbeat CPU 4 instructions: 230000000 cycles: 120537326 heartbeat IPC: 0.994663 cumulative IPC: 0.973583 (Simulation time: 52 hr 59 min 53 sec) 
 Total Blocks : 196608 Invalid Blocks : 0 Valid Blocks : 196608
 Total Tags : 491520 Threshold : 12288 Invalid Tags : 196608 Pr0 Tags : 98304 Pr1 Tags : 196608 num_pr0 : 12288
 SAE Count : 0
 Inter-Core Inteference in Data Store : 146016
Heartbeat CPU 6 instructions: 230000000 cycles: 120538396 heartbeat IPC: 0.998075 cumulative IPC: 0.973569 (Simulation time: 52 hr 59 min 57 sec) 
 Total Blocks : 196608 Invalid Blocks : 0 Valid Blocks : 196608
 Total Tags : 491520 Threshold : 12288 Invalid Tags : 196608 Pr0 Tags : 98304 Pr1 Tags : 196608 num_pr0 : 12288
 SAE Count : 0
 Inter-Core Inteference in Data Store : 146024
Heartbeat CPU 3 instructions: 230000000 cycles: 120553251 heartbeat IPC: 0.994835 cumulative IPC: 0.973079 (Simulation time: 53 hr 2 min 48 sec) 
 Total Blocks : 196608 Invalid Blocks : 0 Valid Blocks : 196608
 Total Tags : 491520 Threshold : 12288 Invalid Tags : 196608 Pr0 Tags : 98304 Pr1 Tags : 196608 num_pr0 : 12288
 SAE Count : 0
 Inter-Core Inteference in Data Store : 146086
Heartbeat CPU 2 instructions: 230000000 cycles: 120577403 heartbeat IPC: 0.992358 cumulative IPC: 0.972279 (Simulation time: 53 hr 7 min 38 sec) 
 Total Blocks : 196608 Invalid Blocks : 0 Valid Blocks : 196608
 Total Tags : 491520 Threshold : 12288 Invalid Tags : 196608 Pr0 Tags : 98304 Pr1 Tags : 196608 num_pr0 : 12288
 SAE Count : 0
 Inter-Core Inteference in Data Store : 146201
Heartbeat CPU 1 instructions: 230000000 cycles: 120585090 heartbeat IPC: 0.995062 cumulative IPC: 0.972117 (Simulation time: 53 hr 8 min 39 sec) 
 Total Blocks : 196608 Invalid Blocks : 0 Valid Blocks : 196608
 Total Tags : 491520 Threshold : 12288 Invalid Tags : 196608 Pr0 Tags : 98304 Pr1 Tags : 196608 num_pr0 : 12288
 SAE Count : 0
 Inter-Core Inteference in Data Store : 146244
Heartbeat CPU 7 instructions: 230000000 cycles: 120618018 heartbeat IPC: 0.991662 cumulative IPC: 0.970989 (Simulation time: 53 hr 13 min 3 sec) 
 Total Blocks : 196608 Invalid Blocks : 0 Valid Blocks : 196608
 Total Tags : 491520 Threshold : 12288 Invalid Tags : 196608 Pr0 Tags : 98304 Pr1 Tags : 196608 num_pr0 : 12288
 SAE Count : 0
 Inter-Core Inteference in Data Store : 146421
Heartbeat CPU 0 instructions: 240000000 cycles: 130595289 heartbeat IPC: 0.979735 cumulative IPC: 0.97875 (Simulation time: 63 hr 37 min 29 sec) 
 Total Blocks : 196608 Invalid Blocks : 0 Valid Blocks : 196608
 Total Tags : 491520 Threshold : 12288 Invalid Tags : 196608 Pr0 Tags : 98304 Pr1 Tags : 196608 num_pr0 : 12288
 SAE Count : 0
 Inter-Core Inteference in Data Store : 194152
Heartbeat CPU 5 instructions: 240000000 cycles: 130597467 heartbeat IPC: 0.982876 cumulative IPC: 0.978655 (Simulation time: 63 hr 37 min 51 sec) 
 Total Blocks : 196608 Invalid Blocks : 0 Valid Blocks : 196608
 Total Tags : 491520 Threshold : 12288 Invalid Tags : 196608 Pr0 Tags : 98304 Pr1 Tags : 196608 num_pr0 : 12288
 SAE Count : 0
 Inter-Core Inteference in Data Store : 194165
Heartbeat CPU 3 instructions: 240000000 cycles: 130708111 heartbeat IPC: 0.98475 cumulative IPC: 0.975971 (Simulation time: 63 hr 44 min 54 sec) 
 Total Blocks : 196608 Invalid Blocks : 0 Valid Blocks : 196608
 Total Tags : 491520 Threshold : 12288 Invalid Tags : 196608 Pr0 Tags : 98304 Pr1 Tags : 196608 num_pr0 : 12288
 SAE Count : 0
 Inter-Core Inteference in Data Store : 194773
Heartbeat CPU 4 instructions: 240000000 cycles: 130722682 heartbeat IPC: 0.981802 cumulative IPC: 0.975625 (Simulation time: 63 hr 45 min 37 sec) 
 Total Blocks : 196608 Invalid Blocks : 0 Valid Blocks : 196608
 Total Tags : 491520 Threshold : 12288 Invalid Tags : 196608 Pr0 Tags : 98304 Pr1 Tags : 196608 num_pr0 : 12288
 SAE Count : 0
 Inter-Core Inteference in Data Store : 194876
Heartbeat CPU 6 instructions: 240000000 cycles: 130737808 heartbeat IPC: 0.980449 cumulative IPC: 0.97528 (Simulation time: 63 hr 46 min 41 sec) 
 Total Blocks : 196608 Invalid Blocks : 0 Valid Blocks : 196608
 Total Tags : 491520 Threshold : 12288 Invalid Tags : 196608 Pr0 Tags : 98304 Pr1 Tags : 196608 num_pr0 : 12288
 SAE Count : 0
 Inter-Core Inteference in Data Store : 194965
Heartbeat CPU 1 instructions: 240000000 cycles: 130782383 heartbeat IPC: 0.980652 cumulative IPC: 0.974237 (Simulation time: 63 hr 49 min 11 sec) 
 Total Blocks : 196608 Invalid Blocks : 0 Valid Blocks : 196608
 Total Tags : 491520 Threshold : 12288 Invalid Tags : 196608 Pr0 Tags : 98304 Pr1 Tags : 196608 num_pr0 : 12288
 SAE Count : 0
 Inter-Core Inteference in Data Store : 195232
Heartbeat CPU 2 instructions: 240000000 cycles: 130789437 heartbeat IPC: 0.979237 cumulative IPC: 0.974009 (Simulation time: 63 hr 49 min 42 sec) 
 Total Blocks : 196608 Invalid Blocks : 0 Valid Blocks : 196608
 Total Tags : 491520 Threshold : 12288 Invalid Tags : 196608 Pr0 Tags : 98304 Pr1 Tags : 196608 num_pr0 : 12288
 SAE Count : 0
 Inter-Core Inteference in Data Store : 195270
Heartbeat CPU 7 instructions: 240000000 cycles: 130798688 heartbeat IPC: 0.982254 cumulative IPC: 0.973781 (Simulation time: 63 hr 50 min 2 sec) 
 Total Blocks : 196608 Invalid Blocks : 0 Valid Blocks : 196608
 Total Tags : 491520 Threshold : 12288 Invalid Tags : 196608 Pr0 Tags : 98304 Pr1 Tags : 196608 num_pr0 : 12288
 SAE Count : 0
 Inter-Core Inteference in Data Store : 195310
Heartbeat CPU 5 instructions: 250000000 cycles: 140544290 heartbeat IPC: 1.00535 cumulative IPC: 0.983879 (Simulation time: 71 hr 55 min 42 sec) 
 Total Blocks : 196608 Invalid Blocks : 0 Valid Blocks : 196608
 Total Tags : 491520 Threshold : 12288 Invalid Tags : 196608 Pr0 Tags : 98304 Pr1 Tags : 196608 num_pr0 : 12288
 SAE Count : 0
 Inter-Core Inteference in Data Store : 242892
Heartbeat CPU 0 instructions: 250000000 cycles: 140547031 heartbeat IPC: 1.00485 cumulative IPC: 0.983861 (Simulation time: 71 hr 55 min 46 sec) 
 Total Blocks : 196608 Invalid Blocks : 0 Valid Blocks : 196608
 Total Tags : 491520 Threshold : 12288 Invalid Tags : 196608 Pr0 Tags : 98304 Pr1 Tags : 196608 num_pr0 : 12288
 SAE Count : 0
 Inter-Core Inteference in Data Store : 242904
Heartbeat CPU 3 instructions: 250000000 cycles: 140679226 heartbeat IPC: 1.0029 cumulative IPC: 0.98124 (Simulation time: 72 hr 2 min 51 sec) 
 Total Blocks : 196608 Invalid Blocks : 0 Valid Blocks : 196608
 Total Tags : 491520 Threshold : 12288 Invalid Tags : 196608 Pr0 Tags : 98304 Pr1 Tags : 196608 num_pr0 : 12288
 SAE Count : 0
 Inter-Core Inteference in Data Store : 243641
Heartbeat CPU 4 instructions: 250000000 cycles: 140695675 heartbeat IPC: 1.00271 cumulative IPC: 0.980924 (Simulation time: 72 hr 3 min 49 sec) 
 Total Blocks : 196608 Invalid Blocks : 0 Valid Blocks : 196608
 Total Tags : 491520 Threshold : 12288 Invalid Tags : 196608 Pr0 Tags : 98304 Pr1 Tags : 196608 num_pr0 : 12288
 SAE Count : 0
 Inter-Core Inteference in Data Store : 243760
Heartbeat CPU 1 instructions: 250000000 cycles: 140712180 heartbeat IPC: 1.00707 cumulative IPC: 0.980632 (Simulation time: 72 hr 4 min 29 sec) 
 Total Blocks : 196608 Invalid Blocks : 0 Valid Blocks : 196608
 Total Tags : 491520 Threshold : 12288 Invalid Tags : 196608 Pr0 Tags : 98304 Pr1 Tags : 196608 num_pr0 : 12288
 SAE Count : 0
 Inter-Core Inteference in Data Store : 243867
Heartbeat CPU 6 instructions: 250000000 cycles: 140761133 heartbeat IPC: 0.997673 cumulative IPC: 0.979678 (Simulation time: 72 hr 6 min 42 sec) 
 Total Blocks : 196608 Invalid Blocks : 0 Valid Blocks : 196608
 Total Tags : 491520 Threshold : 12288 Invalid Tags : 196608 Pr0 Tags : 98304 Pr1 Tags : 196608 num_pr0 : 12288
 SAE Count : 0
 Inter-Core Inteference in Data Store : 244169
Heartbeat CPU 2 instructions: 250000000 cycles: 140779950 heartbeat IPC: 1.00095 cumulative IPC: 0.979281 (Simulation time: 72 hr 7 min 22 sec) 
 Total Blocks : 196608 Invalid Blocks : 0 Valid Blocks : 196608
[...]
LLC4 TOTAL     ACCESS: 342608  HIT:   605  MISS: 342003  HIT %: 0.176587  MISS %: 99.8234  AVERAGE MISS PENALTY: 412.34
LLC4 LOAD      ACCESS:  5903  HIT:     1  MISS:  5902  HIT %: 0.0169405  MISS %: 99.9831  AVERAGE MISS PENALTY: 482.522
LLC4 RFO       ACCESS:  2443  HIT:    21  MISS:  2422  HIT %: 0.859599  MISS %: 99.1404  AVERAGE MISS PENALTY: 354.795
LLC4 PREFETCH  ACCESS: 331518  HIT:   288  MISS: 331230  HIT %: 0.0868731  MISS %: 99.9131  AVERAGE MISS PENALTY: 414.559
LLC4 WRITEBACK ACCESS:  2744  HIT:   295  MISS:  2449  HIT %: 10.7507  MISS %: 89.2493  AVERAGE MISS PENALTY: 0
LLC4 PREFETCH  REQUESTED:     0  ISSUED:     0  USEFUL:    25  USELESS: 115781
 USEFUL LOAD PREFETCHES:         25 PREFETCH ISSUED TO LOWER LEVEL:    2936523  ACCURACY: 0.000851347
 TIMELY PREFETCHES:         25 LATE PREFETCHES: 0 DROPPED PREFETCHES: 0
LLC4 AVERAGE MISS LATENCY: 412.34 cycles

LLC4 Set Associative Eviction Count : 0
LLC4 Priority 0 entries : 12288
LLC4 Inter-Core Interference : 122620
LLC5 TOTAL     ACCESS: 342717  HIT:   667  MISS: 342050  HIT %: 0.194621  MISS %: 99.8054  AVERAGE MISS PENALTY: 405.02
LLC5 LOAD      ACCESS:  6084  HIT:   155  MISS:  5929  HIT %: 2.54767  MISS %: 97.4523  AVERAGE MISS PENALTY: 486.542
LLC5 RFO       ACCESS:  2443  HIT:    22  MISS:  2421  HIT %: 0.900532  MISS %: 99.0995  AVERAGE MISS PENALTY: 348.849
LLC5 PREFETCH  ACCESS: 331271  HIT:    45  MISS: 331226  HIT %: 0.013584  MISS %: 99.9864  AVERAGE MISS PENALTY: 406.997
LLC5 WRITEBACK ACCESS:  2919  HIT:   445  MISS:  2474  HIT %: 15.2449  MISS %: 84.7551  AVERAGE MISS PENALTY: 0
LLC5 PREFETCH  REQUESTED:     0  ISSUED:     0  USEFUL:    30  USELESS: 115779
 USEFUL LOAD PREFETCHES:         30 PREFETCH ISSUED TO LOWER LEVEL:    2936603  ACCURACY: 0.00102159
 TIMELY PREFETCHES:         30 LATE PREFETCHES: 0 DROPPED PREFETCHES: 0
LLC5 AVERAGE MISS LATENCY: 405.02 cycles

LLC5 Set Associative Eviction Count : 0
LLC5 Priority 0 entries : 12288
LLC5 Inter-Core Interference : 122989
LLC6 TOTAL     ACCESS: 342630  HIT:   490  MISS: 342140  HIT %: 0.143011  MISS %: 99.857  AVERAGE MISS PENALTY: 455.625
LLC6 LOAD      ACCESS:  5995  HIT:   137  MISS:  5858  HIT %: 2.28524  MISS %: 97.7148  AVERAGE MISS PENALTY: 443.787
LLC6 RFO       ACCESS:  2445  HIT:    19  MISS:  2426  HIT %: 0.777096  MISS %: 99.2229  AVERAGE MISS PENALTY: 354.441
LLC6 PREFETCH  ACCESS: 331325  HIT:    28  MISS: 331297  HIT %: 0.00845092  MISS %: 99.9915  AVERAGE MISS PENALTY: 460.094
LLC6 WRITEBACK ACCESS:  2865  HIT:   306  MISS:  2559  HIT %: 10.6806  MISS %: 89.3194  AVERAGE MISS PENALTY: 0
LLC6 PREFETCH  REQUESTED:     0  ISSUED:     0  USEFUL:    26  USELESS: 114707
 USEFUL LOAD PREFETCHES:         26 PREFETCH ISSUED TO LOWER LEVEL:    3030828  ACCURACY: 0.000857851
 TIMELY PREFETCHES:         26 LATE PREFETCHES: 0 DROPPED PREFETCHES: 0
LLC6 AVERAGE MISS LATENCY: 455.625 cycles

LLC6 Set Associative Eviction Count : 0
LLC6 Priority 0 entries : 12288
LLC6 Inter-Core Interference : 122292
LLC7 TOTAL     ACCESS: 342785  HIT:   797  MISS: 341988  HIT %: 0.232507  MISS %: 99.7675  AVERAGE MISS PENALTY: 453.11
LLC7 LOAD      ACCESS:  5933  HIT:     0  MISS:  5933  HIT %:     0  MISS %:   100  AVERAGE MISS PENALTY: 457.942
LLC7 RFO       ACCESS:  2604  HIT:   174  MISS:  2430  HIT %: 6.68203  MISS %: 93.318  AVERAGE MISS PENALTY: 352.083
LLC7 PREFETCH  ACCESS: 331090  HIT:    35  MISS: 331055  HIT %: 0.0105711  MISS %: 99.9894  AVERAGE MISS PENALTY: 457.283
LLC7 WRITEBACK ACCESS:  3158  HIT:   588  MISS:  2570  HIT %: 18.6194  MISS %: 81.3806  AVERAGE MISS PENALTY: 0
LLC7 PREFETCH  REQUESTED:     0  ISSUED:     0  USEFUL:    25  USELESS: 114663
 USEFUL LOAD PREFETCHES:         25 PREFETCH ISSUED TO LOWER LEVEL:    3049897  ACCURACY: 0.0008197
 TIMELY PREFETCHES:         25 LATE PREFETCHES: 0 DROPPED PREFETCHES: 0
LLC7 AVERAGE MISS LATENCY: 453.11 cycles

LLC7 Set Associative Eviction Count : 0
LLC7 Priority 0 entries : 12288
LLC7 Inter-Core Interference : 122478
ROI Average ROB Stall Cycles:	9.13074
ROI Total ROB Stalls Cycles:	152409551
ROI TOTAL ROB counter      :	16691921
ROI Average Load ROB Stall Cycles:	16.8566
ROI Total Load ROB Stalls Cycle  :	57418054
ROI Total Load ROB stalls Counter:	3406259
Major fault: 0 Minor fault: 101923

CPU 7 cumulative IPC: 1.00754 instructions: 200000003 cycles: 198503282
ITLB TOTAL     ACCESS: 37409618  HIT: 37409618  MISS:     0  HIT %:   100  MISS %:     0  AVERAGE MISS PENALTY: 0
ITLB LOAD      ACCESS: 37409618  HIT: 37409618  MISS:     0  HIT %:   100  MISS %:     0  AVERAGE MISS PENALTY: 0
ITLB RFO       ACCESS:     0  HIT:     0  MISS:     0  HIT %:     0  MISS %:     0  AVERAGE MISS PENALTY: 0
ITLB PREFETCH  ACCESS:     0  HIT:     0  MISS:     0  HIT %:     0  MISS %:     0  AVERAGE MISS PENALTY: 0
ITLB WRITEBACK ACCESS:     0  HIT:     0  MISS:     0  HIT %:     0  MISS %:     0  AVERAGE MISS PENALTY: 0
ITLB PREFETCH  REQUESTED:     0  ISSUED:     0  USEFUL:     0  USELESS:     0
 USEFUL LOAD PREFETCHES:          0 PREFETCH ISSUED TO LOWER LEVEL:          0  ACCURACY: -nan
 TIMELY PREFETCHES:          0 LATE PREFETCHES: 0 DROPPED PREFETCHES: 0
ITLB AVERAGE MISS LATENCY: -nan cycles

ITLB Set Associative Eviction Count : 0
ITLB Priority 0 entries : 0
ITLB Inter-Core Interference : 0
DTLB TOTAL     ACCESS: 58786102  HIT: 58703421  MISS: 82681  HIT %: 99.8594  MISS %: 0.140647  AVERAGE MISS PENALTY: 187.86
DTLB LOAD      ACCESS: 52113808  HIT: 52031522  MISS: 82286  HIT %: 99.8421  MISS %: 0.157897  AVERAGE MISS PENALTY: 188.321
DTLB RFO       ACCESS: 6672294  HIT: 6671899  MISS:   395  HIT %: 99.9941  MISS %: 0.00592  AVERAGE MISS PENALTY: 91.7823
DTLB PREFETCH  ACCESS:     0  HIT:     0  MISS:     0  HIT %:     0  MISS %:     0  AVERAGE MISS PENALTY: 0
DTLB WRITEBACK ACCESS:     0  HIT:     0  MISS:     0  HIT %:     0  MISS %:     0  AVERAGE MISS PENALTY: 0
DTLB PREFETCH  REQUESTED:     0  ISSUED:     0  USEFUL:     0  USELESS:     0
 USEFUL LOAD PREFETCHES:          0 PREFETCH ISSUED TO LOWER LEVEL:          0  ACCURACY: -nan
 TIMELY PREFETCHES:          0 LATE PREFETCHES: 0 DROPPED PREFETCHES: 0
DTLB AVERAGE MISS LATENCY: 187.86 cycles

DTLB Set Associative Eviction Count : 0
DTLB Priority 0 entries : 0
DTLB Inter-Core Interference : 0
STLB TOTAL     ACCESS: 82681  HIT: 16944  MISS: 65737  HIT %: 20.4932  MISS %: 79.5068  AVERAGE MISS PENALTY: 100
STLB LOAD      ACCESS: 82286  HIT: 16874  MISS: 65412  HIT %: 20.5065  MISS %: 79.4935  AVERAGE MISS PENALTY: 100
STLB RFO       ACCESS:   395  HIT:    70  MISS:   325  HIT %: 17.7215  MISS %: 82.2785  AVERAGE MISS PENALTY: 100
STLB PREFETCH  ACCESS:     0  HIT:     0  MISS:     0  HIT %:     0  MISS %:     0  AVERAGE MISS PENALTY: 0
STLB WRITEBACK ACCESS:     0  HIT:     0  MISS:     0  HIT %:     0  MISS %:     0  AVERAGE MISS PENALTY: 0
STLB PREFETCH  REQUESTED:     0  ISSUED:     0  USEFUL:     0  USELESS:     0
 USEFUL LOAD PREFETCHES:          0 PREFETCH ISSUED TO LOWER LEVEL:          0  ACCURACY: -nan
 TIMELY PREFETCHES:          0 LATE PREFETCHES: 0 DROPPED PREFETCHES: 0
STLB AVERAGE MISS LATENCY: 100 cycles

STLB Set Associative Eviction Count : 0
STLB Priority 0 entries : 0
STLB Inter-Core Interference : 0
L1D TOTAL     ACCESS: 65162791  HIT: 62471564  MISS: 2691227  HIT %: 95.87  MISS %: 4.13001  AVERAGE MISS PENALTY: 5.08429e+06
L1D LOAD      ACCESS: 51031809  HIT: 50858957  MISS: 172852  HIT %: 99.6613  MISS %: 0.338714  AVERAGE MISS PENALTY: 7.91579e+07
L1D RFO       ACCESS: 6702427  HIT: 6682085  MISS: 20342  HIT %: 99.6965  MISS %: 0.303502  AVERAGE MISS PENALTY: 387.769
L1D PREFETCH  ACCESS: 7428555  HIT: 4930522  MISS: 2498033  HIT %: 66.3726  MISS %: 33.6274  AVERAGE MISS PENALTY: 141.645
L1D WRITEBACK ACCESS:     0  HIT:     0  MISS:     0  HIT %:     0  MISS %:     0  AVERAGE MISS PENALTY: 0
L1D PREFETCH  REQUESTED: 8281780  ISSUED: 7903191  USEFUL: 2418065  USELESS: 79958
 USEFUL LOAD PREFETCHES:    2418065 PREFETCH ISSUED TO LOWER LEVEL:    5679698  ACCURACY: 42.5738
 TIMELY PREFETCHES:    2418065 LATE PREFETCHES: 81341 DROPPED PREFETCHES: 378589
L1D AVERAGE MISS LATENCY: 125.845 cycles

L1D Set Associative Eviction Count : 0
L1D Priority 0 entries : 0
L1D Inter-Core Interference : 0
L1I TOTAL     ACCESS: 48150033  HIT: 48150033  MISS:     0  HIT %:   100  MISS %:     0  AVERAGE MISS PENALTY: 0
L1I LOAD      ACCESS: 48150033  HIT: 48150033  MISS:     0  HIT %:   100  MISS %:     0  AVERAGE MISS PENALTY: 0
L1I RFO       ACCESS:     0  HIT:     0  MISS:     0  HIT %:     0  MISS %:     0  AVERAGE MISS PENALTY: 0
L1I PREFETCH  ACCESS:     0  HIT:     0  MISS:     0  HIT %:     0  MISS %:     0  AVERAGE MISS PENALTY: 0
L1I WRITEBACK ACCESS:     0  HIT:     0  MISS:     0  HIT %:     0  MISS %:     0  AVERAGE MISS PENALTY: 0
L1I PREFETCH  REQUESTED:     0  ISSUED:     0  USEFUL:     0  USELESS:     0
 USEFUL LOAD PREFETCHES:          0 PREFETCH ISSUED TO LOWER LEVEL:          0  ACCURACY: -nan
 TIMELY PREFETCHES:          0 LATE PREFETCHES: 0 DROPPED PREFETCHES: 0
L1I AVERAGE MISS LATENCY: -nan cycles

L1I Set Associative Eviction Count : 0
L1I Priority 0 entries : 0
L1I Inter-Core Interference : 0
L2C TOTAL     ACCESS: 5848949  HIT: 3122699  MISS: 2726250  HIT %: 53.3891  MISS %: 46.6109  AVERAGE MISS PENALTY: 4.77741e+06
L2C LOAD      ACCESS: 168480  HIT: 11514  MISS: 156966  HIT %: 6.83405  MISS %: 93.166  AVERAGE MISS PENALTY: 8.29686e+07
L2C RFO       ACCESS: 20342  HIT:   586  MISS: 19756  HIT %: 2.88074  MISS %: 97.1193  AVERAGE MISS PENALTY: 382.326
L2C PREFETCH  ACCESS: 5610996  HIT: 3075598  MISS: 2535398  HIT %: 54.8138  MISS %: 45.1862  AVERAGE MISS PENALTY: 452.399
L2C WRITEBACK ACCESS: 49131  HIT: 35001  MISS: 14130  HIT %: 71.2402  MISS %: 28.7598  AVERAGE MISS PENALTY: 0
L2C PREFETCH  REQUESTED: 4529960  ISSUED: 4529609  USEFUL:  6291  USELESS: 2529151
 USEFUL LOAD PREFETCHES:       6291 PREFETCH ISSUED TO LOWER LEVEL:    3573290  ACCURACY: 0.176056
 TIMELY PREFETCHES:       6291 LATE PREFETCHES: 77296 DROPPED PREFETCHES: 351
L2C AVERAGE MISS LATENCY: 446.368 cycles

L2C Set Associative Eviction Count : 0
L2C Priority 0 entries : 0
L2C Inter-Core Interference : 0
LLC0 TOTAL     ACCESS: 339812  HIT:   433  MISS: 339379  HIT %: 0.127423  MISS %: 99.8726  AVERAGE MISS PENALTY: 406.165
LLC0 LOAD      ACCESS: 45018  HIT:   117  MISS: 44901  HIT %: 0.259896  MISS %: 99.7401  AVERAGE MISS PENALTY: 427.729
LLC0 RFO       ACCESS:  2463  HIT:    23  MISS:  2440  HIT %: 0.933821  MISS %: 99.0662  AVERAGE MISS PENALTY: 339.118
LLC0 PREFETCH  ACCESS: 289509  HIT:    24  MISS: 289485  HIT %: 0.0082899  MISS %: 99.9917  AVERAGE MISS PENALTY: 406.967
LLC0 WRITEBACK ACCESS:  2822  HIT:   269  MISS:  2553  HIT %: 9.53225  MISS %: 90.4678  AVERAGE MISS PENALTY: 0
LLC0 PREFETCH  REQUESTED:     0  ISSUED:     0  USEFUL:    29  USELESS: 101224
 USEFUL LOAD PREFETCHES:         29 PREFETCH ISSUED TO LOWER LEVEL:    2415979  ACCURACY: 0.00120034
 TIMELY PREFETCHES:         29 LATE PREFETCHES: 0 DROPPED PREFETCHES: 0
LLC0 AVERAGE MISS LATENCY: 406.165 cycles

LLC0 Set Associative Eviction Count : 0
LLC0 Priority 0 entries : 12288
LLC0 Inter-Core Interference : 122765
LLC1 TOTAL     ACCESS: 340950  HIT:   715  MISS: 340235  HIT %: 0.209708  MISS %: 99.7903  AVERAGE MISS PENALTY: 408.096
LLC1 LOAD      ACCESS:  6260  HIT:   255  MISS:  6005  HIT %: 4.07348  MISS %: 95.9265  AVERAGE MISS PENALTY: 483.99
LLC1 RFO       ACCESS:  2460  HIT:    21  MISS:  2439  HIT %: 0.853659  MISS %: 99.1463  AVERAGE MISS PENALTY: 343.054
LLC1 PREFETCH  ACCESS: 329238  HIT:    28  MISS: 329210  HIT %: 0.00850449  MISS %: 99.9915  AVERAGE MISS PENALTY: 410.393
LLC1 WRITEBACK ACCESS:  2992  HIT:   411  MISS:  2581  HIT %: 13.7366  MISS %: 86.2634  AVERAGE MISS PENALTY: 0
LLC1 PREFETCH  REQUESTED:     0  ISSUED:     0  USEFUL:    29  USELESS: 115144
 USEFUL LOAD PREFETCHES:         29 PREFETCH ISSUED TO LOWER LEVEL:    2763944  ACCURACY: 0.00104923
 TIMELY PREFETCHES:         29 LATE PREFETCHES: 0 DROPPED PREFETCHES: 0
LLC1 AVERAGE MISS LATENCY: 408.096 cycles

LLC1 Set Associative Eviction Count : 0
LLC1 Priority 0 entries : 12288
LLC1 Inter-Core Interference : 122740
LLC2 TOTAL     ACCESS: 341812  HIT:   592  MISS: 341220  HIT %: 0.173195  MISS %: 99.8268  AVERAGE MISS PENALTY: 457.639
LLC2 LOAD      ACCESS:  6059  HIT:   158  MISS:  5901  HIT %: 2.60769  MISS %: 97.3923  AVERAGE MISS PENALTY: 436.802
LLC2 RFO       ACCESS:  2451  HIT:    12  MISS:  2439  HIT %: 0.489596  MISS %: 99.5104  AVERAGE MISS PENALTY: 341.606
LLC2 PREFETCH  ACCESS: 330551  HIT:   146  MISS: 330405  HIT %: 0.0441687  MISS %: 99.9558  AVERAGE MISS PENALTY: 462.296
LLC2 WRITEBACK ACCESS:  2751  HIT:   276  MISS:  2475  HIT %: 10.0327  MISS %: 89.9673  AVERAGE MISS PENALTY: 0
LLC2 PREFETCH  REQUESTED:     0  ISSUED:     0  USEFUL:    35  USELESS: 116046
 USEFUL LOAD PREFETCHES:         35 PREFETCH ISSUED TO LOWER LEVEL:    2837686  ACCURACY: 0.0012334
 TIMELY PREFETCHES:         35 LATE PREFETCHES: 0 DROPPED PREFETCHES: 0
LLC2 AVERAGE MISS LATENCY: 457.639 cycles

LLC2 Set Associative Eviction Count : 0
LLC2 Priority 0 entries : 12288
LLC2 Inter-Core Interference : 122511
LLC3 TOTAL     ACCESS: 342300  HIT:   761  MISS: 341539  HIT %: 0.22232  MISS %: 99.7777  AVERAGE MISS PENALTY: 461.296
LLC3 LOAD      ACCESS:  6174  HIT:   270  MISS:  5904  HIT %: 4.37318  MISS %: 95.6268  AVERAGE MISS PENALTY: 442.4
LLC3 RFO       ACCESS:  2447  HIT:    13  MISS:  2434  HIT %: 0.531263  MISS %: 99.4687  AVERAGE MISS PENALTY: 343.201
LLC3 PREFETCH  ACCESS: 330761  HIT:    49  MISS: 330712  HIT %: 0.0148143  MISS %: 99.9852  AVERAGE MISS PENALTY: 465.974
LLC3 WRITEBACK ACCESS:  2918  HIT:   429  MISS:  2489  HIT %: 14.7019  MISS %: 85.2981  AVERAGE MISS PENALTY: 0
LLC3 PREFETCH  REQUESTED:     0  ISSUED:     0  USEFUL:    29  USELESS: 115230
 USEFUL LOAD PREFETCHES:         29 PREFETCH ISSUED TO LOWER LEVEL:    2875791  ACCURACY: 0.00100842
 TIMELY PREFETCHES:         29 LATE PREFETCHES: 0 DROPPED PREFETCHES: 0
LLC3 AVERAGE MISS LATENCY: 461.296 cycles

LLC3 Set Associative Eviction Count : 0
LLC3 Priority 0 entries : 12288
LLC3 Inter-Core Interference : 122416
LLC4 TOTAL     ACCESS: 342497  HIT:   650  MISS: 341847  HIT %: 0.189783  MISS %: 99.8102  AVERAGE MISS PENALTY: 411.572
LLC4 LOAD      ACCESS:  5902  HIT:     0  MISS:  5902  HIT %:     0  MISS %:   100  AVERAGE MISS PENALTY: 483.475
LLC4 RFO       ACCESS:  2441  HIT:    21  MISS:  2420  HIT %: 0.860303  MISS %: 99.1397  AVERAGE MISS PENALTY: 351.089
LLC4 PREFETCH  ACCESS: 331409  HIT:   320  MISS: 331089  HIT %: 0.0965574  MISS %: 99.9034  AVERAGE MISS PENALTY: 413.76
LLC4 WRITEBACK ACCESS:  2745  HIT:   309  MISS:  2436  HIT %: 11.2568  MISS %: 88.7432  AVERAGE MISS PENALTY: 0
LLC4 PREFETCH  REQUESTED:     0  ISSUED:     0  USEFUL:    25  USELESS: 115781
 USEFUL LOAD PREFETCHES:         25 PREFETCH ISSUED TO LOWER LEVEL:    2936523  ACCURACY: 0.000851347
 TIMELY PREFETCHES:         25 LATE PREFETCHES: 0 DROPPED PREFETCHES: 0
LLC4 AVERAGE MISS LATENCY: 411.572 cycles

LLC4 Set Associative Eviction Count : 0
LLC4 Priority 0 entries : 12288
LLC4 Inter-Core Interference : 122620
LLC5 TOTAL     ACCESS: 342642  HIT:   674  MISS: 341968  HIT %: 0.196707  MISS %: 99.8033  AVERAGE MISS PENALTY: 404.406
LLC5 LOAD      ACCESS:  6079  HIT:   156  MISS:  5923  HIT %: 2.56621  MISS %: 97.4338  AVERAGE MISS PENALTY: 490.879
LLC5 RFO       ACCESS:  2444  HIT:    20  MISS:  2424  HIT %: 0.818331  MISS %: 99.1817  AVERAGE MISS PENALTY: 346.741
LLC5 PREFETCH  ACCESS: 331212  HIT:    43  MISS: 331169  HIT %: 0.0129826  MISS %: 99.987  AVERAGE MISS PENALTY: 406.276
LLC5 WRITEBACK ACCESS:  2907  HIT:   455  MISS:  2452  HIT %: 15.6519  MISS %: 84.3481  AVERAGE MISS PENALTY: 0
LLC5 PREFETCH  REQUESTED:     0  ISSUED:     0  USEFUL:    30  USELESS: 115779
 USEFUL LOAD PREFETCHES:         30 PREFETCH ISSUED TO LOWER LEVEL:    2936603  ACCURACY: 0.00102159
 TIMELY PREFETCHES:         30 LATE PREFETCHES: 0 DROPPED PREFETCHES: 0
LLC5 AVERAGE MISS LATENCY: 404.406 cycles

LLC5 Set Associative Eviction Count : 0
LLC5 Priority 0 entries : 12288
LLC5 Inter-Core Interference : 122989
LLC6 TOTAL     ACCESS: 342466  HIT:   476  MISS: 341990  HIT %: 0.138992  MISS %: 99.861  AVERAGE MISS PENALTY: 453.513
LLC6 LOAD      ACCESS:  6020  HIT:   117  MISS:  5903  HIT %: 1.94352  MISS %: 98.0565  AVERAGE MISS PENALTY: 445.002
LLC6 RFO       ACCESS:  2445  HIT:    22  MISS:  2423  HIT %: 0.899796  MISS %: 99.1002  AVERAGE MISS PENALTY: 350.754
LLC6 PREFETCH  ACCESS: 331160  HIT:    27  MISS: 331133  HIT %: 0.00815316  MISS %: 99.9918  AVERAGE MISS PENALTY: 457.883
LLC6 WRITEBACK ACCESS:  2841  HIT:   310  MISS:  2531  HIT %: 10.9117  MISS %: 89.0883  AVERAGE MISS PENALTY: 0
LLC6 PREFETCH  REQUESTED:     0  ISSUED:     0  USEFUL:    26  USELESS: 114707
 USEFUL LOAD PREFETCHES:         26 PREFETCH ISSUED TO LOWER LEVEL:    3030828  ACCURACY: 0.000857851
 TIMELY PREFETCHES:         26 LATE PREFETCHES: 0 DROPPED PREFETCHES: 0
LLC6 AVERAGE MISS LATENCY: 453.513 cycles

LLC6 Set Associative Eviction Count : 0
LLC6 Priority 0 entries : 12288
LLC6 Inter-Core Interference : 122292
LLC7 TOTAL     ACCESS: 342763  HIT:   802  MISS: 341961  HIT %: 0.233981  MISS %: 99.766  AVERAGE MISS PENALTY: 450.968
LLC7 LOAD      ACCESS:  5952  HIT:     1  MISS:  5951  HIT %: 0.0168011  MISS %: 99.9832  AVERAGE MISS PENALTY: 443.79
LLC7 RFO       ACCESS:  2605  HIT:   176  MISS:  2429  HIT %: 6.75624  MISS %: 93.2438  AVERAGE MISS PENALTY: 345.934
LLC7 PREFETCH  ACCESS: 331059  HIT:    36  MISS: 331023  HIT %: 0.0108742  MISS %: 99.9891  AVERAGE MISS PENALTY: 455.353
LLC7 WRITEBACK ACCESS:  3147  HIT:   589  MISS:  2558  HIT %: 18.7162  MISS %: 81.2838  AVERAGE MISS PENALTY: 0
LLC7 PREFETCH  REQUESTED:     0  ISSUED:     0  USEFUL:    25  USELESS: 114663
 USEFUL LOAD PREFETCHES:         25 PREFETCH ISSUED TO LOWER LEVEL:    3049897  ACCURACY: 0.0008197
 TIMELY PREFETCHES:         25 LATE PREFETCHES: 0 DROPPED PREFETCHES: 0
LLC7 AVERAGE MISS LATENCY: 450.968 cycles

LLC7 Set Associative Eviction Count : 0
LLC7 Priority 0 entries : 12288
LLC7 Inter-Core Interference : 122478
ROI Average ROB Stall Cycles:	9.12817
ROI Total ROB Stalls Cycles:	152340195
ROI TOTAL ROB counter      :	16689010
ROI Average Load ROB Stall Cycles:	16.8386
ROI Total Load ROB Stalls Cycle  :	57361433
ROI Total Load ROB stalls Counter:	3406546
Major fault: 0 Minor fault: 101946








Interconnect Stats 
LINK 0 BW : 0LINK 1 BW : 0LINK 2 BW : 0LINK 3 BW : 0LINK 4 BW : 0LINK 5 BW : 0LINK 6 BW : 0LINK 7 BW : 0
DRAM Statistics
 CHANNEL 0
 RQ ROW_BUFFER_HIT: 8687502  ROW_BUFFER_MISS: 2159382
 DBUS_CONGESTED: 3431134
 WQ ROW_BUFFER_HIT:  2463  ROW_BUFFER_MISS: 92269  FULL:     0

 CHANNEL 1
 RQ ROW_BUFFER_HIT: 8681182  ROW_BUFFER_MISS: 2174720
 DBUS_CONGESTED: 3431134
 WQ ROW_BUFFER_HIT:  2490  ROW_BUFFER_MISS: 92328  FULL:     0

 AVG_CONGESTED_CYCLE: 4
DRAM PAGES: 2097152
Allocated PAGES: 815864
L2C destructor called
L1D destructor called
L1I destructor called
STLB destructor called
DTLB destructor called
ITLB destructor called
L2C destructor called
L1D destructor called
L1I destructor called
STLB destructor called
DTLB destructor called
ITLB destructor called
L2C destructor called
L1D destructor called
L1I destructor called
STLB destructor called
DTLB destructor called
ITLB destructor called
L2C destructor called
L1D destructor called
L1I destructor called
STLB destructor called
DTLB destructor called
ITLB destructor called
L2C destructor called
L1D destructor called
L1I destructor called
STLB destructor called
DTLB destructor called
ITLB destructor called
L2C destructor called
L1D destructor called
L1I destructor called
STLB destructor called
DTLB destructor called
ITLB destructor called
L2C destructor called
L1D destructor called
L1I destructor called
STLB destructor called
DTLB destructor called
ITLB destructor called
L2C destructor called
L1D destructor called
L1I destructor called
STLB destructor called
DTLB destructor called
ITLB destructor called
