
*** ChampSim Multicore Out-of-Order Simulator ***

Warmup Instructions: 200000000
Simulation Instructions: 200000000
Number of CPUs: 1
threads:1

L1I Configuration:
L1I_SET:64
L1I_WAY:8
L1I_RQ_SIZE:64
L1I_WQ_SIZE:64
L1I_PQ_SIZE:8
L1I_MSHR_SIZE:8

L1D Configuration:
L1D_SET:64
L1D_WAY:12
L1D_RQ_SIZE:64
L1D_WQ_SIZE:64
L1D_PQ_SIZE:8
L1D_MSHR_SIZE:16

L2C Configuration:
L2C_SET:1024
L2C_WAY:8
L2C_RQ_SIZE:32
L2C_WQ_SIZE:32
L2C_PQ_SIZE:16
L2C_MSHR_SIZE:32

LLC Configuration:
LLC_SET:2048
LLC_WAY:16
LLC SLICES:1
LLC_RQ_SIZE:64
LLC_WQ_SIZE:64
LLC_PQ_SIZE:32
LLC_MSHR_SIZE:64

Interconnect OFF
Attacker deprioritize is: OFF
Off-chip DRAM Size: 4096 MB Channels: 1 Width: 64-bit Data Rate: 3200 MT/s
PAGE SIZE in KB: 4.000000 
PAGE SIZE in MB: 0.003906 
PAGE offset in bits: 12 
CEASER-S_LLC:0
MIRAGE : 1
CEASER_LATENCY:3
REMAP : OFF
Partitions : 1
Multi-Step : OFF
BFS : OFF

CPU 0 runs /home/anubhav/spec_2017/619.lbm_s-4268B.champsimtrace.xz
CPU 0 Bimodal branch predictor
Initialize SRRIP state
Heartbeat CPU 0 instructions: 10000001 cycles: 3943971 heartbeat IPC: 2.53552 cumulative IPC: 2.53552 (Simulation time: 0 hr 7 min 4 sec) 
 Total Blocks : 32768 Invalid Blocks : 0
Heartbeat CPU 0 instructions: 20000000 cycles: 7882408 heartbeat IPC: 2.53908 cumulative IPC: 2.5373 (Simulation time: 0 hr 14 min 23 sec) 
 Total Blocks : 32768 Invalid Blocks : 0
Heartbeat CPU 0 instructions: 30000000 cycles: 11811003 heartbeat IPC: 2.54544 cumulative IPC: 2.54 (Simulation time: 0 hr 22 min 2 sec) 
 Total Blocks : 32768 Invalid Blocks : 0
Heartbeat CPU 0 instructions: 40000001 cycles: 15760116 heartbeat IPC: 2.53221 cumulative IPC: 2.53805 (Simulation time: 0 hr 30 min 17 sec) 
 Total Blocks : 32768 Invalid Blocks : 0
Heartbeat CPU 0 instructions: 50000000 cycles: 19713988 heartbeat IPC: 2.52917 cumulative IPC: 2.53627 (Simulation time: 0 hr 39 min 15 sec) 
 Total Blocks : 32768 Invalid Blocks : 0
Heartbeat CPU 0 instructions: 60000003 cycles: 23678076 heartbeat IPC: 2.52265 cumulative IPC: 2.53399 (Simulation time: 0 hr 48 min 47 sec) 
 Total Blocks : 32768 Invalid Blocks : 0
Heartbeat CPU 0 instructions: 70000000 cycles: 27635705 heartbeat IPC: 2.52676 cumulative IPC: 2.53296 (Simulation time: 0 hr 58 min 20 sec) 
 Total Blocks : 32768 Invalid Blocks : 0
Heartbeat CPU 0 instructions: 80000003 cycles: 31577820 heartbeat IPC: 2.53671 cumulative IPC: 2.53342 (Simulation time: 1 hr 8 min 26 sec) 
 Total Blocks : 32768 Invalid Blocks : 0
Heartbeat CPU 0 instructions: 90000000 cycles: 35530108 heartbeat IPC: 2.53018 cumulative IPC: 2.53306 (Simulation time: 1 hr 19 min 7 sec) 
 Total Blocks : 32768 Invalid Blocks : 0
Heartbeat CPU 0 instructions: 100000003 cycles: 39469726 heartbeat IPC: 2.53832 cumulative IPC: 2.53359 (Simulation time: 1 hr 30 min 29 sec) 
 Total Blocks : 32768 Invalid Blocks : 0
Heartbeat CPU 0 instructions: 110000000 cycles: 43421121 heartbeat IPC: 2.53075 cumulative IPC: 2.53333 (Simulation time: 1 hr 42 min 23 sec) 
 Total Blocks : 32768 Invalid Blocks : 0
Heartbeat CPU 0 instructions: 120000000 cycles: 47386672 heartbeat IPC: 2.52172 cumulative IPC: 2.53236 (Simulation time: 1 hr 54 min 23 sec) 
 Total Blocks : 32768 Invalid Blocks : 0
Heartbeat CPU 0 instructions: 130000003 cycles: 51325388 heartbeat IPC: 2.5389 cumulative IPC: 2.53286 (Simulation time: 2 hr 6 min 59 sec) 
 Total Blocks : 32768 Invalid Blocks : 0
Heartbeat CPU 0 instructions: 140000001 cycles: 55275164 heartbeat IPC: 2.53179 cumulative IPC: 2.53278 (Simulation time: 2 hr 20 min 3 sec) 
 Total Blocks : 32768 Invalid Blocks : 0
Heartbeat CPU 0 instructions: 150000003 cycles: 59239812 heartbeat IPC: 2.52229 cumulative IPC: 2.53208 (Simulation time: 2 hr 33 min 26 sec) 
 Total Blocks : 32768 Invalid Blocks : 0
Heartbeat CPU 0 instructions: 160000000 cycles: 63212507 heartbeat IPC: 2.51718 cumulative IPC: 2.53114 (Simulation time: 2 hr 47 min 38 sec) 
 Total Blocks : 32768 Invalid Blocks : 0
Heartbeat CPU 0 instructions: 170000003 cycles: 67178293 heartbeat IPC: 2.52157 cumulative IPC: 2.53058 (Simulation time: 3 hr 1 min 29 sec) 
 Total Blocks : 32768 Invalid Blocks : 0
Heartbeat CPU 0 instructions: 180000003 cycles: 71140201 heartbeat IPC: 2.52404 cumulative IPC: 2.53022 (Simulation time: 3 hr 15 min 18 sec) 
 Total Blocks : 32768 Invalid Blocks : 0
Heartbeat CPU 0 instructions: 190000001 cycles: 75109968 heartbeat IPC: 2.51904 cumulative IPC: 2.52962 (Simulation time: 3 hr 29 min 35 sec) 
 Total Blocks : 32768 Invalid Blocks : 0
Heartbeat CPU 0 instructions: 200000003 cycles: 79069139 heartbeat IPC: 2.52578 cumulative IPC: 2.52943 (Simulation time: 3 hr 43 min 0 sec) 
 Total Blocks : 32768 Invalid Blocks : 0

Warmup complete CPU 0 instructions: 200000003 cycles: 79069139 (Simulation time: 3 hr 43 min 0 sec) 

Heartbeat CPU 0 instructions: 210000000 cycles: 106966338 heartbeat IPC: 0.358459 cumulative IPC: 0.358459 (Simulation time: 4 hr 2 min 55 sec) 
 Total Blocks : 32768 Invalid Blocks : 0
Heartbeat CPU 0 instructions: 220000000 cycles: 134780702 heartbeat IPC: 0.359526 cumulative IPC: 0.358992 (Simulation time: 4 hr 21 min 16 sec) 
 Total Blocks : 32768 Invalid Blocks : 0
Heartbeat CPU 0 instructions: 230000003 cycles: 162289065 heartbeat IPC: 0.363526 cumulative IPC: 0.360491 (Simulation time: 4 hr 37 min 54 sec) 
 Total Blocks : 32768 Invalid Blocks : 0
Heartbeat CPU 0 instructions: 240000000 cycles: 189911078 heartbeat IPC: 0.36203 cumulative IPC: 0.360874 (Simulation time: 4 hr 53 min 25 sec) 
 Total Blocks : 32768 Invalid Blocks : 0
Heartbeat CPU 0 instructions: 250000000 cycles: 216885146 heartbeat IPC: 0.370726 cumulative IPC: 0.362803 (Simulation time: 5 hr 6 min 43 sec) 
 Total Blocks : 32768 Invalid Blocks : 0
Heartbeat CPU 0 instructions: 260000001 cycles: 243979797 heartbeat IPC: 0.369077 cumulative IPC: 0.363833 (Simulation time: 5 hr 18 min 29 sec) 
 Total Blocks : 32768 Invalid Blocks : 0
Heartbeat CPU 0 instructions: 270000001 cycles: 270958782 heartbeat IPC: 0.370659 cumulative IPC: 0.364793 (Simulation time: 5 hr 29 min 7 sec) 
 Total Blocks : 32768 Invalid Blocks : 0
Heartbeat CPU 0 instructions: 280000001 cycles: 297624842 heartbeat IPC: 0.375009 cumulative IPC: 0.366039 (Simulation time: 5 hr 39 min 29 sec) 
 Total Blocks : 32768 Invalid Blocks : 0
Heartbeat CPU 0 instructions: 290000001 cycles: 324612572 heartbeat IPC: 0.370539 cumulative IPC: 0.366534 (Simulation time: 5 hr 49 min 35 sec) 
 Total Blocks : 32768 Invalid Blocks : 0
Heartbeat CPU 0 instructions: 300000002 cycles: 351929933 heartbeat IPC: 0.366068 cumulative IPC: 0.366487 (Simulation time: 5 hr 59 min 53 sec) 
 Total Blocks : 32768 Invalid Blocks : 0
Heartbeat CPU 0 instructions: 310000000 cycles: 379179469 heartbeat IPC: 0.366979 cumulative IPC: 0.366532 (Simulation time: 6 hr 10 min 18 sec) 
 Total Blocks : 32768 Invalid Blocks : 0
Heartbeat CPU 0 instructions: 320000001 cycles: 406320114 heartbeat IPC: 0.368451 cumulative IPC: 0.366691 (Simulation time: 6 hr 19 min 32 sec) 
 Total Blocks : 32768 Invalid Blocks : 0
Heartbeat CPU 0 instructions: 330000000 cycles: 433295101 heartbeat IPC: 0.370714 cumulative IPC: 0.366997 (Simulation time: 6 hr 30 min 20 sec) 
 Total Blocks : 32768 Invalid Blocks : 0
Heartbeat CPU 0 instructions: 340000001 cycles: 459839798 heartbeat IPC: 0.376723 cumulative IPC: 0.367675 (Simulation time: 6 hr 41 min 7 sec) 
 Total Blocks : 32768 Invalid Blocks : 0
Heartbeat CPU 0 instructions: 350000000 cycles: 486131964 heartbeat IPC: 0.380341 cumulative IPC: 0.368493 (Simulation time: 6 hr 51 min 58 sec) 
 Total Blocks : 32768 Invalid Blocks : 0
Heartbeat CPU 0 instructions: 360000001 cycles: 513073410 heartbeat IPC: 0.371175 cumulative IPC: 0.36866 (Simulation time: 7 hr 3 min 17 sec) 
 Total Blocks : 32768 Invalid Blocks : 0
Heartbeat CPU 0 instructions: 370000001 cycles: 539445224 heartbeat IPC: 0.379193 cumulative IPC: 0.369263 (Simulation time: 7 hr 14 min 34 sec) 
 Total Blocks : 32768 Invalid Blocks : 0
Heartbeat CPU 0 instructions: 380000001 cycles: 566074858 heartbeat IPC: 0.375522 cumulative IPC: 0.369606 (Simulation time: 7 hr 23 min 41 sec) 
 Total Blocks : 32768 Invalid Blocks : 0
Heartbeat CPU 0 instructions: 390000000 cycles: 592698194 heartbeat IPC: 0.37561 cumulative IPC: 0.369917 (Simulation time: 7 hr 32 min 0 sec) 
 Total Blocks : 32768 Invalid Blocks : 0
Heartbeat CPU 0 instructions: 400000000 cycles: 618874610 heartbeat IPC: 0.382023 cumulative IPC: 0.370504 (Simulation time: 7 hr 40 min 18 sec) 
 Total Blocks : 32768 Invalid Blocks : 0
Finished CPU 0 instructions: 200000000 cycles: 539805472 cumulative IPC: 0.370504 (Simulation time: 7 hr 40 min 18 sec) 

CPU 0 Branch Prediction Accuracy: 94.9847% MPKI: 0.89691 Average ROB Occupancy at Mispredict: 274.157

ChampSim completed all CPUs

Region of Interest Statistics

CPU 0 cumulative IPC: 0.370504 instructions: 200000000 cycles: 539805472
ITLB TOTAL     ACCESS: 32186194  HIT: 32186194  MISS:     0  HIT %:   100  MISS %:     0  AVERAGE MISS PENALTY: 0
ITLB LOAD      ACCESS: 32186194  HIT: 32186194  MISS:     0  HIT %:   100  MISS %:     0  AVERAGE MISS PENALTY: 0
ITLB RFO       ACCESS:     0  HIT:     0  MISS:     0  HIT %:     0  MISS %:     0  AVERAGE MISS PENALTY: 0
ITLB PREFETCH  ACCESS:     0  HIT:     0  MISS:     0  HIT %:     0  MISS %:     0  AVERAGE MISS PENALTY: 0
ITLB WRITEBACK ACCESS:     0  HIT:     0  MISS:     0  HIT %:     0  MISS %:     0  AVERAGE MISS PENALTY: 0
ITLB PREFETCH  REQUESTED:     0  ISSUED:     0  USEFUL:     0  USELESS:     0
 USEFUL LOAD PREFETCHES:          0 PREFETCH ISSUED TO LOWER LEVEL:          0  ACCURACY: -nan
 TIMELY PREFETCHES:          0 LATE PREFETCHES: 0 DROPPED PREFETCHES: 0
ITLB AVERAGE MISS LATENCY: -nan cycles
DTLB TOTAL     ACCESS: 39954968  HIT: 39682338  MISS: 272630  HIT %: 99.3177  MISS %: 0.682343  AVERAGE MISS PENALTY: 88.4994
DTLB LOAD      ACCESS: 19413505  HIT: 19376509  MISS: 36996  HIT %: 99.8094  MISS %: 0.190568  AVERAGE MISS PENALTY: 108.997
DTLB RFO       ACCESS: 20541463  HIT: 20305829  MISS: 235634  HIT %: 98.8529  MISS %: 1.14711  AVERAGE MISS PENALTY: 85.2811
DTLB PREFETCH  ACCESS:     0  HIT:     0  MISS:     0  HIT %:     0  MISS %:     0  AVERAGE MISS PENALTY: 0
DTLB WRITEBACK ACCESS:     0  HIT:     0  MISS:     0  HIT %:     0  MISS %:     0  AVERAGE MISS PENALTY: 0
DTLB PREFETCH  REQUESTED:     0  ISSUED:     0  USEFUL:     0  USELESS:     0
 USEFUL LOAD PREFETCHES:          0 PREFETCH ISSUED TO LOWER LEVEL:          0  ACCURACY: -nan
 TIMELY PREFETCHES:          0 LATE PREFETCHES: 0 DROPPED PREFETCHES: 0
DTLB AVERAGE MISS LATENCY: 88.4994 cycles
STLB TOTAL     ACCESS: 272630  HIT: 124698  MISS: 147932  HIT %: 45.7389  MISS %: 54.2611  AVERAGE MISS PENALTY: 100
STLB LOAD      ACCESS: 36996  HIT:     1  MISS: 36995  HIT %: 0.00270299  MISS %: 99.9973  AVERAGE MISS PENALTY: 100
STLB RFO       ACCESS: 235634  HIT: 124697  MISS: 110937  HIT %: 52.9198  MISS %: 47.0802  AVERAGE MISS PENALTY: 100
STLB PREFETCH  ACCESS:     0  HIT:     0  MISS:     0  HIT %:     0  MISS %:     0  AVERAGE MISS PENALTY: 0
STLB WRITEBACK ACCESS:     0  HIT:     0  MISS:     0  HIT %:     0  MISS %:     0  AVERAGE MISS PENALTY: 0
STLB PREFETCH  REQUESTED:     0  ISSUED:     0  USEFUL:     0  USELESS:     0
 USEFUL LOAD PREFETCHES:          0 PREFETCH ISSUED TO LOWER LEVEL:          0  ACCURACY: -nan
 TIMELY PREFETCHES:          0 LATE PREFETCHES: 0 DROPPED PREFETCHES: 0
STLB AVERAGE MISS LATENCY: 100 cycles
L1D TOTAL     ACCESS: 55526482  HIT: 39908875  MISS: 15617607  HIT %: 71.8736  MISS %: 28.1264  AVERAGE MISS PENALTY: 352.862
L1D LOAD      ACCESS: 18959170  HIT: 16592599  MISS: 2366571  HIT %: 87.5175  MISS %: 12.4825  AVERAGE MISS PENALTY: 521.195
L1D RFO       ACCESS: 36567312  HIT: 23316276  MISS: 13251036  HIT %: 63.7626  MISS %: 36.2374  AVERAGE MISS PENALTY: 322.798
L1D PREFETCH  ACCESS:     0  HIT:     0  MISS:     0  HIT %:     0  MISS %:     0  AVERAGE MISS PENALTY: 0
L1D WRITEBACK ACCESS:     0  HIT:     0  MISS:     0  HIT %:     0  MISS %:     0  AVERAGE MISS PENALTY: 0
L1D PREFETCH  REQUESTED:     0  ISSUED:     0  USEFUL:     0  USELESS:     0
 USEFUL LOAD PREFETCHES:          0 PREFETCH ISSUED TO LOWER LEVEL:          0  ACCURACY: -nan
 TIMELY PREFETCHES:          0 LATE PREFETCHES: 0 DROPPED PREFETCHES: 0
L1D AVERAGE MISS LATENCY: 352.862 cycles
L1I TOTAL     ACCESS: 43703172  HIT: 43703172  MISS:     0  HIT %:   100  MISS %:     0  AVERAGE MISS PENALTY: 0
L1I LOAD      ACCESS: 43703172  HIT: 43703172  MISS:     0  HIT %:   100  MISS %:     0  AVERAGE MISS PENALTY: 0
L1I RFO       ACCESS:     0  HIT:     0  MISS:     0  HIT %:     0  MISS %:     0  AVERAGE MISS PENALTY: 0
L1I PREFETCH  ACCESS:     0  HIT:     0  MISS:     0  HIT %:     0  MISS %:     0  AVERAGE MISS PENALTY: 0
L1I WRITEBACK ACCESS:     0  HIT:     0  MISS:     0  HIT %:     0  MISS %:     0  AVERAGE MISS PENALTY: 0
L1I PREFETCH  REQUESTED:     0  ISSUED:     0  USEFUL:     0  USELESS:     0
 USEFUL LOAD PREFETCHES:          0 PREFETCH ISSUED TO LOWER LEVEL:          0  ACCURACY: -nan
 TIMELY PREFETCHES:          0 LATE PREFETCHES: 0 DROPPED PREFETCHES: 0
L1I AVERAGE MISS LATENCY: -nan cycles
L2C TOTAL     ACCESS: 28868639  HIT: 18929698  MISS: 9938941  HIT %: 65.5718  MISS %: 34.4282  AVERAGE MISS PENALTY: 528.336
L2C LOAD      ACCESS: 2366571  HIT:   126  MISS: 2366445  HIT %: 0.00532416  MISS %: 99.9947  AVERAGE MISS PENALTY: 504.999
L2C RFO       ACCESS: 13251029  HIT: 5678944  MISS: 7572085  HIT %: 42.8566  MISS %: 57.1434  AVERAGE MISS PENALTY: 535.658
L2C PREFETCH  ACCESS:     0  HIT:     0  MISS:     0  HIT %:     0  MISS %:     0  AVERAGE MISS PENALTY: 0
L2C WRITEBACK ACCESS: 13251039  HIT: 13250628  MISS:   411  HIT %: 99.9969  MISS %: 0.00310164  AVERAGE MISS PENALTY: 0
L2C PREFETCH  REQUESTED:     0  ISSUED:     0  USEFUL:     0  USELESS:     0
 USEFUL LOAD PREFETCHES:          0 PREFETCH ISSUED TO LOWER LEVEL:          0  ACCURACY: -nan
 TIMELY PREFETCHES:          0 LATE PREFETCHES: 0 DROPPED PREFETCHES: 0
L2C AVERAGE MISS LATENCY: 528.336 cycles
LLC0 TOTAL     ACCESS: 17510911  HIT: 6821422  MISS: 10689489  HIT %: 38.9553  MISS %: 61.0447  AVERAGE MISS PENALTY: 454.716
LLC0 LOAD      ACCESS: 2366445  HIT:    55  MISS: 2366390  HIT %: 0.00232416  MISS %: 99.9977  AVERAGE MISS PENALTY: 465.961
LLC0 RFO       ACCESS: 7572085  HIT: 464515  MISS: 7107570  HIT %: 6.13457  MISS %: 93.8654  AVERAGE MISS PENALTY: 528.737
LLC0 PREFETCH  ACCESS:     0  HIT:     0  MISS:     0  HIT %:     0  MISS %:     0  AVERAGE MISS PENALTY: 0
LLC0 WRITEBACK ACCESS: 7572381  HIT: 6356852  MISS: 1215529  HIT %: 83.9479  MISS %: 16.0521  AVERAGE MISS PENALTY: 0
LLC0 PREFETCH  REQUESTED:     0  ISSUED:     0  USEFUL:     0  USELESS:     0
 USEFUL LOAD PREFETCHES:          0 PREFETCH ISSUED TO LOWER LEVEL:          0  ACCURACY: -nan
 TIMELY PREFETCHES:          0 LATE PREFETCHES: 0 DROPPED PREFETCHES: 0
LLC0 AVERAGE MISS LATENCY: 454.716 cycles
Deadblocks : 2263154 Deadblock percentage : 95.6374

ROI Average ROB Stall Cycles:	34.0177
ROI Total ROB Stalls Cycles:	491251727
ROI TOTAL ROB counter      :	14441078
ROI Average Load ROB Stall Cycles:	185.619
ROI Total Load ROB Stalls Cycle  :	425657508
ROI Total Load ROB stalls Counter:	2293183
Major fault: 0 Minor fault: 151495
Interconnect Stats 
LINK 0 BW : 0
DRAM Statistics
 CHANNEL 0
 RQ ROW_BUFFER_HIT: 463619  ROW_BUFFER_MISS: 9009267
 DBUS_CONGESTED: 9260287
 WQ ROW_BUFFER_HIT: 689823  ROW_BUFFER_MISS: 6471585  FULL:     0

 AVG_CONGESTED_CYCLE: 6
DRAM PAGES: 1048576
Allocated PAGES: 151495
L2C destructor called
L1D destructor called
L1I destructor called
STLB destructor called
DTLB destructor called
ITLB destructor called
