
*** ChampSim Multicore Out-of-Order Simulator ***

Warmup Instructions: 200000000
Simulation Instructions: 200000000
Number of CPUs: 8
threads:1

L1I Configuration:
L1I_SET:64
L1I_WAY:8
L1I_RQ_SIZE:64
L1I_WQ_SIZE:64
L1I_PQ_SIZE:8
L1I_MSHR_SIZE:8

L1D Configuration:
L1D_SET:64
L1D_WAY:12
L1D_RQ_SIZE:64
L1D_WQ_SIZE:64
L1D_PQ_SIZE:8
L1D_MSHR_SIZE:16

L2C Configuration:
L2C_SET:1024
L2C_WAY:8
L2C_RQ_SIZE:32
L2C_WQ_SIZE:32
L2C_PQ_SIZE:16
L2C_MSHR_SIZE:32

LLC Configuration:
LLC_SET:2048
LLC_WAY:12
LLC SLICES:8
LLC_RQ_SIZE:64
LLC_WQ_SIZE:64
LLC_PQ_SIZE:32
LLC_MSHR_SIZE:64

Interconnect OFF
Attacker deprioritize is: OFF
Off-chip DRAM Size: 8192 MB Channels: 2 Width: 64-bit Data Rate: 3200 MT/s
PAGE SIZE in KB: 4.000000 
PAGE SIZE in MB: 0.003906 
PAGE offset in bits: 12 
CEASER-S_LLC:0
MIRAGE : 1
CEASER_LATENCY:3
REMAP : OFF
Partitions : 1
Multi-Step : OFF
BFS : OFF

CPU 0 runs /home/anubhav/spec_2017/603.bwaves_s-2609B.champsimtrace.xz
CPU 1 runs /home/anubhav/spec_2017/603.bwaves_s-2609B.champsimtrace.xz
CPU 2 runs /home/anubhav/spec_2017/603.bwaves_s-2609B.champsimtrace.xz
CPU 3 runs /home/anubhav/spec_2017/603.bwaves_s-2609B.champsimtrace.xz
CPU 4 runs /home/anubhav/spec_2017/603.bwaves_s-2609B.champsimtrace.xz
CPU 5 runs /home/anubhav/spec_2017/603.bwaves_s-2609B.champsimtrace.xz
CPU 6 runs /home/anubhav/spec_2017/603.bwaves_s-2609B.champsimtrace.xz
CPU 7 runs /home/anubhav/spec_2017/603.bwaves_s-2609B.champsimtrace.xz
CPU 0 Bimodal branch predictor
Initialize Hawkeye state
Initialize Hawkeye state
Initialize Hawkeye state
Initialize Hawkeye state
Initialize Hawkeye state
Initialize Hawkeye state
Initialize Hawkeye state
Initialize Hawkeye state
CPU 1 Bimodal branch predictor
Initialize Hawkeye state
Initialize Hawkeye state
Initialize Hawkeye state
Initialize Hawkeye state
Initialize Hawkeye state
Initialize Hawkeye state
Initialize Hawkeye state
Initialize Hawkeye state
CPU 2 Bimodal branch predictor
Initialize Hawkeye state
Initialize Hawkeye state
Initialize Hawkeye state
Initialize Hawkeye state
Initialize Hawkeye state
Initialize Hawkeye state
Initialize Hawkeye state
Initialize Hawkeye state
CPU 3 Bimodal branch predictor
Initialize Hawkeye state
Initialize Hawkeye state
Initialize Hawkeye state
Initialize Hawkeye state
Initialize Hawkeye state
Initialize Hawkeye state
Initialize Hawkeye state
Initialize Hawkeye state
CPU 4 Bimodal branch predictor
Initialize Hawkeye state
Initialize Hawkeye state
Initialize Hawkeye state
Initialize Hawkeye state
Initialize Hawkeye state
Initialize Hawkeye state
Initialize Hawkeye state
Initialize Hawkeye state
CPU 5 Bimodal branch predictor
Initialize Hawkeye state
Initialize Hawkeye state
Initialize Hawkeye state
Initialize Hawkeye state
Initialize Hawkeye state
Initialize Hawkeye state
Initialize Hawkeye state
Initialize Hawkeye state
CPU 6 Bimodal branch predictor
Initialize Hawkeye state
Initialize Hawkeye state
Initialize Hawkeye state
Initialize Hawkeye state
Initialize Hawkeye state
Initialize Hawkeye state
Initialize Hawkeye state
Initialize Hawkeye state
CPU 7 Bimodal branch predictor
Initialize Hawkeye state
Initialize Hawkeye state
Initialize Hawkeye state
Initialize Hawkeye state
Initialize Hawkeye state
Initialize Hawkeye state
Initialize Hawkeye state
Initialize Hawkeye state
FILL
Heartbeat CPU 0 instructions: 10000001 cycles: 5311855 heartbeat IPC: 1.88258 cumulative IPC: 1.88258 (Simulation time: 0 hr 40 min 19 sec) 
 Total Blocks : 196608 Invalid Blocks : 159125 Valid Blocks : 37483
 Total Tags : 491520 Threshold : 12288 Invalid Tags : 355733 Pr0 Tags : 98304 Pr1 Tags : 37483 num_pr0 : 12288
 SAE Count : 0
 Inter-Core Inteference in Data Store : 3564
Heartbeat CPU 2 instructions: 10000001 cycles: 5311934 heartbeat IPC: 1.88255 cumulative IPC: 1.88255 (Simulation time: 0 hr 40 min 19 sec) 
 Total Blocks : 196608 Invalid Blocks : 159125 Valid Blocks : 37483
 Total Tags : 491520 Threshold : 12288 Invalid Tags : 355733 Pr0 Tags : 98304 Pr1 Tags : 37483 num_pr0 : 12288
 SAE Count : 0
 Inter-Core Inteference in Data Store : 3564
Heartbeat CPU 3 instructions: 10000001 cycles: 5311980 heartbeat IPC: 1.88254 cumulative IPC: 1.88254 (Simulation time: 0 hr 40 min 19 sec) 
 Total Blocks : 196608 Invalid Blocks : 159125 Valid Blocks : 37483
 Total Tags : 491520 Threshold : 12288 Invalid Tags : 355733 Pr0 Tags : 98304 Pr1 Tags : 37483 num_pr0 : 12288
 SAE Count : 0
 Inter-Core Inteference in Data Store : 3564
Heartbeat CPU 4 instructions: 10000001 cycles: 5312060 heartbeat IPC: 1.88251 cumulative IPC: 1.88251 (Simulation time: 0 hr 40 min 19 sec) 
 Total Blocks : 196608 Invalid Blocks : 159125 Valid Blocks : 37483
 Total Tags : 491520 Threshold : 12288 Invalid Tags : 355733 Pr0 Tags : 98304 Pr1 Tags : 37483 num_pr0 : 12288
 SAE Count : 0
 Inter-Core Inteference in Data Store : 3564
Heartbeat CPU 1 instructions: 10000001 cycles: 5312069 heartbeat IPC: 1.88251 cumulative IPC: 1.88251 (Simulation time: 0 hr 40 min 19 sec) 
 Total Blocks : 196608 Invalid Blocks : 159125 Valid Blocks : 37483
 Total Tags : 491520 Threshold : 12288 Invalid Tags : 355733 Pr0 Tags : 98304 Pr1 Tags : 37483 num_pr0 : 12288
 SAE Count : 0
 Inter-Core Inteference in Data Store : 3564
Heartbeat CPU 6 instructions: 10000001 cycles: 5312086 heartbeat IPC: 1.8825 cumulative IPC: 1.8825 (Simulation time: 0 hr 40 min 19 sec) 
 Total Blocks : 196608 Invalid Blocks : 159125 Valid Blocks : 37483
 Total Tags : 491520 Threshold : 12288 Invalid Tags : 355733 Pr0 Tags : 98304 Pr1 Tags : 37483 num_pr0 : 12288
 SAE Count : 0
 Inter-Core Inteference in Data Store : 3564
Heartbeat CPU 7 instructions: 10000001 cycles: 5312100 heartbeat IPC: 1.88249 cumulative IPC: 1.88249 (Simulation time: 0 hr 40 min 19 sec) 
 Total Blocks : 196608 Invalid Blocks : 159125 Valid Blocks : 37483
 Total Tags : 491520 Threshold : 12288 Invalid Tags : 355733 Pr0 Tags : 98304 Pr1 Tags : 37483 num_pr0 : 12288
 SAE Count : 0
 Inter-Core Inteference in Data Store : 3564
Heartbeat CPU 5 instructions: 10000001 cycles: 5312119 heartbeat IPC: 1.88249 cumulative IPC: 1.88249 (Simulation time: 0 hr 40 min 19 sec) 
 Total Blocks : 196608 Invalid Blocks : 159125 Valid Blocks : 37483
 Total Tags : 491520 Threshold : 12288 Invalid Tags : 355733 Pr0 Tags : 98304 Pr1 Tags : 37483 num_pr0 : 12288
 SAE Count : 0
 Inter-Core Inteference in Data Store : 3564
Heartbeat CPU 0 instructions: 20000000 cycles: 10623658 heartbeat IPC: 1.8826 cumulative IPC: 1.88259 (Simulation time: 1 hr 33 min 46 sec) 
 Total Blocks : 196608 Invalid Blocks : 130491 Valid Blocks : 66117
 Total Tags : 491520 Threshold : 12288 Invalid Tags : 327099 Pr0 Tags : 98304 Pr1 Tags : 66117 num_pr0 : 12288
 SAE Count : 0
 Inter-Core Inteference in Data Store : 12561
Heartbeat CPU 2 instructions: 20000000 cycles: 10623751 heartbeat IPC: 1.88259 cumulative IPC: 1.88257 (Simulation time: 1 hr 33 min 46 sec) 
 Total Blocks : 196608 Invalid Blocks : 130491 Valid Blocks : 66117
 Total Tags : 491520 Threshold : 12288 Invalid Tags : 327099 Pr0 Tags : 98304 Pr1 Tags : 66117 num_pr0 : 12288
 SAE Count : 0
 Inter-Core Inteference in Data Store : 12561
Heartbeat CPU 3 instructions: 20000000 cycles: 10623798 heartbeat IPC: 1.88259 cumulative IPC: 1.88257 (Simulation time: 1 hr 33 min 46 sec) 
 Total Blocks : 196608 Invalid Blocks : 130491 Valid Blocks : 66117
 Total Tags : 491520 Threshold : 12288 Invalid Tags : 327099 Pr0 Tags : 98304 Pr1 Tags : 66117 num_pr0 : 12288
 SAE Count : 0
 Inter-Core Inteference in Data Store : 12561
Heartbeat CPU 4 instructions: 20000000 cycles: 10623895 heartbeat IPC: 1.88259 cumulative IPC: 1.88255 (Simulation time: 1 hr 33 min 46 sec) 
 Total Blocks : 196608 Invalid Blocks : 130491 Valid Blocks : 66117
 Total Tags : 491520 Threshold : 12288 Invalid Tags : 327099 Pr0 Tags : 98304 Pr1 Tags : 66117 num_pr0 : 12288
 SAE Count : 0
 Inter-Core Inteference in Data Store : 12561
Heartbeat CPU 1 instructions: 20000000 cycles: 10623896 heartbeat IPC: 1.88259 cumulative IPC: 1.88255 (Simulation time: 1 hr 33 min 46 sec) 
 Total Blocks : 196608 Invalid Blocks : 130491 Valid Blocks : 66117
 Total Tags : 491520 Threshold : 12288 Invalid Tags : 327099 Pr0 Tags : 98304 Pr1 Tags : 66117 num_pr0 : 12288
 SAE Count : 0
 Inter-Core Inteference in Data Store : 12561
Heartbeat CPU 7 instructions: 20000000 cycles: 10623911 heartbeat IPC: 1.8826 cumulative IPC: 1.88255 (Simulation time: 1 hr 33 min 46 sec) 
 Total Blocks : 196608 Invalid Blocks : 130491 Valid Blocks : 66117
 Total Tags : 491520 Threshold : 12288 Invalid Tags : 327099 Pr0 Tags : 98304 Pr1 Tags : 66117 num_pr0 : 12288
 SAE Count : 0
 Inter-Core Inteference in Data Store : 12561
Heartbeat CPU 6 instructions: 20000000 cycles: 10623912 heartbeat IPC: 1.88259 cumulative IPC: 1.88255 (Simulation time: 1 hr 33 min 46 sec) 
 Total Blocks : 196608 Invalid Blocks : 130491 Valid Blocks : 66117
 Total Tags : 491520 Threshold : 12288 Invalid Tags : 327099 Pr0 Tags : 98304 Pr1 Tags : 66117 num_pr0 : 12288
 SAE Count : 0
 Inter-Core Inteference in Data Store : 12561
Heartbeat CPU 5 instructions: 20000000 cycles: 10623944 heartbeat IPC: 1.88259 cumulative IPC: 1.88254 (Simulation time: 1 hr 33 min 46 sec) 
 Total Blocks : 196608 Invalid Blocks : 130491 Valid Blocks : 66117
 Total Tags : 491520 Threshold : 12288 Invalid Tags : 327099 Pr0 Tags : 98304 Pr1 Tags : 66117 num_pr0 : 12288
 SAE Count : 0
 Inter-Core Inteference in Data Store : 12561
Heartbeat CPU 0 instructions: 30000000 cycles: 15934516 heartbeat IPC: 1.88293 cumulative IPC: 1.88271 (Simulation time: 2 hr 41 min 35 sec) 
 Total Blocks : 196608 Invalid Blocks : 106762 Valid Blocks : 89846
 Total Tags : 491520 Threshold : 12288 Invalid Tags : 303373 Pr0 Tags : 98301 Pr1 Tags : 89846 num_pr0 : 12288
 SAE Count : 0
 Inter-Core Inteference in Data Store : 26172
Heartbeat CPU 2 instructions: 30000000 cycles: 15934654 heartbeat IPC: 1.88292 cumulative IPC: 1.88269 (Simulation time: 2 hr 41 min 35 sec) 
 Total Blocks : 196608 Invalid Blocks : 106762 Valid Blocks : 89846
 Total Tags : 491520 Threshold : 12288 Invalid Tags : 303373 Pr0 Tags : 98301 Pr1 Tags : 89846 num_pr0 : 12288
 SAE Count : 0
 Inter-Core Inteference in Data Store : 26172
Heartbeat CPU 3 instructions: 30000000 cycles: 15934702 heartbeat IPC: 1.88292 cumulative IPC: 1.88268 (Simulation time: 2 hr 41 min 35 sec) 
 Total Blocks : 196608 Invalid Blocks : 106762 Valid Blocks : 89846
 Total Tags : 491520 Threshold : 12288 Invalid Tags : 303373 Pr0 Tags : 98301 Pr1 Tags : 89846 num_pr0 : 12288
 SAE Count : 0
 Inter-Core Inteference in Data Store : 26172
Heartbeat CPU 5 instructions: 30000000 cycles: 15934955 heartbeat IPC: 1.88288 cumulative IPC: 1.88265 (Simulation time: 2 hr 41 min 36 sec) 
 Total Blocks : 196608 Invalid Blocks : 106760 Valid Blocks : 89848
 Total Tags : 491520 Threshold : 12288 Invalid Tags : 303372 Pr0 Tags : 98300 Pr1 Tags : 89848 num_pr0 : 12288
 SAE Count : 0
 Inter-Core Inteference in Data Store : 26174
Heartbeat CPU 4 instructions: 30000000 cycles: 15934960 heartbeat IPC: 1.88286 cumulative IPC: 1.88265 (Simulation time: 2 hr 41 min 36 sec) 
 Total Blocks : 196608 Invalid Blocks : 106760 Valid Blocks : 89848
 Total Tags : 491520 Threshold : 12288 Invalid Tags : 303372 Pr0 Tags : 98300 Pr1 Tags : 89848 num_pr0 : 12288
 SAE Count : 0
 Inter-Core Inteference in Data Store : 26174
Heartbeat CPU 7 instructions: 30000000 cycles: 15935013 heartbeat IPC: 1.88285 cumulative IPC: 1.88265 (Simulation time: 2 hr 41 min 36 sec) 
 Total Blocks : 196608 Invalid Blocks : 106760 Valid Blocks : 89848
 Total Tags : 491520 Threshold : 12288 Invalid Tags : 303372 Pr0 Tags : 98300 Pr1 Tags : 89848 num_pr0 : 12288
 SAE Count : 0
 Inter-Core Inteference in Data Store : 26174
Heartbeat CPU 1 instructions: 30000000 cycles: 15935015 heartbeat IPC: 1.88284 cumulative IPC: 1.88265 (Simulation time: 2 hr 41 min 36 sec) 
 Total Blocks : 196608 Invalid Blocks : 106760 Valid Blocks : 89848
 Total Tags : 491520 Threshold : 12288 Invalid Tags : 303372 Pr0 Tags : 98300 Pr1 Tags : 89848 num_pr0 : 12288
 SAE Count : 0
 Inter-Core Inteference in Data Store : 26174
Heartbeat CPU 6 instructions: 30000000 cycles: 15935016 heartbeat IPC: 1.88285 cumulative IPC: 1.88265 (Simulation time: 2 hr 41 min 36 sec) 
 Total Blocks : 196608 Invalid Blocks : 106760 Valid Blocks : 89848
 Total Tags : 491520 Threshold : 12288 Invalid Tags : 303372 Pr0 Tags : 98300 Pr1 Tags : 89848 num_pr0 : 12288
 SAE Count : 0
 Inter-Core Inteference in Data Store : 26174
Heartbeat CPU 0 instructions: 40000001 cycles: 21245550 heartbeat IPC: 1.88287 cumulative IPC: 1.88275 (Simulation time: 4 hr 0 min 57 sec) 
 Total Blocks : 196608 Invalid Blocks : 87323 Valid Blocks : 109285
 Total Tags : 491520 Threshold : 12288 Invalid Tags : 283931 Pr0 Tags : 98304 Pr1 Tags : 109285 num_pr0 : 12288
 SAE Count : 0
 Inter-Core Inteference in Data Store : 43886
Heartbeat CPU 2 instructions: 40000001 cycles: 21245716 heartbeat IPC: 1.88286 cumulative IPC: 1.88273 (Simulation time: 4 hr 0 min 57 sec) 
 Total Blocks : 196608 Invalid Blocks : 87323 Valid Blocks : 109285
 Total Tags : 491520 Threshold : 12288 Invalid Tags : 283931 Pr0 Tags : 98304 Pr1 Tags : 109285 num_pr0 : 12288
 SAE Count : 0
 Inter-Core Inteference in Data Store : 43886
Heartbeat CPU 3 instructions: 40000001 cycles: 21245756 heartbeat IPC: 1.88287 cumulative IPC: 1.88273 (Simulation time: 4 hr 0 min 57 sec) 
 Total Blocks : 196608 Invalid Blocks : 87323 Valid Blocks : 109285
 Total Tags : 491520 Threshold : 12288 Invalid Tags : 283931 Pr0 Tags : 98304 Pr1 Tags : 109285 num_pr0 : 12288
 SAE Count : 0
 Inter-Core Inteference in Data Store : 43886
Heartbeat CPU 5 instructions: 40000001 cycles: 21246058 heartbeat IPC: 1.88285 cumulative IPC: 1.8827 (Simulation time: 4 hr 0 min 57 sec) 
 Total Blocks : 196608 Invalid Blocks : 87323 Valid Blocks : 109285
 Total Tags : 491520 Threshold : 12288 Invalid Tags : 283931 Pr0 Tags : 98304 Pr1 Tags : 109285 num_pr0 : 12288
 SAE Count : 0
 Inter-Core Inteference in Data Store : 43886
Heartbeat CPU 4 instructions: 40000001 cycles: 21246069 heartbeat IPC: 1.88285 cumulative IPC: 1.8827 (Simulation time: 4 hr 0 min 57 sec) 
 Total Blocks : 196608 Invalid Blocks : 87323 Valid Blocks : 109285
 Total Tags : 491520 Threshold : 12288 Invalid Tags : 283931 Pr0 Tags : 98304 Pr1 Tags : 109285 num_pr0 : 12288
 SAE Count : 0
 Inter-Core Inteference in Data Store : 43886
Heartbeat CPU 6 instructions: 40000001 cycles: 21246187 heartbeat IPC: 1.88282 cumulative IPC: 1.88269 (Simulation time: 4 hr 0 min 57 sec) 
 Total Blocks : 196608 Invalid Blocks : 87323 Valid Blocks : 109285
 Total Tags : 491520 Threshold : 12288 Invalid Tags : 283931 Pr0 Tags : 98304 Pr1 Tags : 109285 num_pr0 : 12288
 SAE Count : 0
 Inter-Core Inteference in Data Store : 43886
Heartbeat CPU 7 instructions: 40000001 cycles: 21246203 heartbeat IPC: 1.88282 cumulative IPC: 1.88269 (Simulation time: 4 hr 0 min 58 sec) 
 Total Blocks : 196608 Invalid Blocks : 87323 Valid Blocks : 109285
 Total Tags : 491520 Threshold : 12288 Invalid Tags : 283931 Pr0 Tags : 98304 Pr1 Tags : 109285 num_pr0 : 12288
 SAE Count : 0
 Inter-Core Inteference in Data Store : 43886
Heartbeat CPU 1 instructions: 40000001 cycles: 21246204 heartbeat IPC: 1.88282 cumulative IPC: 1.88269 (Simulation time: 4 hr 0 min 58 sec) 
 Total Blocks : 196608 Invalid Blocks : 87323 Valid Blocks : 109285
 Total Tags : 491520 Threshold : 12288 Invalid Tags : 283931 Pr0 Tags : 98304 Pr1 Tags : 109285 num_pr0 : 12288
 SAE Count : 0
 Inter-Core Inteference in Data Store : 43886
Heartbeat CPU 0 instructions: 50000001 cycles: 26557361 heartbeat IPC: 1.8826 cumulative IPC: 1.88272 (Simulation time: 5 hr 30 min 54 sec) 
 Total Blocks : 196608 Invalid Blocks : 71410 Valid Blocks : 125198
 Total Tags : 491520 Threshold : 12288 Invalid Tags : 268020 Pr0 Tags : 98302 Pr1 Tags : 125198 num_pr0 : 12288
 SAE Count : 0
 Inter-Core Inteference in Data Store : 64281
Heartbeat CPU 2 instructions: 50000001 cycles: 26557524 heartbeat IPC: 1.8826 cumulative IPC: 1.88271 (Simulation time: 5 hr 30 min 54 sec) 
 Total Blocks : 196608 Invalid Blocks : 71410 Valid Blocks : 125198
 Total Tags : 491520 Threshold : 12288 Invalid Tags : 268020 Pr0 Tags : 98302 Pr1 Tags : 125198 num_pr0 : 12288
 SAE Count : 0
 Inter-Core Inteference in Data Store : 64281
Heartbeat CPU 3 instructions: 50000001 cycles: 26557565 heartbeat IPC: 1.8826 cumulative IPC: 1.8827 (Simulation time: 5 hr 30 min 54 sec) 
 Total Blocks : 196608 Invalid Blocks : 71410 Valid Blocks : 125198
 Total Tags : 491520 Threshold : 12288 Invalid Tags : 268020 Pr0 Tags : 98302 Pr1 Tags : 125198 num_pr0 : 12288
 SAE Count : 0
 Inter-Core Inteference in Data Store : 64281
Heartbeat CPU 5 instructions: 50000001 cycles: 26557878 heartbeat IPC: 1.88259 cumulative IPC: 1.88268 (Simulation time: 5 hr 30 min 54 sec) 
 Total Blocks : 196608 Invalid Blocks : 71410 Valid Blocks : 125198
 Total Tags : 491520 Threshold : 12288 Invalid Tags : 268019 Pr0 Tags : 98303 Pr1 Tags : 125198 num_pr0 : 12287
 SAE Count : 0
 Inter-Core Inteference in Data Store : 64288
Heartbeat CPU 4 instructions: 50000001 cycles: 26557889 heartbeat IPC: 1.88259 cumulative IPC: 1.88268 (Simulation time: 5 hr 30 min 54 sec) 
 Total Blocks : 196608 Invalid Blocks : 71410 Valid Blocks : 125198
 Total Tags : 491520 Threshold : 12288 Invalid Tags : 268019 Pr0 Tags : 98303 Pr1 Tags : 125198 num_pr0 : 12287
 SAE Count : 0
 Inter-Core Inteference in Data Store : 64288
Heartbeat CPU 6 instructions: 50000001 cycles: 26557996 heartbeat IPC: 1.8826 cumulative IPC: 1.88267 (Simulation time: 5 hr 30 min 54 sec) 
 Total Blocks : 196608 Invalid Blocks : 71410 Valid Blocks : 125198
 Total Tags : 491520 Threshold : 12288 Invalid Tags : 268018 Pr0 Tags : 98304 Pr1 Tags : 125198 num_pr0 : 12288
 SAE Count : 0
 Inter-Core Inteference in Data Store : 64289
Heartbeat CPU 7 instructions: 50000001 cycles: 26558040 heartbeat IPC: 1.88259 cumulative IPC: 1.88267 (Simulation time: 5 hr 30 min 54 sec) 
 Total Blocks : 196608 Invalid Blocks : 71410 Valid Blocks : 125198
 Total Tags : 491520 Threshold : 12288 Invalid Tags : 268018 Pr0 Tags : 98304 Pr1 Tags : 125198 num_pr0 : 12288
 SAE Count : 0
 Inter-Core Inteference in Data Store : 64289
Heartbeat CPU 1 instructions: 50000001 cycles: 26558041 heartbeat IPC: 1.88259 cumulative IPC: 1.88267 (Simulation time: 5 hr 30 min 54 sec) 
 Total Blocks : 196608 Invalid Blocks : 71410 Valid Blocks : 125198
 Total Tags : 491520 Threshold : 12288 Invalid Tags : 268018 Pr0 Tags : 98304 Pr1 Tags : 125198 num_pr0 : 12288
 SAE Count : 0
 Inter-Core Inteference in Data Store : 64289
Heartbeat CPU 0 instructions: 60000001 cycles: 31868750 heartbeat IPC: 1.88275 cumulative IPC: 1.88272 (Simulation time: 7 hr 10 min 38 sec) 
 Total Blocks : 196608 Invalid Blocks : 58408 Valid Blocks : 138200
 Total Tags : 491520 Threshold : 12288 Invalid Tags : 255016 Pr0 Tags : 98304 Pr1 Tags : 138200 num_pr0 : 12288
 SAE Count : 0
 Inter-Core Inteference in Data Store : 87318
Heartbeat CPU 2 instructions: 60000001 cycles: 31868957 heartbeat IPC: 1.88273 cumulative IPC: 1.88271 (Simulation time: 7 hr 10 min 38 sec) 
 Total Blocks : 196608 Invalid Blocks : 58408 Valid Blocks : 138200
 Total Tags : 491520 Threshold : 12288 Invalid Tags : 255016 Pr0 Tags : 98304 Pr1 Tags : 138200 num_pr0 : 12288
 SAE Count : 0
 Inter-Core Inteference in Data Store : 87319
Heartbeat CPU 3 instructions: 60000001 cycles: 31869003 heartbeat IPC: 1.88273 cumulative IPC: 1.88271 (Simulation time: 7 hr 10 min 38 sec) 
 Total Blocks : 196608 Invalid Blocks : 58408 Valid Blocks : 138200
 Total Tags : 491520 Threshold : 12288 Invalid Tags : 255016 Pr0 Tags : 98304 Pr1 Tags : 138200 num_pr0 : 12288
 SAE Count : 0
 Inter-Core Inteference in Data Store : 87319
Heartbeat CPU 5 instructions: 60000001 cycles: 31869366 heartbeat IPC: 1.88271 cumulative IPC: 1.88269 (Simulation time: 7 hr 10 min 39 sec) 
 Total Blocks : 196608 Invalid Blocks : 58407 Valid Blocks : 138201
 Total Tags : 491520 Threshold : 12288 Invalid Tags : 255015 Pr0 Tags : 98304 Pr1 Tags : 138201 num_pr0 : 12288
 SAE Count : 0
 Inter-Core Inteference in Data Store : 87322
Heartbeat CPU 4 instructions: 60000001 cycles: 31869368 heartbeat IPC: 1.88271 cumulative IPC: 1.88269 (Simulation time: 7 hr 10 min 39 sec) 
 Total Blocks : 196608 Invalid Blocks : 58407 Valid Blocks : 138201
 Total Tags : 491520 Threshold : 12288 Invalid Tags : 255015 Pr0 Tags : 98304 Pr1 Tags : 138201 num_pr0 : 12288
 SAE Count : 0
 Inter-Core Inteference in Data Store : 87322
Heartbeat CPU 6 instructions: 60000001 cycles: 31869438 heartbeat IPC: 1.88273 cumulative IPC: 1.88268 (Simulation time: 7 hr 10 min 39 sec) 
 Total Blocks : 196608 Invalid Blocks : 58407 Valid Blocks : 138201
 Total Tags : 491520 Threshold : 12288 Invalid Tags : 255015 Pr0 Tags : 98304 Pr1 Tags : 138201 num_pr0 : 12288
 SAE Count : 0
 Inter-Core Inteference in Data Store : 87322
Heartbeat CPU 7 instructions: 60000001 cycles: 31869528 heartbeat IPC: 1.88271 cumulative IPC: 1.88268 (Simulation time: 7 hr 10 min 39 sec) 
 Total Blocks : 196608 Invalid Blocks : 58407 Valid Blocks : 138201
 Total Tags : 491520 Threshold : 12288 Invalid Tags : 255015 Pr0 Tags : 98304 Pr1 Tags : 138201 num_pr0 : 12288
 SAE Count : 0
 Inter-Core Inteference in Data Store : 87322
Heartbeat CPU 1 instructions: 60000001 cycles: 31869530 heartbeat IPC: 1.88271 cumulative IPC: 1.88268 (Simulation time: 7 hr 10 min 39 sec) 
 Total Blocks : 196608 Invalid Blocks : 58407 Valid Blocks : 138201
 Total Tags : 491520 Threshold : 12288 Invalid Tags : 255015 Pr0 Tags : 98304 Pr1 Tags : 138201 num_pr0 : 12288
 SAE Count : 0
 Inter-Core Inteference in Data Store : 87322
Heartbeat CPU 0 instructions: 70000000 cycles: 37179443 heartbeat IPC: 1.88299 cumulative IPC: 1.88276 (Simulation time: 8 hr 58 min 49 sec) 
 Total Blocks : 196608 Invalid Blocks : 47657 Valid Blocks : 148951
 Total Tags : 491520 Threshold : 12288 Invalid Tags : 244265 Pr0 Tags : 98304 Pr1 Tags : 148951 num_pr0 : 12288
 SAE Count : 0
 Inter-Core Inteference in Data Store : 112790
Heartbeat CPU 2 instructions: 70000000 cycles: 37179722 heartbeat IPC: 1.88297 cumulative IPC: 1.88275 (Simulation time: 8 hr 58 min 50 sec) 
 Total Blocks : 196608 Invalid Blocks : 47657 Valid Blocks : 148951
 Total Tags : 491520 Threshold : 12288 Invalid Tags : 244265 Pr0 Tags : 98304 Pr1 Tags : 148951 num_pr0 : 12288
 SAE Count : 0
 Inter-Core Inteference in Data Store : 112790
Heartbeat CPU 3 instructions: 70000000 cycles: 37179764 heartbeat IPC: 1.88297 cumulative IPC: 1.88274 (Simulation time: 8 hr 58 min 50 sec) 
 Total Blocks : 196608 Invalid Blocks : 47657 Valid Blocks : 148951
 Total Tags : 491520 Threshold : 12288 Invalid Tags : 244265 Pr0 Tags : 98304 Pr1 Tags : 148951 num_pr0 : 12288
 SAE Count : 0
 Inter-Core Inteference in Data Store : 112790
Heartbeat CPU 5 instructions: 70000000 cycles: 37180166 heartbeat IPC: 1.88296 cumulative IPC: 1.88272 (Simulation time: 8 hr 58 min 50 sec) 
 Total Blocks : 196608 Invalid Blocks : 47657 Valid Blocks : 148951
 Total Tags : 491520 Threshold : 12288 Invalid Tags : 244265 Pr0 Tags : 98304 Pr1 Tags : 148951 num_pr0 : 12288
 SAE Count : 0
 Inter-Core Inteference in Data Store : 112790
Heartbeat CPU 4 instructions: 70000000 cycles: 37180167 heartbeat IPC: 1.88296 cumulative IPC: 1.88272 (Simulation time: 8 hr 58 min 50 sec) 
 Total Blocks : 196608 Invalid Blocks : 47657 Valid Blocks : 148951
 Total Tags : 491520 Threshold : 12288 Invalid Tags : 244265 Pr0 Tags : 98304 Pr1 Tags : 148951 num_pr0 : 12288
 SAE Count : 0
 Inter-Core Inteference in Data Store : 112790
Heartbeat CPU 6 instructions: 70000000 cycles: 37180206 heartbeat IPC: 1.88297 cumulative IPC: 1.88272 (Simulation time: 8 hr 58 min 50 sec) 
 Total Blocks : 196608 Invalid Blocks : 47657 Valid Blocks : 148951
 Total Tags : 491520 Threshold : 12288 Invalid Tags : 244265 Pr0 Tags : 98304 Pr1 Tags : 148951 num_pr0 : 12288
 SAE Count : 0
 Inter-Core Inteference in Data Store : 112790
Heartbeat CPU 7 instructions: 70000000 cycles: 37180329 heartbeat IPC: 1.88295 cumulative IPC: 1.88272 (Simulation time: 8 hr 58 min 50 sec) 
 Total Blocks : 196608 Invalid Blocks : 47657 Valid Blocks : 148951
 Total Tags : 491520 Threshold : 12288 Invalid Tags : 244265 Pr0 Tags : 98304 Pr1 Tags : 148951 num_pr0 : 12288
 SAE Count : 0
 Inter-Core Inteference in Data Store : 112790
Heartbeat CPU 1 instructions: 70000000 cycles: 37180334 heartbeat IPC: 1.88295 cumulative IPC: 1.88272 (Simulation time: 8 hr 58 min 50 sec) 
 Total Blocks : 196608 Invalid Blocks : 47657 Valid Blocks : 148951
 Total Tags : 491520 Threshold : 12288 Invalid Tags : 244265 Pr0 Tags : 98304 Pr1 Tags : 148951 num_pr0 : 12288
 SAE Count : 0
 Inter-Core Inteference in Data Store : 112790
Heartbeat CPU 0 instructions: 80000003 cycles: 42490787 heartbeat IPC: 1.88276 cumulative IPC: 1.88276 (Simulation time: 10 hr 54 min 7 sec) 
 Total Blocks : 196608 Invalid Blocks : 38950 Valid Blocks : 157658
 Total Tags : 491520 Threshold : 12288 Invalid Tags : 235558 Pr0 Tags : 98304 Pr1 Tags : 157658 num_pr0 : 12288
 SAE Count : 0
 Inter-Core Inteference in Data Store : 139770
Heartbeat CPU 2 instructions: 80000003 cycles: 42491128 heartbeat IPC: 1.88274 cumulative IPC: 1.88275 (Simulation time: 10 hr 54 min 7 sec) 
 Total Blocks : 196608 Invalid Blocks : 38949 Valid Blocks : 157659
 Total Tags : 491520 Threshold : 12288 Invalid Tags : 235557 Pr0 Tags : 98304 Pr1 Tags : 157659 num_pr0 : 12288
 SAE Count : 0
 Inter-Core Inteference in Data Store : 139773
Heartbeat CPU 3 instructions: 80000003 cycles: 42491173 heartbeat IPC: 1.88274 cumulative IPC: 1.88274 (Simulation time: 10 hr 54 min 8 sec) 
 Total Blocks : 196608 Invalid Blocks : 38949 Valid Blocks : 157659
 Total Tags : 491520 Threshold : 12288 Invalid Tags : 235557 Pr0 Tags : 98304 Pr1 Tags : 157659 num_pr0 : 12288
 SAE Count : 0
 Inter-Core Inteference in Data Store : 139773
Heartbeat CPU 5 instructions: 80000003 cycles: 42491628 heartbeat IPC: 1.88272 cumulative IPC: 1.88272 (Simulation time: 10 hr 54 min 8 sec) 
 Total Blocks : 196608 Invalid Blocks : 38947 Valid Blocks : 157661
 Total Tags : 491520 Threshold : 12288 Invalid Tags : 235555 Pr0 Tags : 98304 Pr1 Tags : 157661 num_pr0 : 12288
 SAE Count : 0
 Inter-Core Inteference in Data Store : 139777
Heartbeat CPU 4 instructions: 80000003 cycles: 42491635 heartbeat IPC: 1.88272 cumulative IPC: 1.88272 (Simulation time: 10 hr 54 min 8 sec) 
 Total Blocks : 196608 Invalid Blocks : 38947 Valid Blocks : 157661
 Total Tags : 491520 Threshold : 12288 Invalid Tags : 235555 Pr0 Tags : 98304 Pr1 Tags : 157661 num_pr0 : 12288
 SAE Count : 0
 Inter-Core Inteference in Data Store : 139777
Heartbeat CPU 6 instructions: 80000003 cycles: 42491662 heartbeat IPC: 1.88272 cumulative IPC: 1.88272 (Simulation time: 10 hr 54 min 8 sec) 
 Total Blocks : 196608 Invalid Blocks : 38947 Valid Blocks : 157661
 Total Tags : 491520 Threshold : 12288 Invalid Tags : 235555 Pr0 Tags : 98304 Pr1 Tags : 157661 num_pr0 : 12288
 SAE Count : 0
 Inter-Core Inteference in Data Store : 139777
Heartbeat CPU 7 instructions: 80000003 cycles: 42491741 heartbeat IPC: 1.88274 cumulative IPC: 1.88272 (Simulation time: 10 hr 54 min 8 sec) 
 Total Blocks : 196608 Invalid Blocks : 38947 Valid Blocks : 157661
 Total Tags : 491520 Threshold : 12288 Invalid Tags : 235555 Pr0 Tags : 98304 Pr1 Tags : 157661 num_pr0 : 12288
 SAE Count : 0
 Inter-Core Inteference in Data Store : 139777
Heartbeat CPU 1 instructions: 80000003 cycles: 42491748 heartbeat IPC: 1.88274 cumulative IPC: 1.88272 (Simulation time: 10 hr 54 min 8 sec) 
 Total Blocks : 196608 Invalid Blocks : 38947 Valid Blocks : 157661
 Total Tags : 491520 Threshold : 12288 Invalid Tags : 235555 Pr0 Tags : 98304 Pr1 Tags : 157661 num_pr0 : 12288
 SAE Count : 0
 Inter-Core Inteference in Data Store : 139777
Heartbeat CPU 0 instructions: 90000002 cycles: 47802713 heartbeat IPC: 1.88256 cumulative IPC: 1.88274 (Simulation time: 13 hr 2 min 7 sec) 
 Total Blocks : 196608 Invalid Blocks : 31796 Valid Blocks : 164812
 Total Tags : 491520 Threshold : 12288 Invalid Tags : 228404 Pr0 Tags : 98304 Pr1 Tags : 164812 num_pr0 : 12288
 SAE Count : 0
 Inter-Core Inteference in Data Store : 168577
Heartbeat CPU 2 instructions: 90000002 cycles: 47803116 heartbeat IPC: 1.88253 cumulative IPC: 1.88272 (Simulation time: 13 hr 2 min 8 sec) 
 Total Blocks : 196608 Invalid Blocks : 31796 Valid Blocks : 164812
 Total Tags : 491520 Threshold : 12288 Invalid Tags : 228404 Pr0 Tags : 98304 Pr1 Tags : 164812 num_pr0 : 12288
 SAE Count : 0
 Inter-Core Inteference in Data Store : 168581
Heartbeat CPU 3 instructions: 90000002 cycles: 47803160 heartbeat IPC: 1.88253 cumulative IPC: 1.88272 (Simulation time: 13 hr 2 min 8 sec) 
 Total Blocks : 196608 Invalid Blocks : 31796 Valid Blocks : 164812
 Total Tags : 491520 Threshold : 12288 Invalid Tags : 228404 Pr0 Tags : 98304 Pr1 Tags : 164812 num_pr0 : 12288
 SAE Count : 0
 Inter-Core Inteference in Data Store : 168581
Heartbeat CPU 4 instructions: 90000002 cycles: 47803631 heartbeat IPC: 1.88253 cumulative IPC: 1.8827 (Simulation time: 13 hr 2 min 8 sec) 
 Total Blocks : 196608 Invalid Blocks : 31796 Valid Blocks : 164812
 Total Tags : 491520 Threshold : 12288 Invalid Tags : 228404 Pr0 Tags : 98304 Pr1 Tags : 164812 num_pr0 : 12288
 SAE Count : 0
 Inter-Core Inteference in Data Store : 168581
Heartbeat CPU 5 instructions: 90000002 cycles: 47803648 heartbeat IPC: 1.88252 cumulative IPC: 1.8827 (Simulation time: 13 hr 2 min 8 sec) 
 Total Blocks : 196608 Invalid Blocks : 31794 Valid Blocks : 164814
 Total Tags : 491520 Threshold : 12288 Invalid Tags : 228402 Pr0 Tags : 98304 Pr1 Tags : 164814 num_pr0 : 12288
 SAE Count : 0
 Inter-Core Inteference in Data Store : 168581
Heartbeat CPU 6 instructions: 90000002 cycles: 47803657 heartbeat IPC: 1.88253 cumulative IPC: 1.8827 (Simulation time: 13 hr 2 min 8 sec) 
 Total Blocks : 196608 Invalid Blocks : 31794 Valid Blocks : 164814
 Total Tags : 491520 Threshold : 12288 Invalid Tags : 228402 Pr0 Tags : 98304 Pr1 Tags : 164814 num_pr0 : 12288
 SAE Count : 0
 Inter-Core Inteference in Data Store : 168581
Heartbeat CPU 7 instructions: 90000002 cycles: 47803724 heartbeat IPC: 1.88254 cumulative IPC: 1.8827 (Simulation time: 13 hr 2 min 8 sec) 
 Total Blocks : 196608 Invalid Blocks : 31794 Valid Blocks : 164814
 Total Tags : 491520 Threshold : 12288 Invalid Tags : 228403 Pr0 Tags : 98303 Pr1 Tags : 164814 num_pr0 : 12288
 SAE Count : 0
 Inter-Core Inteference in Data Store : 168582
Heartbeat CPU 1 instructions: 90000002 cycles: 47803734 heartbeat IPC: 1.88253 cumulative IPC: 1.8827 (Simulation time: 13 hr 2 min 8 sec) 
 Total Blocks : 196608 Invalid Blocks : 31794 Valid Blocks : 164814
 Total Tags : 491520 Threshold : 12288 Invalid Tags : 228403 Pr0 Tags : 98303 Pr1 Tags : 164814 num_pr0 : 12288
 SAE Count : 0
 Inter-Core Inteference in Data Store : 168582
Heartbeat CPU 0 instructions: 100000002 cycles: 53113668 heartbeat IPC: 1.8829 cumulative IPC: 1.88275 (Simulation time: 15 hr 12 min 8 sec) 
 Total Blocks : 196608 Invalid Blocks : 25901 Valid Blocks : 170707
 Total Tags : 491520 Threshold : 12288 Invalid Tags : 222509 Pr0 Tags : 98304 Pr1 Tags : 170707 num_pr0 : 12288
 SAE Count : 0
 Inter-Core Inteference in Data Store : 198160
Heartbeat CPU 2 instructions: 100000002 cycles: 53114154 heartbeat IPC: 1.88287 cumulative IPC: 1.88274 (Simulation time: 15 hr 12 min 18 sec) 
 Total Blocks : 196608 Invalid Blocks : 25899 Valid Blocks : 170709
 Total Tags : 491520 Threshold : 12288 Invalid Tags : 222507 Pr0 Tags : 98304 Pr1 Tags : 170709 num_pr0 : 12288
 SAE Count : 0
 Inter-Core Inteference in Data Store : 198165
Heartbeat CPU 3 instructions: 100000002 cycles: 53114194 heartbeat IPC: 1.88287 cumulative IPC: 1.88274 (Simulation time: 15 hr 12 min 18 sec) 
 Total Blocks : 196608 Invalid Blocks : 25899 Valid Blocks : 170709
 Total Tags : 491520 Threshold : 12288 Invalid Tags : 222508 Pr0 Tags : 98303 Pr1 Tags : 170709 num_pr0 : 12288
 SAE Count : 0
 Inter-Core Inteference in Data Store : 198166
Heartbeat CPU 4 instructions: 100000002 cycles: 53114665 heartbeat IPC: 1.88287 cumulative IPC: 1.88272 (Simulation time: 15 hr 12 min 18 sec) 
 Total Blocks : 196608 Invalid Blocks : 25899 Valid Blocks : 170709
 Total Tags : 491520 Threshold : 12288 Invalid Tags : 222507 Pr0 Tags : 98304 Pr1 Tags : 170709 num_pr0 : 12288
 SAE Count : 0
 Inter-Core Inteference in Data Store : 198167
Heartbeat CPU 6 instructions: 100000002 cycles: 53114714 heartbeat IPC: 1.88286 cumulative IPC: 1.88272 (Simulation time: 15 hr 12 min 18 sec) 
 Total Blocks : 196608 Invalid Blocks : 25899 Valid Blocks : 170709
 Total Tags : 491520 Threshold : 12288 Invalid Tags : 222507 Pr0 Tags : 98304 Pr1 Tags : 170709 num_pr0 : 12288
 SAE Count : 0
 Inter-Core Inteference in Data Store : 198167
Heartbeat CPU 5 instructions: 100000002 cycles: 53114728 heartbeat IPC: 1.88286 cumulative IPC: 1.88272 (Simulation time: 15 hr 12 min 18 sec) 
 Total Blocks : 196608 Invalid Blocks : 25899 Valid Blocks : 170709
 Total Tags : 491520 Threshold : 12288 Invalid Tags : 222508 Pr0 Tags : 98303 Pr1 Tags : 170709 num_pr0 : 12288
 SAE Count : 0
 Inter-Core Inteference in Data Store : 198168
Heartbeat CPU 7 instructions: 100000002 cycles: 53114762 heartbeat IPC: 1.88287 cumulative IPC: 1.88272 (Simulation time: 15 hr 12 min 18 sec) 
 Total Blocks : 196608 Invalid Blocks : 25899 Valid Blocks : 170709
 Total Tags : 491520 Threshold : 12288 Invalid Tags : 222507 Pr0 Tags : 98304 Pr1 Tags : 170709 num_pr0 : 12288
 SAE Count : 0
 Inter-Core Inteference in Data Store : 198172
Heartbeat CPU 1 instructions: 100000002 cycles: 53114769 heartbeat IPC: 1.88287 cumulative IPC: 1.88272 (Simulation time: 15 hr 12 min 18 sec) 
 Total Blocks : 196608 Invalid Blocks : 25899 Valid Blocks : 170709
 Total Tags : 491520 Threshold : 12288 Invalid Tags : 222507 Pr0 Tags : 98304 Pr1 Tags : 170709 num_pr0 : 12288
 SAE Count : 0
 Inter-Core Inteference in Data Store : 198172
Heartbeat CPU 0 instructions: 110000000 cycles: 58424341 heartbeat IPC: 1.883 cumulative IPC: 1.88278 (Simulation time: 17 hr 19 min 38 sec) 
 Total Blocks : 196608 Invalid Blocks : 20983 Valid Blocks : 175625
 Total Tags : 491520 Threshold : 12288 Invalid Tags : 217592 Pr0 Tags : 98303 Pr1 Tags : 175625 num_pr0 : 12288
 SAE Count : 0
 Inter-Core Inteference in Data Store : 229741
Heartbeat CPU 2 instructions: 110000000 cycles: 58424882 heartbeat IPC: 1.88298 cumulative IPC: 1.88276 (Simulation time: 17 hr 19 min 38 sec) 
 Total Blocks : 196608 Invalid Blocks : 20983 Valid Blocks : 175625
 Total Tags : 491520 Threshold : 12288 Invalid Tags : 217591 Pr0 Tags : 98304 Pr1 Tags : 175625 num_pr0 : 12288
 SAE Count : 0
 Inter-Core Inteference in Data Store : 229741
Heartbeat CPU 3 instructions: 110000000 cycles: 58424921 heartbeat IPC: 1.88298 cumulative IPC: 1.88276 (Simulation time: 17 hr 19 min 39 sec) 
 Total Blocks : 196608 Invalid Blocks : 20983 Valid Blocks : 175625
 Total Tags : 491520 Threshold : 12288 Invalid Tags : 217591 Pr0 Tags : 98304 Pr1 Tags : 175625 num_pr0 : 12288
 SAE Count : 0
 Inter-Core Inteference in Data Store : 229741
Heartbeat CPU 4 instructions: 110000000 cycles: 58425399 heartbeat IPC: 1.88298 cumulative IPC: 1.88274 (Simulation time: 17 hr 19 min 39 sec) 
 Total Blocks : 196608 Invalid Blocks : 20983 Valid Blocks : 175625
 Total Tags : 491520 Threshold : 12288 Invalid Tags : 217591 Pr0 Tags : 98304 Pr1 Tags : 175625 num_pr0 : 12288
 SAE Count : 0
 Inter-Core Inteference in Data Store : 229742
Heartbeat CPU 6 instructions: 110000000 cycles: 58425470 heartbeat IPC: 1.88297 cumulative IPC: 1.88274 (Simulation time: 17 hr 19 min 39 sec) 
 Total Blocks : 196608 Invalid Blocks : 20983 Valid Blocks : 175625
 Total Tags : 491520 Threshold : 12288 Invalid Tags : 217591 Pr0 Tags : 98304 Pr1 Tags : 175625 num_pr0 : 12288
 SAE Count : 0
 Inter-Core Inteference in Data Store : 229742
Heartbeat CPU 5 instructions: 110000000 cycles: 58425483 heartbeat IPC: 1.88297 cumulative IPC: 1.88274 (Simulation time: 17 hr 19 min 39 sec) 
 Total Blocks : 196608 Invalid Blocks : 20983 Valid Blocks : 175625
 Total Tags : 491520 Threshold : 12288 Invalid Tags : 217591 Pr0 Tags : 98304 Pr1 Tags : 175625 num_pr0 : 12288
 SAE Count : 0
 Inter-Core Inteference in Data Store : 229742
Heartbeat CPU 7 instructions: 110000000 cycles: 58425518 heartbeat IPC: 1.88297 cumulative IPC: 1.88274 (Simulation time: 17 hr 19 min 39 sec) 
 Total Blocks : 196608 Invalid Blocks : 20983 Valid Blocks : 175625
 Total Tags : 491520 Threshold : 12288 Invalid Tags : 217591 Pr0 Tags : 98304 Pr1 Tags : 175625 num_pr0 : 12288
 SAE Count : 0
 Inter-Core Inteference in Data Store : 229742
Heartbeat CPU 1 instructions: 110000000 cycles: 58425530 heartbeat IPC: 1.88297 cumulative IPC: 1.88274 (Simulation time: 17 hr 19 min 39 sec) 
 Total Blocks : 196608 Invalid Blocks : 20983 Valid Blocks : 175625
 Total Tags : 491520 Threshold : 12288 Invalid Tags : 217591 Pr0 Tags : 98304 Pr1 Tags : 175625 num_pr0 : 12288
 SAE Count : 0
 Inter-Core Inteference in Data Store : 229742
Heartbeat CPU 0 instructions: 120000003 cycles: 63736124 heartbeat IPC: 1.88261 cumulative IPC: 1.88276 (Simulation time: 19 hr 24 min 26 sec) 
 Total Blocks : 196608 Invalid Blocks : 17114 Valid Blocks : 179494
 Total Tags : 491520 Threshold : 12288 Invalid Tags : 213722 Pr0 Tags : 98304 Pr1 Tags : 179494 num_pr0 : 12288
 SAE Count : 0
 Inter-Core Inteference in Data Store : 261288
Heartbeat CPU 2 instructions: 120000003 cycles: 63736733 heartbeat IPC: 1.88258 cumulative IPC: 1.88274 (Simulation time: 19 hr 24 min 27 sec) 
 Total Blocks : 196608 Invalid Blocks : 17114 Valid Blocks : 179494
 Total Tags : 491520 Threshold : 12288 Invalid Tags : 213722 Pr0 Tags : 98304 Pr1 Tags : 179494 num_pr0 : 12288
 SAE Count : 0
 Inter-Core Inteference in Data Store : 261294
Heartbeat CPU 3 instructions: 120000003 cycles: 63736773 heartbeat IPC: 1.88258 cumulative IPC: 1.88274 (Simulation time: 19 hr 24 min 27 sec) 
 Total Blocks : 196608 Invalid Blocks : 17114 Valid Blocks : 179494
 Total Tags : 491520 Threshold : 12288 Invalid Tags : 213722 Pr0 Tags : 98304 Pr1 Tags : 179494 num_pr0 : 12288
 SAE Count : 0
 Inter-Core Inteference in Data Store : 261294
Heartbeat CPU 4 instructions: 120000003 cycles: 63737252 heartbeat IPC: 1.88258 cumulative IPC: 1.88273 (Simulation time: 19 hr 24 min 27 sec) 
 Total Blocks : 196608 Invalid Blocks : 17113 Valid Blocks : 179495
 Total Tags : 491520 Threshold : 12288 Invalid Tags : 213721 Pr0 Tags : 98304 Pr1 Tags : 179495 num_pr0 : 12288
 SAE Count : 0
 Inter-Core Inteference in Data Store : 261294
Heartbeat CPU 5 instructions: 120000003 cycles: 63737340 heartbeat IPC: 1.88258 cumulative IPC: 1.88273 (Simulation time: 19 hr 24 min 27 sec) 
 Total Blocks : 196608 Invalid Blocks : 17113 Valid Blocks : 179495
 Total Tags : 491520 Threshold : 12288 Invalid Tags : 213722 Pr0 Tags : 98303 Pr1 Tags : 179495 num_pr0 : 12288
 SAE Count : 0
 Inter-Core Inteference in Data Store : 261297
Heartbeat CPU 6 instructions: 120000003 cycles: 63737375 heartbeat IPC: 1.88256 cumulative IPC: 1.88273 (Simulation time: 19 hr 24 min 27 sec) 
 Total Blocks : 196608 Invalid Blocks : 17113 Valid Blocks : 179495
 Total Tags : 491520 Threshold : 12288 Invalid Tags : 213721 Pr0 Tags : 98304 Pr1 Tags : 179495 num_pr0 : 12288
 SAE Count : 0
 Inter-Core Inteference in Data Store : 261297
Heartbeat CPU 1 instructions: 120000003 cycles: 63737404 heartbeat IPC: 1.88258 cumulative IPC: 1.88273 (Simulation time: 19 hr 24 min 27 sec) 
 Total Blocks : 196608 Invalid Blocks : 17113 Valid Blocks : 179495
 Total Tags : 491520 Threshold : 12288 Invalid Tags : 213721 Pr0 Tags : 98304 Pr1 Tags : 179495 num_pr0 : 12288
 SAE Count : 0
 Inter-Core Inteference in Data Store : 261298
Heartbeat CPU 7 instructions: 120000003 cycles: 63737418 heartbeat IPC: 1.88257 cumulative IPC: 1.88272 (Simulation time: 19 hr 24 min 27 sec) 
 Total Blocks : 196608 Invalid Blocks : 17113 Valid Blocks : 179495
 Total Tags : 491520 Threshold : 12288 Invalid Tags : 213721 Pr0 Tags : 98304 Pr1 Tags : 179495 num_pr0 : 12288
 SAE Count : 0
 Inter-Core Inteference in Data Store : 261298
Heartbeat CPU 0 instructions: 130000001 cycles: 69047761 heartbeat IPC: 1.88266 cumulative IPC: 1.88275 (Simulation time: 21 hr 29 min 54 sec) 
 Total Blocks : 196608 Invalid Blocks : 14040 Valid Blocks : 182568
 Total Tags : 491520 Threshold : 12288 Invalid Tags : 210648 Pr0 Tags : 98304 Pr1 Tags : 182568 num_pr0 : 12288
 SAE Count : 0
 Inter-Core Inteference in Data Store : 292740
Heartbeat CPU 2 instructions: 130000001 cycles: 69048433 heartbeat IPC: 1.88264 cumulative IPC: 1.88274 (Simulation time: 21 hr 30 min 0 sec) 
 Total Blocks : 196608 Invalid Blocks : 14040 Valid Blocks : 182568
 Total Tags : 491520 Threshold : 12288 Invalid Tags : 210648 Pr0 Tags : 98304 Pr1 Tags : 182568 num_pr0 : 12288
 SAE Count : 0
 Inter-Core Inteference in Data Store : 292744
Heartbeat CPU 3 instructions: 130000001 cycles: 69048479 heartbeat IPC: 1.88263 cumulative IPC: 1.88274 (Simulation time: 21 hr 30 min 0 sec) 
 Total Blocks : 196608 Invalid Blocks : 14040 Valid Blocks : 182568
 Total Tags : 491520 Threshold : 12288 Invalid Tags : 210648 Pr0 Tags : 98304 Pr1 Tags : 182568 num_pr0 : 12288
 SAE Count : 0
 Inter-Core Inteference in Data Store : 292744
Heartbeat CPU 4 instructions: 130000001 cycles: 69048952 heartbeat IPC: 1.88264 cumulative IPC: 1.88272 (Simulation time: 21 hr 30 min 7 sec) 
 Total Blocks : 196608 Invalid Blocks : 14039 Valid Blocks : 182569
 Total Tags : 491520 Threshold : 12288 Invalid Tags : 210647 Pr0 Tags : 98304 Pr1 Tags : 182569 num_pr0 : 12288
 SAE Count : 0
 Inter-Core Inteference in Data Store : 292748
Heartbeat CPU 5 instructions: 130000001 cycles: 69049053 heartbeat IPC: 1.88263 cumulative IPC: 1.88272 (Simulation time: 21 hr 30 min 7 sec) 
 Total Blocks : 196608 Invalid Blocks : 14039 Valid Blocks : 182569
 Total Tags : 491520 Threshold : 12288 Invalid Tags : 210647 Pr0 Tags : 98304 Pr1 Tags : 182569 num_pr0 : 12288
 SAE Count : 0
 Inter-Core Inteference in Data Store : 292748
Heartbeat CPU 6 instructions: 130000001 cycles: 69049091 heartbeat IPC: 1.88263 cumulative IPC: 1.88272 (Simulation time: 21 hr 30 min 7 sec) 
 Total Blocks : 196608 Invalid Blocks : 14039 Valid Blocks : 182569
 Total Tags : 491520 Threshold : 12288 Invalid Tags : 210647 Pr0 Tags : 98304 Pr1 Tags : 182569 num_pr0 : 12288
 SAE Count : 0
 Inter-Core Inteference in Data Store : 292748
Heartbeat CPU 1 instructions: 130000001 cycles: 69049115 heartbeat IPC: 1.88263 cumulative IPC: 1.88272 (Simulation time: 21 hr 30 min 7 sec) 
 Total Blocks : 196608 Invalid Blocks : 14039 Valid Blocks : 182569
 Total Tags : 491520 Threshold : 12288 Invalid Tags : 210647 Pr0 Tags : 98304 Pr1 Tags : 182569 num_pr0 : 12288
 SAE Count : 0
 Inter-Core Inteference in Data Store : 292748
Heartbeat CPU 7 instructions: 130000001 cycles: 69049140 heartbeat IPC: 1.88263 cumulative IPC: 1.88272 (Simulation time: 21 hr 30 min 7 sec) 
 Total Blocks : 196608 Invalid Blocks : 14039 Valid Blocks : 182569
 Total Tags : 491520 Threshold : 12288 Invalid Tags : 210647 Pr0 Tags : 98304 Pr1 Tags : 182569 num_pr0 : 12288
 SAE Count : 0
 Inter-Core Inteference in Data Store : 292748
Heartbeat CPU 0 instructions: 140000001 cycles: 74358358 heartbeat IPC: 1.88303 cumulative IPC: 1.88277 (Simulation time: 23 hr 41 min 39 sec) 
 Total Blocks : 196608 Invalid Blocks : 11500 Valid Blocks : 185108
 Total Tags : 491520 Threshold : 12288 Invalid Tags : 208108 Pr0 Tags : 98304 Pr1 Tags : 185108 num_pr0 : 12288
 SAE Count : 0
 Inter-Core Inteference in Data Store : 324958
Heartbeat CPU 2 instructions: 140000001 cycles: 74359106 heartbeat IPC: 1.883 cumulative IPC: 1.88276 (Simulation time: 23 hr 41 min 39 sec) 
 Total Blocks : 196608 Invalid Blocks : 11500 Valid Blocks : 185108
 Total Tags : 491520 Threshold : 12288 Invalid Tags : 208108 Pr0 Tags : 98304 Pr1 Tags : 185108 num_pr0 : 12288
 SAE Count : 0
 Inter-Core Inteference in Data Store : 324959
Heartbeat CPU 3 instructions: 140000001 cycles: 74359148 heartbeat IPC: 1.883 cumulative IPC: 1.88275 (Simulation time: 23 hr 41 min 40 sec) 
 Total Blocks : 196608 Invalid Blocks : 11500 Valid Blocks : 185108
 Total Tags : 491520 Threshold : 12288 Invalid Tags : 208108 Pr0 Tags : 98304 Pr1 Tags : 185108 num_pr0 : 12288
 SAE Count : 0
 Inter-Core Inteference in Data Store : 324959
Heartbeat CPU 4 instructions: 140000001 cycles: 74359623 heartbeat IPC: 1.883 cumulative IPC: 1.88274 (Simulation time: 23 hr 41 min 40 sec) 
 Total Blocks : 196608 Invalid Blocks : 11500 Valid Blocks : 185108
 Total Tags : 491520 Threshold : 12288 Invalid Tags : 208109 Pr0 Tags : 98303 Pr1 Tags : 185108 num_pr0 : 12288
 SAE Count : 0
 Inter-Core Inteference in Data Store : 324967
Heartbeat CPU 5 instructions: 140000001 cycles: 74359716 heartbeat IPC: 1.883 cumulative IPC: 1.88274 (Simulation time: 23 hr 41 min 40 sec) 
 Total Blocks : 196608 Invalid Blocks : 11500 Valid Blocks : 185108
 Total Tags : 491520 Threshold : 12288 Invalid Tags : 208109 Pr0 Tags : 98303 Pr1 Tags : 185108 num_pr0 : 12288
 SAE Count : 0
 Inter-Core Inteference in Data Store : 324967
Heartbeat CPU 6 instructions: 140000001 cycles: 74359761 heartbeat IPC: 1.883 cumulative IPC: 1.88274 (Simulation time: 23 hr 41 min 40 sec) 
 Total Blocks : 196608 Invalid Blocks : 11500 Valid Blocks : 185108
 Total Tags : 491520 Threshold : 12288 Invalid Tags : 208109 Pr0 Tags : 98303 Pr1 Tags : 185108 num_pr0 : 12288
 SAE Count : 0
 Inter-Core Inteference in Data Store : 324967
Heartbeat CPU 1 instructions: 140000001 cycles: 74359781 heartbeat IPC: 1.883 cumulative IPC: 1.88274 (Simulation time: 23 hr 41 min 40 sec) 
 Total Blocks : 196608 Invalid Blocks : 11500 Valid Blocks : 185108
 Total Tags : 491520 Threshold : 12288 Invalid Tags : 208109 Pr0 Tags : 98303 Pr1 Tags : 185108 num_pr0 : 12288
 SAE Count : 0
 Inter-Core Inteference in Data Store : 324967
Heartbeat CPU 7 instructions: 140000001 cycles: 74359800 heartbeat IPC: 1.88301 cumulative IPC: 1.88274 (Simulation time: 23 hr 41 min 40 sec) 
 Total Blocks : 196608 Invalid Blocks : 11500 Valid Blocks : 185108
 Total Tags : 491520 Threshold : 12288 Invalid Tags : 208109 Pr0 Tags : 98303 Pr1 Tags : 185108 num_pr0 : 12288
 SAE Count : 0
 Inter-Core Inteference in Data Store : 324967
Heartbeat CPU 0 instructions: 150000002 cycles: 79669434 heartbeat IPC: 1.88286 cumulative IPC: 1.88278 (Simulation time: 25 hr 51 min 40 sec) 
 Total Blocks : 196608 Invalid Blocks : 9375 Valid Blocks : 187233
 Total Tags : 491520 Threshold : 12288 Invalid Tags : 205983 Pr0 Tags : 98304 Pr1 Tags : 187233 num_pr0 : 12288
 SAE Count : 0
 Inter-Core Inteference in Data Store : 357382
Heartbeat CPU 2 instructions: 150000002 cycles: 79670248 heartbeat IPC: 1.88283 cumulative IPC: 1.88276 (Simulation time: 25 hr 51 min 41 sec) 
 Total Blocks : 196608 Invalid Blocks : 9374 Valid Blocks : 187234
 Total Tags : 491520 Threshold : 12288 Invalid Tags : 205982 Pr0 Tags : 98304 Pr1 Tags : 187234 num_pr0 : 12288
 SAE Count : 0
 Inter-Core Inteference in Data Store : 357385
Heartbeat CPU 3 instructions: 150000002 cycles: 79670286 heartbeat IPC: 1.88284 cumulative IPC: 1.88276 (Simulation time: 25 hr 51 min 42 sec) 
 Total Blocks : 196608 Invalid Blocks : 9374 Valid Blocks : 187234
 Total Tags : 491520 Threshold : 12288 Invalid Tags : 205982 Pr0 Tags : 98304 Pr1 Tags : 187234 num_pr0 : 12288
 SAE Count : 0
 Inter-Core Inteference in Data Store : 357385
Heartbeat CPU 4 instructions: 150000002 cycles: 79670766 heartbeat IPC: 1.88283 cumulative IPC: 1.88275 (Simulation time: 25 hr 51 min 43 sec) 
 Total Blocks : 196608 Invalid Blocks : 9374 Valid Blocks : 187234
 Total Tags : 491520 Threshold : 12288 Invalid Tags : 205982 Pr0 Tags : 98304 Pr1 Tags : 187234 num_pr0 : 12288
 SAE Count : 0
 Inter-Core Inteference in Data Store : 357394
Heartbeat CPU 5 instructions: 150000002 cycles: 79670852 heartbeat IPC: 1.88284 cumulative IPC: 1.88275 (Simulation time: 25 hr 51 min 43 sec) 
 Total Blocks : 196608 Invalid Blocks : 9374 Valid Blocks : 187234
 Total Tags : 491520 Threshold : 12288 Invalid Tags : 205982 Pr0 Tags : 98304 Pr1 Tags : 187234 num_pr0 : 12288
 SAE Count : 0
 Inter-Core Inteference in Data Store : 357394
Heartbeat CPU 6 instructions: 150000002 cycles: 79670972 heartbeat IPC: 1.88281 cumulative IPC: 1.88274 (Simulation time: 25 hr 51 min 43 sec) 
 Total Blocks : 196608 Invalid Blocks : 9374 Valid Blocks : 187234
 Total Tags : 491520 Threshold : 12288 Invalid Tags : 205982 Pr0 Tags : 98304 Pr1 Tags : 187234 num_pr0 : 12288
 SAE Count : 0
 Inter-Core Inteference in Data Store : 357394
Heartbeat CPU 7 instructions: 150000002 cycles: 79670984 heartbeat IPC: 1.88282 cumulative IPC: 1.88274 (Simulation time: 25 hr 51 min 44 sec) 
 Total Blocks : 196608 Invalid Blocks : 9374 Valid Blocks : 187234
 Total Tags : 491520 Threshold : 12288 Invalid Tags : 205982 Pr0 Tags : 98304 Pr1 Tags : 187234 num_pr0 : 12288
 SAE Count : 0
 Inter-Core Inteference in Data Store : 357394
Heartbeat CPU 1 instructions: 150000002 cycles: 79670986 heartbeat IPC: 1.88281 cumulative IPC: 1.88274 (Simulation time: 25 hr 51 min 44 sec) 
 Total Blocks : 196608 Invalid Blocks : 9374 Valid Blocks : 187234
 Total Tags : 491520 Threshold : 12288 Invalid Tags : 205982 Pr0 Tags : 98304 Pr1 Tags : 187234 num_pr0 : 12288
 SAE Count : 0
 Inter-Core Inteference in Data Store : 357394
Heartbeat CPU 0 instructions: 160000002 cycles: 84981243 heartbeat IPC: 1.8826 cumulative IPC: 1.88277 (Simulation time: 28 hr 4 min 16 sec) 
 Total Blocks : 196608 Invalid Blocks : 7696 Valid Blocks : 188912
 Total Tags : 491520 Threshold : 12288 Invalid Tags : 204305 Pr0 Tags : 98303 Pr1 Tags : 188912 num_pr0 : 12288
 SAE Count : 0
 Inter-Core Inteference in Data Store : 390467
Heartbeat CPU 2 instructions: 160000002 cycles: 84982133 heartbeat IPC: 1.88257 cumulative IPC: 1.88275 (Simulation time: 28 hr 4 min 20 sec) 
 Total Blocks : 196608 Invalid Blocks : 7696 Valid Blocks : 188912
 Total Tags : 491520 Threshold : 12288 Invalid Tags : 204304 Pr0 Tags : 98304 Pr1 Tags : 188912 num_pr0 : 12288
 SAE Count : 0
 Inter-Core Inteference in Data Store : 390467
Heartbeat CPU 3 instructions: 160000002 cycles: 84982174 heartbeat IPC: 1.88257 cumulative IPC: 1.88275 (Simulation time: 28 hr 4 min 20 sec) 
 Total Blocks : 196608 Invalid Blocks : 7696 Valid Blocks : 188912
 Total Tags : 491520 Threshold : 12288 Invalid Tags : 204304 Pr0 Tags : 98304 Pr1 Tags : 188912 num_pr0 : 12288
 SAE Count : 0
 Inter-Core Inteference in Data Store : 390467
Heartbeat CPU 4 instructions: 160000002 cycles: 84982657 heartbeat IPC: 1.88257 cumulative IPC: 1.88274 (Simulation time: 28 hr 4 min 27 sec) 
 Total Blocks : 196608 Invalid Blocks : 7696 Valid Blocks : 188912
 Total Tags : 491520 Threshold : 12288 Invalid Tags : 204304 Pr0 Tags : 98304 Pr1 Tags : 188912 num_pr0 : 12288
 SAE Count : 0
 Inter-Core Inteference in Data Store : 390469
Heartbeat CPU 5 instructions: 160000002 cycles: 84982730 heartbeat IPC: 1.88257 cumulative IPC: 1.88274 (Simulation time: 28 hr 4 min 31 sec) 
 Total Blocks : 196608 Invalid Blocks : 7696 Valid Blocks : 188912
 Total Tags : 491520 Threshold : 12288 Invalid Tags : 204304 Pr0 Tags : 98304 Pr1 Tags : 188912 num_pr0 : 12288
 SAE Count : 0
 Inter-Core Inteference in Data Store : 390469
Heartbeat CPU 6 instructions: 160000002 cycles: 84982886 heartbeat IPC: 1.88256 cumulative IPC: 1.88273 (Simulation time: 28 hr 4 min 31 sec) 
 Total Blocks : 196608 Invalid Blocks : 7696 Valid Blocks : 188912
 Total Tags : 491520 Threshold : 12288 Invalid Tags : 204304 Pr0 Tags : 98304 Pr1 Tags : 188912 num_pr0 : 12288
 SAE Count : 0
 Inter-Core Inteference in Data Store : 390469
Heartbeat CPU 7 instructions: 160000002 cycles: 84982957 heartbeat IPC: 1.88254 cumulative IPC: 1.88273 (Simulation time: 28 hr 4 min 31 sec) 
 Total Blocks : 196608 Invalid Blocks : 7696 Valid Blocks : 188912
 Total Tags : 491520 Threshold : 12288 Invalid Tags : 204304 Pr0 Tags : 98304 Pr1 Tags : 188912 num_pr0 : 12288
 SAE Count : 0
 Inter-Core Inteference in Data Store : 390469
Heartbeat CPU 1 instructions: 160000002 cycles: 84982958 heartbeat IPC: 1.88254 cumulative IPC: 1.88273 (Simulation time: 28 hr 4 min 31 sec) 
 Total Blocks : 196608 Invalid Blocks : 7696 Valid Blocks : 188912
 Total Tags : 491520 Threshold : 12288 Invalid Tags : 204304 Pr0 Tags : 98304 Pr1 Tags : 188912 num_pr0 : 12288
 SAE Count : 0
 Inter-Core Inteference in Data Store : 390469
Heartbeat CPU 0 instructions: 170000002 cycles: 90292470 heartbeat IPC: 1.8828 cumulative IPC: 1.88277 (Simulation time: 30 hr 13 min 46 sec) 
 Total Blocks : 196608 Invalid Blocks : 6298 Valid Blocks : 190310
 Total Tags : 491520 Threshold : 12288 Invalid Tags : 202906 Pr0 Tags : 98304 Pr1 Tags : 190310 num_pr0 : 12288
 SAE Count : 0
 Inter-Core Inteference in Data Store : 423537
Heartbeat CPU 2 instructions: 170000002 cycles: 90293437 heartbeat IPC: 1.88278 cumulative IPC: 1.88275 (Simulation time: 30 hr 13 min 46 sec) 
 Total Blocks : 196608 Invalid Blocks : 6296 Valid Blocks : 190312
 Total Tags : 491520 Threshold : 12288 Invalid Tags : 202904 Pr0 Tags : 98304 Pr1 Tags : 190312 num_pr0 : 12288
 SAE Count : 0
 Inter-Core Inteference in Data Store : 423543
Heartbeat CPU 3 instructions: 170000002 cycles: 90293472 heartbeat IPC: 1.88278 cumulative IPC: 1.88275 (Simulation time: 30 hr 13 min 46 sec) 
 Total Blocks : 196608 Invalid Blocks : 6296 Valid Blocks : 190312
 Total Tags : 491520 Threshold : 12288 Invalid Tags : 202904 Pr0 Tags : 98304 Pr1 Tags : 190312 num_pr0 : 12288
 SAE Count : 0
 Inter-Core Inteference in Data Store : 423543
Heartbeat CPU 4 instructions: 170000002 cycles: 90293960 heartbeat IPC: 1.88278 cumulative IPC: 1.88274 (Simulation time: 30 hr 13 min 46 sec) 
 Total Blocks : 196608 Invalid Blocks : 6296 Valid Blocks : 190312
 Total Tags : 491520 Threshold : 12288 Invalid Tags : 202904 Pr0 Tags : 98304 Pr1 Tags : 190312 num_pr0 : 12288
 SAE Count : 0
 Inter-Core Inteference in Data Store : 423546
Heartbeat CPU 5 instructions: 170000002 cycles: 90294027 heartbeat IPC: 1.88278 cumulative IPC: 1.88274 (Simulation time: 30 hr 13 min 46 sec) 
 Total Blocks : 196608 Invalid Blocks : 6296 Valid Blocks : 190312
 Total Tags : 491520 Threshold : 12288 Invalid Tags : 202904 Pr0 Tags : 98304 Pr1 Tags : 190312 num_pr0 : 12288
 SAE Count : 0
 Inter-Core Inteference in Data Store : 423546
Heartbeat CPU 6 instructions: 170000002 cycles: 90294192 heartbeat IPC: 1.88278 cumulative IPC: 1.88273 (Simulation time: 30 hr 13 min 46 sec) 
 Total Blocks : 196608 Invalid Blocks : 6296 Valid Blocks : 190312
 Total Tags : 491520 Threshold : 12288 Invalid Tags : 202904 Pr0 Tags : 98304 Pr1 Tags : 190312 num_pr0 : 12288
 SAE Count : 0
 Inter-Core Inteference in Data Store : 423546
Heartbeat CPU 7 instructions: 170000002 cycles: 90294299 heartbeat IPC: 1.88276 cumulative IPC: 1.88273 (Simulation time: 30 hr 13 min 46 sec) 
 Total Blocks : 196608 Invalid Blocks : 6296 Valid Blocks : 190312
 Total Tags : 491520 Threshold : 12288 Invalid Tags : 202904 Pr0 Tags : 98304 Pr1 Tags : 190312 num_pr0 : 12288
 SAE Count : 0
 Inter-Core Inteference in Data Store : 423546
Heartbeat CPU 1 instructions: 170000002 cycles: 90294306 heartbeat IPC: 1.88276 cumulative IPC: 1.88273 (Simulation time: 30 hr 13 min 46 sec) 
 Total Blocks : 196608 Invalid Blocks : 6296 Valid Blocks : 190312
 Total Tags : 491520 Threshold : 12288 Invalid Tags : 202904 Pr0 Tags : 98304 Pr1 Tags : 190312 num_pr0 : 12288
 SAE Count : 0
 Inter-Core Inteference in Data Store : 423546
Heartbeat CPU 0 instructions: 180000000 cycles: 95603133 heartbeat IPC: 1.883 cumulative IPC: 1.88278 (Simulation time: 40 hr 19 min 21 sec) 
 Total Blocks : 196608 Invalid Blocks : 5119 Valid Blocks : 191489
 Total Tags : 491520 Threshold : 12288 Invalid Tags : 201727 Pr0 Tags : 98304 Pr1 Tags : 191489 num_pr0 : 12288
 SAE Count : 0
 Inter-Core Inteference in Data Store : 457147
Heartbeat CPU 2 instructions: 180000000 cycles: 95604174 heartbeat IPC: 1.88298 cumulative IPC: 1.88276 (Simulation time: 40 hr 19 min 35 sec) 
 Total Blocks : 196608 Invalid Blocks : 5118 Valid Blocks : 191490
 Total Tags : 491520 Threshold : 12288 Invalid Tags : 201726 Pr0 Tags : 98304 Pr1 Tags : 191490 num_pr0 : 12288
 SAE Count : 0
 Inter-Core Inteference in Data Store : 457155
Heartbeat CPU 3 instructions: 180000000 cycles: 95604210 heartbeat IPC: 1.88298 cumulative IPC: 1.88276 (Simulation time: 40 hr 19 min 40 sec) 
 Total Blocks : 196608 Invalid Blocks : 5118 Valid Blocks : 191490
 Total Tags : 491520 Threshold : 12288 Invalid Tags : 201726 Pr0 Tags : 98304 Pr1 Tags : 191490 num_pr0 : 12288
 SAE Count : 0
 Inter-Core Inteference in Data Store : 457155
Heartbeat CPU 4 instructions: 180000000 cycles: 95604699 heartbeat IPC: 1.88298 cumulative IPC: 1.88275 (Simulation time: 40 hr 19 min 42 sec) 
 Total Blocks : 196608 Invalid Blocks : 5117 Valid Blocks : 191491
 Total Tags : 491520 Threshold : 12288 Invalid Tags : 201726 Pr0 Tags : 98303 Pr1 Tags : 191491 num_pr0 : 12288
 SAE Count : 0
 Inter-Core Inteference in Data Store : 457160
Heartbeat CPU 5 instructions: 180000000 cycles: 95604765 heartbeat IPC: 1.88298 cumulative IPC: 1.88275 (Simulation time: 40 hr 19 min 42 sec) 
 Total Blocks : 196608 Invalid Blocks : 5117 Valid Blocks : 191491
 Total Tags : 491520 Threshold : 12288 Invalid Tags : 201726 Pr0 Tags : 98303 Pr1 Tags : 191491 num_pr0 : 12288
 SAE Count : 0
 Inter-Core Inteference in Data Store : 457162
Heartbeat CPU 6 instructions: 180000000 cycles: 95604954 heartbeat IPC: 1.88297 cumulative IPC: 1.88275 (Simulation time: 40 hr 19 min 42 sec) 
 Total Blocks : 196608 Invalid Blocks : 5117 Valid Blocks : 191491
 Total Tags : 491520 Threshold : 12288 Invalid Tags : 201725 Pr0 Tags : 98304 Pr1 Tags : 191491 num_pr0 : 12288
 SAE Count : 0
 Inter-Core Inteference in Data Store : 457163
Heartbeat CPU 1 instructions: 180000000 cycles: 95605111 heartbeat IPC: 1.88295 cumulative IPC: 1.88274 (Simulation time: 40 hr 19 min 42 sec) 
 Total Blocks : 196608 Invalid Blocks : 5116 Valid Blocks : 191492
 Total Tags : 491520 Threshold : 12288 Invalid Tags : 201725 Pr0 Tags : 98303 Pr1 Tags : 191492 num_pr0 : 12288
 SAE Count : 0
 Inter-Core Inteference in Data Store : 457165
Heartbeat CPU 7 instructions: 180000000 cycles: 95605125 heartbeat IPC: 1.88295 cumulative IPC: 1.88274 (Simulation time: 40 hr 19 min 42 sec) 
 Total Blocks : 196608 Invalid Blocks : 5116 Valid Blocks : 191492
 Total Tags : 491520 Threshold : 12288 Invalid Tags : 201725 Pr0 Tags : 98303 Pr1 Tags : 191492 num_pr0 : 12288
 SAE Count : 0
 Inter-Core Inteference in Data Store : 457165
Heartbeat CPU 0 instructions: 190000003 cycles: 100914746 heartbeat IPC: 1.88267 cumulative IPC: 1.88278 (Simulation time: 63 hr 15 min 52 sec) 
 Total Blocks : 196608 Invalid Blocks : 4185 Valid Blocks : 192423
 Total Tags : 491520 Threshold : 12288 Invalid Tags : 200793 Pr0 Tags : 98304 Pr1 Tags : 192423 num_pr0 : 12288
 SAE Count : 0
 Inter-Core Inteference in Data Store : 492038
Heartbeat CPU 2 instructions: 190000003 cycles: 100915842 heartbeat IPC: 1.88265 cumulative IPC: 1.88276 (Simulation time: 63 hr 16 min 5 sec) 
 Total Blocks : 196608 Invalid Blocks : 4185 Valid Blocks : 192423
 Total Tags : 491520 Threshold : 12288 Invalid Tags : 200793 Pr0 Tags : 98304 Pr1 Tags : 192423 num_pr0 : 12288
 SAE Count : 0
 Inter-Core Inteference in Data Store : 492040
Heartbeat CPU 3 instructions: 190000003 cycles: 100915884 heartbeat IPC: 1.88265 cumulative IPC: 1.88276 (Simulation time: 63 hr 16 min 12 sec) 
 Total Blocks : 196608 Invalid Blocks : 4184 Valid Blocks : 192424
 Total Tags : 491520 Threshold : 12288 Invalid Tags : 200793 Pr0 Tags : 98303 Pr1 Tags : 192424 num_pr0 : 12288
 SAE Count : 0
 Inter-Core Inteference in Data Store : 492040
Heartbeat CPU 4 instructions: 190000003 cycles: 100916361 heartbeat IPC: 1.88265 cumulative IPC: 1.88275 (Simulation time: 63 hr 16 min 18 sec) 
 Total Blocks : 196608 Invalid Blocks : 4184 Valid Blocks : 192424
 Total Tags : 491520 Threshold : 12288 Invalid Tags : 200792 Pr0 Tags : 98304 Pr1 Tags : 192424 num_pr0 : 12288
 SAE Count : 0
 Inter-Core Inteference in Data Store : 492041
Heartbeat CPU 5 instructions: 190000003 cycles: 100916436 heartbeat IPC: 1.88265 cumulative IPC: 1.88275 (Simulation time: 63 hr 16 min 24 sec) 
 Total Blocks : 196608 Invalid Blocks : 4184 Valid Blocks : 192424
 Total Tags : 491520 Threshold : 12288 Invalid Tags : 200792 Pr0 Tags : 98304 Pr1 Tags : 192424 num_pr0 : 12288
 SAE Count : 0
 Inter-Core Inteference in Data Store : 492041
Heartbeat CPU 6 instructions: 190000003 cycles: 100916639 heartbeat IPC: 1.88264 cumulative IPC: 1.88274 (Simulation time: 63 hr 16 min 28 sec) 
 Total Blocks : 196608 Invalid Blocks : 4184 Valid Blocks : 192424
 Total Tags : 491520 Threshold : 12288 Invalid Tags : 200792 Pr0 Tags : 98304 Pr1 Tags : 192424 num_pr0 : 12288
 SAE Count : 0
 Inter-Core Inteference in Data Store : 492041
Heartbeat CPU 7 instructions: 190000003 cycles: 100916829 heartbeat IPC: 1.88264 cumulative IPC: 1.88274 (Simulation time: 63 hr 16 min 36 sec) 
 Total Blocks : 196608 Invalid Blocks : 4184 Valid Blocks : 192424
 Total Tags : 491520 Threshold : 12288 Invalid Tags : 200792 Pr0 Tags : 98304 Pr1 Tags : 192424 num_pr0 : 12288
 SAE Count : 0
 Inter-Core Inteference in Data Store : 492042
Heartbeat CPU 1 instructions: 190000003 cycles: 100916837 heartbeat IPC: 1.88263 cumulative IPC: 1.88274 (Simulation time: 63 hr 16 min 38 sec) 
 Total Blocks : 196608 Invalid Blocks : 4184 Valid Blocks : 192424
 Total Tags : 491520 Threshold : 12288 Invalid Tags : 200792 Pr0 Tags : 98304 Pr1 Tags : 192424 num_pr0 : 12288
 SAE Count : 0
 Inter-Core Inteference in Data Store : 492042
Heartbeat CPU 0 instructions: 200000003 cycles: 106226543 heartbeat IPC: 1.8826 cumulative IPC: 1.88277 (Simulation time: 72 hr 33 min 59 sec) 
 Total Blocks : 196608 Invalid Blocks : 3456 Valid Blocks : 193152
 Total Tags : 491520 Threshold : 12288 Invalid Tags : 200064 Pr0 Tags : 98304 Pr1 Tags : 193152 num_pr0 : 12288
 SAE Count : 0
 Inter-Core Inteference in Data Store : 525644
Heartbeat CPU 2 instructions: 200000003 cycles: 106227713 heartbeat IPC: 1.88258 cumulative IPC: 1.88275 (Simulation time: 72 hr 34 min 1 sec) 
 Total Blocks : 196608 Invalid Blocks : 3456 Valid Blocks : 193152
 Total Tags : 491520 Threshold : 12288 Invalid Tags : 200067 Pr0 Tags : 98301 Pr1 Tags : 193152 num_pr0 : 12287
 SAE Count : 0
 Inter-Core Inteference in Data Store : 525655
Heartbeat CPU 3 instructions: 200000003 cycles: 106227753 heartbeat IPC: 1.88258 cumulative IPC: 1.88275 (Simulation time: 72 hr 34 min 1 sec) 
 Total Blocks : 196608 Invalid Blocks : 3455 Valid Blocks : 193153
 Total Tags : 491520 Threshold : 12288 Invalid Tags : 200066 Pr0 Tags : 98301 Pr1 Tags : 193153 num_pr0 : 12287
 SAE Count : 0
 Inter-Core Inteference in Data Store : 525655
Heartbeat CPU 4 instructions: 200000003 cycles: 106228232 heartbeat IPC: 1.88258 cumulative IPC: 1.88274 (Simulation time: 72 hr 34 min 1 sec) 
 Total Blocks : 196608 Invalid Blocks : 3455 Valid Blocks : 193153
 Total Tags : 491520 Threshold : 12288 Invalid Tags : 200065 Pr0 Tags : 98302 Pr1 Tags : 193153 num_pr0 : 12288
 SAE Count : 0
 Inter-Core Inteference in Data Store : 525661
Heartbeat CPU 5 instructions: 200000003 cycles: 106228307 heartbeat IPC: 1.88258 cumulative IPC: 1.88274 (Simulation time: 72 hr 34 min 1 sec) 
 Total Blocks : 196608 Invalid Blocks : 3455 Valid Blocks : 193153
 Total Tags : 491520 Threshold : 12288 Invalid Tags : 200064 Pr0 Tags : 98303 Pr1 Tags : 193153 num_pr0 : 12288
 SAE Count : 0
 Inter-Core Inteference in Data Store : 525663
Heartbeat CPU 6 instructions: 200000003 cycles: 106228518 heartbeat IPC: 1.88257 cumulative IPC: 1.88273 (Simulation time: 72 hr 34 min 1 sec) 
 Total Blocks : 196608 Invalid Blocks : 3455 Valid Blocks : 193153
 Total Tags : 491520 Threshold : 12288 Invalid Tags : 200064 Pr0 Tags : 98303 Pr1 Tags : 193153 num_pr0 : 12288
 SAE Count : 0
 Inter-Core Inteference in Data Store : 525667
Heartbeat CPU 7 instructions: 200000003 cycles: 106228699 heartbeat IPC: 1.88258 cumulative IPC: 1.88273 (Simulation time: 72 hr 34 min 1 sec) 
 Total Blocks : 196608 Invalid Blocks : 3455 Valid Blocks : 193153
 Total Tags : 491520 Threshold : 12288 Invalid Tags : 200065 Pr0 Tags : 98302 Pr1 Tags : 193153 num_pr0 : 12288
 SAE Count : 0
 Inter-Core Inteference in Data Store : 525669
Heartbeat CPU 1 instructions: 200000003 cycles: 106228710 heartbeat IPC: 1.88258 cumulative IPC: 1.88273 (Simulation time: 72 hr 34 min 2 sec) 
 Total Blocks : 196608 Invalid Blocks : 3455 Valid Blocks : 193153
 Total Tags : 491520 Threshold : 12288 Invalid Tags : 200065 Pr0 Tags : 98302 Pr1 Tags : 193153 num_pr0 : 12288
 SAE Count : 0
 Inter-Core Inteference in Data Store : 525669

Warmup complete CPU 0 instructions: 200004034 cycles: 106228710 (Simulation time: 72 hr 34 min 2 sec) 
Warmup complete CPU 1 instructions: 200000003 cycles: 106228710 (Simulation time: 72 hr 34 min 2 sec) 
Warmup complete CPU 2 instructions: 200001914 cycles: 106228709 (Simulation time: 72 hr 34 min 2 sec) 
Warmup complete CPU 3 instructions: 200001842 cycles: 106228709 (Simulation time: 72 hr 34 min 2 sec) 
Warmup complete CPU 4 instructions: 200000894 cycles: 106228709 (Simulation time: 72 hr 34 min 2 sec) 
Warmup complete CPU 5 instructions: 200000770 cycles: 106228709 (Simulation time: 72 hr 34 min 2 sec) 
Warmup complete CPU 6 instructions: 200000416 cycles: 106228709 (Simulation time: 72 hr 34 min 2 sec) 
Warmup complete CPU 7 instructions: 200000043 cycles: 106228709 (Simulation time: 72 hr 34 min 2 sec) 

Heartbeat CPU 0 instructions: 210000002 cycles: 116814958 heartbeat IPC: 0.944428 cumulative IPC: 0.944241 (Simulation time: 81 hr 32 min 36 sec) 
 Total Blocks : 196608 Invalid Blocks : 2827 Valid Blocks : 193781
 Total Tags : 491520 Threshold : 12288 Invalid Tags : 199435 Pr0 Tags : 98304 Pr1 Tags : 193781 num_pr0 : 12288
 SAE Count : 0
 Inter-Core Inteference in Data Store : 32715
Heartbeat CPU 5 instructions: 210000002 cycles: 116864774 heartbeat IPC: 0.940162 cumulative IPC: 0.940125 (Simulation time: 81 hr 34 min 45 sec) 
 Total Blocks : 196608 Invalid Blocks : 2824 Valid Blocks : 193784
 Total Tags : 491520 Threshold : 12288 Invalid Tags : 199432 Pr0 Tags : 98304 Pr1 Tags : 193784 num_pr0 : 12288
 SAE Count : 0
 Inter-Core Inteference in Data Store : 32834
Heartbeat CPU 2 instructions: 210000002 cycles: 116920592 heartbeat IPC: 0.935202 cumulative IPC: 0.93511 (Simulation time: 81 hr 37 min 0 sec) 
 Total Blocks : 196608 Invalid Blocks : 2819 Valid Blocks : 193789
 Total Tags : 491520 Threshold : 12288 Invalid Tags : 199427 Pr0 Tags : 98304 Pr1 Tags : 193789 num_pr0 : 12288
 SAE Count : 0
 Inter-Core Inteference in Data Store : 33103
Heartbeat CPU 6 instructions: 210000002 cycles: 116932734 heartbeat IPC: 0.934211 cumulative IPC: 0.934189 (Simulation time: 81 hr 37 min 33 sec) 
 Total Blocks : 196608 Invalid Blocks : 2819 Valid Blocks : 193789
 Total Tags : 491520 Threshold : 12288 Invalid Tags : 199427 Pr0 Tags : 98304 Pr1 Tags : 193789 num_pr0 : 12288
 SAE Count : 0
 Inter-Core Inteference in Data Store : 33108
Heartbeat CPU 3 instructions: 210000002 cycles: 116934763 heartbeat IPC: 0.933967 cumulative IPC: 0.933879 (Simulation time: 81 hr 37 min 45 sec) 
 Total Blocks : 196608 Invalid Blocks : 2819 Valid Blocks : 193789
 Total Tags : 491520 Threshold : 12288 Invalid Tags : 199427 Pr0 Tags : 98304 Pr1 Tags : 193789 num_pr0 : 12288
 SAE Count : 0
 Inter-Core Inteference in Data Store : 33108
Heartbeat CPU 7 instructions: 210000002 cycles: 116967478 heartbeat IPC: 0.931204 cumulative IPC: 0.931202 (Simulation time: 81 hr 38 min 44 sec) 
 Total Blocks : 196608 Invalid Blocks : 2818 Valid Blocks : 193790
 Total Tags : 491520 Threshold : 12288 Invalid Tags : 199427 Pr0 Tags : 98303 Pr1 Tags : 193790 num_pr0 : 12288
 SAE Count : 0
 Inter-Core Inteference in Data Store : 33194
Heartbeat CPU 1 instructions: 210000002 cycles: 116970956 heartbeat IPC: 0.930904 cumulative IPC: 0.930904 (Simulation time: 81 hr 39 min 16 sec) 
 Total Blocks : 196608 Invalid Blocks : 2818 Valid Blocks : 193790
 Total Tags : 491520 Threshold : 12288 Invalid Tags : 199426 Pr0 Tags : 98304 Pr1 Tags : 193790 num_pr0 : 12288
 SAE Count : 0
 Inter-Core Inteference in Data Store : 33206
Heartbeat CPU 4 instructions: 210000002 cycles: 117007010 heartbeat IPC: 0.927749 cumulative IPC: 0.927707 (Simulation time: 81 hr 40 min 23 sec) 
 Total Blocks : 196608 Invalid Blocks : 2818 Valid Blocks : 193790
 Total Tags : 491520 Threshold : 12288 Invalid Tags : 199426 Pr0 Tags : 98304 Pr1 Tags : 193790 num_pr0 : 12288
 SAE Count : 0
 Inter-Core Inteference in Data Store : 33302
Heartbeat CPU 0 instructions: 220000000 cycles: 127362439 heartbeat IPC: 0.948093 cumulative IPC: 0.946164 (Simulation time: 87 hr 47 min 51 sec) 
 Total Blocks : 196608 Invalid Blocks : 2309 Valid Blocks : 194299
 Total Tags : 491520 Threshold : 12288 Invalid Tags : 198918 Pr0 Tags : 98303 Pr1 Tags : 194299 num_pr0 : 12288
 SAE Count : 0
 Inter-Core Inteference in Data Store : 66102
Heartbeat CPU 2 instructions: 220000000 cycles: 127466603 heartbeat IPC: 0.948226 cumulative IPC: 0.941623 (Simulation time: 87 hr 51 min 34 sec) 
 Total Blocks : 196608 Invalid Blocks : 2304 Valid Blocks : 194304
 Total Tags : 491520 Threshold : 12288 Invalid Tags : 198912 Pr0 Tags : 98304 Pr1 Tags : 194304 num_pr0 : 12288
 SAE Count : 0
 Inter-Core Inteference in Data Store : 66500
Heartbeat CPU 4 instructions: 220000000 cycles: 127524027 heartbeat IPC: 0.95084 cumulative IPC: 0.939132 (Simulation time: 87 hr 53 min 29 sec) 
 Total Blocks : 196608 Invalid Blocks : 2301 Valid Blocks : 194307
 Total Tags : 491520 Threshold : 12288 Invalid Tags : 198909 Pr0 Tags : 98304 Pr1 Tags : 194307 num_pr0 : 12288
 SAE Count : 0
 Inter-Core Inteference in Data Store : 66715
Heartbeat CPU 1 instructions: 220000000 cycles: 127525271 heartbeat IPC: 0.94748 cumulative IPC: 0.939119 (Simulation time: 87 hr 53 min 33 sec) 
 Total Blocks : 196608 Invalid Blocks : 2300 Valid Blocks : 194308
 Total Tags : 491520 Threshold : 12288 Invalid Tags : 198908 Pr0 Tags : 98304 Pr1 Tags : 194308 num_pr0 : 12288
 SAE Count : 0
 Inter-Core Inteference in Data Store : 66718
Heartbeat CPU 3 instructions: 220000000 cycles: 127536858 heartbeat IPC: 0.94321 cumulative IPC: 0.938522 (Simulation time: 87 hr 54 min 10 sec) 
 Total Blocks : 196608 Invalid Blocks : 2300 Valid Blocks : 194308
 Total Tags : 491520 Threshold : 12288 Invalid Tags : 198908 Pr0 Tags : 98304 Pr1 Tags : 194308 num_pr0 : 12288
 SAE Count : 0
 Inter-Core Inteference in Data Store : 66749
Heartbeat CPU 5 instructions: 220000000 cycles: 127546082 heartbeat IPC: 0.936215 cumulative IPC: 0.938166 (Simulation time: 87 hr 54 min 26 sec) 
 Total Blocks : 196608 Invalid Blocks : 2300 Valid Blocks : 194308
 Total Tags : 491520 Threshold : 12288 Invalid Tags : 198908 Pr0 Tags : 98304 Pr1 Tags : 194308 num_pr0 : 12288
 SAE Count : 0
 Inter-Core Inteference in Data Store : 66763
Heartbeat CPU 6 instructions: 220000000 cycles: 127581291 heartbeat IPC: 0.939094 cumulative IPC: 0.936635 (Simulation time: 87 hr 55 min 48 sec) 
 Total Blocks : 196608 Invalid Blocks : 2297 Valid Blocks : 194311
 Total Tags : 491520 Threshold : 12288 Invalid Tags : 198905 Pr0 Tags : 98304 Pr1 Tags : 194311 num_pr0 : 12288
 SAE Count : 0
 Inter-Core Inteference in Data Store : 66842
Heartbeat CPU 7 instructions: 220000000 cycles: 127607811 heartbeat IPC: 0.93982 cumulative IPC: 0.935491 (Simulation time: 87 hr 56 min 38 sec) 
 Total Blocks : 196608 Invalid Blocks : 2296 Valid Blocks : 194312
 Total Tags : 491520 Threshold : 12288 Invalid Tags : 198904 Pr0 Tags : 98304 Pr1 Tags : 194312 num_pr0 : 12288
 SAE Count : 0
 Inter-Core Inteference in Data Store : 66873
Heartbeat CPU 2 instructions: 230000001 cycles: 137967116 heartbeat IPC: 0.952335 cumulative IPC: 0.945167 (Simulation time: 93 hr 14 min 39 sec) 
 Total Blocks : 196608 Invalid Blocks : 1884 Valid Blocks : 194724
 Total Tags : 491520 Threshold : 12288 Invalid Tags : 198492 Pr0 Tags : 98304 Pr1 Tags : 194724 num_pr0 : 12288
 SAE Count : 0
 Inter-Core Inteference in Data Store : 99615
Heartbeat CPU 0 instructions: 230000001 cycles: 138001617 heartbeat IPC: 0.939922 cumulative IPC: 0.944074 (Simulation time: 93 hr 15 min 47 sec) 
 Total Blocks : 196608 Invalid Blocks : 1883 Valid Blocks : 194725
 Total Tags : 491520 Threshold : 12288 Invalid Tags : 198491 Pr0 Tags : 98304 Pr1 Tags : 194725 num_pr0 : 12288
 SAE Count : 0
 Inter-Core Inteference in Data Store : 99695
Heartbeat CPU 3 instructions: 230000001 cycles: 138129568 heartbeat IPC: 0.944046 cumulative IPC: 0.940356 (Simulation time: 93 hr 19 min 47 sec) 
 Total Blocks : 196608 Invalid Blocks : 1880 Valid Blocks : 194728
 Total Tags : 491520 Threshold : 12288 Invalid Tags : 198488 Pr0 Tags : 98304 Pr1 Tags : 194728 num_pr0 : 12288
 SAE Count : 0
 Inter-Core Inteference in Data Store : 100172
Heartbeat CPU 7 instructions: 230000001 cycles: 138149437 heartbeat IPC: 0.94862 cumulative IPC: 0.939827 (Simulation time: 93 hr 20 min 18 sec) 
 Total Blocks : 196608 Invalid Blocks : 1879 Valid Blocks : 194729
 Total Tags : 491520 Threshold : 12288 Invalid Tags : 198487 Pr0 Tags : 98304 Pr1 Tags : 194729 num_pr0 : 12288
 SAE Count : 0
 Inter-Core Inteference in Data Store : 100231
Heartbeat CPU 5 instructions: 230000001 cycles: 138170862 heartbeat IPC: 0.941196 cumulative IPC: 0.939174 (Simulation time: 93 hr 20 min 53 sec) 
 Total Blocks : 196608 Invalid Blocks : 1877 Valid Blocks : 194731
 Total Tags : 491520 Threshold : 12288 Invalid Tags : 198485 Pr0 Tags : 98304 Pr1 Tags : 194731 num_pr0 : 12288
 SAE Count : 0
 Inter-Core Inteference in Data Store : 100324
Heartbeat CPU 6 instructions: 230000001 cycles: 138187802 heartbeat IPC: 0.942817 cumulative IPC: 0.938687 (Simulation time: 93 hr 21 min 38 sec) 
 Total Blocks : 196608 Invalid Blocks : 1877 Valid Blocks : 194731
 Total Tags : 491520 Threshold : 12288 Invalid Tags : 198485 Pr0 Tags : 98304 Pr1 Tags : 194731 num_pr0 : 12288
 SAE Count : 0
 Inter-Core Inteference in Data Store : 100389
Heartbeat CPU 4 instructions: 230000001 cycles: 138207186 heartbeat IPC: 0.936053 cumulative IPC: 0.938103 (Simulation time: 93 hr 22 min 6 sec) 
 Total Blocks : 196608 Invalid Blocks : 1877 Valid Blocks : 194731
 Total Tags : 491520 Threshold : 12288 Invalid Tags : 198486 Pr0 Tags : 98303 Pr1 Tags : 194731 num_pr0 : 12288
 SAE Count : 0
 Inter-Core Inteference in Data Store : 100491
Heartbeat CPU 1 instructions: 230000001 cycles: 138274484 heartbeat IPC: 0.930301 cumulative IPC: 0.936161 (Simulation time: 93 hr 24 min 0 sec) 
 Total Blocks : 196608 Invalid Blocks : 1875 Valid Blocks : 194733
 Total Tags : 491520 Threshold : 12288 Invalid Tags : 198483 Pr0 Tags : 98304 Pr1 Tags : 194733 num_pr0 : 12288
 SAE Count : 0
 Inter-Core Inteference in Data Store : 100665
Heartbeat CPU 0 instructions: 240000003 cycles: 148674678 heartbeat IPC: 0.936939 cumulative IPC: 0.94228 (Simulation time: 98 hr 8 min 44 sec) 
 Total Blocks : 196608 Invalid Blocks : 1537 Valid Blocks : 195071
 Total Tags : 491520 Threshold : 12288 Invalid Tags : 198145 Pr0 Tags : 98304 Pr1 Tags : 195071 num_pr0 : 12288
 SAE Count : 0
 Inter-Core Inteference in Data Store : 133341
Heartbeat CPU 2 instructions: 240000003 cycles: 148679478 heartbeat IPC: 0.933501 cumulative IPC: 0.942223 (Simulation time: 98 hr 8 min 54 sec) 
 Total Blocks : 196608 Invalid Blocks : 1537 Valid Blocks : 195071
 Total Tags : 491520 Threshold : 12288 Invalid Tags : 198145 Pr0 Tags : 98304 Pr1 Tags : 195071 num_pr0 : 12288
 SAE Count : 0
 Inter-Core Inteference in Data Store : 133341
Heartbeat CPU 3 instructions: 240000003 cycles: 148752681 heartbeat IPC: 0.941344 cumulative IPC: 0.940603 (Simulation time: 98 hr 10 min 51 sec) 
 Total Blocks : 196608 Invalid Blocks : 1536 Valid Blocks : 195072
 Total Tags : 491520 Threshold : 12288 Invalid Tags : 198144 Pr0 Tags : 98304 Pr1 Tags : 195072 num_pr0 : 12288
 SAE Count : 0
 Inter-Core Inteference in Data Store : 133693
Heartbeat CPU 5 instructions: 240000003 cycles: 148822288 heartbeat IPC: 0.938842 cumulative IPC: 0.939091 (Simulation time: 98 hr 12 min 46 sec) 
 Total Blocks : 196608 Invalid Blocks : 1534 Valid Blocks : 195074
 Total Tags : 491520 Threshold : 12288 Invalid Tags : 198142 Pr0 Tags : 98304 Pr1 Tags : 195074 num_pr0 : 12288
 SAE Count : 0
 Inter-Core Inteference in Data Store : 133985
Heartbeat CPU 7 instructions: 240000003 cycles: 148889196 heartbeat IPC: 0.93112 cumulative IPC: 0.937635 (Simulation time: 98 hr 14 min 34 sec) 
 Total Blocks : 196608 Invalid Blocks : 1531 Valid Blocks : 195077
 Total Tags : 491520 Threshold : 12288 Invalid Tags : 198139 Pr0 Tags : 98304 Pr1 Tags : 195077 num_pr0 : 12288
 SAE Count : 0
 Inter-Core Inteference in Data Store : 134192
Heartbeat CPU 1 instructions: 240000003 cycles: 148925246 heartbeat IPC: 0.9389 cumulative IPC: 0.936844 (Simulation time: 98 hr 15 min 26 sec) 
 Total Blocks : 196608 Invalid Blocks : 1527 Valid Blocks : 195081
 Total Tags : 491520 Threshold : 12288 Invalid Tags : 198135 Pr0 Tags : 98304 Pr1 Tags : 195081 num_pr0 : 12288
 SAE Count : 0
 Inter-Core Inteference in Data Store : 134316
Heartbeat CPU 6 instructions: 240000003 cycles: 149002762 heartbeat IPC: 0.924645 cumulative IPC: 0.935137 (Simulation time: 98 hr 17 min 36 sec) 
 Total Blocks : 196608 Invalid Blocks : 1525 Valid Blocks : 195083
 Total Tags : 491520 Threshold : 12288 Invalid Tags : 198133 Pr0 Tags : 98304 Pr1 Tags : 195083 num_pr0 : 12288
 SAE Count : 0
 Inter-Core Inteference in Data Store : 134545
Heartbeat CPU 4 instructions: 240000003 cycles: 149095569 heartbeat IPC: 0.91841 cumulative IPC: 0.933101 (Simulation time: 98 hr 20 min 0 sec) 
 Total Blocks : 196608 Invalid Blocks : 1522 Valid Blocks : 195086
 Total Tags : 491520 Threshold : 12288 Invalid Tags : 198130 Pr0 Tags : 98304 Pr1 Tags : 195086 num_pr0 : 12288
 SAE Count : 0
 Inter-Core Inteference in Data Store : 134803
Heartbeat CPU 0 instructions: 250000001 cycles: 159277142 heartbeat IPC: 0.943177 cumulative IPC: 0.942459 (Simulation time: 102 hr 57 min 28 sec) 
 Total Blocks : 196608 Invalid Blocks : 1258 Valid Blocks : 195350
 Total Tags : 491520 Threshold : 12288 Invalid Tags : 197866 Pr0 Tags : 98304 Pr1 Tags : 195350 num_pr0 : 12288
 SAE Count : 0
 Inter-Core Inteference in Data Store : 167157
Heartbeat CPU 2 instructions: 250000001 cycles: 159293857 heartbeat IPC: 0.942118 cumulative IPC: 0.942202 (Simulation time: 102 hr 57 min 46 sec) 
 Total Blocks : 196608 Invalid Blocks : 1258 Valid Blocks : 195350
 Total Tags : 491520 Threshold : 12288 Invalid Tags : 197866 Pr0 Tags : 98304 Pr1 Tags : 195350 num_pr0 : 12288
 SAE Count : 0
 Inter-Core Inteference in Data Store : 167246
Heartbeat CPU 3 instructions: 250000001 cycles: 159393466 heartbeat IPC: 0.93978 cumulative IPC: 0.940438 (Simulation time: 103 hr 0 min 21 sec) 
 Total Blocks : 196608 Invalid Blocks : 1254 Valid Blocks : 195354
 Total Tags : 491520 Threshold : 12288 Invalid Tags : 197862 Pr0 Tags : 98304 Pr1 Tags : 195354 num_pr0 : 12288
 SAE Count : 0
 Inter-Core Inteference in Data Store : 167601
Heartbeat CPU 5 instructions: 250000001 cycles: 159430784 heartbeat IPC: 0.94264 cumulative IPC: 0.939799 (Simulation time: 103 hr 1 min 13 sec) 
 Total Blocks : 196608 Invalid Blocks : 1254 Valid Blocks : 195354
 Total Tags : 491520 Threshold : 12288 Invalid Tags : 197862 Pr0 Tags : 98304 Pr1 Tags : 195354 num_pr0 : 12288
 SAE Count : 0
 Inter-Core Inteference in Data Store : 167735
Heartbeat CPU 1 instructions: 250000001 cycles: 159549925 heartbeat IPC: 0.941205 cumulative IPC: 0.937713 (Simulation time: 103 hr 4 min 18 sec) 
 Total Blocks : 196608 Invalid Blocks : 1251 Valid Blocks : 195357
 Total Tags : 491520 Threshold : 12288 Invalid Tags : 197859 Pr0 Tags : 98304 Pr1 Tags : 195357 num_pr0 : 12288
 SAE Count : 0
 Inter-Core Inteference in Data Store : 168086
[...]
LLC3 AVERAGE MISS LATENCY: 516.361 cycles

LLC3 Set Associative Eviction Count : 0
LLC3 Priority 0 entries : 12288
LLC3 Inter-Core Interference : 84976
LLC4 TOTAL     ACCESS: 487253  HIT:    17  MISS: 487236  HIT %: 0.00348895  MISS %: 99.9965  AVERAGE MISS PENALTY: 445.045
LLC4 LOAD      ACCESS:  6635  HIT:     8  MISS:  6627  HIT %: 0.120573  MISS %: 99.8794  AVERAGE MISS PENALTY: 576.238
LLC4 RFO       ACCESS: 12181  HIT:     0  MISS: 12181  HIT %:     0  MISS %:   100  AVERAGE MISS PENALTY: 518.167
LLC4 PREFETCH  ACCESS: 456256  HIT:     1  MISS: 456255  HIT %: 0.000219175  MISS %: 99.9998  AVERAGE MISS PENALTY: 453.061
LLC4 WRITEBACK ACCESS: 12181  HIT:     8  MISS: 12173  HIT %: 0.0656761  MISS %: 99.9343  AVERAGE MISS PENALTY: 0
LLC4 PREFETCH  REQUESTED:     0  ISSUED:     0  USEFUL:     0  USELESS:   284
 USEFUL LOAD PREFETCHES:          0 PREFETCH ISSUED TO LOWER LEVEL:   19128107  ACCURACY: 0
 TIMELY PREFETCHES:          0 LATE PREFETCHES: 0 DROPPED PREFETCHES: 0
LLC4 AVERAGE MISS LATENCY: 445.045 cycles

LLC4 Set Associative Eviction Count : 0
LLC4 Priority 0 entries : 12288
LLC4 Inter-Core Interference : 85007
LLC5 TOTAL     ACCESS: 487252  HIT:    18  MISS: 487234  HIT %: 0.00369419  MISS %: 99.9963  AVERAGE MISS PENALTY: 444.938
LLC5 LOAD      ACCESS:  6130  HIT:     8  MISS:  6122  HIT %: 0.130506  MISS %: 99.8695  AVERAGE MISS PENALTY: 585.723
LLC5 RFO       ACCESS: 12181  HIT:     0  MISS: 12181  HIT %:     0  MISS %:   100  AVERAGE MISS PENALTY: 757.363
LLC5 PREFETCH  ACCESS: 456761  HIT:     2  MISS: 456759  HIT %: 0.000437866  MISS %: 99.9996  AVERAGE MISS PENALTY: 446.577
LLC5 WRITEBACK ACCESS: 12180  HIT:     8  MISS: 12172  HIT %: 0.0656814  MISS %: 99.9343  AVERAGE MISS PENALTY: 0
LLC5 PREFETCH  REQUESTED:     0  ISSUED:     0  USEFUL:     0  USELESS:   347
 USEFUL LOAD PREFETCHES:          0 PREFETCH ISSUED TO LOWER LEVEL:   14492273  ACCURACY: 0
 TIMELY PREFETCHES:          0 LATE PREFETCHES: 0 DROPPED PREFETCHES: 0
LLC5 AVERAGE MISS LATENCY: 444.938 cycles

LLC5 Set Associative Eviction Count : 0
LLC5 Priority 0 entries : 12288
LLC5 Inter-Core Interference : 84938
LLC6 TOTAL     ACCESS: 487237  HIT:     5  MISS: 487232  HIT %: 0.00102619  MISS %: 99.999  AVERAGE MISS PENALTY: 536.848
LLC6 LOAD      ACCESS:  6115  HIT:     0  MISS:  6115  HIT %:     0  MISS %:   100  AVERAGE MISS PENALTY: 456.077
LLC6 RFO       ACCESS: 12181  HIT:     0  MISS: 12181  HIT %:     0  MISS %:   100  AVERAGE MISS PENALTY: 505.771
LLC6 PREFETCH  ACCESS: 456772  HIT:     5  MISS: 456767  HIT %: 0.00109464  MISS %: 99.9989  AVERAGE MISS PENALTY: 553.061
LLC6 WRITEBACK ACCESS: 12169  HIT:     0  MISS: 12169  HIT %:     0  MISS %:   100  AVERAGE MISS PENALTY: 0
LLC6 PREFETCH  REQUESTED:     0  ISSUED:     0  USEFUL:     0  USELESS:   560
 USEFUL LOAD PREFETCHES:          0 PREFETCH ISSUED TO LOWER LEVEL:   21847921  ACCURACY: 0
 TIMELY PREFETCHES:          0 LATE PREFETCHES: 0 DROPPED PREFETCHES: 0
LLC6 AVERAGE MISS LATENCY: 536.848 cycles

LLC6 Set Associative Eviction Count : 0
LLC6 Priority 0 entries : 12288
LLC6 Inter-Core Interference : 85039
LLC7 TOTAL     ACCESS: 487243  HIT:     5  MISS: 487238  HIT %: 0.00102618  MISS %: 99.999  AVERAGE MISS PENALTY: 513.147
LLC7 LOAD      ACCESS:  5986  HIT:     0  MISS:  5986  HIT %:     0  MISS %:   100  AVERAGE MISS PENALTY: 458.388
LLC7 RFO       ACCESS: 12181  HIT:     0  MISS: 12181  HIT %:     0  MISS %:   100  AVERAGE MISS PENALTY: 495.321
LLC7 PREFETCH  ACCESS: 456906  HIT:     5  MISS: 456901  HIT %: 0.00109432  MISS %: 99.9989  AVERAGE MISS PENALTY: 528.007
LLC7 WRITEBACK ACCESS: 12170  HIT:     0  MISS: 12170  HIT %:     0  MISS %:   100  AVERAGE MISS PENALTY: 0
LLC7 PREFETCH  REQUESTED:     0  ISSUED:     0  USEFUL:     0  USELESS:   610
 USEFUL LOAD PREFETCHES:          0 PREFETCH ISSUED TO LOWER LEVEL:   17250534  ACCURACY: 0
 TIMELY PREFETCHES:          0 LATE PREFETCHES: 0 DROPPED PREFETCHES: 0
LLC7 AVERAGE MISS LATENCY: 513.147 cycles

LLC7 Set Associative Eviction Count : 0
LLC7 Priority 0 entries : 12288
LLC7 Inter-Core Interference : 84915
ROI Average ROB Stall Cycles:	6.01701
ROI Total ROB Stalls Cycles:	170532777
ROI TOTAL ROB counter      :	28341798
ROI Average Load ROB Stall Cycles:	21.5928
ROI Total Load ROB Stalls Cycle  :	89632481
ROI Total Load ROB stalls Counter:	4151038
Major fault: 0 Minor fault: 113005

CPU 7 cumulative IPC: 0.936638 instructions: 200000002 cycles: 213529593
ITLB TOTAL     ACCESS: 17959003  HIT: 17959003  MISS:     0  HIT %:   100  MISS %:     0  AVERAGE MISS PENALTY: 0
ITLB LOAD      ACCESS: 17959003  HIT: 17959003  MISS:     0  HIT %:   100  MISS %:     0  AVERAGE MISS PENALTY: 0
ITLB RFO       ACCESS:     0  HIT:     0  MISS:     0  HIT %:     0  MISS %:     0  AVERAGE MISS PENALTY: 0
ITLB PREFETCH  ACCESS:     0  HIT:     0  MISS:     0  HIT %:     0  MISS %:     0  AVERAGE MISS PENALTY: 0
ITLB WRITEBACK ACCESS:     0  HIT:     0  MISS:     0  HIT %:     0  MISS %:     0  AVERAGE MISS PENALTY: 0
ITLB PREFETCH  REQUESTED:     0  ISSUED:     0  USEFUL:     0  USELESS:     0
 USEFUL LOAD PREFETCHES:          0 PREFETCH ISSUED TO LOWER LEVEL:          0  ACCURACY: -nan
 TIMELY PREFETCHES:          0 LATE PREFETCHES: 0 DROPPED PREFETCHES: 0
ITLB AVERAGE MISS LATENCY: -nan cycles

ITLB Set Associative Eviction Count : 0
ITLB Priority 0 entries : 0
ITLB Inter-Core Interference : 0
DTLB TOTAL     ACCESS: 64649145  HIT: 64530663  MISS: 118482  HIT %: 99.8167  MISS %: 0.183269  AVERAGE MISS PENALTY: 215.041
DTLB LOAD      ACCESS: 59666385  HIT: 59561571  MISS: 104814  HIT %: 99.8243  MISS %: 0.175667  AVERAGE MISS PENALTY: 240.456
DTLB RFO       ACCESS: 4982760  HIT: 4969092  MISS: 13668  HIT %: 99.7257  MISS %: 0.274306  AVERAGE MISS PENALTY: 20.1432
DTLB PREFETCH  ACCESS:     0  HIT:     0  MISS:     0  HIT %:     0  MISS %:     0  AVERAGE MISS PENALTY: 0
DTLB WRITEBACK ACCESS:     0  HIT:     0  MISS:     0  HIT %:     0  MISS %:     0  AVERAGE MISS PENALTY: 0
DTLB PREFETCH  REQUESTED:     0  ISSUED:     0  USEFUL:     0  USELESS:     0
 USEFUL LOAD PREFETCHES:          0 PREFETCH ISSUED TO LOWER LEVEL:          0  ACCURACY: -nan
 TIMELY PREFETCHES:          0 LATE PREFETCHES: 0 DROPPED PREFETCHES: 0
DTLB AVERAGE MISS LATENCY: 215.041 cycles

DTLB Set Associative Eviction Count : 0
DTLB Priority 0 entries : 0
DTLB Inter-Core Interference : 0
STLB TOTAL     ACCESS: 118482  HIT: 59100  MISS: 59382  HIT %: 49.881  MISS %: 50.119  AVERAGE MISS PENALTY: 100
STLB LOAD      ACCESS: 104814  HIT: 46955  MISS: 57859  HIT %: 44.7984  MISS %: 55.2016  AVERAGE MISS PENALTY: 100
STLB RFO       ACCESS: 13668  HIT: 12145  MISS:  1523  HIT %: 88.8572  MISS %: 11.1428  AVERAGE MISS PENALTY: 100
STLB PREFETCH  ACCESS:     0  HIT:     0  MISS:     0  HIT %:     0  MISS %:     0  AVERAGE MISS PENALTY: 0
STLB WRITEBACK ACCESS:     0  HIT:     0  MISS:     0  HIT %:     0  MISS %:     0  AVERAGE MISS PENALTY: 0
STLB PREFETCH  REQUESTED:     0  ISSUED:     0  USEFUL:     0  USELESS:     0
 USEFUL LOAD PREFETCHES:          0 PREFETCH ISSUED TO LOWER LEVEL:          0  ACCURACY: -nan
 TIMELY PREFETCHES:          0 LATE PREFETCHES: 0 DROPPED PREFETCHES: 0
STLB AVERAGE MISS LATENCY: 100 cycles

STLB Set Associative Eviction Count : 0
STLB Priority 0 entries : 0
STLB Inter-Core Interference : 0
L1D TOTAL     ACCESS: 98876606  HIT: 94878143  MISS: 3998463  HIT %: 95.9561  MISS %: 4.04389  AVERAGE MISS PENALTY: 2.20804e+07
L1D LOAD      ACCESS: 59705198  HIT: 59089164  MISS: 616034  HIT %: 98.9682  MISS %: 1.03179  AVERAGE MISS PENALTY: 1.43315e+08
L1D RFO       ACCESS: 10901009  HIT: 10803560  MISS: 97449  HIT %: 99.1061  MISS %: 0.893945  AVERAGE MISS PENALTY: 577.376
L1D PREFETCH  ACCESS: 28270399  HIT: 24985419  MISS: 3284980  HIT %: 88.3801  MISS %: 11.6199  AVERAGE MISS PENALTY: 180.848
L1D WRITEBACK ACCESS:     0  HIT:     0  MISS:     0  HIT %:     0  MISS %:     0  AVERAGE MISS PENALTY: 0
L1D PREFETCH  REQUESTED: 44725433  ISSUED: 30920320  USEFUL: 3284899  USELESS:    86
 USEFUL LOAD PREFETCHES:    3284899 PREFETCH ISSUED TO LOWER LEVEL:   14573980  ACCURACY: 22.5395
 TIMELY PREFETCHES:    3284899 LATE PREFETCHES: 500544 DROPPED PREFETCHES: 13805113
L1D AVERAGE MISS LATENCY: 213.287 cycles

L1D Set Associative Eviction Count : 0
L1D Priority 0 entries : 0
L1D Inter-Core Interference : 0
L1I TOTAL     ACCESS: 30130017  HIT: 30130017  MISS:     0  HIT %:   100  MISS %:     0  AVERAGE MISS PENALTY: 0
L1I LOAD      ACCESS: 30130017  HIT: 30130017  MISS:     0  HIT %:   100  MISS %:     0  AVERAGE MISS PENALTY: 0
L1I RFO       ACCESS:     0  HIT:     0  MISS:     0  HIT %:     0  MISS %:     0  AVERAGE MISS PENALTY: 0
L1I PREFETCH  ACCESS:     0  HIT:     0  MISS:     0  HIT %:     0  MISS %:     0  AVERAGE MISS PENALTY: 0
L1I WRITEBACK ACCESS:     0  HIT:     0  MISS:     0  HIT %:     0  MISS %:     0  AVERAGE MISS PENALTY: 0
L1I PREFETCH  REQUESTED:     0  ISSUED:     0  USEFUL:     0  USELESS:     0
 USEFUL LOAD PREFETCHES:          0 PREFETCH ISSUED TO LOWER LEVEL:          0  ACCURACY: -nan
 TIMELY PREFETCHES:          0 LATE PREFETCHES: 0 DROPPED PREFETCHES: 0
L1I AVERAGE MISS LATENCY: -nan cycles

L1I Set Associative Eviction Count : 0
L1I Priority 0 entries : 0
L1I Inter-Core Interference : 0
L2C TOTAL     ACCESS: 6983946  HIT: 3183382  MISS: 3800564  HIT %: 45.5814  MISS %: 54.4186  AVERAGE MISS PENALTY: 2.03899e+07
L2C LOAD      ACCESS: 595293  HIT: 126408  MISS: 468885  HIT %: 21.2346  MISS %: 78.7654  AVERAGE MISS PENALTY: 1.65267e+08
L2C RFO       ACCESS: 97449  HIT:     0  MISS: 97449  HIT %:     0  MISS %:   100  AVERAGE MISS PENALTY: 560.5
L2C PREFETCH  ACCESS: 6192275  HIT: 2958045  MISS: 3234230  HIT %: 47.7699  MISS %: 52.2301  AVERAGE MISS PENALTY: 502.375
L2C WRITEBACK ACCESS: 98929  HIT: 98929  MISS:     0  HIT %:   100  MISS %:     0  AVERAGE MISS PENALTY: 0
L2C PREFETCH  REQUESTED: 6017631  ISSUED: 5992138  USEFUL: 120473  USELESS: 3114565
 USEFUL LOAD PREFETCHES:     120473 PREFETCH ISSUED TO LOWER LEVEL:    5318681  ACCURACY: 2.26509
 TIMELY PREFETCHES:     120473 LATE PREFETCHES: 377232 DROPPED PREFETCHES: 25493
L2C AVERAGE MISS LATENCY: 492.535 cycles

L2C Set Associative Eviction Count : 0
L2C Priority 0 entries : 0
L2C Inter-Core Interference : 0
LLC0 TOTAL     ACCESS: 487245  HIT:    55  MISS: 487190  HIT %: 0.011288  MISS %: 99.9887  AVERAGE MISS PENALTY: 437.891
LLC0 LOAD      ACCESS: 63599  HIT:     8  MISS: 63591  HIT %: 0.0125788  MISS %: 99.9874  AVERAGE MISS PENALTY: 542.747
LLC0 RFO       ACCESS: 12182  HIT:     0  MISS: 12182  HIT %:     0  MISS %:   100  AVERAGE MISS PENALTY: 467.068
LLC0 PREFETCH  ACCESS: 399292  HIT:    47  MISS: 399245  HIT %: 0.0117708  MISS %: 99.9882  AVERAGE MISS PENALTY: 433.65
LLC0 WRITEBACK ACCESS: 12172  HIT:     0  MISS: 12172  HIT %:     0  MISS %:   100  AVERAGE MISS PENALTY: 0
LLC0 PREFETCH  REQUESTED:     0  ISSUED:     0  USEFUL:     0  USELESS:   344
 USEFUL LOAD PREFETCHES:          0 PREFETCH ISSUED TO LOWER LEVEL:   11599222  ACCURACY: 0
 TIMELY PREFETCHES:          0 LATE PREFETCHES: 0 DROPPED PREFETCHES: 0
LLC0 AVERAGE MISS LATENCY: 437.891 cycles

LLC0 Set Associative Eviction Count : 0
LLC0 Priority 0 entries : 12288
LLC0 Inter-Core Interference : 85016
LLC1 TOTAL     ACCESS: 487235  HIT:    47  MISS: 487188  HIT %: 0.00964627  MISS %: 99.9904  AVERAGE MISS PENALTY: 436.36
LLC1 LOAD      ACCESS: 19873  HIT:     0  MISS: 19873  HIT %:     0  MISS %:   100  AVERAGE MISS PENALTY: 551.029
LLC1 RFO       ACCESS: 12181  HIT:     0  MISS: 12181  HIT %:     0  MISS %:   100  AVERAGE MISS PENALTY: 461.518
LLC1 PREFETCH  ACCESS: 443009  HIT:    47  MISS: 442962  HIT %: 0.0106093  MISS %: 99.9894  AVERAGE MISS PENALTY: 442.514
LLC1 WRITEBACK ACCESS: 12172  HIT:     0  MISS: 12172  HIT %:     0  MISS %:   100  AVERAGE MISS PENALTY: 0
LLC1 PREFETCH  REQUESTED:     0  ISSUED:     0  USEFUL:     0  USELESS:   285
 USEFUL LOAD PREFETCHES:          0 PREFETCH ISSUED TO LOWER LEVEL:   10201907  ACCURACY: 0
 TIMELY PREFETCHES:          0 LATE PREFETCHES: 0 DROPPED PREFETCHES: 0
LLC1 AVERAGE MISS LATENCY: 436.36 cycles

LLC1 Set Associative Eviction Count : 0
LLC1 Priority 0 entries : 12287
LLC1 Inter-Core Interference : 84877
LLC2 TOTAL     ACCESS: 487235  HIT:    59  MISS: 487176  HIT %: 0.0121091  MISS %: 99.9879  AVERAGE MISS PENALTY: 527.759
LLC2 LOAD      ACCESS:  6126  HIT:     0  MISS:  6126  HIT %:     0  MISS %:   100  AVERAGE MISS PENALTY: 460.278
LLC2 RFO       ACCESS: 12181  HIT:     0  MISS: 12181  HIT %:     0  MISS %:   100  AVERAGE MISS PENALTY: 475.28
LLC2 PREFETCH  ACCESS: 456756  HIT:    59  MISS: 456697  HIT %: 0.0129172  MISS %: 99.9871  AVERAGE MISS PENALTY: 544.13
LLC2 WRITEBACK ACCESS: 12172  HIT:     0  MISS: 12172  HIT %:     0  MISS %:   100  AVERAGE MISS PENALTY: 0
LLC2 PREFETCH  REQUESTED:     0  ISSUED:     0  USEFUL:     0  USELESS:   323
 USEFUL LOAD PREFETCHES:          0 PREFETCH ISSUED TO LOWER LEVEL:   16007447  ACCURACY: 0
 TIMELY PREFETCHES:          0 LATE PREFETCHES: 0 DROPPED PREFETCHES: 0
LLC2 AVERAGE MISS LATENCY: 527.759 cycles

LLC2 Set Associative Eviction Count : 0
LLC2 Priority 0 entries : 12288
LLC2 Inter-Core Interference : 84893
LLC3 TOTAL     ACCESS: 487246  HIT:    81  MISS: 487165  HIT %: 0.016624  MISS %: 99.9834  AVERAGE MISS PENALTY: 514.641
LLC3 LOAD      ACCESS:  6594  HIT:     0  MISS:  6594  HIT %:     0  MISS %:   100  AVERAGE MISS PENALTY: 438.517
LLC3 RFO       ACCESS: 12181  HIT:     0  MISS: 12181  HIT %:     0  MISS %:   100  AVERAGE MISS PENALTY: 461.325
LLC3 PREFETCH  ACCESS: 456299  HIT:    81  MISS: 456218  HIT %: 0.0177515  MISS %: 99.9822  AVERAGE MISS PENALTY: 530.895
LLC3 WRITEBACK ACCESS: 12172  HIT:     0  MISS: 12172  HIT %:     0  MISS %:   100  AVERAGE MISS PENALTY: 0
LLC3 PREFETCH  REQUESTED:     0  ISSUED:     0  USEFUL:     0  USELESS:   454
 USEFUL LOAD PREFETCHES:          0 PREFETCH ISSUED TO LOWER LEVEL:   12905272  ACCURACY: 0
 TIMELY PREFETCHES:          0 LATE PREFETCHES: 0 DROPPED PREFETCHES: 0
LLC3 AVERAGE MISS LATENCY: 514.641 cycles

LLC3 Set Associative Eviction Count : 0
LLC3 Priority 0 entries : 12288
LLC3 Inter-Core Interference : 84976
LLC4 TOTAL     ACCESS: 487257  HIT:    76  MISS: 487181  HIT %: 0.0155975  MISS %: 99.9844  AVERAGE MISS PENALTY: 444.226
LLC4 LOAD      ACCESS:  6613  HIT:    10  MISS:  6603  HIT %: 0.151217  MISS %: 99.8488  AVERAGE MISS PENALTY: 588.793
LLC4 RFO       ACCESS: 12181  HIT:     0  MISS: 12181  HIT %:     0  MISS %:   100  AVERAGE MISS PENALTY: 523.168
LLC4 PREFETCH  ACCESS: 456280  HIT:    56  MISS: 456224  HIT %: 0.0122732  MISS %: 99.9877  AVERAGE MISS PENALTY: 451.879
LLC4 WRITEBACK ACCESS: 12183  HIT:    10  MISS: 12173  HIT %: 0.0820816  MISS %: 99.9179  AVERAGE MISS PENALTY: 0
LLC4 PREFETCH  REQUESTED:     0  ISSUED:     0  USEFUL:     0  USELESS:   284
 USEFUL LOAD PREFETCHES:          0 PREFETCH ISSUED TO LOWER LEVEL:   19128107  ACCURACY: 0
 TIMELY PREFETCHES:          0 LATE PREFETCHES: 0 DROPPED PREFETCHES: 0
LLC4 AVERAGE MISS LATENCY: 444.226 cycles

LLC4 Set Associative Eviction Count : 0
LLC4 Priority 0 entries : 12288
LLC4 Inter-Core Interference : 85007
LLC5 TOTAL     ACCESS: 487258  HIT:    60  MISS: 487198  HIT %: 0.0123138  MISS %: 99.9877  AVERAGE MISS PENALTY: 443.879
LLC5 LOAD      ACCESS:  6111  HIT:     8  MISS:  6103  HIT %: 0.130911  MISS %: 99.8691  AVERAGE MISS PENALTY: 588.716
LLC5 RFO       ACCESS: 12181  HIT:     0  MISS: 12181  HIT %:     0  MISS %:   100  AVERAGE MISS PENALTY: 768.691
LLC5 PREFETCH  ACCESS: 456783  HIT:    44  MISS: 456739  HIT %: 0.00963258  MISS %: 99.9904  AVERAGE MISS PENALTY: 445.113
LLC5 WRITEBACK ACCESS: 12183  HIT:     8  MISS: 12175  HIT %: 0.0656653  MISS %: 99.9343  AVERAGE MISS PENALTY: 0
LLC5 PREFETCH  REQUESTED:     0  ISSUED:     0  USEFUL:     0  USELESS:   347
 USEFUL LOAD PREFETCHES:          0 PREFETCH ISSUED TO LOWER LEVEL:   14492273  ACCURACY: 0
 TIMELY PREFETCHES:          0 LATE PREFETCHES: 0 DROPPED PREFETCHES: 0
LLC5 AVERAGE MISS LATENCY: 443.879 cycles

LLC5 Set Associative Eviction Count : 0
LLC5 Priority 0 entries : 12288
LLC5 Inter-Core Interference : 84938
LLC6 TOTAL     ACCESS: 487244  HIT:    72  MISS: 487172  HIT %: 0.014777  MISS %: 99.9852  AVERAGE MISS PENALTY: 535.51
LLC6 LOAD      ACCESS:  6261  HIT:     0  MISS:  6261  HIT %:     0  MISS %:   100  AVERAGE MISS PENALTY: 465.335
LLC6 RFO       ACCESS: 12181  HIT:     0  MISS: 12181  HIT %:     0  MISS %:   100  AVERAGE MISS PENALTY: 510.209
LLC6 PREFETCH  ACCESS: 456630  HIT:    72  MISS: 456558  HIT %: 0.0157677  MISS %: 99.9842  AVERAGE MISS PENALTY: 551.425
LLC6 WRITEBACK ACCESS: 12172  HIT:     0  MISS: 12172  HIT %:     0  MISS %:   100  AVERAGE MISS PENALTY: 0
LLC6 PREFETCH  REQUESTED:     0  ISSUED:     0  USEFUL:     0  USELESS:   560
 USEFUL LOAD PREFETCHES:          0 PREFETCH ISSUED TO LOWER LEVEL:   21847921  ACCURACY: 0
 TIMELY PREFETCHES:          0 LATE PREFETCHES: 0 DROPPED PREFETCHES: 0
LLC6 AVERAGE MISS LATENCY: 535.51 cycles

LLC6 Set Associative Eviction Count : 0
LLC6 Priority 0 entries : 12288
LLC6 Inter-Core Interference : 85039
LLC7 TOTAL     ACCESS: 487242  HIT:    72  MISS: 487170  HIT %: 0.0147771  MISS %: 99.9852  AVERAGE MISS PENALTY: 514.203
LLC7 LOAD      ACCESS:  5974  HIT:     0  MISS:  5974  HIT %:     0  MISS %:   100  AVERAGE MISS PENALTY: 462.155
LLC7 RFO       ACCESS: 12181  HIT:     0  MISS: 12181  HIT %:     0  MISS %:   100  AVERAGE MISS PENALTY: 496.999
LLC7 PREFETCH  ACCESS: 456915  HIT:    72  MISS: 456843  HIT %: 0.0157579  MISS %: 99.9842  AVERAGE MISS PENALTY: 529.043
LLC7 WRITEBACK ACCESS: 12172  HIT:     0  MISS: 12172  HIT %:     0  MISS %:   100  AVERAGE MISS PENALTY: 0
LLC7 PREFETCH  REQUESTED:     0  ISSUED:     0  USEFUL:     0  USELESS:   610
 USEFUL LOAD PREFETCHES:          0 PREFETCH ISSUED TO LOWER LEVEL:   17250534  ACCURACY: 0
 TIMELY PREFETCHES:          0 LATE PREFETCHES: 0 DROPPED PREFETCHES: 0
LLC7 AVERAGE MISS LATENCY: 514.203 cycles

LLC7 Set Associative Eviction Count : 0
LLC7 Priority 0 entries : 12288
LLC7 Inter-Core Interference : 84915
ROI Average ROB Stall Cycles:	6.02365
ROI Total ROB Stalls Cycles:	170715070
ROI TOTAL ROB counter      :	28340821
ROI Average Load ROB Stall Cycles:	21.6396
ROI Total Load ROB Stalls Cycle  :	89825327
ROI Total Load ROB stalls Counter:	4150964
Major fault: 0 Minor fault: 112961








Interconnect Stats 
LINK 0 BW : 0LINK 1 BW : 0LINK 2 BW : 0LINK 3 BW : 0LINK 4 BW : 0LINK 5 BW : 0LINK 6 BW : 0LINK 7 BW : 0
DRAM Statistics
 CHANNEL 0
 RQ ROW_BUFFER_HIT: 12562176  ROW_BUFFER_MISS: 2670798
 DBUS_CONGESTED: 8193307
 WQ ROW_BUFFER_HIT:  1522  ROW_BUFFER_MISS: 385548  FULL:     0

 CHANNEL 1
 RQ ROW_BUFFER_HIT: 12546312  ROW_BUFFER_MISS: 2686700
 DBUS_CONGESTED: 8193307
 WQ ROW_BUFFER_HIT:  1535  ROW_BUFFER_MISS: 385421  FULL:     0

 AVG_CONGESTED_CYCLE: 5
DRAM PAGES: 2097152
Allocated PAGES: 904644
L2C destructor called
L1D destructor called
L1I destructor called
STLB destructor called
DTLB destructor called
ITLB destructor called
L2C destructor called
L1D destructor called
L1I destructor called
STLB destructor called
DTLB destructor called
ITLB destructor called
L2C destructor called
L1D destructor called
L1I destructor called
STLB destructor called
DTLB destructor called
ITLB destructor called
L2C destructor called
L1D destructor called
L1I destructor called
STLB destructor called
DTLB destructor called
ITLB destructor called
L2C destructor called
L1D destructor called
L1I destructor called
STLB destructor called
DTLB destructor called
ITLB destructor called
L2C destructor called
L1D destructor called
L1I destructor called
STLB destructor called
DTLB destructor called
ITLB destructor called
L2C destructor called
L1D destructor called
L1I destructor called
STLB destructor called
DTLB destructor called
ITLB destructor called
L2C destructor called
L1D destructor called
L1I destructor called
STLB destructor called
DTLB destructor called
ITLB destructor called
