
*** ChampSim Multicore Out-of-Order Simulator ***

Warmup Instructions: 200000000
Simulation Instructions: 200000000
Number of CPUs: 8
threads:1

L1I Configuration:
L1I_SET:64
L1I_WAY:8
L1I_RQ_SIZE:64
L1I_WQ_SIZE:64
L1I_PQ_SIZE:8
L1I_MSHR_SIZE:8

L1D Configuration:
L1D_SET:64
L1D_WAY:12
L1D_RQ_SIZE:64
L1D_WQ_SIZE:64
L1D_PQ_SIZE:8
L1D_MSHR_SIZE:16

L2C Configuration:
L2C_SET:1024
L2C_WAY:8
L2C_RQ_SIZE:32
L2C_WQ_SIZE:32
L2C_PQ_SIZE:16
L2C_MSHR_SIZE:32

LLC Configuration:
LLC_SET:2048
LLC_WAY:12
LLC SLICES:8
LLC_RQ_SIZE:64
LLC_WQ_SIZE:64
LLC_PQ_SIZE:32
LLC_MSHR_SIZE:64

Interconnect OFF
Attacker deprioritize is: OFF
Off-chip DRAM Size: 8192 MB Channels: 2 Width: 64-bit Data Rate: 3200 MT/s
PAGE SIZE in KB: 4.000000 
PAGE SIZE in MB: 0.003906 
PAGE offset in bits: 12 
CEASER-S_LLC:0
MIRAGE : 1
CEASER_LATENCY:3
REMAP : OFF
Partitions : 1
Multi-Step : OFF
BFS : OFF

CPU 0 runs /home/anubhav/spec_2017/603.bwaves_s-891B.champsimtrace.xz
CPU 1 runs /home/anubhav/spec_2017/603.bwaves_s-891B.champsimtrace.xz
CPU 2 runs /home/anubhav/spec_2017/603.bwaves_s-891B.champsimtrace.xz
CPU 3 runs /home/anubhav/spec_2017/603.bwaves_s-891B.champsimtrace.xz
CPU 4 runs /home/anubhav/spec_2017/603.bwaves_s-891B.champsimtrace.xz
CPU 5 runs /home/anubhav/spec_2017/603.bwaves_s-891B.champsimtrace.xz
CPU 6 runs /home/anubhav/spec_2017/603.bwaves_s-891B.champsimtrace.xz
CPU 7 runs /home/anubhav/spec_2017/603.bwaves_s-891B.champsimtrace.xz
CPU 0 Bimodal branch predictor
Initialize Hawkeye state
Initialize Hawkeye state
Initialize Hawkeye state
Initialize Hawkeye state
Initialize Hawkeye state
Initialize Hawkeye state
Initialize Hawkeye state
Initialize Hawkeye state
CPU 1 Bimodal branch predictor
Initialize Hawkeye state
Initialize Hawkeye state
Initialize Hawkeye state
Initialize Hawkeye state
Initialize Hawkeye state
Initialize Hawkeye state
Initialize Hawkeye state
Initialize Hawkeye state
CPU 2 Bimodal branch predictor
Initialize Hawkeye state
Initialize Hawkeye state
Initialize Hawkeye state
Initialize Hawkeye state
Initialize Hawkeye state
Initialize Hawkeye state
Initialize Hawkeye state
Initialize Hawkeye state
CPU 3 Bimodal branch predictor
Initialize Hawkeye state
Initialize Hawkeye state
Initialize Hawkeye state
Initialize Hawkeye state
Initialize Hawkeye state
Initialize Hawkeye state
Initialize Hawkeye state
Initialize Hawkeye state
CPU 4 Bimodal branch predictor
Initialize Hawkeye state
Initialize Hawkeye state
Initialize Hawkeye state
Initialize Hawkeye state
Initialize Hawkeye state
Initialize Hawkeye state
Initialize Hawkeye state
Initialize Hawkeye state
CPU 5 Bimodal branch predictor
Initialize Hawkeye state
Initialize Hawkeye state
Initialize Hawkeye state
Initialize Hawkeye state
Initialize Hawkeye state
Initialize Hawkeye state
Initialize Hawkeye state
Initialize Hawkeye state
CPU 6 Bimodal branch predictor
Initialize Hawkeye state
Initialize Hawkeye state
Initialize Hawkeye state
Initialize Hawkeye state
Initialize Hawkeye state
Initialize Hawkeye state
Initialize Hawkeye state
Initialize Hawkeye state
CPU 7 Bimodal branch predictor
Initialize Hawkeye state
Initialize Hawkeye state
Initialize Hawkeye state
Initialize Hawkeye state
Initialize Hawkeye state
Initialize Hawkeye state
Initialize Hawkeye state
Initialize Hawkeye state
FILL
Heartbeat CPU 0 instructions: 10000003 cycles: 5049716 heartbeat IPC: 1.98031 cumulative IPC: 1.98031 (Simulation time: 0 hr 33 min 6 sec) 
 Total Blocks : 196608 Invalid Blocks : 914 Valid Blocks : 195694
 Total Tags : 491520 Threshold : 12288 Invalid Tags : 197524 Pr0 Tags : 98302 Pr1 Tags : 195694 num_pr0 : 12288
 SAE Count : 0
 Inter-Core Inteference in Data Store : 750653
Heartbeat CPU 1 instructions: 10000003 cycles: 5049733 heartbeat IPC: 1.9803 cumulative IPC: 1.9803 (Simulation time: 0 hr 33 min 6 sec) 
 Total Blocks : 196608 Invalid Blocks : 914 Valid Blocks : 195694
 Total Tags : 491520 Threshold : 12288 Invalid Tags : 197524 Pr0 Tags : 98302 Pr1 Tags : 195694 num_pr0 : 12288
 SAE Count : 0
 Inter-Core Inteference in Data Store : 750658
Heartbeat CPU 2 instructions: 10000003 cycles: 5049756 heartbeat IPC: 1.98029 cumulative IPC: 1.98029 (Simulation time: 0 hr 33 min 6 sec) 
 Total Blocks : 196608 Invalid Blocks : 914 Valid Blocks : 195694
 Total Tags : 491520 Threshold : 12288 Invalid Tags : 197524 Pr0 Tags : 98302 Pr1 Tags : 195694 num_pr0 : 12288
 SAE Count : 0
 Inter-Core Inteference in Data Store : 750664
Heartbeat CPU 3 instructions: 10000003 cycles: 5049768 heartbeat IPC: 1.98029 cumulative IPC: 1.98029 (Simulation time: 0 hr 33 min 6 sec) 
 Total Blocks : 196608 Invalid Blocks : 914 Valid Blocks : 195694
 Total Tags : 491520 Threshold : 12288 Invalid Tags : 197525 Pr0 Tags : 98301 Pr1 Tags : 195694 num_pr0 : 12287
 SAE Count : 0
 Inter-Core Inteference in Data Store : 750668
Heartbeat CPU 4 instructions: 10000003 cycles: 5049778 heartbeat IPC: 1.98029 cumulative IPC: 1.98029 (Simulation time: 0 hr 33 min 6 sec) 
 Total Blocks : 196608 Invalid Blocks : 914 Valid Blocks : 195694
 Total Tags : 491520 Threshold : 12288 Invalid Tags : 197525 Pr0 Tags : 98301 Pr1 Tags : 195694 num_pr0 : 12287
 SAE Count : 0
 Inter-Core Inteference in Data Store : 750669
Heartbeat CPU 5 instructions: 10000003 cycles: 5049790 heartbeat IPC: 1.98028 cumulative IPC: 1.98028 (Simulation time: 0 hr 33 min 6 sec) 
 Total Blocks : 196608 Invalid Blocks : 914 Valid Blocks : 195694
 Total Tags : 491520 Threshold : 12288 Invalid Tags : 197525 Pr0 Tags : 98301 Pr1 Tags : 195694 num_pr0 : 12287
 SAE Count : 0
 Inter-Core Inteference in Data Store : 750671
Heartbeat CPU 6 instructions: 10000003 cycles: 5049802 heartbeat IPC: 1.98028 cumulative IPC: 1.98028 (Simulation time: 0 hr 33 min 6 sec) 
 Total Blocks : 196608 Invalid Blocks : 914 Valid Blocks : 195694
 Total Tags : 491520 Threshold : 12288 Invalid Tags : 197525 Pr0 Tags : 98301 Pr1 Tags : 195694 num_pr0 : 12287
 SAE Count : 0
 Inter-Core Inteference in Data Store : 750672
Heartbeat CPU 7 instructions: 10000003 cycles: 5049817 heartbeat IPC: 1.98027 cumulative IPC: 1.98027 (Simulation time: 0 hr 33 min 6 sec) 
 Total Blocks : 196608 Invalid Blocks : 914 Valid Blocks : 195694
 Total Tags : 491520 Threshold : 12288 Invalid Tags : 197525 Pr0 Tags : 98301 Pr1 Tags : 195694 num_pr0 : 12287
 SAE Count : 0
 Inter-Core Inteference in Data Store : 750676
Heartbeat CPU 0 instructions: 20000003 cycles: 10099252 heartbeat IPC: 1.98038 cumulative IPC: 1.98035 (Simulation time: 1 hr 34 min 34 sec) 
 Total Blocks : 196608 Invalid Blocks : 4 Valid Blocks : 196604
 Total Tags : 491520 Threshold : 12288 Invalid Tags : 196615 Pr0 Tags : 98301 Pr1 Tags : 196604 num_pr0 : 12288
 SAE Count : 0
 Inter-Core Inteference in Data Store : 1701888
Heartbeat CPU 1 instructions: 20000003 cycles: 10099269 heartbeat IPC: 1.98038 cumulative IPC: 1.98034 (Simulation time: 1 hr 34 min 34 sec) 
 Total Blocks : 196608 Invalid Blocks : 4 Valid Blocks : 196604
 Total Tags : 491520 Threshold : 12288 Invalid Tags : 196615 Pr0 Tags : 98301 Pr1 Tags : 196604 num_pr0 : 12287
 SAE Count : 0
 Inter-Core Inteference in Data Store : 1701891
Heartbeat CPU 2 instructions: 20000003 cycles: 10099308 heartbeat IPC: 1.98037 cumulative IPC: 1.98033 (Simulation time: 1 hr 34 min 34 sec) 
 Total Blocks : 196608 Invalid Blocks : 4 Valid Blocks : 196604
 Total Tags : 491520 Threshold : 12288 Invalid Tags : 196615 Pr0 Tags : 98301 Pr1 Tags : 196604 num_pr0 : 12287
 SAE Count : 0
 Inter-Core Inteference in Data Store : 1701897
Heartbeat CPU 3 instructions: 20000003 cycles: 10099320 heartbeat IPC: 1.98037 cumulative IPC: 1.98033 (Simulation time: 1 hr 34 min 34 sec) 
 Total Blocks : 196608 Invalid Blocks : 4 Valid Blocks : 196604
 Total Tags : 491520 Threshold : 12288 Invalid Tags : 196615 Pr0 Tags : 98301 Pr1 Tags : 196604 num_pr0 : 12287
 SAE Count : 0
 Inter-Core Inteference in Data Store : 1701899
Heartbeat CPU 4 instructions: 20000003 cycles: 10099333 heartbeat IPC: 1.98037 cumulative IPC: 1.98033 (Simulation time: 1 hr 34 min 34 sec) 
 Total Blocks : 196608 Invalid Blocks : 4 Valid Blocks : 196604
 Total Tags : 491520 Threshold : 12288 Invalid Tags : 196614 Pr0 Tags : 98302 Pr1 Tags : 196604 num_pr0 : 12287
 SAE Count : 0
 Inter-Core Inteference in Data Store : 1701901
Heartbeat CPU 5 instructions: 20000003 cycles: 10099346 heartbeat IPC: 1.98037 cumulative IPC: 1.98033 (Simulation time: 1 hr 34 min 34 sec) 
 Total Blocks : 196608 Invalid Blocks : 4 Valid Blocks : 196604
 Total Tags : 491520 Threshold : 12288 Invalid Tags : 196614 Pr0 Tags : 98302 Pr1 Tags : 196604 num_pr0 : 12287
 SAE Count : 0
 Inter-Core Inteference in Data Store : 1701905
Heartbeat CPU 6 instructions: 20000003 cycles: 10099355 heartbeat IPC: 1.98037 cumulative IPC: 1.98032 (Simulation time: 1 hr 34 min 34 sec) 
 Total Blocks : 196608 Invalid Blocks : 4 Valid Blocks : 196604
 Total Tags : 491520 Threshold : 12288 Invalid Tags : 196614 Pr0 Tags : 98302 Pr1 Tags : 196604 num_pr0 : 12287
 SAE Count : 0
 Inter-Core Inteference in Data Store : 1701908
Heartbeat CPU 7 instructions: 20000003 cycles: 10099372 heartbeat IPC: 1.98037 cumulative IPC: 1.98032 (Simulation time: 1 hr 34 min 34 sec) 
 Total Blocks : 196608 Invalid Blocks : 4 Valid Blocks : 196604
 Total Tags : 491520 Threshold : 12288 Invalid Tags : 196615 Pr0 Tags : 98301 Pr1 Tags : 196604 num_pr0 : 12287
 SAE Count : 0
 Inter-Core Inteference in Data Store : 1701910
Heartbeat CPU 0 instructions: 30000003 cycles: 15148767 heartbeat IPC: 1.98039 cumulative IPC: 1.98036 (Simulation time: 3 hr 0 min 33 sec) 
 Total Blocks : 196608 Invalid Blocks : 0 Valid Blocks : 196608
 Total Tags : 491520 Threshold : 12288 Invalid Tags : 196612 Pr0 Tags : 98300 Pr1 Tags : 196608 num_pr0 : 12288
 SAE Count : 0
 Inter-Core Inteference in Data Store : 2651888
Heartbeat CPU 1 instructions: 30000003 cycles: 15148784 heartbeat IPC: 1.98039 cumulative IPC: 1.98036 (Simulation time: 3 hr 0 min 33 sec) 
 Total Blocks : 196608 Invalid Blocks : 0 Valid Blocks : 196608
 Total Tags : 491520 Threshold : 12288 Invalid Tags : 196612 Pr0 Tags : 98300 Pr1 Tags : 196608 num_pr0 : 12288
 SAE Count : 0
 Inter-Core Inteference in Data Store : 2651893
Heartbeat CPU 2 instructions: 30000003 cycles: 15148842 heartbeat IPC: 1.98038 cumulative IPC: 1.98035 (Simulation time: 3 hr 0 min 33 sec) 
 Total Blocks : 196608 Invalid Blocks : 0 Valid Blocks : 196608
 Total Tags : 491520 Threshold : 12288 Invalid Tags : 196613 Pr0 Tags : 98299 Pr1 Tags : 196608 num_pr0 : 12288
 SAE Count : 0
 Inter-Core Inteference in Data Store : 2651901
Heartbeat CPU 3 instructions: 30000003 cycles: 15148852 heartbeat IPC: 1.98038 cumulative IPC: 1.98035 (Simulation time: 3 hr 0 min 33 sec) 
 Total Blocks : 196608 Invalid Blocks : 0 Valid Blocks : 196608
 Total Tags : 491520 Threshold : 12288 Invalid Tags : 196612 Pr0 Tags : 98300 Pr1 Tags : 196608 num_pr0 : 12288
 SAE Count : 0
 Inter-Core Inteference in Data Store : 2651902
Heartbeat CPU 4 instructions: 30000003 cycles: 15148865 heartbeat IPC: 1.98038 cumulative IPC: 1.98035 (Simulation time: 3 hr 0 min 33 sec) 
 Total Blocks : 196608 Invalid Blocks : 0 Valid Blocks : 196608
 Total Tags : 491520 Threshold : 12288 Invalid Tags : 196612 Pr0 Tags : 98300 Pr1 Tags : 196608 num_pr0 : 12288
 SAE Count : 0
 Inter-Core Inteference in Data Store : 2651904
Heartbeat CPU 5 instructions: 30000003 cycles: 15148877 heartbeat IPC: 1.98038 cumulative IPC: 1.98035 (Simulation time: 3 hr 0 min 33 sec) 
 Total Blocks : 196608 Invalid Blocks : 0 Valid Blocks : 196608
 Total Tags : 491520 Threshold : 12288 Invalid Tags : 196613 Pr0 Tags : 98299 Pr1 Tags : 196608 num_pr0 : 12288
 SAE Count : 0
 Inter-Core Inteference in Data Store : 2651907
Heartbeat CPU 6 instructions: 30000003 cycles: 15148887 heartbeat IPC: 1.98038 cumulative IPC: 1.98034 (Simulation time: 3 hr 0 min 33 sec) 
 Total Blocks : 196608 Invalid Blocks : 0 Valid Blocks : 196608
 Total Tags : 491520 Threshold : 12288 Invalid Tags : 196612 Pr0 Tags : 98300 Pr1 Tags : 196608 num_pr0 : 12288
 SAE Count : 0
 Inter-Core Inteference in Data Store : 2651907
Heartbeat CPU 7 instructions: 30000003 cycles: 15148906 heartbeat IPC: 1.98038 cumulative IPC: 1.98034 (Simulation time: 3 hr 0 min 34 sec) 
 Total Blocks : 196608 Invalid Blocks : 0 Valid Blocks : 196608
 Total Tags : 491520 Threshold : 12288 Invalid Tags : 196612 Pr0 Tags : 98300 Pr1 Tags : 196608 num_pr0 : 12288
 SAE Count : 0
 Inter-Core Inteference in Data Store : 2651914
Heartbeat CPU 0 instructions: 40000000 cycles: 20198662 heartbeat IPC: 1.98024 cumulative IPC: 1.98033 (Simulation time: 4 hr 49 min 40 sec) 
 Total Blocks : 196608 Invalid Blocks : 0 Valid Blocks : 196608
 Total Tags : 491520 Threshold : 12288 Invalid Tags : 196610 Pr0 Tags : 98302 Pr1 Tags : 196608 num_pr0 : 12287
 SAE Count : 0
 Inter-Core Inteference in Data Store : 3601521
Heartbeat CPU 1 instructions: 40000000 cycles: 20198679 heartbeat IPC: 1.98024 cumulative IPC: 1.98033 (Simulation time: 4 hr 49 min 40 sec) 
 Total Blocks : 196608 Invalid Blocks : 0 Valid Blocks : 196608
 Total Tags : 491520 Threshold : 12288 Invalid Tags : 196611 Pr0 Tags : 98301 Pr1 Tags : 196608 num_pr0 : 12287
 SAE Count : 0
 Inter-Core Inteference in Data Store : 3601525
Heartbeat CPU 2 instructions: 40000000 cycles: 20198742 heartbeat IPC: 1.98024 cumulative IPC: 1.98032 (Simulation time: 4 hr 49 min 40 sec) 
 Total Blocks : 196608 Invalid Blocks : 0 Valid Blocks : 196608
 Total Tags : 491520 Threshold : 12288 Invalid Tags : 196612 Pr0 Tags : 98300 Pr1 Tags : 196608 num_pr0 : 12287
 SAE Count : 0
 Inter-Core Inteference in Data Store : 3601535
Heartbeat CPU 3 instructions: 40000000 cycles: 20198763 heartbeat IPC: 1.98023 cumulative IPC: 1.98032 (Simulation time: 4 hr 49 min 40 sec) 
 Total Blocks : 196608 Invalid Blocks : 0 Valid Blocks : 196608
 Total Tags : 491520 Threshold : 12288 Invalid Tags : 196612 Pr0 Tags : 98300 Pr1 Tags : 196608 num_pr0 : 12287
 SAE Count : 0
 Inter-Core Inteference in Data Store : 3601540
Heartbeat CPU 4 instructions: 40000000 cycles: 20198775 heartbeat IPC: 1.98023 cumulative IPC: 1.98032 (Simulation time: 4 hr 49 min 40 sec) 
 Total Blocks : 196608 Invalid Blocks : 0 Valid Blocks : 196608
 Total Tags : 491520 Threshold : 12288 Invalid Tags : 196611 Pr0 Tags : 98301 Pr1 Tags : 196608 num_pr0 : 12287
 SAE Count : 0
 Inter-Core Inteference in Data Store : 3601543
Heartbeat CPU 5 instructions: 40000000 cycles: 20198787 heartbeat IPC: 1.98023 cumulative IPC: 1.98032 (Simulation time: 4 hr 49 min 40 sec) 
 Total Blocks : 196608 Invalid Blocks : 0 Valid Blocks : 196608
 Total Tags : 491520 Threshold : 12288 Invalid Tags : 196611 Pr0 Tags : 98301 Pr1 Tags : 196608 num_pr0 : 12287
 SAE Count : 0
 Inter-Core Inteference in Data Store : 3601545
Heartbeat CPU 6 instructions: 40000000 cycles: 20198799 heartbeat IPC: 1.98023 cumulative IPC: 1.98032 (Simulation time: 4 hr 49 min 40 sec) 
 Total Blocks : 196608 Invalid Blocks : 0 Valid Blocks : 196608
 Total Tags : 491520 Threshold : 12288 Invalid Tags : 196611 Pr0 Tags : 98301 Pr1 Tags : 196608 num_pr0 : 12287
 SAE Count : 0
 Inter-Core Inteference in Data Store : 3601547
Heartbeat CPU 7 instructions: 40000000 cycles: 20198815 heartbeat IPC: 1.98023 cumulative IPC: 1.98031 (Simulation time: 4 hr 49 min 40 sec) 
 Total Blocks : 196608 Invalid Blocks : 0 Valid Blocks : 196608
 Total Tags : 491520 Threshold : 12288 Invalid Tags : 196612 Pr0 Tags : 98300 Pr1 Tags : 196608 num_pr0 : 12287
 SAE Count : 0
 Inter-Core Inteference in Data Store : 3601549
Heartbeat CPU 0 instructions: 50000001 cycles: 27403976 heartbeat IPC: 1.38786 cumulative IPC: 1.82455 (Simulation time: 6 hr 26 min 9 sec) 
 Total Blocks : 196608 Invalid Blocks : 0 Valid Blocks : 196608
 Total Tags : 491520 Threshold : 12288 Invalid Tags : 196608 Pr0 Tags : 98304 Pr1 Tags : 196608 num_pr0 : 12288
 SAE Count : 0
 Inter-Core Inteference in Data Store : 3885935
Heartbeat CPU 1 instructions: 50000001 cycles: 27403995 heartbeat IPC: 1.38786 cumulative IPC: 1.82455 (Simulation time: 6 hr 26 min 10 sec) 
 Total Blocks : 196608 Invalid Blocks : 0 Valid Blocks : 196608
 Total Tags : 491520 Threshold : 12288 Invalid Tags : 196608 Pr0 Tags : 98304 Pr1 Tags : 196608 num_pr0 : 12288
 SAE Count : 0
 Inter-Core Inteference in Data Store : 3885935
Heartbeat CPU 2 instructions: 50000001 cycles: 27404063 heartbeat IPC: 1.38786 cumulative IPC: 1.82455 (Simulation time: 6 hr 26 min 10 sec) 
 Total Blocks : 196608 Invalid Blocks : 0 Valid Blocks : 196608
 Total Tags : 491520 Threshold : 12288 Invalid Tags : 196608 Pr0 Tags : 98304 Pr1 Tags : 196608 num_pr0 : 12288
 SAE Count : 0
 Inter-Core Inteference in Data Store : 3885935
Heartbeat CPU 3 instructions: 50000001 cycles: 27404078 heartbeat IPC: 1.38786 cumulative IPC: 1.82455 (Simulation time: 6 hr 26 min 10 sec) 
 Total Blocks : 196608 Invalid Blocks : 0 Valid Blocks : 196608
 Total Tags : 491520 Threshold : 12288 Invalid Tags : 196608 Pr0 Tags : 98304 Pr1 Tags : 196608 num_pr0 : 12288
 SAE Count : 0
 Inter-Core Inteference in Data Store : 3885935
Heartbeat CPU 4 instructions: 50000001 cycles: 27404088 heartbeat IPC: 1.38786 cumulative IPC: 1.82455 (Simulation time: 6 hr 26 min 10 sec) 
 Total Blocks : 196608 Invalid Blocks : 0 Valid Blocks : 196608
 Total Tags : 491520 Threshold : 12288 Invalid Tags : 196608 Pr0 Tags : 98304 Pr1 Tags : 196608 num_pr0 : 12288
 SAE Count : 0
 Inter-Core Inteference in Data Store : 3885935
Heartbeat CPU 5 instructions: 50000001 cycles: 27404100 heartbeat IPC: 1.38786 cumulative IPC: 1.82454 (Simulation time: 6 hr 26 min 10 sec) 
 Total Blocks : 196608 Invalid Blocks : 0 Valid Blocks : 196608
 Total Tags : 491520 Threshold : 12288 Invalid Tags : 196608 Pr0 Tags : 98304 Pr1 Tags : 196608 num_pr0 : 12288
 SAE Count : 0
 Inter-Core Inteference in Data Store : 3885935
Heartbeat CPU 6 instructions: 50000001 cycles: 27404112 heartbeat IPC: 1.38786 cumulative IPC: 1.82454 (Simulation time: 6 hr 26 min 10 sec) 
 Total Blocks : 196608 Invalid Blocks : 0 Valid Blocks : 196608
 Total Tags : 491520 Threshold : 12288 Invalid Tags : 196608 Pr0 Tags : 98304 Pr1 Tags : 196608 num_pr0 : 12288
 SAE Count : 0
 Inter-Core Inteference in Data Store : 3885935
Heartbeat CPU 7 instructions: 50000001 cycles: 27404136 heartbeat IPC: 1.38786 cumulative IPC: 1.82454 (Simulation time: 6 hr 26 min 10 sec) 
 Total Blocks : 196608 Invalid Blocks : 0 Valid Blocks : 196608
 Total Tags : 491520 Threshold : 12288 Invalid Tags : 196608 Pr0 Tags : 98304 Pr1 Tags : 196608 num_pr0 : 12288
 SAE Count : 0
 Inter-Core Inteference in Data Store : 3885935
Heartbeat CPU 0 instructions: 60000002 cycles: 35519431 heartbeat IPC: 1.23222 cumulative IPC: 1.68922 (Simulation time: 7 hr 55 min 47 sec) 
 Total Blocks : 196608 Invalid Blocks : 0 Valid Blocks : 196608
 Total Tags : 491520 Threshold : 12288 Invalid Tags : 196608 Pr0 Tags : 98304 Pr1 Tags : 196608 num_pr0 : 12288
 SAE Count : 0
 Inter-Core Inteference in Data Store : 3885935
Heartbeat CPU 1 instructions: 60000002 cycles: 35519450 heartbeat IPC: 1.23222 cumulative IPC: 1.68922 (Simulation time: 7 hr 55 min 47 sec) 
 Total Blocks : 196608 Invalid Blocks : 0 Valid Blocks : 196608
 Total Tags : 491520 Threshold : 12288 Invalid Tags : 196608 Pr0 Tags : 98304 Pr1 Tags : 196608 num_pr0 : 12288
 SAE Count : 0
 Inter-Core Inteference in Data Store : 3885935
Heartbeat CPU 2 instructions: 60000002 cycles: 35519518 heartbeat IPC: 1.23222 cumulative IPC: 1.68921 (Simulation time: 7 hr 55 min 47 sec) 
 Total Blocks : 196608 Invalid Blocks : 0 Valid Blocks : 196608
 Total Tags : 491520 Threshold : 12288 Invalid Tags : 196608 Pr0 Tags : 98304 Pr1 Tags : 196608 num_pr0 : 12288
 SAE Count : 0
 Inter-Core Inteference in Data Store : 3885935
Heartbeat CPU 3 instructions: 60000002 cycles: 35519533 heartbeat IPC: 1.23222 cumulative IPC: 1.68921 (Simulation time: 7 hr 55 min 47 sec) 
 Total Blocks : 196608 Invalid Blocks : 0 Valid Blocks : 196608
 Total Tags : 491520 Threshold : 12288 Invalid Tags : 196608 Pr0 Tags : 98304 Pr1 Tags : 196608 num_pr0 : 12288
 SAE Count : 0
 Inter-Core Inteference in Data Store : 3885935
Heartbeat CPU 4 instructions: 60000002 cycles: 35519543 heartbeat IPC: 1.23222 cumulative IPC: 1.68921 (Simulation time: 7 hr 55 min 47 sec) 
 Total Blocks : 196608 Invalid Blocks : 0 Valid Blocks : 196608
 Total Tags : 491520 Threshold : 12288 Invalid Tags : 196608 Pr0 Tags : 98304 Pr1 Tags : 196608 num_pr0 : 12288
 SAE Count : 0
 Inter-Core Inteference in Data Store : 3885935
Heartbeat CPU 5 instructions: 60000002 cycles: 35519555 heartbeat IPC: 1.23222 cumulative IPC: 1.68921 (Simulation time: 7 hr 55 min 47 sec) 
 Total Blocks : 196608 Invalid Blocks : 0 Valid Blocks : 196608
 Total Tags : 491520 Threshold : 12288 Invalid Tags : 196608 Pr0 Tags : 98304 Pr1 Tags : 196608 num_pr0 : 12288
 SAE Count : 0
 Inter-Core Inteference in Data Store : 3885935
Heartbeat CPU 6 instructions: 60000002 cycles: 35519567 heartbeat IPC: 1.23222 cumulative IPC: 1.68921 (Simulation time: 7 hr 55 min 47 sec) 
 Total Blocks : 196608 Invalid Blocks : 0 Valid Blocks : 196608
 Total Tags : 491520 Threshold : 12288 Invalid Tags : 196608 Pr0 Tags : 98304 Pr1 Tags : 196608 num_pr0 : 12288
 SAE Count : 0
 Inter-Core Inteference in Data Store : 3885935
Heartbeat CPU 7 instructions: 60000002 cycles: 35519591 heartbeat IPC: 1.23222 cumulative IPC: 1.68921 (Simulation time: 7 hr 55 min 47 sec) 
 Total Blocks : 196608 Invalid Blocks : 0 Valid Blocks : 196608
 Total Tags : 491520 Threshold : 12288 Invalid Tags : 196608 Pr0 Tags : 98304 Pr1 Tags : 196608 num_pr0 : 12288
 SAE Count : 0
 Inter-Core Inteference in Data Store : 3885935
Heartbeat CPU 0 instructions: 70000000 cycles: 43635024 heartbeat IPC: 1.2322 cumulative IPC: 1.60422 (Simulation time: 9 hr 29 min 50 sec) 
 Total Blocks : 196608 Invalid Blocks : 0 Valid Blocks : 196608
 Total Tags : 491520 Threshold : 12288 Invalid Tags : 196608 Pr0 Tags : 98304 Pr1 Tags : 196608 num_pr0 : 12288
 SAE Count : 0
 Inter-Core Inteference in Data Store : 3885935
Heartbeat CPU 1 instructions: 70000000 cycles: 43635043 heartbeat IPC: 1.2322 cumulative IPC: 1.60422 (Simulation time: 9 hr 29 min 50 sec) 
 Total Blocks : 196608 Invalid Blocks : 0 Valid Blocks : 196608
 Total Tags : 491520 Threshold : 12288 Invalid Tags : 196608 Pr0 Tags : 98304 Pr1 Tags : 196608 num_pr0 : 12288
 SAE Count : 0
 Inter-Core Inteference in Data Store : 3885935
Heartbeat CPU 2 instructions: 70000000 cycles: 43635111 heartbeat IPC: 1.2322 cumulative IPC: 1.60421 (Simulation time: 9 hr 29 min 50 sec) 
 Total Blocks : 196608 Invalid Blocks : 0 Valid Blocks : 196608
 Total Tags : 491520 Threshold : 12288 Invalid Tags : 196608 Pr0 Tags : 98304 Pr1 Tags : 196608 num_pr0 : 12288
 SAE Count : 0
 Inter-Core Inteference in Data Store : 3885935
Heartbeat CPU 3 instructions: 70000000 cycles: 43635126 heartbeat IPC: 1.2322 cumulative IPC: 1.60421 (Simulation time: 9 hr 29 min 50 sec) 
 Total Blocks : 196608 Invalid Blocks : 0 Valid Blocks : 196608
 Total Tags : 491520 Threshold : 12288 Invalid Tags : 196608 Pr0 Tags : 98304 Pr1 Tags : 196608 num_pr0 : 12288
 SAE Count : 0
 Inter-Core Inteference in Data Store : 3885935
Heartbeat CPU 4 instructions: 70000000 cycles: 43635136 heartbeat IPC: 1.2322 cumulative IPC: 1.60421 (Simulation time: 9 hr 29 min 50 sec) 
 Total Blocks : 196608 Invalid Blocks : 0 Valid Blocks : 196608
 Total Tags : 491520 Threshold : 12288 Invalid Tags : 196608 Pr0 Tags : 98304 Pr1 Tags : 196608 num_pr0 : 12288
 SAE Count : 0
 Inter-Core Inteference in Data Store : 3885935
Heartbeat CPU 5 instructions: 70000000 cycles: 43635148 heartbeat IPC: 1.2322 cumulative IPC: 1.60421 (Simulation time: 9 hr 29 min 50 sec) 
 Total Blocks : 196608 Invalid Blocks : 0 Valid Blocks : 196608
 Total Tags : 491520 Threshold : 12288 Invalid Tags : 196608 Pr0 Tags : 98304 Pr1 Tags : 196608 num_pr0 : 12288
 SAE Count : 0
 Inter-Core Inteference in Data Store : 3885935
Heartbeat CPU 6 instructions: 70000000 cycles: 43635160 heartbeat IPC: 1.2322 cumulative IPC: 1.60421 (Simulation time: 9 hr 29 min 50 sec) 
 Total Blocks : 196608 Invalid Blocks : 0 Valid Blocks : 196608
 Total Tags : 491520 Threshold : 12288 Invalid Tags : 196608 Pr0 Tags : 98304 Pr1 Tags : 196608 num_pr0 : 12288
 SAE Count : 0
 Inter-Core Inteference in Data Store : 3885935
Heartbeat CPU 7 instructions: 70000000 cycles: 43635184 heartbeat IPC: 1.2322 cumulative IPC: 1.60421 (Simulation time: 9 hr 29 min 50 sec) 
 Total Blocks : 196608 Invalid Blocks : 0 Valid Blocks : 196608
 Total Tags : 491520 Threshold : 12288 Invalid Tags : 196608 Pr0 Tags : 98304 Pr1 Tags : 196608 num_pr0 : 12288
 SAE Count : 0
 Inter-Core Inteference in Data Store : 3885935
Heartbeat CPU 0 instructions: 80000001 cycles: 51750426 heartbeat IPC: 1.23222 cumulative IPC: 1.54588 (Simulation time: 11 hr 12 min 26 sec) 
 Total Blocks : 196608 Invalid Blocks : 0 Valid Blocks : 196608
 Total Tags : 491520 Threshold : 12288 Invalid Tags : 196608 Pr0 Tags : 98304 Pr1 Tags : 196608 num_pr0 : 12288
 SAE Count : 0
 Inter-Core Inteference in Data Store : 3885935
Heartbeat CPU 1 instructions: 80000001 cycles: 51750445 heartbeat IPC: 1.23222 cumulative IPC: 1.54588 (Simulation time: 11 hr 12 min 26 sec) 
 Total Blocks : 196608 Invalid Blocks : 0 Valid Blocks : 196608
 Total Tags : 491520 Threshold : 12288 Invalid Tags : 196608 Pr0 Tags : 98304 Pr1 Tags : 196608 num_pr0 : 12288
 SAE Count : 0
 Inter-Core Inteference in Data Store : 3885935
Heartbeat CPU 2 instructions: 80000001 cycles: 51750513 heartbeat IPC: 1.23222 cumulative IPC: 1.54588 (Simulation time: 11 hr 12 min 26 sec) 
 Total Blocks : 196608 Invalid Blocks : 0 Valid Blocks : 196608
 Total Tags : 491520 Threshold : 12288 Invalid Tags : 196608 Pr0 Tags : 98304 Pr1 Tags : 196608 num_pr0 : 12288
 SAE Count : 0
 Inter-Core Inteference in Data Store : 3885935
Heartbeat CPU 3 instructions: 80000001 cycles: 51750528 heartbeat IPC: 1.23222 cumulative IPC: 1.54588 (Simulation time: 11 hr 12 min 26 sec) 
 Total Blocks : 196608 Invalid Blocks : 0 Valid Blocks : 196608
 Total Tags : 491520 Threshold : 12288 Invalid Tags : 196608 Pr0 Tags : 98304 Pr1 Tags : 196608 num_pr0 : 12288
 SAE Count : 0
 Inter-Core Inteference in Data Store : 3885935
Heartbeat CPU 4 instructions: 80000001 cycles: 51750538 heartbeat IPC: 1.23222 cumulative IPC: 1.54588 (Simulation time: 11 hr 12 min 26 sec) 
 Total Blocks : 196608 Invalid Blocks : 0 Valid Blocks : 196608
 Total Tags : 491520 Threshold : 12288 Invalid Tags : 196608 Pr0 Tags : 98304 Pr1 Tags : 196608 num_pr0 : 12288
 SAE Count : 0
 Inter-Core Inteference in Data Store : 3885935
Heartbeat CPU 5 instructions: 80000001 cycles: 51750550 heartbeat IPC: 1.23222 cumulative IPC: 1.54588 (Simulation time: 11 hr 12 min 27 sec) 
 Total Blocks : 196608 Invalid Blocks : 0 Valid Blocks : 196608
 Total Tags : 491520 Threshold : 12288 Invalid Tags : 196608 Pr0 Tags : 98304 Pr1 Tags : 196608 num_pr0 : 12288
 SAE Count : 0
 Inter-Core Inteference in Data Store : 3885935
Heartbeat CPU 6 instructions: 80000001 cycles: 51750562 heartbeat IPC: 1.23222 cumulative IPC: 1.54588 (Simulation time: 11 hr 12 min 27 sec) 
 Total Blocks : 196608 Invalid Blocks : 0 Valid Blocks : 196608
 Total Tags : 491520 Threshold : 12288 Invalid Tags : 196608 Pr0 Tags : 98304 Pr1 Tags : 196608 num_pr0 : 12288
 SAE Count : 0
 Inter-Core Inteference in Data Store : 3885935
Heartbeat CPU 7 instructions: 80000001 cycles: 51750586 heartbeat IPC: 1.23222 cumulative IPC: 1.54588 (Simulation time: 11 hr 12 min 27 sec) 
 Total Blocks : 196608 Invalid Blocks : 0 Valid Blocks : 196608
 Total Tags : 491520 Threshold : 12288 Invalid Tags : 196608 Pr0 Tags : 98304 Pr1 Tags : 196608 num_pr0 : 12288
 SAE Count : 0
 Inter-Core Inteference in Data Store : 3885935
Heartbeat CPU 0 instructions: 90000000 cycles: 59865868 heartbeat IPC: 1.23222 cumulative IPC: 1.50336 (Simulation time: 13 hr 3 min 27 sec) 
 Total Blocks : 196608 Invalid Blocks : 0 Valid Blocks : 196608
 Total Tags : 491520 Threshold : 12288 Invalid Tags : 196608 Pr0 Tags : 98304 Pr1 Tags : 196608 num_pr0 : 12288
 SAE Count : 0
 Inter-Core Inteference in Data Store : 3885935
Heartbeat CPU 1 instructions: 90000000 cycles: 59865887 heartbeat IPC: 1.23222 cumulative IPC: 1.50336 (Simulation time: 13 hr 3 min 27 sec) 
 Total Blocks : 196608 Invalid Blocks : 0 Valid Blocks : 196608
 Total Tags : 491520 Threshold : 12288 Invalid Tags : 196608 Pr0 Tags : 98304 Pr1 Tags : 196608 num_pr0 : 12288
 SAE Count : 0
 Inter-Core Inteference in Data Store : 3885935
Heartbeat CPU 2 instructions: 90000000 cycles: 59865955 heartbeat IPC: 1.23222 cumulative IPC: 1.50336 (Simulation time: 13 hr 3 min 28 sec) 
 Total Blocks : 196608 Invalid Blocks : 0 Valid Blocks : 196608
 Total Tags : 491520 Threshold : 12288 Invalid Tags : 196608 Pr0 Tags : 98304 Pr1 Tags : 196608 num_pr0 : 12288
 SAE Count : 0
 Inter-Core Inteference in Data Store : 3885935
Heartbeat CPU 3 instructions: 90000000 cycles: 59865970 heartbeat IPC: 1.23222 cumulative IPC: 1.50336 (Simulation time: 13 hr 3 min 28 sec) 
 Total Blocks : 196608 Invalid Blocks : 0 Valid Blocks : 196608
 Total Tags : 491520 Threshold : 12288 Invalid Tags : 196608 Pr0 Tags : 98304 Pr1 Tags : 196608 num_pr0 : 12288
 SAE Count : 0
 Inter-Core Inteference in Data Store : 3885935
Heartbeat CPU 4 instructions: 90000000 cycles: 59865980 heartbeat IPC: 1.23222 cumulative IPC: 1.50336 (Simulation time: 13 hr 3 min 29 sec) 
 Total Blocks : 196608 Invalid Blocks : 0 Valid Blocks : 196608
 Total Tags : 491520 Threshold : 12288 Invalid Tags : 196608 Pr0 Tags : 98304 Pr1 Tags : 196608 num_pr0 : 12288
 SAE Count : 0
 Inter-Core Inteference in Data Store : 3885935
Heartbeat CPU 5 instructions: 90000000 cycles: 59865992 heartbeat IPC: 1.23222 cumulative IPC: 1.50336 (Simulation time: 13 hr 3 min 29 sec) 
 Total Blocks : 196608 Invalid Blocks : 0 Valid Blocks : 196608
 Total Tags : 491520 Threshold : 12288 Invalid Tags : 196608 Pr0 Tags : 98304 Pr1 Tags : 196608 num_pr0 : 12288
 SAE Count : 0
 Inter-Core Inteference in Data Store : 3885935
Heartbeat CPU 6 instructions: 90000000 cycles: 59866004 heartbeat IPC: 1.23222 cumulative IPC: 1.50336 (Simulation time: 13 hr 3 min 29 sec) 
 Total Blocks : 196608 Invalid Blocks : 0 Valid Blocks : 196608
 Total Tags : 491520 Threshold : 12288 Invalid Tags : 196608 Pr0 Tags : 98304 Pr1 Tags : 196608 num_pr0 : 12288
 SAE Count : 0
 Inter-Core Inteference in Data Store : 3885935
Heartbeat CPU 7 instructions: 90000000 cycles: 59866028 heartbeat IPC: 1.23222 cumulative IPC: 1.50336 (Simulation time: 13 hr 3 min 29 sec) 
 Total Blocks : 196608 Invalid Blocks : 0 Valid Blocks : 196608
 Total Tags : 491520 Threshold : 12288 Invalid Tags : 196608 Pr0 Tags : 98304 Pr1 Tags : 196608 num_pr0 : 12288
 SAE Count : 0
 Inter-Core Inteference in Data Store : 3885935
Heartbeat CPU 0 instructions: 100000000 cycles: 67981367 heartbeat IPC: 1.23221 cumulative IPC: 1.47099 (Simulation time: 14 hr 56 min 14 sec) 
 Total Blocks : 196608 Invalid Blocks : 0 Valid Blocks : 196608
 Total Tags : 491520 Threshold : 12288 Invalid Tags : 196608 Pr0 Tags : 98304 Pr1 Tags : 196608 num_pr0 : 12288
 SAE Count : 0
 Inter-Core Inteference in Data Store : 3885935
Heartbeat CPU 1 instructions: 100000000 cycles: 67981386 heartbeat IPC: 1.23221 cumulative IPC: 1.47099 (Simulation time: 14 hr 56 min 14 sec) 
 Total Blocks : 196608 Invalid Blocks : 0 Valid Blocks : 196608
 Total Tags : 491520 Threshold : 12288 Invalid Tags : 196608 Pr0 Tags : 98304 Pr1 Tags : 196608 num_pr0 : 12288
 SAE Count : 0
 Inter-Core Inteference in Data Store : 3885935
Heartbeat CPU 2 instructions: 100000000 cycles: 67981454 heartbeat IPC: 1.23221 cumulative IPC: 1.47099 (Simulation time: 14 hr 56 min 14 sec) 
 Total Blocks : 196608 Invalid Blocks : 0 Valid Blocks : 196608
 Total Tags : 491520 Threshold : 12288 Invalid Tags : 196608 Pr0 Tags : 98304 Pr1 Tags : 196608 num_pr0 : 12288
 SAE Count : 0
 Inter-Core Inteference in Data Store : 3885935
Heartbeat CPU 3 instructions: 100000000 cycles: 67981469 heartbeat IPC: 1.23221 cumulative IPC: 1.47099 (Simulation time: 14 hr 56 min 14 sec) 
 Total Blocks : 196608 Invalid Blocks : 0 Valid Blocks : 196608
 Total Tags : 491520 Threshold : 12288 Invalid Tags : 196608 Pr0 Tags : 98304 Pr1 Tags : 196608 num_pr0 : 12288
 SAE Count : 0
 Inter-Core Inteference in Data Store : 3885935
Heartbeat CPU 4 instructions: 100000000 cycles: 67981479 heartbeat IPC: 1.23221 cumulative IPC: 1.47099 (Simulation time: 14 hr 56 min 14 sec) 
 Total Blocks : 196608 Invalid Blocks : 0 Valid Blocks : 196608
 Total Tags : 491520 Threshold : 12288 Invalid Tags : 196608 Pr0 Tags : 98304 Pr1 Tags : 196608 num_pr0 : 12288
 SAE Count : 0
 Inter-Core Inteference in Data Store : 3885935
Heartbeat CPU 5 instructions: 100000000 cycles: 67981491 heartbeat IPC: 1.23221 cumulative IPC: 1.47099 (Simulation time: 14 hr 56 min 14 sec) 
 Total Blocks : 196608 Invalid Blocks : 0 Valid Blocks : 196608
 Total Tags : 491520 Threshold : 12288 Invalid Tags : 196608 Pr0 Tags : 98304 Pr1 Tags : 196608 num_pr0 : 12288
 SAE Count : 0
 Inter-Core Inteference in Data Store : 3885935
Heartbeat CPU 6 instructions: 100000000 cycles: 67981503 heartbeat IPC: 1.23221 cumulative IPC: 1.47099 (Simulation time: 14 hr 56 min 14 sec) 
 Total Blocks : 196608 Invalid Blocks : 0 Valid Blocks : 196608
 Total Tags : 491520 Threshold : 12288 Invalid Tags : 196608 Pr0 Tags : 98304 Pr1 Tags : 196608 num_pr0 : 12288
 SAE Count : 0
 Inter-Core Inteference in Data Store : 3885935
Heartbeat CPU 7 instructions: 100000000 cycles: 67981527 heartbeat IPC: 1.23221 cumulative IPC: 1.47099 (Simulation time: 14 hr 56 min 14 sec) 
 Total Blocks : 196608 Invalid Blocks : 0 Valid Blocks : 196608
 Total Tags : 491520 Threshold : 12288 Invalid Tags : 196608 Pr0 Tags : 98304 Pr1 Tags : 196608 num_pr0 : 12288
 SAE Count : 0
 Inter-Core Inteference in Data Store : 3885935
Heartbeat CPU 0 instructions: 110000000 cycles: 76096960 heartbeat IPC: 1.2322 cumulative IPC: 1.44552 (Simulation time: 16 hr 47 min 55 sec) 
 Total Blocks : 196608 Invalid Blocks : 0 Valid Blocks : 196608
 Total Tags : 491520 Threshold : 12288 Invalid Tags : 196608 Pr0 Tags : 98304 Pr1 Tags : 196608 num_pr0 : 12288
 SAE Count : 0
 Inter-Core Inteference in Data Store : 3885935
Heartbeat CPU 1 instructions: 110000000 cycles: 76096979 heartbeat IPC: 1.2322 cumulative IPC: 1.44552 (Simulation time: 16 hr 47 min 55 sec) 
 Total Blocks : 196608 Invalid Blocks : 0 Valid Blocks : 196608
 Total Tags : 491520 Threshold : 12288 Invalid Tags : 196608 Pr0 Tags : 98304 Pr1 Tags : 196608 num_pr0 : 12288
 SAE Count : 0
 Inter-Core Inteference in Data Store : 3885935
Heartbeat CPU 2 instructions: 110000000 cycles: 76097047 heartbeat IPC: 1.2322 cumulative IPC: 1.44552 (Simulation time: 16 hr 47 min 55 sec) 
 Total Blocks : 196608 Invalid Blocks : 0 Valid Blocks : 196608
 Total Tags : 491520 Threshold : 12288 Invalid Tags : 196608 Pr0 Tags : 98304 Pr1 Tags : 196608 num_pr0 : 12288
 SAE Count : 0
 Inter-Core Inteference in Data Store : 3885935
Heartbeat CPU 3 instructions: 110000000 cycles: 76097062 heartbeat IPC: 1.2322 cumulative IPC: 1.44552 (Simulation time: 16 hr 47 min 55 sec) 
 Total Blocks : 196608 Invalid Blocks : 0 Valid Blocks : 196608
 Total Tags : 491520 Threshold : 12288 Invalid Tags : 196608 Pr0 Tags : 98304 Pr1 Tags : 196608 num_pr0 : 12288
 SAE Count : 0
 Inter-Core Inteference in Data Store : 3885935
Heartbeat CPU 4 instructions: 110000000 cycles: 76097072 heartbeat IPC: 1.2322 cumulative IPC: 1.44552 (Simulation time: 16 hr 47 min 55 sec) 
 Total Blocks : 196608 Invalid Blocks : 0 Valid Blocks : 196608
 Total Tags : 491520 Threshold : 12288 Invalid Tags : 196608 Pr0 Tags : 98304 Pr1 Tags : 196608 num_pr0 : 12288
 SAE Count : 0
 Inter-Core Inteference in Data Store : 3885935
Heartbeat CPU 5 instructions: 110000000 cycles: 76097084 heartbeat IPC: 1.2322 cumulative IPC: 1.44552 (Simulation time: 16 hr 47 min 55 sec) 
 Total Blocks : 196608 Invalid Blocks : 0 Valid Blocks : 196608
 Total Tags : 491520 Threshold : 12288 Invalid Tags : 196608 Pr0 Tags : 98304 Pr1 Tags : 196608 num_pr0 : 12288
 SAE Count : 0
 Inter-Core Inteference in Data Store : 3885935
Heartbeat CPU 6 instructions: 110000000 cycles: 76097096 heartbeat IPC: 1.2322 cumulative IPC: 1.44552 (Simulation time: 16 hr 47 min 55 sec) 
 Total Blocks : 196608 Invalid Blocks : 0 Valid Blocks : 196608
 Total Tags : 491520 Threshold : 12288 Invalid Tags : 196608 Pr0 Tags : 98304 Pr1 Tags : 196608 num_pr0 : 12288
 SAE Count : 0
 Inter-Core Inteference in Data Store : 3885935
Heartbeat CPU 7 instructions: 110000000 cycles: 76097120 heartbeat IPC: 1.2322 cumulative IPC: 1.44552 (Simulation time: 16 hr 47 min 55 sec) 
 Total Blocks : 196608 Invalid Blocks : 0 Valid Blocks : 196608
 Total Tags : 491520 Threshold : 12288 Invalid Tags : 196608 Pr0 Tags : 98304 Pr1 Tags : 196608 num_pr0 : 12288
 SAE Count : 0
 Inter-Core Inteference in Data Store : 3885935
Heartbeat CPU 0 instructions: 120000000 cycles: 84212334 heartbeat IPC: 1.23223 cumulative IPC: 1.42497 (Simulation time: 18 hr 41 min 3 sec) 
 Total Blocks : 196608 Invalid Blocks : 0 Valid Blocks : 196608
 Total Tags : 491520 Threshold : 12288 Invalid Tags : 196608 Pr0 Tags : 98304 Pr1 Tags : 196608 num_pr0 : 12288
 SAE Count : 0
 Inter-Core Inteference in Data Store : 3885935
Heartbeat CPU 1 instructions: 120000000 cycles: 84212353 heartbeat IPC: 1.23223 cumulative IPC: 1.42497 (Simulation time: 18 hr 41 min 3 sec) 
 Total Blocks : 196608 Invalid Blocks : 0 Valid Blocks : 196608
 Total Tags : 491520 Threshold : 12288 Invalid Tags : 196608 Pr0 Tags : 98304 Pr1 Tags : 196608 num_pr0 : 12288
 SAE Count : 0
 Inter-Core Inteference in Data Store : 3885935
Heartbeat CPU 2 instructions: 120000000 cycles: 84212421 heartbeat IPC: 1.23223 cumulative IPC: 1.42497 (Simulation time: 18 hr 41 min 3 sec) 
 Total Blocks : 196608 Invalid Blocks : 0 Valid Blocks : 196608
 Total Tags : 491520 Threshold : 12288 Invalid Tags : 196608 Pr0 Tags : 98304 Pr1 Tags : 196608 num_pr0 : 12288
 SAE Count : 0
 Inter-Core Inteference in Data Store : 3885935
Heartbeat CPU 3 instructions: 120000000 cycles: 84212436 heartbeat IPC: 1.23223 cumulative IPC: 1.42497 (Simulation time: 18 hr 41 min 3 sec) 
 Total Blocks : 196608 Invalid Blocks : 0 Valid Blocks : 196608
 Total Tags : 491520 Threshold : 12288 Invalid Tags : 196608 Pr0 Tags : 98304 Pr1 Tags : 196608 num_pr0 : 12288
 SAE Count : 0
 Inter-Core Inteference in Data Store : 3885935
Heartbeat CPU 4 instructions: 120000000 cycles: 84212446 heartbeat IPC: 1.23223 cumulative IPC: 1.42497 (Simulation time: 18 hr 41 min 3 sec) 
 Total Blocks : 196608 Invalid Blocks : 0 Valid Blocks : 196608
 Total Tags : 491520 Threshold : 12288 Invalid Tags : 196608 Pr0 Tags : 98304 Pr1 Tags : 196608 num_pr0 : 12288
 SAE Count : 0
 Inter-Core Inteference in Data Store : 3885935
Heartbeat CPU 5 instructions: 120000000 cycles: 84212458 heartbeat IPC: 1.23223 cumulative IPC: 1.42497 (Simulation time: 18 hr 41 min 3 sec) 
 Total Blocks : 196608 Invalid Blocks : 0 Valid Blocks : 196608
 Total Tags : 491520 Threshold : 12288 Invalid Tags : 196608 Pr0 Tags : 98304 Pr1 Tags : 196608 num_pr0 : 12288
 SAE Count : 0
 Inter-Core Inteference in Data Store : 3885935
Heartbeat CPU 6 instructions: 120000000 cycles: 84212470 heartbeat IPC: 1.23223 cumulative IPC: 1.42497 (Simulation time: 18 hr 41 min 4 sec) 
 Total Blocks : 196608 Invalid Blocks : 0 Valid Blocks : 196608
 Total Tags : 491520 Threshold : 12288 Invalid Tags : 196608 Pr0 Tags : 98304 Pr1 Tags : 196608 num_pr0 : 12288
 SAE Count : 0
 Inter-Core Inteference in Data Store : 3885935
Heartbeat CPU 7 instructions: 120000000 cycles: 84212494 heartbeat IPC: 1.23223 cumulative IPC: 1.42497 (Simulation time: 18 hr 41 min 4 sec) 
 Total Blocks : 196608 Invalid Blocks : 0 Valid Blocks : 196608
 Total Tags : 491520 Threshold : 12288 Invalid Tags : 196608 Pr0 Tags : 98304 Pr1 Tags : 196608 num_pr0 : 12288
 SAE Count : 0
 Inter-Core Inteference in Data Store : 3885935
Heartbeat CPU 0 instructions: 130000001 cycles: 92327823 heartbeat IPC: 1.23221 cumulative IPC: 1.40803 (Simulation time: 20 hr 32 min 11 sec) 
 Total Blocks : 196608 Invalid Blocks : 0 Valid Blocks : 196608
 Total Tags : 491520 Threshold : 12288 Invalid Tags : 196608 Pr0 Tags : 98304 Pr1 Tags : 196608 num_pr0 : 12288
 SAE Count : 0
 Inter-Core Inteference in Data Store : 3885935
Heartbeat CPU 1 instructions: 130000001 cycles: 92327842 heartbeat IPC: 1.23221 cumulative IPC: 1.40803 (Simulation time: 20 hr 32 min 11 sec) 
 Total Blocks : 196608 Invalid Blocks : 0 Valid Blocks : 196608
 Total Tags : 491520 Threshold : 12288 Invalid Tags : 196608 Pr0 Tags : 98304 Pr1 Tags : 196608 num_pr0 : 12288
 SAE Count : 0
 Inter-Core Inteference in Data Store : 3885935
Heartbeat CPU 2 instructions: 130000001 cycles: 92327910 heartbeat IPC: 1.23221 cumulative IPC: 1.40802 (Simulation time: 20 hr 32 min 11 sec) 
 Total Blocks : 196608 Invalid Blocks : 0 Valid Blocks : 196608
 Total Tags : 491520 Threshold : 12288 Invalid Tags : 196608 Pr0 Tags : 98304 Pr1 Tags : 196608 num_pr0 : 12288
 SAE Count : 0
 Inter-Core Inteference in Data Store : 3885935
Heartbeat CPU 3 instructions: 130000001 cycles: 92327925 heartbeat IPC: 1.23221 cumulative IPC: 1.40802 (Simulation time: 20 hr 32 min 12 sec) 
 Total Blocks : 196608 Invalid Blocks : 0 Valid Blocks : 196608
 Total Tags : 491520 Threshold : 12288 Invalid Tags : 196608 Pr0 Tags : 98304 Pr1 Tags : 196608 num_pr0 : 12288
 SAE Count : 0
 Inter-Core Inteference in Data Store : 3885935
Heartbeat CPU 4 instructions: 130000001 cycles: 92327935 heartbeat IPC: 1.23221 cumulative IPC: 1.40802 (Simulation time: 20 hr 32 min 12 sec) 
 Total Blocks : 196608 Invalid Blocks : 0 Valid Blocks : 196608
 Total Tags : 491520 Threshold : 12288 Invalid Tags : 196608 Pr0 Tags : 98304 Pr1 Tags : 196608 num_pr0 : 12288
 SAE Count : 0
 Inter-Core Inteference in Data Store : 3885935
Heartbeat CPU 5 instructions: 130000001 cycles: 92327947 heartbeat IPC: 1.23221 cumulative IPC: 1.40802 (Simulation time: 20 hr 32 min 12 sec) 
 Total Blocks : 196608 Invalid Blocks : 0 Valid Blocks : 196608
 Total Tags : 491520 Threshold : 12288 Invalid Tags : 196608 Pr0 Tags : 98304 Pr1 Tags : 196608 num_pr0 : 12288
 SAE Count : 0
 Inter-Core Inteference in Data Store : 3885935
Heartbeat CPU 6 instructions: 130000001 cycles: 92327959 heartbeat IPC: 1.23221 cumulative IPC: 1.40802 (Simulation time: 20 hr 32 min 12 sec) 
 Total Blocks : 196608 Invalid Blocks : 0 Valid Blocks : 196608
 Total Tags : 491520 Threshold : 12288 Invalid Tags : 196608 Pr0 Tags : 98304 Pr1 Tags : 196608 num_pr0 : 12288
 SAE Count : 0
 Inter-Core Inteference in Data Store : 3885935
Heartbeat CPU 7 instructions: 130000001 cycles: 92327983 heartbeat IPC: 1.23221 cumulative IPC: 1.40802 (Simulation time: 20 hr 32 min 12 sec) 
 Total Blocks : 196608 Invalid Blocks : 0 Valid Blocks : 196608
 Total Tags : 491520 Threshold : 12288 Invalid Tags : 196608 Pr0 Tags : 98304 Pr1 Tags : 196608 num_pr0 : 12288
 SAE Count : 0
 Inter-Core Inteference in Data Store : 3885935
Heartbeat CPU 0 instructions: 140000002 cycles: 100443356 heartbeat IPC: 1.23221 cumulative IPC: 1.39382 (Simulation time: 22 hr 22 min 26 sec) 
 Total Blocks : 196608 Invalid Blocks : 0 Valid Blocks : 196608
 Total Tags : 491520 Threshold : 12288 Invalid Tags : 196608 Pr0 Tags : 98304 Pr1 Tags : 196608 num_pr0 : 12288
 SAE Count : 0
 Inter-Core Inteference in Data Store : 3885935
Heartbeat CPU 1 instructions: 140000002 cycles: 100443375 heartbeat IPC: 1.23221 cumulative IPC: 1.39382 (Simulation time: 22 hr 22 min 26 sec) 
 Total Blocks : 196608 Invalid Blocks : 0 Valid Blocks : 196608
 Total Tags : 491520 Threshold : 12288 Invalid Tags : 196608 Pr0 Tags : 98304 Pr1 Tags : 196608 num_pr0 : 12288
 SAE Count : 0
 Inter-Core Inteference in Data Store : 3885935
Heartbeat CPU 2 instructions: 140000002 cycles: 100443443 heartbeat IPC: 1.23221 cumulative IPC: 1.39382 (Simulation time: 22 hr 22 min 26 sec) 
 Total Blocks : 196608 Invalid Blocks : 0 Valid Blocks : 196608
 Total Tags : 491520 Threshold : 12288 Invalid Tags : 196608 Pr0 Tags : 98304 Pr1 Tags : 196608 num_pr0 : 12288
 SAE Count : 0
 Inter-Core Inteference in Data Store : 3885935
Heartbeat CPU 3 instructions: 140000002 cycles: 100443458 heartbeat IPC: 1.23221 cumulative IPC: 1.39382 (Simulation time: 22 hr 22 min 26 sec) 
 Total Blocks : 196608 Invalid Blocks : 0 Valid Blocks : 196608
 Total Tags : 491520 Threshold : 12288 Invalid Tags : 196608 Pr0 Tags : 98304 Pr1 Tags : 196608 num_pr0 : 12288
 SAE Count : 0
 Inter-Core Inteference in Data Store : 3885935
Heartbeat CPU 4 instructions: 140000002 cycles: 100443468 heartbeat IPC: 1.23221 cumulative IPC: 1.39382 (Simulation time: 22 hr 22 min 26 sec) 
 Total Blocks : 196608 Invalid Blocks : 0 Valid Blocks : 196608
 Total Tags : 491520 Threshold : 12288 Invalid Tags : 196608 Pr0 Tags : 98304 Pr1 Tags : 196608 num_pr0 : 12288
 SAE Count : 0
 Inter-Core Inteference in Data Store : 3885935
Heartbeat CPU 5 instructions: 140000002 cycles: 100443480 heartbeat IPC: 1.23221 cumulative IPC: 1.39382 (Simulation time: 22 hr 22 min 26 sec) 
 Total Blocks : 196608 Invalid Blocks : 0 Valid Blocks : 196608
 Total Tags : 491520 Threshold : 12288 Invalid Tags : 196608 Pr0 Tags : 98304 Pr1 Tags : 196608 num_pr0 : 12288
 SAE Count : 0
 Inter-Core Inteference in Data Store : 3885935
Heartbeat CPU 6 instructions: 140000002 cycles: 100443492 heartbeat IPC: 1.23221 cumulative IPC: 1.39382 (Simulation time: 22 hr 22 min 26 sec) 
 Total Blocks : 196608 Invalid Blocks : 0 Valid Blocks : 196608
 Total Tags : 491520 Threshold : 12288 Invalid Tags : 196608 Pr0 Tags : 98304 Pr1 Tags : 196608 num_pr0 : 12288
 SAE Count : 0
 Inter-Core Inteference in Data Store : 3885935
Heartbeat CPU 7 instructions: 140000002 cycles: 100443516 heartbeat IPC: 1.23221 cumulative IPC: 1.39382 (Simulation time: 22 hr 22 min 26 sec) 
 Total Blocks : 196608 Invalid Blocks : 0 Valid Blocks : 196608
 Total Tags : 491520 Threshold : 12288 Invalid Tags : 196608 Pr0 Tags : 98304 Pr1 Tags : 196608 num_pr0 : 12288
 SAE Count : 0
 Inter-Core Inteference in Data Store : 3885935
Heartbeat CPU 0 instructions: 150000000 cycles: 108558867 heartbeat IPC: 1.23221 cumulative IPC: 1.38174 (Simulation time: 24 hr 15 min 39 sec) 
 Total Blocks : 196608 Invalid Blocks : 0 Valid Blocks : 196608
 Total Tags : 491520 Threshold : 12288 Invalid Tags : 196608 Pr0 Tags : 98304 Pr1 Tags : 196608 num_pr0 : 12288
 SAE Count : 0
 Inter-Core Inteference in Data Store : 3885935
Heartbeat CPU 1 instructions: 150000000 cycles: 108558886 heartbeat IPC: 1.23221 cumulative IPC: 1.38174 (Simulation time: 24 hr 15 min 39 sec) 
 Total Blocks : 196608 Invalid Blocks : 0 Valid Blocks : 196608
 Total Tags : 491520 Threshold : 12288 Invalid Tags : 196608 Pr0 Tags : 98304 Pr1 Tags : 196608 num_pr0 : 12288
 SAE Count : 0
 Inter-Core Inteference in Data Store : 3885935
Heartbeat CPU 2 instructions: 150000000 cycles: 108558954 heartbeat IPC: 1.23221 cumulative IPC: 1.38174 (Simulation time: 24 hr 15 min 39 sec) 
 Total Blocks : 196608 Invalid Blocks : 0 Valid Blocks : 196608
 Total Tags : 491520 Threshold : 12288 Invalid Tags : 196608 Pr0 Tags : 98304 Pr1 Tags : 196608 num_pr0 : 12288
 SAE Count : 0
 Inter-Core Inteference in Data Store : 3885935
Heartbeat CPU 3 instructions: 150000000 cycles: 108558969 heartbeat IPC: 1.23221 cumulative IPC: 1.38174 (Simulation time: 24 hr 15 min 39 sec) 
 Total Blocks : 196608 Invalid Blocks : 0 Valid Blocks : 196608
 Total Tags : 491520 Threshold : 12288 Invalid Tags : 196608 Pr0 Tags : 98304 Pr1 Tags : 196608 num_pr0 : 12288
 SAE Count : 0
 Inter-Core Inteference in Data Store : 3885935
Heartbeat CPU 4 instructions: 150000000 cycles: 108558979 heartbeat IPC: 1.23221 cumulative IPC: 1.38174 (Simulation time: 24 hr 15 min 39 sec) 
 Total Blocks : 196608 Invalid Blocks : 0 Valid Blocks : 196608
 Total Tags : 491520 Threshold : 12288 Invalid Tags : 196608 Pr0 Tags : 98304 Pr1 Tags : 196608 num_pr0 : 12288
 SAE Count : 0
 Inter-Core Inteference in Data Store : 3885935
Heartbeat CPU 5 instructions: 150000000 cycles: 108558991 heartbeat IPC: 1.23221 cumulative IPC: 1.38174 (Simulation time: 24 hr 15 min 39 sec) 
 Total Blocks : 196608 Invalid Blocks : 0 Valid Blocks : 196608
 Total Tags : 491520 Threshold : 12288 Invalid Tags : 196608 Pr0 Tags : 98304 Pr1 Tags : 196608 num_pr0 : 12288
 SAE Count : 0
 Inter-Core Inteference in Data Store : 3885935
Heartbeat CPU 6 instructions: 150000000 cycles: 108559003 heartbeat IPC: 1.23221 cumulative IPC: 1.38174 (Simulation time: 24 hr 15 min 40 sec) 
 Total Blocks : 196608 Invalid Blocks : 0 Valid Blocks : 196608
 Total Tags : 491520 Threshold : 12288 Invalid Tags : 196608 Pr0 Tags : 98304 Pr1 Tags : 196608 num_pr0 : 12288
 SAE Count : 0
 Inter-Core Inteference in Data Store : 3885935
Heartbeat CPU 7 instructions: 150000000 cycles: 108559027 heartbeat IPC: 1.23221 cumulative IPC: 1.38174 (Simulation time: 24 hr 15 min 40 sec) 
 Total Blocks : 196608 Invalid Blocks : 0 Valid Blocks : 196608
 Total Tags : 491520 Threshold : 12288 Invalid Tags : 196608 Pr0 Tags : 98304 Pr1 Tags : 196608 num_pr0 : 12288
 SAE Count : 0
 Inter-Core Inteference in Data Store : 3885935
Heartbeat CPU 0 instructions: 160000000 cycles: 116674295 heartbeat IPC: 1.23222 cumulative IPC: 1.37134 (Simulation time: 26 hr 8 min 33 sec) 
 Total Blocks : 196608 Invalid Blocks : 0 Valid Blocks : 196608
 Total Tags : 491520 Threshold : 12288 Invalid Tags : 196608 Pr0 Tags : 98304 Pr1 Tags : 196608 num_pr0 : 12288
 SAE Count : 0
 Inter-Core Inteference in Data Store : 3885935
Heartbeat CPU 1 instructions: 160000000 cycles: 116674314 heartbeat IPC: 1.23222 cumulative IPC: 1.37134 (Simulation time: 26 hr 8 min 33 sec) 
 Total Blocks : 196608 Invalid Blocks : 0 Valid Blocks : 196608
 Total Tags : 491520 Threshold : 12288 Invalid Tags : 196608 Pr0 Tags : 98304 Pr1 Tags : 196608 num_pr0 : 12288
 SAE Count : 0
 Inter-Core Inteference in Data Store : 3885935
Heartbeat CPU 2 instructions: 160000000 cycles: 116674382 heartbeat IPC: 1.23222 cumulative IPC: 1.37134 (Simulation time: 26 hr 8 min 33 sec) 
 Total Blocks : 196608 Invalid Blocks : 0 Valid Blocks : 196608
 Total Tags : 491520 Threshold : 12288 Invalid Tags : 196608 Pr0 Tags : 98304 Pr1 Tags : 196608 num_pr0 : 12288
 SAE Count : 0
 Inter-Core Inteference in Data Store : 3885935
Heartbeat CPU 3 instructions: 160000000 cycles: 116674397 heartbeat IPC: 1.23222 cumulative IPC: 1.37134 (Simulation time: 26 hr 8 min 33 sec) 
 Total Blocks : 196608 Invalid Blocks : 0 Valid Blocks : 196608
 Total Tags : 491520 Threshold : 12288 Invalid Tags : 196608 Pr0 Tags : 98304 Pr1 Tags : 196608 num_pr0 : 12288
 SAE Count : 0
 Inter-Core Inteference in Data Store : 3885935
Heartbeat CPU 4 instructions: 160000000 cycles: 116674407 heartbeat IPC: 1.23222 cumulative IPC: 1.37134 (Simulation time: 26 hr 8 min 33 sec) 
 Total Blocks : 196608 Invalid Blocks : 0 Valid Blocks : 196608
 Total Tags : 491520 Threshold : 12288 Invalid Tags : 196608 Pr0 Tags : 98304 Pr1 Tags : 196608 num_pr0 : 12288
 SAE Count : 0
 Inter-Core Inteference in Data Store : 3885935
Heartbeat CPU 5 instructions: 160000000 cycles: 116674419 heartbeat IPC: 1.23222 cumulative IPC: 1.37134 (Simulation time: 26 hr 8 min 33 sec) 
 Total Blocks : 196608 Invalid Blocks : 0 Valid Blocks : 196608
 Total Tags : 491520 Threshold : 12288 Invalid Tags : 196608 Pr0 Tags : 98304 Pr1 Tags : 196608 num_pr0 : 12288
 SAE Count : 0
 Inter-Core Inteference in Data Store : 3885935
Heartbeat CPU 6 instructions: 160000000 cycles: 116674431 heartbeat IPC: 1.23222 cumulative IPC: 1.37134 (Simulation time: 26 hr 8 min 33 sec) 
 Total Blocks : 196608 Invalid Blocks : 0 Valid Blocks : 196608
 Total Tags : 491520 Threshold : 12288 Invalid Tags : 196608 Pr0 Tags : 98304 Pr1 Tags : 196608 num_pr0 : 12288
 SAE Count : 0
 Inter-Core Inteference in Data Store : 3885935
Heartbeat CPU 7 instructions: 160000000 cycles: 116674455 heartbeat IPC: 1.23222 cumulative IPC: 1.37134 (Simulation time: 26 hr 8 min 33 sec) 
 Total Blocks : 196608 Invalid Blocks : 0 Valid Blocks : 196608
 Total Tags : 491520 Threshold : 12288 Invalid Tags : 196608 Pr0 Tags : 98304 Pr1 Tags : 196608 num_pr0 : 12288
 SAE Count : 0
 Inter-Core Inteference in Data Store : 3885935
Heartbeat CPU 0 instructions: 170000003 cycles: 124789750 heartbeat IPC: 1.23222 cumulative IPC: 1.36229 (Simulation time: 27 hr 27 min 41 sec) 
 Total Blocks : 196608 Invalid Blocks : 0 Valid Blocks : 196608
 Total Tags : 491520 Threshold : 12288 Invalid Tags : 196608 Pr0 Tags : 98304 Pr1 Tags : 196608 num_pr0 : 12288
 SAE Count : 0
 Inter-Core Inteference in Data Store : 3897575
Heartbeat CPU 1 instructions: 170000003 cycles: 124789769 heartbeat IPC: 1.23222 cumulative IPC: 1.36229 (Simulation time: 27 hr 27 min 41 sec) 
 Total Blocks : 196608 Invalid Blocks : 0 Valid Blocks : 196608
 Total Tags : 491520 Threshold : 12288 Invalid Tags : 196608 Pr0 Tags : 98304 Pr1 Tags : 196608 num_pr0 : 12288
 SAE Count : 0
 Inter-Core Inteference in Data Store : 3897575
Heartbeat CPU 2 instructions: 170000003 cycles: 124789837 heartbeat IPC: 1.23222 cumulative IPC: 1.36229 (Simulation time: 27 hr 27 min 41 sec) 
 Total Blocks : 196608 Invalid Blocks : 0 Valid Blocks : 196608
 Total Tags : 491520 Threshold : 12288 Invalid Tags : 196608 Pr0 Tags : 98304 Pr1 Tags : 196608 num_pr0 : 12288
 SAE Count : 0
 Inter-Core Inteference in Data Store : 3897575
Heartbeat CPU 3 instructions: 170000003 cycles: 124789851 heartbeat IPC: 1.23222 cumulative IPC: 1.36229 (Simulation time: 27 hr 27 min 41 sec) 
 Total Blocks : 196608 Invalid Blocks : 0 Valid Blocks : 196608
 Total Tags : 491520 Threshold : 12288 Invalid Tags : 196608 Pr0 Tags : 98304 Pr1 Tags : 196608 num_pr0 : 12288
 SAE Count : 0
 Inter-Core Inteference in Data Store : 3897575
Heartbeat CPU 4 instructions: 170000003 cycles: 124789862 heartbeat IPC: 1.23222 cumulative IPC: 1.36229 (Simulation time: 27 hr 27 min 41 sec) 
 Total Blocks : 196608 Invalid Blocks : 0 Valid Blocks : 196608
 Total Tags : 491520 Threshold : 12288 Invalid Tags : 196608 Pr0 Tags : 98304 Pr1 Tags : 196608 num_pr0 : 12288
 SAE Count : 0
 Inter-Core Inteference in Data Store : 3897575
Heartbeat CPU 5 instructions: 170000003 cycles: 124789874 heartbeat IPC: 1.23222 cumulative IPC: 1.36229 (Simulation time: 27 hr 27 min 41 sec) 
 Total Blocks : 196608 Invalid Blocks : 0 Valid Blocks : 196608
 Total Tags : 491520 Threshold : 12288 Invalid Tags : 196608 Pr0 Tags : 98304 Pr1 Tags : 196608 num_pr0 : 12288
 SAE Count : 0
 Inter-Core Inteference in Data Store : 3897575
Heartbeat CPU 6 instructions: 170000003 cycles: 124789885 heartbeat IPC: 1.23222 cumulative IPC: 1.36229 (Simulation time: 27 hr 27 min 41 sec) 
 Total Blocks : 196608 Invalid Blocks : 0 Valid Blocks : 196608
 Total Tags : 491520 Threshold : 12288 Invalid Tags : 196608 Pr0 Tags : 98304 Pr1 Tags : 196608 num_pr0 : 12288
 SAE Count : 0
 Inter-Core Inteference in Data Store : 3897575
Heartbeat CPU 7 instructions: 170000003 cycles: 124789909 heartbeat IPC: 1.23222 cumulative IPC: 1.36229 (Simulation time: 27 hr 27 min 41 sec) 
 Total Blocks : 196608 Invalid Blocks : 0 Valid Blocks : 196608
 Total Tags : 491520 Threshold : 12288 Invalid Tags : 196608 Pr0 Tags : 98304 Pr1 Tags : 196608 num_pr0 : 12288
 SAE Count : 0
 Inter-Core Inteference in Data Store : 3897575
Heartbeat CPU 0 instructions: 180000000 cycles: 132905306 heartbeat IPC: 1.2322 cumulative IPC: 1.35435 (Simulation time: 27 hr 33 min 38 sec) 
 Total Blocks : 196608 Invalid Blocks : 0 Valid Blocks : 196608
 Total Tags : 491520 Threshold : 12288 Invalid Tags : 196608 Pr0 Tags : 98304 Pr1 Tags : 196608 num_pr0 : 12288
 SAE Count : 0
 Inter-Core Inteference in Data Store : 3898588
Heartbeat CPU 1 instructions: 180000000 cycles: 132905325 heartbeat IPC: 1.2322 cumulative IPC: 1.35435 (Simulation time: 27 hr 33 min 38 sec) 
 Total Blocks : 196608 Invalid Blocks : 0 Valid Blocks : 196608
 Total Tags : 491520 Threshold : 12288 Invalid Tags : 196608 Pr0 Tags : 98304 Pr1 Tags : 196608 num_pr0 : 12288
 SAE Count : 0
 Inter-Core Inteference in Data Store : 3898588
Heartbeat CPU 2 instructions: 180000000 cycles: 132905393 heartbeat IPC: 1.2322 cumulative IPC: 1.35435 (Simulation time: 27 hr 33 min 38 sec) 
 Total Blocks : 196608 Invalid Blocks : 0 Valid Blocks : 196608
 Total Tags : 491520 Threshold : 12288 Invalid Tags : 196608 Pr0 Tags : 98304 Pr1 Tags : 196608 num_pr0 : 12288
 SAE Count : 0
 Inter-Core Inteference in Data Store : 3898588
Heartbeat CPU 3 instructions: 180000000 cycles: 132905407 heartbeat IPC: 1.2322 cumulative IPC: 1.35435 (Simulation time: 27 hr 33 min 38 sec) 
 Total Blocks : 196608 Invalid Blocks : 0 Valid Blocks : 196608
 Total Tags : 491520 Threshold : 12288 Invalid Tags : 196608 Pr0 Tags : 98304 Pr1 Tags : 196608 num_pr0 : 12288
 SAE Count : 0
 Inter-Core Inteference in Data Store : 3898588
Heartbeat CPU 4 instructions: 180000000 cycles: 132905418 heartbeat IPC: 1.2322 cumulative IPC: 1.35435 (Simulation time: 27 hr 33 min 38 sec) 
 Total Blocks : 196608 Invalid Blocks : 0 Valid Blocks : 196608
 Total Tags : 491520 Threshold : 12288 Invalid Tags : 196608 Pr0 Tags : 98304 Pr1 Tags : 196608 num_pr0 : 12288
 SAE Count : 0
 Inter-Core Inteference in Data Store : 3898588
Heartbeat CPU 5 instructions: 180000000 cycles: 132905430 heartbeat IPC: 1.2322 cumulative IPC: 1.35435 (Simulation time: 27 hr 33 min 38 sec) 
 Total Blocks : 196608 Invalid Blocks : 0 Valid Blocks : 196608
 Total Tags : 491520 Threshold : 12288 Invalid Tags : 196608 Pr0 Tags : 98304 Pr1 Tags : 196608 num_pr0 : 12288
 SAE Count : 0
 Inter-Core Inteference in Data Store : 3898588
Heartbeat CPU 6 instructions: 180000000 cycles: 132905441 heartbeat IPC: 1.2322 cumulative IPC: 1.35435 (Simulation time: 27 hr 33 min 38 sec) 
 Total Blocks : 196608 Invalid Blocks : 0 Valid Blocks : 196608
 Total Tags : 491520 Threshold : 12288 Invalid Tags : 196608 Pr0 Tags : 98304 Pr1 Tags : 196608 num_pr0 : 12288
 SAE Count : 0
 Inter-Core Inteference in Data Store : 3898588
Heartbeat CPU 7 instructions: 180000000 cycles: 132905465 heartbeat IPC: 1.2322 cumulative IPC: 1.35435 (Simulation time: 27 hr 33 min 38 sec) 
 Total Blocks : 196608 Invalid Blocks : 0 Valid Blocks : 196608
 Total Tags : 491520 Threshold : 12288 Invalid Tags : 196608 Pr0 Tags : 98304 Pr1 Tags : 196608 num_pr0 : 12288
 SAE Count : 0
 Inter-Core Inteference in Data Store : 3898588
Heartbeat CPU 0 instructions: 190000000 cycles: 140837133 heartbeat IPC: 1.26074 cumulative IPC: 1.34908 (Simulation time: 28 hr 21 min 44 sec) 
 Total Blocks : 196608 Invalid Blocks : 0 Valid Blocks : 196608
 Total Tags : 491520 Threshold : 12288 Invalid Tags : 196608 Pr0 Tags : 98304 Pr1 Tags : 196608 num_pr0 : 12288
 SAE Count : 0
 Inter-Core Inteference in Data Store : 3899159
Heartbeat CPU 1 instructions: 190000000 cycles: 140837149 heartbeat IPC: 1.26074 cumulative IPC: 1.34908 (Simulation time: 28 hr 21 min 44 sec) 
 Total Blocks : 196608 Invalid Blocks : 0 Valid Blocks : 196608
 Total Tags : 491520 Threshold : 12288 Invalid Tags : 196608 Pr0 Tags : 98304 Pr1 Tags : 196608 num_pr0 : 12288
 SAE Count : 0
 Inter-Core Inteference in Data Store : 3899159
Heartbeat CPU 2 instructions: 190000000 cycles: 140837219 heartbeat IPC: 1.26074 cumulative IPC: 1.34908 (Simulation time: 28 hr 21 min 44 sec) 
 Total Blocks : 196608 Invalid Blocks : 0 Valid Blocks : 196608
 Total Tags : 491520 Threshold : 12288 Invalid Tags : 196608 Pr0 Tags : 98304 Pr1 Tags : 196608 num_pr0 : 12288
 SAE Count : 0
 Inter-Core Inteference in Data Store : 3899159
Heartbeat CPU 3 instructions: 190000000 cycles: 140837229 heartbeat IPC: 1.26074 cumulative IPC: 1.34908 (Simulation time: 28 hr 21 min 44 sec) 
 Total Blocks : 196608 Invalid Blocks : 0 Valid Blocks : 196608
 Total Tags : 491520 Threshold : 12288 Invalid Tags : 196608 Pr0 Tags : 98304 Pr1 Tags : 196608 num_pr0 : 12288
 SAE Count : 0
 Inter-Core Inteference in Data Store : 3899159
Heartbeat CPU 4 instructions: 190000000 cycles: 140837242 heartbeat IPC: 1.26074 cumulative IPC: 1.34907 (Simulation time: 28 hr 21 min 44 sec) 
 Total Blocks : 196608 Invalid Blocks : 0 Valid Blocks : 196608
 Total Tags : 491520 Threshold : 12288 Invalid Tags : 196608 Pr0 Tags : 98304 Pr1 Tags : 196608 num_pr0 : 12288
 SAE Count : 0
 Inter-Core Inteference in Data Store : 3899159
Heartbeat CPU 5 instructions: 190000000 cycles: 140837255 heartbeat IPC: 1.26074 cumulative IPC: 1.34907 (Simulation time: 28 hr 21 min 44 sec) 
 Total Blocks : 196608 Invalid Blocks : 0 Valid Blocks : 196608
 Total Tags : 491520 Threshold : 12288 Invalid Tags : 196608 Pr0 Tags : 98304 Pr1 Tags : 196608 num_pr0 : 12288
 SAE Count : 0
 Inter-Core Inteference in Data Store : 3899159
Heartbeat CPU 6 instructions: 190000000 cycles: 140837267 heartbeat IPC: 1.26074 cumulative IPC: 1.34907 (Simulation time: 28 hr 21 min 45 sec) 
 Total Blocks : 196608 Invalid Blocks : 0 Valid Blocks : 196608
 Total Tags : 491520 Threshold : 12288 Invalid Tags : 196608 Pr0 Tags : 98304 Pr1 Tags : 196608 num_pr0 : 12288
 SAE Count : 0
 Inter-Core Inteference in Data Store : 3899159
Heartbeat CPU 7 instructions: 190000000 cycles: 140837290 heartbeat IPC: 1.26074 cumulative IPC: 1.34907 (Simulation time: 28 hr 21 min 45 sec) 
 Total Blocks : 196608 Invalid Blocks : 0 Valid Blocks : 196608
 Total Tags : 491520 Threshold : 12288 Invalid Tags : 196608 Pr0 Tags : 98304 Pr1 Tags : 196608 num_pr0 : 12288
 SAE Count : 0
 Inter-Core Inteference in Data Store : 3899159
Heartbeat CPU 0 instructions: 200000003 cycles: 148554757 heartbeat IPC: 1.29574 cumulative IPC: 1.3463 (Simulation time: 30 hr 1 min 34 sec) 
 Total Blocks : 196608 Invalid Blocks : 0 Valid Blocks : 196608
 Total Tags : 491520 Threshold : 12288 Invalid Tags : 196608 Pr0 Tags : 98304 Pr1 Tags : 196608 num_pr0 : 12288
 SAE Count : 0
 Inter-Core Inteference in Data Store : 3899159
Heartbeat CPU 1 instructions: 200000003 cycles: 148554773 heartbeat IPC: 1.29574 cumulative IPC: 1.3463 (Simulation time: 30 hr 1 min 34 sec) 
 Total Blocks : 196608 Invalid Blocks : 0 Valid Blocks : 196608
 Total Tags : 491520 Threshold : 12288 Invalid Tags : 196608 Pr0 Tags : 98304 Pr1 Tags : 196608 num_pr0 : 12288
 SAE Count : 0
 Inter-Core Inteference in Data Store : 3899159
Heartbeat CPU 2 instructions: 200000003 cycles: 148554843 heartbeat IPC: 1.29574 cumulative IPC: 1.3463 (Simulation time: 30 hr 1 min 34 sec) 
 Total Blocks : 196608 Invalid Blocks : 0 Valid Blocks : 196608
 Total Tags : 491520 Threshold : 12288 Invalid Tags : 196608 Pr0 Tags : 98304 Pr1 Tags : 196608 num_pr0 : 12288
 SAE Count : 0
 Inter-Core Inteference in Data Store : 3899159
Heartbeat CPU 3 instructions: 200000003 cycles: 148554853 heartbeat IPC: 1.29574 cumulative IPC: 1.3463 (Simulation time: 30 hr 1 min 34 sec) 
 Total Blocks : 196608 Invalid Blocks : 0 Valid Blocks : 196608
 Total Tags : 491520 Threshold : 12288 Invalid Tags : 196608 Pr0 Tags : 98304 Pr1 Tags : 196608 num_pr0 : 12288
 SAE Count : 0
 Inter-Core Inteference in Data Store : 3899159
Heartbeat CPU 4 instructions: 200000003 cycles: 148554866 heartbeat IPC: 1.29574 cumulative IPC: 1.3463 (Simulation time: 30 hr 1 min 34 sec) 
 Total Blocks : 196608 Invalid Blocks : 0 Valid Blocks : 196608
 Total Tags : 491520 Threshold : 12288 Invalid Tags : 196608 Pr0 Tags : 98304 Pr1 Tags : 196608 num_pr0 : 12288
 SAE Count : 0
 Inter-Core Inteference in Data Store : 3899159
Heartbeat CPU 5 instructions: 200000003 cycles: 148554879 heartbeat IPC: 1.29574 cumulative IPC: 1.3463 (Simulation time: 30 hr 1 min 34 sec) 
 Total Blocks : 196608 Invalid Blocks : 0 Valid Blocks : 196608
 Total Tags : 491520 Threshold : 12288 Invalid Tags : 196608 Pr0 Tags : 98304 Pr1 Tags : 196608 num_pr0 : 12288
 SAE Count : 0
 Inter-Core Inteference in Data Store : 3899159
Heartbeat CPU 6 instructions: 200000003 cycles: 148554891 heartbeat IPC: 1.29574 cumulative IPC: 1.3463 (Simulation time: 30 hr 1 min 34 sec) 
 Total Blocks : 196608 Invalid Blocks : 0 Valid Blocks : 196608
 Total Tags : 491520 Threshold : 12288 Invalid Tags : 196608 Pr0 Tags : 98304 Pr1 Tags : 196608 num_pr0 : 12288
 SAE Count : 0
 Inter-Core Inteference in Data Store : 3899159
Heartbeat CPU 7 instructions: 200000003 cycles: 148554914 heartbeat IPC: 1.29574 cumulative IPC: 1.3463 (Simulation time: 30 hr 1 min 34 sec) 
 Total Blocks : 196608 Invalid Blocks : 0 Valid Blocks : 196608
 Total Tags : 491520 Threshold : 12288 Invalid Tags : 196608 Pr0 Tags : 98304 Pr1 Tags : 196608 num_pr0 : 12288
 SAE Count : 0
 Inter-Core Inteference in Data Store : 3899159

Warmup complete CPU 0 instructions: 200000208 cycles: 148554914 (Simulation time: 30 hr 1 min 34 sec) 
Warmup complete CPU 1 instructions: 200000174 cycles: 148554914 (Simulation time: 30 hr 1 min 34 sec) 
Warmup complete CPU 2 instructions: 200000082 cycles: 148554914 (Simulation time: 30 hr 1 min 34 sec) 
Warmup complete CPU 3 instructions: 200000070 cycles: 148554914 (Simulation time: 30 hr 1 min 34 sec) 
Warmup complete CPU 4 instructions: 200000070 cycles: 148554914 (Simulation time: 30 hr 1 min 34 sec) 
Warmup complete CPU 5 instructions: 200000049 cycles: 148554914 (Simulation time: 30 hr 1 min 34 sec) 
Warmup complete CPU 6 instructions: 200000024 cycles: 148554914 (Simulation time: 30 hr 1 min 34 sec) 
Warmup complete CPU 7 instructions: 200000003 cycles: 148554914 (Simulation time: 30 hr 1 min 34 sec) 

Heartbeat CPU 2 instructions: 210000000 cycles: 167321312 heartbeat IPC: 0.532865 cumulative IPC: 0.532863 (Simulation time: 31 hr 54 min 15 sec) 
 Total Blocks : 196608 Invalid Blocks : 0 Valid Blocks : 196608
 Total Tags : 491520 Threshold : 12288 Invalid Tags : 196608 Pr0 Tags : 98304 Pr1 Tags : 196608 num_pr0 : 12288
 SAE Count : 0
 Inter-Core Inteference in Data Store : 7827
Heartbeat CPU 7 instructions: 210000001 cycles: 167322858 heartbeat IPC: 0.532823 cumulative IPC: 0.532823 (Simulation time: 31 hr 54 min 16 sec) 
 Total Blocks : 196608 Invalid Blocks : 0 Valid Blocks : 196608
 Total Tags : 491520 Threshold : 12288 Invalid Tags : 196608 Pr0 Tags : 98304 Pr1 Tags : 196608 num_pr0 : 12288
 SAE Count : 0
 Inter-Core Inteference in Data Store : 7827
Heartbeat CPU 6 instructions: 210000001 cycles: 167326078 heartbeat IPC: 0.532731 cumulative IPC: 0.532731 (Simulation time: 31 hr 54 min 17 sec) 
 Total Blocks : 196608 Invalid Blocks : 0 Valid Blocks : 196608
 Total Tags : 491520 Threshold : 12288 Invalid Tags : 196608 Pr0 Tags : 98304 Pr1 Tags : 196608 num_pr0 : 12288
 SAE Count : 0
 Inter-Core Inteference in Data Store : 7827
Heartbeat CPU 5 instructions: 210000001 cycles: 167326965 heartbeat IPC: 0.532706 cumulative IPC: 0.532704 (Simulation time: 31 hr 54 min 17 sec) 
 Total Blocks : 196608 Invalid Blocks : 0 Valid Blocks : 196608
 Total Tags : 491520 Threshold : 12288 Invalid Tags : 196608 Pr0 Tags : 98304 Pr1 Tags : 196608 num_pr0 : 12288
 SAE Count : 0
 Inter-Core Inteference in Data Store : 7827
Heartbeat CPU 4 instructions: 210000001 cycles: 167333148 heartbeat IPC: 0.53253 cumulative IPC: 0.532528 (Simulation time: 31 hr 54 min 20 sec) 
 Total Blocks : 196608 Invalid Blocks : 0 Valid Blocks : 196608
 Total Tags : 491520 Threshold : 12288 Invalid Tags : 196608 Pr0 Tags : 98304 Pr1 Tags : 196608 num_pr0 : 12288
 SAE Count : 0
 Inter-Core Inteference in Data Store : 7827
Heartbeat CPU 0 instructions: 210000001 cycles: 167340369 heartbeat IPC: 0.532322 cumulative IPC: 0.532316 (Simulation time: 31 hr 54 min 22 sec) 
 Total Blocks : 196608 Invalid Blocks : 0 Valid Blocks : 196608
 Total Tags : 491520 Threshold : 12288 Invalid Tags : 196608 Pr0 Tags : 98304 Pr1 Tags : 196608 num_pr0 : 12288
 SAE Count : 0
 Inter-Core Inteference in Data Store : 7827
Heartbeat CPU 3 instructions: 210000001 cycles: 167563662 heartbeat IPC: 0.526072 cumulative IPC: 0.52607 (Simulation time: 31 hr 55 min 44 sec) 
 Total Blocks : 196608 Invalid Blocks : 0 Valid Blocks : 196608
 Total Tags : 491520 Threshold : 12288 Invalid Tags : 196608 Pr0 Tags : 98304 Pr1 Tags : 196608 num_pr0 : 12288
 SAE Count : 0
 Inter-Core Inteference in Data Store : 7827
Heartbeat CPU 1 instructions: 210000001 cycles: 167654124 heartbeat IPC: 0.523578 cumulative IPC: 0.523573 (Simulation time: 31 hr 56 min 16 sec) 
 Total Blocks : 196608 Invalid Blocks : 0 Valid Blocks : 196608
 Total Tags : 491520 Threshold : 12288 Invalid Tags : 196608 Pr0 Tags : 98304 Pr1 Tags : 196608 num_pr0 : 12288
 SAE Count : 0
 Inter-Core Inteference in Data Store : 7827
Heartbeat CPU 7 instructions: 220000000 cycles: 186219152 heartbeat IPC: 0.529204 cumulative IPC: 0.531008 (Simulation time: 60 hr 13 min 55 sec) 
 Total Blocks : 196608 Invalid Blocks : 0 Valid Blocks : 196608
 Total Tags : 491520 Threshold : 12288 Invalid Tags : 196608 Pr0 Tags : 98304 Pr1 Tags : 196608 num_pr0 : 12288
 SAE Count : 0
 Inter-Core Inteference in Data Store : 7827
Heartbeat CPU 5 instructions: 220000000 cycles: 186219559 heartbeat IPC: 0.529308 cumulative IPC: 0.531001 (Simulation time: 60 hr 13 min 56 sec) 
 Total Blocks : 196608 Invalid Blocks : 0 Valid Blocks : 196608
 Total Tags : 491520 Threshold : 12288 Invalid Tags : 196608 Pr0 Tags : 98304 Pr1 Tags : 196608 num_pr0 : 12288
 SAE Count : 0
 Inter-Core Inteference in Data Store : 7827
Heartbeat CPU 2 instructions: 220000000 cycles: 186227638 heartbeat IPC: 0.528924 cumulative IPC: 0.530886 (Simulation time: 60 hr 14 min 4 sec) 
 Total Blocks : 196608 Invalid Blocks : 0 Valid Blocks : 196608
 Total Tags : 491520 Threshold : 12288 Invalid Tags : 196608 Pr0 Tags : 98304 Pr1 Tags : 196608 num_pr0 : 12288
 SAE Count : 0
 Inter-Core Inteference in Data Store : 7827
Heartbeat CPU 4 instructions: 220000000 cycles: 186230906 heartbeat IPC: 0.529163 cumulative IPC: 0.53084 (Simulation time: 60 hr 14 min 9 sec) 
 Total Blocks : 196608 Invalid Blocks : 0 Valid Blocks : 196608
 Total Tags : 491520 Threshold : 12288 Invalid Tags : 196608 Pr0 Tags : 98304 Pr1 Tags : 196608 num_pr0 : 12288
 SAE Count : 0
 Inter-Core Inteference in Data Store : 7827
Heartbeat CPU 6 instructions: 220000000 cycles: 186270988 heartbeat IPC: 0.527846 cumulative IPC: 0.530277 (Simulation time: 60 hr 14 min 34 sec) 
 Total Blocks : 196608 Invalid Blocks : 0 Valid Blocks : 196608
 Total Tags : 491520 Threshold : 12288 Invalid Tags : 196608 Pr0 Tags : 98304 Pr1 Tags : 196608 num_pr0 : 12288
 SAE Count : 0
 Inter-Core Inteference in Data Store : 7827
Heartbeat CPU 0 instructions: 220000000 cycles: 186505546 heartbeat IPC: 0.52178 cumulative IPC: 0.526995 (Simulation time: 60 hr 18 min 14 sec) 
 Total Blocks : 196608 Invalid Blocks : 0 Valid Blocks : 196608
 Total Tags : 491520 Threshold : 12288 Invalid Tags : 196608 Pr0 Tags : 98304 Pr1 Tags : 196608 num_pr0 : 12288
 SAE Count : 0
 Inter-Core Inteference in Data Store : 7827
Heartbeat CPU 3 instructions: 220000000 cycles: 186763831 heartbeat IPC: 0.520829 cumulative IPC: 0.523436 (Simulation time: 60 hr 22 min 11 sec) 
 Total Blocks : 196608 Invalid Blocks : 0 Valid Blocks : 196608
 Total Tags : 491520 Threshold : 12288 Invalid Tags : 196608 Pr0 Tags : 98304 Pr1 Tags : 196608 num_pr0 : 12288
 SAE Count : 0
 Inter-Core Inteference in Data Store : 7827
Heartbeat CPU 1 instructions: 220000000 cycles: 186835043 heartbeat IPC: 0.521351 cumulative IPC: 0.52246 (Simulation time: 60 hr 23 min 16 sec) 
 Total Blocks : 196608 Invalid Blocks : 0 Valid Blocks : 196608
 Total Tags : 491520 Threshold : 12288 Invalid Tags : 196608 Pr0 Tags : 98304 Pr1 Tags : 196608 num_pr0 : 12288
 SAE Count : 0
 Inter-Core Inteference in Data Store : 7827
Heartbeat CPU 4 instructions: 230000000 cycles: 205326383 heartbeat IPC: 0.523684 cumulative IPC: 0.528433 (Simulation time: 65 hr 15 min 47 sec) 
 Total Blocks : 196608 Invalid Blocks : 0 Valid Blocks : 196608
 Total Tags : 491520 Threshold : 12288 Invalid Tags : 196608 Pr0 Tags : 98304 Pr1 Tags : 196608 num_pr0 : 12288
 SAE Count : 0
 Inter-Core Inteference in Data Store : 7827
Heartbeat CPU 7 instructions: 230000000 cycles: 205331844 heartbeat IPC: 0.523213 cumulative IPC: 0.528384 (Simulation time: 65 hr 16 min 11 sec) 
 Total Blocks : 196608 Invalid Blocks : 0 Valid Blocks : 196608
 Total Tags : 491520 Threshold : 12288 Invalid Tags : 196608 Pr0 Tags : 98304 Pr1 Tags : 196608 num_pr0 : 12288
 SAE Count : 0
 Inter-Core Inteference in Data Store : 7827
Heartbeat CPU 5 instructions: 230000000 cycles: 205342014 heartbeat IPC: 0.522945 cumulative IPC: 0.528288 (Simulation time: 65 hr 16 min 27 sec) 
 Total Blocks : 196608 Invalid Blocks : 0 Valid Blocks : 196608
 Total Tags : 491520 Threshold : 12288 Invalid Tags : 196608 Pr0 Tags : 98304 Pr1 Tags : 196608 num_pr0 : 12288
 SAE Count : 0
 Inter-Core Inteference in Data Store : 7827
Heartbeat CPU 2 instructions: 230000000 cycles: 205411604 heartbeat IPC: 0.521269 cumulative IPC: 0.527641 (Simulation time: 65 hr 17 min 25 sec) 
 Total Blocks : 196608 Invalid Blocks : 0 Valid Blocks : 196608
 Total Tags : 491520 Threshold : 12288 Invalid Tags : 196608 Pr0 Tags : 98304 Pr1 Tags : 196608 num_pr0 : 12288
 SAE Count : 0
 Inter-Core Inteference in Data Store : 7827
Heartbeat CPU 6 instructions: 230000000 cycles: 205549162 heartbeat IPC: 0.518721 cumulative IPC: 0.526368 (Simulation time: 65 hr 19 min 38 sec) 
 Total Blocks : 196608 Invalid Blocks : 0 Valid Blocks : 196608
 Total Tags : 491520 Threshold : 12288 Invalid Tags : 196608 Pr0 Tags : 98304 Pr1 Tags : 196608 num_pr0 : 12288
 SAE Count : 0
 Inter-Core Inteference in Data Store : 7827
Heartbeat CPU 0 instructions: 230000000 cycles: 205804071 heartbeat IPC: 0.518174 cumulative IPC: 0.524022 (Simulation time: 65 hr 23 min 34 sec) 
 Total Blocks : 196608 Invalid Blocks : 0 Valid Blocks : 196608
 Total Tags : 491520 Threshold : 12288 Invalid Tags : 196608 Pr0 Tags : 98304 Pr1 Tags : 196608 num_pr0 : 12288
 SAE Count : 0
 Inter-Core Inteference in Data Store : 7827
Heartbeat CPU 3 instructions: 230000000 cycles: 206020855 heartbeat IPC: 0.519291 cumulative IPC: 0.522047 (Simulation time: 65 hr 26 min 57 sec) 
 Total Blocks : 196608 Invalid Blocks : 0 Valid Blocks : 196608
 Total Tags : 491520 Threshold : 12288 Invalid Tags : 196608 Pr0 Tags : 98304 Pr1 Tags : 196608 num_pr0 : 12288
 SAE Count : 0
 Inter-Core Inteference in Data Store : 7827
Heartbeat CPU 1 instructions: 230000000 cycles: 206146039 heartbeat IPC: 0.51784 cumulative IPC: 0.520911 (Simulation time: 65 hr 28 min 46 sec) 
 Total Blocks : 196608 Invalid Blocks : 0 Valid Blocks : 196608
 Total Tags : 491520 Threshold : 12288 Invalid Tags : 196608 Pr0 Tags : 98304 Pr1 Tags : 196608 num_pr0 : 12288
 SAE Count : 0
 Inter-Core Inteference in Data Store : 7827
Heartbeat CPU 4 instructions: 240000002 cycles: 224528665 heartbeat IPC: 0.520772 cumulative IPC: 0.526497 (Simulation time: 71 hr 11 min 55 sec) 
 Total Blocks : 196608 Invalid Blocks : 0 Valid Blocks : 196608
 Total Tags : 491520 Threshold : 12288 Invalid Tags : 196608 Pr0 Tags : 98304 Pr1 Tags : 196608 num_pr0 : 12288
 SAE Count : 0
 Inter-Core Inteference in Data Store : 7827
Heartbeat CPU 7 instructions: 240000003 cycles: 224534451 heartbeat IPC: 0.520763 cumulative IPC: 0.526458 (Simulation time: 71 hr 12 min 0 sec) 
 Total Blocks : 196608 Invalid Blocks : 0 Valid Blocks : 196608
 Total Tags : 491520 Threshold : 12288 Invalid Tags : 196608 Pr0 Tags : 98304 Pr1 Tags : 196608 num_pr0 : 12288
 SAE Count : 0
 Inter-Core Inteference in Data Store : 7827
Heartbeat CPU 5 instructions: 240000002 cycles: 224577539 heartbeat IPC: 0.519872 cumulative IPC: 0.526159 (Simulation time: 71 hr 12 min 28 sec) 
 Total Blocks : 196608 Invalid Blocks : 0 Valid Blocks : 196608
 Total Tags : 491520 Threshold : 12288 Invalid Tags : 196608 Pr0 Tags : 98304 Pr1 Tags : 196608 num_pr0 : 12288
 SAE Count : 0
 Inter-Core Inteference in Data Store : 7827
Heartbeat CPU 2 instructions: 240000002 cycles: 224740276 heartbeat IPC: 0.517366 cumulative IPC: 0.525034 (Simulation time: 71 hr 15 min 17 sec) 
 Total Blocks : 196608 Invalid Blocks : 0 Valid Blocks : 196608
 Total Tags : 491520 Threshold : 12288 Invalid Tags : 196608 Pr0 Tags : 98304 Pr1 Tags : 196608 num_pr0 : 12288
 SAE Count : 0
 Inter-Core Inteference in Data Store : 7827
Heartbeat CPU 6 instructions: 240000002 cycles: 224883551 heartbeat IPC: 0.517213 cumulative IPC: 0.524049 (Simulation time: 71 hr 17 min 20 sec) 
 Total Blocks : 196608 Invalid Blocks : 0 Valid Blocks : 196608
 Total Tags : 491520 Threshold : 12288 Invalid Tags : 196608 Pr0 Tags : 98304 Pr1 Tags : 196608 num_pr0 : 12288
 SAE Count : 0
 Inter-Core Inteference in Data Store : 7827
Heartbeat CPU 0 instructions: 240000002 cycles: 225125893 heartbeat IPC: 0.51755 cumulative IPC: 0.522388 (Simulation time: 71 hr 20 min 40 sec) 
 Total Blocks : 196608 Invalid Blocks : 0 Valid Blocks : 196608
 Total Tags : 491520 Threshold : 12288 Invalid Tags : 196608 Pr0 Tags : 98304 Pr1 Tags : 196608 num_pr0 : 12288
 SAE Count : 0
 Inter-Core Inteference in Data Store : 7827
Heartbeat CPU 3 instructions: 240000001 cycles: 225341115 heartbeat IPC: 0.517591 cumulative IPC: 0.520926 (Simulation time: 71 hr 23 min 43 sec) 
 Total Blocks : 196608 Invalid Blocks : 0 Valid Blocks : 196608
 Total Tags : 491520 Threshold : 12288 Invalid Tags : 196608 Pr0 Tags : 98304 Pr1 Tags : 196608 num_pr0 : 12288
 SAE Count : 0
 Inter-Core Inteference in Data Store : 7827
Heartbeat CPU 1 instructions: 240000001 cycles: 225458624 heartbeat IPC: 0.517797 cumulative IPC: 0.520129 (Simulation time: 71 hr 25 min 23 sec) 
 Total Blocks : 196608 Invalid Blocks : 0 Valid Blocks : 196608
 Total Tags : 491520 Threshold : 12288 Invalid Tags : 196608 Pr0 Tags : 98304 Pr1 Tags : 196608 num_pr0 : 12288
 SAE Count : 0
 Inter-Core Inteference in Data Store : 7827
Heartbeat CPU 7 instructions: 250000001 cycles: 243763297 heartbeat IPC: 0.520052 cumulative IPC: 0.525164 (Simulation time: 75 hr 46 min 25 sec) 
 Total Blocks : 196608 Invalid Blocks : 0 Valid Blocks : 196608
 Total Tags : 491520 Threshold : 12288 Invalid Tags : 196608 Pr0 Tags : 98304 Pr1 Tags : 196608 num_pr0 : 12288
 SAE Count : 0
 Inter-Core Inteference in Data Store : 7827
Heartbeat CPU 4 instructions: 250000003 cycles: 243786853 heartbeat IPC: 0.51926 cumulative IPC: 0.525033 (Simulation time: 75 hr 46 min 45 sec) 
 Total Blocks : 196608 Invalid Blocks : 0 Valid Blocks : 196608
 Total Tags : 491520 Threshold : 12288 Invalid Tags : 196608 Pr0 Tags : 98304 Pr1 Tags : 196608 num_pr0 : 12288
 SAE Count : 0
 Inter-Core Inteference in Data Store : 7827
Heartbeat CPU 5 instructions: 250000003 cycles: 243862363 heartbeat IPC: 0.518543 cumulative IPC: 0.524617 (Simulation time: 75 hr 47 min 56 sec) 
 Total Blocks : 196608 Invalid Blocks : 0 Valid Blocks : 196608
 Total Tags : 491520 Threshold : 12288 Invalid Tags : 196608 Pr0 Tags : 98304 Pr1 Tags : 196608 num_pr0 : 12288
 SAE Count : 0
 Inter-Core Inteference in Data Store : 7827
Heartbeat CPU 2 instructions: 250000003 cycles: 244046339 heartbeat IPC: 0.517972 cumulative IPC: 0.523606 (Simulation time: 75 hr 50 min 45 sec) 
 Total Blocks : 196608 Invalid Blocks : 0 Valid Blocks : 196608
 Total Tags : 491520 Threshold : 12288 Invalid Tags : 196608 Pr0 Tags : 98304 Pr1 Tags : 196608 num_pr0 : 12288
 SAE Count : 0
 Inter-Core Inteference in Data Store : 7827
Heartbeat CPU 6 instructions: 250000001 cycles: 244196778 heartbeat IPC: 0.51778 cumulative IPC: 0.522783 (Simulation time: 75 hr 52 min 59 sec) 
 Total Blocks : 196608 Invalid Blocks : 0 Valid Blocks : 196608
 Total Tags : 491520 Threshold : 12288 Invalid Tags : 196608 Pr0 Tags : 98304 Pr1 Tags : 196608 num_pr0 : 12288
 SAE Count : 0
 Inter-Core Inteference in Data Store : 7827
Heartbeat CPU 0 instructions: 250000002 cycles: 244431433 heartbeat IPC: 0.517986 cumulative IPC: 0.521502 (Simulation time: 75 hr 56 min 8 sec) 
 Total Blocks : 196608 Invalid Blocks : 0 Valid Blocks : 196608
 Total Tags : 491520 Threshold : 12288 Invalid Tags : 196608 Pr0 Tags : 98304 Pr1 Tags : 196608 num_pr0 : 12288
 SAE Count : 0
 Inter-Core Inteference in Data Store : 7827
Heartbeat CPU 3 instructions: 250000002 cycles: 244648606 heartbeat IPC: 0.517934 cumulative IPC: 0.520325 (Simulation time: 75 hr 59 min 7 sec) 
 Total Blocks : 196608 Invalid Blocks : 0 Valid Blocks : 196608
[...]
 USEFUL LOAD PREFETCHES:          0 PREFETCH ISSUED TO LOWER LEVEL:    5598828  ACCURACY: 0
 TIMELY PREFETCHES:          0 LATE PREFETCHES: 0 DROPPED PREFETCHES: 0
LLC3 AVERAGE MISS LATENCY: 412.366 cycles

LLC3 Set Associative Eviction Count : 0
LLC3 Priority 0 entries : 12288
LLC3 Inter-Core Interference : 455129
LLC4 TOTAL     ACCESS: 764188  HIT:  1413  MISS: 762775  HIT %: 0.184902  MISS %: 99.8151  AVERAGE MISS PENALTY: 379.162
LLC4 LOAD      ACCESS:     3  HIT:     0  MISS:     3  HIT %:     0  MISS %:   100  AVERAGE MISS PENALTY: 305
LLC4 RFO       ACCESS:     0  HIT:     0  MISS:     0  HIT %:     0  MISS %:     0  AVERAGE MISS PENALTY: 0
LLC4 PREFETCH  ACCESS: 699745  HIT:  1413  MISS: 698332  HIT %: 0.201931  MISS %: 99.7981  AVERAGE MISS PENALTY: 414.15
LLC4 WRITEBACK ACCESS: 64440  HIT:     0  MISS: 64440  HIT %:     0  MISS %:   100  AVERAGE MISS PENALTY: 0
LLC4 PREFETCH  REQUESTED:     0  ISSUED:     0  USEFUL:     0  USELESS:    50
 USEFUL LOAD PREFETCHES:          0 PREFETCH ISSUED TO LOWER LEVEL:    5598851  ACCURACY: 0
 TIMELY PREFETCHES:          0 LATE PREFETCHES: 0 DROPPED PREFETCHES: 0
LLC4 AVERAGE MISS LATENCY: 379.162 cycles

LLC4 Set Associative Eviction Count : 0
LLC4 Priority 0 entries : 12288
LLC4 Inter-Core Interference : 455097
LLC5 TOTAL     ACCESS: 764399  HIT:  1674  MISS: 762725  HIT %: 0.218996  MISS %: 99.781  AVERAGE MISS PENALTY: 372.025
LLC5 LOAD      ACCESS:   215  HIT:   210  MISS:     5  HIT %: 97.6744  MISS %: 2.32558  AVERAGE MISS PENALTY: 421.2
LLC5 RFO       ACCESS:     0  HIT:     0  MISS:     0  HIT %:     0  MISS %:     0  AVERAGE MISS PENALTY: 0
LLC5 PREFETCH  ACCESS: 699743  HIT:  1464  MISS: 698279  HIT %: 0.20922  MISS %: 99.7908  AVERAGE MISS PENALTY: 406.357
LLC5 WRITEBACK ACCESS: 64441  HIT:     0  MISS: 64441  HIT %:     0  MISS %:   100  AVERAGE MISS PENALTY: 0
LLC5 PREFETCH  REQUESTED:     0  ISSUED:     0  USEFUL:     0  USELESS:    44
 USEFUL LOAD PREFETCHES:          0 PREFETCH ISSUED TO LOWER LEVEL:    5598905  ACCURACY: 0
 TIMELY PREFETCHES:          0 LATE PREFETCHES: 0 DROPPED PREFETCHES: 0
LLC5 AVERAGE MISS LATENCY: 372.025 cycles

LLC5 Set Associative Eviction Count : 0
LLC5 Priority 0 entries : 12288
LLC5 Inter-Core Interference : 455210
LLC6 TOTAL     ACCESS: 764187  HIT:  1427  MISS: 762760  HIT %: 0.186734  MISS %: 99.8133  AVERAGE MISS PENALTY: 415.285
LLC6 LOAD      ACCESS:     1  HIT:     0  MISS:     1  HIT %:     0  MISS %:   100  AVERAGE MISS PENALTY: 178
LLC6 RFO       ACCESS:     0  HIT:     0  MISS:     0  HIT %:     0  MISS %:     0  AVERAGE MISS PENALTY: 0
LLC6 PREFETCH  ACCESS: 699746  HIT:  1427  MISS: 698319  HIT %: 0.203931  MISS %: 99.7961  AVERAGE MISS PENALTY: 453.607
LLC6 WRITEBACK ACCESS: 64440  HIT:     0  MISS: 64440  HIT %:     0  MISS %:   100  AVERAGE MISS PENALTY: 0
LLC6 PREFETCH  REQUESTED:     0  ISSUED:     0  USEFUL:     0  USELESS:    49
 USEFUL LOAD PREFETCHES:          0 PREFETCH ISSUED TO LOWER LEVEL:    5598854  ACCURACY: 0
 TIMELY PREFETCHES:          0 LATE PREFETCHES: 0 DROPPED PREFETCHES: 0
LLC6 AVERAGE MISS LATENCY: 415.285 cycles

LLC6 Set Associative Eviction Count : 0
LLC6 Priority 0 entries : 12288
LLC6 Inter-Core Interference : 455000
LLC7 TOTAL     ACCESS: 764452  HIT:  1717  MISS: 762735  HIT %: 0.224605  MISS %: 99.7754  AVERAGE MISS PENALTY: 408.006
LLC7 LOAD      ACCESS:   274  HIT:   232  MISS:    42  HIT %: 84.6715  MISS %: 15.3285  AVERAGE MISS PENALTY: 754.452
LLC7 RFO       ACCESS:     0  HIT:     0  MISS:     0  HIT %:     0  MISS %:     0  AVERAGE MISS PENALTY: 0
LLC7 PREFETCH  ACCESS: 699741  HIT:  1485  MISS: 698256  HIT %: 0.212221  MISS %: 99.7878  AVERAGE MISS PENALTY: 445.637
LLC7 WRITEBACK ACCESS: 64437  HIT:     0  MISS: 64437  HIT %:     0  MISS %:   100  AVERAGE MISS PENALTY: 0
LLC7 PREFETCH  REQUESTED:     0  ISSUED:     0  USEFUL:     0  USELESS:    39
 USEFUL LOAD PREFETCHES:          0 PREFETCH ISSUED TO LOWER LEVEL:    5598768  ACCURACY: 0
 TIMELY PREFETCHES:          0 LATE PREFETCHES: 0 DROPPED PREFETCHES: 0
LLC7 AVERAGE MISS LATENCY: 408.006 cycles

LLC7 Set Associative Eviction Count : 0
LLC7 Priority 0 entries : 12288
LLC7 Inter-Core Interference : 455268
ROI Average ROB Stall Cycles:	14.9552
ROI Total ROB Stalls Cycles:	420045898
ROI TOTAL ROB counter      :	28087007
ROI Average Load ROB Stall Cycles:	48.7276
ROI Total Load ROB Stalls Cycle  :	280865873
ROI Total Load ROB stalls Counter:	5763995
Major fault: 0 Minor fault: 99285

CPU 7 cumulative IPC: 0.43636 instructions: 200000003 cycles: 458336639
ITLB TOTAL     ACCESS: 24457961  HIT: 24457961  MISS:     0  HIT %:   100  MISS %:     0  AVERAGE MISS PENALTY: 0
ITLB LOAD      ACCESS: 24457961  HIT: 24457961  MISS:     0  HIT %:   100  MISS %:     0  AVERAGE MISS PENALTY: 0
ITLB RFO       ACCESS:     0  HIT:     0  MISS:     0  HIT %:     0  MISS %:     0  AVERAGE MISS PENALTY: 0
ITLB PREFETCH  ACCESS:     0  HIT:     0  MISS:     0  HIT %:     0  MISS %:     0  AVERAGE MISS PENALTY: 0
ITLB WRITEBACK ACCESS:     0  HIT:     0  MISS:     0  HIT %:     0  MISS %:     0  AVERAGE MISS PENALTY: 0
ITLB PREFETCH  REQUESTED:     0  ISSUED:     0  USEFUL:     0  USELESS:     0
 USEFUL LOAD PREFETCHES:          0 PREFETCH ISSUED TO LOWER LEVEL:          0  ACCURACY: -nan
 TIMELY PREFETCHES:          0 LATE PREFETCHES: 0 DROPPED PREFETCHES: 0
ITLB AVERAGE MISS LATENCY: -nan cycles

ITLB Set Associative Eviction Count : 0
ITLB Priority 0 entries : 0
ITLB Inter-Core Interference : 0
DTLB TOTAL     ACCESS: 35993097  HIT: 35905340  MISS: 87757  HIT %: 99.7562  MISS %: 0.243816  AVERAGE MISS PENALTY: 149.508
DTLB LOAD      ACCESS: 34404149  HIT: 34316392  MISS: 87757  HIT %: 99.7449  MISS %: 0.255077  AVERAGE MISS PENALTY: 149.508
DTLB RFO       ACCESS: 1588948  HIT: 1588948  MISS:     0  HIT %:   100  MISS %:     0  AVERAGE MISS PENALTY: 0
DTLB PREFETCH  ACCESS:     0  HIT:     0  MISS:     0  HIT %:     0  MISS %:     0  AVERAGE MISS PENALTY: 0
DTLB WRITEBACK ACCESS:     0  HIT:     0  MISS:     0  HIT %:     0  MISS %:     0  AVERAGE MISS PENALTY: 0
DTLB PREFETCH  REQUESTED:     0  ISSUED:     0  USEFUL:     0  USELESS:     0
 USEFUL LOAD PREFETCHES:          0 PREFETCH ISSUED TO LOWER LEVEL:          0  ACCURACY: -nan
 TIMELY PREFETCHES:          0 LATE PREFETCHES: 0 DROPPED PREFETCHES: 0
DTLB AVERAGE MISS LATENCY: 149.508 cycles

DTLB Set Associative Eviction Count : 0
DTLB Priority 0 entries : 0
DTLB Inter-Core Interference : 0
STLB TOTAL     ACCESS: 87757  HIT:   287  MISS: 87470  HIT %: 0.327039  MISS %: 99.673  AVERAGE MISS PENALTY: 100
STLB LOAD      ACCESS: 87757  HIT:   287  MISS: 87470  HIT %: 0.327039  MISS %: 99.673  AVERAGE MISS PENALTY: 100
STLB RFO       ACCESS:     0  HIT:     0  MISS:     0  HIT %:     0  MISS %:     0  AVERAGE MISS PENALTY: 0
STLB PREFETCH  ACCESS:     0  HIT:     0  MISS:     0  HIT %:     0  MISS %:     0  AVERAGE MISS PENALTY: 0
STLB WRITEBACK ACCESS:     0  HIT:     0  MISS:     0  HIT %:     0  MISS %:     0  AVERAGE MISS PENALTY: 0
STLB PREFETCH  REQUESTED:     0  ISSUED:     0  USEFUL:     0  USELESS:     0
 USEFUL LOAD PREFETCHES:          0 PREFETCH ISSUED TO LOWER LEVEL:          0  ACCURACY: -nan
 TIMELY PREFETCHES:          0 LATE PREFETCHES: 0 DROPPED PREFETCHES: 0
STLB AVERAGE MISS LATENCY: 100 cycles

STLB Set Associative Eviction Count : 0
STLB Priority 0 entries : 0
STLB Inter-Core Interference : 0
L1D TOTAL     ACCESS: 31320355  HIT: 25721297  MISS: 5599058  HIT %: 82.1233  MISS %: 17.8767  AVERAGE MISS PENALTY: 1.30048e+08
L1D LOAD      ACCESS: 22148563  HIT: 19973025  MISS: 2175538  HIT %: 90.1775  MISS %: 9.82248  AVERAGE MISS PENALTY: 3.34698e+08
L1D RFO       ACCESS: 2488419  HIT: 2488419  MISS:     0  HIT %:   100  MISS %:     0  AVERAGE MISS PENALTY: 0
L1D PREFETCH  ACCESS: 6683373  HIT: 3259853  MISS: 3423520  HIT %: 48.7756  MISS %: 51.2244  AVERAGE MISS PENALTY: 201.818
L1D WRITEBACK ACCESS:     0  HIT:     0  MISS:     0  HIT %:     0  MISS %:     0  AVERAGE MISS PENALTY: 0
L1D PREFETCH  REQUESTED: 14279567  ISSUED: 14279561  USEFUL: 3423516  USELESS:     8
 USEFUL LOAD PREFETCHES:    3423516 PREFETCH ISSUED TO LOWER LEVEL:   10958253  ACCURACY: 31.2414
 TIMELY PREFETCHES:    3423516 LATE PREFETCHES: 2233825 DROPPED PREFETCHES: 6
L1D AVERAGE MISS LATENCY: 218.045 cycles

L1D Set Associative Eviction Count : 0
L1D Priority 0 entries : 0
L1D Inter-Core Interference : 0
L1I TOTAL     ACCESS: 30218560  HIT: 30218552  MISS:     8  HIT %:   100  MISS %: 2.64738e-05  AVERAGE MISS PENALTY: 320.875
L1I LOAD      ACCESS: 30218560  HIT: 30218552  MISS:     8  HIT %:   100  MISS %: 2.64738e-05  AVERAGE MISS PENALTY: 320.875
L1I RFO       ACCESS:     0  HIT:     0  MISS:     0  HIT %:     0  MISS %:     0  AVERAGE MISS PENALTY: 0
L1I PREFETCH  ACCESS:     0  HIT:     0  MISS:     0  HIT %:     0  MISS %:     0  AVERAGE MISS PENALTY: 0
L1I WRITEBACK ACCESS:     0  HIT:     0  MISS:     0  HIT %:     0  MISS %:     0  AVERAGE MISS PENALTY: 0
L1I PREFETCH  REQUESTED:     0  ISSUED:     0  USEFUL:     0  USELESS:     0
 USEFUL LOAD PREFETCHES:          0 PREFETCH ISSUED TO LOWER LEVEL:          0  ACCURACY: -nan
 TIMELY PREFETCHES:          0 LATE PREFETCHES: 0 DROPPED PREFETCHES: 0
L1I AVERAGE MISS LATENCY: 320.875 cycles

L1I Set Associative Eviction Count : 0
L1I Priority 0 entries : 0
L1I Inter-Core Interference : 8
L2C TOTAL     ACCESS: 7658652  HIT: 2059670  MISS: 5598982  HIT %: 26.8934  MISS %: 73.1066  AVERAGE MISS PENALTY: 1.20165e+08
L2C LOAD      ACCESS: 2001847  HIT:   131  MISS: 2001716  HIT %: 0.00654396  MISS %: 99.9935  AVERAGE MISS PENALTY: 3.36113e+08
L2C RFO       ACCESS:     0  HIT:     0  MISS:     0  HIT %:     0  MISS %:     0  AVERAGE MISS PENALTY: 0
L2C PREFETCH  ACCESS: 5138713  HIT: 1541447  MISS: 3597266  HIT %: 29.9968  MISS %: 70.0032  AVERAGE MISS PENALTY: 398.285
L2C WRITEBACK ACCESS: 518092  HIT: 518092  MISS:     0  HIT %:   100  MISS %:     0  AVERAGE MISS PENALTY: 0
L2C PREFETCH  REQUESTED: 8626055  ISSUED: 8626055  USEFUL:    43  USELESS: 3598902
 USEFUL LOAD PREFETCHES:         43 PREFETCH ISSUED TO LOWER LEVEL:   10173319  ACCURACY: 0.000422674
 TIMELY PREFETCHES:         43 LATE PREFETCHES: 1921341 DROPPED PREFETCHES: 0
L2C AVERAGE MISS LATENCY: 346.434 cycles

L2C Set Associative Eviction Count : 0
L2C Priority 0 entries : 0
L2C Inter-Core Interference : 1053
LLC0 TOTAL     ACCESS: 764161  HIT:  1504  MISS: 762657  HIT %: 0.196817  MISS %: 99.8032  AVERAGE MISS PENALTY: 368.835
LLC0 LOAD      ACCESS: 87369  HIT:   183  MISS: 87186  HIT %: 0.209456  MISS %: 99.7905  AVERAGE MISS PENALTY: 386.124
LLC0 RFO       ACCESS:     0  HIT:     0  MISS:     0  HIT %:     0  MISS %:     0  AVERAGE MISS PENALTY: 0
LLC0 PREFETCH  ACCESS: 612380  HIT:  1321  MISS: 611059  HIT %: 0.215716  MISS %: 99.7843  AVERAGE MISS PENALTY: 405.247
LLC0 WRITEBACK ACCESS: 64412  HIT:     0  MISS: 64412  HIT %:     0  MISS %:   100  AVERAGE MISS PENALTY: 0
LLC0 PREFETCH  REQUESTED:     0  ISSUED:     0  USEFUL:     0  USELESS:    35
 USEFUL LOAD PREFETCHES:          0 PREFETCH ISSUED TO LOWER LEVEL:    4899769  ACCURACY: 0
 TIMELY PREFETCHES:          0 LATE PREFETCHES: 0 DROPPED PREFETCHES: 0
LLC0 AVERAGE MISS LATENCY: 368.834 cycles

LLC0 Set Associative Eviction Count : 0
LLC0 Priority 0 entries : 12288
LLC0 Inter-Core Interference : 454902
LLC1 TOTAL     ACCESS: 764160  HIT:  1515  MISS: 762645  HIT %: 0.198257  MISS %: 99.8017  AVERAGE MISS PENALTY: 366.424
LLC1 LOAD      ACCESS: 23220  HIT:   133  MISS: 23087  HIT %: 0.572782  MISS %: 99.4272  AVERAGE MISS PENALTY: 256.484
LLC1 RFO       ACCESS:     0  HIT:     0  MISS:     0  HIT %:     0  MISS %:     0  AVERAGE MISS PENALTY: 0
LLC1 PREFETCH  ACCESS: 676528  HIT:  1382  MISS: 675146  HIT %: 0.204278  MISS %: 99.7957  AVERAGE MISS PENALTY: 405.142
LLC1 WRITEBACK ACCESS: 64412  HIT:     0  MISS: 64412  HIT %:     0  MISS %:   100  AVERAGE MISS PENALTY: 0
LLC1 PREFETCH  REQUESTED:     0  ISSUED:     0  USEFUL:     1  USELESS:    49
 USEFUL LOAD PREFETCHES:          1 PREFETCH ISSUED TO LOWER LEVEL:    5413353  ACCURACY: 1.84728e-05
 TIMELY PREFETCHES:          1 LATE PREFETCHES: 0 DROPPED PREFETCHES: 0
LLC1 AVERAGE MISS LATENCY: 366.424 cycles

LLC1 Set Associative Eviction Count : 0
LLC1 Priority 0 entries : 12288
LLC1 Inter-Core Interference : 454924
LLC2 TOTAL     ACCESS: 764426  HIT:  1734  MISS: 762692  HIT %: 0.226837  MISS %: 99.7732  AVERAGE MISS PENALTY: 414.953
LLC2 LOAD      ACCESS:   272  HIT:   224  MISS:    48  HIT %: 82.3529  MISS %: 17.6471  AVERAGE MISS PENALTY: 690.083
LLC2 RFO       ACCESS:     0  HIT:     0  MISS:     0  HIT %:     0  MISS %:     0  AVERAGE MISS PENALTY: 0
LLC2 PREFETCH  ACCESS: 699741  HIT:  1510  MISS: 698231  HIT %: 0.215794  MISS %: 99.7842  AVERAGE MISS PENALTY: 453.214
LLC2 WRITEBACK ACCESS: 64413  HIT:     0  MISS: 64413  HIT %:     0  MISS %:   100  AVERAGE MISS PENALTY: 0
LLC2 PREFETCH  REQUESTED:     0  ISSUED:     0  USEFUL:     0  USELESS:    41
 USEFUL LOAD PREFETCHES:          0 PREFETCH ISSUED TO LOWER LEVEL:    5598812  ACCURACY: 0
 TIMELY PREFETCHES:          0 LATE PREFETCHES: 0 DROPPED PREFETCHES: 0
LLC2 AVERAGE MISS LATENCY: 414.953 cycles

LLC2 Set Associative Eviction Count : 0
LLC2 Priority 0 entries : 12288
LLC2 Inter-Core Interference : 454786
LLC3 TOTAL     ACCESS: 764426  HIT:  1732  MISS: 762694  HIT %: 0.226575  MISS %: 99.7734  AVERAGE MISS PENALTY: 410.038
LLC3 LOAD      ACCESS:   268  HIT:   213  MISS:    55  HIT %: 79.4776  MISS %: 20.5224  AVERAGE MISS PENALTY: 729.109
LLC3 RFO       ACCESS:     0  HIT:     0  MISS:     0  HIT %:     0  MISS %:     0  AVERAGE MISS PENALTY: 0
LLC3 PREFETCH  ACCESS: 699745  HIT:  1519  MISS: 698226  HIT %: 0.217079  MISS %: 99.7829  AVERAGE MISS PENALTY: 447.84
LLC3 WRITEBACK ACCESS: 64413  HIT:     0  MISS: 64413  HIT %:     0  MISS %:   100  AVERAGE MISS PENALTY: 0
LLC3 PREFETCH  REQUESTED:     0  ISSUED:     0  USEFUL:     0  USELESS:    42
 USEFUL LOAD PREFETCHES:          0 PREFETCH ISSUED TO LOWER LEVEL:    5598828  ACCURACY: 0
 TIMELY PREFETCHES:          0 LATE PREFETCHES: 0 DROPPED PREFETCHES: 0
LLC3 AVERAGE MISS LATENCY: 410.038 cycles

LLC3 Set Associative Eviction Count : 0
LLC3 Priority 0 entries : 12288
LLC3 Inter-Core Interference : 455129
LLC4 TOTAL     ACCESS: 764161  HIT:  1516  MISS: 762645  HIT %: 0.198388  MISS %: 99.8016  AVERAGE MISS PENALTY: 373.147
LLC4 LOAD      ACCESS:     8  HIT:     0  MISS:     8  HIT %:     0  MISS %:   100  AVERAGE MISS PENALTY: 234.25
LLC4 RFO       ACCESS:     0  HIT:     0  MISS:     0  HIT %:     0  MISS %:     0  AVERAGE MISS PENALTY: 0
LLC4 PREFETCH  ACCESS: 699740  HIT:  1516  MISS: 698224  HIT %: 0.216652  MISS %: 99.7833  AVERAGE MISS PENALTY: 407.573
LLC4 WRITEBACK ACCESS: 64413  HIT:     0  MISS: 64413  HIT %:     0  MISS %:   100  AVERAGE MISS PENALTY: 0
LLC4 PREFETCH  REQUESTED:     0  ISSUED:     0  USEFUL:     0  USELESS:    50
 USEFUL LOAD PREFETCHES:          0 PREFETCH ISSUED TO LOWER LEVEL:    5598851  ACCURACY: 0
 TIMELY PREFETCHES:          0 LATE PREFETCHES: 0 DROPPED PREFETCHES: 0
LLC4 AVERAGE MISS LATENCY: 373.147 cycles

LLC4 Set Associative Eviction Count : 0
LLC4 Priority 0 entries : 12288
LLC4 Inter-Core Interference : 455097
LLC5 TOTAL     ACCESS: 764367  HIT:  1705  MISS: 762662  HIT %: 0.22306  MISS %: 99.7769  AVERAGE MISS PENALTY: 366.331
LLC5 LOAD      ACCESS:   212  HIT:   207  MISS:     5  HIT %: 97.6415  MISS %: 2.35849  AVERAGE MISS PENALTY: 288.2
LLC5 RFO       ACCESS:     0  HIT:     0  MISS:     0  HIT %:     0  MISS %:     0  AVERAGE MISS PENALTY: 0
LLC5 PREFETCH  ACCESS: 699742  HIT:  1498  MISS: 698244  HIT %: 0.214079  MISS %: 99.7859  AVERAGE MISS PENALTY: 400.125
LLC5 WRITEBACK ACCESS: 64413  HIT:     0  MISS: 64413  HIT %:     0  MISS %:   100  AVERAGE MISS PENALTY: 0
LLC5 PREFETCH  REQUESTED:     0  ISSUED:     0  USEFUL:     0  USELESS:    44
 USEFUL LOAD PREFETCHES:          0 PREFETCH ISSUED TO LOWER LEVEL:    5598905  ACCURACY: 0
 TIMELY PREFETCHES:          0 LATE PREFETCHES: 0 DROPPED PREFETCHES: 0
LLC5 AVERAGE MISS LATENCY: 366.331 cycles

LLC5 Set Associative Eviction Count : 0
LLC5 Priority 0 entries : 12288
LLC5 Inter-Core Interference : 455210
LLC6 TOTAL     ACCESS: 764160  HIT:  1520  MISS: 762640  HIT %: 0.198911  MISS %: 99.8011  AVERAGE MISS PENALTY: 413.842
LLC6 LOAD      ACCESS:     2  HIT:     0  MISS:     2  HIT %:     0  MISS %:   100  AVERAGE MISS PENALTY: 262
LLC6 RFO       ACCESS:     0  HIT:     0  MISS:     0  HIT %:     0  MISS %:     0  AVERAGE MISS PENALTY: 0
LLC6 PREFETCH  ACCESS: 699745  HIT:  1520  MISS: 698225  HIT %: 0.217222  MISS %: 99.7828  AVERAGE MISS PENALTY: 452.021
LLC6 WRITEBACK ACCESS: 64413  HIT:     0  MISS: 64413  HIT %:     0  MISS %:   100  AVERAGE MISS PENALTY: 0
LLC6 PREFETCH  REQUESTED:     0  ISSUED:     0  USEFUL:     0  USELESS:    49
 USEFUL LOAD PREFETCHES:          0 PREFETCH ISSUED TO LOWER LEVEL:    5598854  ACCURACY: 0
 TIMELY PREFETCHES:          0 LATE PREFETCHES: 0 DROPPED PREFETCHES: 0
LLC6 AVERAGE MISS LATENCY: 413.842 cycles

LLC6 Set Associative Eviction Count : 0
LLC6 Priority 0 entries : 12288
LLC6 Inter-Core Interference : 455000
LLC7 TOTAL     ACCESS: 764421  HIT:  1815  MISS: 762606  HIT %: 0.237435  MISS %: 99.7626  AVERAGE MISS PENALTY: 406.231
LLC7 LOAD      ACCESS:   268  HIT:   225  MISS:    43  HIT %: 83.9552  MISS %: 16.0448  AVERAGE MISS PENALTY: 700.209
LLC7 RFO       ACCESS:     0  HIT:     0  MISS:     0  HIT %:     0  MISS %:     0  AVERAGE MISS PENALTY: 0
LLC7 PREFETCH  ACCESS: 699742  HIT:  1590  MISS: 698152  HIT %: 0.227227  MISS %: 99.7728  AVERAGE MISS PENALTY: 443.691
LLC7 WRITEBACK ACCESS: 64411  HIT:     0  MISS: 64411  HIT %:     0  MISS %:   100  AVERAGE MISS PENALTY: 0
LLC7 PREFETCH  REQUESTED:     0  ISSUED:     0  USEFUL:     0  USELESS:    39
 USEFUL LOAD PREFETCHES:          0 PREFETCH ISSUED TO LOWER LEVEL:    5598768  ACCURACY: 0
 TIMELY PREFETCHES:          0 LATE PREFETCHES: 0 DROPPED PREFETCHES: 0
LLC7 AVERAGE MISS LATENCY: 406.231 cycles

LLC7 Set Associative Eviction Count : 0
LLC7 Priority 0 entries : 12288
LLC7 Inter-Core Interference : 455268
ROI Average ROB Stall Cycles:	14.8605
ROI Total ROB Stalls Cycles:	416947124
ROI TOTAL ROB counter      :	28057375
ROI Average Load ROB Stall Cycles:	48.5564
ROI Total Load ROB Stalls Cycle  :	279521937
ROI Total Load ROB stalls Counter:	5756649
Major fault: 0 Minor fault: 99573








Interconnect Stats 
LINK 0 BW : 0LINK 1 BW : 0LINK 2 BW : 0LINK 3 BW : 0LINK 4 BW : 0LINK 5 BW : 0LINK 6 BW : 0LINK 7 BW : 0
DRAM Statistics
 CHANNEL 0
 RQ ROW_BUFFER_HIT: 10115105  ROW_BUFFER_MISS: 12280723
 DBUS_CONGESTED: 14812338
 WQ ROW_BUFFER_HIT: 134657  ROW_BUFFER_MISS: 1945127  FULL:     0

 CHANNEL 1
 RQ ROW_BUFFER_HIT: 10047025  ROW_BUFFER_MISS: 12349062
 DBUS_CONGESTED: 14812338
 WQ ROW_BUFFER_HIT: 137077  ROW_BUFFER_MISS: 1942698  FULL:     0

 AVG_CONGESTED_CYCLE: 5
DRAM PAGES: 2097152
Allocated PAGES: 794824
L2C destructor called
L1D destructor called
L1I destructor called
STLB destructor called
DTLB destructor called
ITLB destructor called
L2C destructor called
L1D destructor called
L1I destructor called
STLB destructor called
DTLB destructor called
ITLB destructor called
L2C destructor called
L1D destructor called
L1I destructor called
STLB destructor called
DTLB destructor called
ITLB destructor called
L2C destructor called
L1D destructor called
L1I destructor called
STLB destructor called
DTLB destructor called
ITLB destructor called
L2C destructor called
L1D destructor called
L1I destructor called
STLB destructor called
DTLB destructor called
ITLB destructor called
L2C destructor called
L1D destructor called
L1I destructor called
STLB destructor called
DTLB destructor called
ITLB destructor called
L2C destructor called
L1D destructor called
L1I destructor called
STLB destructor called
DTLB destructor called
ITLB destructor called
L2C destructor called
L1D destructor called
L1I destructor called
STLB destructor called
DTLB destructor called
ITLB destructor called
