
*** ChampSim Multicore Out-of-Order Simulator ***

Warmup Instructions: 200000000
Simulation Instructions: 200000000
Number of CPUs: 8
threads:1

L1I Configuration:
L1I_SET:64
L1I_WAY:8
L1I_RQ_SIZE:64
L1I_WQ_SIZE:64
L1I_PQ_SIZE:8
L1I_MSHR_SIZE:8

L1D Configuration:
L1D_SET:64
L1D_WAY:12
L1D_RQ_SIZE:64
L1D_WQ_SIZE:64
L1D_PQ_SIZE:8
L1D_MSHR_SIZE:16

L2C Configuration:
L2C_SET:1024
L2C_WAY:8
L2C_RQ_SIZE:32
L2C_WQ_SIZE:32
L2C_PQ_SIZE:16
L2C_MSHR_SIZE:32

LLC Configuration:
LLC_SET:2048
LLC_WAY:12
LLC SLICES:8
LLC_RQ_SIZE:64
LLC_WQ_SIZE:64
LLC_PQ_SIZE:32
LLC_MSHR_SIZE:64

Interconnect OFF
Attacker deprioritize is: OFF
Off-chip DRAM Size: 8192 MB Channels: 2 Width: 64-bit Data Rate: 3200 MT/s
PAGE SIZE in KB: 4.000000 
PAGE SIZE in MB: 0.003906 
PAGE offset in bits: 12 
CEASER-S_LLC:0
MIRAGE : 1
CEASER_LATENCY:3
REMAP : OFF
Partitions : 1
Multi-Step : OFF
BFS : OFF

CPU 0 runs /home/anubhav/spec_2017/603.bwaves_s-1740B.champsimtrace.xz
CPU 1 runs /home/anubhav/spec_2017/603.bwaves_s-1740B.champsimtrace.xz
CPU 2 runs /home/anubhav/spec_2017/603.bwaves_s-1740B.champsimtrace.xz
CPU 3 runs /home/anubhav/spec_2017/603.bwaves_s-1740B.champsimtrace.xz
CPU 4 runs /home/anubhav/spec_2017/603.bwaves_s-1740B.champsimtrace.xz
CPU 5 runs /home/anubhav/spec_2017/603.bwaves_s-1740B.champsimtrace.xz
CPU 6 runs /home/anubhav/spec_2017/603.bwaves_s-1740B.champsimtrace.xz
CPU 7 runs /home/anubhav/spec_2017/603.bwaves_s-1740B.champsimtrace.xz
CPU 0 Bimodal branch predictor
Initialize Hawkeye state
Initialize Hawkeye state
Initialize Hawkeye state
Initialize Hawkeye state
Initialize Hawkeye state
Initialize Hawkeye state
Initialize Hawkeye state
Initialize Hawkeye state
CPU 1 Bimodal branch predictor
Initialize Hawkeye state
Initialize Hawkeye state
Initialize Hawkeye state
Initialize Hawkeye state
Initialize Hawkeye state
Initialize Hawkeye state
Initialize Hawkeye state
Initialize Hawkeye state
CPU 2 Bimodal branch predictor
Initialize Hawkeye state
Initialize Hawkeye state
Initialize Hawkeye state
Initialize Hawkeye state
Initialize Hawkeye state
Initialize Hawkeye state
Initialize Hawkeye state
Initialize Hawkeye state
CPU 3 Bimodal branch predictor
Initialize Hawkeye state
Initialize Hawkeye state
Initialize Hawkeye state
Initialize Hawkeye state
Initialize Hawkeye state
Initialize Hawkeye state
Initialize Hawkeye state
Initialize Hawkeye state
CPU 4 Bimodal branch predictor
Initialize Hawkeye state
Initialize Hawkeye state
Initialize Hawkeye state
Initialize Hawkeye state
Initialize Hawkeye state
Initialize Hawkeye state
Initialize Hawkeye state
Initialize Hawkeye state
CPU 5 Bimodal branch predictor
Initialize Hawkeye state
Initialize Hawkeye state
Initialize Hawkeye state
Initialize Hawkeye state
Initialize Hawkeye state
Initialize Hawkeye state
Initialize Hawkeye state
Initialize Hawkeye state
CPU 6 Bimodal branch predictor
Initialize Hawkeye state
Initialize Hawkeye state
Initialize Hawkeye state
Initialize Hawkeye state
Initialize Hawkeye state
Initialize Hawkeye state
Initialize Hawkeye state
Initialize Hawkeye state
CPU 7 Bimodal branch predictor
Initialize Hawkeye state
Initialize Hawkeye state
Initialize Hawkeye state
Initialize Hawkeye state
Initialize Hawkeye state
Initialize Hawkeye state
Initialize Hawkeye state
Initialize Hawkeye state
FILL
Heartbeat CPU 0 instructions: 10000002 cycles: 5311251 heartbeat IPC: 1.8828 cumulative IPC: 1.8828 (Simulation time: 0 hr 41 min 26 sec) 
 Total Blocks : 196608 Invalid Blocks : 160923 Valid Blocks : 35685
 Total Tags : 491520 Threshold : 12288 Invalid Tags : 357532 Pr0 Tags : 98303 Pr1 Tags : 35685 num_pr0 : 12288
 SAE Count : 0
 Inter-Core Inteference in Data Store : 3278
Heartbeat CPU 2 instructions: 10000002 cycles: 5311334 heartbeat IPC: 1.88277 cumulative IPC: 1.88277 (Simulation time: 0 hr 41 min 26 sec) 
 Total Blocks : 196608 Invalid Blocks : 160922 Valid Blocks : 35686
 Total Tags : 491520 Threshold : 12288 Invalid Tags : 357531 Pr0 Tags : 98303 Pr1 Tags : 35686 num_pr0 : 12288
 SAE Count : 0
 Inter-Core Inteference in Data Store : 3278
Heartbeat CPU 1 instructions: 10000002 cycles: 5311344 heartbeat IPC: 1.88276 cumulative IPC: 1.88276 (Simulation time: 0 hr 41 min 26 sec) 
 Total Blocks : 196608 Invalid Blocks : 160922 Valid Blocks : 35686
 Total Tags : 491520 Threshold : 12288 Invalid Tags : 357531 Pr0 Tags : 98303 Pr1 Tags : 35686 num_pr0 : 12288
 SAE Count : 0
 Inter-Core Inteference in Data Store : 3278
Heartbeat CPU 7 instructions: 10000002 cycles: 5311420 heartbeat IPC: 1.88274 cumulative IPC: 1.88274 (Simulation time: 0 hr 41 min 26 sec) 
 Total Blocks : 196608 Invalid Blocks : 160922 Valid Blocks : 35686
 Total Tags : 491520 Threshold : 12288 Invalid Tags : 357531 Pr0 Tags : 98303 Pr1 Tags : 35686 num_pr0 : 12288
 SAE Count : 0
 Inter-Core Inteference in Data Store : 3278
Heartbeat CPU 4 instructions: 10000002 cycles: 5311488 heartbeat IPC: 1.88271 cumulative IPC: 1.88271 (Simulation time: 0 hr 41 min 26 sec) 
 Total Blocks : 196608 Invalid Blocks : 160921 Valid Blocks : 35687
 Total Tags : 491520 Threshold : 12288 Invalid Tags : 357530 Pr0 Tags : 98303 Pr1 Tags : 35687 num_pr0 : 12288
 SAE Count : 0
 Inter-Core Inteference in Data Store : 3278
Heartbeat CPU 5 instructions: 10000002 cycles: 5311505 heartbeat IPC: 1.88271 cumulative IPC: 1.88271 (Simulation time: 0 hr 41 min 26 sec) 
 Total Blocks : 196608 Invalid Blocks : 160921 Valid Blocks : 35687
 Total Tags : 491520 Threshold : 12288 Invalid Tags : 357530 Pr0 Tags : 98303 Pr1 Tags : 35687 num_pr0 : 12288
 SAE Count : 0
 Inter-Core Inteference in Data Store : 3278
Heartbeat CPU 6 instructions: 10000002 cycles: 5311509 heartbeat IPC: 1.8827 cumulative IPC: 1.8827 (Simulation time: 0 hr 41 min 26 sec) 
 Total Blocks : 196608 Invalid Blocks : 160921 Valid Blocks : 35687
 Total Tags : 491520 Threshold : 12288 Invalid Tags : 357530 Pr0 Tags : 98303 Pr1 Tags : 35687 num_pr0 : 12288
 SAE Count : 0
 Inter-Core Inteference in Data Store : 3278
Heartbeat CPU 3 instructions: 10000002 cycles: 5311510 heartbeat IPC: 1.8827 cumulative IPC: 1.8827 (Simulation time: 0 hr 41 min 26 sec) 
 Total Blocks : 196608 Invalid Blocks : 160921 Valid Blocks : 35687
 Total Tags : 491520 Threshold : 12288 Invalid Tags : 357530 Pr0 Tags : 98303 Pr1 Tags : 35687 num_pr0 : 12288
 SAE Count : 0
 Inter-Core Inteference in Data Store : 3278
Heartbeat CPU 0 instructions: 20000002 cycles: 10622928 heartbeat IPC: 1.88264 cumulative IPC: 1.88272 (Simulation time: 1 hr 35 min 9 sec) 
 Total Blocks : 196608 Invalid Blocks : 131165 Valid Blocks : 65443
 Total Tags : 491520 Threshold : 12288 Invalid Tags : 327773 Pr0 Tags : 98304 Pr1 Tags : 65443 num_pr0 : 12288
 SAE Count : 0
 Inter-Core Inteference in Data Store : 12347
Heartbeat CPU 1 instructions: 20000002 cycles: 10623024 heartbeat IPC: 1.88264 cumulative IPC: 1.8827 (Simulation time: 1 hr 35 min 9 sec) 
 Total Blocks : 196608 Invalid Blocks : 131164 Valid Blocks : 65444
 Total Tags : 491520 Threshold : 12288 Invalid Tags : 327774 Pr0 Tags : 98302 Pr1 Tags : 65444 num_pr0 : 12288
 SAE Count : 0
 Inter-Core Inteference in Data Store : 12348
Heartbeat CPU 2 instructions: 20000002 cycles: 10623059 heartbeat IPC: 1.88263 cumulative IPC: 1.8827 (Simulation time: 1 hr 35 min 9 sec) 
 Total Blocks : 196608 Invalid Blocks : 131163 Valid Blocks : 65445
 Total Tags : 491520 Threshold : 12288 Invalid Tags : 327772 Pr0 Tags : 98303 Pr1 Tags : 65445 num_pr0 : 12288
 SAE Count : 0
 Inter-Core Inteference in Data Store : 12348
Heartbeat CPU 7 instructions: 20000002 cycles: 10623091 heartbeat IPC: 1.88265 cumulative IPC: 1.88269 (Simulation time: 1 hr 35 min 9 sec) 
 Total Blocks : 196608 Invalid Blocks : 131163 Valid Blocks : 65445
 Total Tags : 491520 Threshold : 12288 Invalid Tags : 327771 Pr0 Tags : 98304 Pr1 Tags : 65445 num_pr0 : 12288
 SAE Count : 0
 Inter-Core Inteference in Data Store : 12350
Heartbeat CPU 4 instructions: 20000002 cycles: 10623171 heartbeat IPC: 1.88264 cumulative IPC: 1.88268 (Simulation time: 1 hr 35 min 10 sec) 
 Total Blocks : 196608 Invalid Blocks : 131163 Valid Blocks : 65445
 Total Tags : 491520 Threshold : 12288 Invalid Tags : 327771 Pr0 Tags : 98304 Pr1 Tags : 65445 num_pr0 : 12288
 SAE Count : 0
 Inter-Core Inteference in Data Store : 12350
Heartbeat CPU 5 instructions: 20000002 cycles: 10623339 heartbeat IPC: 1.88259 cumulative IPC: 1.88265 (Simulation time: 1 hr 35 min 10 sec) 
 Total Blocks : 196608 Invalid Blocks : 131162 Valid Blocks : 65446
 Total Tags : 491520 Threshold : 12288 Invalid Tags : 327771 Pr0 Tags : 98303 Pr1 Tags : 65446 num_pr0 : 12288
 SAE Count : 0
 Inter-Core Inteference in Data Store : 12351
Heartbeat CPU 6 instructions: 20000002 cycles: 10623340 heartbeat IPC: 1.88259 cumulative IPC: 1.88265 (Simulation time: 1 hr 35 min 10 sec) 
 Total Blocks : 196608 Invalid Blocks : 131162 Valid Blocks : 65446
 Total Tags : 491520 Threshold : 12288 Invalid Tags : 327771 Pr0 Tags : 98303 Pr1 Tags : 65446 num_pr0 : 12288
 SAE Count : 0
 Inter-Core Inteference in Data Store : 12351
Heartbeat CPU 3 instructions: 20000002 cycles: 10623341 heartbeat IPC: 1.88259 cumulative IPC: 1.88265 (Simulation time: 1 hr 35 min 10 sec) 
 Total Blocks : 196608 Invalid Blocks : 131162 Valid Blocks : 65446
 Total Tags : 491520 Threshold : 12288 Invalid Tags : 327771 Pr0 Tags : 98303 Pr1 Tags : 65446 num_pr0 : 12288
 SAE Count : 0
 Inter-Core Inteference in Data Store : 12351
Heartbeat CPU 0 instructions: 30000002 cycles: 15934225 heartbeat IPC: 1.88278 cumulative IPC: 1.88274 (Simulation time: 2 hr 41 min 37 sec) 
 Total Blocks : 196608 Invalid Blocks : 107177 Valid Blocks : 89431
 Total Tags : 491520 Threshold : 12288 Invalid Tags : 303785 Pr0 Tags : 98304 Pr1 Tags : 89431 num_pr0 : 12288
 SAE Count : 0
 Inter-Core Inteference in Data Store : 25886
Heartbeat CPU 1 instructions: 30000002 cycles: 15934319 heartbeat IPC: 1.88278 cumulative IPC: 1.88273 (Simulation time: 2 hr 41 min 37 sec) 
 Total Blocks : 196608 Invalid Blocks : 107177 Valid Blocks : 89431
 Total Tags : 491520 Threshold : 12288 Invalid Tags : 303785 Pr0 Tags : 98304 Pr1 Tags : 89431 num_pr0 : 12288
 SAE Count : 0
 Inter-Core Inteference in Data Store : 25886
Heartbeat CPU 2 instructions: 30000002 cycles: 15934359 heartbeat IPC: 1.88278 cumulative IPC: 1.88272 (Simulation time: 2 hr 41 min 37 sec) 
 Total Blocks : 196608 Invalid Blocks : 107177 Valid Blocks : 89431
 Total Tags : 491520 Threshold : 12288 Invalid Tags : 303785 Pr0 Tags : 98304 Pr1 Tags : 89431 num_pr0 : 12288
 SAE Count : 0
 Inter-Core Inteference in Data Store : 25886
Heartbeat CPU 7 instructions: 30000002 cycles: 15934399 heartbeat IPC: 1.88278 cumulative IPC: 1.88272 (Simulation time: 2 hr 41 min 37 sec) 
 Total Blocks : 196608 Invalid Blocks : 107177 Valid Blocks : 89431
 Total Tags : 491520 Threshold : 12288 Invalid Tags : 303785 Pr0 Tags : 98304 Pr1 Tags : 89431 num_pr0 : 12288
 SAE Count : 0
 Inter-Core Inteference in Data Store : 25886
Heartbeat CPU 4 instructions: 30000002 cycles: 15934434 heartbeat IPC: 1.88279 cumulative IPC: 1.88272 (Simulation time: 2 hr 41 min 37 sec) 
 Total Blocks : 196608 Invalid Blocks : 107177 Valid Blocks : 89431
 Total Tags : 491520 Threshold : 12288 Invalid Tags : 303785 Pr0 Tags : 98304 Pr1 Tags : 89431 num_pr0 : 12288
 SAE Count : 0
 Inter-Core Inteference in Data Store : 25886
Heartbeat CPU 5 instructions: 30000002 cycles: 15934637 heartbeat IPC: 1.88278 cumulative IPC: 1.88269 (Simulation time: 2 hr 41 min 37 sec) 
 Total Blocks : 196608 Invalid Blocks : 107177 Valid Blocks : 89431
 Total Tags : 491520 Threshold : 12288 Invalid Tags : 303785 Pr0 Tags : 98304 Pr1 Tags : 89431 num_pr0 : 12288
 SAE Count : 0
 Inter-Core Inteference in Data Store : 25886
Heartbeat CPU 6 instructions: 30000002 cycles: 15934657 heartbeat IPC: 1.88277 cumulative IPC: 1.88269 (Simulation time: 2 hr 41 min 37 sec) 
 Total Blocks : 196608 Invalid Blocks : 107177 Valid Blocks : 89431
 Total Tags : 491520 Threshold : 12288 Invalid Tags : 303785 Pr0 Tags : 98304 Pr1 Tags : 89431 num_pr0 : 12288
 SAE Count : 0
 Inter-Core Inteference in Data Store : 25886
Heartbeat CPU 3 instructions: 30000002 cycles: 15934672 heartbeat IPC: 1.88277 cumulative IPC: 1.88269 (Simulation time: 2 hr 41 min 37 sec) 
 Total Blocks : 196608 Invalid Blocks : 107177 Valid Blocks : 89431
 Total Tags : 491520 Threshold : 12288 Invalid Tags : 303785 Pr0 Tags : 98304 Pr1 Tags : 89431 num_pr0 : 12288
 SAE Count : 0
 Inter-Core Inteference in Data Store : 25887
Heartbeat CPU 0 instructions: 40000003 cycles: 21244947 heartbeat IPC: 1.88298 cumulative IPC: 1.8828 (Simulation time: 4 hr 1 min 27 sec) 
 Total Blocks : 196608 Invalid Blocks : 87965 Valid Blocks : 108643
 Total Tags : 491520 Threshold : 12288 Invalid Tags : 284573 Pr0 Tags : 98304 Pr1 Tags : 108643 num_pr0 : 12288
 SAE Count : 0
 Inter-Core Inteference in Data Store : 43076
Heartbeat CPU 1 instructions: 40000003 cycles: 21245006 heartbeat IPC: 1.883 cumulative IPC: 1.8828 (Simulation time: 4 hr 1 min 27 sec) 
 Total Blocks : 196608 Invalid Blocks : 87965 Valid Blocks : 108643
 Total Tags : 491520 Threshold : 12288 Invalid Tags : 284573 Pr0 Tags : 98304 Pr1 Tags : 108643 num_pr0 : 12288
 SAE Count : 0
 Inter-Core Inteference in Data Store : 43076
Heartbeat CPU 2 instructions: 40000003 cycles: 21245079 heartbeat IPC: 1.88298 cumulative IPC: 1.88279 (Simulation time: 4 hr 1 min 27 sec) 
 Total Blocks : 196608 Invalid Blocks : 87965 Valid Blocks : 108643
 Total Tags : 491520 Threshold : 12288 Invalid Tags : 284573 Pr0 Tags : 98304 Pr1 Tags : 108643 num_pr0 : 12288
 SAE Count : 0
 Inter-Core Inteference in Data Store : 43076
Heartbeat CPU 4 instructions: 40000003 cycles: 21245140 heartbeat IPC: 1.88299 cumulative IPC: 1.88278 (Simulation time: 4 hr 1 min 27 sec) 
 Total Blocks : 196608 Invalid Blocks : 87965 Valid Blocks : 108643
 Total Tags : 491520 Threshold : 12288 Invalid Tags : 284573 Pr0 Tags : 98304 Pr1 Tags : 108643 num_pr0 : 12288
 SAE Count : 0
 Inter-Core Inteference in Data Store : 43077
Heartbeat CPU 7 instructions: 40000003 cycles: 21245149 heartbeat IPC: 1.88297 cumulative IPC: 1.88278 (Simulation time: 4 hr 1 min 27 sec) 
 Total Blocks : 196608 Invalid Blocks : 87965 Valid Blocks : 108643
 Total Tags : 491520 Threshold : 12288 Invalid Tags : 284573 Pr0 Tags : 98304 Pr1 Tags : 108643 num_pr0 : 12288
 SAE Count : 0
 Inter-Core Inteference in Data Store : 43077
Heartbeat CPU 5 instructions: 40000003 cycles: 21245357 heartbeat IPC: 1.88298 cumulative IPC: 1.88276 (Simulation time: 4 hr 1 min 27 sec) 
 Total Blocks : 196608 Invalid Blocks : 87962 Valid Blocks : 108646
 Total Tags : 491520 Threshold : 12288 Invalid Tags : 284570 Pr0 Tags : 98304 Pr1 Tags : 108646 num_pr0 : 12288
 SAE Count : 0
 Inter-Core Inteference in Data Store : 43079
Heartbeat CPU 6 instructions: 40000003 cycles: 21245408 heartbeat IPC: 1.88297 cumulative IPC: 1.88276 (Simulation time: 4 hr 1 min 27 sec) 
 Total Blocks : 196608 Invalid Blocks : 87962 Valid Blocks : 108646
 Total Tags : 491520 Threshold : 12288 Invalid Tags : 284570 Pr0 Tags : 98304 Pr1 Tags : 108646 num_pr0 : 12288
 SAE Count : 0
 Inter-Core Inteference in Data Store : 43080
Heartbeat CPU 3 instructions: 40000003 cycles: 21245414 heartbeat IPC: 1.88298 cumulative IPC: 1.88276 (Simulation time: 4 hr 1 min 27 sec) 
 Total Blocks : 196608 Invalid Blocks : 87962 Valid Blocks : 108646
 Total Tags : 491520 Threshold : 12288 Invalid Tags : 284570 Pr0 Tags : 98304 Pr1 Tags : 108646 num_pr0 : 12288
 SAE Count : 0
 Inter-Core Inteference in Data Store : 43080
Heartbeat CPU 0 instructions: 50000003 cycles: 26556171 heartbeat IPC: 1.88281 cumulative IPC: 1.8828 (Simulation time: 5 hr 31 min 5 sec) 
 Total Blocks : 196608 Invalid Blocks : 72022 Valid Blocks : 124586
 Total Tags : 491520 Threshold : 12288 Invalid Tags : 268631 Pr0 Tags : 98303 Pr1 Tags : 124586 num_pr0 : 12288
 SAE Count : 0
 Inter-Core Inteference in Data Store : 63428
Heartbeat CPU 1 instructions: 50000003 cycles: 26556224 heartbeat IPC: 1.88281 cumulative IPC: 1.8828 (Simulation time: 5 hr 31 min 5 sec) 
 Total Blocks : 196608 Invalid Blocks : 72022 Valid Blocks : 124586
 Total Tags : 491520 Threshold : 12288 Invalid Tags : 268631 Pr0 Tags : 98303 Pr1 Tags : 124586 num_pr0 : 12288
 SAE Count : 0
 Inter-Core Inteference in Data Store : 63428
Heartbeat CPU 2 instructions: 50000003 cycles: 26556305 heartbeat IPC: 1.8828 cumulative IPC: 1.88279 (Simulation time: 5 hr 31 min 5 sec) 
 Total Blocks : 196608 Invalid Blocks : 72022 Valid Blocks : 124586
 Total Tags : 491520 Threshold : 12288 Invalid Tags : 268631 Pr0 Tags : 98303 Pr1 Tags : 124586 num_pr0 : 12288
 SAE Count : 0
 Inter-Core Inteference in Data Store : 63429
Heartbeat CPU 4 instructions: 50000003 cycles: 26556365 heartbeat IPC: 1.8828 cumulative IPC: 1.88279 (Simulation time: 5 hr 31 min 6 sec) 
 Total Blocks : 196608 Invalid Blocks : 72022 Valid Blocks : 124586
 Total Tags : 491520 Threshold : 12288 Invalid Tags : 268631 Pr0 Tags : 98303 Pr1 Tags : 124586 num_pr0 : 12288
 SAE Count : 0
 Inter-Core Inteference in Data Store : 63429
Heartbeat CPU 7 instructions: 50000003 cycles: 26556378 heartbeat IPC: 1.8828 cumulative IPC: 1.88279 (Simulation time: 5 hr 31 min 6 sec) 
 Total Blocks : 196608 Invalid Blocks : 72022 Valid Blocks : 124586
 Total Tags : 491520 Threshold : 12288 Invalid Tags : 268631 Pr0 Tags : 98303 Pr1 Tags : 124586 num_pr0 : 12288
 SAE Count : 0
 Inter-Core Inteference in Data Store : 63429
Heartbeat CPU 5 instructions: 50000003 cycles: 26556582 heartbeat IPC: 1.8828 cumulative IPC: 1.88277 (Simulation time: 5 hr 31 min 6 sec) 
 Total Blocks : 196608 Invalid Blocks : 72020 Valid Blocks : 124588
 Total Tags : 491520 Threshold : 12288 Invalid Tags : 268628 Pr0 Tags : 98304 Pr1 Tags : 124588 num_pr0 : 12288
 SAE Count : 0
 Inter-Core Inteference in Data Store : 63430
Heartbeat CPU 3 instructions: 50000003 cycles: 26556638 heartbeat IPC: 1.88281 cumulative IPC: 1.88277 (Simulation time: 5 hr 31 min 6 sec) 
 Total Blocks : 196608 Invalid Blocks : 72018 Valid Blocks : 124590
 Total Tags : 491520 Threshold : 12288 Invalid Tags : 268628 Pr0 Tags : 98302 Pr1 Tags : 124590 num_pr0 : 12288
 SAE Count : 0
 Inter-Core Inteference in Data Store : 63430
Heartbeat CPU 6 instructions: 50000003 cycles: 26556643 heartbeat IPC: 1.8828 cumulative IPC: 1.88277 (Simulation time: 5 hr 31 min 6 sec) 
 Total Blocks : 196608 Invalid Blocks : 72018 Valid Blocks : 124590
 Total Tags : 491520 Threshold : 12288 Invalid Tags : 268626 Pr0 Tags : 98304 Pr1 Tags : 124590 num_pr0 : 12288
 SAE Count : 0
 Inter-Core Inteference in Data Store : 63430
Heartbeat CPU 0 instructions: 60000002 cycles: 31867887 heartbeat IPC: 1.88263 cumulative IPC: 1.88277 (Simulation time: 7 hr 11 min 48 sec) 
 Total Blocks : 196608 Invalid Blocks : 58899 Valid Blocks : 137709
 Total Tags : 491520 Threshold : 12288 Invalid Tags : 255507 Pr0 Tags : 98304 Pr1 Tags : 137709 num_pr0 : 12288
 SAE Count : 0
 Inter-Core Inteference in Data Store : 86346
Heartbeat CPU 1 instructions: 60000002 cycles: 31867923 heartbeat IPC: 1.88264 cumulative IPC: 1.88277 (Simulation time: 7 hr 11 min 48 sec) 
 Total Blocks : 196608 Invalid Blocks : 58899 Valid Blocks : 137709
 Total Tags : 491520 Threshold : 12288 Invalid Tags : 255507 Pr0 Tags : 98304 Pr1 Tags : 137709 num_pr0 : 12288
 SAE Count : 0
 Inter-Core Inteference in Data Store : 86346
Heartbeat CPU 2 instructions: 60000002 cycles: 31868031 heartbeat IPC: 1.88263 cumulative IPC: 1.88276 (Simulation time: 7 hr 11 min 48 sec) 
 Total Blocks : 196608 Invalid Blocks : 58899 Valid Blocks : 137709
 Total Tags : 491520 Threshold : 12288 Invalid Tags : 255507 Pr0 Tags : 98304 Pr1 Tags : 137709 num_pr0 : 12288
 SAE Count : 0
 Inter-Core Inteference in Data Store : 86348
Heartbeat CPU 4 instructions: 60000002 cycles: 31868107 heartbeat IPC: 1.88262 cumulative IPC: 1.88276 (Simulation time: 7 hr 11 min 48 sec) 
 Total Blocks : 196608 Invalid Blocks : 58899 Valid Blocks : 137709
 Total Tags : 491520 Threshold : 12288 Invalid Tags : 255507 Pr0 Tags : 98304 Pr1 Tags : 137709 num_pr0 : 12288
 SAE Count : 0
 Inter-Core Inteference in Data Store : 86348
Heartbeat CPU 7 instructions: 60000002 cycles: 31868130 heartbeat IPC: 1.88262 cumulative IPC: 1.88276 (Simulation time: 7 hr 11 min 48 sec) 
 Total Blocks : 196608 Invalid Blocks : 58899 Valid Blocks : 137709
 Total Tags : 491520 Threshold : 12288 Invalid Tags : 255507 Pr0 Tags : 98304 Pr1 Tags : 137709 num_pr0 : 12288
 SAE Count : 0
 Inter-Core Inteference in Data Store : 86348
Heartbeat CPU 5 instructions: 60000002 cycles: 31868312 heartbeat IPC: 1.88263 cumulative IPC: 1.88275 (Simulation time: 7 hr 11 min 48 sec) 
 Total Blocks : 196608 Invalid Blocks : 58899 Valid Blocks : 137709
 Total Tags : 491520 Threshold : 12288 Invalid Tags : 255507 Pr0 Tags : 98304 Pr1 Tags : 137709 num_pr0 : 12288
 SAE Count : 0
 Inter-Core Inteference in Data Store : 86349
Heartbeat CPU 3 instructions: 60000002 cycles: 31868378 heartbeat IPC: 1.88262 cumulative IPC: 1.88274 (Simulation time: 7 hr 11 min 49 sec) 
 Total Blocks : 196608 Invalid Blocks : 58899 Valid Blocks : 137709
 Total Tags : 491520 Threshold : 12288 Invalid Tags : 255508 Pr0 Tags : 98303 Pr1 Tags : 137709 num_pr0 : 12288
 SAE Count : 0
 Inter-Core Inteference in Data Store : 86350
Heartbeat CPU 6 instructions: 60000002 cycles: 31868395 heartbeat IPC: 1.88262 cumulative IPC: 1.88274 (Simulation time: 7 hr 11 min 49 sec) 
 Total Blocks : 196608 Invalid Blocks : 58899 Valid Blocks : 137709
 Total Tags : 491520 Threshold : 12288 Invalid Tags : 255508 Pr0 Tags : 98303 Pr1 Tags : 137709 num_pr0 : 12288
 SAE Count : 0
 Inter-Core Inteference in Data Store : 86350
Heartbeat CPU 0 instructions: 70000001 cycles: 37179023 heartbeat IPC: 1.88284 cumulative IPC: 1.88278 (Simulation time: 9 hr 0 min 47 sec) 
 Total Blocks : 196608 Invalid Blocks : 48226 Valid Blocks : 148382
 Total Tags : 491520 Threshold : 12288 Invalid Tags : 244834 Pr0 Tags : 98304 Pr1 Tags : 148382 num_pr0 : 12288
 SAE Count : 0
 Inter-Core Inteference in Data Store : 111351
Heartbeat CPU 1 instructions: 70000001 cycles: 37179029 heartbeat IPC: 1.88285 cumulative IPC: 1.88278 (Simulation time: 9 hr 0 min 48 sec) 
 Total Blocks : 196608 Invalid Blocks : 48226 Valid Blocks : 148382
 Total Tags : 491520 Threshold : 12288 Invalid Tags : 244834 Pr0 Tags : 98304 Pr1 Tags : 148382 num_pr0 : 12288
 SAE Count : 0
 Inter-Core Inteference in Data Store : 111351
Heartbeat CPU 2 instructions: 70000001 cycles: 37179168 heartbeat IPC: 1.88284 cumulative IPC: 1.88277 (Simulation time: 9 hr 0 min 48 sec) 
 Total Blocks : 196608 Invalid Blocks : 48225 Valid Blocks : 148383
 Total Tags : 491520 Threshold : 12288 Invalid Tags : 244833 Pr0 Tags : 98304 Pr1 Tags : 148383 num_pr0 : 12288
 SAE Count : 0
 Inter-Core Inteference in Data Store : 111351
Heartbeat CPU 4 instructions: 70000001 cycles: 37179267 heartbeat IPC: 1.88283 cumulative IPC: 1.88277 (Simulation time: 9 hr 0 min 48 sec) 
 Total Blocks : 196608 Invalid Blocks : 48225 Valid Blocks : 148383
 Total Tags : 491520 Threshold : 12288 Invalid Tags : 244833 Pr0 Tags : 98304 Pr1 Tags : 148383 num_pr0 : 12288
 SAE Count : 0
 Inter-Core Inteference in Data Store : 111351
Heartbeat CPU 7 instructions: 70000001 cycles: 37179302 heartbeat IPC: 1.88282 cumulative IPC: 1.88277 (Simulation time: 9 hr 0 min 48 sec) 
 Total Blocks : 196608 Invalid Blocks : 48225 Valid Blocks : 148383
 Total Tags : 491520 Threshold : 12288 Invalid Tags : 244833 Pr0 Tags : 98304 Pr1 Tags : 148383 num_pr0 : 12288
 SAE Count : 0
 Inter-Core Inteference in Data Store : 111351
Heartbeat CPU 5 instructions: 70000001 cycles: 37179452 heartbeat IPC: 1.88283 cumulative IPC: 1.88276 (Simulation time: 9 hr 0 min 48 sec) 
 Total Blocks : 196608 Invalid Blocks : 48225 Valid Blocks : 148383
 Total Tags : 491520 Threshold : 12288 Invalid Tags : 244833 Pr0 Tags : 98304 Pr1 Tags : 148383 num_pr0 : 12288
 SAE Count : 0
 Inter-Core Inteference in Data Store : 111352
Heartbeat CPU 3 instructions: 70000001 cycles: 37179544 heartbeat IPC: 1.88283 cumulative IPC: 1.88276 (Simulation time: 9 hr 0 min 48 sec) 
 Total Blocks : 196608 Invalid Blocks : 48225 Valid Blocks : 148383
 Total Tags : 491520 Threshold : 12288 Invalid Tags : 244833 Pr0 Tags : 98304 Pr1 Tags : 148383 num_pr0 : 12288
 SAE Count : 0
 Inter-Core Inteference in Data Store : 111352
Heartbeat CPU 6 instructions: 70000001 cycles: 37179569 heartbeat IPC: 1.88282 cumulative IPC: 1.88275 (Simulation time: 9 hr 0 min 48 sec) 
 Total Blocks : 196608 Invalid Blocks : 48225 Valid Blocks : 148383
 Total Tags : 491520 Threshold : 12288 Invalid Tags : 244833 Pr0 Tags : 98304 Pr1 Tags : 148383 num_pr0 : 12288
 SAE Count : 0
 Inter-Core Inteference in Data Store : 111352
Heartbeat CPU 1 instructions: 80000000 cycles: 42489851 heartbeat IPC: 1.88295 cumulative IPC: 1.8828 (Simulation time: 10 hr 56 min 13 sec) 
 Total Blocks : 196608 Invalid Blocks : 39634 Valid Blocks : 156974
 Total Tags : 491520 Threshold : 12288 Invalid Tags : 236242 Pr0 Tags : 98304 Pr1 Tags : 156974 num_pr0 : 12288
 SAE Count : 0
 Inter-Core Inteference in Data Store : 138284
Heartbeat CPU 0 instructions: 80000000 cycles: 42489852 heartbeat IPC: 1.88295 cumulative IPC: 1.8828 (Simulation time: 10 hr 56 min 13 sec) 
 Total Blocks : 196608 Invalid Blocks : 39634 Valid Blocks : 156974
 Total Tags : 491520 Threshold : 12288 Invalid Tags : 236242 Pr0 Tags : 98304 Pr1 Tags : 156974 num_pr0 : 12288
 SAE Count : 0
 Inter-Core Inteference in Data Store : 138284
Heartbeat CPU 2 instructions: 80000000 cycles: 42489942 heartbeat IPC: 1.88296 cumulative IPC: 1.8828 (Simulation time: 10 hr 56 min 13 sec) 
 Total Blocks : 196608 Invalid Blocks : 39634 Valid Blocks : 156974
 Total Tags : 491520 Threshold : 12288 Invalid Tags : 236242 Pr0 Tags : 98304 Pr1 Tags : 156974 num_pr0 : 12288
 SAE Count : 0
 Inter-Core Inteference in Data Store : 138284
Heartbeat CPU 4 instructions: 80000000 cycles: 42490081 heartbeat IPC: 1.88295 cumulative IPC: 1.88279 (Simulation time: 10 hr 56 min 13 sec) 
 Total Blocks : 196608 Invalid Blocks : 39634 Valid Blocks : 156974
 Total Tags : 491520 Threshold : 12288 Invalid Tags : 236242 Pr0 Tags : 98304 Pr1 Tags : 156974 num_pr0 : 12288
 SAE Count : 0
 Inter-Core Inteference in Data Store : 138284
Heartbeat CPU 7 instructions: 80000000 cycles: 42490116 heartbeat IPC: 1.88295 cumulative IPC: 1.88279 (Simulation time: 10 hr 56 min 13 sec) 
 Total Blocks : 196608 Invalid Blocks : 39634 Valid Blocks : 156974
 Total Tags : 491520 Threshold : 12288 Invalid Tags : 236242 Pr0 Tags : 98304 Pr1 Tags : 156974 num_pr0 : 12288
 SAE Count : 0
 Inter-Core Inteference in Data Store : 138284
Heartbeat CPU 5 instructions: 80000000 cycles: 42490227 heartbeat IPC: 1.88296 cumulative IPC: 1.88279 (Simulation time: 10 hr 56 min 13 sec) 
 Total Blocks : 196608 Invalid Blocks : 39634 Valid Blocks : 156974
 Total Tags : 491520 Threshold : 12288 Invalid Tags : 236242 Pr0 Tags : 98304 Pr1 Tags : 156974 num_pr0 : 12288
 SAE Count : 0
 Inter-Core Inteference in Data Store : 138284
Heartbeat CPU 3 instructions: 80000000 cycles: 42490361 heartbeat IPC: 1.88295 cumulative IPC: 1.88278 (Simulation time: 10 hr 56 min 14 sec) 
 Total Blocks : 196608 Invalid Blocks : 39634 Valid Blocks : 156974
 Total Tags : 491520 Threshold : 12288 Invalid Tags : 236242 Pr0 Tags : 98304 Pr1 Tags : 156974 num_pr0 : 12288
 SAE Count : 0
 Inter-Core Inteference in Data Store : 138284
Heartbeat CPU 6 instructions: 80000000 cycles: 42490396 heartbeat IPC: 1.88295 cumulative IPC: 1.88278 (Simulation time: 10 hr 56 min 14 sec) 
 Total Blocks : 196608 Invalid Blocks : 39634 Valid Blocks : 156974
 Total Tags : 491520 Threshold : 12288 Invalid Tags : 236242 Pr0 Tags : 98304 Pr1 Tags : 156974 num_pr0 : 12288
 SAE Count : 0
 Inter-Core Inteference in Data Store : 138284
Heartbeat CPU 1 instructions: 90000003 cycles: 47801314 heartbeat IPC: 1.88272 cumulative IPC: 1.88279 (Simulation time: 13 hr 4 min 49 sec) 
 Total Blocks : 196608 Invalid Blocks : 32500 Valid Blocks : 164108
 Total Tags : 491520 Threshold : 12288 Invalid Tags : 229108 Pr0 Tags : 98304 Pr1 Tags : 164108 num_pr0 : 12288
 SAE Count : 0
 Inter-Core Inteference in Data Store : 166402
Heartbeat CPU 0 instructions: 90000003 cycles: 47801327 heartbeat IPC: 1.88272 cumulative IPC: 1.88279 (Simulation time: 13 hr 4 min 49 sec) 
 Total Blocks : 196608 Invalid Blocks : 32500 Valid Blocks : 164108
 Total Tags : 491520 Threshold : 12288 Invalid Tags : 229108 Pr0 Tags : 98304 Pr1 Tags : 164108 num_pr0 : 12288
 SAE Count : 0
 Inter-Core Inteference in Data Store : 166402
Heartbeat CPU 2 instructions: 90000003 cycles: 47801377 heartbeat IPC: 1.88273 cumulative IPC: 1.88279 (Simulation time: 13 hr 4 min 49 sec) 
 Total Blocks : 196608 Invalid Blocks : 32500 Valid Blocks : 164108
 Total Tags : 491520 Threshold : 12288 Invalid Tags : 229108 Pr0 Tags : 98304 Pr1 Tags : 164108 num_pr0 : 12288
 SAE Count : 0
 Inter-Core Inteference in Data Store : 166402
Heartbeat CPU 4 instructions: 90000003 cycles: 47801539 heartbeat IPC: 1.88272 cumulative IPC: 1.88278 (Simulation time: 13 hr 4 min 49 sec) 
 Total Blocks : 196608 Invalid Blocks : 32500 Valid Blocks : 164108
 Total Tags : 491520 Threshold : 12288 Invalid Tags : 229109 Pr0 Tags : 98303 Pr1 Tags : 164108 num_pr0 : 12287
 SAE Count : 0
 Inter-Core Inteference in Data Store : 166404
Heartbeat CPU 7 instructions: 90000003 cycles: 47801576 heartbeat IPC: 1.88272 cumulative IPC: 1.88278 (Simulation time: 13 hr 4 min 49 sec) 
 Total Blocks : 196608 Invalid Blocks : 32500 Valid Blocks : 164108
 Total Tags : 491520 Threshold : 12288 Invalid Tags : 229108 Pr0 Tags : 98304 Pr1 Tags : 164108 num_pr0 : 12288
 SAE Count : 0
 Inter-Core Inteference in Data Store : 166404
Heartbeat CPU 5 instructions: 90000003 cycles: 47801663 heartbeat IPC: 1.88273 cumulative IPC: 1.88278 (Simulation time: 13 hr 4 min 49 sec) 
 Total Blocks : 196608 Invalid Blocks : 32500 Valid Blocks : 164108
 Total Tags : 491520 Threshold : 12288 Invalid Tags : 229108 Pr0 Tags : 98304 Pr1 Tags : 164108 num_pr0 : 12288
 SAE Count : 0
 Inter-Core Inteference in Data Store : 166404
Heartbeat CPU 3 instructions: 90000003 cycles: 47801816 heartbeat IPC: 1.88272 cumulative IPC: 1.88277 (Simulation time: 13 hr 4 min 49 sec) 
 Total Blocks : 196608 Invalid Blocks : 32499 Valid Blocks : 164109
 Total Tags : 491520 Threshold : 12288 Invalid Tags : 229108 Pr0 Tags : 98303 Pr1 Tags : 164109 num_pr0 : 12287
 SAE Count : 0
 Inter-Core Inteference in Data Store : 166404
Heartbeat CPU 6 instructions: 90000003 cycles: 47801854 heartbeat IPC: 1.88272 cumulative IPC: 1.88277 (Simulation time: 13 hr 4 min 49 sec) 
 Total Blocks : 196608 Invalid Blocks : 32499 Valid Blocks : 164109
 Total Tags : 491520 Threshold : 12288 Invalid Tags : 229108 Pr0 Tags : 98303 Pr1 Tags : 164109 num_pr0 : 12287
 SAE Count : 0
 Inter-Core Inteference in Data Store : 166404
Heartbeat CPU 1 instructions: 100000001 cycles: 53112942 heartbeat IPC: 1.88266 cumulative IPC: 1.88278 (Simulation time: 15 hr 15 min 40 sec) 
 Total Blocks : 196608 Invalid Blocks : 26530 Valid Blocks : 170078
 Total Tags : 491520 Threshold : 12288 Invalid Tags : 223138 Pr0 Tags : 98304 Pr1 Tags : 170078 num_pr0 : 12288
 SAE Count : 0
 Inter-Core Inteference in Data Store : 195557
Heartbeat CPU 0 instructions: 100000001 cycles: 53112957 heartbeat IPC: 1.88266 cumulative IPC: 1.88278 (Simulation time: 15 hr 15 min 40 sec) 
 Total Blocks : 196608 Invalid Blocks : 26530 Valid Blocks : 170078
 Total Tags : 491520 Threshold : 12288 Invalid Tags : 223138 Pr0 Tags : 98304 Pr1 Tags : 170078 num_pr0 : 12288
 SAE Count : 0
 Inter-Core Inteference in Data Store : 195557
Heartbeat CPU 2 instructions: 100000001 cycles: 53112975 heartbeat IPC: 1.88267 cumulative IPC: 1.88278 (Simulation time: 15 hr 15 min 40 sec) 
 Total Blocks : 196608 Invalid Blocks : 26530 Valid Blocks : 170078
 Total Tags : 491520 Threshold : 12288 Invalid Tags : 223138 Pr0 Tags : 98304 Pr1 Tags : 170078 num_pr0 : 12288
 SAE Count : 0
 Inter-Core Inteference in Data Store : 195557
Heartbeat CPU 4 instructions: 100000001 cycles: 53113167 heartbeat IPC: 1.88266 cumulative IPC: 1.88277 (Simulation time: 15 hr 15 min 40 sec) 
 Total Blocks : 196608 Invalid Blocks : 26529 Valid Blocks : 170079
 Total Tags : 491520 Threshold : 12288 Invalid Tags : 223138 Pr0 Tags : 98303 Pr1 Tags : 170079 num_pr0 : 12288
 SAE Count : 0
 Inter-Core Inteference in Data Store : 195562
Heartbeat CPU 7 instructions: 100000001 cycles: 53113204 heartbeat IPC: 1.88266 cumulative IPC: 1.88277 (Simulation time: 15 hr 15 min 40 sec) 
 Total Blocks : 196608 Invalid Blocks : 26529 Valid Blocks : 170079
 Total Tags : 491520 Threshold : 12288 Invalid Tags : 223137 Pr0 Tags : 98304 Pr1 Tags : 170079 num_pr0 : 12288
 SAE Count : 0
 Inter-Core Inteference in Data Store : 195563
Heartbeat CPU 5 instructions: 100000001 cycles: 53113263 heartbeat IPC: 1.88267 cumulative IPC: 1.88277 (Simulation time: 15 hr 15 min 40 sec) 
 Total Blocks : 196608 Invalid Blocks : 26529 Valid Blocks : 170079
 Total Tags : 491520 Threshold : 12288 Invalid Tags : 223137 Pr0 Tags : 98304 Pr1 Tags : 170079 num_pr0 : 12288
 SAE Count : 0
 Inter-Core Inteference in Data Store : 195563
Heartbeat CPU 3 instructions: 100000001 cycles: 53113442 heartbeat IPC: 1.88266 cumulative IPC: 1.88276 (Simulation time: 15 hr 15 min 40 sec) 
 Total Blocks : 196608 Invalid Blocks : 26528 Valid Blocks : 170080
 Total Tags : 491520 Threshold : 12288 Invalid Tags : 223136 Pr0 Tags : 98304 Pr1 Tags : 170080 num_pr0 : 12288
 SAE Count : 0
 Inter-Core Inteference in Data Store : 195565
Heartbeat CPU 6 instructions: 100000001 cycles: 53113485 heartbeat IPC: 1.88266 cumulative IPC: 1.88276 (Simulation time: 15 hr 15 min 40 sec) 
 Total Blocks : 196608 Invalid Blocks : 26528 Valid Blocks : 170080
 Total Tags : 491520 Threshold : 12288 Invalid Tags : 223136 Pr0 Tags : 98304 Pr1 Tags : 170080 num_pr0 : 12288
 SAE Count : 0
 Inter-Core Inteference in Data Store : 195565
Heartbeat CPU 2 instructions: 110000000 cycles: 58423673 heartbeat IPC: 1.88299 cumulative IPC: 1.8828 (Simulation time: 17 hr 24 min 8 sec) 
 Total Blocks : 196608 Invalid Blocks : 21623 Valid Blocks : 174985
 Total Tags : 491520 Threshold : 12288 Invalid Tags : 218231 Pr0 Tags : 98304 Pr1 Tags : 174985 num_pr0 : 12288
 SAE Count : 0
 Inter-Core Inteference in Data Store : 225867
Heartbeat CPU 0 instructions: 110000000 cycles: 58423674 heartbeat IPC: 1.88298 cumulative IPC: 1.8828 (Simulation time: 17 hr 24 min 9 sec) 
 Total Blocks : 196608 Invalid Blocks : 21623 Valid Blocks : 174985
 Total Tags : 491520 Threshold : 12288 Invalid Tags : 218231 Pr0 Tags : 98304 Pr1 Tags : 174985 num_pr0 : 12288
 SAE Count : 0
 Inter-Core Inteference in Data Store : 225867
Heartbeat CPU 1 instructions: 110000000 cycles: 58423680 heartbeat IPC: 1.88298 cumulative IPC: 1.8828 (Simulation time: 17 hr 24 min 9 sec) 
 Total Blocks : 196608 Invalid Blocks : 21623 Valid Blocks : 174985
 Total Tags : 491520 Threshold : 12288 Invalid Tags : 218231 Pr0 Tags : 98304 Pr1 Tags : 174985 num_pr0 : 12288
 SAE Count : 0
 Inter-Core Inteference in Data Store : 225867
Heartbeat CPU 4 instructions: 110000000 cycles: 58423782 heartbeat IPC: 1.88302 cumulative IPC: 1.88279 (Simulation time: 17 hr 24 min 9 sec) 
 Total Blocks : 196608 Invalid Blocks : 21623 Valid Blocks : 174985
 Total Tags : 491520 Threshold : 12288 Invalid Tags : 218231 Pr0 Tags : 98304 Pr1 Tags : 174985 num_pr0 : 12288
 SAE Count : 0
 Inter-Core Inteference in Data Store : 225869
Heartbeat CPU 7 instructions: 110000000 cycles: 58423821 heartbeat IPC: 1.88302 cumulative IPC: 1.88279 (Simulation time: 17 hr 24 min 9 sec) 
 Total Blocks : 196608 Invalid Blocks : 21623 Valid Blocks : 174985
 Total Tags : 491520 Threshold : 12288 Invalid Tags : 218231 Pr0 Tags : 98304 Pr1 Tags : 174985 num_pr0 : 12288
 SAE Count : 0
 Inter-Core Inteference in Data Store : 225871
Heartbeat CPU 5 instructions: 110000000 cycles: 58423853 heartbeat IPC: 1.88303 cumulative IPC: 1.88279 (Simulation time: 17 hr 24 min 9 sec) 
 Total Blocks : 196608 Invalid Blocks : 21623 Valid Blocks : 174985
 Total Tags : 491520 Threshold : 12288 Invalid Tags : 218231 Pr0 Tags : 98304 Pr1 Tags : 174985 num_pr0 : 12288
 SAE Count : 0
 Inter-Core Inteference in Data Store : 225871
Heartbeat CPU 3 instructions: 110000000 cycles: 58424055 heartbeat IPC: 1.88302 cumulative IPC: 1.88279 (Simulation time: 17 hr 24 min 9 sec) 
 Total Blocks : 196608 Invalid Blocks : 21623 Valid Blocks : 174985
 Total Tags : 491520 Threshold : 12288 Invalid Tags : 218231 Pr0 Tags : 98304 Pr1 Tags : 174985 num_pr0 : 12288
 SAE Count : 0
 Inter-Core Inteference in Data Store : 225871
Heartbeat CPU 6 instructions: 110000000 cycles: 58424096 heartbeat IPC: 1.88302 cumulative IPC: 1.88278 (Simulation time: 17 hr 24 min 9 sec) 
 Total Blocks : 196608 Invalid Blocks : 21623 Valid Blocks : 174985
 Total Tags : 491520 Threshold : 12288 Invalid Tags : 218231 Pr0 Tags : 98304 Pr1 Tags : 174985 num_pr0 : 12288
 SAE Count : 0
 Inter-Core Inteference in Data Store : 225871
Heartbeat CPU 2 instructions: 120000001 cycles: 63734691 heartbeat IPC: 1.88288 cumulative IPC: 1.88281 (Simulation time: 19 hr 28 min 1 sec) 
 Total Blocks : 196608 Invalid Blocks : 17683 Valid Blocks : 178925
 Total Tags : 491520 Threshold : 12288 Invalid Tags : 214293 Pr0 Tags : 98302 Pr1 Tags : 178925 num_pr0 : 12288
 SAE Count : 0
 Inter-Core Inteference in Data Store : 256787
Heartbeat CPU 0 instructions: 120000001 cycles: 63734706 heartbeat IPC: 1.88287 cumulative IPC: 1.8828 (Simulation time: 19 hr 28 min 1 sec) 
 Total Blocks : 196608 Invalid Blocks : 17683 Valid Blocks : 178925
 Total Tags : 491520 Threshold : 12288 Invalid Tags : 214293 Pr0 Tags : 98302 Pr1 Tags : 178925 num_pr0 : 12288
 SAE Count : 0
 Inter-Core Inteference in Data Store : 256787
Heartbeat CPU 1 instructions: 120000001 cycles: 63734721 heartbeat IPC: 1.88287 cumulative IPC: 1.8828 (Simulation time: 19 hr 28 min 1 sec) 
 Total Blocks : 196608 Invalid Blocks : 17683 Valid Blocks : 178925
 Total Tags : 491520 Threshold : 12288 Invalid Tags : 214293 Pr0 Tags : 98302 Pr1 Tags : 178925 num_pr0 : 12288
 SAE Count : 0
 Inter-Core Inteference in Data Store : 256787
Heartbeat CPU 4 instructions: 120000001 cycles: 63734764 heartbeat IPC: 1.88289 cumulative IPC: 1.8828 (Simulation time: 19 hr 28 min 1 sec) 
 Total Blocks : 196608 Invalid Blocks : 17683 Valid Blocks : 178925
 Total Tags : 491520 Threshold : 12288 Invalid Tags : 214292 Pr0 Tags : 98303 Pr1 Tags : 178925 num_pr0 : 12288
 SAE Count : 0
 Inter-Core Inteference in Data Store : 256787
Heartbeat CPU 5 instructions: 120000001 cycles: 63734807 heartbeat IPC: 1.8829 cumulative IPC: 1.8828 (Simulation time: 19 hr 28 min 1 sec) 
 Total Blocks : 196608 Invalid Blocks : 17683 Valid Blocks : 178925
 Total Tags : 491520 Threshold : 12288 Invalid Tags : 214292 Pr0 Tags : 98303 Pr1 Tags : 178925 num_pr0 : 12288
 SAE Count : 0
 Inter-Core Inteference in Data Store : 256787
Heartbeat CPU 7 instructions: 120000001 cycles: 63734825 heartbeat IPC: 1.88288 cumulative IPC: 1.8828 (Simulation time: 19 hr 28 min 1 sec) 
 Total Blocks : 196608 Invalid Blocks : 17683 Valid Blocks : 178925
 Total Tags : 491520 Threshold : 12288 Invalid Tags : 214292 Pr0 Tags : 98303 Pr1 Tags : 178925 num_pr0 : 12288
 SAE Count : 0
 Inter-Core Inteference in Data Store : 256788
Heartbeat CPU 3 instructions: 120000001 cycles: 63735046 heartbeat IPC: 1.88289 cumulative IPC: 1.88279 (Simulation time: 19 hr 28 min 1 sec) 
 Total Blocks : 196608 Invalid Blocks : 17683 Valid Blocks : 178925
 Total Tags : 491520 Threshold : 12288 Invalid Tags : 214292 Pr0 Tags : 98303 Pr1 Tags : 178925 num_pr0 : 12288
 SAE Count : 0
 Inter-Core Inteference in Data Store : 256790
Heartbeat CPU 6 instructions: 120000001 cycles: 63735086 heartbeat IPC: 1.88289 cumulative IPC: 1.88279 (Simulation time: 19 hr 28 min 1 sec) 
 Total Blocks : 196608 Invalid Blocks : 17683 Valid Blocks : 178925
 Total Tags : 491520 Threshold : 12288 Invalid Tags : 214292 Pr0 Tags : 98303 Pr1 Tags : 178925 num_pr0 : 12288
 SAE Count : 0
 Inter-Core Inteference in Data Store : 256790
Heartbeat CPU 0 instructions: 130000003 cycles: 69046495 heartbeat IPC: 1.88261 cumulative IPC: 1.88279 (Simulation time: 21 hr 32 min 56 sec) 
 Total Blocks : 196608 Invalid Blocks : 14453 Valid Blocks : 182155
 Total Tags : 491520 Threshold : 12288 Invalid Tags : 211061 Pr0 Tags : 98304 Pr1 Tags : 182155 num_pr0 : 12288
 SAE Count : 0
 Inter-Core Inteference in Data Store : 288698
Heartbeat CPU 2 instructions: 130000003 cycles: 69046507 heartbeat IPC: 1.8826 cumulative IPC: 1.88279 (Simulation time: 21 hr 32 min 57 sec) 
 Total Blocks : 196608 Invalid Blocks : 14453 Valid Blocks : 182155
 Total Tags : 491520 Threshold : 12288 Invalid Tags : 211061 Pr0 Tags : 98304 Pr1 Tags : 182155 num_pr0 : 12288
 SAE Count : 0
 Inter-Core Inteference in Data Store : 288698
Heartbeat CPU 1 instructions: 130000003 cycles: 69046517 heartbeat IPC: 1.8826 cumulative IPC: 1.88279 (Simulation time: 21 hr 32 min 57 sec) 
 Total Blocks : 196608 Invalid Blocks : 14453 Valid Blocks : 182155
 Total Tags : 491520 Threshold : 12288 Invalid Tags : 211061 Pr0 Tags : 98304 Pr1 Tags : 182155 num_pr0 : 12288
 SAE Count : 0
 Inter-Core Inteference in Data Store : 288698
Heartbeat CPU 4 instructions: 130000003 cycles: 69046522 heartbeat IPC: 1.88262 cumulative IPC: 1.88279 (Simulation time: 21 hr 32 min 57 sec) 
 Total Blocks : 196608 Invalid Blocks : 14453 Valid Blocks : 182155
 Total Tags : 491520 Threshold : 12288 Invalid Tags : 211061 Pr0 Tags : 98304 Pr1 Tags : 182155 num_pr0 : 12288
 SAE Count : 0
 Inter-Core Inteference in Data Store : 288698
Heartbeat CPU 5 instructions: 130000003 cycles: 69046536 heartbeat IPC: 1.88263 cumulative IPC: 1.88279 (Simulation time: 21 hr 32 min 57 sec) 
 Total Blocks : 196608 Invalid Blocks : 14453 Valid Blocks : 182155
 Total Tags : 491520 Threshold : 12288 Invalid Tags : 211061 Pr0 Tags : 98304 Pr1 Tags : 182155 num_pr0 : 12288
 SAE Count : 0
 Inter-Core Inteference in Data Store : 288698
Heartbeat CPU 7 instructions: 130000003 cycles: 69046543 heartbeat IPC: 1.88263 cumulative IPC: 1.88279 (Simulation time: 21 hr 32 min 57 sec) 
 Total Blocks : 196608 Invalid Blocks : 14453 Valid Blocks : 182155
 Total Tags : 491520 Threshold : 12288 Invalid Tags : 211061 Pr0 Tags : 98304 Pr1 Tags : 182155 num_pr0 : 12288
 SAE Count : 0
 Inter-Core Inteference in Data Store : 288698
Heartbeat CPU 3 instructions: 130000003 cycles: 69046768 heartbeat IPC: 1.88263 cumulative IPC: 1.88278 (Simulation time: 21 hr 32 min 57 sec) 
 Total Blocks : 196608 Invalid Blocks : 14451 Valid Blocks : 182157
 Total Tags : 491520 Threshold : 12288 Invalid Tags : 211059 Pr0 Tags : 98304 Pr1 Tags : 182157 num_pr0 : 12288
 SAE Count : 0
 Inter-Core Inteference in Data Store : 288701
Heartbeat CPU 6 instructions: 130000003 cycles: 69046811 heartbeat IPC: 1.88263 cumulative IPC: 1.88278 (Simulation time: 21 hr 32 min 57 sec) 
 Total Blocks : 196608 Invalid Blocks : 14451 Valid Blocks : 182157
 Total Tags : 491520 Threshold : 12288 Invalid Tags : 211059 Pr0 Tags : 98304 Pr1 Tags : 182157 num_pr0 : 12288
 SAE Count : 0
 Inter-Core Inteference in Data Store : 288703
Heartbeat CPU 0 instructions: 140000000 cycles: 74357973 heartbeat IPC: 1.88271 cumulative IPC: 1.88278 (Simulation time: 23 hr 43 min 31 sec) 
 Total Blocks : 196608 Invalid Blocks : 11815 Valid Blocks : 184793
 Total Tags : 491520 Threshold : 12288 Invalid Tags : 208423 Pr0 Tags : 98304 Pr1 Tags : 184793 num_pr0 : 12288
 SAE Count : 0
 Inter-Core Inteference in Data Store : 320502
Heartbeat CPU 2 instructions: 140000000 cycles: 74358009 heartbeat IPC: 1.88271 cumulative IPC: 1.88278 (Simulation time: 23 hr 43 min 31 sec) 
 Total Blocks : 196608 Invalid Blocks : 11815 Valid Blocks : 184793
 Total Tags : 491520 Threshold : 12288 Invalid Tags : 208423 Pr0 Tags : 98304 Pr1 Tags : 184793 num_pr0 : 12288
 SAE Count : 0
 Inter-Core Inteference in Data Store : 320502
Heartbeat CPU 5 instructions: 140000000 cycles: 74358069 heartbeat IPC: 1.8827 cumulative IPC: 1.88278 (Simulation time: 23 hr 43 min 31 sec) 
 Total Blocks : 196608 Invalid Blocks : 11815 Valid Blocks : 184793
 Total Tags : 491520 Threshold : 12288 Invalid Tags : 208423 Pr0 Tags : 98304 Pr1 Tags : 184793 num_pr0 : 12288
 SAE Count : 0
 Inter-Core Inteference in Data Store : 320502
Heartbeat CPU 7 instructions: 140000000 cycles: 74358172 heartbeat IPC: 1.88266 cumulative IPC: 1.88278 (Simulation time: 23 hr 43 min 31 sec) 
 Total Blocks : 196608 Invalid Blocks : 11815 Valid Blocks : 184793
 Total Tags : 491520 Threshold : 12288 Invalid Tags : 208423 Pr0 Tags : 98304 Pr1 Tags : 184793 num_pr0 : 12288
 SAE Count : 0
 Inter-Core Inteference in Data Store : 320502
Heartbeat CPU 1 instructions: 140000000 cycles: 74358173 heartbeat IPC: 1.88265 cumulative IPC: 1.88278 (Simulation time: 23 hr 43 min 31 sec) 
 Total Blocks : 196608 Invalid Blocks : 11815 Valid Blocks : 184793
 Total Tags : 491520 Threshold : 12288 Invalid Tags : 208423 Pr0 Tags : 98304 Pr1 Tags : 184793 num_pr0 : 12288
 SAE Count : 0
 Inter-Core Inteference in Data Store : 320502
Heartbeat CPU 4 instructions: 140000000 cycles: 74358176 heartbeat IPC: 1.88265 cumulative IPC: 1.88278 (Simulation time: 23 hr 43 min 31 sec) 
 Total Blocks : 196608 Invalid Blocks : 11815 Valid Blocks : 184793
 Total Tags : 491520 Threshold : 12288 Invalid Tags : 208423 Pr0 Tags : 98304 Pr1 Tags : 184793 num_pr0 : 12288
 SAE Count : 0
 Inter-Core Inteference in Data Store : 320502
Heartbeat CPU 3 instructions: 140000000 cycles: 74358247 heartbeat IPC: 1.88271 cumulative IPC: 1.88278 (Simulation time: 23 hr 43 min 31 sec) 
 Total Blocks : 196608 Invalid Blocks : 11815 Valid Blocks : 184793
 Total Tags : 491520 Threshold : 12288 Invalid Tags : 208423 Pr0 Tags : 98304 Pr1 Tags : 184793 num_pr0 : 12288
 SAE Count : 0
 Inter-Core Inteference in Data Store : 320502
Heartbeat CPU 6 instructions: 140000000 cycles: 74358300 heartbeat IPC: 1.88271 cumulative IPC: 1.88278 (Simulation time: 23 hr 43 min 31 sec) 
 Total Blocks : 196608 Invalid Blocks : 11815 Valid Blocks : 184793
 Total Tags : 491520 Threshold : 12288 Invalid Tags : 208423 Pr0 Tags : 98304 Pr1 Tags : 184793 num_pr0 : 12288
 SAE Count : 0
 Inter-Core Inteference in Data Store : 320502
Heartbeat CPU 0 instructions: 150000002 cycles: 79668724 heartbeat IPC: 1.88297 cumulative IPC: 1.8828 (Simulation time: 25 hr 52 min 52 sec) 
 Total Blocks : 196608 Invalid Blocks : 9642 Valid Blocks : 186966
 Total Tags : 491520 Threshold : 12288 Invalid Tags : 206251 Pr0 Tags : 98303 Pr1 Tags : 186966 num_pr0 : 12288
 SAE Count : 0
 Inter-Core Inteference in Data Store : 353025
Heartbeat CPU 2 instructions: 150000002 cycles: 79668765 heartbeat IPC: 1.88297 cumulative IPC: 1.8828 (Simulation time: 25 hr 52 min 52 sec) 
 Total Blocks : 196608 Invalid Blocks : 9642 Valid Blocks : 186966
 Total Tags : 491520 Threshold : 12288 Invalid Tags : 206251 Pr0 Tags : 98303 Pr1 Tags : 186966 num_pr0 : 12288
 SAE Count : 0
 Inter-Core Inteference in Data Store : 353025
Heartbeat CPU 5 instructions: 150000002 cycles: 79668820 heartbeat IPC: 1.88297 cumulative IPC: 1.88279 (Simulation time: 25 hr 52 min 52 sec) 
 Total Blocks : 196608 Invalid Blocks : 9642 Valid Blocks : 186966
 Total Tags : 491520 Threshold : 12288 Invalid Tags : 206251 Pr0 Tags : 98303 Pr1 Tags : 186966 num_pr0 : 12288
 SAE Count : 0
 Inter-Core Inteference in Data Store : 353025
Heartbeat CPU 4 instructions: 150000002 cycles: 79668977 heartbeat IPC: 1.88296 cumulative IPC: 1.88279 (Simulation time: 25 hr 52 min 53 sec) 
 Total Blocks : 196608 Invalid Blocks : 9642 Valid Blocks : 186966
 Total Tags : 491520 Threshold : 12288 Invalid Tags : 206250 Pr0 Tags : 98304 Pr1 Tags : 186966 num_pr0 : 12288
 SAE Count : 0
 Inter-Core Inteference in Data Store : 353025
Heartbeat CPU 6 instructions: 150000002 cycles: 79669098 heartbeat IPC: 1.88296 cumulative IPC: 1.88279 (Simulation time: 25 hr 52 min 53 sec) 
 Total Blocks : 196608 Invalid Blocks : 9640 Valid Blocks : 186968
 Total Tags : 491520 Threshold : 12288 Invalid Tags : 206248 Pr0 Tags : 98304 Pr1 Tags : 186968 num_pr0 : 12288
 SAE Count : 0
 Inter-Core Inteference in Data Store : 353028
Heartbeat CPU 1 instructions: 150000002 cycles: 79669099 heartbeat IPC: 1.88291 cumulative IPC: 1.88279 (Simulation time: 25 hr 52 min 53 sec) 
 Total Blocks : 196608 Invalid Blocks : 9640 Valid Blocks : 186968
 Total Tags : 491520 Threshold : 12288 Invalid Tags : 206248 Pr0 Tags : 98304 Pr1 Tags : 186968 num_pr0 : 12288
 SAE Count : 0
 Inter-Core Inteference in Data Store : 353028
Heartbeat CPU 3 instructions: 150000002 cycles: 79669100 heartbeat IPC: 1.88294 cumulative IPC: 1.88279 (Simulation time: 25 hr 52 min 53 sec) 
 Total Blocks : 196608 Invalid Blocks : 9640 Valid Blocks : 186968
 Total Tags : 491520 Threshold : 12288 Invalid Tags : 206248 Pr0 Tags : 98304 Pr1 Tags : 186968 num_pr0 : 12288
 SAE Count : 0
 Inter-Core Inteference in Data Store : 353028
Heartbeat CPU 7 instructions: 150000002 cycles: 79669115 heartbeat IPC: 1.88291 cumulative IPC: 1.88279 (Simulation time: 25 hr 52 min 53 sec) 
 Total Blocks : 196608 Invalid Blocks : 9640 Valid Blocks : 186968
 Total Tags : 491520 Threshold : 12288 Invalid Tags : 206248 Pr0 Tags : 98304 Pr1 Tags : 186968 num_pr0 : 12288
 SAE Count : 0
 Inter-Core Inteference in Data Store : 353028
Heartbeat CPU 0 instructions: 160000003 cycles: 84980038 heartbeat IPC: 1.88277 cumulative IPC: 1.8828 (Simulation time: 28 hr 5 min 16 sec) 
 Total Blocks : 196608 Invalid Blocks : 7875 Valid Blocks : 188733
 Total Tags : 491520 Threshold : 12288 Invalid Tags : 204483 Pr0 Tags : 98304 Pr1 Tags : 188733 num_pr0 : 12288
 SAE Count : 0
 Inter-Core Inteference in Data Store : 385855
Heartbeat CPU 2 instructions: 160000003 cycles: 84980083 heartbeat IPC: 1.88277 cumulative IPC: 1.88279 (Simulation time: 28 hr 5 min 16 sec) 
 Total Blocks : 196608 Invalid Blocks : 7875 Valid Blocks : 188733
 Total Tags : 491520 Threshold : 12288 Invalid Tags : 204483 Pr0 Tags : 98304 Pr1 Tags : 188733 num_pr0 : 12288
 SAE Count : 0
 Inter-Core Inteference in Data Store : 385855
Heartbeat CPU 5 instructions: 160000003 cycles: 84980153 heartbeat IPC: 1.88277 cumulative IPC: 1.88279 (Simulation time: 28 hr 5 min 16 sec) 
 Total Blocks : 196608 Invalid Blocks : 7875 Valid Blocks : 188733
 Total Tags : 491520 Threshold : 12288 Invalid Tags : 204483 Pr0 Tags : 98304 Pr1 Tags : 188733 num_pr0 : 12288
 SAE Count : 0
 Inter-Core Inteference in Data Store : 385855
Heartbeat CPU 4 instructions: 160000003 cycles: 84980300 heartbeat IPC: 1.88277 cumulative IPC: 1.88279 (Simulation time: 28 hr 5 min 16 sec) 
 Total Blocks : 196608 Invalid Blocks : 7875 Valid Blocks : 188733
 Total Tags : 491520 Threshold : 12288 Invalid Tags : 204483 Pr0 Tags : 98304 Pr1 Tags : 188733 num_pr0 : 12288
 SAE Count : 0
 Inter-Core Inteference in Data Store : 385855
Heartbeat CPU 6 instructions: 160000003 cycles: 84980491 heartbeat IPC: 1.88275 cumulative IPC: 1.88279 (Simulation time: 28 hr 5 min 16 sec) 
 Total Blocks : 196608 Invalid Blocks : 7875 Valid Blocks : 188733
 Total Tags : 491520 Threshold : 12288 Invalid Tags : 204483 Pr0 Tags : 98304 Pr1 Tags : 188733 num_pr0 : 12288
 SAE Count : 0
 Inter-Core Inteference in Data Store : 385855
Heartbeat CPU 3 instructions: 160000003 cycles: 84980541 heartbeat IPC: 1.88273 cumulative IPC: 1.88278 (Simulation time: 28 hr 5 min 16 sec) 
 Total Blocks : 196608 Invalid Blocks : 7875 Valid Blocks : 188733
 Total Tags : 491520 Threshold : 12288 Invalid Tags : 204483 Pr0 Tags : 98304 Pr1 Tags : 188733 num_pr0 : 12288
 SAE Count : 0
 Inter-Core Inteference in Data Store : 385855
Heartbeat CPU 1 instructions: 160000003 cycles: 84980543 heartbeat IPC: 1.88273 cumulative IPC: 1.88278 (Simulation time: 28 hr 5 min 16 sec) 
 Total Blocks : 196608 Invalid Blocks : 7875 Valid Blocks : 188733
 Total Tags : 491520 Threshold : 12288 Invalid Tags : 204483 Pr0 Tags : 98304 Pr1 Tags : 188733 num_pr0 : 12288
 SAE Count : 0
 Inter-Core Inteference in Data Store : 385855
Heartbeat CPU 7 instructions: 160000003 cycles: 84980549 heartbeat IPC: 1.88273 cumulative IPC: 1.88278 (Simulation time: 28 hr 5 min 16 sec) 
 Total Blocks : 196608 Invalid Blocks : 7875 Valid Blocks : 188733
 Total Tags : 491520 Threshold : 12288 Invalid Tags : 204483 Pr0 Tags : 98304 Pr1 Tags : 188733 num_pr0 : 12288
 SAE Count : 0
 Inter-Core Inteference in Data Store : 385855
Heartbeat CPU 0 instructions: 170000000 cycles: 90291675 heartbeat IPC: 1.88266 cumulative IPC: 1.88279 (Simulation time: 30 hr 14 min 42 sec) 
 Total Blocks : 196608 Invalid Blocks : 6425 Valid Blocks : 190183
 Total Tags : 491520 Threshold : 12288 Invalid Tags : 203034 Pr0 Tags : 98303 Pr1 Tags : 190183 num_pr0 : 12288
 SAE Count : 0
 Inter-Core Inteference in Data Store : 419135
Heartbeat CPU 2 instructions: 170000000 cycles: 90291739 heartbeat IPC: 1.88265 cumulative IPC: 1.88279 (Simulation time: 30 hr 14 min 42 sec) 
 Total Blocks : 196608 Invalid Blocks : 6425 Valid Blocks : 190183
 Total Tags : 491520 Threshold : 12288 Invalid Tags : 203034 Pr0 Tags : 98303 Pr1 Tags : 190183 num_pr0 : 12288
 SAE Count : 0
 Inter-Core Inteference in Data Store : 419136
Heartbeat CPU 5 instructions: 170000000 cycles: 90291795 heartbeat IPC: 1.88266 cumulative IPC: 1.88278 (Simulation time: 30 hr 14 min 42 sec) 
 Total Blocks : 196608 Invalid Blocks : 6425 Valid Blocks : 190183
 Total Tags : 491520 Threshold : 12288 Invalid Tags : 203033 Pr0 Tags : 98304 Pr1 Tags : 190183 num_pr0 : 12288
 SAE Count : 0
 Inter-Core Inteference in Data Store : 419136
Heartbeat CPU 4 instructions: 170000000 cycles: 90291944 heartbeat IPC: 1.88266 cumulative IPC: 1.88278 (Simulation time: 30 hr 14 min 42 sec) 
 Total Blocks : 196608 Invalid Blocks : 6425 Valid Blocks : 190183
 Total Tags : 491520 Threshold : 12288 Invalid Tags : 203034 Pr0 Tags : 98303 Pr1 Tags : 190183 num_pr0 : 12288
 SAE Count : 0
 Inter-Core Inteference in Data Store : 419138
Heartbeat CPU 6 instructions: 170000000 cycles: 90292137 heartbeat IPC: 1.88266 cumulative IPC: 1.88278 (Simulation time: 30 hr 14 min 42 sec) 
 Total Blocks : 196608 Invalid Blocks : 6424 Valid Blocks : 190184
 Total Tags : 491520 Threshold : 12288 Invalid Tags : 203032 Pr0 Tags : 98304 Pr1 Tags : 190184 num_pr0 : 12288
 SAE Count : 0
 Inter-Core Inteference in Data Store : 419138
Heartbeat CPU 7 instructions: 170000000 cycles: 90292354 heartbeat IPC: 1.8826 cumulative IPC: 1.88277 (Simulation time: 30 hr 14 min 42 sec) 
 Total Blocks : 196608 Invalid Blocks : 6424 Valid Blocks : 190184
 Total Tags : 491520 Threshold : 12288 Invalid Tags : 203032 Pr0 Tags : 98304 Pr1 Tags : 190184 num_pr0 : 12288
 SAE Count : 0
 Inter-Core Inteference in Data Store : 419140
Heartbeat CPU 1 instructions: 170000000 cycles: 90292362 heartbeat IPC: 1.88259 cumulative IPC: 1.88277 (Simulation time: 30 hr 14 min 42 sec) 
 Total Blocks : 196608 Invalid Blocks : 6424 Valid Blocks : 190184
 Total Tags : 491520 Threshold : 12288 Invalid Tags : 203032 Pr0 Tags : 98304 Pr1 Tags : 190184 num_pr0 : 12288
 SAE Count : 0
 Inter-Core Inteference in Data Store : 419141
Heartbeat CPU 3 instructions: 170000000 cycles: 90292370 heartbeat IPC: 1.88259 cumulative IPC: 1.88277 (Simulation time: 30 hr 14 min 42 sec) 
 Total Blocks : 196608 Invalid Blocks : 6424 Valid Blocks : 190184
 Total Tags : 491520 Threshold : 12288 Invalid Tags : 203032 Pr0 Tags : 98304 Pr1 Tags : 190184 num_pr0 : 12288
 SAE Count : 0
 Inter-Core Inteference in Data Store : 419141
Heartbeat CPU 0 instructions: 180000002 cycles: 95602460 heartbeat IPC: 1.88296 cumulative IPC: 1.8828 (Simulation time: 41 hr 3 min 32 sec) 
 Total Blocks : 196608 Invalid Blocks : 5233 Valid Blocks : 191375
 Total Tags : 491520 Threshold : 12288 Invalid Tags : 201841 Pr0 Tags : 98304 Pr1 Tags : 191375 num_pr0 : 12288
 SAE Count : 0
 Inter-Core Inteference in Data Store : 452312
Heartbeat CPU 2 instructions: 180000002 cycles: 95602560 heartbeat IPC: 1.88295 cumulative IPC: 1.88279 (Simulation time: 41 hr 3 min 49 sec) 
 Total Blocks : 196608 Invalid Blocks : 5233 Valid Blocks : 191375
 Total Tags : 491520 Threshold : 12288 Invalid Tags : 201841 Pr0 Tags : 98304 Pr1 Tags : 191375 num_pr0 : 12288
 SAE Count : 0
 Inter-Core Inteference in Data Store : 452312
Heartbeat CPU 5 instructions: 180000002 cycles: 95602614 heartbeat IPC: 1.88295 cumulative IPC: 1.88279 (Simulation time: 41 hr 3 min 50 sec) 
 Total Blocks : 196608 Invalid Blocks : 5233 Valid Blocks : 191375
 Total Tags : 491520 Threshold : 12288 Invalid Tags : 201841 Pr0 Tags : 98304 Pr1 Tags : 191375 num_pr0 : 12288
 SAE Count : 0
 Inter-Core Inteference in Data Store : 452312
Heartbeat CPU 4 instructions: 180000002 cycles: 95602772 heartbeat IPC: 1.88295 cumulative IPC: 1.88279 (Simulation time: 41 hr 3 min 51 sec) 
 Total Blocks : 196608 Invalid Blocks : 5233 Valid Blocks : 191375
 Total Tags : 491520 Threshold : 12288 Invalid Tags : 201841 Pr0 Tags : 98304 Pr1 Tags : 191375 num_pr0 : 12288
 SAE Count : 0
 Inter-Core Inteference in Data Store : 452312
Heartbeat CPU 6 instructions: 180000002 cycles: 95602960 heartbeat IPC: 1.88295 cumulative IPC: 1.88279 (Simulation time: 41 hr 3 min 52 sec) 
 Total Blocks : 196608 Invalid Blocks : 5233 Valid Blocks : 191375
 Total Tags : 491520 Threshold : 12288 Invalid Tags : 201841 Pr0 Tags : 98304 Pr1 Tags : 191375 num_pr0 : 12288
 SAE Count : 0
 Inter-Core Inteference in Data Store : 452313
Heartbeat CPU 1 instructions: 180000002 cycles: 95603193 heartbeat IPC: 1.88294 cumulative IPC: 1.88278 (Simulation time: 41 hr 3 min 52 sec) 
 Total Blocks : 196608 Invalid Blocks : 5233 Valid Blocks : 191375
 Total Tags : 491520 Threshold : 12288 Invalid Tags : 201841 Pr0 Tags : 98304 Pr1 Tags : 191375 num_pr0 : 12288
 SAE Count : 0
 Inter-Core Inteference in Data Store : 452314
Heartbeat CPU 7 instructions: 180000002 cycles: 95603213 heartbeat IPC: 1.88293 cumulative IPC: 1.88278 (Simulation time: 41 hr 3 min 52 sec) 
 Total Blocks : 196608 Invalid Blocks : 5233 Valid Blocks : 191375
 Total Tags : 491520 Threshold : 12288 Invalid Tags : 201841 Pr0 Tags : 98304 Pr1 Tags : 191375 num_pr0 : 12288
 SAE Count : 0
 Inter-Core Inteference in Data Store : 452314
Heartbeat CPU 3 instructions: 180000002 cycles: 95603242 heartbeat IPC: 1.88293 cumulative IPC: 1.88278 (Simulation time: 41 hr 3 min 52 sec) 
 Total Blocks : 196608 Invalid Blocks : 5233 Valid Blocks : 191375
 Total Tags : 491520 Threshold : 12288 Invalid Tags : 201841 Pr0 Tags : 98304 Pr1 Tags : 191375 num_pr0 : 12288
 SAE Count : 0
 Inter-Core Inteference in Data Store : 452314
Heartbeat CPU 0 instructions: 190000002 cycles: 100913110 heartbeat IPC: 1.88301 cumulative IPC: 1.88281 (Simulation time: 62 hr 48 min 17 sec) 
 Total Blocks : 196608 Invalid Blocks : 4276 Valid Blocks : 192332
 Total Tags : 491520 Threshold : 12288 Invalid Tags : 200885 Pr0 Tags : 98303 Pr1 Tags : 192332 num_pr0 : 12288
 SAE Count : 0
 Inter-Core Inteference in Data Store : 485739
Heartbeat CPU 2 instructions: 190000002 cycles: 100913232 heartbeat IPC: 1.883 cumulative IPC: 1.88281 (Simulation time: 62 hr 48 min 18 sec) 
 Total Blocks : 196608 Invalid Blocks : 4276 Valid Blocks : 192332
 Total Tags : 491520 Threshold : 12288 Invalid Tags : 200887 Pr0 Tags : 98301 Pr1 Tags : 192332 num_pr0 : 12287
 SAE Count : 0
 Inter-Core Inteference in Data Store : 485741
Heartbeat CPU 5 instructions: 190000002 cycles: 100913301 heartbeat IPC: 1.883 cumulative IPC: 1.8828 (Simulation time: 62 hr 48 min 18 sec) 
 Total Blocks : 196608 Invalid Blocks : 4276 Valid Blocks : 192332
 Total Tags : 491520 Threshold : 12288 Invalid Tags : 200887 Pr0 Tags : 98301 Pr1 Tags : 192332 num_pr0 : 12287
 SAE Count : 0
 Inter-Core Inteference in Data Store : 485741
Heartbeat CPU 4 instructions: 190000002 cycles: 100913449 heartbeat IPC: 1.883 cumulative IPC: 1.8828 (Simulation time: 62 hr 48 min 18 sec) 
 Total Blocks : 196608 Invalid Blocks : 4276 Valid Blocks : 192332
 Total Tags : 491520 Threshold : 12288 Invalid Tags : 200886 Pr0 Tags : 98302 Pr1 Tags : 192332 num_pr0 : 12288
 SAE Count : 0
 Inter-Core Inteference in Data Store : 485742
Heartbeat CPU 6 instructions: 190000002 cycles: 100913633 heartbeat IPC: 1.883 cumulative IPC: 1.8828 (Simulation time: 62 hr 48 min 18 sec) 
 Total Blocks : 196608 Invalid Blocks : 4276 Valid Blocks : 192332
 Total Tags : 491520 Threshold : 12288 Invalid Tags : 200886 Pr0 Tags : 98302 Pr1 Tags : 192332 num_pr0 : 12288
 SAE Count : 0
 Inter-Core Inteference in Data Store : 485742
Heartbeat CPU 1 instructions: 190000002 cycles: 100913881 heartbeat IPC: 1.883 cumulative IPC: 1.88279 (Simulation time: 62 hr 48 min 19 sec) 
 Total Blocks : 196608 Invalid Blocks : 4276 Valid Blocks : 192332
 Total Tags : 491520 Threshold : 12288 Invalid Tags : 200886 Pr0 Tags : 98302 Pr1 Tags : 192332 num_pr0 : 12288
 SAE Count : 0
 Inter-Core Inteference in Data Store : 485745
Heartbeat CPU 3 instructions: 190000002 cycles: 100913931 heartbeat IPC: 1.88299 cumulative IPC: 1.88279 (Simulation time: 62 hr 48 min 19 sec) 
 Total Blocks : 196608 Invalid Blocks : 4276 Valid Blocks : 192332
 Total Tags : 491520 Threshold : 12288 Invalid Tags : 200887 Pr0 Tags : 98301 Pr1 Tags : 192332 num_pr0 : 12288
 SAE Count : 0
 Inter-Core Inteference in Data Store : 485746
Heartbeat CPU 7 instructions: 190000002 cycles: 100913939 heartbeat IPC: 1.88298 cumulative IPC: 1.88279 (Simulation time: 62 hr 48 min 19 sec) 
 Total Blocks : 196608 Invalid Blocks : 4276 Valid Blocks : 192332
 Total Tags : 491520 Threshold : 12288 Invalid Tags : 200887 Pr0 Tags : 98301 Pr1 Tags : 192332 num_pr0 : 12288
 SAE Count : 0
 Inter-Core Inteference in Data Store : 485746
Heartbeat CPU 0 instructions: 200000003 cycles: 106224818 heartbeat IPC: 1.88263 cumulative IPC: 1.8828 (Simulation time: 71 hr 29 min 8 sec) 
 Total Blocks : 196608 Invalid Blocks : 3483 Valid Blocks : 193125
 Total Tags : 491520 Threshold : 12288 Invalid Tags : 200091 Pr0 Tags : 98304 Pr1 Tags : 193125 num_pr0 : 12288
 SAE Count : 0
 Inter-Core Inteference in Data Store : 519574
Heartbeat CPU 2 instructions: 200000003 cycles: 106224959 heartbeat IPC: 1.88263 cumulative IPC: 1.8828 (Simulation time: 71 hr 29 min 10 sec) 
 Total Blocks : 196608 Invalid Blocks : 3483 Valid Blocks : 193125
 Total Tags : 491520 Threshold : 12288 Invalid Tags : 200092 Pr0 Tags : 98303 Pr1 Tags : 193125 num_pr0 : 12288
 SAE Count : 0
 Inter-Core Inteference in Data Store : 519578
Heartbeat CPU 5 instructions: 200000003 cycles: 106225030 heartbeat IPC: 1.88263 cumulative IPC: 1.8828 (Simulation time: 71 hr 29 min 10 sec) 
 Total Blocks : 196608 Invalid Blocks : 3483 Valid Blocks : 193125
 Total Tags : 491520 Threshold : 12288 Invalid Tags : 200092 Pr0 Tags : 98303 Pr1 Tags : 193125 num_pr0 : 12288
 SAE Count : 0
 Inter-Core Inteference in Data Store : 519582
Heartbeat CPU 4 instructions: 200000003 cycles: 106225176 heartbeat IPC: 1.88263 cumulative IPC: 1.88279 (Simulation time: 71 hr 29 min 10 sec) 
 Total Blocks : 196608 Invalid Blocks : 3483 Valid Blocks : 193125
 Total Tags : 491520 Threshold : 12288 Invalid Tags : 200092 Pr0 Tags : 98303 Pr1 Tags : 193125 num_pr0 : 12288
 SAE Count : 0
 Inter-Core Inteference in Data Store : 519583
Heartbeat CPU 6 instructions: 200000003 cycles: 106225361 heartbeat IPC: 1.88263 cumulative IPC: 1.88279 (Simulation time: 71 hr 29 min 10 sec) 
 Total Blocks : 196608 Invalid Blocks : 3483 Valid Blocks : 193125
 Total Tags : 491520 Threshold : 12288 Invalid Tags : 200092 Pr0 Tags : 98303 Pr1 Tags : 193125 num_pr0 : 12288
 SAE Count : 0
 Inter-Core Inteference in Data Store : 519585
Heartbeat CPU 1 instructions: 200000003 cycles: 106225611 heartbeat IPC: 1.88263 cumulative IPC: 1.88279 (Simulation time: 71 hr 29 min 10 sec) 
 Total Blocks : 196608 Invalid Blocks : 3483 Valid Blocks : 193125
 Total Tags : 491520 Threshold : 12288 Invalid Tags : 200091 Pr0 Tags : 98304 Pr1 Tags : 193125 num_pr0 : 12288
 SAE Count : 0
 Inter-Core Inteference in Data Store : 519589
Heartbeat CPU 7 instructions: 200000003 cycles: 106225662 heartbeat IPC: 1.88263 cumulative IPC: 1.88278 (Simulation time: 71 hr 29 min 10 sec) 
 Total Blocks : 196608 Invalid Blocks : 3483 Valid Blocks : 193125
 Total Tags : 491520 Threshold : 12288 Invalid Tags : 200091 Pr0 Tags : 98304 Pr1 Tags : 193125 num_pr0 : 12288
 SAE Count : 0
 Inter-Core Inteference in Data Store : 519592
Heartbeat CPU 3 instructions: 200000003 cycles: 106225670 heartbeat IPC: 1.88262 cumulative IPC: 1.88278 (Simulation time: 71 hr 29 min 10 sec) 
 Total Blocks : 196608 Invalid Blocks : 3483 Valid Blocks : 193125
 Total Tags : 491520 Threshold : 12288 Invalid Tags : 200093 Pr0 Tags : 98302 Pr1 Tags : 193125 num_pr0 : 12288
 SAE Count : 0
 Inter-Core Inteference in Data Store : 519593

Warmup complete CPU 0 instructions: 200001606 cycles: 106225670 (Simulation time: 71 hr 29 min 10 sec) 
Warmup complete CPU 1 instructions: 200000079 cycles: 106225670 (Simulation time: 71 hr 29 min 10 sec) 
Warmup complete CPU 2 instructions: 200001360 cycles: 106225670 (Simulation time: 71 hr 29 min 10 sec) 
Warmup complete CPU 3 instructions: 200000003 cycles: 106225670 (Simulation time: 71 hr 29 min 10 sec) 
Warmup complete CPU 4 instructions: 200000987 cycles: 106225669 (Simulation time: 71 hr 29 min 10 sec) 
Warmup complete CPU 5 instructions: 200001145 cycles: 106225669 (Simulation time: 71 hr 29 min 10 sec) 
Warmup complete CPU 6 instructions: 200000569 cycles: 106225669 (Simulation time: 71 hr 29 min 10 sec) 
Warmup complete CPU 7 instructions: 200000030 cycles: 106225669 (Simulation time: 71 hr 29 min 10 sec) 

Heartbeat CPU 2 instructions: 210000002 cycles: 116759373 heartbeat IPC: 0.94927 cumulative IPC: 0.949205 (Simulation time: 81 hr 7 min 24 sec) 
 Total Blocks : 196608 Invalid Blocks : 2889 Valid Blocks : 193719
 Total Tags : 491520 Threshold : 12288 Invalid Tags : 199497 Pr0 Tags : 98304 Pr1 Tags : 193719 num_pr0 : 12288
 SAE Count : 0
 Inter-Core Inteference in Data Store : 32445
Heartbeat CPU 6 instructions: 210000002 cycles: 116798259 heartbeat IPC: 0.945814 cumulative IPC: 0.945788 (Simulation time: 81 hr 9 min 1 sec) 
 Total Blocks : 196608 Invalid Blocks : 2888 Valid Blocks : 193720
 Total Tags : 491520 Threshold : 12288 Invalid Tags : 199496 Pr0 Tags : 98304 Pr1 Tags : 193720 num_pr0 : 12288
 SAE Count : 0
 Inter-Core Inteference in Data Store : 32560
Heartbeat CPU 3 instructions: 210000002 cycles: 116832557 heartbeat IPC: 0.942784 cumulative IPC: 0.942784 (Simulation time: 81 hr 10 min 31 sec) 
 Total Blocks : 196608 Invalid Blocks : 2886 Valid Blocks : 193722
 Total Tags : 491520 Threshold : 12288 Invalid Tags : 199494 Pr0 Tags : 98304 Pr1 Tags : 193722 num_pr0 : 12288
 SAE Count : 0
 Inter-Core Inteference in Data Store : 32633
Heartbeat CPU 4 instructions: 210000002 cycles: 116873990 heartbeat IPC: 0.939072 cumulative IPC: 0.939023 (Simulation time: 81 hr 12 min 7 sec) 
 Total Blocks : 196608 Invalid Blocks : 2882 Valid Blocks : 193726
 Total Tags : 491520 Threshold : 12288 Invalid Tags : 199490 Pr0 Tags : 98304 Pr1 Tags : 193726 num_pr0 : 12288
 SAE Count : 0
 Inter-Core Inteference in Data Store : 32710
Heartbeat CPU 5 instructions: 210000002 cycles: 116882329 heartbeat IPC: 0.938324 cumulative IPC: 0.938273 (Simulation time: 81 hr 12 min 21 sec) 
 Total Blocks : 196608 Invalid Blocks : 2882 Valid Blocks : 193726
 Total Tags : 491520 Threshold : 12288 Invalid Tags : 199490 Pr0 Tags : 98304 Pr1 Tags : 193726 num_pr0 : 12288
 SAE Count : 0
 Inter-Core Inteference in Data Store : 32739
Heartbeat CPU 0 instructions: 210000002 cycles: 116941209 heartbeat IPC: 0.93315 cumulative IPC: 0.933074 (Simulation time: 81 hr 14 min 58 sec) 
 Total Blocks : 196608 Invalid Blocks : 2879 Valid Blocks : 193729
 Total Tags : 491520 Threshold : 12288 Invalid Tags : 199487 Pr0 Tags : 98304 Pr1 Tags : 193729 num_pr0 : 12288
 SAE Count : 0
 Inter-Core Inteference in Data Store : 32879
Heartbeat CPU 7 instructions: 210000002 cycles: 116963620 heartbeat IPC: 0.931276 cumulative IPC: 0.931274 (Simulation time: 81 hr 15 min 53 sec) 
 Total Blocks : 196608 Invalid Blocks : 2874 Valid Blocks : 193734
 Total Tags : 491520 Threshold : 12288 Invalid Tags : 199482 Pr0 Tags : 98304 Pr1 Tags : 193734 num_pr0 : 12288
 SAE Count : 0
 Inter-Core Inteference in Data Store : 32993
Heartbeat CPU 1 instructions: 210000002 cycles: 116987653 heartbeat IPC: 0.929192 cumulative IPC: 0.92919 (Simulation time: 81 hr 17 min 24 sec) 
 Total Blocks : 196608 Invalid Blocks : 2874 Valid Blocks : 193734
 Total Tags : 491520 Threshold : 12288 Invalid Tags : 199482 Pr0 Tags : 98304 Pr1 Tags : 193734 num_pr0 : 12288
 SAE Count : 0
 Inter-Core Inteference in Data Store : 33021
Heartbeat CPU 2 instructions: 220000000 cycles: 127436803 heartbeat IPC: 0.936555 cumulative IPC: 0.942837 (Simulation time: 87 hr 33 min 25 sec) 
 Total Blocks : 196608 Invalid Blocks : 2364 Valid Blocks : 194244
 Total Tags : 491520 Threshold : 12288 Invalid Tags : 198972 Pr0 Tags : 98304 Pr1 Tags : 194244 num_pr0 : 12288
 SAE Count : 0
 Inter-Core Inteference in Data Store : 66157
Heartbeat CPU 5 instructions: 220000000 cycles: 127459681 heartbeat IPC: 0.945416 cumulative IPC: 0.941831 (Simulation time: 87 hr 34 min 33 sec) 
 Total Blocks : 196608 Invalid Blocks : 2363 Valid Blocks : 194245
 Total Tags : 491520 Threshold : 12288 Invalid Tags : 198971 Pr0 Tags : 98304 Pr1 Tags : 194245 num_pr0 : 12288
 SAE Count : 0
 Inter-Core Inteference in Data Store : 66202
Heartbeat CPU 6 instructions: 220000000 cycles: 127474954 heartbeat IPC: 0.936619 cumulative IPC: 0.941181 (Simulation time: 87 hr 34 min 51 sec) 
 Total Blocks : 196608 Invalid Blocks : 2361 Valid Blocks : 194247
 Total Tags : 491520 Threshold : 12288 Invalid Tags : 198969 Pr0 Tags : 98304 Pr1 Tags : 194247 num_pr0 : 12288
 SAE Count : 0
 Inter-Core Inteference in Data Store : 66279
Heartbeat CPU 4 instructions: 220000000 cycles: 127514728 heartbeat IPC: 0.939784 cumulative IPC: 0.939403 (Simulation time: 87 hr 36 min 13 sec) 
 Total Blocks : 196608 Invalid Blocks : 2359 Valid Blocks : 194249
 Total Tags : 491520 Threshold : 12288 Invalid Tags : 198967 Pr0 Tags : 98304 Pr1 Tags : 194249 num_pr0 : 12288
 SAE Count : 0
 Inter-Core Inteference in Data Store : 66436
Heartbeat CPU 1 instructions: 220000000 cycles: 127521657 heartbeat IPC: 0.949306 cumulative IPC: 0.93914 (Simulation time: 87 hr 36 min 24 sec) 
 Total Blocks : 196608 Invalid Blocks : 2357 Valid Blocks : 194251
 Total Tags : 491520 Threshold : 12288 Invalid Tags : 198965 Pr0 Tags : 98304 Pr1 Tags : 194251 num_pr0 : 12288
 SAE Count : 0
 Inter-Core Inteference in Data Store : 66457
Heartbeat CPU 3 instructions: 220000000 cycles: 127533993 heartbeat IPC: 0.934454 cumulative IPC: 0.9386 (Simulation time: 87 hr 36 min 43 sec) 
 Total Blocks : 196608 Invalid Blocks : 2357 Valid Blocks : 194251
 Total Tags : 491520 Threshold : 12288 Invalid Tags : 198965 Pr0 Tags : 98304 Pr1 Tags : 194251 num_pr0 : 12288
 SAE Count : 0
 Inter-Core Inteference in Data Store : 66470
Heartbeat CPU 0 instructions: 220000000 cycles: 127598396 heartbeat IPC: 0.938334 cumulative IPC: 0.935697 (Simulation time: 87 hr 38 min 46 sec) 
 Total Blocks : 196608 Invalid Blocks : 2356 Valid Blocks : 194252
 Total Tags : 491520 Threshold : 12288 Invalid Tags : 198964 Pr0 Tags : 98304 Pr1 Tags : 194252 num_pr0 : 12288
 SAE Count : 0
 Inter-Core Inteference in Data Store : 66709
Heartbeat CPU 7 instructions: 220000000 cycles: 127655889 heartbeat IPC: 0.935255 cumulative IPC: 0.93326 (Simulation time: 87 hr 40 min 42 sec) 
 Total Blocks : 196608 Invalid Blocks : 2355 Valid Blocks : 194253
 Total Tags : 491520 Threshold : 12288 Invalid Tags : 198963 Pr0 Tags : 98304 Pr1 Tags : 194253 num_pr0 : 12288
 SAE Count : 0
 Inter-Core Inteference in Data Store : 66912
Heartbeat CPU 5 instructions: 230000002 cycles: 138075249 heartbeat IPC: 0.942013 cumulative IPC: 0.941892 (Simulation time: 93 hr 4 min 45 sec) 
 Total Blocks : 196608 Invalid Blocks : 1964 Valid Blocks : 194644
 Total Tags : 491520 Threshold : 12288 Invalid Tags : 198572 Pr0 Tags : 98304 Pr1 Tags : 194644 num_pr0 : 12288
 SAE Count : 0
 Inter-Core Inteference in Data Store : 100038
Heartbeat CPU 6 instructions: 230000002 cycles: 138114062 heartbeat IPC: 0.939929 cumulative IPC: 0.940763 (Simulation time: 93 hr 5 min 45 sec) 
 Total Blocks : 196608 Invalid Blocks : 1963 Valid Blocks : 194645
 Total Tags : 491520 Threshold : 12288 Invalid Tags : 198571 Pr0 Tags : 98304 Pr1 Tags : 194645 num_pr0 : 12288
 SAE Count : 0
 Inter-Core Inteference in Data Store : 100206
Heartbeat CPU 2 instructions: 230000002 cycles: 138126476 heartbeat IPC: 0.935483 cumulative IPC: 0.940373 (Simulation time: 93 hr 6 min 18 sec) 
 Total Blocks : 196608 Invalid Blocks : 1963 Valid Blocks : 194645
 Total Tags : 491520 Threshold : 12288 Invalid Tags : 198572 Pr0 Tags : 98303 Pr1 Tags : 194645 num_pr0 : 12288
 SAE Count : 0
 Inter-Core Inteference in Data Store : 100245
Heartbeat CPU 1 instructions: 230000002 cycles: 138150956 heartbeat IPC: 0.940796 cumulative IPC: 0.939692 (Simulation time: 93 hr 6 min 53 sec) 
 Total Blocks : 196608 Invalid Blocks : 1961 Valid Blocks : 194647
 Total Tags : 491520 Threshold : 12288 Invalid Tags : 198569 Pr0 Tags : 98304 Pr1 Tags : 194647 num_pr0 : 12288
 SAE Count : 0
 Inter-Core Inteference in Data Store : 100320
Heartbeat CPU 3 instructions: 230000002 cycles: 138191692 heartbeat IPC: 0.938289 cumulative IPC: 0.938496 (Simulation time: 93 hr 8 min 18 sec) 
 Total Blocks : 196608 Invalid Blocks : 1961 Valid Blocks : 194647
 Total Tags : 491520 Threshold : 12288 Invalid Tags : 198569 Pr0 Tags : 98304 Pr1 Tags : 194647 num_pr0 : 12288
 SAE Count : 0
 Inter-Core Inteference in Data Store : 100392
Heartbeat CPU 0 instructions: 230000002 cycles: 138211159 heartbeat IPC: 0.942262 cumulative IPC: 0.937875 (Simulation time: 93 hr 8 min 48 sec) 
 Total Blocks : 196608 Invalid Blocks : 1960 Valid Blocks : 194648
 Total Tags : 491520 Threshold : 12288 Invalid Tags : 198570 Pr0 Tags : 98302 Pr1 Tags : 194648 num_pr0 : 12288
 SAE Count : 0
 Inter-Core Inteference in Data Store : 100459
Heartbeat CPU 4 instructions: 230000002 cycles: 138315669 heartbeat IPC: 0.925845 cumulative IPC: 0.93484 (Simulation time: 93 hr 11 min 37 sec) 
 Total Blocks : 196608 Invalid Blocks : 1956 Valid Blocks : 194652
 Total Tags : 491520 Threshold : 12288 Invalid Tags : 198565 Pr0 Tags : 98303 Pr1 Tags : 194652 num_pr0 : 12287
 SAE Count : 0
 Inter-Core Inteference in Data Store : 100896
Heartbeat CPU 7 instructions: 230000002 cycles: 138367928 heartbeat IPC: 0.933529 cumulative IPC: 0.93335 (Simulation time: 93 hr 13 min 10 sec) 
 Total Blocks : 196608 Invalid Blocks : 1952 Valid Blocks : 194656
 Total Tags : 491520 Threshold : 12288 Invalid Tags : 198560 Pr0 Tags : 98304 Pr1 Tags : 194656 num_pr0 : 12288
 SAE Count : 0
 Inter-Core Inteference in Data Store : 101094
Heartbeat CPU 6 instructions: 240000002 cycles: 148693301 heartbeat IPC: 0.945248 cumulative IPC: 0.94188 (Simulation time: 97 hr 58 min 49 sec) 
 Total Blocks : 196608 Invalid Blocks : 1622 Valid Blocks : 194986
 Total Tags : 491520 Threshold : 12288 Invalid Tags : 198230 Pr0 Tags : 98304 Pr1 Tags : 194986 num_pr0 : 12288
 SAE Count : 0
 Inter-Core Inteference in Data Store : 133657
Heartbeat CPU 5 instructions: 240000002 cycles: 148766431 heartbeat IPC: 0.93535 cumulative IPC: 0.940248 (Simulation time: 98 hr 0 min 48 sec) 
 Total Blocks : 196608 Invalid Blocks : 1619 Valid Blocks : 194989
 Total Tags : 491520 Threshold : 12288 Invalid Tags : 198227 Pr0 Tags : 98304 Pr1 Tags : 194989 num_pr0 : 12288
 SAE Count : 0
 Inter-Core Inteference in Data Store : 133852
Heartbeat CPU 1 instructions: 240000002 cycles: 148831695 heartbeat IPC: 0.936265 cumulative IPC: 0.938833 (Simulation time: 98 hr 2 min 38 sec) 
 Total Blocks : 196608 Invalid Blocks : 1619 Valid Blocks : 194989
 Total Tags : 491520 Threshold : 12288 Invalid Tags : 198227 Pr0 Tags : 98304 Pr1 Tags : 194989 num_pr0 : 12288
 SAE Count : 0
 Inter-Core Inteference in Data Store : 134042
Heartbeat CPU 3 instructions: 240000002 cycles: 148931839 heartbeat IPC: 0.931086 cumulative IPC: 0.936633 (Simulation time: 98 hr 5 min 22 sec) 
 Total Blocks : 196608 Invalid Blocks : 1615 Valid Blocks : 194993
 Total Tags : 491520 Threshold : 12288 Invalid Tags : 198224 Pr0 Tags : 98303 Pr1 Tags : 194993 num_pr0 : 12287
 SAE Count : 0
 Inter-Core Inteference in Data Store : 134463
Heartbeat CPU 7 instructions: 240000002 cycles: 148943488 heartbeat IPC: 0.945576 cumulative IPC: 0.936377 (Simulation time: 98 hr 5 min 40 sec) 
 Total Blocks : 196608 Invalid Blocks : 1614 Valid Blocks : 194994
 Total Tags : 491520 Threshold : 12288 Invalid Tags : 198222 Pr0 Tags : 98304 Pr1 Tags : 194994 num_pr0 : 12288
 SAE Count : 0
 Inter-Core Inteference in Data Store : 134502
Heartbeat CPU 0 instructions: 240000002 cycles: 148954378 heartbeat IPC: 0.93082 cumulative IPC: 0.936101 (Simulation time: 98 hr 5 min 51 sec) 
 Total Blocks : 196608 Invalid Blocks : 1614 Valid Blocks : 194994
 Total Tags : 491520 Threshold : 12288 Invalid Tags : 198223 Pr0 Tags : 98303 Pr1 Tags : 194994 num_pr0 : 12288
 SAE Count : 0
 Inter-Core Inteference in Data Store : 134518
Heartbeat CPU 4 instructions: 240000002 cycles: 148985766 heartbeat IPC: 0.937199 cumulative IPC: 0.935429 (Simulation time: 98 hr 6 min 39 sec) 
 Total Blocks : 196608 Invalid Blocks : 1614 Valid Blocks : 194994
 Total Tags : 491520 Threshold : 12288 Invalid Tags : 198222 Pr0 Tags : 98304 Pr1 Tags : 194994 num_pr0 : 12288
 SAE Count : 0
 Inter-Core Inteference in Data Store : 134524
Heartbeat CPU 2 instructions: 240000002 cycles: 148995804 heartbeat IPC: 0.92002 cumulative IPC: 0.9352 (Simulation time: 98 hr 6 min 55 sec) 
 Total Blocks : 196608 Invalid Blocks : 1614 Valid Blocks : 194994
 Total Tags : 491520 Threshold : 12288 Invalid Tags : 198222 Pr0 Tags : 98304 Pr1 Tags : 194994 num_pr0 : 12288
 SAE Count : 0
 Inter-Core Inteference in Data Store : 134546
Heartbeat CPU 6 instructions: 250000003 cycles: 159429549 heartbeat IPC: 0.931424 cumulative IPC: 0.93977 (Simulation time: 102 hr 50 min 3 sec) 
 Total Blocks : 196608 Invalid Blocks : 1337 Valid Blocks : 195271
 Total Tags : 491520 Threshold : 12288 Invalid Tags : 197945 Pr0 Tags : 98304 Pr1 Tags : 195271 num_pr0 : 12288
 SAE Count : 0
 Inter-Core Inteference in Data Store : 167367
Heartbeat CPU 5 instructions: 250000003 cycles: 159543491 heartbeat IPC: 0.927897 cumulative IPC: 0.937751 (Simulation time: 102 hr 53 min 5 sec) 
 Total Blocks : 196608 Invalid Blocks : 1334 Valid Blocks : 195274
 Total Tags : 491520 Threshold : 12288 Invalid Tags : 197942 Pr0 Tags : 98304 Pr1 Tags : 195274 num_pr0 : 12288
 SAE Count : 0
 Inter-Core Inteference in Data Store : 167738
Heartbeat CPU 1 instructions: 250000003 cycles: 159587221 heartbeat IPC: 0.929755 cumulative IPC: 0.937003 (Simulation time: 102 hr 54 min 2 sec) 
 Total Blocks : 196608 Invalid Blocks : 1333 Valid Blocks : 195275
 Total Tags : 491520 Threshold : 12288 Invalid Tags : 197941 Pr0 Tags : 98304 Pr1 Tags : 195275 num_pr0 : 12288
 SAE Count : 0
 Inter-Core Inteference in Data Store : 167976
Heartbeat CPU 7 instructions: 250000003 cycles: 159600727 heartbeat IPC: 0.938329 cumulative IPC: 0.936767 (Simulation time: 102 hr 54 min 27 sec) 
 Total Blocks : 196608 Invalid Blocks : 1333 Valid Blocks : 195275
 Total Tags : 491520 Threshold : 12288 Invalid Tags : 197941 Pr0 Tags : 98304 Pr1 Tags : 195275 num_pr0 : 12288
 SAE Count : 0
 Inter-Core Inteference in Data Store : 168015
Heartbeat CPU 2 instructions: 250000003 cycles: 159634315 heartbeat IPC: 0.939981 cumulative IPC: 0.936153 (Simulation time: 102 hr 55 min 15 sec) 
 Total Blocks : 196608 Invalid Blocks : 1332 Valid Blocks : 195276
 Total Tags : 491520 Threshold : 12288 Invalid Tags : 197940 Pr0 Tags : 98304 Pr1 Tags : 195276 num_pr0 : 12288
 SAE Count : 0
 Inter-Core Inteference in Data Store : 168107
Heartbeat CPU 0 instructions: 250000003 cycles: 159683518 heartbeat IPC: 0.932041 cumulative IPC: 0.935286 (Simulation time: 102 hr 56 min 38 sec) 
[...]
LLC3 AVERAGE MISS LATENCY: 513.777 cycles

LLC3 Set Associative Eviction Count : 0
LLC3 Priority 0 entries : 12288
LLC3 Inter-Core Interference : 84825
LLC4 TOTAL     ACCESS: 487251  HIT:    19  MISS: 487232  HIT %: 0.00389943  MISS %: 99.9961  AVERAGE MISS PENALTY: 442.591
LLC4 LOAD      ACCESS:  6485  HIT:     8  MISS:  6477  HIT %: 0.123362  MISS %: 99.8766  AVERAGE MISS PENALTY: 584.978
LLC4 RFO       ACCESS: 12181  HIT:     0  MISS: 12181  HIT %:     0  MISS %:   100  AVERAGE MISS PENALTY: 514.241
LLC4 PREFETCH  ACCESS: 456411  HIT:     3  MISS: 456408  HIT %: 0.000657302  MISS %: 99.9993  AVERAGE MISS PENALTY: 450.456
LLC4 WRITEBACK ACCESS: 12174  HIT:     8  MISS: 12166  HIT %: 0.0657138  MISS %: 99.9343  AVERAGE MISS PENALTY: 0
LLC4 PREFETCH  REQUESTED:     0  ISSUED:     0  USEFUL:     0  USELESS:   127
 USEFUL LOAD PREFETCHES:          0 PREFETCH ISSUED TO LOWER LEVEL:   19176920  ACCURACY: 0
 TIMELY PREFETCHES:          0 LATE PREFETCHES: 0 DROPPED PREFETCHES: 0
LLC4 AVERAGE MISS LATENCY: 442.591 cycles

LLC4 Set Associative Eviction Count : 0
LLC4 Priority 0 entries : 12288
LLC4 Inter-Core Interference : 84846
LLC5 TOTAL     ACCESS: 487247  HIT:     9  MISS: 487238  HIT %: 0.00184711  MISS %: 99.9982  AVERAGE MISS PENALTY: 441.946
LLC5 LOAD      ACCESS:  5987  HIT:     4  MISS:  5983  HIT %: 0.0668114  MISS %: 99.9332  AVERAGE MISS PENALTY: 579.453
LLC5 RFO       ACCESS: 12181  HIT:     0  MISS: 12181  HIT %:     0  MISS %:   100  AVERAGE MISS PENALTY: 761.296
LLC5 PREFETCH  ACCESS: 456906  HIT:     1  MISS: 456905  HIT %: 0.000218863  MISS %: 99.9998  AVERAGE MISS PENALTY: 443.402
LLC5 WRITEBACK ACCESS: 12173  HIT:     4  MISS: 12169  HIT %: 0.0328596  MISS %: 99.9671  AVERAGE MISS PENALTY: 0
LLC5 PREFETCH  REQUESTED:     0  ISSUED:     0  USEFUL:     0  USELESS:   186
 USEFUL LOAD PREFETCHES:          0 PREFETCH ISSUED TO LOWER LEVEL:   13966283  ACCURACY: 0
 TIMELY PREFETCHES:          0 LATE PREFETCHES: 0 DROPPED PREFETCHES: 0
LLC5 AVERAGE MISS LATENCY: 441.946 cycles

LLC5 Set Associative Eviction Count : 0
LLC5 Priority 0 entries : 12288
LLC5 Inter-Core Interference : 85027
LLC6 TOTAL     ACCESS: 487232  HIT:     6  MISS: 487226  HIT %: 0.00123145  MISS %: 99.9988  AVERAGE MISS PENALTY: 534.521
LLC6 LOAD      ACCESS:  6086  HIT:     0  MISS:  6086  HIT %:     0  MISS %:   100  AVERAGE MISS PENALTY: 459.25
LLC6 RFO       ACCESS: 12181  HIT:     0  MISS: 12181  HIT %:     0  MISS %:   100  AVERAGE MISS PENALTY: 504.652
LLC6 PREFETCH  ACCESS: 456802  HIT:     6  MISS: 456796  HIT %: 0.00131348  MISS %: 99.9987  AVERAGE MISS PENALTY: 550.553
LLC6 WRITEBACK ACCESS: 12163  HIT:     0  MISS: 12163  HIT %:     0  MISS %:   100  AVERAGE MISS PENALTY: 0
LLC6 PREFETCH  REQUESTED:     0  ISSUED:     0  USEFUL:     0  USELESS:   335
 USEFUL LOAD PREFETCHES:          0 PREFETCH ISSUED TO LOWER LEVEL:   22038520  ACCURACY: 0
 TIMELY PREFETCHES:          0 LATE PREFETCHES: 0 DROPPED PREFETCHES: 0
LLC6 AVERAGE MISS LATENCY: 534.521 cycles

LLC6 Set Associative Eviction Count : 0
LLC6 Priority 0 entries : 12288
LLC6 Inter-Core Interference : 84980
LLC7 TOTAL     ACCESS: 487233  HIT:     4  MISS: 487229  HIT %: 0.000820962  MISS %: 99.9992  AVERAGE MISS PENALTY: 510.992
LLC7 LOAD      ACCESS:  5989  HIT:     0  MISS:  5989  HIT %:     0  MISS %:   100  AVERAGE MISS PENALTY: 451.528
LLC7 RFO       ACCESS: 12181  HIT:     0  MISS: 12181  HIT %:     0  MISS %:   100  AVERAGE MISS PENALTY: 489.923
LLC7 PREFETCH  ACCESS: 456900  HIT:     4  MISS: 456896  HIT %: 0.000875465  MISS %: 99.9991  AVERAGE MISS PENALTY: 525.937
LLC7 WRITEBACK ACCESS: 12163  HIT:     0  MISS: 12163  HIT %:     0  MISS %:   100  AVERAGE MISS PENALTY: 0
LLC7 PREFETCH  REQUESTED:     0  ISSUED:     0  USEFUL:     0  USELESS:   333
 USEFUL LOAD PREFETCHES:          0 PREFETCH ISSUED TO LOWER LEVEL:   16762294  ACCURACY: 0
 TIMELY PREFETCHES:          0 LATE PREFETCHES: 0 DROPPED PREFETCHES: 0
LLC7 AVERAGE MISS LATENCY: 510.992 cycles

LLC7 Set Associative Eviction Count : 0
LLC7 Priority 0 entries : 12288
LLC7 Inter-Core Interference : 85067
ROI Average ROB Stall Cycles:	6.03315
ROI Total ROB Stalls Cycles:	170633650
ROI TOTAL ROB counter      :	28282692
ROI Average Load ROB Stall Cycles:	21.6895
ROI Total Load ROB Stalls Cycle  :	89693775
ROI Total Load ROB stalls Counter:	4135360
Major fault: 0 Minor fault: 113042

CPU 7 cumulative IPC: 0.937805 instructions: 200000001 cycles: 213263850
ITLB TOTAL     ACCESS: 17959281  HIT: 17959281  MISS:     0  HIT %:   100  MISS %:     0  AVERAGE MISS PENALTY: 0
ITLB LOAD      ACCESS: 17959281  HIT: 17959281  MISS:     0  HIT %:   100  MISS %:     0  AVERAGE MISS PENALTY: 0
ITLB RFO       ACCESS:     0  HIT:     0  MISS:     0  HIT %:     0  MISS %:     0  AVERAGE MISS PENALTY: 0
ITLB PREFETCH  ACCESS:     0  HIT:     0  MISS:     0  HIT %:     0  MISS %:     0  AVERAGE MISS PENALTY: 0
ITLB WRITEBACK ACCESS:     0  HIT:     0  MISS:     0  HIT %:     0  MISS %:     0  AVERAGE MISS PENALTY: 0
ITLB PREFETCH  REQUESTED:     0  ISSUED:     0  USEFUL:     0  USELESS:     0
 USEFUL LOAD PREFETCHES:          0 PREFETCH ISSUED TO LOWER LEVEL:          0  ACCURACY: -nan
 TIMELY PREFETCHES:          0 LATE PREFETCHES: 0 DROPPED PREFETCHES: 0
ITLB AVERAGE MISS LATENCY: -nan cycles

ITLB Set Associative Eviction Count : 0
ITLB Priority 0 entries : 0
ITLB Inter-Core Interference : 0
DTLB TOTAL     ACCESS: 64548258  HIT: 64268786  MISS: 279472  HIT %: 99.567  MISS %: 0.432966  AVERAGE MISS PENALTY: 96.3412
DTLB LOAD      ACCESS: 59574868  HIT: 59340152  MISS: 234716  HIT %: 99.606  MISS %: 0.393985  AVERAGE MISS PENALTY: 112.347
DTLB RFO       ACCESS: 4973390  HIT: 4928634  MISS: 44756  HIT %: 99.1001  MISS %: 0.899909  AVERAGE MISS PENALTY: 12.4029
DTLB PREFETCH  ACCESS:     0  HIT:     0  MISS:     0  HIT %:     0  MISS %:     0  AVERAGE MISS PENALTY: 0
DTLB WRITEBACK ACCESS:     0  HIT:     0  MISS:     0  HIT %:     0  MISS %:     0  AVERAGE MISS PENALTY: 0
DTLB PREFETCH  REQUESTED:     0  ISSUED:     0  USEFUL:     0  USELESS:     0
 USEFUL LOAD PREFETCHES:          0 PREFETCH ISSUED TO LOWER LEVEL:          0  ACCURACY: -nan
 TIMELY PREFETCHES:          0 LATE PREFETCHES: 0 DROPPED PREFETCHES: 0
DTLB AVERAGE MISS LATENCY: 96.3412 cycles

DTLB Set Associative Eviction Count : 0
DTLB Priority 0 entries : 0
DTLB Inter-Core Interference : 0
STLB TOTAL     ACCESS: 279472  HIT: 220089  MISS: 59383  HIT %: 78.7517  MISS %: 21.2483  AVERAGE MISS PENALTY: 100
STLB LOAD      ACCESS: 234716  HIT: 176856  MISS: 57860  HIT %: 75.3489  MISS %: 24.6511  AVERAGE MISS PENALTY: 100
STLB RFO       ACCESS: 44756  HIT: 43233  MISS:  1523  HIT %: 96.5971  MISS %: 3.4029  AVERAGE MISS PENALTY: 100
STLB PREFETCH  ACCESS:     0  HIT:     0  MISS:     0  HIT %:     0  MISS %:     0  AVERAGE MISS PENALTY: 0
STLB WRITEBACK ACCESS:     0  HIT:     0  MISS:     0  HIT %:     0  MISS %:     0  AVERAGE MISS PENALTY: 0
STLB PREFETCH  REQUESTED:     0  ISSUED:     0  USEFUL:     0  USELESS:     0
 USEFUL LOAD PREFETCHES:          0 PREFETCH ISSUED TO LOWER LEVEL:          0  ACCURACY: -nan
 TIMELY PREFETCHES:          0 LATE PREFETCHES: 0 DROPPED PREFETCHES: 0
STLB AVERAGE MISS LATENCY: 100 cycles

STLB Set Associative Eviction Count : 0
STLB Priority 0 entries : 0
STLB Inter-Core Interference : 0
L1D TOTAL     ACCESS: 98873413  HIT: 94874966  MISS: 3998447  HIT %: 95.956  MISS %: 4.04401  AVERAGE MISS PENALTY: 2.21207e+07
L1D LOAD      ACCESS: 59671184  HIT: 59054132  MISS: 617052  HIT %: 98.9659  MISS %: 1.03409  AVERAGE MISS PENALTY: 1.43339e+08
L1D RFO       ACCESS: 10902028  HIT: 10804580  MISS: 97448  HIT %: 99.1061  MISS %: 0.893852  AVERAGE MISS PENALTY: 576.676
L1D PREFETCH  ACCESS: 28300201  HIT: 25016254  MISS: 3283947  HIT %: 88.396  MISS %: 11.604  AVERAGE MISS PENALTY: 181.384
L1D WRITEBACK ACCESS:     0  HIT:     0  MISS:     0  HIT %:     0  MISS %:     0  AVERAGE MISS PENALTY: 0
L1D PREFETCH  REQUESTED: 44742503  ISSUED: 30982650  USEFUL: 3283863  USELESS:    87
 USEFUL LOAD PREFETCHES:    3283863 PREFETCH ISSUED TO LOWER LEVEL:   14690352  ACCURACY: 22.3539
 TIMELY PREFETCHES:    3283863 LATE PREFETCHES: 503749 DROPPED PREFETCHES: 13759853
L1D AVERAGE MISS LATENCY: 213.579 cycles

L1D Set Associative Eviction Count : 0
L1D Priority 0 entries : 0
L1D Inter-Core Interference : 0
L1I TOTAL     ACCESS: 30130310  HIT: 30130310  MISS:     0  HIT %:   100  MISS %:     0  AVERAGE MISS PENALTY: 0
L1I LOAD      ACCESS: 30130310  HIT: 30130310  MISS:     0  HIT %:   100  MISS %:     0  AVERAGE MISS PENALTY: 0
L1I RFO       ACCESS:     0  HIT:     0  MISS:     0  HIT %:     0  MISS %:     0  AVERAGE MISS PENALTY: 0
L1I PREFETCH  ACCESS:     0  HIT:     0  MISS:     0  HIT %:     0  MISS %:     0  AVERAGE MISS PENALTY: 0
L1I WRITEBACK ACCESS:     0  HIT:     0  MISS:     0  HIT %:     0  MISS %:     0  AVERAGE MISS PENALTY: 0
L1I PREFETCH  REQUESTED:     0  ISSUED:     0  USEFUL:     0  USELESS:     0
 USEFUL LOAD PREFETCHES:          0 PREFETCH ISSUED TO LOWER LEVEL:          0  ACCURACY: -nan
 TIMELY PREFETCHES:          0 LATE PREFETCHES: 0 DROPPED PREFETCHES: 0
L1I AVERAGE MISS LATENCY: -nan cycles

L1I Set Associative Eviction Count : 0
L1I Priority 0 entries : 0
L1I Inter-Core Interference : 0
L2C TOTAL     ACCESS: 6977121  HIT: 3176541  MISS: 3800580  HIT %: 45.528  MISS %: 54.472  AVERAGE MISS PENALTY: 2.04276e+07
L2C LOAD      ACCESS: 595570  HIT: 125178  MISS: 470392  HIT %: 21.0182  MISS %: 78.9818  AVERAGE MISS PENALTY: 1.65043e+08
L2C RFO       ACCESS: 97448  HIT:     0  MISS: 97448  HIT %:     0  MISS %:   100  AVERAGE MISS PENALTY: 559.722
L2C PREFETCH  ACCESS: 6185171  HIT: 2952431  MISS: 3232740  HIT %: 47.734  MISS %: 52.266  AVERAGE MISS PENALTY: 503.123
L2C WRITEBACK ACCESS: 98932  HIT: 98932  MISS:     0  HIT %:   100  MISS %:     0  AVERAGE MISS PENALTY: 0
L2C PREFETCH  REQUESTED: 6012382  ISSUED: 5987079  USEFUL: 119247  USELESS: 3114325
 USEFUL LOAD PREFETCHES:     119247 PREFETCH ISSUED TO LOWER LEVEL:    5325962  ACCURACY: 2.23898
 TIMELY PREFETCHES:     119247 LATE PREFETCHES: 379103 DROPPED PREFETCHES: 25303
L2C AVERAGE MISS LATENCY: 492.86 cycles

L2C Set Associative Eviction Count : 0
L2C Priority 0 entries : 0
L2C Inter-Core Interference : 0
LLC0 TOTAL     ACCESS: 487244  HIT:     4  MISS: 487240  HIT %: 0.000820944  MISS %: 99.9992  AVERAGE MISS PENALTY: 438.719
LLC0 LOAD      ACCESS: 63732  HIT:     1  MISS: 63731  HIT %: 0.00156907  MISS %: 99.9984  AVERAGE MISS PENALTY: 543.792
LLC0 RFO       ACCESS: 12181  HIT:     0  MISS: 12181  HIT %:     0  MISS %:   100  AVERAGE MISS PENALTY: 462.637
LLC0 PREFETCH  ACCESS: 399160  HIT:     3  MISS: 399157  HIT %: 0.000751578  MISS %: 99.9992  AVERAGE MISS PENALTY: 434.59
LLC0 WRITEBACK ACCESS: 12171  HIT:     0  MISS: 12171  HIT %:     0  MISS %:   100  AVERAGE MISS PENALTY: 0
LLC0 PREFETCH  REQUESTED:     0  ISSUED:     0  USEFUL:     0  USELESS:   171
 USEFUL LOAD PREFETCHES:          0 PREFETCH ISSUED TO LOWER LEVEL:   11528752  ACCURACY: 0
 TIMELY PREFETCHES:          0 LATE PREFETCHES: 0 DROPPED PREFETCHES: 0
LLC0 AVERAGE MISS LATENCY: 438.719 cycles

LLC0 Set Associative Eviction Count : 0
LLC0 Priority 0 entries : 12288
LLC0 Inter-Core Interference : 85114
LLC1 TOTAL     ACCESS: 487237  HIT:     2  MISS: 487235  HIT %: 0.000410478  MISS %: 99.9996  AVERAGE MISS PENALTY: 436.761
LLC1 LOAD      ACCESS: 19868  HIT:     0  MISS: 19868  HIT %:     0  MISS %:   100  AVERAGE MISS PENALTY: 552.687
LLC1 RFO       ACCESS: 12181  HIT:     0  MISS: 12181  HIT %:     0  MISS %:   100  AVERAGE MISS PENALTY: 470.248
LLC1 PREFETCH  ACCESS: 443017  HIT:     2  MISS: 443015  HIT %: 0.00045145  MISS %: 99.9995  AVERAGE MISS PENALTY: 442.641
LLC1 WRITEBACK ACCESS: 12171  HIT:     0  MISS: 12171  HIT %:     0  MISS %:   100  AVERAGE MISS PENALTY: 0
LLC1 PREFETCH  REQUESTED:     0  ISSUED:     0  USEFUL:     0  USELESS:   122
 USEFUL LOAD PREFETCHES:          0 PREFETCH ISSUED TO LOWER LEVEL:    9991227  ACCURACY: 0
 TIMELY PREFETCHES:          0 LATE PREFETCHES: 0 DROPPED PREFETCHES: 0
LLC1 AVERAGE MISS LATENCY: 436.761 cycles

LLC1 Set Associative Eviction Count : 0
LLC1 Priority 0 entries : 12288
LLC1 Inter-Core Interference : 84964
LLC2 TOTAL     ACCESS: 487237  HIT:     3  MISS: 487234  HIT %: 0.000615717  MISS %: 99.9994  AVERAGE MISS PENALTY: 527.496
LLC2 LOAD      ACCESS:  6296  HIT:     0  MISS:  6296  HIT %:     0  MISS %:   100  AVERAGE MISS PENALTY: 454.945
LLC2 RFO       ACCESS: 12181  HIT:     0  MISS: 12181  HIT %:     0  MISS %:   100  AVERAGE MISS PENALTY: 474.815
LLC2 PREFETCH  ACCESS: 456589  HIT:     3  MISS: 456586  HIT %: 0.000657046  MISS %: 99.9993  AVERAGE MISS PENALTY: 543.963
LLC2 WRITEBACK ACCESS: 12171  HIT:     0  MISS: 12171  HIT %:     0  MISS %:   100  AVERAGE MISS PENALTY: 0
LLC2 PREFETCH  REQUESTED:     0  ISSUED:     0  USEFUL:     0  USELESS:   138
 USEFUL LOAD PREFETCHES:          0 PREFETCH ISSUED TO LOWER LEVEL:   15904042  ACCURACY: 0
 TIMELY PREFETCHES:          0 LATE PREFETCHES: 0 DROPPED PREFETCHES: 0
LLC2 AVERAGE MISS LATENCY: 527.496 cycles

LLC2 Set Associative Eviction Count : 0
LLC2 Priority 0 entries : 12288
LLC2 Inter-Core Interference : 85037
LLC3 TOTAL     ACCESS: 487248  HIT:     9  MISS: 487239  HIT %: 0.00184711  MISS %: 99.9982  AVERAGE MISS PENALTY: 515.074
LLC3 LOAD      ACCESS:  6737  HIT:     0  MISS:  6737  HIT %:     0  MISS %:   100  AVERAGE MISS PENALTY: 428.416
LLC3 RFO       ACCESS: 12181  HIT:     0  MISS: 12181  HIT %:     0  MISS %:   100  AVERAGE MISS PENALTY: 468.825
LLC3 PREFETCH  ACCESS: 456159  HIT:     9  MISS: 456150  HIT %: 0.001973  MISS %: 99.998  AVERAGE MISS PENALTY: 531.332
LLC3 WRITEBACK ACCESS: 12171  HIT:     0  MISS: 12171  HIT %:     0  MISS %:   100  AVERAGE MISS PENALTY: 0
LLC3 PREFETCH  REQUESTED:     0  ISSUED:     0  USEFUL:     0  USELESS:   197
 USEFUL LOAD PREFETCHES:          0 PREFETCH ISSUED TO LOWER LEVEL:   12488716  ACCURACY: 0
 TIMELY PREFETCHES:          0 LATE PREFETCHES: 0 DROPPED PREFETCHES: 0
LLC3 AVERAGE MISS LATENCY: 515.074 cycles

LLC3 Set Associative Eviction Count : 0
LLC3 Priority 0 entries : 12288
LLC3 Inter-Core Interference : 84825
LLC4 TOTAL     ACCESS: 487259  HIT:    24  MISS: 487235  HIT %: 0.00492551  MISS %: 99.9951  AVERAGE MISS PENALTY: 445.199
LLC4 LOAD      ACCESS:  6476  HIT:    10  MISS:  6466  HIT %: 0.154416  MISS %: 99.8456  AVERAGE MISS PENALTY: 585.498
LLC4 RFO       ACCESS: 12181  HIT:     0  MISS: 12181  HIT %:     0  MISS %:   100  AVERAGE MISS PENALTY: 518.259
LLC4 PREFETCH  ACCESS: 456420  HIT:     5  MISS: 456415  HIT %: 0.00109548  MISS %: 99.9989  AVERAGE MISS PENALTY: 453.135
LLC4 WRITEBACK ACCESS: 12182  HIT:     9  MISS: 12173  HIT %: 0.0738795  MISS %: 99.9261  AVERAGE MISS PENALTY: 0
LLC4 PREFETCH  REQUESTED:     0  ISSUED:     0  USEFUL:     0  USELESS:   127
 USEFUL LOAD PREFETCHES:          0 PREFETCH ISSUED TO LOWER LEVEL:   19176920  ACCURACY: 0
 TIMELY PREFETCHES:          0 LATE PREFETCHES: 0 DROPPED PREFETCHES: 0
LLC4 AVERAGE MISS LATENCY: 445.199 cycles

LLC4 Set Associative Eviction Count : 0
LLC4 Priority 0 entries : 12288
LLC4 Inter-Core Interference : 84846
LLC5 TOTAL     ACCESS: 487257  HIT:    17  MISS: 487240  HIT %: 0.00348892  MISS %: 99.9965  AVERAGE MISS PENALTY: 446.082
LLC5 LOAD      ACCESS:  5917  HIT:     7  MISS:  5910  HIT %: 0.118303  MISS %: 99.8817  AVERAGE MISS PENALTY: 588.69
LLC5 RFO       ACCESS: 12181  HIT:     0  MISS: 12181  HIT %:     0  MISS %:   100  AVERAGE MISS PENALTY: 776.725
LLC5 PREFETCH  ACCESS: 456978  HIT:     3  MISS: 456975  HIT %: 0.000656487  MISS %: 99.9993  AVERAGE MISS PENALTY: 447.308
LLC5 WRITEBACK ACCESS: 12181  HIT:     7  MISS: 12174  HIT %: 0.0574665  MISS %: 99.9425  AVERAGE MISS PENALTY: 0
LLC5 PREFETCH  REQUESTED:     0  ISSUED:     0  USEFUL:     0  USELESS:   186
 USEFUL LOAD PREFETCHES:          0 PREFETCH ISSUED TO LOWER LEVEL:   13966283  ACCURACY: 0
 TIMELY PREFETCHES:          0 LATE PREFETCHES: 0 DROPPED PREFETCHES: 0
LLC5 AVERAGE MISS LATENCY: 446.082 cycles

LLC5 Set Associative Eviction Count : 0
LLC5 Priority 0 entries : 12288
LLC5 Inter-Core Interference : 85027
LLC6 TOTAL     ACCESS: 487243  HIT:     7  MISS: 487236  HIT %: 0.00143665  MISS %: 99.9986  AVERAGE MISS PENALTY: 535.771
LLC6 LOAD      ACCESS:  6004  HIT:     1  MISS:  6003  HIT %: 0.0166556  MISS %: 99.9833  AVERAGE MISS PENALTY: 445.436
LLC6 RFO       ACCESS: 12181  HIT:     0  MISS: 12181  HIT %:     0  MISS %:   100  AVERAGE MISS PENALTY: 497.725
LLC6 PREFETCH  ACCESS: 456886  HIT:     6  MISS: 456880  HIT %: 0.00131324  MISS %: 99.9987  AVERAGE MISS PENALTY: 552.246
LLC6 WRITEBACK ACCESS: 12172  HIT:     0  MISS: 12172  HIT %:     0  MISS %:   100  AVERAGE MISS PENALTY: 0
LLC6 PREFETCH  REQUESTED:     0  ISSUED:     0  USEFUL:     0  USELESS:   335
 USEFUL LOAD PREFETCHES:          0 PREFETCH ISSUED TO LOWER LEVEL:   22038520  ACCURACY: 0
 TIMELY PREFETCHES:          0 LATE PREFETCHES: 0 DROPPED PREFETCHES: 0
LLC6 AVERAGE MISS LATENCY: 535.771 cycles

LLC6 Set Associative Eviction Count : 0
LLC6 Priority 0 entries : 12288
LLC6 Inter-Core Interference : 84980
LLC7 TOTAL     ACCESS: 487246  HIT:     6  MISS: 487240  HIT %: 0.00123141  MISS %: 99.9988  AVERAGE MISS PENALTY: 513.004
LLC7 LOAD      ACCESS:  6140  HIT:     1  MISS:  6139  HIT %: 0.0162866  MISS %: 99.9837  AVERAGE MISS PENALTY: 452.562
LLC7 RFO       ACCESS: 12181  HIT:     0  MISS: 12181  HIT %:     0  MISS %:   100  AVERAGE MISS PENALTY: 487.612
LLC7 PREFETCH  ACCESS: 456753  HIT:     5  MISS: 456748  HIT %: 0.00109468  MISS %: 99.9989  AVERAGE MISS PENALTY: 528.165
LLC7 WRITEBACK ACCESS: 12172  HIT:     0  MISS: 12172  HIT %:     0  MISS %:   100  AVERAGE MISS PENALTY: 0
LLC7 PREFETCH  REQUESTED:     0  ISSUED:     0  USEFUL:     0  USELESS:   333
 USEFUL LOAD PREFETCHES:          0 PREFETCH ISSUED TO LOWER LEVEL:   16762294  ACCURACY: 0
 TIMELY PREFETCHES:          0 LATE PREFETCHES: 0 DROPPED PREFETCHES: 0
LLC7 AVERAGE MISS LATENCY: 513.004 cycles

LLC7 Set Associative Eviction Count : 0
LLC7 Priority 0 entries : 12288
LLC7 Inter-Core Interference : 85067
ROI Average ROB Stall Cycles:	6.02708
ROI Total ROB Stalls Cycles:	170491662
ROI TOTAL ROB counter      :	28287623
ROI Average Load ROB Stall Cycles:	21.6342
ROI Total Load ROB Stalls Cycle  :	89492327
ROI Total Load ROB stalls Counter:	4136618
Major fault: 0 Minor fault: 113079








Interconnect Stats 
LINK 0 BW : 0LINK 1 BW : 0LINK 2 BW : 0LINK 3 BW : 0LINK 4 BW : 0LINK 5 BW : 0LINK 6 BW : 0LINK 7 BW : 0
DRAM Statistics
 CHANNEL 0
 RQ ROW_BUFFER_HIT: 12553205  ROW_BUFFER_MISS: 2670286
 DBUS_CONGESTED: 8158297
 WQ ROW_BUFFER_HIT:  1603  ROW_BUFFER_MISS: 386037  FULL:     0

 CHANNEL 1
 RQ ROW_BUFFER_HIT: 12537644  ROW_BUFFER_MISS: 2685909
 DBUS_CONGESTED: 8158297
 WQ ROW_BUFFER_HIT:  1564  ROW_BUFFER_MISS: 386017  FULL:     0

 AVG_CONGESTED_CYCLE: 5
DRAM PAGES: 2097152
Allocated PAGES: 904385
L2C destructor called
L1D destructor called
L1I destructor called
STLB destructor called
DTLB destructor called
ITLB destructor called
L2C destructor called
L1D destructor called
L1I destructor called
STLB destructor called
DTLB destructor called
ITLB destructor called
L2C destructor called
L1D destructor called
L1I destructor called
STLB destructor called
DTLB destructor called
ITLB destructor called
L2C destructor called
L1D destructor called
L1I destructor called
STLB destructor called
DTLB destructor called
ITLB destructor called
L2C destructor called
L1D destructor called
L1I destructor called
STLB destructor called
DTLB destructor called
ITLB destructor called
L2C destructor called
L1D destructor called
L1I destructor called
STLB destructor called
DTLB destructor called
ITLB destructor called
L2C destructor called
L1D destructor called
L1I destructor called
STLB destructor called
DTLB destructor called
ITLB destructor called
L2C destructor called
L1D destructor called
L1I destructor called
STLB destructor called
DTLB destructor called
ITLB destructor called
