
*** ChampSim Multicore Out-of-Order Simulator ***

Warmup Instructions: 200000000
Simulation Instructions: 200000000
Number of CPUs: 8
threads:1

L1I Configuration:
L1I_SET:64
L1I_WAY:8
L1I_RQ_SIZE:64
L1I_WQ_SIZE:64
L1I_PQ_SIZE:8
L1I_MSHR_SIZE:8

L1D Configuration:
L1D_SET:64
L1D_WAY:12
L1D_RQ_SIZE:64
L1D_WQ_SIZE:64
L1D_PQ_SIZE:8
L1D_MSHR_SIZE:16

L2C Configuration:
L2C_SET:1024
L2C_WAY:8
L2C_RQ_SIZE:32
L2C_WQ_SIZE:32
L2C_PQ_SIZE:16
L2C_MSHR_SIZE:32

LLC Configuration:
LLC_SET:2048
LLC_WAY:12
LLC SLICES:8
LLC_RQ_SIZE:64
LLC_WQ_SIZE:64
LLC_PQ_SIZE:32
LLC_MSHR_SIZE:64

Interconnect OFF
Attacker deprioritize is: OFF
Off-chip DRAM Size: 8192 MB Channels: 2 Width: 64-bit Data Rate: 3200 MT/s
PAGE SIZE in KB: 4.000000 
PAGE SIZE in MB: 0.003906 
PAGE offset in bits: 12 
CEASER-S_LLC:0
MIRAGE : 1
CEASER_LATENCY:3
REMAP : OFF
Partitions : 1
Multi-Step : OFF
BFS : OFF

CPU 0 runs /home/anubhav/spec_2017/605.mcf_s-1536B.champsimtrace.xz
CPU 1 runs /home/anubhav/spec_2017/605.mcf_s-1536B.champsimtrace.xz
CPU 2 runs /home/anubhav/spec_2017/605.mcf_s-1536B.champsimtrace.xz
CPU 3 runs /home/anubhav/spec_2017/605.mcf_s-1536B.champsimtrace.xz
CPU 4 runs /home/anubhav/spec_2017/605.mcf_s-1536B.champsimtrace.xz
CPU 5 runs /home/anubhav/spec_2017/605.mcf_s-1536B.champsimtrace.xz
CPU 6 runs /home/anubhav/spec_2017/605.mcf_s-1536B.champsimtrace.xz
CPU 7 runs /home/anubhav/spec_2017/605.mcf_s-1536B.champsimtrace.xz
CPU 0 Bimodal branch predictor
Initialize Hawkeye state
Initialize Hawkeye state
Initialize Hawkeye state
Initialize Hawkeye state
Initialize Hawkeye state
Initialize Hawkeye state
Initialize Hawkeye state
Initialize Hawkeye state
CPU 1 Bimodal branch predictor
Initialize Hawkeye state
Initialize Hawkeye state
Initialize Hawkeye state
Initialize Hawkeye state
Initialize Hawkeye state
Initialize Hawkeye state
Initialize Hawkeye state
Initialize Hawkeye state
CPU 2 Bimodal branch predictor
Initialize Hawkeye state
Initialize Hawkeye state
Initialize Hawkeye state
Initialize Hawkeye state
Initialize Hawkeye state
Initialize Hawkeye state
Initialize Hawkeye state
Initialize Hawkeye state
CPU 3 Bimodal branch predictor
Initialize Hawkeye state
Initialize Hawkeye state
Initialize Hawkeye state
Initialize Hawkeye state
Initialize Hawkeye state
Initialize Hawkeye state
Initialize Hawkeye state
Initialize Hawkeye state
CPU 4 Bimodal branch predictor
Initialize Hawkeye state
Initialize Hawkeye state
Initialize Hawkeye state
Initialize Hawkeye state
Initialize Hawkeye state
Initialize Hawkeye state
Initialize Hawkeye state
Initialize Hawkeye state
CPU 5 Bimodal branch predictor
Initialize Hawkeye state
Initialize Hawkeye state
Initialize Hawkeye state
Initialize Hawkeye state
Initialize Hawkeye state
Initialize Hawkeye state
Initialize Hawkeye state
Initialize Hawkeye state
CPU 6 Bimodal branch predictor
Initialize Hawkeye state
Initialize Hawkeye state
Initialize Hawkeye state
Initialize Hawkeye state
Initialize Hawkeye state
Initialize Hawkeye state
Initialize Hawkeye state
Initialize Hawkeye state
CPU 7 Bimodal branch predictor
Initialize Hawkeye state
Initialize Hawkeye state
Initialize Hawkeye state
Initialize Hawkeye state
Initialize Hawkeye state
Initialize Hawkeye state
Initialize Hawkeye state
Initialize Hawkeye state
Heartbeat CPU 0 instructions: 10000002 cycles: 3443606 heartbeat IPC: 2.90393 cumulative IPC: 2.90393 (Simulation time: 1 hr 41 min 50 sec) 
 Total Blocks : 196608 Invalid Blocks : 25 Valid Blocks : 196583
 Total Tags : 491520 Threshold : 12288 Invalid Tags : 196635 Pr0 Tags : 98302 Pr1 Tags : 196583 num_pr0 : 12288
 SAE Count : 0
 Inter-Core Inteference in Data Store : 1427680
Heartbeat CPU 2 instructions: 10000001 cycles: 3443741 heartbeat IPC: 2.90382 cumulative IPC: 2.90382 (Simulation time: 1 hr 41 min 51 sec) 
 Total Blocks : 196608 Invalid Blocks : 25 Valid Blocks : 196583
 Total Tags : 491520 Threshold : 12288 Invalid Tags : 196635 Pr0 Tags : 98302 Pr1 Tags : 196583 num_pr0 : 12288
 SAE Count : 0
 Inter-Core Inteference in Data Store : 1427747
Heartbeat CPU 1 instructions: 10000002 cycles: 3443873 heartbeat IPC: 2.90371 cumulative IPC: 2.90371 (Simulation time: 1 hr 41 min 52 sec) 
 Total Blocks : 196608 Invalid Blocks : 25 Valid Blocks : 196583
 Total Tags : 491520 Threshold : 12288 Invalid Tags : 196635 Pr0 Tags : 98302 Pr1 Tags : 196583 num_pr0 : 12288
 SAE Count : 0
 Inter-Core Inteference in Data Store : 1427802
Heartbeat CPU 4 instructions: 10000002 cycles: 3444071 heartbeat IPC: 2.90354 cumulative IPC: 2.90354 (Simulation time: 1 hr 41 min 52 sec) 
 Total Blocks : 196608 Invalid Blocks : 25 Valid Blocks : 196583
 Total Tags : 491520 Threshold : 12288 Invalid Tags : 196635 Pr0 Tags : 98302 Pr1 Tags : 196583 num_pr0 : 12287
 SAE Count : 0
 Inter-Core Inteference in Data Store : 1427916
Heartbeat CPU 3 instructions: 10000002 cycles: 3444463 heartbeat IPC: 2.90321 cumulative IPC: 2.90321 (Simulation time: 1 hr 41 min 53 sec) 
 Total Blocks : 196608 Invalid Blocks : 25 Valid Blocks : 196583
 Total Tags : 491520 Threshold : 12288 Invalid Tags : 196635 Pr0 Tags : 98302 Pr1 Tags : 196583 num_pr0 : 12288
 SAE Count : 0
 Inter-Core Inteference in Data Store : 1428116
Heartbeat CPU 5 instructions: 10000002 cycles: 3444714 heartbeat IPC: 2.903 cumulative IPC: 2.903 (Simulation time: 1 hr 41 min 53 sec) 
 Total Blocks : 196608 Invalid Blocks : 25 Valid Blocks : 196583
 Total Tags : 491520 Threshold : 12288 Invalid Tags : 196637 Pr0 Tags : 98300 Pr1 Tags : 196583 num_pr0 : 12287
 SAE Count : 0
 Inter-Core Inteference in Data Store : 1428243
Heartbeat CPU 6 instructions: 10000002 cycles: 3445209 heartbeat IPC: 2.90258 cumulative IPC: 2.90258 (Simulation time: 1 hr 41 min 55 sec) 
 Total Blocks : 196608 Invalid Blocks : 25 Valid Blocks : 196583
 Total Tags : 491520 Threshold : 12288 Invalid Tags : 196637 Pr0 Tags : 98300 Pr1 Tags : 196583 num_pr0 : 12287
 SAE Count : 0
 Inter-Core Inteference in Data Store : 1428462
Heartbeat CPU 7 instructions: 10000002 cycles: 3445735 heartbeat IPC: 2.90214 cumulative IPC: 2.90214 (Simulation time: 1 hr 41 min 56 sec) 
 Total Blocks : 196608 Invalid Blocks : 25 Valid Blocks : 196583
 Total Tags : 491520 Threshold : 12288 Invalid Tags : 196637 Pr0 Tags : 98300 Pr1 Tags : 196583 num_pr0 : 12288
 SAE Count : 0
 Inter-Core Inteference in Data Store : 1428696
Heartbeat CPU 0 instructions: 20000001 cycles: 6881054 heartbeat IPC: 2.90913 cumulative IPC: 2.90653 (Simulation time: 3 hr 37 min 31 sec) 
 Total Blocks : 196608 Invalid Blocks : 0 Valid Blocks : 196608
 Total Tags : 491520 Threshold : 12288 Invalid Tags : 196610 Pr0 Tags : 98302 Pr1 Tags : 196608 num_pr0 : 12288
 SAE Count : 0
 Inter-Core Inteference in Data Store : 3061967
Heartbeat CPU 1 instructions: 20000001 cycles: 6881487 heartbeat IPC: 2.90899 cumulative IPC: 2.90635 (Simulation time: 3 hr 37 min 32 sec) 
 Total Blocks : 196608 Invalid Blocks : 0 Valid Blocks : 196608
 Total Tags : 491520 Threshold : 12288 Invalid Tags : 196611 Pr0 Tags : 98301 Pr1 Tags : 196608 num_pr0 : 12287
 SAE Count : 0
 Inter-Core Inteference in Data Store : 3062166
Heartbeat CPU 2 instructions: 20000001 cycles: 6881535 heartbeat IPC: 2.90884 cumulative IPC: 2.90633 (Simulation time: 3 hr 37 min 32 sec) 
 Total Blocks : 196608 Invalid Blocks : 0 Valid Blocks : 196608
 Total Tags : 491520 Threshold : 12288 Invalid Tags : 196611 Pr0 Tags : 98301 Pr1 Tags : 196608 num_pr0 : 12288
 SAE Count : 0
 Inter-Core Inteference in Data Store : 3062189
Heartbeat CPU 4 instructions: 20000001 cycles: 6882593 heartbeat IPC: 2.90823 cumulative IPC: 2.90588 (Simulation time: 3 hr 37 min 34 sec) 
 Total Blocks : 196608 Invalid Blocks : 0 Valid Blocks : 196608
 Total Tags : 491520 Threshold : 12288 Invalid Tags : 196612 Pr0 Tags : 98300 Pr1 Tags : 196608 num_pr0 : 12288
 SAE Count : 0
 Inter-Core Inteference in Data Store : 3062726
Heartbeat CPU 3 instructions: 20000001 cycles: 6883195 heartbeat IPC: 2.90805 cumulative IPC: 2.90563 (Simulation time: 3 hr 37 min 35 sec) 
 Total Blocks : 196608 Invalid Blocks : 0 Valid Blocks : 196608
 Total Tags : 491520 Threshold : 12288 Invalid Tags : 196611 Pr0 Tags : 98301 Pr1 Tags : 196608 num_pr0 : 12288
 SAE Count : 0
 Inter-Core Inteference in Data Store : 3063042
Heartbeat CPU 5 instructions: 20000001 cycles: 6883664 heartbeat IPC: 2.90786 cumulative IPC: 2.90543 (Simulation time: 3 hr 37 min 36 sec) 
 Total Blocks : 196608 Invalid Blocks : 0 Valid Blocks : 196608
 Total Tags : 491520 Threshold : 12288 Invalid Tags : 196612 Pr0 Tags : 98300 Pr1 Tags : 196608 num_pr0 : 12287
 SAE Count : 0
 Inter-Core Inteference in Data Store : 3063258
Heartbeat CPU 6 instructions: 20000001 cycles: 6884722 heartbeat IPC: 2.90739 cumulative IPC: 2.90498 (Simulation time: 3 hr 37 min 38 sec) 
 Total Blocks : 196608 Invalid Blocks : 0 Valid Blocks : 196608
 Total Tags : 491520 Threshold : 12288 Invalid Tags : 196611 Pr0 Tags : 98301 Pr1 Tags : 196608 num_pr0 : 12287
 SAE Count : 0
 Inter-Core Inteference in Data Store : 3063747
Heartbeat CPU 7 instructions: 20000001 cycles: 6885254 heartbeat IPC: 2.90738 cumulative IPC: 2.90476 (Simulation time: 3 hr 37 min 39 sec) 
 Total Blocks : 196608 Invalid Blocks : 0 Valid Blocks : 196608
 Total Tags : 491520 Threshold : 12288 Invalid Tags : 196613 Pr0 Tags : 98299 Pr1 Tags : 196608 num_pr0 : 12288
 SAE Count : 0
 Inter-Core Inteference in Data Store : 3064021
Heartbeat CPU 0 instructions: 30000003 cycles: 10314639 heartbeat IPC: 2.91241 cumulative IPC: 2.90849 (Simulation time: 5 hr 47 min 53 sec) 
 Total Blocks : 196608 Invalid Blocks : 0 Valid Blocks : 196608
 Total Tags : 491520 Threshold : 12288 Invalid Tags : 196610 Pr0 Tags : 98302 Pr1 Tags : 196608 num_pr0 : 12288
 SAE Count : 0
 Inter-Core Inteference in Data Store : 4698034
Heartbeat CPU 1 instructions: 30000003 cycles: 10315850 heartbeat IPC: 2.91175 cumulative IPC: 2.90815 (Simulation time: 5 hr 47 min 56 sec) 
 Total Blocks : 196608 Invalid Blocks : 0 Valid Blocks : 196608
 Total Tags : 491520 Threshold : 12288 Invalid Tags : 196613 Pr0 Tags : 98299 Pr1 Tags : 196608 num_pr0 : 12287
 SAE Count : 0
 Inter-Core Inteference in Data Store : 4698643
Heartbeat CPU 2 instructions: 30000003 cycles: 10316454 heartbeat IPC: 2.91128 cumulative IPC: 2.90798 (Simulation time: 5 hr 47 min 58 sec) 
 Total Blocks : 196608 Invalid Blocks : 0 Valid Blocks : 196608
 Total Tags : 491520 Threshold : 12288 Invalid Tags : 196611 Pr0 Tags : 98301 Pr1 Tags : 196608 num_pr0 : 12288
 SAE Count : 0
 Inter-Core Inteference in Data Store : 4698916
Heartbeat CPU 4 instructions: 30000003 cycles: 10318545 heartbeat IPC: 2.9104 cumulative IPC: 2.90739 (Simulation time: 5 hr 48 min 4 sec) 
 Total Blocks : 196608 Invalid Blocks : 0 Valid Blocks : 196608
 Total Tags : 491520 Threshold : 12288 Invalid Tags : 196610 Pr0 Tags : 98302 Pr1 Tags : 196608 num_pr0 : 12288
 SAE Count : 0
 Inter-Core Inteference in Data Store : 4700036
Heartbeat CPU 5 instructions: 30000003 cycles: 10319297 heartbeat IPC: 2.91067 cumulative IPC: 2.90718 (Simulation time: 5 hr 48 min 6 sec) 
 Total Blocks : 196608 Invalid Blocks : 0 Valid Blocks : 196608
 Total Tags : 491520 Threshold : 12288 Invalid Tags : 196609 Pr0 Tags : 98303 Pr1 Tags : 196608 num_pr0 : 12288
 SAE Count : 0
 Inter-Core Inteference in Data Store : 4700434
Heartbeat CPU 3 instructions: 30000003 cycles: 10319382 heartbeat IPC: 2.9102 cumulative IPC: 2.90715 (Simulation time: 5 hr 48 min 6 sec) 
 Total Blocks : 196608 Invalid Blocks : 0 Valid Blocks : 196608
 Total Tags : 491520 Threshold : 12288 Invalid Tags : 196612 Pr0 Tags : 98300 Pr1 Tags : 196608 num_pr0 : 12288
 SAE Count : 0
 Inter-Core Inteference in Data Store : 4700476
Heartbeat CPU 6 instructions: 30000003 cycles: 10320406 heartbeat IPC: 2.91063 cumulative IPC: 2.90686 (Simulation time: 5 hr 48 min 9 sec) 
 Total Blocks : 196608 Invalid Blocks : 0 Valid Blocks : 196608
 Total Tags : 491520 Threshold : 12288 Invalid Tags : 196610 Pr0 Tags : 98302 Pr1 Tags : 196608 num_pr0 : 12287
 SAE Count : 0
 Inter-Core Inteference in Data Store : 4700978
Heartbeat CPU 7 instructions: 30000003 cycles: 10321030 heartbeat IPC: 2.91055 cumulative IPC: 2.90669 (Simulation time: 5 hr 48 min 11 sec) 
 Total Blocks : 196608 Invalid Blocks : 0 Valid Blocks : 196608
 Total Tags : 491520 Threshold : 12288 Invalid Tags : 196610 Pr0 Tags : 98302 Pr1 Tags : 196608 num_pr0 : 12288
 SAE Count : 0
 Inter-Core Inteference in Data Store : 4701284
Heartbeat CPU 0 instructions: 40000000 cycles: 13756350 heartbeat IPC: 2.90553 cumulative IPC: 2.90775 (Simulation time: 8 hr 26 min 39 sec) 
 Total Blocks : 196608 Invalid Blocks : 0 Valid Blocks : 196608
 Total Tags : 491520 Threshold : 12288 Invalid Tags : 196609 Pr0 Tags : 98303 Pr1 Tags : 196608 num_pr0 : 12288
 SAE Count : 0
 Inter-Core Inteference in Data Store : 6355377
Heartbeat CPU 1 instructions: 40000000 cycles: 13757963 heartbeat IPC: 2.90519 cumulative IPC: 2.90741 (Simulation time: 8 hr 26 min 44 sec) 
 Total Blocks : 196608 Invalid Blocks : 0 Valid Blocks : 196608
 Total Tags : 491520 Threshold : 12288 Invalid Tags : 196608 Pr0 Tags : 98304 Pr1 Tags : 196608 num_pr0 : 12288
 SAE Count : 0
 Inter-Core Inteference in Data Store : 6356106
Heartbeat CPU 2 instructions: 40000000 cycles: 13758779 heartbeat IPC: 2.90501 cumulative IPC: 2.90723 (Simulation time: 8 hr 26 min 46 sec) 
 Total Blocks : 196608 Invalid Blocks : 0 Valid Blocks : 196608
 Total Tags : 491520 Threshold : 12288 Invalid Tags : 196610 Pr0 Tags : 98302 Pr1 Tags : 196608 num_pr0 : 12288
 SAE Count : 0
 Inter-Core Inteference in Data Store : 6356476
Heartbeat CPU 4 instructions: 40000000 cycles: 13761939 heartbeat IPC: 2.90411 cumulative IPC: 2.90657 (Simulation time: 8 hr 26 min 55 sec) 
 Total Blocks : 196608 Invalid Blocks : 0 Valid Blocks : 196608
 Total Tags : 491520 Threshold : 12288 Invalid Tags : 196611 Pr0 Tags : 98301 Pr1 Tags : 196608 num_pr0 : 12288
 SAE Count : 0
 Inter-Core Inteference in Data Store : 6357885
Heartbeat CPU 3 instructions: 40000000 cycles: 13762409 heartbeat IPC: 2.90442 cumulative IPC: 2.90647 (Simulation time: 8 hr 26 min 57 sec) 
 Total Blocks : 196608 Invalid Blocks : 0 Valid Blocks : 196608
 Total Tags : 491520 Threshold : 12288 Invalid Tags : 196612 Pr0 Tags : 98300 Pr1 Tags : 196608 num_pr0 : 12287
 SAE Count : 0
 Inter-Core Inteference in Data Store : 6358068
Heartbeat CPU 5 instructions: 40000000 cycles: 13762852 heartbeat IPC: 2.90397 cumulative IPC: 2.90637 (Simulation time: 8 hr 26 min 57 sec) 
 Total Blocks : 196608 Invalid Blocks : 0 Valid Blocks : 196608
 Total Tags : 491520 Threshold : 12288 Invalid Tags : 196610 Pr0 Tags : 98302 Pr1 Tags : 196608 num_pr0 : 12288
 SAE Count : 0
 Inter-Core Inteference in Data Store : 6358270
Heartbeat CPU 6 instructions: 40000000 cycles: 13764983 heartbeat IPC: 2.90311 cumulative IPC: 2.90592 (Simulation time: 8 hr 27 min 4 sec) 
 Total Blocks : 196608 Invalid Blocks : 0 Valid Blocks : 196608
 Total Tags : 491520 Threshold : 12288 Invalid Tags : 196609 Pr0 Tags : 98303 Pr1 Tags : 196608 num_pr0 : 12288
 SAE Count : 0
 Inter-Core Inteference in Data Store : 6359315
Heartbeat CPU 7 instructions: 40000000 cycles: 13766253 heartbeat IPC: 2.90257 cumulative IPC: 2.90566 (Simulation time: 8 hr 27 min 7 sec) 
 Total Blocks : 196608 Invalid Blocks : 0 Valid Blocks : 196608
 Total Tags : 491520 Threshold : 12288 Invalid Tags : 196609 Pr0 Tags : 98303 Pr1 Tags : 196608 num_pr0 : 12288
 SAE Count : 0
 Inter-Core Inteference in Data Store : 6359911
Heartbeat CPU 0 instructions: 50000001 cycles: 17199289 heartbeat IPC: 2.9045 cumulative IPC: 2.9071 (Simulation time: 11 hr 13 min 20 sec) 
 Total Blocks : 196608 Invalid Blocks : 0 Valid Blocks : 196608
 Total Tags : 491520 Threshold : 12288 Invalid Tags : 196610 Pr0 Tags : 98302 Pr1 Tags : 196608 num_pr0 : 12288
 SAE Count : 0
 Inter-Core Inteference in Data Store : 8030839
Heartbeat CPU 1 instructions: 50000001 cycles: 17201663 heartbeat IPC: 2.90385 cumulative IPC: 2.9067 (Simulation time: 11 hr 13 min 28 sec) 
 Total Blocks : 196608 Invalid Blocks : 0 Valid Blocks : 196608
 Total Tags : 491520 Threshold : 12288 Invalid Tags : 196612 Pr0 Tags : 98300 Pr1 Tags : 196608 num_pr0 : 12287
 SAE Count : 0
 Inter-Core Inteference in Data Store : 8032055
Heartbeat CPU 2 instructions: 50000001 cycles: 17202605 heartbeat IPC: 2.90375 cumulative IPC: 2.90654 (Simulation time: 11 hr 13 min 31 sec) 
 Total Blocks : 196608 Invalid Blocks : 0 Valid Blocks : 196608
 Total Tags : 491520 Threshold : 12288 Invalid Tags : 196612 Pr0 Tags : 98300 Pr1 Tags : 196608 num_pr0 : 12288
 SAE Count : 0
 Inter-Core Inteference in Data Store : 8032536
Heartbeat CPU 3 instructions: 50000001 cycles: 17206985 heartbeat IPC: 2.90312 cumulative IPC: 2.9058 (Simulation time: 11 hr 13 min 46 sec) 
 Total Blocks : 196608 Invalid Blocks : 0 Valid Blocks : 196608
 Total Tags : 491520 Threshold : 12288 Invalid Tags : 196612 Pr0 Tags : 98300 Pr1 Tags : 196608 num_pr0 : 12288
 SAE Count : 0
 Inter-Core Inteference in Data Store : 8034815
Heartbeat CPU 4 instructions: 50000001 cycles: 17207136 heartbeat IPC: 2.90259 cumulative IPC: 2.90577 (Simulation time: 11 hr 13 min 47 sec) 
 Total Blocks : 196608 Invalid Blocks : 0 Valid Blocks : 196608
 Total Tags : 491520 Threshold : 12288 Invalid Tags : 196611 Pr0 Tags : 98301 Pr1 Tags : 196608 num_pr0 : 12288
 SAE Count : 0
 Inter-Core Inteference in Data Store : 8034871
Heartbeat CPU 5 instructions: 50000001 cycles: 17207862 heartbeat IPC: 2.90275 cumulative IPC: 2.90565 (Simulation time: 11 hr 13 min 50 sec) 
 Total Blocks : 196608 Invalid Blocks : 0 Valid Blocks : 196608
 Total Tags : 491520 Threshold : 12288 Invalid Tags : 196609 Pr0 Tags : 98303 Pr1 Tags : 196608 num_pr0 : 12288
 SAE Count : 0
 Inter-Core Inteference in Data Store : 8035228
Heartbeat CPU 6 instructions: 50000001 cycles: 17210404 heartbeat IPC: 2.9024 cumulative IPC: 2.90522 (Simulation time: 11 hr 13 min 59 sec) 
 Total Blocks : 196608 Invalid Blocks : 0 Valid Blocks : 196608
 Total Tags : 491520 Threshold : 12288 Invalid Tags : 196611 Pr0 Tags : 98301 Pr1 Tags : 196608 num_pr0 : 12288
 SAE Count : 0
 Inter-Core Inteference in Data Store : 8036492
Heartbeat CPU 7 instructions: 50000001 cycles: 17212480 heartbeat IPC: 2.90172 cumulative IPC: 2.90487 (Simulation time: 11 hr 14 min 5 sec) 
 Total Blocks : 196608 Invalid Blocks : 0 Valid Blocks : 196608
 Total Tags : 491520 Threshold : 12288 Invalid Tags : 196608 Pr0 Tags : 98304 Pr1 Tags : 196608 num_pr0 : 12288
 SAE Count : 0
 Inter-Core Inteference in Data Store : 8037534
Heartbeat CPU 0 instructions: 60000003 cycles: 20634394 heartbeat IPC: 2.91112 cumulative IPC: 2.90777 (Simulation time: 14 hr 21 min 39 sec) 
 Total Blocks : 196608 Invalid Blocks : 0 Valid Blocks : 196608
 Total Tags : 491520 Threshold : 12288 Invalid Tags : 196609 Pr0 Tags : 98303 Pr1 Tags : 196608 num_pr0 : 12287
 SAE Count : 0
 Inter-Core Inteference in Data Store : 9715083
Heartbeat CPU 1 instructions: 60000003 cycles: 20638118 heartbeat IPC: 2.90998 cumulative IPC: 2.90724 (Simulation time: 14 hr 21 min 53 sec) 
 Total Blocks : 196608 Invalid Blocks : 0 Valid Blocks : 196608
 Total Tags : 491520 Threshold : 12288 Invalid Tags : 196610 Pr0 Tags : 98302 Pr1 Tags : 196608 num_pr0 : 12288
 SAE Count : 0
 Inter-Core Inteference in Data Store : 9717509
Heartbeat CPU 2 instructions: 60000003 cycles: 20638483 heartbeat IPC: 2.91046 cumulative IPC: 2.90719 (Simulation time: 14 hr 21 min 55 sec) 
 Total Blocks : 196608 Invalid Blocks : 0 Valid Blocks : 196608
 Total Tags : 491520 Threshold : 12288 Invalid Tags : 196610 Pr0 Tags : 98302 Pr1 Tags : 196608 num_pr0 : 12288
 SAE Count : 0
 Inter-Core Inteference in Data Store : 9717719
Heartbeat CPU 3 instructions: 60000003 cycles: 20644061 heartbeat IPC: 2.90945 cumulative IPC: 2.9064 (Simulation time: 14 hr 22 min 12 sec) 
 Total Blocks : 196608 Invalid Blocks : 0 Valid Blocks : 196608
 Total Tags : 491520 Threshold : 12288 Invalid Tags : 196610 Pr0 Tags : 98302 Pr1 Tags : 196608 num_pr0 : 12287
 SAE Count : 0
 Inter-Core Inteference in Data Store : 9721064
Heartbeat CPU 4 instructions: 60000000 cycles: 20644261 heartbeat IPC: 2.90941 cumulative IPC: 2.90638 (Simulation time: 14 hr 22 min 14 sec) 
 Total Blocks : 196608 Invalid Blocks : 0 Valid Blocks : 196608
 Total Tags : 491520 Threshold : 12288 Invalid Tags : 196610 Pr0 Tags : 98302 Pr1 Tags : 196608 num_pr0 : 12288
 SAE Count : 0
 Inter-Core Inteference in Data Store : 9721162
Heartbeat CPU 5 instructions: 60000003 cycles: 20645258 heartbeat IPC: 2.90918 cumulative IPC: 2.90624 (Simulation time: 14 hr 22 min 16 sec) 
 Total Blocks : 196608 Invalid Blocks : 0 Valid Blocks : 196608
 Total Tags : 491520 Threshold : 12288 Invalid Tags : 196611 Pr0 Tags : 98301 Pr1 Tags : 196608 num_pr0 : 12288
 SAE Count : 0
 Inter-Core Inteference in Data Store : 9721711
Heartbeat CPU 6 instructions: 60000000 cycles: 20648856 heartbeat IPC: 2.90829 cumulative IPC: 2.90573 (Simulation time: 14 hr 22 min 28 sec) 
 Total Blocks : 196608 Invalid Blocks : 0 Valid Blocks : 196608
 Total Tags : 491520 Threshold : 12288 Invalid Tags : 196610 Pr0 Tags : 98302 Pr1 Tags : 196608 num_pr0 : 12287
 SAE Count : 0
 Inter-Core Inteference in Data Store : 9723678
Heartbeat CPU 7 instructions: 60000003 cycles: 20651054 heartbeat IPC: 2.90818 cumulative IPC: 2.90542 (Simulation time: 14 hr 22 min 34 sec) 
 Total Blocks : 196608 Invalid Blocks : 0 Valid Blocks : 196608
 Total Tags : 491520 Threshold : 12288 Invalid Tags : 196610 Pr0 Tags : 98302 Pr1 Tags : 196608 num_pr0 : 12288
 SAE Count : 0
 Inter-Core Inteference in Data Store : 9724759
Heartbeat CPU 0 instructions: 70000000 cycles: 24068698 heartbeat IPC: 2.9118 cumulative IPC: 2.90834 (Simulation time: 17 hr 29 min 7 sec) 
 Total Blocks : 196608 Invalid Blocks : 0 Valid Blocks : 196608
 Total Tags : 491520 Threshold : 12288 Invalid Tags : 196612 Pr0 Tags : 98300 Pr1 Tags : 196608 num_pr0 : 12288
 SAE Count : 0
 Inter-Core Inteference in Data Store : 11394393
Heartbeat CPU 1 instructions: 70000003 cycles: 24073240 heartbeat IPC: 2.9111 cumulative IPC: 2.90779 (Simulation time: 17 hr 29 min 21 sec) 
 Total Blocks : 196608 Invalid Blocks : 0 Valid Blocks : 196608
 Total Tags : 491520 Threshold : 12288 Invalid Tags : 196609 Pr0 Tags : 98303 Pr1 Tags : 196608 num_pr0 : 12288
 SAE Count : 0
 Inter-Core Inteference in Data Store : 11396673
Heartbeat CPU 2 instructions: 70000000 cycles: 24074177 heartbeat IPC: 2.91062 cumulative IPC: 2.90768 (Simulation time: 17 hr 29 min 25 sec) 
 Total Blocks : 196608 Invalid Blocks : 0 Valid Blocks : 196608
 Total Tags : 491520 Threshold : 12288 Invalid Tags : 196612 Pr0 Tags : 98300 Pr1 Tags : 196608 num_pr0 : 12288
 SAE Count : 0
 Inter-Core Inteference in Data Store : 11397150
Heartbeat CPU 3 instructions: 70000000 cycles: 24080719 heartbeat IPC: 2.9098 cumulative IPC: 2.90689 (Simulation time: 17 hr 29 min 46 sec) 
 Total Blocks : 196608 Invalid Blocks : 0 Valid Blocks : 196608
 Total Tags : 491520 Threshold : 12288 Invalid Tags : 196610 Pr0 Tags : 98302 Pr1 Tags : 196608 num_pr0 : 12288
 SAE Count : 0
 Inter-Core Inteference in Data Store : 11400245
Heartbeat CPU 4 instructions: 70000000 cycles: 24081664 heartbeat IPC: 2.90917 cumulative IPC: 2.90678 (Simulation time: 17 hr 29 min 50 sec) 
 Total Blocks : 196608 Invalid Blocks : 0 Valid Blocks : 196608
 Total Tags : 491520 Threshold : 12288 Invalid Tags : 196609 Pr0 Tags : 98303 Pr1 Tags : 196608 num_pr0 : 12288
 SAE Count : 0
 Inter-Core Inteference in Data Store : 11400684
Heartbeat CPU 5 instructions: 70000000 cycles: 24081943 heartbeat IPC: 2.90978 cumulative IPC: 2.90674 (Simulation time: 17 hr 29 min 50 sec) 
 Total Blocks : 196608 Invalid Blocks : 0 Valid Blocks : 196608
 Total Tags : 491520 Threshold : 12288 Invalid Tags : 196612 Pr0 Tags : 98300 Pr1 Tags : 196608 num_pr0 : 12287
 SAE Count : 0
 Inter-Core Inteference in Data Store : 11400832
Heartbeat CPU 6 instructions: 70000000 cycles: 24086760 heartbeat IPC: 2.90875 cumulative IPC: 2.90616 (Simulation time: 17 hr 30 min 5 sec) 
 Total Blocks : 196608 Invalid Blocks : 0 Valid Blocks : 196608
 Total Tags : 491520 Threshold : 12288 Invalid Tags : 196610 Pr0 Tags : 98302 Pr1 Tags : 196608 num_pr0 : 12288
 SAE Count : 0
 Inter-Core Inteference in Data Store : 11403117
Heartbeat CPU 7 instructions: 70000000 cycles: 24088980 heartbeat IPC: 2.90873 cumulative IPC: 2.90589 (Simulation time: 17 hr 30 min 12 sec) 
 Total Blocks : 196608 Invalid Blocks : 0 Valid Blocks : 196608
 Total Tags : 491520 Threshold : 12288 Invalid Tags : 196610 Pr0 Tags : 98302 Pr1 Tags : 196608 num_pr0 : 12288
 SAE Count : 0
 Inter-Core Inteference in Data Store : 11404158
Heartbeat CPU 0 instructions: 80000002 cycles: 27499794 heartbeat IPC: 2.91452 cumulative IPC: 2.90911 (Simulation time: 20 hr 33 min 33 sec) 
 Total Blocks : 196608 Invalid Blocks : 0 Valid Blocks : 196608
 Total Tags : 491520 Threshold : 12288 Invalid Tags : 196610 Pr0 Tags : 98302 Pr1 Tags : 196608 num_pr0 : 12288
 SAE Count : 0
 Inter-Core Inteference in Data Store : 13075570
Heartbeat CPU 1 instructions: 80000002 cycles: 27504730 heartbeat IPC: 2.91419 cumulative IPC: 2.90859 (Simulation time: 20 hr 33 min 48 sec) 
 Total Blocks : 196608 Invalid Blocks : 0 Valid Blocks : 196608
 Total Tags : 491520 Threshold : 12288 Invalid Tags : 196609 Pr0 Tags : 98303 Pr1 Tags : 196608 num_pr0 : 12288
 SAE Count : 0
 Inter-Core Inteference in Data Store : 13077915
Heartbeat CPU 2 instructions: 80000000 cycles: 27506215 heartbeat IPC: 2.91372 cumulative IPC: 2.90843 (Simulation time: 20 hr 33 min 53 sec) 
 Total Blocks : 196608 Invalid Blocks : 0 Valid Blocks : 196608
 Total Tags : 491520 Threshold : 12288 Invalid Tags : 196610 Pr0 Tags : 98302 Pr1 Tags : 196608 num_pr0 : 12288
 SAE Count : 0
 Inter-Core Inteference in Data Store : 13078684
Heartbeat CPU 3 instructions: 80000002 cycles: 27513285 heartbeat IPC: 2.91327 cumulative IPC: 2.90769 (Simulation time: 20 hr 34 min 15 sec) 
 Total Blocks : 196608 Invalid Blocks : 0 Valid Blocks : 196608
 Total Tags : 491520 Threshold : 12288 Invalid Tags : 196610 Pr0 Tags : 98302 Pr1 Tags : 196608 num_pr0 : 12288
 SAE Count : 0
 Inter-Core Inteference in Data Store : 13082266
Heartbeat CPU 4 instructions: 80000002 cycles: 27514210 heartbeat IPC: 2.91329 cumulative IPC: 2.90759 (Simulation time: 20 hr 34 min 18 sec) 
 Total Blocks : 196608 Invalid Blocks : 0 Valid Blocks : 196608
 Total Tags : 491520 Threshold : 12288 Invalid Tags : 196610 Pr0 Tags : 98302 Pr1 Tags : 196608 num_pr0 : 12288
 SAE Count : 0
 Inter-Core Inteference in Data Store : 13082744
Heartbeat CPU 5 instructions: 80000002 cycles: 27515301 heartbeat IPC: 2.9126 cumulative IPC: 2.90747 (Simulation time: 20 hr 34 min 22 sec) 
 Total Blocks : 196608 Invalid Blocks : 0 Valid Blocks : 196608
 Total Tags : 491520 Threshold : 12288 Invalid Tags : 196611 Pr0 Tags : 98301 Pr1 Tags : 196608 num_pr0 : 12287
 SAE Count : 0
 Inter-Core Inteference in Data Store : 13083295
Heartbeat CPU 6 instructions: 80000002 cycles: 27521818 heartbeat IPC: 2.91116 cumulative IPC: 2.90678 (Simulation time: 20 hr 34 min 43 sec) 
 Total Blocks : 196608 Invalid Blocks : 0 Valid Blocks : 196608
 Total Tags : 491520 Threshold : 12288 Invalid Tags : 196609 Pr0 Tags : 98303 Pr1 Tags : 196608 num_pr0 : 12288
 SAE Count : 0
 Inter-Core Inteference in Data Store : 13086659
Heartbeat CPU 7 instructions: 80000002 cycles: 27523293 heartbeat IPC: 2.91179 cumulative IPC: 2.90663 (Simulation time: 20 hr 34 min 47 sec) 
 Total Blocks : 196608 Invalid Blocks : 0 Valid Blocks : 196608
 Total Tags : 491520 Threshold : 12288 Invalid Tags : 196610 Pr0 Tags : 98302 Pr1 Tags : 196608 num_pr0 : 12287
 SAE Count : 0
 Inter-Core Inteference in Data Store : 13087399
Heartbeat CPU 0 instructions: 90000002 cycles: 30929079 heartbeat IPC: 2.91606 cumulative IPC: 2.90988 (Simulation time: 23 hr 41 min 46 sec) 
 Total Blocks : 196608 Invalid Blocks : 0 Valid Blocks : 196608
 Total Tags : 491520 Threshold : 12288 Invalid Tags : 196613 Pr0 Tags : 98299 Pr1 Tags : 196608 num_pr0 : 12288
 SAE Count : 0
 Inter-Core Inteference in Data Store : 14762053
Heartbeat CPU 1 instructions: 90000003 cycles: 30934614 heartbeat IPC: 2.91555 cumulative IPC: 2.90936 (Simulation time: 23 hr 42 min 2 sec) 
 Total Blocks : 196608 Invalid Blocks : 0 Valid Blocks : 196608
 Total Tags : 491520 Threshold : 12288 Invalid Tags : 196609 Pr0 Tags : 98303 Pr1 Tags : 196608 num_pr0 : 12288
 SAE Count : 0
 Inter-Core Inteference in Data Store : 14764727
Heartbeat CPU 2 instructions: 90000002 cycles: 30936132 heartbeat IPC: 2.91552 cumulative IPC: 2.90922 (Simulation time: 23 hr 42 min 8 sec) 
 Total Blocks : 196608 Invalid Blocks : 0 Valid Blocks : 196608
 Total Tags : 491520 Threshold : 12288 Invalid Tags : 196611 Pr0 Tags : 98301 Pr1 Tags : 196608 num_pr0 : 12288
 SAE Count : 0
 Inter-Core Inteference in Data Store : 14765484
Heartbeat CPU 3 instructions: 90000003 cycles: 30943902 heartbeat IPC: 2.91493 cumulative IPC: 2.90849 (Simulation time: 23 hr 42 min 31 sec) 
 Total Blocks : 196608 Invalid Blocks : 0 Valid Blocks : 196608
 Total Tags : 491520 Threshold : 12288 Invalid Tags : 196609 Pr0 Tags : 98303 Pr1 Tags : 196608 num_pr0 : 12287
 SAE Count : 0
 Inter-Core Inteference in Data Store : 14769202
Heartbeat CPU 4 instructions: 90000003 cycles: 30945343 heartbeat IPC: 2.91449 cumulative IPC: 2.90835 (Simulation time: 23 hr 42 min 36 sec) 
 Total Blocks : 196608 Invalid Blocks : 0 Valid Blocks : 196608
 Total Tags : 491520 Threshold : 12288 Invalid Tags : 196610 Pr0 Tags : 98302 Pr1 Tags : 196608 num_pr0 : 12288
 SAE Count : 0
 Inter-Core Inteference in Data Store : 14769871
Heartbeat CPU 5 instructions: 90000002 cycles: 30946980 heartbeat IPC: 2.91403 cumulative IPC: 2.9082 (Simulation time: 23 hr 42 min 41 sec) 
 Total Blocks : 196608 Invalid Blocks : 0 Valid Blocks : 196608
 Total Tags : 491520 Threshold : 12288 Invalid Tags : 196609 Pr0 Tags : 98303 Pr1 Tags : 196608 num_pr0 : 12288
 SAE Count : 0
 Inter-Core Inteference in Data Store : 14770612
Heartbeat CPU 6 instructions: 90000002 cycles: 30954482 heartbeat IPC: 2.91319 cumulative IPC: 2.9075 (Simulation time: 23 hr 43 min 4 sec) 
 Total Blocks : 196608 Invalid Blocks : 0 Valid Blocks : 196608
 Total Tags : 491520 Threshold : 12288 Invalid Tags : 196609 Pr0 Tags : 98303 Pr1 Tags : 196608 num_pr0 : 12288
 SAE Count : 0
 Inter-Core Inteference in Data Store : 14774252
Heartbeat CPU 7 instructions: 90000003 cycles: 30955781 heartbeat IPC: 2.91334 cumulative IPC: 2.90737 (Simulation time: 23 hr 43 min 8 sec) 
 Total Blocks : 196608 Invalid Blocks : 0 Valid Blocks : 196608
 Total Tags : 491520 Threshold : 12288 Invalid Tags : 196609 Pr0 Tags : 98303 Pr1 Tags : 196608 num_pr0 : 12288
 SAE Count : 0
 Inter-Core Inteference in Data Store : 14774933
Heartbeat CPU 0 instructions: 100000003 cycles: 34360510 heartbeat IPC: 2.91424 cumulative IPC: 2.91032 (Simulation time: 26 hr 48 min 14 sec) 
 Total Blocks : 196608 Invalid Blocks : 0 Valid Blocks : 196608
 Total Tags : 491520 Threshold : 12288 Invalid Tags : 196610 Pr0 Tags : 98302 Pr1 Tags : 196608 num_pr0 : 12288
 SAE Count : 0
 Inter-Core Inteference in Data Store : 16449939
Heartbeat CPU 1 instructions: 100000003 cycles: 34366958 heartbeat IPC: 2.91346 cumulative IPC: 2.90977 (Simulation time: 26 hr 48 min 36 sec) 
 Total Blocks : 196608 Invalid Blocks : 0 Valid Blocks : 196608
 Total Tags : 491520 Threshold : 12288 Invalid Tags : 196611 Pr0 Tags : 98301 Pr1 Tags : 196608 num_pr0 : 12287
 SAE Count : 0
 Inter-Core Inteference in Data Store : 16453529
Heartbeat CPU 2 instructions: 100000003 cycles: 34368879 heartbeat IPC: 2.91312 cumulative IPC: 2.90961 (Simulation time: 26 hr 48 min 43 sec) 
 Total Blocks : 196608 Invalid Blocks : 0 Valid Blocks : 196608
 Total Tags : 491520 Threshold : 12288 Invalid Tags : 196608 Pr0 Tags : 98304 Pr1 Tags : 196608 num_pr0 : 12288
 SAE Count : 0
 Inter-Core Inteference in Data Store : 16454528
Heartbeat CPU 3 instructions: 100000003 cycles: 34376714 heartbeat IPC: 2.91306 cumulative IPC: 2.90895 (Simulation time: 26 hr 49 min 9 sec) 
 Total Blocks : 196608 Invalid Blocks : 0 Valid Blocks : 196608
 Total Tags : 491520 Threshold : 12288 Invalid Tags : 196610 Pr0 Tags : 98302 Pr1 Tags : 196608 num_pr0 : 12288
 SAE Count : 0
 Inter-Core Inteference in Data Store : 16458377
Heartbeat CPU 4 instructions: 100000003 cycles: 34379325 heartbeat IPC: 2.91207 cumulative IPC: 2.90873 (Simulation time: 26 hr 49 min 18 sec) 
 Total Blocks : 196608 Invalid Blocks : 0 Valid Blocks : 196608
 Total Tags : 491520 Threshold : 12288 Invalid Tags : 196608 Pr0 Tags : 98304 Pr1 Tags : 196608 num_pr0 : 12288
 SAE Count : 0
 Inter-Core Inteference in Data Store : 16459537
Heartbeat CPU 5 instructions: 100000003 cycles: 34381144 heartbeat IPC: 2.91192 cumulative IPC: 2.90857 (Simulation time: 26 hr 49 min 24 sec) 
 Total Blocks : 196608 Invalid Blocks : 0 Valid Blocks : 196608
 Total Tags : 491520 Threshold : 12288 Invalid Tags : 196609 Pr0 Tags : 98303 Pr1 Tags : 196608 num_pr0 : 12287
 SAE Count : 0
 Inter-Core Inteference in Data Store : 16460381
Heartbeat CPU 6 instructions: 100000003 cycles: 34389269 heartbeat IPC: 2.91139 cumulative IPC: 2.90788 (Simulation time: 26 hr 49 min 52 sec) 
 Total Blocks : 196608 Invalid Blocks : 0 Valid Blocks : 196608
 Total Tags : 491520 Threshold : 12288 Invalid Tags : 196609 Pr0 Tags : 98303 Pr1 Tags : 196608 num_pr0 : 12288
 SAE Count : 0
 Inter-Core Inteference in Data Store : 16463883
Heartbeat CPU 7 instructions: 100000003 cycles: 34390654 heartbeat IPC: 2.91132 cumulative IPC: 2.90777 (Simulation time: 26 hr 49 min 57 sec) 
 Total Blocks : 196608 Invalid Blocks : 0 Valid Blocks : 196608
 Total Tags : 491520 Threshold : 12288 Invalid Tags : 196608 Pr0 Tags : 98304 Pr1 Tags : 196608 num_pr0 : 12288
 SAE Count : 0
 Inter-Core Inteference in Data Store : 16464440
Heartbeat CPU 0 instructions: 110000000 cycles: 37795569 heartbeat IPC: 2.91116 cumulative IPC: 2.91039 (Simulation time: 29 hr 52 min 51 sec) 
 Total Blocks : 196608 Invalid Blocks : 0 Valid Blocks : 196608
 Total Tags : 491520 Threshold : 12288 Invalid Tags : 196611 Pr0 Tags : 98301 Pr1 Tags : 196608 num_pr0 : 12288
 SAE Count : 0
 Inter-Core Inteference in Data Store : 18123805
Heartbeat CPU 1 instructions: 110000000 cycles: 37803064 heartbeat IPC: 2.91027 cumulative IPC: 2.90982 (Simulation time: 29 hr 53 min 14 sec) 
 Total Blocks : 196608 Invalid Blocks : 0 Valid Blocks : 196608
 Total Tags : 491520 Threshold : 12288 Invalid Tags : 196612 Pr0 Tags : 98300 Pr1 Tags : 196608 num_pr0 : 12287
 SAE Count : 0
 Inter-Core Inteference in Data Store : 18127489
Heartbeat CPU 2 instructions: 110000000 cycles: 37805124 heartbeat IPC: 2.91015 cumulative IPC: 2.90966 (Simulation time: 29 hr 53 min 20 sec) 
 Total Blocks : 196608 Invalid Blocks : 0 Valid Blocks : 196608
 Total Tags : 491520 Threshold : 12288 Invalid Tags : 196610 Pr0 Tags : 98302 Pr1 Tags : 196608 num_pr0 : 12288
 SAE Count : 0
 Inter-Core Inteference in Data Store : 18128471
Heartbeat CPU 3 instructions: 110000000 cycles: 37813578 heartbeat IPC: 2.90963 cumulative IPC: 2.90901 (Simulation time: 29 hr 53 min 46 sec) 
 Total Blocks : 196608 Invalid Blocks : 0 Valid Blocks : 196608
 Total Tags : 491520 Threshold : 12288 Invalid Tags : 196611 Pr0 Tags : 98301 Pr1 Tags : 196608 num_pr0 : 12288
 SAE Count : 0
 Inter-Core Inteference in Data Store : 18132661
Heartbeat CPU 4 instructions: 110000000 cycles: 37816399 heartbeat IPC: 2.90945 cumulative IPC: 2.90879 (Simulation time: 29 hr 53 min 56 sec) 
 Total Blocks : 196608 Invalid Blocks : 0 Valid Blocks : 196608
 Total Tags : 491520 Threshold : 12288 Invalid Tags : 196608 Pr0 Tags : 98304 Pr1 Tags : 196608 num_pr0 : 12288
 SAE Count : 0
 Inter-Core Inteference in Data Store : 18134021
Heartbeat CPU 5 instructions: 110000000 cycles: 37818855 heartbeat IPC: 2.90891 cumulative IPC: 2.9086 (Simulation time: 29 hr 54 min 3 sec) 
 Total Blocks : 196608 Invalid Blocks : 0 Valid Blocks : 196608
 Total Tags : 491520 Threshold : 12288 Invalid Tags : 196611 Pr0 Tags : 98301 Pr1 Tags : 196608 num_pr0 : 12288
 SAE Count : 0
 Inter-Core Inteference in Data Store : 18135222
Heartbeat CPU 6 instructions: 110000000 cycles: 37827482 heartbeat IPC: 2.90849 cumulative IPC: 2.90794 (Simulation time: 29 hr 54 min 30 sec) 
 Total Blocks : 196608 Invalid Blocks : 0 Valid Blocks : 196608
 Total Tags : 491520 Threshold : 12288 Invalid Tags : 196609 Pr0 Tags : 98303 Pr1 Tags : 196608 num_pr0 : 12288
 SAE Count : 0
 Inter-Core Inteference in Data Store : 18139420
Heartbeat CPU 7 instructions: 110000000 cycles: 37829469 heartbeat IPC: 2.90798 cumulative IPC: 2.90779 (Simulation time: 29 hr 54 min 36 sec) 
 Total Blocks : 196608 Invalid Blocks : 0 Valid Blocks : 196608
 Total Tags : 491520 Threshold : 12288 Invalid Tags : 196611 Pr0 Tags : 98301 Pr1 Tags : 196608 num_pr0 : 12287
 SAE Count : 0
 Inter-Core Inteference in Data Store : 18140368
Heartbeat CPU 0 instructions: 120000003 cycles: 41232937 heartbeat IPC: 2.9092 cumulative IPC: 2.91029 (Simulation time: 136 hr 12 min 23 sec) 
 Total Blocks : 196608 Invalid Blocks : 0 Valid Blocks : 196608
 Total Tags : 491520 Threshold : 12288 Invalid Tags : 196611 Pr0 Tags : 98301 Pr1 Tags : 196608 num_pr0 : 12288
 SAE Count : 0
 Inter-Core Inteference in Data Store : 19804346
Heartbeat CPU 1 instructions: 120000003 cycles: 41240913 heartbeat IPC: 2.9088 cumulative IPC: 2.90973 (Simulation time: 136 hr 45 min 10 sec) 
 Total Blocks : 196608 Invalid Blocks : 0 Valid Blocks : 196608
 Total Tags : 491520 Threshold : 12288 Invalid Tags : 196610 Pr0 Tags : 98302 Pr1 Tags : 196608 num_pr0 : 12287
 SAE Count : 0
 Inter-Core Inteference in Data Store : 19808328
Heartbeat CPU 2 instructions: 120000003 cycles: 41243731 heartbeat IPC: 2.90816 cumulative IPC: 2.90953 (Simulation time: 136 hr 57 min 4 sec) 
 Total Blocks : 196608 Invalid Blocks : 0 Valid Blocks : 196608
 Total Tags : 491520 Threshold : 12288 Invalid Tags : 196610 Pr0 Tags : 98302 Pr1 Tags : 196608 num_pr0 : 12287
 SAE Count : 0
 Inter-Core Inteference in Data Store : 19809653
Heartbeat CPU 3 instructions: 120000003 cycles: 41252966 heartbeat IPC: 2.90749 cumulative IPC: 2.90888 (Simulation time: 137 hr 36 min 41 sec) 
 Total Blocks : 196608 Invalid Blocks : 0 Valid Blocks : 196608
 Total Tags : 491520 Threshold : 12288 Invalid Tags : 196610 Pr0 Tags : 98302 Pr1 Tags : 196608 num_pr0 : 12288
 SAE Count : 0
 Inter-Core Inteference in Data Store : 19814109
Heartbeat CPU 4 instructions: 120000003 cycles: 41255967 heartbeat IPC: 2.90734 cumulative IPC: 2.90867 (Simulation time: 137 hr 49 min 32 sec) 
 Total Blocks : 196608 Invalid Blocks : 0 Valid Blocks : 196608
 Total Tags : 491520 Threshold : 12288 Invalid Tags : 196611 Pr0 Tags : 98301 Pr1 Tags : 196608 num_pr0 : 12287
 SAE Count : 0
 Inter-Core Inteference in Data Store : 19815565
Heartbeat CPU 5 instructions: 120000003 cycles: 41259261 heartbeat IPC: 2.90663 cumulative IPC: 2.90844 (Simulation time: 138 hr 3 min 19 sec) 
 Total Blocks : 196608 Invalid Blocks : 0 Valid Blocks : 196608
 Total Tags : 491520 Threshold : 12288 Invalid Tags : 196609 Pr0 Tags : 98303 Pr1 Tags : 196608 num_pr0 : 12288
 SAE Count : 0
 Inter-Core Inteference in Data Store : 19817147
Heartbeat CPU 6 instructions: 120000003 cycles: 41268920 heartbeat IPC: 2.90576 cumulative IPC: 2.90776 (Simulation time: 138 hr 45 min 33 sec) 
 Total Blocks : 196608 Invalid Blocks : 0 Valid Blocks : 196608
 Total Tags : 491520 Threshold : 12288 Invalid Tags : 196610 Pr0 Tags : 98302 Pr1 Tags : 196608 num_pr0 : 12288
 SAE Count : 0
 Inter-Core Inteference in Data Store : 19821850
Heartbeat CPU 7 instructions: 120000003 cycles: 41270293 heartbeat IPC: 2.90628 cumulative IPC: 2.90766 (Simulation time: 138 hr 52 min 7 sec) 
 Total Blocks : 196608 Invalid Blocks : 0 Valid Blocks : 196608
 Total Tags : 491520 Threshold : 12288 Invalid Tags : 196611 Pr0 Tags : 98301 Pr1 Tags : 196608 num_pr0 : 12287
 SAE Count : 0
 Inter-Core Inteference in Data Store : 19822547
Heartbeat CPU 0 instructions: 130000002 cycles: 44666991 heartbeat IPC: 2.91201 cumulative IPC: 2.91043 (Simulation time: 144 hr 41 min 13 sec) 
 Total Blocks : 196608 Invalid Blocks : 0 Valid Blocks : 196608
 Total Tags : 491520 Threshold : 12288 Invalid Tags : 196609 Pr0 Tags : 98303 Pr1 Tags : 196608 num_pr0 : 12288
 SAE Count : 0
 Inter-Core Inteference in Data Store : 21487029
Heartbeat CPU 1 instructions: 130000002 cycles: 44675441 heartbeat IPC: 2.91161 cumulative IPC: 2.90988 (Simulation time: 144 hr 41 min 41 sec) 
 Total Blocks : 196608 Invalid Blocks : 0 Valid Blocks : 196608
 Total Tags : 491520 Threshold : 12288 Invalid Tags : 196613 Pr0 Tags : 98299 Pr1 Tags : 196608 num_pr0 : 12286
 SAE Count : 0
 Inter-Core Inteference in Data Store : 21490668
Heartbeat CPU 2 instructions: 130000002 cycles: 44679096 heartbeat IPC: 2.9109 cumulative IPC: 2.90964 (Simulation time: 144 hr 41 min 53 sec) 
 Total Blocks : 196608 Invalid Blocks : 0 Valid Blocks : 196608
 Total Tags : 491520 Threshold : 12288 Invalid Tags : 196610 Pr0 Tags : 98302 Pr1 Tags : 196608 num_pr0 : 12288
 SAE Count : 0
 Inter-Core Inteference in Data Store : 21492361
Heartbeat CPU 3 instructions: 130000002 cycles: 44689182 heartbeat IPC: 2.91018 cumulative IPC: 2.90898 (Simulation time: 144 hr 42 min 29 sec) 
 Total Blocks : 196608 Invalid Blocks : 0 Valid Blocks : 196608
 Total Tags : 491520 Threshold : 12288 Invalid Tags : 196611 Pr0 Tags : 98301 Pr1 Tags : 196608 num_pr0 : 12288
 SAE Count : 0
 Inter-Core Inteference in Data Store : 21497124
Heartbeat CPU 4 instructions: 130000002 cycles: 44692368 heartbeat IPC: 2.91002 cumulative IPC: 2.90877 (Simulation time: 144 hr 42 min 39 sec) 
 Total Blocks : 196608 Invalid Blocks : 0 Valid Blocks : 196608
 Total Tags : 491520 Threshold : 12288 Invalid Tags : 196608 Pr0 Tags : 98304 Pr1 Tags : 196608 num_pr0 : 12288
 SAE Count : 0
 Inter-Core Inteference in Data Store : 21498583
Heartbeat CPU 5 instructions: 130000002 cycles: 44695508 heartbeat IPC: 2.91015 cumulative IPC: 2.90857 (Simulation time: 144 hr 42 min 50 sec) 
 Total Blocks : 196608 Invalid Blocks : 0 Valid Blocks : 196608
 Total Tags : 491520 Threshold : 12288 Invalid Tags : 196611 Pr0 Tags : 98301 Pr1 Tags : 196608 num_pr0 : 12288
 SAE Count : 0
 Inter-Core Inteference in Data Store : 21500105
Heartbeat CPU 6 instructions: 130000002 cycles: 44705980 heartbeat IPC: 2.90946 cumulative IPC: 2.90789 (Simulation time: 144 hr 43 min 27 sec) 
 Total Blocks : 196608 Invalid Blocks : 0 Valid Blocks : 196608
 Total Tags : 491520 Threshold : 12288 Invalid Tags : 196612 Pr0 Tags : 98300 Pr1 Tags : 196608 num_pr0 : 12288
 SAE Count : 0
 Inter-Core Inteference in Data Store : 21505105
Heartbeat CPU 7 instructions: 130000002 cycles: 44708519 heartbeat IPC: 2.90848 cumulative IPC: 2.90772 (Simulation time: 144 hr 43 min 35 sec) 
 Total Blocks : 196608 Invalid Blocks : 0 Valid Blocks : 196608
 Total Tags : 491520 Threshold : 12288 Invalid Tags : 196611 Pr0 Tags : 98301 Pr1 Tags : 196608 num_pr0 : 12288
 SAE Count : 0
 Inter-Core Inteference in Data Store : 21506313
Heartbeat CPU 0 instructions: 140000002 cycles: 48099988 heartbeat IPC: 2.91291 cumulative IPC: 2.9106 (Simulation time: 148 hr 5 min 32 sec) 
 Total Blocks : 196608 Invalid Blocks : 0 Valid Blocks : 196608
 Total Tags : 491520 Threshold : 12288 Invalid Tags : 196610 Pr0 Tags : 98302 Pr1 Tags : 196608 num_pr0 : 12287
 SAE Count : 0
 Inter-Core Inteference in Data Store : 23169973
Heartbeat CPU 1 instructions: 140000003 cycles: 48109362 heartbeat IPC: 2.91212 cumulative IPC: 2.91004 (Simulation time: 148 hr 6 min 6 sec) 
 Total Blocks : 196608 Invalid Blocks : 0 Valid Blocks : 196608
 Total Tags : 491520 Threshold : 12288 Invalid Tags : 196608 Pr0 Tags : 98304 Pr1 Tags : 196608 num_pr0 : 12288
 SAE Count : 0
 Inter-Core Inteference in Data Store : 23174526
Heartbeat CPU 2 instructions: 140000003 cycles: 48113984 heartbeat IPC: 2.9113 cumulative IPC: 2.90976 (Simulation time: 148 hr 6 min 24 sec) 
 Total Blocks : 196608 Invalid Blocks : 0 Valid Blocks : 196608
 Total Tags : 491520 Threshold : 12288 Invalid Tags : 196612 Pr0 Tags : 98300 Pr1 Tags : 196608 num_pr0 : 12288
 SAE Count : 0
 Inter-Core Inteference in Data Store : 23176812
Heartbeat CPU 3 instructions: 140000003 cycles: 48124885 heartbeat IPC: 2.91061 cumulative IPC: 2.9091 (Simulation time: 148 hr 7 min 2 sec) 
 Total Blocks : 196608 Invalid Blocks : 0 Valid Blocks : 196608
 Total Tags : 491520 Threshold : 12288 Invalid Tags : 196610 Pr0 Tags : 98302 Pr1 Tags : 196608 num_pr0 : 12288
 SAE Count : 0
 Inter-Core Inteference in Data Store : 23182229
Heartbeat CPU 4 instructions: 140000003 cycles: 48128192 heartbeat IPC: 2.91051 cumulative IPC: 2.9089 (Simulation time: 148 hr 7 min 13 sec) 
 Total Blocks : 196608 Invalid Blocks : 0 Valid Blocks : 196608
 Total Tags : 491520 Threshold : 12288 Invalid Tags : 196610 Pr0 Tags : 98302 Pr1 Tags : 196608 num_pr0 : 12287
 SAE Count : 0
 Inter-Core Inteference in Data Store : 23183867
Heartbeat CPU 5 instructions: 140000002 cycles: 48131872 heartbeat IPC: 2.91005 cumulative IPC: 2.90868 (Simulation time: 148 hr 7 min 28 sec) 
 Total Blocks : 196608 Invalid Blocks : 0 Valid Blocks : 196608
 Total Tags : 491520 Threshold : 12288 Invalid Tags : 196609 Pr0 Tags : 98303 Pr1 Tags : 196608 num_pr0 : 12288
 SAE Count : 0
 Inter-Core Inteference in Data Store : 23185577
Heartbeat CPU 6 instructions: 140000003 cycles: 48142468 heartbeat IPC: 2.90995 cumulative IPC: 2.90804 (Simulation time: 148 hr 8 min 5 sec) 
 Total Blocks : 196608 Invalid Blocks : 0 Valid Blocks : 196608
 Total Tags : 491520 Threshold : 12288 Invalid Tags : 196611 Pr0 Tags : 98301 Pr1 Tags : 196608 num_pr0 : 12288
 SAE Count : 0
 Inter-Core Inteference in Data Store : 23190883
Heartbeat CPU 7 instructions: 140000003 cycles: 48146016 heartbeat IPC: 2.90909 cumulative IPC: 2.90782 (Simulation time: 148 hr 8 min 19 sec) 
 Total Blocks : 196608 Invalid Blocks : 0 Valid Blocks : 196608
 Total Tags : 491520 Threshold : 12288 Invalid Tags : 196610 Pr0 Tags : 98302 Pr1 Tags : 196608 num_pr0 : 12288
 SAE Count : 0
 Inter-Core Inteference in Data Store : 23192584
Heartbeat CPU 0 instructions: 150000002 cycles: 51532707 heartbeat IPC: 2.91314 cumulative IPC: 2.91077 (Simulation time: 151 hr 28 min 44 sec) 
 Total Blocks : 196608 Invalid Blocks : 0 Valid Blocks : 196608
 Total Tags : 491520 Threshold : 12288 Invalid Tags : 196608 Pr0 Tags : 98304 Pr1 Tags : 196608 num_pr0 : 12288
 SAE Count : 0
 Inter-Core Inteference in Data Store : 24858330
Heartbeat CPU 1 instructions: 150000003 cycles: 51542422 heartbeat IPC: 2.91285 cumulative IPC: 2.91022 (Simulation time: 151 hr 29 min 19 sec) 
 Total Blocks : 196608 Invalid Blocks : 0 Valid Blocks : 196608
 Total Tags : 491520 Threshold : 12288 Invalid Tags : 196610 Pr0 Tags : 98302 Pr1 Tags : 196608 num_pr0 : 12288
 SAE Count : 0
 Inter-Core Inteference in Data Store : 24863067
Heartbeat CPU 2 instructions: 150000002 cycles: 51547546 heartbeat IPC: 2.91243 cumulative IPC: 2.90993 (Simulation time: 151 hr 29 min 37 sec) 
 Total Blocks : 196608 Invalid Blocks : 0 Valid Blocks : 196608
 Total Tags : 491520 Threshold : 12288 Invalid Tags : 196611 Pr0 Tags : 98301 Pr1 Tags : 196608 num_pr0 : 12288
 SAE Count : 0
 Inter-Core Inteference in Data Store : 24865607
Heartbeat CPU 3 instructions: 150000002 cycles: 51559382 heartbeat IPC: 2.91163 cumulative IPC: 2.90927 (Simulation time: 151 hr 30 min 19 sec) 
 Total Blocks : 196608 Invalid Blocks : 0 Valid Blocks : 196608
 Total Tags : 491520 Threshold : 12288 Invalid Tags : 196610 Pr0 Tags : 98302 Pr1 Tags : 196608 num_pr0 : 12288
 SAE Count : 0
 Inter-Core Inteference in Data Store : 24871315
Heartbeat CPU 4 instructions: 150000002 cycles: 51564427 heartbeat IPC: 2.91016 cumulative IPC: 2.90898 (Simulation time: 151 hr 30 min 37 sec) 
 Total Blocks : 196608 Invalid Blocks : 0 Valid Blocks : 196608
 Total Tags : 491520 Threshold : 12288 Invalid Tags : 196608 Pr0 Tags : 98304 Pr1 Tags : 196608 num_pr0 : 12288
 SAE Count : 0
 Inter-Core Inteference in Data Store : 24873715
Heartbeat CPU 5 instructions: 150000002 cycles: 51567267 heartbeat IPC: 2.91087 cumulative IPC: 2.90882 (Simulation time: 151 hr 30 min 46 sec) 
 Total Blocks : 196608 Invalid Blocks : 0 Valid Blocks : 196608
 Total Tags : 491520 Threshold : 12288 Invalid Tags : 196610 Pr0 Tags : 98302 Pr1 Tags : 196608 num_pr0 : 12288
 SAE Count : 0
 Inter-Core Inteference in Data Store : 24875123
Heartbeat CPU 6 instructions: 150000002 cycles: 51578645 heartbeat IPC: 2.91021 cumulative IPC: 2.90818 (Simulation time: 151 hr 31 min 28 sec) 
 Total Blocks : 196608 Invalid Blocks : 0 Valid Blocks : 196608
 Total Tags : 491520 Threshold : 12288 Invalid Tags : 196610 Pr0 Tags : 98302 Pr1 Tags : 196608 num_pr0 : 12288
 SAE Count : 0
 Inter-Core Inteference in Data Store : 24880724
Heartbeat CPU 7 instructions: 150000002 cycles: 51582997 heartbeat IPC: 2.90953 cumulative IPC: 2.90793 (Simulation time: 151 hr 31 min 44 sec) 
 Total Blocks : 196608 Invalid Blocks : 0 Valid Blocks : 196608
 Total Tags : 491520 Threshold : 12288 Invalid Tags : 196611 Pr0 Tags : 98301 Pr1 Tags : 196608 num_pr0 : 12287
 SAE Count : 0
 Inter-Core Inteference in Data Store : 24882890
Heartbeat CPU 0 instructions: 160000002 cycles: 54963608 heartbeat IPC: 2.91469 cumulative IPC: 2.91102 (Simulation time: 155 hr 0 min 14 sec) 
 Total Blocks : 196608 Invalid Blocks : 0 Valid Blocks : 196608
 Total Tags : 491520 Threshold : 12288 Invalid Tags : 196609 Pr0 Tags : 98303 Pr1 Tags : 196608 num_pr0 : 12288
 SAE Count : 0
 Inter-Core Inteference in Data Store : 26551842
Heartbeat CPU 1 instructions: 160000002 cycles: 54973747 heartbeat IPC: 2.91433 cumulative IPC: 2.91048 (Simulation time: 155 hr 0 min 52 sec) 
 Total Blocks : 196608 Invalid Blocks : 0 Valid Blocks : 196608
 Total Tags : 491520 Threshold : 12288 Invalid Tags : 196611 Pr0 Tags : 98301 Pr1 Tags : 196608 num_pr0 : 12287
 SAE Count : 0
 Inter-Core Inteference in Data Store : 26556858
Heartbeat CPU 2 instructions: 160000002 cycles: 54978981 heartbeat IPC: 2.91423 cumulative IPC: 2.9102 (Simulation time: 155 hr 1 min 11 sec) 
 Total Blocks : 196608 Invalid Blocks : 0 Valid Blocks : 196608
 Total Tags : 491520 Threshold : 12288 Invalid Tags : 196609 Pr0 Tags : 98303 Pr1 Tags : 196608 num_pr0 : 12288
 SAE Count : 0
 Inter-Core Inteference in Data Store : 26559487
Heartbeat CPU 3 instructions: 160000002 cycles: 54991655 heartbeat IPC: 2.91352 cumulative IPC: 2.90953 (Simulation time: 155 hr 2 min 3 sec) 
 Total Blocks : 196608 Invalid Blocks : 0 Valid Blocks : 196608
 Total Tags : 491520 Threshold : 12288 Invalid Tags : 196612 Pr0 Tags : 98300 Pr1 Tags : 196608 num_pr0 : 12286
 SAE Count : 0
 Inter-Core Inteference in Data Store : 26565614
Heartbeat CPU 4 instructions: 160000002 cycles: 54997188 heartbeat IPC: 2.91311 cumulative IPC: 2.90924 (Simulation time: 155 hr 2 min 26 sec) 
 Total Blocks : 196608 Invalid Blocks : 0 Valid Blocks : 196608
 Total Tags : 491520 Threshold : 12288 Invalid Tags : 196612 Pr0 Tags : 98300 Pr1 Tags : 196608 num_pr0 : 12286
 SAE Count : 0
 Inter-Core Inteference in Data Store : 26568363
Heartbeat CPU 5 instructions: 160000002 cycles: 55001407 heartbeat IPC: 2.91194 cumulative IPC: 2.90902 (Simulation time: 155 hr 2 min 42 sec) 
 Total Blocks : 196608 Invalid Blocks : 0 Valid Blocks : 196608
 Total Tags : 491520 Threshold : 12288 Invalid Tags : 196610 Pr0 Tags : 98302 Pr1 Tags : 196608 num_pr0 : 12288
 SAE Count : 0
 Inter-Core Inteference in Data Store : 26570451
Heartbeat CPU 6 instructions: 160000002 cycles: 55013361 heartbeat IPC: 2.91145 cumulative IPC: 2.90838 (Simulation time: 155 hr 3 min 29 sec) 
 Total Blocks : 196608 Invalid Blocks : 0 Valid Blocks : 196608
 Total Tags : 491520 Threshold : 12288 Invalid Tags : 196612 Pr0 Tags : 98300 Pr1 Tags : 196608 num_pr0 : 12287
 SAE Count : 0
 Inter-Core Inteference in Data Store : 26576265
Heartbeat CPU 7 instructions: 160000002 cycles: 55017923 heartbeat IPC: 2.91127 cumulative IPC: 2.90814 (Simulation time: 155 hr 3 min 46 sec) 
 Total Blocks : 196608 Invalid Blocks : 0 Valid Blocks : 196608
 Total Tags : 491520 Threshold : 12288 Invalid Tags : 196611 Pr0 Tags : 98301 Pr1 Tags : 196608 num_pr0 : 12287
 SAE Count : 0
 Inter-Core Inteference in Data Store : 26578539
Heartbeat CPU 0 instructions: 170000002 cycles: 58396326 heartbeat IPC: 2.91314 cumulative IPC: 2.91114 (Simulation time: 158 hr 39 min 48 sec) 
 Total Blocks : 196608 Invalid Blocks : 0 Valid Blocks : 196608
 Total Tags : 491520 Threshold : 12288 Invalid Tags : 196608 Pr0 Tags : 98304 Pr1 Tags : 196608 num_pr0 : 12288
 SAE Count : 0
 Inter-Core Inteference in Data Store : 28248791
Heartbeat CPU 1 instructions: 170000002 cycles: 58406856 heartbeat IPC: 2.91281 cumulative IPC: 2.91062 (Simulation time: 158 hr 40 min 28 sec) 
 Total Blocks : 196608 Invalid Blocks : 0 Valid Blocks : 196608
 Total Tags : 491520 Threshold : 12288 Invalid Tags : 196611 Pr0 Tags : 98301 Pr1 Tags : 196608 num_pr0 : 12287
 SAE Count : 0
 Inter-Core Inteference in Data Store : 28254025
Heartbeat CPU 2 instructions: 170000002 cycles: 58413094 heartbeat IPC: 2.91196 cumulative IPC: 2.91031 (Simulation time: 158 hr 40 min 53 sec) 
 Total Blocks : 196608 Invalid Blocks : 0 Valid Blocks : 196608
 Total Tags : 491520 Threshold : 12288 Invalid Tags : 196611 Pr0 Tags : 98301 Pr1 Tags : 196608 num_pr0 : 12288
 SAE Count : 0
 Inter-Core Inteference in Data Store : 28257041
Heartbeat CPU 3 instructions: 170000002 cycles: 58425242 heartbeat IPC: 2.91241 cumulative IPC: 2.9097 (Simulation time: 158 hr 41 min 41 sec) 
 Total Blocks : 196608 Invalid Blocks : 0 Valid Blocks : 196608
 Total Tags : 491520 Threshold : 12288 Invalid Tags : 196609 Pr0 Tags : 98303 Pr1 Tags : 196608 num_pr0 : 12288
 SAE Count : 0
 Inter-Core Inteference in Data Store : 28262935
Heartbeat CPU 4 instructions: 170000002 cycles: 58432572 heartbeat IPC: 2.91088 cumulative IPC: 2.90934 (Simulation time: 158 hr 42 min 7 sec) 
 Total Blocks : 196608 Invalid Blocks : 0 Valid Blocks : 196608
 Total Tags : 491520 Threshold : 12288 Invalid Tags : 196611 Pr0 Tags : 98301 Pr1 Tags : 196608 num_pr0 : 12288
 SAE Count : 0
 Inter-Core Inteference in Data Store : 28266611
Heartbeat CPU 5 instructions: 170000002 cycles: 58437824 heartbeat IPC: 2.91001 cumulative IPC: 2.90907 (Simulation time: 158 hr 42 min 27 sec) 
 Total Blocks : 196608 Invalid Blocks : 0 Valid Blocks : 196608
 Total Tags : 491520 Threshold : 12288 Invalid Tags : 196609 Pr0 Tags : 98303 Pr1 Tags : 196608 num_pr0 : 12288
 SAE Count : 0
 Inter-Core Inteference in Data Store : 28269267
Heartbeat CPU 6 instructions: 170000002 cycles: 58449192 heartbeat IPC: 2.9105 cumulative IPC: 2.90851 (Simulation time: 158 hr 43 min 11 sec) 
 Total Blocks : 196608 Invalid Blocks : 0 Valid Blocks : 196608
 Total Tags : 491520 Threshold : 12288 Invalid Tags : 196609 Pr0 Tags : 98303 Pr1 Tags : 196608 num_pr0 : 12288
 SAE Count : 0
 Inter-Core Inteference in Data Store : 28275038
Heartbeat CPU 7 instructions: 170000002 cycles: 58454607 heartbeat IPC: 2.90978 cumulative IPC: 2.90824 (Simulation time: 158 hr 43 min 34 sec) 
 Total Blocks : 196608 Invalid Blocks : 0 Valid Blocks : 196608
 Total Tags : 491520 Threshold : 12288 Invalid Tags : 196608 Pr0 Tags : 98304 Pr1 Tags : 196608 num_pr0 : 12288
 SAE Count : 0
 Inter-Core Inteference in Data Store : 28277676
Heartbeat CPU 0 instructions: 180000001 cycles: 61831581 heartbeat IPC: 2.91099 cumulative IPC: 2.91113 (Simulation time: 162 hr 24 min 41 sec) 
 Total Blocks : 196608 Invalid Blocks : 0 Valid Blocks : 196608
 Total Tags : 491520 Threshold : 12288 Invalid Tags : 196610 Pr0 Tags : 98302 Pr1 Tags : 196608 num_pr0 : 12287
 SAE Count : 0
 Inter-Core Inteference in Data Store : 29952336
Heartbeat CPU 1 instructions: 180000001 cycles: 61843054 heartbeat IPC: 2.91019 cumulative IPC: 2.91059 (Simulation time: 162 hr 25 min 30 sec) 
 Total Blocks : 196608 Invalid Blocks : 0 Valid Blocks : 196608
 Total Tags : 491520 Threshold : 12288 Invalid Tags : 196608 Pr0 Tags : 98304 Pr1 Tags : 196608 num_pr0 : 12288
 SAE Count : 0
 Inter-Core Inteference in Data Store : 29958011
Heartbeat CPU 2 instructions: 180000001 cycles: 61848835 heartbeat IPC: 2.91058 cumulative IPC: 2.91032 (Simulation time: 162 hr 25 min 53 sec) 
 Total Blocks : 196608 Invalid Blocks : 0 Valid Blocks : 196608
 Total Tags : 491520 Threshold : 12288 Invalid Tags : 196611 Pr0 Tags : 98301 Pr1 Tags : 196608 num_pr0 : 12287
 SAE Count : 0
 Inter-Core Inteference in Data Store : 29960879
Heartbeat CPU 3 instructions: 180000001 cycles: 61862472 heartbeat IPC: 2.90932 cumulative IPC: 2.90968 (Simulation time: 162 hr 26 min 45 sec) 
 Total Blocks : 196608 Invalid Blocks : 0 Valid Blocks : 196608
 Total Tags : 491520 Threshold : 12288 Invalid Tags : 196608 Pr0 Tags : 98304 Pr1 Tags : 196608 num_pr0 : 12288
 SAE Count : 0
 Inter-Core Inteference in Data Store : 29967529
Heartbeat CPU 4 instructions: 180000001 cycles: 61870216 heartbeat IPC: 2.90897 cumulative IPC: 2.90932 (Simulation time: 162 hr 27 min 19 sec) 
 Total Blocks : 196608 Invalid Blocks : 0 Valid Blocks : 196608
 Total Tags : 491520 Threshold : 12288 Invalid Tags : 196611 Pr0 Tags : 98301 Pr1 Tags : 196608 num_pr0 : 12287
 SAE Count : 0
 Inter-Core Inteference in Data Store : 29971289
Heartbeat CPU 5 instructions: 180000001 cycles: 61876304 heartbeat IPC: 2.90826 cumulative IPC: 2.90903 (Simulation time: 162 hr 27 min 44 sec) 
 Total Blocks : 196608 Invalid Blocks : 0 Valid Blocks : 196608
 Total Tags : 491520 Threshold : 12288 Invalid Tags : 196613 Pr0 Tags : 98299 Pr1 Tags : 196608 num_pr0 : 12288
 SAE Count : 0
 Inter-Core Inteference in Data Store : 29974291
Heartbeat CPU 6 instructions: 180000001 cycles: 61888159 heartbeat IPC: 2.90785 cumulative IPC: 2.90847 (Simulation time: 162 hr 28 min 32 sec) 
 Total Blocks : 196608 Invalid Blocks : 0 Valid Blocks : 196608
 Total Tags : 491520 Threshold : 12288 Invalid Tags : 196610 Pr0 Tags : 98302 Pr1 Tags : 196608 num_pr0 : 12288
 SAE Count : 0
 Inter-Core Inteference in Data Store : 29980170
Heartbeat CPU 7 instructions: 180000001 cycles: 61893101 heartbeat IPC: 2.90825 cumulative IPC: 2.90824 (Simulation time: 162 hr 28 min 53 sec) 
 Total Blocks : 196608 Invalid Blocks : 0 Valid Blocks : 196608
 Total Tags : 491520 Threshold : 12288 Invalid Tags : 196611 Pr0 Tags : 98301 Pr1 Tags : 196608 num_pr0 : 12288
 SAE Count : 0
 Inter-Core Inteference in Data Store : 29982685
Heartbeat CPU 0 instructions: 190000003 cycles: 65267852 heartbeat IPC: 2.91013 cumulative IPC: 2.91108 (Simulation time: 166 hr 9 min 6 sec) 
 Total Blocks : 196608 Invalid Blocks : 0 Valid Blocks : 196608
 Total Tags : 491520 Threshold : 12288 Invalid Tags : 196611 Pr0 Tags : 98301 Pr1 Tags : 196608 num_pr0 : 12288
 SAE Count : 0
 Inter-Core Inteference in Data Store : 31662172
Heartbeat CPU 1 instructions: 190000003 cycles: 65280279 heartbeat IPC: 2.90932 cumulative IPC: 2.91053 (Simulation time: 166 hr 9 min 55 sec) 
 Total Blocks : 196608 Invalid Blocks : 0 Valid Blocks : 196608
 Total Tags : 491520 Threshold : 12288 Invalid Tags : 196614 Pr0 Tags : 98298 Pr1 Tags : 196608 num_pr0 : 12286
 SAE Count : 0
 Inter-Core Inteference in Data Store : 31668360
Heartbeat CPU 2 instructions: 190000003 cycles: 65286262 heartbeat IPC: 2.90915 cumulative IPC: 2.91026 (Simulation time: 166 hr 10 min 18 sec) 
 Total Blocks : 196608 Invalid Blocks : 0 Valid Blocks : 196608
 Total Tags : 491520 Threshold : 12288 Invalid Tags : 196612 Pr0 Tags : 98300 Pr1 Tags : 196608 num_pr0 : 12288
 SAE Count : 0
 Inter-Core Inteference in Data Store : 31671327
Heartbeat CPU 3 instructions: 190000003 cycles: 65300288 heartbeat IPC: 2.90882 cumulative IPC: 2.90964 (Simulation time: 166 hr 11 min 12 sec) 
 Total Blocks : 196608 Invalid Blocks : 0 Valid Blocks : 196608
 Total Tags : 491520 Threshold : 12288 Invalid Tags : 196611 Pr0 Tags : 98301 Pr1 Tags : 196608 num_pr0 : 12288
 SAE Count : 0
 Inter-Core Inteference in Data Store : 31678396
Heartbeat CPU 4 instructions: 190000003 cycles: 65308158 heartbeat IPC: 2.90872 cumulative IPC: 2.90928 (Simulation time: 166 hr 11 min 42 sec) 
 Total Blocks : 196608 Invalid Blocks : 0 Valid Blocks : 196608
 Total Tags : 491520 Threshold : 12288 Invalid Tags : 196609 Pr0 Tags : 98303 Pr1 Tags : 196608 num_pr0 : 12288
 SAE Count : 0
 Inter-Core Inteference in Data Store : 31682401
Heartbeat CPU 5 instructions: 190000003 cycles: 65315465 heartbeat IPC: 2.90769 cumulative IPC: 2.90896 (Simulation time: 166 hr 12 min 10 sec) 
 Total Blocks : 196608 Invalid Blocks : 0 Valid Blocks : 196608
 Total Tags : 491520 Threshold : 12288 Invalid Tags : 196612 Pr0 Tags : 98300 Pr1 Tags : 196608 num_pr0 : 12288
 SAE Count : 0
 Inter-Core Inteference in Data Store : 31686030
Heartbeat CPU 6 instructions: 190000003 cycles: 65327452 heartbeat IPC: 2.90757 cumulative IPC: 2.90843 (Simulation time: 166 hr 12 min 57 sec) 
 Total Blocks : 196608 Invalid Blocks : 0 Valid Blocks : 196608
 Total Tags : 491520 Threshold : 12288 Invalid Tags : 196613 Pr0 Tags : 98299 Pr1 Tags : 196608 num_pr0 : 12288
 SAE Count : 0
 Inter-Core Inteference in Data Store : 31692071
Heartbeat CPU 7 instructions: 190000003 cycles: 65333895 heartbeat IPC: 2.90631 cumulative IPC: 2.90814 (Simulation time: 166 hr 13 min 20 sec) 
 Total Blocks : 196608 Invalid Blocks : 0 Valid Blocks : 196608
 Total Tags : 491520 Threshold : 12288 Invalid Tags : 196609 Pr0 Tags : 98303 Pr1 Tags : 196608 num_pr0 : 12288
 SAE Count : 0
 Inter-Core Inteference in Data Store : 31695242
Heartbeat CPU 0 instructions: 200000003 cycles: 68706266 heartbeat IPC: 2.90832 cumulative IPC: 2.91094 (Simulation time: 169 hr 53 min 46 sec) 
 Total Blocks : 196608 Invalid Blocks : 0 Valid Blocks : 196608
 Total Tags : 491520 Threshold : 12288 Invalid Tags : 196609 Pr0 Tags : 98303 Pr1 Tags : 196608 num_pr0 : 12288
 SAE Count : 0
 Inter-Core Inteference in Data Store : 33384796
Heartbeat CPU 1 instructions: 200000002 cycles: 68719346 heartbeat IPC: 2.90777 cumulative IPC: 2.91039 (Simulation time: 169 hr 54 min 37 sec) 
 Total Blocks : 196608 Invalid Blocks : 0 Valid Blocks : 196608
 Total Tags : 491520 Threshold : 12288 Invalid Tags : 196611 Pr0 Tags : 98301 Pr1 Tags : 196608 num_pr0 : 12288
 SAE Count : 0
 Inter-Core Inteference in Data Store : 33391327
Heartbeat CPU 2 instructions: 200000002 cycles: 68725746 heartbeat IPC: 2.90741 cumulative IPC: 2.91012 (Simulation time: 169 hr 55 min 2 sec) 
 Total Blocks : 196608 Invalid Blocks : 0 Valid Blocks : 196608
 Total Tags : 491520 Threshold : 12288 Invalid Tags : 196612 Pr0 Tags : 98300 Pr1 Tags : 196608 num_pr0 : 12287
 SAE Count : 0
 Inter-Core Inteference in Data Store : 33394575
Heartbeat CPU 3 instructions: 200000003 cycles: 68740742 heartbeat IPC: 2.90659 cumulative IPC: 2.90948 (Simulation time: 169 hr 56 min 1 sec) 
 Total Blocks : 196608 Invalid Blocks : 0 Valid Blocks : 196608
 Total Tags : 491520 Threshold : 12288 Invalid Tags : 196611 Pr0 Tags : 98301 Pr1 Tags : 196608 num_pr0 : 12288
 SAE Count : 0
 Inter-Core Inteference in Data Store : 33402051
Heartbeat CPU 4 instructions: 200000002 cycles: 68748710 heartbeat IPC: 2.90651 cumulative IPC: 2.90915 (Simulation time: 169 hr 56 min 32 sec) 
 Total Blocks : 196608 Invalid Blocks : 0 Valid Blocks : 196608
 Total Tags : 491520 Threshold : 12288 Invalid Tags : 196611 Pr0 Tags : 98301 Pr1 Tags : 196608 num_pr0 : 12287
 SAE Count : 0
 Inter-Core Inteference in Data Store : 33406245
Heartbeat CPU 5 instructions: 200000003 cycles: 68756888 heartbeat IPC: 2.90577 cumulative IPC: 2.9088 (Simulation time: 169 hr 57 min 4 sec) 
 Total Blocks : 196608 Invalid Blocks : 0 Valid Blocks : 196608
 Total Tags : 491520 Threshold : 12288 Invalid Tags : 196611 Pr0 Tags : 98301 Pr1 Tags : 196608 num_pr0 : 12288
 SAE Count : 0
 Inter-Core Inteference in Data Store : 33410388
Heartbeat CPU 6 instructions: 200000003 cycles: 68770336 heartbeat IPC: 2.90454 cumulative IPC: 2.90823 (Simulation time: 169 hr 57 min 55 sec) 
 Total Blocks : 196608 Invalid Blocks : 0 Valid Blocks : 196608
 Total Tags : 491520 Threshold : 12288 Invalid Tags : 196610 Pr0 Tags : 98302 Pr1 Tags : 196608 num_pr0 : 12288
 SAE Count : 0
 Inter-Core Inteference in Data Store : 33417059
Heartbeat CPU 7 instructions: 200000003 cycles: 68776715 heartbeat IPC: 2.9046 cumulative IPC: 2.90796 (Simulation time: 169 hr 58 min 21 sec) 
 Total Blocks : 196608 Invalid Blocks : 0 Valid Blocks : 196608
 Total Tags : 491520 Threshold : 12288 Invalid Tags : 196609 Pr0 Tags : 98303 Pr1 Tags : 196608 num_pr0 : 12288
 SAE Count : 0
 Inter-Core Inteference in Data Store : 33420253

Warmup complete CPU 0 instructions: 200204790 cycles: 68776715 (Simulation time: 169 hr 58 min 21 sec) 
Warmup complete CPU 1 instructions: 200166840 cycles: 68776715 (Simulation time: 169 hr 58 min 21 sec) 
Warmup complete CPU 2 instructions: 200148125 cycles: 68776715 (Simulation time: 169 hr 58 min 21 sec) 
Warmup complete CPU 3 instructions: 200104603 cycles: 68776715 (Simulation time: 169 hr 58 min 21 sec) 
Warmup complete CPU 4 instructions: 200081195 cycles: 68776715 (Simulation time: 169 hr 58 min 21 sec) 
Warmup complete CPU 5 instructions: 200057357 cycles: 68776715 (Simulation time: 169 hr 58 min 21 sec) 
Warmup complete CPU 6 instructions: 200018561 cycles: 68776715 (Simulation time: 169 hr 58 min 21 sec) 
Warmup complete CPU 7 instructions: 200000003 cycles: 68776715 (Simulation time: 169 hr 58 min 21 sec) 

Heartbeat CPU 0 instructions: 210000002 cycles: 159336391 heartbeat IPC: 0.110339 cumulative IPC: 0.108163 (Simulation time: 173 hr 52 min 15 sec) 
 Total Blocks : 196608 Invalid Blocks : 0 Valid Blocks : 196608
 Total Tags : 491520 Threshold : 12288 Invalid Tags : 196612 Pr0 Tags : 98300 Pr1 Tags : 196608 num_pr0 : 12288
 SAE Count : 0
 Inter-Core Inteference in Data Store : 1696521
Heartbeat CPU 1 instructions: 210000003 cycles: 159642505 heartbeat IPC: 0.109983 cumulative IPC: 0.108216 (Simulation time: 173 hr 53 min 2 sec) 
 Total Blocks : 196608 Invalid Blocks : 0 Valid Blocks : 196608
 Total Tags : 491520 Threshold : 12288 Invalid Tags : 196611 Pr0 Tags : 98301 Pr1 Tags : 196608 num_pr0 : 12288
 SAE Count : 0
 Inter-Core Inteference in Data Store : 1702454
Heartbeat CPU 3 instructions: 210000002 cycles: 160104612 heartbeat IPC: 0.109452 cumulative IPC: 0.10835 (Simulation time: 173 hr 54 min 18 sec) 
 Total Blocks : 196608 Invalid Blocks : 0 Valid Blocks : 196608
 Total Tags : 491520 Threshold : 12288 Invalid Tags : 196609 Pr0 Tags : 98303 Pr1 Tags : 196608 num_pr0 : 12288
 SAE Count : 0
 Inter-Core Inteference in Data Store : 1710875
Heartbeat CPU 4 instructions: 210000002 cycles: 160309044 heartbeat IPC: 0.109218 cumulative IPC: 0.108364 (Simulation time: 173 hr 54 min 50 sec) 
 Total Blocks : 196608 Invalid Blocks : 0 Valid Blocks : 196608
 Total Tags : 491520 Threshold : 12288 Invalid Tags : 196613 Pr0 Tags : 98299 Pr1 Tags : 196608 num_pr0 : 12287
 SAE Count : 0
 Inter-Core Inteference in Data Store : 1714583
Heartbeat CPU 2 instructions: 210000002 cycles: 160363585 heartbeat IPC: 0.109125 cumulative IPC: 0.107569 (Simulation time: 173 hr 54 min 59 sec) 
 Total Blocks : 196608 Invalid Blocks : 0 Valid Blocks : 196608
 Total Tags : 491520 Threshold : 12288 Invalid Tags : 196612 Pr0 Tags : 98300 Pr1 Tags : 196608 num_pr0 : 12288
 SAE Count : 0
 Inter-Core Inteference in Data Store : 1715580
Heartbeat CPU 5 instructions: 210000002 cycles: 160688452 heartbeat IPC: 0.108777 cumulative IPC: 0.108176 (Simulation time: 173 hr 55 min 53 sec) 
 Total Blocks : 196608 Invalid Blocks : 0 Valid Blocks : 196608
 Total Tags : 491520 Threshold : 12288 Invalid Tags : 196610 Pr0 Tags : 98302 Pr1 Tags : 196608 num_pr0 : 12288
 SAE Count : 0
 Inter-Core Inteference in Data Store : 1721603
Heartbeat CPU 6 instructions: 210000003 cycles: 161226309 heartbeat IPC: 0.10816 cumulative IPC: 0.107966 (Simulation time: 173 hr 57 min 21 sec) 
 Total Blocks : 196608 Invalid Blocks : 0 Valid Blocks : 196608
 Total Tags : 491520 Threshold : 12288 Invalid Tags : 196613 Pr0 Tags : 98299 Pr1 Tags : 196608 num_pr0 : 12287
 SAE Count : 0
 Inter-Core Inteference in Data Store : 1731431
Heartbeat CPU 7 instructions: 210000002 cycles: 161628175 heartbeat IPC: 0.107699 cumulative IPC: 0.107699 (Simulation time: 173 hr 58 min 26 sec) 
 Total Blocks : 196608 Invalid Blocks : 0 Valid Blocks : 196608
 Total Tags : 491520 Threshold : 12288 Invalid Tags : 196612 Pr0 Tags : 98300 Pr1 Tags : 196608 num_pr0 : 12288
 SAE Count : 0
 Inter-Core Inteference in Data Store : 1738746
Heartbeat CPU 0 instructions: 220000000 cycles: 256099056 heartbeat IPC: 0.103346 cumulative IPC: 0.105675 (Simulation time: 177 hr 58 min 8 sec) 
 Total Blocks : 196608 Invalid Blocks : 0 Valid Blocks : 196608
 Total Tags : 491520 Threshold : 12288 Invalid Tags : 196611 Pr0 Tags : 98301 Pr1 Tags : 196608 num_pr0 : 12288
 SAE Count : 0
 Inter-Core Inteference in Data Store : 3569742
Heartbeat CPU 1 instructions: 220000000 cycles: 256374309 heartbeat IPC: 0.103379 cumulative IPC: 0.105722 (Simulation time: 177 hr 58 min 54 sec) 
 Total Blocks : 196608 Invalid Blocks : 0 Valid Blocks : 196608
 Total Tags : 491520 Threshold : 12288 Invalid Tags : 196609 Pr0 Tags : 98303 Pr1 Tags : 196608 num_pr0 : 12288
 SAE Count : 0
 Inter-Core Inteference in Data Store : 3575091
Heartbeat CPU 3 instructions: 220000000 cycles: 256765557 heartbeat IPC: 0.103454 cumulative IPC: 0.105833 (Simulation time: 177 hr 59 min 59 sec) 
 Total Blocks : 196608 Invalid Blocks : 0 Valid Blocks : 196608
 Total Tags : 491520 Threshold : 12288 Invalid Tags : 196610 Pr0 Tags : 98302 Pr1 Tags : 196608 num_pr0 : 12288
 SAE Count : 0
 Inter-Core Inteference in Data Store : 3582473
Heartbeat CPU 4 instructions: 220000000 cycles: 257128147 heartbeat IPC: 0.103285 cumulative IPC: 0.105753 (Simulation time: 178 hr 0 min 59 sec) 
 Total Blocks : 196608 Invalid Blocks : 0 Valid Blocks : 196608
 Total Tags : 491520 Threshold : 12288 Invalid Tags : 196611 Pr0 Tags : 98301 Pr1 Tags : 196608 num_pr0 : 12287
 SAE Count : 0
 Inter-Core Inteference in Data Store : 3589313
Heartbeat CPU 2 instructions: 220000000 cycles: 257328596 heartbeat IPC: 0.10313 cumulative IPC: 0.105286 (Simulation time: 178 hr 1 min 32 sec) 
 Total Blocks : 196608 Invalid Blocks : 0 Valid Blocks : 196608
 Total Tags : 491520 Threshold : 12288 Invalid Tags : 196610 Pr0 Tags : 98302 Pr1 Tags : 196608 num_pr0 : 12288
 SAE Count : 0
 Inter-Core Inteference in Data Store : 3593123
Heartbeat CPU 5 instructions: 220000000 cycles: 257347276 heartbeat IPC: 0.103457 cumulative IPC: 0.105757 (Simulation time: 178 hr 1 min 35 sec) 
 Total Blocks : 196608 Invalid Blocks : 0 Valid Blocks : 196608
 Total Tags : 491520 Threshold : 12288 Invalid Tags : 196611 Pr0 Tags : 98301 Pr1 Tags : 196608 num_pr0 : 12288
 SAE Count : 0
 Inter-Core Inteference in Data Store : 3593441
Heartbeat CPU 6 instructions: 220000000 cycles: 258122185 heartbeat IPC: 0.103204 cumulative IPC: 0.105529 (Simulation time: 178 hr 3 min 45 sec) 
 Total Blocks : 196608 Invalid Blocks : 0 Valid Blocks : 196608
 Total Tags : 491520 Threshold : 12288 Invalid Tags : 196613 Pr0 Tags : 98299 Pr1 Tags : 196608 num_pr0 : 12287
 SAE Count : 0
 Inter-Core Inteference in Data Store : 3608364
Heartbeat CPU 7 instructions: 220000000 cycles: 258843869 heartbeat IPC: 0.102864 cumulative IPC: 0.105226 (Simulation time: 178 hr 5 min 47 sec) 
 Total Blocks : 196608 Invalid Blocks : 0 Valid Blocks : 196608
 Total Tags : 491520 Threshold : 12288 Invalid Tags : 196613 Pr0 Tags : 98299 Pr1 Tags : 196608 num_pr0 : 12287
 SAE Count : 0
 Inter-Core Inteference in Data Store : 3622150
Heartbeat CPU 1 instructions: 230000002 cycles: 352872112 heartbeat IPC: 0.103629 cumulative IPC: 0.105011 (Simulation time: 182 hr 4 min 47 sec) 
 Total Blocks : 196608 Invalid Blocks : 0 Valid Blocks : 196608
 Total Tags : 491520 Threshold : 12288 Invalid Tags : 196609 Pr0 Tags : 98303 Pr1 Tags : 196608 num_pr0 : 12287
 SAE Count : 0
 Inter-Core Inteference in Data Store : 5434917
Heartbeat CPU 3 instructions: 230000002 cycles: 353472493 heartbeat IPC: 0.103405 cumulative IPC: 0.105008 (Simulation time: 182 hr 5 min 55 sec) 
 Total Blocks : 196608 Invalid Blocks : 0 Valid Blocks : 196608
 Total Tags : 491520 Threshold : 12288 Invalid Tags : 196611 Pr0 Tags : 98301 Pr1 Tags : 196608 num_pr0 : 12288
 SAE Count : 0
 Inter-Core Inteference in Data Store : 5449083
Heartbeat CPU 0 instructions: 230000002 cycles: 353753619 heartbeat IPC: 0.102402 cumulative IPC: 0.104553 (Simulation time: 182 hr 6 min 27 sec) 
 Total Blocks : 196608 Invalid Blocks : 0 Valid Blocks : 196608
 Total Tags : 491520 Threshold : 12288 Invalid Tags : 196608 Pr0 Tags : 98304 Pr1 Tags : 196608 num_pr0 : 12288
 SAE Count : 0
 Inter-Core Inteference in Data Store : 5455660
Heartbeat CPU 4 instructions: 230000002 cycles: 354060307 heartbeat IPC: 0.103165 cumulative IPC: 0.104874 (Simulation time: 182 hr 7 min 4 sec) 
 Total Blocks : 196608 Invalid Blocks : 0 Valid Blocks : 196608
 Total Tags : 491520 Threshold : 12288 Invalid Tags : 196610 Pr0 Tags : 98302 Pr1 Tags : 196608 num_pr0 : 12288
 SAE Count : 0
 Inter-Core Inteference in Data Store : 5462816
Heartbeat CPU 2 instructions: 230000002 cycles: 354559770 heartbeat IPC: 0.102848 cumulative IPC: 0.104456 (Simulation time: 182 hr 8 min 6 sec) 
 Total Blocks : 196608 Invalid Blocks : 0 Valid Blocks : 196608
 Total Tags : 491520 Threshold : 12288 Invalid Tags : 196610 Pr0 Tags : 98302 Pr1 Tags : 196608 num_pr0 : 12287
 SAE Count : 0
 Inter-Core Inteference in Data Store : 5474555
Heartbeat CPU 5 instructions: 230000002 cycles: 354696178 heartbeat IPC: 0.102723 cumulative IPC: 0.104724 (Simulation time: 182 hr 8 min 22 sec) 
 Total Blocks : 196608 Invalid Blocks : 0 Valid Blocks : 196608
 Total Tags : 491520 Threshold : 12288 Invalid Tags : 196609 Pr0 Tags : 98303 Pr1 Tags : 196608 num_pr0 : 12288
 SAE Count : 0
 Inter-Core Inteference in Data Store : 5477833
Heartbeat CPU 6 instructions: 230000002 cycles: 355716836 heartbeat IPC: 0.102465 cumulative IPC: 0.104487 (Simulation time: 182 hr 10 min 57 sec) 
 Total Blocks : 196608 Invalid Blocks : 0 Valid Blocks : 196608
 Total Tags : 491520 Threshold : 12288 Invalid Tags : 196608 Pr0 Tags : 98304 Pr1 Tags : 196608 num_pr0 : 12288
 SAE Count : 0
 Inter-Core Inteference in Data Store : 5500097
Heartbeat CPU 7 instructions: 230000002 cycles: 356160567 heartbeat IPC: 0.102757 cumulative IPC: 0.10439 (Simulation time: 182 hr 12 min 39 sec) 
 Total Blocks : 196608 Invalid Blocks : 0 Valid Blocks : 196608
 Total Tags : 491520 Threshold : 12288 Invalid Tags : 196611 Pr0 Tags : 98301 Pr1 Tags : 196608 num_pr0 : 12288
 SAE Count : 0
 Inter-Core Inteference in Data Store : 5508440
Heartbeat CPU 1 instructions: 240000000 cycles: 450946877 heartbeat IPC: 0.101963 cumulative IPC: 0.104229 (Simulation time: 186 hr 21 min 36 sec) 
 Total Blocks : 196608 Invalid Blocks : 0 Valid Blocks : 196608
 Total Tags : 491520 Threshold : 12288 Invalid Tags : 196612 Pr0 Tags : 98300 Pr1 Tags : 196608 num_pr0 : 12288
 SAE Count : 0
 Inter-Core Inteference in Data Store : 7361742
Heartbeat CPU 3 instructions: 240000000 cycles: 451212917 heartbeat IPC: 0.102312 cumulative IPC: 0.104319 (Simulation time: 186 hr 22 min 24 sec) 
 Total Blocks : 196608 Invalid Blocks : 0 Valid Blocks : 196608
 Total Tags : 491520 Threshold : 12288 Invalid Tags : 196610 Pr0 Tags : 98302 Pr1 Tags : 196608 num_pr0 : 12287
 SAE Count : 0
 Inter-Core Inteference in Data Store : 7366649
Heartbeat CPU 4 instructions: 240000001 cycles: 451603430 heartbeat IPC: 0.102519 cumulative IPC: 0.104274 (Simulation time: 186 hr 23 min 33 sec) 
 Total Blocks : 196608 Invalid Blocks : 0 Valid Blocks : 196608
 Total Tags : 491520 Threshold : 12288 Invalid Tags : 196610 Pr0 Tags : 98302 Pr1 Tags : 196608 num_pr0 : 12288
 SAE Count : 0
 Inter-Core Inteference in Data Store : 7374088
Heartbeat CPU 0 instructions: 240000001 cycles: 452067818 heartbeat IPC: 0.101715 cumulative IPC: 0.103825 (Simulation time: 186 hr 24 min 56 sec) 
 Total Blocks : 196608 Invalid Blocks : 0 Valid Blocks : 196608
 Total Tags : 491520 Threshold : 12288 Invalid Tags : 196610 Pr0 Tags : 98302 Pr1 Tags : 196608 num_pr0 : 12288
 SAE Count : 0
 Inter-Core Inteference in Data Store : 7382906
Heartbeat CPU 2 instructions: 240000001 cycles: 452129487 heartbeat IPC: 0.102491 cumulative IPC: 0.103956 (Simulation time: 186 hr 25 min 8 sec) 
 Total Blocks : 196608 Invalid Blocks : 0 Valid Blocks : 196608
 Total Tags : 491520 Threshold : 12288 Invalid Tags : 196614 Pr0 Tags : 98298 Pr1 Tags : 196608 num_pr0 : 12288
 SAE Count : 0
 Inter-Core Inteference in Data Store : 7384082
Heartbeat CPU 5 instructions: 240000001 cycles: 452197699 heartbeat IPC: 0.102562 cumulative IPC: 0.104174 (Simulation time: 186 hr 25 min 19 sec) 
 Total Blocks : 196608 Invalid Blocks : 0 Valid Blocks : 196608
 Total Tags : 491520 Threshold : 12288 Invalid Tags : 196610 Pr0 Tags : 98302 Pr1 Tags : 196608 num_pr0 : 12288
 SAE Count : 0
 Inter-Core Inteference in Data Store : 7385373
Heartbeat CPU 6 instructions: 240000001 cycles: 453295364 heartbeat IPC: 0.102482 cumulative IPC: 0.103978 (Simulation time: 186 hr 28 min 33 sec) 
 Total Blocks : 196608 Invalid Blocks : 0 Valid Blocks : 196608
 Total Tags : 491520 Threshold : 12288 Invalid Tags : 196611 Pr0 Tags : 98301 Pr1 Tags : 196608 num_pr0 : 12287
 SAE Count : 0
 Inter-Core Inteference in Data Store : 7406316
Heartbeat CPU 7 instructions: 240000001 cycles: 453542675 heartbeat IPC: 0.102688 cumulative IPC: 0.103959 (Simulation time: 186 hr 29 min 16 sec) 
 Total Blocks : 196608 Invalid Blocks : 0 Valid Blocks : 196608
 Total Tags : 491520 Threshold : 12288 Invalid Tags : 196615 Pr0 Tags : 98297 Pr1 Tags : 196608 num_pr0 : 12287
 SAE Count : 0
 Inter-Core Inteference in Data Store : 7411041
Heartbeat CPU 1 instructions: 250000000 cycles: 551702780 heartbeat IPC: 0.0992498 cumulative IPC: 0.10319 (Simulation time: 190 hr 50 min 3 sec) 
 Total Blocks : 196608 Invalid Blocks : 0 Valid Blocks : 196608
 Total Tags : 491520 Threshold : 12288 Invalid Tags : 196611 Pr0 Tags : 98301 Pr1 Tags : 196608 num_pr0 : 12288
 SAE Count : 0
 Inter-Core Inteference in Data Store : 9360996
Heartbeat CPU 3 instructions: 250000000 cycles: 551767020 heartbeat IPC: 0.0994489 cumulative IPC: 0.103305 (Simulation time: 190 hr 50 min 16 sec) 
 Total Blocks : 196608 Invalid Blocks : 0 Valid Blocks : 196608
 Total Tags : 491520 Threshold : 12288 Invalid Tags : 196612 Pr0 Tags : 98300 Pr1 Tags : 196608 num_pr0 : 12288
 SAE Count : 0
 Inter-Core Inteference in Data Store : 9362176
Heartbeat CPU 2 instructions: 250000000 cycles: 552557536 heartbeat IPC: 0.0995738 cumulative IPC: 0.103046 (Simulation time: 190 hr 53 min 0 sec) 
 Total Blocks : 196608 Invalid Blocks : 0 Valid Blocks : 196608
 Total Tags : 491520 Threshold : 12288 Invalid Tags : 196609 Pr0 Tags : 98303 Pr1 Tags : 196608 num_pr0 : 12288
 SAE Count : 0
 Inter-Core Inteference in Data Store : 9373216
Heartbeat CPU 4 instructions: 250000000 cycles: 552594602 heartbeat IPC: 0.0990185 cumulative IPC: 0.103177 (Simulation time: 190 hr 53 min 8 sec) 
 Total Blocks : 196608 Invalid Blocks : 0 Valid Blocks : 196608
 Total Tags : 491520 Threshold : 12288 Invalid Tags : 196612 Pr0 Tags : 98300 Pr1 Tags : 196608 num_pr0 : 12288
 SAE Count : 0
 Inter-Core Inteference in Data Store : 9373715
Heartbeat CPU 5 instructions: 250000000 cycles: 552812659 heartbeat IPC: 0.0993888 cumulative IPC: 0.10318 (Simulation time: 190 hr 53 min 52 sec) 
 Total Blocks : 196608 Invalid Blocks : 0 Valid Blocks : 196608
 Total Tags : 491520 Threshold : 12288 Invalid Tags : 196614 Pr0 Tags : 98298 Pr1 Tags : 196608 num_pr0 : 12288
 SAE Count : 0
 Inter-Core Inteference in Data Store : 9376891
Heartbeat CPU 0 instructions: 250000000 cycles: 552910269 heartbeat IPC: 0.0991646 cumulative IPC: 0.102854 (Simulation time: 190 hr 54 min 12 sec) 
 Total Blocks : 196608 Invalid Blocks : 0 Valid Blocks : 196608
 Total Tags : 491520 Threshold : 12288 Invalid Tags : 196611 Pr0 Tags : 98301 Pr1 Tags : 196608 num_pr0 : 12288
[...]
LLC4 LOAD      ACCESS: 1100233  HIT: 318251  MISS: 781982  HIT %: 28.9258  MISS %: 71.0742  AVERAGE MISS PENALTY: 445.035
LLC4 RFO       ACCESS: 47619  HIT: 13073  MISS: 34546  HIT %: 27.4533  MISS %: 72.5467  AVERAGE MISS PENALTY: 465.63
LLC4 PREFETCH  ACCESS: 910464  HIT: 129599  MISS: 780865  HIT %: 14.2344  MISS %: 85.7656  AVERAGE MISS PENALTY: 579.635
LLC4 WRITEBACK ACCESS: 554344  HIT: 178176  MISS: 376168  HIT %: 32.1418  MISS %: 67.8582  AVERAGE MISS PENALTY: 0
LLC4 PREFETCH  REQUESTED:     0  ISSUED:     0  USEFUL: 428787  USELESS: 631408
 USEFUL LOAD PREFETCHES:     428787 PREFETCH ISSUED TO LOWER LEVEL:    6252772  ACCURACY: 6.85755
 TIMELY PREFETCHES:     428787 LATE PREFETCHES: 0 DROPPED PREFETCHES: 0
LLC4 AVERAGE MISS LATENCY: 413.827 cycles

LLC4 Set Associative Eviction Count : 0
LLC4 Priority 0 entries : 12288
LLC4 Inter-Core Interference : 5286554
LLC5 TOTAL     ACCESS: 2606609  HIT: 639964  MISS: 1966645  HIT %: 24.5516  MISS %: 75.4484  AVERAGE MISS PENALTY: 411.193
LLC5 LOAD      ACCESS: 1102197  HIT: 320778  MISS: 781419  HIT %: 29.1035  MISS %: 70.8965  AVERAGE MISS PENALTY: 443.218
LLC5 RFO       ACCESS: 47695  HIT: 13087  MISS: 34608  HIT %: 27.4389  MISS %: 72.5611  AVERAGE MISS PENALTY: 460.683
LLC5 PREFETCH  ACCESS: 902403  HIT: 127071  MISS: 775332  HIT %: 14.0814  MISS %: 85.9186  AVERAGE MISS PENALTY: 575.737
LLC5 WRITEBACK ACCESS: 554314  HIT: 179028  MISS: 375286  HIT %: 32.2972  MISS %: 67.7028  AVERAGE MISS PENALTY: 0
LLC5 PREFETCH  REQUESTED:     0  ISSUED:     0  USEFUL: 430798  USELESS: 611579
 USEFUL LOAD PREFETCHES:     430798 PREFETCH ISSUED TO LOWER LEVEL:    6213308  ACCURACY: 6.93347
 TIMELY PREFETCHES:     430798 LATE PREFETCHES: 0 DROPPED PREFETCHES: 0
LLC5 AVERAGE MISS LATENCY: 411.193 cycles

LLC5 Set Associative Eviction Count : 0
LLC5 Priority 0 entries : 12288
LLC5 Inter-Core Interference : 5266690
LLC6 TOTAL     ACCESS: 2604159  HIT: 637248  MISS: 1966911  HIT %: 24.4704  MISS %: 75.5296  AVERAGE MISS PENALTY: 420.061
LLC6 LOAD      ACCESS: 1101698  HIT: 321639  MISS: 780059  HIT %: 29.1948  MISS %: 70.8052  AVERAGE MISS PENALTY: 455.477
LLC6 RFO       ACCESS: 47728  HIT: 12948  MISS: 34780  HIT %: 27.1287  MISS %: 72.8713  AVERAGE MISS PENALTY: 472.881
LLC6 PREFETCH  ACCESS: 900397  HIT: 124318  MISS: 776079  HIT %: 13.807  MISS %: 86.193  AVERAGE MISS PENALTY: 585.606
LLC6 WRITEBACK ACCESS: 554336  HIT: 178343  MISS: 375993  HIT %: 32.1724  MISS %: 67.8276  AVERAGE MISS PENALTY: 0
LLC6 PREFETCH  REQUESTED:     0  ISSUED:     0  USEFUL: 430250  USELESS: 611752
 USEFUL LOAD PREFETCHES:     430250 PREFETCH ISSUED TO LOWER LEVEL:    6220402  ACCURACY: 6.91676
 TIMELY PREFETCHES:     430250 LATE PREFETCHES: 0 DROPPED PREFETCHES: 0
LLC6 AVERAGE MISS LATENCY: 420.061 cycles

LLC6 Set Associative Eviction Count : 0
LLC6 Priority 0 entries : 12288
LLC6 Inter-Core Interference : 5260835
LLC7 TOTAL     ACCESS: 2608075  HIT: 648029  MISS: 1960046  HIT %: 24.847  MISS %: 75.153  AVERAGE MISS PENALTY: 417.384
LLC7 LOAD      ACCESS: 1123548  HIT: 333864  MISS: 789684  HIT %: 29.7152  MISS %: 70.2848  AVERAGE MISS PENALTY: 453.358
LLC7 RFO       ACCESS: 48393  HIT: 12960  MISS: 35433  HIT %: 26.7807  MISS %: 73.2193  AVERAGE MISS PENALTY: 473.937
LLC7 PREFETCH  ACCESS: 881798  HIT: 122317  MISS: 759481  HIT %: 13.8713  MISS %: 86.1287  AVERAGE MISS PENALTY: 583.674
LLC7 WRITEBACK ACCESS: 554336  HIT: 178888  MISS: 375448  HIT %: 32.2707  MISS %: 67.7293  AVERAGE MISS PENALTY: 0
LLC7 PREFETCH  REQUESTED:     0  ISSUED:     0  USEFUL: 423061  USELESS: 600130
 USEFUL LOAD PREFETCHES:     423061 PREFETCH ISSUED TO LOWER LEVEL:    6090943  ACCURACY: 6.94574
 TIMELY PREFETCHES:     423061 LATE PREFETCHES: 0 DROPPED PREFETCHES: 0
LLC7 AVERAGE MISS LATENCY: 417.384 cycles

LLC7 Set Associative Eviction Count : 0
LLC7 Priority 0 entries : 12288
LLC7 Inter-Core Interference : 5287432
ROI Average ROB Stall Cycles:	82.4503
ROI Total ROB Stalls Cycles:	2036364345
ROI TOTAL ROB counter      :	24698075
ROI Average Load ROB Stall Cycles:	252.197
ROI Total Load ROB Stalls Cycle  :	1791737509
ROI Total Load ROB stalls Counter:	7104512
Major fault: 0 Minor fault: 159437

CPU 7 cumulative IPC: 0.0953694 instructions: 200000002 cycles: 2097109024
ITLB TOTAL     ACCESS: 46555791  HIT: 46555791  MISS:     0  HIT %:   100  MISS %:     0  AVERAGE MISS PENALTY: 0
ITLB LOAD      ACCESS: 46555791  HIT: 46555791  MISS:     0  HIT %:   100  MISS %:     0  AVERAGE MISS PENALTY: 0
ITLB RFO       ACCESS:     0  HIT:     0  MISS:     0  HIT %:     0  MISS %:     0  AVERAGE MISS PENALTY: 0
ITLB PREFETCH  ACCESS:     0  HIT:     0  MISS:     0  HIT %:     0  MISS %:     0  AVERAGE MISS PENALTY: 0
ITLB WRITEBACK ACCESS:     0  HIT:     0  MISS:     0  HIT %:     0  MISS %:     0  AVERAGE MISS PENALTY: 0
ITLB PREFETCH  REQUESTED:     0  ISSUED:     0  USEFUL:     0  USELESS:     0
 USEFUL LOAD PREFETCHES:          0 PREFETCH ISSUED TO LOWER LEVEL:          0  ACCURACY: -nan
 TIMELY PREFETCHES:          0 LATE PREFETCHES: 0 DROPPED PREFETCHES: 0
ITLB AVERAGE MISS LATENCY: -nan cycles

ITLB Set Associative Eviction Count : 0
ITLB Priority 0 entries : 0
ITLB Inter-Core Interference : 0
DTLB TOTAL     ACCESS: 36873419  HIT: 32108292  MISS: 4765127  HIT %: 87.0771  MISS %: 12.9229  AVERAGE MISS PENALTY: 153.196
DTLB LOAD      ACCESS: 28004644  HIT: 23248181  MISS: 4756463  HIT %: 83.0154  MISS %: 16.9846  AVERAGE MISS PENALTY: 153.225
DTLB RFO       ACCESS: 8868775  HIT: 8860111  MISS:  8664  HIT %: 99.9023  MISS %: 0.0976911  AVERAGE MISS PENALTY: 137.02
DTLB PREFETCH  ACCESS:     0  HIT:     0  MISS:     0  HIT %:     0  MISS %:     0  AVERAGE MISS PENALTY: 0
DTLB WRITEBACK ACCESS:     0  HIT:     0  MISS:     0  HIT %:     0  MISS %:     0  AVERAGE MISS PENALTY: 0
DTLB PREFETCH  REQUESTED:     0  ISSUED:     0  USEFUL:     0  USELESS:     0
 USEFUL LOAD PREFETCHES:          0 PREFETCH ISSUED TO LOWER LEVEL:          0  ACCURACY: -nan
 TIMELY PREFETCHES:          0 LATE PREFETCHES: 0 DROPPED PREFETCHES: 0
DTLB AVERAGE MISS LATENCY: 153.196 cycles

DTLB Set Associative Eviction Count : 0
DTLB Priority 0 entries : 0
DTLB Inter-Core Interference : 0
STLB TOTAL     ACCESS: 4765127  HIT:    71  MISS: 4765056  HIT %: 0.00148999  MISS %: 99.9985  AVERAGE MISS PENALTY: 100
STLB LOAD      ACCESS: 4756463  HIT:    71  MISS: 4756392  HIT %: 0.00149271  MISS %: 99.9985  AVERAGE MISS PENALTY: 100
STLB RFO       ACCESS:  8664  HIT:     0  MISS:  8664  HIT %:     0  MISS %:   100  AVERAGE MISS PENALTY: 100
STLB PREFETCH  ACCESS:     0  HIT:     0  MISS:     0  HIT %:     0  MISS %:     0  AVERAGE MISS PENALTY: 0
STLB WRITEBACK ACCESS:     0  HIT:     0  MISS:     0  HIT %:     0  MISS %:     0  AVERAGE MISS PENALTY: 0
STLB PREFETCH  REQUESTED:     0  ISSUED:     0  USEFUL:     0  USELESS:     0
 USEFUL LOAD PREFETCHES:          0 PREFETCH ISSUED TO LOWER LEVEL:          0  ACCURACY: -nan
 TIMELY PREFETCHES:          0 LATE PREFETCHES: 0 DROPPED PREFETCHES: 0
STLB AVERAGE MISS LATENCY: 100 cycles

STLB Set Associative Eviction Count : 0
STLB Priority 0 entries : 0
STLB Inter-Core Interference : 0
L1D TOTAL     ACCESS: 43642324  HIT: 28353232  MISS: 15289092  HIT %: 64.9673  MISS %: 35.0327  AVERAGE MISS PENALTY: 2.40103e+06
L1D LOAD      ACCESS: 29922898  HIT: 19550317  MISS: 10372581  HIT %: 65.3356  MISS %: 34.6644  AVERAGE MISS PENALTY: 3.52138e+06
L1D RFO       ACCESS: 8868875  HIT: 8315212  MISS: 553663  HIT %: 93.7572  MISS %: 6.24276  AVERAGE MISS PENALTY: 327819
L1D PREFETCH  ACCESS: 4850551  HIT: 487703  MISS: 4362848  HIT %: 10.0546  MISS %: 89.9454  AVERAGE MISS PENALTY: 525.378
L1D WRITEBACK ACCESS:     0  HIT:     0  MISS:     0  HIT %:     0  MISS %:     0  AVERAGE MISS PENALTY: 0
L1D PREFETCH  REQUESTED: 5651057  ISSUED: 5600447  USEFUL: 160182  USELESS: 4202742
 USEFUL LOAD PREFETCHES:     160182 PREFETCH ISSUED TO LOWER LEVEL:    5112276  ACCURACY: 3.13328
 TIMELY PREFETCHES:     160182 LATE PREFETCHES: 628757 DROPPED PREFETCHES: 50610
L1D AVERAGE MISS LATENCY: 12248 cycles

L1D Set Associative Eviction Count : 0
L1D Priority 0 entries : 0
L1D Inter-Core Interference : 0
L1I TOTAL     ACCESS: 55625479  HIT: 55625479  MISS:     0  HIT %:   100  MISS %:     0  AVERAGE MISS PENALTY: 0
L1I LOAD      ACCESS: 55625479  HIT: 55625479  MISS:     0  HIT %:   100  MISS %:     0  AVERAGE MISS PENALTY: 0
L1I RFO       ACCESS:     0  HIT:     0  MISS:     0  HIT %:     0  MISS %:     0  AVERAGE MISS PENALTY: 0
L1I PREFETCH  ACCESS:     0  HIT:     0  MISS:     0  HIT %:     0  MISS %:     0  AVERAGE MISS PENALTY: 0
L1I WRITEBACK ACCESS:     0  HIT:     0  MISS:     0  HIT %:     0  MISS %:     0  AVERAGE MISS PENALTY: 0
L1I PREFETCH  REQUESTED:     0  ISSUED:     0  USEFUL:     0  USELESS:     0
 USEFUL LOAD PREFETCHES:          0 PREFETCH ISSUED TO LOWER LEVEL:          0  ACCURACY: -nan
 TIMELY PREFETCHES:          0 LATE PREFETCHES: 0 DROPPED PREFETCHES: 0
L1I AVERAGE MISS LATENCY: -nan cycles

L1I Set Associative Eviction Count : 0
L1I Priority 0 entries : 0
L1I Inter-Core Interference : 0
L2C TOTAL     ACCESS: 23307105  HIT: 6765489  MISS: 16541616  HIT %: 29.0276  MISS %: 70.9724  AVERAGE MISS PENALTY: 4.49072e+06
L2C LOAD      ACCESS: 10370717  HIT: 1412060  MISS: 8958657  HIT %: 13.6158  MISS %: 86.3842  AVERAGE MISS PENALTY: 8.29139e+06
L2C RFO       ACCESS: 553523  HIT: 167732  MISS: 385791  HIT %: 30.3026  MISS %: 69.6974  AVERAGE MISS PENALTY: 393.034
L2C PREFETCH  ACCESS: 7948458  HIT: 751290  MISS: 7197168  HIT %: 9.45202  MISS %: 90.548  AVERAGE MISS PENALTY: 542.552
L2C WRITEBACK ACCESS: 4434407  HIT: 4434407  MISS:     0  HIT %:   100  MISS %:     0  AVERAGE MISS PENALTY: 0
L2C PREFETCH  REQUESTED: 6534204  ISSUED: 6445751  USEFUL: 192624  USELESS: 7005049
 USEFUL LOAD PREFETCHES:     192624 PREFETCH ISSUED TO LOWER LEVEL:    7469841  ACCURACY: 2.57869
 TIMELY PREFETCHES:     192624 LATE PREFETCHES: 225725 DROPPED PREFETCHES: 88453
L2C AVERAGE MISS LATENCY: 440.71 cycles

L2C Set Associative Eviction Count : 0
L2C Priority 0 entries : 0
L2C Inter-Core Interference : 0
LLC0 TOTAL     ACCESS: 2582638  HIT: 630407  MISS: 1952231  HIT %: 24.4094  MISS %: 75.5906  AVERAGE MISS PENALTY: 403.484
LLC0 LOAD      ACCESS: 1117381  HIT: 328353  MISS: 789028  HIT %: 29.3859  MISS %: 70.6141  AVERAGE MISS PENALTY: 444.996
LLC0 RFO       ACCESS: 47270  HIT: 12028  MISS: 35242  HIT %: 25.4453  MISS %: 74.5547  AVERAGE MISS PENALTY: 454.914
LLC0 PREFETCH  ACCESS: 863645  HIT: 122814  MISS: 740831  HIT %: 14.2204  MISS %: 85.7796  AVERAGE MISS PENALTY: 567.671
LLC0 WRITEBACK ACCESS: 554342  HIT: 167212  MISS: 387130  HIT %: 30.1641  MISS %: 69.8359  AVERAGE MISS PENALTY: 0
LLC0 PREFETCH  REQUESTED:     0  ISSUED:     0  USEFUL: 406990  USELESS: 574744
 USEFUL LOAD PREFETCHES:     406990 PREFETCH ISSUED TO LOWER LEVEL:    5934901  ACCURACY: 6.85757
 TIMELY PREFETCHES:     406990 LATE PREFETCHES: 0 DROPPED PREFETCHES: 0
LLC0 AVERAGE MISS LATENCY: 403.484 cycles

LLC0 Set Associative Eviction Count : 0
LLC0 Priority 0 entries : 12288
LLC0 Inter-Core Interference : 5224146
LLC1 TOTAL     ACCESS: 2639856  HIT: 645770  MISS: 1994086  HIT %: 24.4623  MISS %: 75.5377  AVERAGE MISS PENALTY: 410.962
LLC1 LOAD      ACCESS: 1124203  HIT: 330347  MISS: 793856  HIT %: 29.385  MISS %: 70.615  AVERAGE MISS PENALTY: 445.02
LLC1 RFO       ACCESS: 49158  HIT: 13068  MISS: 36090  HIT %: 26.5837  MISS %: 73.4163  AVERAGE MISS PENALTY: 456.238
LLC1 PREFETCH  ACCESS: 912132  HIT: 126491  MISS: 785641  HIT %: 13.8676  MISS %: 86.1324  AVERAGE MISS PENALTY: 572.457
LLC1 WRITEBACK ACCESS: 554363  HIT: 175864  MISS: 378499  HIT %: 31.7236  MISS %: 68.2764  AVERAGE MISS PENALTY: 0
LLC1 PREFETCH  REQUESTED:     0  ISSUED:     0  USEFUL: 395302  USELESS: 591171
 USEFUL LOAD PREFETCHES:     395302 PREFETCH ISSUED TO LOWER LEVEL:    6293140  ACCURACY: 6.28147
 TIMELY PREFETCHES:     395302 LATE PREFETCHES: 0 DROPPED PREFETCHES: 0
LLC1 AVERAGE MISS LATENCY: 410.962 cycles

LLC1 Set Associative Eviction Count : 0
LLC1 Priority 0 entries : 12288
LLC1 Inter-Core Interference : 5265534
LLC2 TOTAL     ACCESS: 2712607  HIT: 680027  MISS: 2032580  HIT %: 25.0691  MISS %: 74.9309  AVERAGE MISS PENALTY: 418.344
LLC2 LOAD      ACCESS: 1154986  HIT: 354646  MISS: 800340  HIT %: 30.7057  MISS %: 69.2943  AVERAGE MISS PENALTY: 455.852
LLC2 RFO       ACCESS: 50188  HIT: 13496  MISS: 36692  HIT %: 26.8909  MISS %: 73.1091  AVERAGE MISS PENALTY: 465.089
LLC2 PREFETCH  ACCESS: 953088  HIT: 130772  MISS: 822316  HIT %: 13.7209  MISS %: 86.2791  AVERAGE MISS PENALTY: 569.631
LLC2 WRITEBACK ACCESS: 554345  HIT: 181113  MISS: 373232  HIT %: 32.6715  MISS %: 67.3285  AVERAGE MISS PENALTY: 0
LLC2 PREFETCH  REQUESTED:     0  ISSUED:     0  USEFUL: 444230  USELESS: 614975
 USEFUL LOAD PREFETCHES:     444230 PREFETCH ISSUED TO LOWER LEVEL:    6589613  ACCURACY: 6.74137
 TIMELY PREFETCHES:     444230 LATE PREFETCHES: 0 DROPPED PREFETCHES: 0
LLC2 AVERAGE MISS LATENCY: 418.344 cycles

LLC2 Set Associative Eviction Count : 0
LLC2 Priority 0 entries : 12287
LLC2 Inter-Core Interference : 5325009
LLC3 TOTAL     ACCESS: 2615449  HIT: 638129  MISS: 1977320  HIT %: 24.3984  MISS %: 75.6016  AVERAGE MISS PENALTY: 420.523
LLC3 LOAD      ACCESS: 1094697  HIT: 312829  MISS: 781868  HIT %: 28.5768  MISS %: 71.4232  AVERAGE MISS PENALTY: 454.172
LLC3 RFO       ACCESS: 47813  HIT: 13176  MISS: 34637  HIT %: 27.5574  MISS %: 72.4426  AVERAGE MISS PENALTY: 474.163
LLC3 PREFETCH  ACCESS: 918579  HIT: 133818  MISS: 784761  HIT %: 14.5679  MISS %: 85.4321  AVERAGE MISS PENALTY: 586.142
LLC3 WRITEBACK ACCESS: 554360  HIT: 178306  MISS: 376054  HIT %: 32.1643  MISS %: 67.8357  AVERAGE MISS PENALTY: 0
LLC3 PREFETCH  REQUESTED:     0  ISSUED:     0  USEFUL: 434450  USELESS: 649255
 USEFUL LOAD PREFETCHES:     434450 PREFETCH ISSUED TO LOWER LEVEL:    6278796  ACCURACY: 6.91932
 TIMELY PREFETCHES:     434450 LATE PREFETCHES: 0 DROPPED PREFETCHES: 0
LLC3 AVERAGE MISS LATENCY: 420.523 cycles

LLC3 Set Associative Eviction Count : 0
LLC3 Priority 0 entries : 12288
LLC3 Inter-Core Interference : 5305165
LLC4 TOTAL     ACCESS: 2617056  HIT: 644057  MISS: 1972999  HIT %: 24.61  MISS %: 75.39  AVERAGE MISS PENALTY: 413.766
LLC4 LOAD      ACCESS: 1104274  HIT: 323167  MISS: 781107  HIT %: 29.2651  MISS %: 70.7349  AVERAGE MISS PENALTY: 444.698
LLC4 RFO       ACCESS: 47626  HIT: 12886  MISS: 34740  HIT %: 27.0566  MISS %: 72.9434  AVERAGE MISS PENALTY: 465.719
LLC4 PREFETCH  ACCESS: 910783  HIT: 130247  MISS: 780536  HIT %: 14.3006  MISS %: 85.6994  AVERAGE MISS PENALTY: 580.145
LLC4 WRITEBACK ACCESS: 554373  HIT: 177757  MISS: 376616  HIT %: 32.0645  MISS %: 67.9355  AVERAGE MISS PENALTY: 0
LLC4 PREFETCH  REQUESTED:     0  ISSUED:     0  USEFUL: 428787  USELESS: 631408
 USEFUL LOAD PREFETCHES:     428787 PREFETCH ISSUED TO LOWER LEVEL:    6252772  ACCURACY: 6.85755
 TIMELY PREFETCHES:     428787 LATE PREFETCHES: 0 DROPPED PREFETCHES: 0
LLC4 AVERAGE MISS LATENCY: 413.766 cycles

LLC4 Set Associative Eviction Count : 0
LLC4 Priority 0 entries : 12288
LLC4 Inter-Core Interference : 5286554
LLC5 TOTAL     ACCESS: 2602691  HIT: 637418  MISS: 1965273  HIT %: 24.4907  MISS %: 75.5093  AVERAGE MISS PENALTY: 411.332
LLC5 LOAD      ACCESS: 1098901  HIT: 318881  MISS: 780020  HIT %: 29.0182  MISS %: 70.9818  AVERAGE MISS PENALTY: 442.826
LLC5 RFO       ACCESS: 47770  HIT: 13061  MISS: 34709  HIT %: 27.3414  MISS %: 72.6586  AVERAGE MISS PENALTY: 462.383
LLC5 PREFETCH  ACCESS: 901647  HIT: 126830  MISS: 774817  HIT %: 14.0665  MISS %: 85.9335  AVERAGE MISS PENALTY: 576.804
LLC5 WRITEBACK ACCESS: 554373  HIT: 178646  MISS: 375727  HIT %: 32.2249  MISS %: 67.7751  AVERAGE MISS PENALTY: 0
LLC5 PREFETCH  REQUESTED:     0  ISSUED:     0  USEFUL: 430798  USELESS: 611579
 USEFUL LOAD PREFETCHES:     430798 PREFETCH ISSUED TO LOWER LEVEL:    6213308  ACCURACY: 6.93347
 TIMELY PREFETCHES:     430798 LATE PREFETCHES: 0 DROPPED PREFETCHES: 0
LLC5 AVERAGE MISS LATENCY: 411.332 cycles

LLC5 Set Associative Eviction Count : 0
LLC5 Priority 0 entries : 12288
LLC5 Inter-Core Interference : 5266690
LLC6 TOTAL     ACCESS: 2597321  HIT: 630937  MISS: 1966384  HIT %: 24.2918  MISS %: 75.7082  AVERAGE MISS PENALTY: 420.238
LLC6 LOAD      ACCESS: 1094133  HIT: 315496  MISS: 778637  HIT %: 28.8353  MISS %: 71.1647  AVERAGE MISS PENALTY: 455.291
LLC6 RFO       ACCESS: 47769  HIT: 13042  MISS: 34727  HIT %: 27.3022  MISS %: 72.6978  AVERAGE MISS PENALTY: 470.472
LLC6 PREFETCH  ACCESS: 901037  HIT: 123687  MISS: 777350  HIT %: 13.7272  MISS %: 86.2728  AVERAGE MISS PENALTY: 585.971
LLC6 WRITEBACK ACCESS: 554382  HIT: 178712  MISS: 375670  HIT %: 32.2363  MISS %: 67.7637  AVERAGE MISS PENALTY: 0
LLC6 PREFETCH  REQUESTED:     0  ISSUED:     0  USEFUL: 430250  USELESS: 611752
 USEFUL LOAD PREFETCHES:     430250 PREFETCH ISSUED TO LOWER LEVEL:    6220402  ACCURACY: 6.91676
 TIMELY PREFETCHES:     430250 LATE PREFETCHES: 0 DROPPED PREFETCHES: 0
LLC6 AVERAGE MISS LATENCY: 420.238 cycles

LLC6 Set Associative Eviction Count : 0
LLC6 Priority 0 entries : 12288
LLC6 Inter-Core Interference : 5260835
LLC7 TOTAL     ACCESS: 2608894  HIT: 648632  MISS: 1960262  HIT %: 24.8623  MISS %: 75.1377  AVERAGE MISS PENALTY: 417.484
LLC7 LOAD      ACCESS: 1123226  HIT: 334779  MISS: 788447  HIT %: 29.8051  MISS %: 70.1949  AVERAGE MISS PENALTY: 453.34
LLC7 RFO       ACCESS: 48197  HIT: 13322  MISS: 34875  HIT %: 27.6407  MISS %: 72.3593  AVERAGE MISS PENALTY: 472.206
LLC7 PREFETCH  ACCESS: 883113  HIT: 121921  MISS: 761192  HIT %: 13.8058  MISS %: 86.1942  AVERAGE MISS PENALTY: 583.919
LLC7 WRITEBACK ACCESS: 554358  HIT: 178610  MISS: 375748  HIT %: 32.2193  MISS %: 67.7807  AVERAGE MISS PENALTY: 0
LLC7 PREFETCH  REQUESTED:     0  ISSUED:     0  USEFUL: 423061  USELESS: 600130
 USEFUL LOAD PREFETCHES:     423061 PREFETCH ISSUED TO LOWER LEVEL:    6090943  ACCURACY: 6.94574
 TIMELY PREFETCHES:     423061 LATE PREFETCHES: 0 DROPPED PREFETCHES: 0
LLC7 AVERAGE MISS LATENCY: 417.484 cycles

LLC7 Set Associative Eviction Count : 0
LLC7 Priority 0 entries : 12288
LLC7 Inter-Core Interference : 5287432
ROI Average ROB Stall Cycles:	82.4003
ROI Total ROB Stalls Cycles:	2035335847
ROI TOTAL ROB counter      :	24700597
ROI Average Load ROB Stall Cycles:	252.073
ROI Total Load ROB Stalls Cycle  :	1790823253
ROI Total Load ROB stalls Counter:	7104397
Major fault: 0 Minor fault: 159472








Interconnect Stats 
LINK 0 BW : 0LINK 1 BW : 0LINK 2 BW : 0LINK 3 BW : 0LINK 4 BW : 0LINK 5 BW : 0LINK 6 BW : 0LINK 7 BW : 0
DRAM Statistics
 CHANNEL 0
 RQ ROW_BUFFER_HIT: 6008399  ROW_BUFFER_MISS: 45401914
 DBUS_CONGESTED: 57845305
 WQ ROW_BUFFER_HIT: 754970  ROW_BUFFER_MISS: 17031797  FULL:     0

 CHANNEL 1
 RQ ROW_BUFFER_HIT: 5936961  ROW_BUFFER_MISS: 45293001
 DBUS_CONGESTED: 57845305
 WQ ROW_BUFFER_HIT: 770940  ROW_BUFFER_MISS: 17016426  FULL:     0

 AVG_CONGESTED_CYCLE: 6
DRAM PAGES: 2097152
Allocated PAGES: 1275862
L2C destructor called
L1D destructor called
L1I destructor called
STLB destructor called
DTLB destructor called
ITLB destructor called
L2C destructor called
L1D destructor called
L1I destructor called
STLB destructor called
DTLB destructor called
ITLB destructor called
L2C destructor called
L1D destructor called
L1I destructor called
STLB destructor called
DTLB destructor called
ITLB destructor called
L2C destructor called
L1D destructor called
L1I destructor called
STLB destructor called
DTLB destructor called
ITLB destructor called
L2C destructor called
L1D destructor called
L1I destructor called
STLB destructor called
DTLB destructor called
ITLB destructor called
L2C destructor called
L1D destructor called
L1I destructor called
STLB destructor called
DTLB destructor called
ITLB destructor called
L2C destructor called
L1D destructor called
L1I destructor called
STLB destructor called
DTLB destructor called
ITLB destructor called
L2C destructor called
L1D destructor called
L1I destructor called
STLB destructor called
DTLB destructor called
ITLB destructor called
