
*** ChampSim Multicore Out-of-Order Simulator ***

Warmup Instructions: 200000000
Simulation Instructions: 200000000
Number of CPUs: 8
threads:1

L1I Configuration:
L1I_SET:64
L1I_WAY:8
L1I_RQ_SIZE:64
L1I_WQ_SIZE:64
L1I_PQ_SIZE:8
L1I_MSHR_SIZE:8

L1D Configuration:
L1D_SET:64
L1D_WAY:12
L1D_RQ_SIZE:64
L1D_WQ_SIZE:64
L1D_PQ_SIZE:8
L1D_MSHR_SIZE:16

L2C Configuration:
L2C_SET:1024
L2C_WAY:8
L2C_RQ_SIZE:32
L2C_WQ_SIZE:32
L2C_PQ_SIZE:16
L2C_MSHR_SIZE:32

LLC Configuration:
LLC_SET:2048
LLC_WAY:12
LLC SLICES:8
LLC_RQ_SIZE:64
LLC_WQ_SIZE:64
LLC_PQ_SIZE:32
LLC_MSHR_SIZE:64

Interconnect OFF
Attacker deprioritize is: OFF
Off-chip DRAM Size: 8192 MB Channels: 2 Width: 64-bit Data Rate: 3200 MT/s
PAGE SIZE in KB: 4.000000 
PAGE SIZE in MB: 0.003906 
PAGE offset in bits: 12 
CEASER-S_LLC:0
MIRAGE : 1
CEASER_LATENCY:3
REMAP : OFF
Partitions : 1
Multi-Step : OFF
BFS : OFF

CPU 0 runs /home/anubhav/spec_2017/607.cactuBSSN_s-2421B.champsimtrace.xz
CPU 1 runs /home/anubhav/spec_2017/607.cactuBSSN_s-2421B.champsimtrace.xz
CPU 2 runs /home/anubhav/spec_2017/607.cactuBSSN_s-2421B.champsimtrace.xz
CPU 3 runs /home/anubhav/spec_2017/607.cactuBSSN_s-2421B.champsimtrace.xz
CPU 4 runs /home/anubhav/spec_2017/607.cactuBSSN_s-2421B.champsimtrace.xz
CPU 5 runs /home/anubhav/spec_2017/607.cactuBSSN_s-2421B.champsimtrace.xz
CPU 6 runs /home/anubhav/spec_2017/607.cactuBSSN_s-2421B.champsimtrace.xz
CPU 7 runs /home/anubhav/spec_2017/607.cactuBSSN_s-2421B.champsimtrace.xz
CPU 0 Bimodal branch predictor
Initialize Hawkeye state
Initialize Hawkeye state
Initialize Hawkeye state
Initialize Hawkeye state
Initialize Hawkeye state
Initialize Hawkeye state
Initialize Hawkeye state
Initialize Hawkeye state
CPU 1 Bimodal branch predictor
Initialize Hawkeye state
Initialize Hawkeye state
Initialize Hawkeye state
Initialize Hawkeye state
Initialize Hawkeye state
Initialize Hawkeye state
Initialize Hawkeye state
Initialize Hawkeye state
CPU 2 Bimodal branch predictor
Initialize Hawkeye state
Initialize Hawkeye state
Initialize Hawkeye state
Initialize Hawkeye state
Initialize Hawkeye state
Initialize Hawkeye state
Initialize Hawkeye state
Initialize Hawkeye state
CPU 3 Bimodal branch predictor
Initialize Hawkeye state
Initialize Hawkeye state
Initialize Hawkeye state
Initialize Hawkeye state
Initialize Hawkeye state
Initialize Hawkeye state
Initialize Hawkeye state
Initialize Hawkeye state
CPU 4 Bimodal branch predictor
Initialize Hawkeye state
Initialize Hawkeye state
Initialize Hawkeye state
Initialize Hawkeye state
Initialize Hawkeye state
Initialize Hawkeye state
Initialize Hawkeye state
Initialize Hawkeye state
CPU 5 Bimodal branch predictor
Initialize Hawkeye state
Initialize Hawkeye state
Initialize Hawkeye state
Initialize Hawkeye state
Initialize Hawkeye state
Initialize Hawkeye state
Initialize Hawkeye state
Initialize Hawkeye state
CPU 6 Bimodal branch predictor
Initialize Hawkeye state
Initialize Hawkeye state
Initialize Hawkeye state
Initialize Hawkeye state
Initialize Hawkeye state
Initialize Hawkeye state
Initialize Hawkeye state
Initialize Hawkeye state
CPU 7 Bimodal branch predictor
Initialize Hawkeye state
Initialize Hawkeye state
Initialize Hawkeye state
Initialize Hawkeye state
Initialize Hawkeye state
Initialize Hawkeye state
Initialize Hawkeye state
Initialize Hawkeye state
Heartbeat CPU 3 instructions: 10000001 cycles: 5479188 heartbeat IPC: 1.82509 cumulative IPC: 1.82509 (Simulation time: 1 hr 5 min 13 sec) 
 Total Blocks : 196608 Invalid Blocks : 99796 Valid Blocks : 96812
 Total Tags : 491520 Threshold : 12288 Invalid Tags : 296416 Pr0 Tags : 98292 Pr1 Tags : 96812 num_pr0 : 12286
 SAE Count : 0
 Inter-Core Inteference in Data Store : 31870
Heartbeat CPU 6 instructions: 10000001 cycles: 5479402 heartbeat IPC: 1.82502 cumulative IPC: 1.82502 (Simulation time: 1 hr 5 min 14 sec) 
 Total Blocks : 196608 Invalid Blocks : 99796 Valid Blocks : 96812
 Total Tags : 491520 Threshold : 12288 Invalid Tags : 296416 Pr0 Tags : 98292 Pr1 Tags : 96812 num_pr0 : 12286
 SAE Count : 0
 Inter-Core Inteference in Data Store : 31870
Heartbeat CPU 7 instructions: 10000001 cycles: 5479470 heartbeat IPC: 1.82499 cumulative IPC: 1.82499 (Simulation time: 1 hr 5 min 14 sec) 
 Total Blocks : 196608 Invalid Blocks : 99796 Valid Blocks : 96812
 Total Tags : 491520 Threshold : 12288 Invalid Tags : 296416 Pr0 Tags : 98292 Pr1 Tags : 96812 num_pr0 : 12286
 SAE Count : 0
 Inter-Core Inteference in Data Store : 31870
Heartbeat CPU 5 instructions: 10000001 cycles: 5479681 heartbeat IPC: 1.82492 cumulative IPC: 1.82492 (Simulation time: 1 hr 5 min 14 sec) 
 Total Blocks : 196608 Invalid Blocks : 99796 Valid Blocks : 96812
 Total Tags : 491520 Threshold : 12288 Invalid Tags : 296416 Pr0 Tags : 98292 Pr1 Tags : 96812 num_pr0 : 12286
 SAE Count : 0
 Inter-Core Inteference in Data Store : 31870
Heartbeat CPU 1 instructions: 10000001 cycles: 5479740 heartbeat IPC: 1.8249 cumulative IPC: 1.8249 (Simulation time: 1 hr 5 min 14 sec) 
 Total Blocks : 196608 Invalid Blocks : 99794 Valid Blocks : 96814
 Total Tags : 491520 Threshold : 12288 Invalid Tags : 296415 Pr0 Tags : 98291 Pr1 Tags : 96814 num_pr0 : 12285
 SAE Count : 0
 Inter-Core Inteference in Data Store : 31872
Heartbeat CPU 0 instructions: 10000001 cycles: 5479985 heartbeat IPC: 1.82482 cumulative IPC: 1.82482 (Simulation time: 1 hr 5 min 14 sec) 
 Total Blocks : 196608 Invalid Blocks : 99792 Valid Blocks : 96816
 Total Tags : 491520 Threshold : 12288 Invalid Tags : 296415 Pr0 Tags : 98289 Pr1 Tags : 96816 num_pr0 : 12285
 SAE Count : 0
 Inter-Core Inteference in Data Store : 31877
Heartbeat CPU 2 instructions: 10000001 cycles: 5480057 heartbeat IPC: 1.8248 cumulative IPC: 1.8248 (Simulation time: 1 hr 5 min 14 sec) 
 Total Blocks : 196608 Invalid Blocks : 99790 Valid Blocks : 96818
 Total Tags : 491520 Threshold : 12288 Invalid Tags : 296415 Pr0 Tags : 98287 Pr1 Tags : 96818 num_pr0 : 12285
 SAE Count : 0
 Inter-Core Inteference in Data Store : 31879
Heartbeat CPU 4 instructions: 10000001 cycles: 5480073 heartbeat IPC: 1.82479 cumulative IPC: 1.82479 (Simulation time: 1 hr 5 min 14 sec) 
 Total Blocks : 196608 Invalid Blocks : 99790 Valid Blocks : 96818
 Total Tags : 491520 Threshold : 12288 Invalid Tags : 296415 Pr0 Tags : 98287 Pr1 Tags : 96818 num_pr0 : 12285
 SAE Count : 0
 Inter-Core Inteference in Data Store : 31879
Heartbeat CPU 3 instructions: 20000000 cycles: 10967981 heartbeat IPC: 1.82189 cumulative IPC: 1.82349 (Simulation time: 2 hr 6 min 2 sec) 
 Total Blocks : 196608 Invalid Blocks : 50966 Valid Blocks : 145642
 Total Tags : 491520 Threshold : 12288 Invalid Tags : 247589 Pr0 Tags : 98289 Pr1 Tags : 145642 num_pr0 : 12286
 SAE Count : 0
 Inter-Core Inteference in Data Store : 104988
Heartbeat CPU 7 instructions: 20000000 cycles: 10968229 heartbeat IPC: 1.82191 cumulative IPC: 1.82345 (Simulation time: 2 hr 6 min 2 sec) 
 Total Blocks : 196608 Invalid Blocks : 50963 Valid Blocks : 145645
 Total Tags : 491520 Threshold : 12288 Invalid Tags : 247588 Pr0 Tags : 98287 Pr1 Tags : 145645 num_pr0 : 12286
 SAE Count : 0
 Inter-Core Inteference in Data Store : 104989
Heartbeat CPU 6 instructions: 20000000 cycles: 10968234 heartbeat IPC: 1.82188 cumulative IPC: 1.82345 (Simulation time: 2 hr 6 min 2 sec) 
 Total Blocks : 196608 Invalid Blocks : 50963 Valid Blocks : 145645
 Total Tags : 491520 Threshold : 12288 Invalid Tags : 247588 Pr0 Tags : 98287 Pr1 Tags : 145645 num_pr0 : 12286
 SAE Count : 0
 Inter-Core Inteference in Data Store : 104989
Heartbeat CPU 5 instructions: 20000000 cycles: 10968403 heartbeat IPC: 1.82192 cumulative IPC: 1.82342 (Simulation time: 2 hr 6 min 3 sec) 
 Total Blocks : 196608 Invalid Blocks : 50962 Valid Blocks : 145646
 Total Tags : 491520 Threshold : 12288 Invalid Tags : 247586 Pr0 Tags : 98288 Pr1 Tags : 145646 num_pr0 : 12286
 SAE Count : 0
 Inter-Core Inteference in Data Store : 104989
Heartbeat CPU 1 instructions: 20000000 cycles: 10968689 heartbeat IPC: 1.82184 cumulative IPC: 1.82337 (Simulation time: 2 hr 6 min 3 sec) 
 Total Blocks : 196608 Invalid Blocks : 50960 Valid Blocks : 145648
 Total Tags : 491520 Threshold : 12288 Invalid Tags : 247584 Pr0 Tags : 98288 Pr1 Tags : 145648 num_pr0 : 12286
 SAE Count : 0
 Inter-Core Inteference in Data Store : 104996
Heartbeat CPU 2 instructions: 20000000 cycles: 10968772 heartbeat IPC: 1.82192 cumulative IPC: 1.82336 (Simulation time: 2 hr 6 min 3 sec) 
 Total Blocks : 196608 Invalid Blocks : 50960 Valid Blocks : 145648
 Total Tags : 491520 Threshold : 12288 Invalid Tags : 247585 Pr0 Tags : 98287 Pr1 Tags : 145648 num_pr0 : 12286
 SAE Count : 0
 Inter-Core Inteference in Data Store : 104999
Heartbeat CPU 4 instructions: 20000000 cycles: 10968934 heartbeat IPC: 1.82187 cumulative IPC: 1.82333 (Simulation time: 2 hr 6 min 3 sec) 
 Total Blocks : 196608 Invalid Blocks : 50958 Valid Blocks : 145650
 Total Tags : 491520 Threshold : 12288 Invalid Tags : 247584 Pr0 Tags : 98286 Pr1 Tags : 145650 num_pr0 : 12285
 SAE Count : 0
 Inter-Core Inteference in Data Store : 105001
Heartbeat CPU 0 instructions: 20000000 cycles: 10969034 heartbeat IPC: 1.82181 cumulative IPC: 1.82331 (Simulation time: 2 hr 6 min 3 sec) 
 Total Blocks : 196608 Invalid Blocks : 50958 Valid Blocks : 145650
 Total Tags : 491520 Threshold : 12288 Invalid Tags : 247584 Pr0 Tags : 98286 Pr1 Tags : 145650 num_pr0 : 12285
 SAE Count : 0
 Inter-Core Inteference in Data Store : 105002
Heartbeat CPU 7 instructions: 30000001 cycles: 16446492 heartbeat IPC: 1.8254 cumulative IPC: 1.8241 (Simulation time: 3 hr 4 min 47 sec) 
 Total Blocks : 196608 Invalid Blocks : 26942 Valid Blocks : 169666
 Total Tags : 491520 Threshold : 12288 Invalid Tags : 223553 Pr0 Tags : 98301 Pr1 Tags : 169666 num_pr0 : 12287
 SAE Count : 0
 Inter-Core Inteference in Data Store : 192370
Heartbeat CPU 3 instructions: 30000001 cycles: 16446522 heartbeat IPC: 1.8253 cumulative IPC: 1.82409 (Simulation time: 3 hr 4 min 47 sec) 
 Total Blocks : 196608 Invalid Blocks : 26941 Valid Blocks : 169667
 Total Tags : 491520 Threshold : 12288 Invalid Tags : 223553 Pr0 Tags : 98300 Pr1 Tags : 169667 num_pr0 : 12288
 SAE Count : 0
 Inter-Core Inteference in Data Store : 192371
Heartbeat CPU 6 instructions: 30000001 cycles: 16446559 heartbeat IPC: 1.82538 cumulative IPC: 1.82409 (Simulation time: 3 hr 4 min 47 sec) 
 Total Blocks : 196608 Invalid Blocks : 26941 Valid Blocks : 169667
 Total Tags : 491520 Threshold : 12288 Invalid Tags : 223554 Pr0 Tags : 98299 Pr1 Tags : 169667 num_pr0 : 12288
 SAE Count : 0
 Inter-Core Inteference in Data Store : 192373
Heartbeat CPU 1 instructions: 30000001 cycles: 16446974 heartbeat IPC: 1.82539 cumulative IPC: 1.82404 (Simulation time: 3 hr 4 min 47 sec) 
 Total Blocks : 196608 Invalid Blocks : 26939 Valid Blocks : 169669
 Total Tags : 491520 Threshold : 12288 Invalid Tags : 223550 Pr0 Tags : 98301 Pr1 Tags : 169669 num_pr0 : 12288
 SAE Count : 0
 Inter-Core Inteference in Data Store : 192382
Heartbeat CPU 5 instructions: 30000001 cycles: 16447095 heartbeat IPC: 1.82525 cumulative IPC: 1.82403 (Simulation time: 3 hr 4 min 48 sec) 
 Total Blocks : 196608 Invalid Blocks : 26939 Valid Blocks : 169669
 Total Tags : 491520 Threshold : 12288 Invalid Tags : 223549 Pr0 Tags : 98302 Pr1 Tags : 169669 num_pr0 : 12288
 SAE Count : 0
 Inter-Core Inteference in Data Store : 192383
Heartbeat CPU 4 instructions: 30000001 cycles: 16447310 heartbeat IPC: 1.82536 cumulative IPC: 1.82401 (Simulation time: 3 hr 4 min 48 sec) 
 Total Blocks : 196608 Invalid Blocks : 26939 Valid Blocks : 169669
 Total Tags : 491520 Threshold : 12288 Invalid Tags : 223549 Pr0 Tags : 98302 Pr1 Tags : 169669 num_pr0 : 12288
 SAE Count : 0
 Inter-Core Inteference in Data Store : 192384
Heartbeat CPU 2 instructions: 30000001 cycles: 16447594 heartbeat IPC: 1.82521 cumulative IPC: 1.82398 (Simulation time: 3 hr 4 min 48 sec) 
 Total Blocks : 196608 Invalid Blocks : 26939 Valid Blocks : 169669
 Total Tags : 491520 Threshold : 12288 Invalid Tags : 223548 Pr0 Tags : 98303 Pr1 Tags : 169669 num_pr0 : 12288
 SAE Count : 0
 Inter-Core Inteference in Data Store : 192391
Heartbeat CPU 0 instructions: 30000001 cycles: 16447757 heartbeat IPC: 1.82524 cumulative IPC: 1.82396 (Simulation time: 3 hr 4 min 48 sec) 
 Total Blocks : 196608 Invalid Blocks : 26939 Valid Blocks : 169669
 Total Tags : 491520 Threshold : 12288 Invalid Tags : 223548 Pr0 Tags : 98303 Pr1 Tags : 169669 num_pr0 : 12288
 SAE Count : 0
 Inter-Core Inteference in Data Store : 192393
Heartbeat CPU 3 instructions: 40000000 cycles: 21925536 heartbeat IPC: 1.82515 cumulative IPC: 1.82436 (Simulation time: 3 hr 59 min 7 sec) 
 Total Blocks : 196608 Invalid Blocks : 14359 Valid Blocks : 182249
 Total Tags : 491520 Threshold : 12288 Invalid Tags : 210971 Pr0 Tags : 98300 Pr1 Tags : 182249 num_pr0 : 12288
 SAE Count : 0
 Inter-Core Inteference in Data Store : 289470
Heartbeat CPU 7 instructions: 40000000 cycles: 21925596 heartbeat IPC: 1.82512 cumulative IPC: 1.82435 (Simulation time: 3 hr 59 min 7 sec) 
 Total Blocks : 196608 Invalid Blocks : 14359 Valid Blocks : 182249
 Total Tags : 491520 Threshold : 12288 Invalid Tags : 210971 Pr0 Tags : 98300 Pr1 Tags : 182249 num_pr0 : 12288
 SAE Count : 0
 Inter-Core Inteference in Data Store : 289471
Heartbeat CPU 6 instructions: 40000000 cycles: 21925664 heartbeat IPC: 1.82512 cumulative IPC: 1.82435 (Simulation time: 3 hr 59 min 7 sec) 
 Total Blocks : 196608 Invalid Blocks : 14359 Valid Blocks : 182249
 Total Tags : 491520 Threshold : 12288 Invalid Tags : 210971 Pr0 Tags : 98300 Pr1 Tags : 182249 num_pr0 : 12288
 SAE Count : 0
 Inter-Core Inteference in Data Store : 289471
Heartbeat CPU 1 instructions: 40000000 cycles: 21926092 heartbeat IPC: 1.82511 cumulative IPC: 1.82431 (Simulation time: 3 hr 59 min 7 sec) 
 Total Blocks : 196608 Invalid Blocks : 14358 Valid Blocks : 182250
 Total Tags : 491520 Threshold : 12288 Invalid Tags : 210969 Pr0 Tags : 98301 Pr1 Tags : 182250 num_pr0 : 12288
 SAE Count : 0
 Inter-Core Inteference in Data Store : 289477
Heartbeat CPU 5 instructions: 40000000 cycles: 21926295 heartbeat IPC: 1.82508 cumulative IPC: 1.82429 (Simulation time: 3 hr 59 min 8 sec) 
 Total Blocks : 196608 Invalid Blocks : 14358 Valid Blocks : 182250
 Total Tags : 491520 Threshold : 12288 Invalid Tags : 210968 Pr0 Tags : 98302 Pr1 Tags : 182250 num_pr0 : 12288
 SAE Count : 0
 Inter-Core Inteference in Data Store : 289479
Heartbeat CPU 4 instructions: 40000000 cycles: 21926515 heartbeat IPC: 1.82508 cumulative IPC: 1.82428 (Simulation time: 3 hr 59 min 8 sec) 
 Total Blocks : 196608 Invalid Blocks : 14357 Valid Blocks : 182251
 Total Tags : 491520 Threshold : 12288 Invalid Tags : 210968 Pr0 Tags : 98301 Pr1 Tags : 182251 num_pr0 : 12288
 SAE Count : 0
 Inter-Core Inteference in Data Store : 289491
Heartbeat CPU 2 instructions: 40000000 cycles: 21926794 heartbeat IPC: 1.82508 cumulative IPC: 1.82425 (Simulation time: 3 hr 59 min 8 sec) 
 Total Blocks : 196608 Invalid Blocks : 14354 Valid Blocks : 182254
 Total Tags : 491520 Threshold : 12288 Invalid Tags : 210965 Pr0 Tags : 98301 Pr1 Tags : 182254 num_pr0 : 12287
 SAE Count : 0
 Inter-Core Inteference in Data Store : 289497
Heartbeat CPU 0 instructions: 40000000 cycles: 21926913 heartbeat IPC: 1.8251 cumulative IPC: 1.82424 (Simulation time: 3 hr 59 min 8 sec) 
 Total Blocks : 196608 Invalid Blocks : 14354 Valid Blocks : 182254
 Total Tags : 491520 Threshold : 12288 Invalid Tags : 210966 Pr0 Tags : 98300 Pr1 Tags : 182254 num_pr0 : 12287
 SAE Count : 0
 Inter-Core Inteference in Data Store : 289500
FILL
Heartbeat CPU 3 instructions: 50000003 cycles: 27404529 heartbeat IPC: 1.82515 cumulative IPC: 1.82452 (Simulation time: 4 hr 50 min 56 sec) 
 Total Blocks : 196608 Invalid Blocks : 7625 Valid Blocks : 188983
 Total Tags : 491520 Threshold : 12288 Invalid Tags : 204234 Pr0 Tags : 98303 Pr1 Tags : 188983 num_pr0 : 12287
 SAE Count : 0
 Inter-Core Inteference in Data Store : 391335
Heartbeat CPU 7 instructions: 50000003 cycles: 27404922 heartbeat IPC: 1.82504 cumulative IPC: 1.82449 (Simulation time: 4 hr 50 min 57 sec) 
 Total Blocks : 196608 Invalid Blocks : 7625 Valid Blocks : 188983
 Total Tags : 491520 Threshold : 12288 Invalid Tags : 204236 Pr0 Tags : 98301 Pr1 Tags : 188983 num_pr0 : 12287
 SAE Count : 0
 Inter-Core Inteference in Data Store : 391341
Heartbeat CPU 6 instructions: 50000003 cycles: 27405151 heartbeat IPC: 1.82499 cumulative IPC: 1.82447 (Simulation time: 4 hr 50 min 57 sec) 
 Total Blocks : 196608 Invalid Blocks : 7625 Valid Blocks : 188983
 Total Tags : 491520 Threshold : 12288 Invalid Tags : 204237 Pr0 Tags : 98300 Pr1 Tags : 188983 num_pr0 : 12287
 SAE Count : 0
 Inter-Core Inteference in Data Store : 391345
Heartbeat CPU 1 instructions: 50000003 cycles: 27405526 heartbeat IPC: 1.82501 cumulative IPC: 1.82445 (Simulation time: 4 hr 50 min 57 sec) 
 Total Blocks : 196608 Invalid Blocks : 7625 Valid Blocks : 188983
 Total Tags : 491520 Threshold : 12288 Invalid Tags : 204237 Pr0 Tags : 98300 Pr1 Tags : 188983 num_pr0 : 12287
 SAE Count : 0
 Inter-Core Inteference in Data Store : 391351
Heartbeat CPU 4 instructions: 50000003 cycles: 27405907 heartbeat IPC: 1.82502 cumulative IPC: 1.82442 (Simulation time: 4 hr 50 min 57 sec) 
 Total Blocks : 196608 Invalid Blocks : 7625 Valid Blocks : 188983
 Total Tags : 491520 Threshold : 12288 Invalid Tags : 204235 Pr0 Tags : 98302 Pr1 Tags : 188983 num_pr0 : 12288
 SAE Count : 0
 Inter-Core Inteference in Data Store : 391355
Heartbeat CPU 5 instructions: 50000003 cycles: 27405978 heartbeat IPC: 1.82492 cumulative IPC: 1.82442 (Simulation time: 4 hr 50 min 57 sec) 
 Total Blocks : 196608 Invalid Blocks : 7625 Valid Blocks : 188983
 Total Tags : 491520 Threshold : 12288 Invalid Tags : 204235 Pr0 Tags : 98302 Pr1 Tags : 188983 num_pr0 : 12288
 SAE Count : 0
 Inter-Core Inteference in Data Store : 391355
Heartbeat CPU 2 instructions: 50000003 cycles: 27406204 heartbeat IPC: 1.82501 cumulative IPC: 1.8244 (Simulation time: 4 hr 50 min 57 sec) 
 Total Blocks : 196608 Invalid Blocks : 7625 Valid Blocks : 188983
 Total Tags : 491520 Threshold : 12288 Invalid Tags : 204235 Pr0 Tags : 98302 Pr1 Tags : 188983 num_pr0 : 12288
 SAE Count : 0
 Inter-Core Inteference in Data Store : 391357
Heartbeat CPU 0 instructions: 50000003 cycles: 27406570 heartbeat IPC: 1.82493 cumulative IPC: 1.82438 (Simulation time: 4 hr 50 min 58 sec) 
 Total Blocks : 196608 Invalid Blocks : 7624 Valid Blocks : 188984
 Total Tags : 491520 Threshold : 12288 Invalid Tags : 204237 Pr0 Tags : 98299 Pr1 Tags : 188984 num_pr0 : 12287
 SAE Count : 0
 Inter-Core Inteference in Data Store : 391364
Heartbeat CPU 3 instructions: 60000003 cycles: 31640561 heartbeat IPC: 2.3607 cumulative IPC: 1.8963 (Simulation time: 5 hr 40 min 48 sec) 
 Total Blocks : 196608 Invalid Blocks : 3679 Valid Blocks : 192929
 Total Tags : 491520 Threshold : 12288 Invalid Tags : 200287 Pr0 Tags : 98304 Pr1 Tags : 192929 num_pr0 : 12288
 SAE Count : 0
 Inter-Core Inteference in Data Store : 512029
Heartbeat CPU 7 instructions: 60000003 cycles: 31640818 heartbeat IPC: 2.36078 cumulative IPC: 1.89628 (Simulation time: 5 hr 40 min 48 sec) 
 Total Blocks : 196608 Invalid Blocks : 3679 Valid Blocks : 192929
 Total Tags : 491520 Threshold : 12288 Invalid Tags : 200287 Pr0 Tags : 98304 Pr1 Tags : 192929 num_pr0 : 12288
 SAE Count : 0
 Inter-Core Inteference in Data Store : 512032
Heartbeat CPU 5 instructions: 60000003 cycles: 31641370 heartbeat IPC: 2.36106 cumulative IPC: 1.89625 (Simulation time: 5 hr 40 min 48 sec) 
 Total Blocks : 196608 Invalid Blocks : 3679 Valid Blocks : 192929
 Total Tags : 491520 Threshold : 12288 Invalid Tags : 200287 Pr0 Tags : 98304 Pr1 Tags : 192929 num_pr0 : 12288
 SAE Count : 0
 Inter-Core Inteference in Data Store : 512040
Heartbeat CPU 1 instructions: 60000003 cycles: 31641522 heartbeat IPC: 2.36072 cumulative IPC: 1.89624 (Simulation time: 5 hr 40 min 48 sec) 
 Total Blocks : 196608 Invalid Blocks : 3679 Valid Blocks : 192929
 Total Tags : 491520 Threshold : 12288 Invalid Tags : 200287 Pr0 Tags : 98304 Pr1 Tags : 192929 num_pr0 : 12288
 SAE Count : 0
 Inter-Core Inteference in Data Store : 512042
Heartbeat CPU 4 instructions: 60000003 cycles: 31641714 heartbeat IPC: 2.36083 cumulative IPC: 1.89623 (Simulation time: 5 hr 40 min 48 sec) 
 Total Blocks : 196608 Invalid Blocks : 3679 Valid Blocks : 192929
 Total Tags : 491520 Threshold : 12288 Invalid Tags : 200287 Pr0 Tags : 98304 Pr1 Tags : 192929 num_pr0 : 12288
 SAE Count : 0
 Inter-Core Inteference in Data Store : 512043
Heartbeat CPU 6 instructions: 60000003 cycles: 31642016 heartbeat IPC: 2.36024 cumulative IPC: 1.89621 (Simulation time: 5 hr 40 min 49 sec) 
 Total Blocks : 196608 Invalid Blocks : 3679 Valid Blocks : 192929
 Total Tags : 491520 Threshold : 12288 Invalid Tags : 200287 Pr0 Tags : 98304 Pr1 Tags : 192929 num_pr0 : 12288
 SAE Count : 0
 Inter-Core Inteference in Data Store : 512043
Heartbeat CPU 2 instructions: 60000003 cycles: 31642473 heartbeat IPC: 2.36057 cumulative IPC: 1.89619 (Simulation time: 5 hr 40 min 49 sec) 
 Total Blocks : 196608 Invalid Blocks : 3679 Valid Blocks : 192929
 Total Tags : 491520 Threshold : 12288 Invalid Tags : 200287 Pr0 Tags : 98304 Pr1 Tags : 192929 num_pr0 : 12288
 SAE Count : 0
 Inter-Core Inteference in Data Store : 512050
Heartbeat CPU 0 instructions: 60000003 cycles: 31642814 heartbeat IPC: 2.36058 cumulative IPC: 1.89617 (Simulation time: 5 hr 40 min 49 sec) 
 Total Blocks : 196608 Invalid Blocks : 3679 Valid Blocks : 192929
 Total Tags : 491520 Threshold : 12288 Invalid Tags : 200287 Pr0 Tags : 98304 Pr1 Tags : 192929 num_pr0 : 12288
 SAE Count : 0
 Inter-Core Inteference in Data Store : 512061
Heartbeat CPU 3 instructions: 70000000 cycles: 35516593 heartbeat IPC: 2.57996 cumulative IPC: 1.97091 (Simulation time: 6 hr 31 min 18 sec) 
 Total Blocks : 196608 Invalid Blocks : 1835 Valid Blocks : 194773
 Total Tags : 491520 Threshold : 12288 Invalid Tags : 198445 Pr0 Tags : 98302 Pr1 Tags : 194773 num_pr0 : 12288
 SAE Count : 0
 Inter-Core Inteference in Data Store : 628254
Heartbeat CPU 1 instructions: 70000003 cycles: 35517150 heartbeat IPC: 2.58023 cumulative IPC: 1.97088 (Simulation time: 6 hr 31 min 18 sec) 
 Total Blocks : 196608 Invalid Blocks : 1834 Valid Blocks : 194774
 Total Tags : 491520 Threshold : 12288 Invalid Tags : 198442 Pr0 Tags : 98304 Pr1 Tags : 194774 num_pr0 : 12288
 SAE Count : 0
 Inter-Core Inteference in Data Store : 628302
Heartbeat CPU 7 instructions: 70000000 cycles: 35517290 heartbeat IPC: 2.57966 cumulative IPC: 1.97087 (Simulation time: 6 hr 31 min 19 sec) 
 Total Blocks : 196608 Invalid Blocks : 1834 Valid Blocks : 194774
 Total Tags : 491520 Threshold : 12288 Invalid Tags : 198443 Pr0 Tags : 98303 Pr1 Tags : 194774 num_pr0 : 12288
 SAE Count : 0
 Inter-Core Inteference in Data Store : 628318
Heartbeat CPU 5 instructions: 70000003 cycles: 35517562 heartbeat IPC: 2.57985 cumulative IPC: 1.97086 (Simulation time: 6 hr 31 min 19 sec) 
 Total Blocks : 196608 Invalid Blocks : 1834 Valid Blocks : 194774
 Total Tags : 491520 Threshold : 12288 Invalid Tags : 198443 Pr0 Tags : 98303 Pr1 Tags : 194774 num_pr0 : 12288
 SAE Count : 0
 Inter-Core Inteference in Data Store : 628341
Heartbeat CPU 4 instructions: 70000000 cycles: 35517965 heartbeat IPC: 2.57981 cumulative IPC: 1.97083 (Simulation time: 6 hr 31 min 19 sec) 
 Total Blocks : 196608 Invalid Blocks : 1833 Valid Blocks : 194775
 Total Tags : 491520 Threshold : 12288 Invalid Tags : 198441 Pr0 Tags : 98304 Pr1 Tags : 194775 num_pr0 : 12288
 SAE Count : 0
 Inter-Core Inteference in Data Store : 628380
Heartbeat CPU 6 instructions: 70000000 cycles: 35518021 heartbeat IPC: 2.57998 cumulative IPC: 1.97083 (Simulation time: 6 hr 31 min 19 sec) 
 Total Blocks : 196608 Invalid Blocks : 1833 Valid Blocks : 194775
 Total Tags : 491520 Threshold : 12288 Invalid Tags : 198442 Pr0 Tags : 98303 Pr1 Tags : 194775 num_pr0 : 12288
 SAE Count : 0
 Inter-Core Inteference in Data Store : 628382
Heartbeat CPU 2 instructions: 70000000 cycles: 35518535 heartbeat IPC: 2.57994 cumulative IPC: 1.9708 (Simulation time: 6 hr 31 min 19 sec) 
 Total Blocks : 196608 Invalid Blocks : 1833 Valid Blocks : 194775
 Total Tags : 491520 Threshold : 12288 Invalid Tags : 198441 Pr0 Tags : 98304 Pr1 Tags : 194775 num_pr0 : 12288
 SAE Count : 0
 Inter-Core Inteference in Data Store : 628428
Heartbeat CPU 0 instructions: 70000000 cycles: 35518955 heartbeat IPC: 2.57988 cumulative IPC: 1.97078 (Simulation time: 6 hr 31 min 20 sec) 
 Total Blocks : 196608 Invalid Blocks : 1833 Valid Blocks : 194775
 Total Tags : 491520 Threshold : 12288 Invalid Tags : 198441 Pr0 Tags : 98304 Pr1 Tags : 194775 num_pr0 : 12288
 SAE Count : 0
 Inter-Core Inteference in Data Store : 628437
Heartbeat CPU 1 instructions: 80000002 cycles: 39393271 heartbeat IPC: 2.5799 cumulative IPC: 2.0308 (Simulation time: 7 hr 22 min 34 sec) 
 Total Blocks : 196608 Invalid Blocks : 917 Valid Blocks : 195691
 Total Tags : 491520 Threshold : 12288 Invalid Tags : 197525 Pr0 Tags : 98304 Pr1 Tags : 195691 num_pr0 : 12288
 SAE Count : 0
 Inter-Core Inteference in Data Store : 744050
Heartbeat CPU 3 instructions: 80000002 cycles: 39393457 heartbeat IPC: 2.5794 cumulative IPC: 2.03079 (Simulation time: 7 hr 22 min 35 sec) 
 Total Blocks : 196608 Invalid Blocks : 917 Valid Blocks : 195691
 Total Tags : 491520 Threshold : 12288 Invalid Tags : 197525 Pr0 Tags : 98304 Pr1 Tags : 195691 num_pr0 : 12288
 SAE Count : 0
 Inter-Core Inteference in Data Store : 744050
Heartbeat CPU 7 instructions: 80000002 cycles: 39393816 heartbeat IPC: 2.57963 cumulative IPC: 2.03078 (Simulation time: 7 hr 22 min 35 sec) 
 Total Blocks : 196608 Invalid Blocks : 917 Valid Blocks : 195691
 Total Tags : 491520 Threshold : 12288 Invalid Tags : 197525 Pr0 Tags : 98304 Pr1 Tags : 195691 num_pr0 : 12288
 SAE Count : 0
 Inter-Core Inteference in Data Store : 744052
Heartbeat CPU 5 instructions: 80000002 cycles: 39394089 heartbeat IPC: 2.57963 cumulative IPC: 2.03076 (Simulation time: 7 hr 22 min 35 sec) 
 Total Blocks : 196608 Invalid Blocks : 917 Valid Blocks : 195691
 Total Tags : 491520 Threshold : 12288 Invalid Tags : 197526 Pr0 Tags : 98303 Pr1 Tags : 195691 num_pr0 : 12288
 SAE Count : 0
 Inter-Core Inteference in Data Store : 744054
Heartbeat CPU 6 instructions: 80000002 cycles: 39394643 heartbeat IPC: 2.57957 cumulative IPC: 2.03073 (Simulation time: 7 hr 22 min 36 sec) 
 Total Blocks : 196608 Invalid Blocks : 917 Valid Blocks : 195691
 Total Tags : 491520 Threshold : 12288 Invalid Tags : 197527 Pr0 Tags : 98302 Pr1 Tags : 195691 num_pr0 : 12288
 SAE Count : 0
 Inter-Core Inteference in Data Store : 744072
Heartbeat CPU 4 instructions: 80000002 cycles: 39394759 heartbeat IPC: 2.57945 cumulative IPC: 2.03073 (Simulation time: 7 hr 22 min 36 sec) 
 Total Blocks : 196608 Invalid Blocks : 917 Valid Blocks : 195691
 Total Tags : 491520 Threshold : 12288 Invalid Tags : 197527 Pr0 Tags : 98302 Pr1 Tags : 195691 num_pr0 : 12288
 SAE Count : 0
 Inter-Core Inteference in Data Store : 744077
Heartbeat CPU 2 instructions: 80000002 cycles: 39395179 heartbeat IPC: 2.57955 cumulative IPC: 2.03071 (Simulation time: 7 hr 22 min 36 sec) 
 Total Blocks : 196608 Invalid Blocks : 917 Valid Blocks : 195691
 Total Tags : 491520 Threshold : 12288 Invalid Tags : 197526 Pr0 Tags : 98303 Pr1 Tags : 195691 num_pr0 : 12288
 SAE Count : 0
 Inter-Core Inteference in Data Store : 744101
Heartbeat CPU 0 instructions: 80000002 cycles: 39395600 heartbeat IPC: 2.57955 cumulative IPC: 2.03068 (Simulation time: 7 hr 22 min 36 sec) 
 Total Blocks : 196608 Invalid Blocks : 917 Valid Blocks : 195691
 Total Tags : 491520 Threshold : 12288 Invalid Tags : 197525 Pr0 Tags : 98304 Pr1 Tags : 195691 num_pr0 : 12288
 SAE Count : 0
 Inter-Core Inteference in Data Store : 744121
Heartbeat CPU 1 instructions: 90000003 cycles: 43272524 heartbeat IPC: 2.57782 cumulative IPC: 2.07984 (Simulation time: 8 hr 14 min 32 sec) 
 Total Blocks : 196608 Invalid Blocks : 480 Valid Blocks : 196128
 Total Tags : 491520 Threshold : 12288 Invalid Tags : 197089 Pr0 Tags : 98303 Pr1 Tags : 196128 num_pr0 : 12288
 SAE Count : 0
 Inter-Core Inteference in Data Store : 859532
Heartbeat CPU 7 instructions: 90000003 cycles: 43273000 heartbeat IPC: 2.57786 cumulative IPC: 2.07982 (Simulation time: 8 hr 14 min 32 sec) 
 Total Blocks : 196608 Invalid Blocks : 480 Valid Blocks : 196128
 Total Tags : 491520 Threshold : 12288 Invalid Tags : 197088 Pr0 Tags : 98304 Pr1 Tags : 196128 num_pr0 : 12288
 SAE Count : 0
 Inter-Core Inteference in Data Store : 859548
Heartbeat CPU 3 instructions: 90000003 cycles: 43273024 heartbeat IPC: 2.57761 cumulative IPC: 2.07982 (Simulation time: 8 hr 14 min 32 sec) 
 Total Blocks : 196608 Invalid Blocks : 480 Valid Blocks : 196128
 Total Tags : 491520 Threshold : 12288 Invalid Tags : 197088 Pr0 Tags : 98304 Pr1 Tags : 196128 num_pr0 : 12288
 SAE Count : 0
 Inter-Core Inteference in Data Store : 859548
Heartbeat CPU 5 instructions: 90000003 cycles: 43273433 heartbeat IPC: 2.57776 cumulative IPC: 2.0798 (Simulation time: 8 hr 14 min 32 sec) 
 Total Blocks : 196608 Invalid Blocks : 480 Valid Blocks : 196128
 Total Tags : 491520 Threshold : 12288 Invalid Tags : 197091 Pr0 Tags : 98301 Pr1 Tags : 196128 num_pr0 : 12288
 SAE Count : 0
 Inter-Core Inteference in Data Store : 859559
Heartbeat CPU 4 instructions: 90000003 cycles: 43273728 heartbeat IPC: 2.578 cumulative IPC: 2.07978 (Simulation time: 8 hr 14 min 32 sec) 
 Total Blocks : 196608 Invalid Blocks : 480 Valid Blocks : 196128
 Total Tags : 491520 Threshold : 12288 Invalid Tags : 197088 Pr0 Tags : 98304 Pr1 Tags : 196128 num_pr0 : 12288
 SAE Count : 0
 Inter-Core Inteference in Data Store : 859562
Heartbeat CPU 6 instructions: 90000003 cycles: 43274145 heartbeat IPC: 2.57765 cumulative IPC: 2.07976 (Simulation time: 8 hr 14 min 33 sec) 
 Total Blocks : 196608 Invalid Blocks : 480 Valid Blocks : 196128
 Total Tags : 491520 Threshold : 12288 Invalid Tags : 197088 Pr0 Tags : 98304 Pr1 Tags : 196128 num_pr0 : 12288
 SAE Count : 0
 Inter-Core Inteference in Data Store : 859568
Heartbeat CPU 2 instructions: 90000003 cycles: 43274236 heartbeat IPC: 2.57795 cumulative IPC: 2.07976 (Simulation time: 8 hr 14 min 33 sec) 
 Total Blocks : 196608 Invalid Blocks : 480 Valid Blocks : 196128
 Total Tags : 491520 Threshold : 12288 Invalid Tags : 197089 Pr0 Tags : 98303 Pr1 Tags : 196128 num_pr0 : 12287
 SAE Count : 0
 Inter-Core Inteference in Data Store : 859573
Heartbeat CPU 0 instructions: 90000003 cycles: 43274868 heartbeat IPC: 2.57781 cumulative IPC: 2.07973 (Simulation time: 8 hr 14 min 33 sec) 
 Total Blocks : 196608 Invalid Blocks : 480 Valid Blocks : 196128
 Total Tags : 491520 Threshold : 12288 Invalid Tags : 197089 Pr0 Tags : 98303 Pr1 Tags : 196128 num_pr0 : 12287
 SAE Count : 0
 Inter-Core Inteference in Data Store : 859578
Heartbeat CPU 1 instructions: 100000001 cycles: 47150797 heartbeat IPC: 2.57847 cumulative IPC: 2.12085 (Simulation time: 9 hr 8 min 3 sec) 
 Total Blocks : 196608 Invalid Blocks : 258 Valid Blocks : 196350
 Total Tags : 491520 Threshold : 12288 Invalid Tags : 196866 Pr0 Tags : 98304 Pr1 Tags : 196350 num_pr0 : 12288
 SAE Count : 0
 Inter-Core Inteference in Data Store : 976006
Heartbeat CPU 3 instructions: 100000001 cycles: 47151011 heartbeat IPC: 2.57866 cumulative IPC: 2.12085 (Simulation time: 9 hr 8 min 4 sec) 
 Total Blocks : 196608 Invalid Blocks : 258 Valid Blocks : 196350
 Total Tags : 491520 Threshold : 12288 Invalid Tags : 196866 Pr0 Tags : 98304 Pr1 Tags : 196350 num_pr0 : 12288
 SAE Count : 0
 Inter-Core Inteference in Data Store : 976009
Heartbeat CPU 7 instructions: 100000001 cycles: 47151426 heartbeat IPC: 2.57837 cumulative IPC: 2.12083 (Simulation time: 9 hr 8 min 5 sec) 
 Total Blocks : 196608 Invalid Blocks : 258 Valid Blocks : 196350
 Total Tags : 491520 Threshold : 12288 Invalid Tags : 196866 Pr0 Tags : 98304 Pr1 Tags : 196350 num_pr0 : 12288
 SAE Count : 0
 Inter-Core Inteference in Data Store : 976020
Heartbeat CPU 5 instructions: 100000003 cycles: 47151695 heartbeat IPC: 2.57847 cumulative IPC: 2.12081 (Simulation time: 9 hr 8 min 5 sec) 
 Total Blocks : 196608 Invalid Blocks : 258 Valid Blocks : 196350
 Total Tags : 491520 Threshold : 12288 Invalid Tags : 196866 Pr0 Tags : 98304 Pr1 Tags : 196350 num_pr0 : 12288
 SAE Count : 0
 Inter-Core Inteference in Data Store : 976027
Heartbeat CPU 6 instructions: 100000001 cycles: 47151903 heartbeat IPC: 2.57881 cumulative IPC: 2.12081 (Simulation time: 9 hr 8 min 5 sec) 
 Total Blocks : 196608 Invalid Blocks : 258 Valid Blocks : 196350
 Total Tags : 491520 Threshold : 12288 Invalid Tags : 196866 Pr0 Tags : 98304 Pr1 Tags : 196350 num_pr0 : 12288
 SAE Count : 0
 Inter-Core Inteference in Data Store : 976028
Heartbeat CPU 4 instructions: 100000001 cycles: 47152104 heartbeat IPC: 2.5784 cumulative IPC: 2.1208 (Simulation time: 9 hr 8 min 5 sec) 
 Total Blocks : 196608 Invalid Blocks : 258 Valid Blocks : 196350
 Total Tags : 491520 Threshold : 12288 Invalid Tags : 196868 Pr0 Tags : 98302 Pr1 Tags : 196350 num_pr0 : 12288
 SAE Count : 0
 Inter-Core Inteference in Data Store : 976031
Heartbeat CPU 2 instructions: 100000001 cycles: 47152388 heartbeat IPC: 2.57855 cumulative IPC: 2.12078 (Simulation time: 9 hr 8 min 6 sec) 
 Total Blocks : 196608 Invalid Blocks : 258 Valid Blocks : 196350
 Total Tags : 491520 Threshold : 12288 Invalid Tags : 196868 Pr0 Tags : 98302 Pr1 Tags : 196350 num_pr0 : 12288
 SAE Count : 0
 Inter-Core Inteference in Data Store : 976032
Heartbeat CPU 0 instructions: 100000001 cycles: 47153008 heartbeat IPC: 2.57856 cumulative IPC: 2.12076 (Simulation time: 9 hr 8 min 6 sec) 
 Total Blocks : 196608 Invalid Blocks : 258 Valid Blocks : 196350
 Total Tags : 491520 Threshold : 12288 Invalid Tags : 196867 Pr0 Tags : 98303 Pr1 Tags : 196350 num_pr0 : 12288
 SAE Count : 0
 Inter-Core Inteference in Data Store : 976040
Heartbeat CPU 7 instructions: 110000000 cycles: 51027329 heartbeat IPC: 2.58004 cumulative IPC: 2.15571 (Simulation time: 10 hr 0 min 31 sec) 
 Total Blocks : 196608 Invalid Blocks : 131 Valid Blocks : 196477
 Total Tags : 491520 Threshold : 12288 Invalid Tags : 196740 Pr0 Tags : 98303 Pr1 Tags : 196477 num_pr0 : 12288
 SAE Count : 0
 Inter-Core Inteference in Data Store : 1091091
Heartbeat CPU 3 instructions: 110000000 cycles: 51027844 heartbeat IPC: 2.57942 cumulative IPC: 2.15569 (Simulation time: 10 hr 0 min 35 sec) 
 Total Blocks : 196608 Invalid Blocks : 131 Valid Blocks : 196477
 Total Tags : 491520 Threshold : 12288 Invalid Tags : 196740 Pr0 Tags : 98303 Pr1 Tags : 196477 num_pr0 : 12288
 SAE Count : 0
 Inter-Core Inteference in Data Store : 1091128
Heartbeat CPU 1 instructions: 110000000 cycles: 51027902 heartbeat IPC: 2.57924 cumulative IPC: 2.15568 (Simulation time: 10 hr 0 min 35 sec) 
 Total Blocks : 196608 Invalid Blocks : 131 Valid Blocks : 196477
 Total Tags : 491520 Threshold : 12288 Invalid Tags : 196739 Pr0 Tags : 98304 Pr1 Tags : 196477 num_pr0 : 12288
 SAE Count : 0
 Inter-Core Inteference in Data Store : 1091128
Heartbeat CPU 5 instructions: 110000000 cycles: 51028092 heartbeat IPC: 2.57971 cumulative IPC: 2.15568 (Simulation time: 10 hr 0 min 37 sec) 
 Total Blocks : 196608 Invalid Blocks : 131 Valid Blocks : 196477
 Total Tags : 491520 Threshold : 12288 Invalid Tags : 196740 Pr0 Tags : 98303 Pr1 Tags : 196477 num_pr0 : 12288
 SAE Count : 0
 Inter-Core Inteference in Data Store : 1091139
Heartbeat CPU 6 instructions: 110000000 cycles: 51028586 heartbeat IPC: 2.57952 cumulative IPC: 2.15565 (Simulation time: 10 hr 0 min 39 sec) 
 Total Blocks : 196608 Invalid Blocks : 131 Valid Blocks : 196477
 Total Tags : 491520 Threshold : 12288 Invalid Tags : 196739 Pr0 Tags : 98304 Pr1 Tags : 196477 num_pr0 : 12288
 SAE Count : 0
 Inter-Core Inteference in Data Store : 1091173
Heartbeat CPU 2 instructions: 110000000 cycles: 51028819 heartbeat IPC: 2.57969 cumulative IPC: 2.15564 (Simulation time: 10 hr 0 min 39 sec) 
 Total Blocks : 196608 Invalid Blocks : 131 Valid Blocks : 196477
 Total Tags : 491520 Threshold : 12288 Invalid Tags : 196739 Pr0 Tags : 98304 Pr1 Tags : 196477 num_pr0 : 12288
 SAE Count : 0
 Inter-Core Inteference in Data Store : 1091189
Heartbeat CPU 4 instructions: 110000000 cycles: 51029084 heartbeat IPC: 2.57933 cumulative IPC: 2.15563 (Simulation time: 10 hr 0 min 39 sec) 
 Total Blocks : 196608 Invalid Blocks : 131 Valid Blocks : 196477
 Total Tags : 491520 Threshold : 12288 Invalid Tags : 196739 Pr0 Tags : 98304 Pr1 Tags : 196477 num_pr0 : 12288
 SAE Count : 0
 Inter-Core Inteference in Data Store : 1091201
Heartbeat CPU 0 instructions: 110000000 cycles: 51029686 heartbeat IPC: 2.57953 cumulative IPC: 2.15561 (Simulation time: 10 hr 0 min 40 sec) 
 Total Blocks : 196608 Invalid Blocks : 131 Valid Blocks : 196477
 Total Tags : 491520 Threshold : 12288 Invalid Tags : 196739 Pr0 Tags : 98304 Pr1 Tags : 196477 num_pr0 : 12288
 SAE Count : 0
 Inter-Core Inteference in Data Store : 1091216
Heartbeat CPU 7 instructions: 120000000 cycles: 54902445 heartbeat IPC: 2.58057 cumulative IPC: 2.18569 (Simulation time: 10 hr 58 min 1 sec) 
 Total Blocks : 196608 Invalid Blocks : 69 Valid Blocks : 196539
 Total Tags : 491520 Threshold : 12288 Invalid Tags : 196677 Pr0 Tags : 98304 Pr1 Tags : 196539 num_pr0 : 12288
 SAE Count : 0
 Inter-Core Inteference in Data Store : 1206984
Heartbeat CPU 5 instructions: 120000000 cycles: 54902840 heartbeat IPC: 2.58081 cumulative IPC: 2.18568 (Simulation time: 10 hr 58 min 1 sec) 
 Total Blocks : 196608 Invalid Blocks : 69 Valid Blocks : 196539
 Total Tags : 491520 Threshold : 12288 Invalid Tags : 196677 Pr0 Tags : 98304 Pr1 Tags : 196539 num_pr0 : 12288
 SAE Count : 0
 Inter-Core Inteference in Data Store : 1206991
Heartbeat CPU 1 instructions: 120000000 cycles: 54902894 heartbeat IPC: 2.58065 cumulative IPC: 2.18568 (Simulation time: 10 hr 58 min 1 sec) 
 Total Blocks : 196608 Invalid Blocks : 69 Valid Blocks : 196539
 Total Tags : 491520 Threshold : 12288 Invalid Tags : 196677 Pr0 Tags : 98304 Pr1 Tags : 196539 num_pr0 : 12288
 SAE Count : 0
 Inter-Core Inteference in Data Store : 1206992
Heartbeat CPU 3 instructions: 120000000 cycles: 54903228 heartbeat IPC: 2.58039 cumulative IPC: 2.18566 (Simulation time: 10 hr 58 min 1 sec) 
 Total Blocks : 196608 Invalid Blocks : 69 Valid Blocks : 196539
 Total Tags : 491520 Threshold : 12288 Invalid Tags : 196677 Pr0 Tags : 98304 Pr1 Tags : 196539 num_pr0 : 12288
 SAE Count : 0
 Inter-Core Inteference in Data Store : 1206998
Heartbeat CPU 6 instructions: 120000000 cycles: 54903721 heartbeat IPC: 2.58056 cumulative IPC: 2.18564 (Simulation time: 10 hr 58 min 2 sec) 
 Total Blocks : 196608 Invalid Blocks : 69 Valid Blocks : 196539
 Total Tags : 491520 Threshold : 12288 Invalid Tags : 196677 Pr0 Tags : 98304 Pr1 Tags : 196539 num_pr0 : 12288
 SAE Count : 0
 Inter-Core Inteference in Data Store : 1207001
Heartbeat CPU 2 instructions: 120000000 cycles: 54903979 heartbeat IPC: 2.58054 cumulative IPC: 2.18563 (Simulation time: 10 hr 58 min 2 sec) 
 Total Blocks : 196608 Invalid Blocks : 69 Valid Blocks : 196539
 Total Tags : 491520 Threshold : 12288 Invalid Tags : 196677 Pr0 Tags : 98304 Pr1 Tags : 196539 num_pr0 : 12288
 SAE Count : 0
 Inter-Core Inteference in Data Store : 1207003
Heartbeat CPU 4 instructions: 120000000 cycles: 54904757 heartbeat IPC: 2.5802 cumulative IPC: 2.1856 (Simulation time: 10 hr 58 min 2 sec) 
 Total Blocks : 196608 Invalid Blocks : 69 Valid Blocks : 196539
 Total Tags : 491520 Threshold : 12288 Invalid Tags : 196677 Pr0 Tags : 98304 Pr1 Tags : 196539 num_pr0 : 12288
 SAE Count : 0
 Inter-Core Inteference in Data Store : 1207009
Heartbeat CPU 0 instructions: 120000000 cycles: 54905360 heartbeat IPC: 2.5802 cumulative IPC: 2.18558 (Simulation time: 10 hr 58 min 3 sec) 
 Total Blocks : 196608 Invalid Blocks : 69 Valid Blocks : 196539
 Total Tags : 491520 Threshold : 12288 Invalid Tags : 196677 Pr0 Tags : 98304 Pr1 Tags : 196539 num_pr0 : 12288
 SAE Count : 0
 Inter-Core Inteference in Data Store : 1207022
Heartbeat CPU 7 instructions: 130000001 cycles: 58779069 heartbeat IPC: 2.57956 cumulative IPC: 2.21167 (Simulation time: 11 hr 58 min 41 sec) 
 Total Blocks : 196608 Invalid Blocks : 37 Valid Blocks : 196571
 Total Tags : 491520 Threshold : 12288 Invalid Tags : 196646 Pr0 Tags : 98303 Pr1 Tags : 196571 num_pr0 : 12288
 SAE Count : 0
 Inter-Core Inteference in Data Store : 1324588
Heartbeat CPU 3 instructions: 130000001 cycles: 58779379 heartbeat IPC: 2.57988 cumulative IPC: 2.21166 (Simulation time: 11 hr 58 min 41 sec) 
 Total Blocks : 196608 Invalid Blocks : 37 Valid Blocks : 196571
 Total Tags : 491520 Threshold : 12288 Invalid Tags : 196645 Pr0 Tags : 98304 Pr1 Tags : 196571 num_pr0 : 12288
 SAE Count : 0
 Inter-Core Inteference in Data Store : 1324599
Heartbeat CPU 5 instructions: 130000001 cycles: 58779553 heartbeat IPC: 2.57951 cumulative IPC: 2.21165 (Simulation time: 11 hr 58 min 42 sec) 
 Total Blocks : 196608 Invalid Blocks : 37 Valid Blocks : 196571
 Total Tags : 491520 Threshold : 12288 Invalid Tags : 196646 Pr0 Tags : 98303 Pr1 Tags : 196571 num_pr0 : 12288
 SAE Count : 0
 Inter-Core Inteference in Data Store : 1324610
Heartbeat CPU 1 instructions: 130000001 cycles: 58779706 heartbeat IPC: 2.57944 cumulative IPC: 2.21165 (Simulation time: 11 hr 58 min 42 sec) 
 Total Blocks : 196608 Invalid Blocks : 37 Valid Blocks : 196571
 Total Tags : 491520 Threshold : 12288 Invalid Tags : 196646 Pr0 Tags : 98303 Pr1 Tags : 196571 num_pr0 : 12288
 SAE Count : 0
 Inter-Core Inteference in Data Store : 1324619
Heartbeat CPU 2 instructions: 130000001 cycles: 58780970 heartbeat IPC: 2.57932 cumulative IPC: 2.2116 (Simulation time: 11 hr 58 min 42 sec) 
 Total Blocks : 196608 Invalid Blocks : 37 Valid Blocks : 196571
 Total Tags : 491520 Threshold : 12288 Invalid Tags : 196645 Pr0 Tags : 98304 Pr1 Tags : 196571 num_pr0 : 12288
 SAE Count : 0
 Inter-Core Inteference in Data Store : 1324711
Heartbeat CPU 6 instructions: 130000001 cycles: 58781278 heartbeat IPC: 2.57894 cumulative IPC: 2.21159 (Simulation time: 11 hr 58 min 43 sec) 
 Total Blocks : 196608 Invalid Blocks : 37 Valid Blocks : 196571
 Total Tags : 491520 Threshold : 12288 Invalid Tags : 196645 Pr0 Tags : 98304 Pr1 Tags : 196571 num_pr0 : 12288
 SAE Count : 0
 Inter-Core Inteference in Data Store : 1324723
Heartbeat CPU 4 instructions: 130000001 cycles: 58782119 heartbeat IPC: 2.57907 cumulative IPC: 2.21156 (Simulation time: 11 hr 58 min 43 sec) 
 Total Blocks : 196608 Invalid Blocks : 37 Valid Blocks : 196571
 Total Tags : 491520 Threshold : 12288 Invalid Tags : 196645 Pr0 Tags : 98304 Pr1 Tags : 196571 num_pr0 : 12288
 SAE Count : 0
 Inter-Core Inteference in Data Store : 1324733
Heartbeat CPU 0 instructions: 130000001 cycles: 58782127 heartbeat IPC: 2.57947 cumulative IPC: 2.21156 (Simulation time: 11 hr 58 min 43 sec) 
 Total Blocks : 196608 Invalid Blocks : 37 Valid Blocks : 196571
 Total Tags : 491520 Threshold : 12288 Invalid Tags : 196645 Pr0 Tags : 98304 Pr1 Tags : 196571 num_pr0 : 12288
 SAE Count : 0
 Inter-Core Inteference in Data Store : 1324733
Heartbeat CPU 3 instructions: 140000002 cycles: 62657714 heartbeat IPC: 2.57843 cumulative IPC: 2.23436 (Simulation time: 13 hr 0 min 22 sec) 
 Total Blocks : 196608 Invalid Blocks : 17 Valid Blocks : 196591
 Total Tags : 491520 Threshold : 12288 Invalid Tags : 196625 Pr0 Tags : 98304 Pr1 Tags : 196591 num_pr0 : 12288
 SAE Count : 0
 Inter-Core Inteference in Data Store : 1441426
Heartbeat CPU 7 instructions: 140000002 cycles: 62658043 heartbeat IPC: 2.578 cumulative IPC: 2.23435 (Simulation time: 13 hr 0 min 22 sec) 
 Total Blocks : 196608 Invalid Blocks : 17 Valid Blocks : 196591
 Total Tags : 491520 Threshold : 12288 Invalid Tags : 196625 Pr0 Tags : 98304 Pr1 Tags : 196591 num_pr0 : 12288
 SAE Count : 0
 Inter-Core Inteference in Data Store : 1441431
Heartbeat CPU 5 instructions: 140000002 cycles: 62658515 heartbeat IPC: 2.57801 cumulative IPC: 2.23433 (Simulation time: 13 hr 0 min 23 sec) 
 Total Blocks : 196608 Invalid Blocks : 17 Valid Blocks : 196591
 Total Tags : 491520 Threshold : 12288 Invalid Tags : 196626 Pr0 Tags : 98303 Pr1 Tags : 196591 num_pr0 : 12288
 SAE Count : 0
 Inter-Core Inteference in Data Store : 1441445
Heartbeat CPU 1 instructions: 140000002 cycles: 62659166 heartbeat IPC: 2.57768 cumulative IPC: 2.23431 (Simulation time: 13 hr 0 min 23 sec) 
 Total Blocks : 196608 Invalid Blocks : 17 Valid Blocks : 196591
 Total Tags : 491520 Threshold : 12288 Invalid Tags : 196626 Pr0 Tags : 98303 Pr1 Tags : 196591 num_pr0 : 12288
 SAE Count : 0
 Inter-Core Inteference in Data Store : 1441460
Heartbeat CPU 2 instructions: 140000002 cycles: 62659838 heartbeat IPC: 2.57807 cumulative IPC: 2.23429 (Simulation time: 13 hr 0 min 23 sec) 
 Total Blocks : 196608 Invalid Blocks : 17 Valid Blocks : 196591
 Total Tags : 491520 Threshold : 12288 Invalid Tags : 196625 Pr0 Tags : 98304 Pr1 Tags : 196591 num_pr0 : 12288
 SAE Count : 0
 Inter-Core Inteference in Data Store : 1441472
Heartbeat CPU 6 instructions: 140000002 cycles: 62660355 heartbeat IPC: 2.57793 cumulative IPC: 2.23427 (Simulation time: 13 hr 0 min 24 sec) 
 Total Blocks : 196608 Invalid Blocks : 17 Valid Blocks : 196591
 Total Tags : 491520 Threshold : 12288 Invalid Tags : 196628 Pr0 Tags : 98301 Pr1 Tags : 196591 num_pr0 : 12287
 SAE Count : 0
 Inter-Core Inteference in Data Store : 1441480
Heartbeat CPU 4 instructions: 140000002 cycles: 62660916 heartbeat IPC: 2.57812 cumulative IPC: 2.23425 (Simulation time: 13 hr 0 min 24 sec) 
 Total Blocks : 196608 Invalid Blocks : 17 Valid Blocks : 196591
 Total Tags : 491520 Threshold : 12288 Invalid Tags : 196626 Pr0 Tags : 98303 Pr1 Tags : 196591 num_pr0 : 12288
 SAE Count : 0
 Inter-Core Inteference in Data Store : 1441494
Heartbeat CPU 0 instructions: 140000002 cycles: 62660933 heartbeat IPC: 2.57811 cumulative IPC: 2.23425 (Simulation time: 13 hr 0 min 24 sec) 
 Total Blocks : 196608 Invalid Blocks : 17 Valid Blocks : 196591
 Total Tags : 491520 Threshold : 12288 Invalid Tags : 196626 Pr0 Tags : 98303 Pr1 Tags : 196591 num_pr0 : 12288
 SAE Count : 0
 Inter-Core Inteference in Data Store : 1441494
Heartbeat CPU 3 instructions: 150000000 cycles: 66534481 heartbeat IPC: 2.57947 cumulative IPC: 2.25447 (Simulation time: 13 hr 51 min 45 sec) 
 Total Blocks : 196608 Invalid Blocks : 9 Valid Blocks : 196599
 Total Tags : 491520 Threshold : 12288 Invalid Tags : 196618 Pr0 Tags : 98303 Pr1 Tags : 196599 num_pr0 : 12288
 SAE Count : 0
 Inter-Core Inteference in Data Store : 1561312
Heartbeat CPU 7 instructions: 150000000 cycles: 66534831 heartbeat IPC: 2.57945 cumulative IPC: 2.25446 (Simulation time: 13 hr 51 min 45 sec) 
 Total Blocks : 196608 Invalid Blocks : 9 Valid Blocks : 196599
 Total Tags : 491520 Threshold : 12288 Invalid Tags : 196617 Pr0 Tags : 98304 Pr1 Tags : 196599 num_pr0 : 12288
 SAE Count : 0
 Inter-Core Inteference in Data Store : 1561315
Heartbeat CPU 5 instructions: 150000000 cycles: 66535009 heartbeat IPC: 2.57965 cumulative IPC: 2.25445 (Simulation time: 13 hr 51 min 46 sec) 
 Total Blocks : 196608 Invalid Blocks : 9 Valid Blocks : 196599
 Total Tags : 491520 Threshold : 12288 Invalid Tags : 196618 Pr0 Tags : 98303 Pr1 Tags : 196599 num_pr0 : 12288
 SAE Count : 0
 Inter-Core Inteference in Data Store : 1561321
Heartbeat CPU 1 instructions: 150000000 cycles: 66535717 heartbeat IPC: 2.57961 cumulative IPC: 2.25443 (Simulation time: 13 hr 51 min 46 sec) 
 Total Blocks : 196608 Invalid Blocks : 9 Valid Blocks : 196599
 Total Tags : 491520 Threshold : 12288 Invalid Tags : 196617 Pr0 Tags : 98304 Pr1 Tags : 196599 num_pr0 : 12288
 SAE Count : 0
 Inter-Core Inteference in Data Store : 1561345
Heartbeat CPU 2 instructions: 150000000 cycles: 66536311 heartbeat IPC: 2.57966 cumulative IPC: 2.25441 (Simulation time: 13 hr 51 min 47 sec) 
 Total Blocks : 196608 Invalid Blocks : 9 Valid Blocks : 196599
 Total Tags : 491520 Threshold : 12288 Invalid Tags : 196617 Pr0 Tags : 98304 Pr1 Tags : 196599 num_pr0 : 12288
 SAE Count : 0
 Inter-Core Inteference in Data Store : 1561361
Heartbeat CPU 6 instructions: 150000000 cycles: 66536852 heartbeat IPC: 2.57965 cumulative IPC: 2.25439 (Simulation time: 13 hr 51 min 47 sec) 
 Total Blocks : 196608 Invalid Blocks : 9 Valid Blocks : 196599
 Total Tags : 491520 Threshold : 12288 Invalid Tags : 196617 Pr0 Tags : 98304 Pr1 Tags : 196599 num_pr0 : 12288
 SAE Count : 0
 Inter-Core Inteference in Data Store : 1561389
Heartbeat CPU 4 instructions: 150000000 cycles: 66537124 heartbeat IPC: 2.57984 cumulative IPC: 2.25438 (Simulation time: 13 hr 51 min 47 sec) 
 Total Blocks : 196608 Invalid Blocks : 9 Valid Blocks : 196599
 Total Tags : 491520 Threshold : 12288 Invalid Tags : 196617 Pr0 Tags : 98304 Pr1 Tags : 196599 num_pr0 : 12288
 SAE Count : 0
 Inter-Core Inteference in Data Store : 1561397
Heartbeat CPU 0 instructions: 150000000 cycles: 66537803 heartbeat IPC: 2.5794 cumulative IPC: 2.25436 (Simulation time: 13 hr 51 min 47 sec) 
 Total Blocks : 196608 Invalid Blocks : 9 Valid Blocks : 196599
 Total Tags : 491520 Threshold : 12288 Invalid Tags : 196617 Pr0 Tags : 98304 Pr1 Tags : 196599 num_pr0 : 12288
 SAE Count : 0
 Inter-Core Inteference in Data Store : 1561430
Heartbeat CPU 3 instructions: 160000002 cycles: 70411042 heartbeat IPC: 2.57961 cumulative IPC: 2.27237 (Simulation time: 14 hr 32 min 19 sec) 
 Total Blocks : 196608 Invalid Blocks : 6 Valid Blocks : 196602
 Total Tags : 491520 Threshold : 12288 Invalid Tags : 196614 Pr0 Tags : 98304 Pr1 Tags : 196602 num_pr0 : 12288
 SAE Count : 0
 Inter-Core Inteference in Data Store : 1678484
Heartbeat CPU 7 instructions: 160000002 cycles: 70411412 heartbeat IPC: 2.57959 cumulative IPC: 2.27236 (Simulation time: 14 hr 32 min 19 sec) 
 Total Blocks : 196608 Invalid Blocks : 6 Valid Blocks : 196602
 Total Tags : 491520 Threshold : 12288 Invalid Tags : 196614 Pr0 Tags : 98304 Pr1 Tags : 196602 num_pr0 : 12288
 SAE Count : 0
 Inter-Core Inteference in Data Store : 1678515
Heartbeat CPU 5 instructions: 160000002 cycles: 70411793 heartbeat IPC: 2.57946 cumulative IPC: 2.27235 (Simulation time: 14 hr 32 min 20 sec) 
 Total Blocks : 196608 Invalid Blocks : 6 Valid Blocks : 196602
 Total Tags : 491520 Threshold : 12288 Invalid Tags : 196614 Pr0 Tags : 98304 Pr1 Tags : 196602 num_pr0 : 12288
 SAE Count : 0
 Inter-Core Inteference in Data Store : 1678536
Heartbeat CPU 1 instructions: 160000002 cycles: 70412343 heartbeat IPC: 2.57956 cumulative IPC: 2.27233 (Simulation time: 14 hr 32 min 20 sec) 
 Total Blocks : 196608 Invalid Blocks : 6 Valid Blocks : 196602
 Total Tags : 491520 Threshold : 12288 Invalid Tags : 196615 Pr0 Tags : 98303 Pr1 Tags : 196602 num_pr0 : 12288
 SAE Count : 0
 Inter-Core Inteference in Data Store : 1678557
Heartbeat CPU 2 instructions: 160000002 cycles: 70412890 heartbeat IPC: 2.57959 cumulative IPC: 2.27231 (Simulation time: 14 hr 32 min 20 sec) 
 Total Blocks : 196608 Invalid Blocks : 6 Valid Blocks : 196602
 Total Tags : 491520 Threshold : 12288 Invalid Tags : 196615 Pr0 Tags : 98303 Pr1 Tags : 196602 num_pr0 : 12288
 SAE Count : 0
 Inter-Core Inteference in Data Store : 1678599
Heartbeat CPU 6 instructions: 160000002 cycles: 70413488 heartbeat IPC: 2.57956 cumulative IPC: 2.27229 (Simulation time: 14 hr 32 min 21 sec) 
 Total Blocks : 196608 Invalid Blocks : 6 Valid Blocks : 196602
 Total Tags : 491520 Threshold : 12288 Invalid Tags : 196615 Pr0 Tags : 98303 Pr1 Tags : 196602 num_pr0 : 12288
 SAE Count : 0
 Inter-Core Inteference in Data Store : 1678626
Heartbeat CPU 4 instructions: 160000002 cycles: 70413510 heartbeat IPC: 2.57972 cumulative IPC: 2.27229 (Simulation time: 14 hr 32 min 21 sec) 
 Total Blocks : 196608 Invalid Blocks : 6 Valid Blocks : 196602
 Total Tags : 491520 Threshold : 12288 Invalid Tags : 196615 Pr0 Tags : 98303 Pr1 Tags : 196602 num_pr0 : 12288
 SAE Count : 0
 Inter-Core Inteference in Data Store : 1678626
Heartbeat CPU 0 instructions: 160000002 cycles: 70414365 heartbeat IPC: 2.57961 cumulative IPC: 2.27226 (Simulation time: 14 hr 32 min 21 sec) 
 Total Blocks : 196608 Invalid Blocks : 6 Valid Blocks : 196602
 Total Tags : 491520 Threshold : 12288 Invalid Tags : 196614 Pr0 Tags : 98304 Pr1 Tags : 196602 num_pr0 : 12288
 SAE Count : 0
 Inter-Core Inteference in Data Store : 1678649
Heartbeat CPU 3 instructions: 170000002 cycles: 74287918 heartbeat IPC: 2.5794 cumulative IPC: 2.28839 (Simulation time: 15 hr 9 min 24 sec) 
 Total Blocks : 196608 Invalid Blocks : 5 Valid Blocks : 196603
 Total Tags : 491520 Threshold : 12288 Invalid Tags : 196613 Pr0 Tags : 98304 Pr1 Tags : 196603 num_pr0 : 12288
 SAE Count : 0
 Inter-Core Inteference in Data Store : 1797620
Heartbeat CPU 7 instructions: 170000002 cycles: 74288320 heartbeat IPC: 2.57938 cumulative IPC: 2.28838 (Simulation time: 15 hr 9 min 25 sec) 
 Total Blocks : 196608 Invalid Blocks : 5 Valid Blocks : 196603
 Total Tags : 491520 Threshold : 12288 Invalid Tags : 196613 Pr0 Tags : 98304 Pr1 Tags : 196603 num_pr0 : 12288
 SAE Count : 0
 Inter-Core Inteference in Data Store : 1797642
Heartbeat CPU 5 instructions: 170000002 cycles: 74288451 heartbeat IPC: 2.57954 cumulative IPC: 2.28838 (Simulation time: 15 hr 9 min 25 sec) 
 Total Blocks : 196608 Invalid Blocks : 5 Valid Blocks : 196603
 Total Tags : 491520 Threshold : 12288 Invalid Tags : 196614 Pr0 Tags : 98303 Pr1 Tags : 196603 num_pr0 : 12288
 SAE Count : 0
 Inter-Core Inteference in Data Store : 1797647
Heartbeat CPU 1 instructions: 170000002 cycles: 74288623 heartbeat IPC: 2.57979 cumulative IPC: 2.28837 (Simulation time: 15 hr 9 min 25 sec) 
 Total Blocks : 196608 Invalid Blocks : 5 Valid Blocks : 196603
 Total Tags : 491520 Threshold : 12288 Invalid Tags : 196615 Pr0 Tags : 98302 Pr1 Tags : 196603 num_pr0 : 12288
 SAE Count : 0
 Inter-Core Inteference in Data Store : 1797659
Heartbeat CPU 2 instructions: 170000002 cycles: 74289882 heartbeat IPC: 2.57932 cumulative IPC: 2.28833 (Simulation time: 15 hr 9 min 25 sec) 
 Total Blocks : 196608 Invalid Blocks : 5 Valid Blocks : 196603
 Total Tags : 491520 Threshold : 12288 Invalid Tags : 196613 Pr0 Tags : 98304 Pr1 Tags : 196603 num_pr0 : 12288
 SAE Count : 0
 Inter-Core Inteference in Data Store : 1797693
Heartbeat CPU 4 instructions: 170000002 cycles: 74290211 heartbeat IPC: 2.57951 cumulative IPC: 2.28832 (Simulation time: 15 hr 9 min 26 sec) 
 Total Blocks : 196608 Invalid Blocks : 5 Valid Blocks : 196603
 Total Tags : 491520 Threshold : 12288 Invalid Tags : 196613 Pr0 Tags : 98304 Pr1 Tags : 196603 num_pr0 : 12288
 SAE Count : 0
 Inter-Core Inteference in Data Store : 1797706
Heartbeat CPU 6 instructions: 170000002 cycles: 74290806 heartbeat IPC: 2.5791 cumulative IPC: 2.2883 (Simulation time: 15 hr 9 min 26 sec) 
 Total Blocks : 196608 Invalid Blocks : 5 Valid Blocks : 196603
 Total Tags : 491520 Threshold : 12288 Invalid Tags : 196615 Pr0 Tags : 98302 Pr1 Tags : 196603 num_pr0 : 12288
 SAE Count : 0
 Inter-Core Inteference in Data Store : 1797730
Heartbeat CPU 0 instructions: 170000002 cycles: 74291717 heartbeat IPC: 2.57908 cumulative IPC: 2.28828 (Simulation time: 15 hr 9 min 27 sec) 
 Total Blocks : 196608 Invalid Blocks : 5 Valid Blocks : 196603
 Total Tags : 491520 Threshold : 12288 Invalid Tags : 196614 Pr0 Tags : 98303 Pr1 Tags : 196603 num_pr0 : 12288
 SAE Count : 0
 Inter-Core Inteference in Data Store : 1797764
Heartbeat CPU 3 instructions: 180000000 cycles: 78163959 heartbeat IPC: 2.57995 cumulative IPC: 2.30285 (Simulation time: 15 hr 46 min 32 sec) 
 Total Blocks : 196608 Invalid Blocks : 1 Valid Blocks : 196607
 Total Tags : 491520 Threshold : 12288 Invalid Tags : 196609 Pr0 Tags : 98304 Pr1 Tags : 196607 num_pr0 : 12288
 SAE Count : 0
 Inter-Core Inteference in Data Store : 1914544
Heartbeat CPU 7 instructions: 180000000 cycles: 78164123 heartbeat IPC: 2.58011 cumulative IPC: 2.30285 (Simulation time: 15 hr 46 min 32 sec) 
 Total Blocks : 196608 Invalid Blocks : 1 Valid Blocks : 196607
 Total Tags : 491520 Threshold : 12288 Invalid Tags : 196609 Pr0 Tags : 98304 Pr1 Tags : 196607 num_pr0 : 12288
 SAE Count : 0
 Inter-Core Inteference in Data Store : 1914547
Heartbeat CPU 5 instructions: 180000000 cycles: 78164628 heartbeat IPC: 2.57986 cumulative IPC: 2.30283 (Simulation time: 15 hr 46 min 33 sec) 
 Total Blocks : 196608 Invalid Blocks : 1 Valid Blocks : 196607
 Total Tags : 491520 Threshold : 12288 Invalid Tags : 196610 Pr0 Tags : 98303 Pr1 Tags : 196607 num_pr0 : 12288
 SAE Count : 0
 Inter-Core Inteference in Data Store : 1914557
Heartbeat CPU 1 instructions: 180000000 cycles: 78164740 heartbeat IPC: 2.5799 cumulative IPC: 2.30283 (Simulation time: 15 hr 46 min 33 sec) 
 Total Blocks : 196608 Invalid Blocks : 1 Valid Blocks : 196607
 Total Tags : 491520 Threshold : 12288 Invalid Tags : 196609 Pr0 Tags : 98304 Pr1 Tags : 196607 num_pr0 : 12288
 SAE Count : 0
 Inter-Core Inteference in Data Store : 1914561
Heartbeat CPU 2 instructions: 180000000 cycles: 78165982 heartbeat IPC: 2.57991 cumulative IPC: 2.30279 (Simulation time: 15 hr 46 min 33 sec) 
 Total Blocks : 196608 Invalid Blocks : 1 Valid Blocks : 196607
 Total Tags : 491520 Threshold : 12288 Invalid Tags : 196609 Pr0 Tags : 98304 Pr1 Tags : 196607 num_pr0 : 12288
 SAE Count : 0
 Inter-Core Inteference in Data Store : 1914604
Heartbeat CPU 4 instructions: 180000000 cycles: 78166660 heartbeat IPC: 2.57968 cumulative IPC: 2.30277 (Simulation time: 15 hr 46 min 33 sec) 
 Total Blocks : 196608 Invalid Blocks : 1 Valid Blocks : 196607
 Total Tags : 491520 Threshold : 12288 Invalid Tags : 196609 Pr0 Tags : 98304 Pr1 Tags : 196607 num_pr0 : 12288
 SAE Count : 0
 Inter-Core Inteference in Data Store : 1914627
Heartbeat CPU 6 instructions: 180000000 cycles: 78166723 heartbeat IPC: 2.58003 cumulative IPC: 2.30277 (Simulation time: 15 hr 46 min 34 sec) 
 Total Blocks : 196608 Invalid Blocks : 1 Valid Blocks : 196607
 Total Tags : 491520 Threshold : 12288 Invalid Tags : 196610 Pr0 Tags : 98303 Pr1 Tags : 196607 num_pr0 : 12287
 SAE Count : 0
 Inter-Core Inteference in Data Store : 1914630
Heartbeat CPU 0 instructions: 180000000 cycles: 78167302 heartbeat IPC: 2.58026 cumulative IPC: 2.30275 (Simulation time: 15 hr 46 min 34 sec) 
 Total Blocks : 196608 Invalid Blocks : 1 Valid Blocks : 196607
 Total Tags : 491520 Threshold : 12288 Invalid Tags : 196609 Pr0 Tags : 98304 Pr1 Tags : 196607 num_pr0 : 12288
 SAE Count : 0
 Inter-Core Inteference in Data Store : 1914644
Heartbeat CPU 7 instructions: 190000000 cycles: 82039493 heartbeat IPC: 2.5804 cumulative IPC: 2.31596 (Simulation time: 16 hr 21 min 35 sec) 
 Total Blocks : 196608 Invalid Blocks : 1 Valid Blocks : 196607
 Total Tags : 491520 Threshold : 12288 Invalid Tags : 196609 Pr0 Tags : 98304 Pr1 Tags : 196607 num_pr0 : 12288
 SAE Count : 0
 Inter-Core Inteference in Data Store : 2029631
Heartbeat CPU 1 instructions: 190000000 cycles: 82040394 heartbeat IPC: 2.58021 cumulative IPC: 2.31593 (Simulation time: 16 hr 21 min 36 sec) 
 Total Blocks : 196608 Invalid Blocks : 1 Valid Blocks : 196607
 Total Tags : 491520 Threshold : 12288 Invalid Tags : 196610 Pr0 Tags : 98303 Pr1 Tags : 196607 num_pr0 : 12287
 SAE Count : 0
 Inter-Core Inteference in Data Store : 2029648
Heartbeat CPU 3 instructions: 190000003 cycles: 82040440 heartbeat IPC: 2.57966 cumulative IPC: 2.31593 (Simulation time: 16 hr 21 min 36 sec) 
 Total Blocks : 196608 Invalid Blocks : 1 Valid Blocks : 196607
 Total Tags : 491520 Threshold : 12288 Invalid Tags : 196610 Pr0 Tags : 98303 Pr1 Tags : 196607 num_pr0 : 12287
 SAE Count : 0
 Inter-Core Inteference in Data Store : 2029648
Heartbeat CPU 5 instructions: 190000000 cycles: 82040788 heartbeat IPC: 2.57987 cumulative IPC: 2.31592 (Simulation time: 16 hr 21 min 36 sec) 
 Total Blocks : 196608 Invalid Blocks : 1 Valid Blocks : 196607
 Total Tags : 491520 Threshold : 12288 Invalid Tags : 196609 Pr0 Tags : 98304 Pr1 Tags : 196607 num_pr0 : 12288
 SAE Count : 0
 Inter-Core Inteference in Data Store : 2029650
Heartbeat CPU 2 instructions: 190000000 cycles: 82042318 heartbeat IPC: 2.57976 cumulative IPC: 2.31588 (Simulation time: 16 hr 21 min 36 sec) 
 Total Blocks : 196608 Invalid Blocks : 1 Valid Blocks : 196607
 Total Tags : 491520 Threshold : 12288 Invalid Tags : 196609 Pr0 Tags : 98304 Pr1 Tags : 196607 num_pr0 : 12288
 SAE Count : 0
 Inter-Core Inteference in Data Store : 2029678
Heartbeat CPU 4 instructions: 190000000 cycles: 82042639 heartbeat IPC: 2.57999 cumulative IPC: 2.31587 (Simulation time: 16 hr 21 min 37 sec) 
 Total Blocks : 196608 Invalid Blocks : 1 Valid Blocks : 196607
 Total Tags : 491520 Threshold : 12288 Invalid Tags : 196610 Pr0 Tags : 98303 Pr1 Tags : 196607 num_pr0 : 12288
 SAE Count : 0
 Inter-Core Inteference in Data Store : 2029693
Heartbeat CPU 6 instructions: 190000000 cycles: 82042862 heartbeat IPC: 2.57989 cumulative IPC: 2.31586 (Simulation time: 16 hr 21 min 37 sec) 
 Total Blocks : 196608 Invalid Blocks : 1 Valid Blocks : 196607
 Total Tags : 491520 Threshold : 12288 Invalid Tags : 196610 Pr0 Tags : 98303 Pr1 Tags : 196607 num_pr0 : 12288
 SAE Count : 0
 Inter-Core Inteference in Data Store : 2029715
Heartbeat CPU 0 instructions: 190000000 cycles: 82043490 heartbeat IPC: 2.57985 cumulative IPC: 2.31585 (Simulation time: 16 hr 21 min 37 sec) 
 Total Blocks : 196608 Invalid Blocks : 1 Valid Blocks : 196607
 Total Tags : 491520 Threshold : 12288 Invalid Tags : 196610 Pr0 Tags : 98303 Pr1 Tags : 196607 num_pr0 : 12288
 SAE Count : 0
 Inter-Core Inteference in Data Store : 2029741
Heartbeat CPU 7 instructions: 200000001 cycles: 85918713 heartbeat IPC: 2.57784 cumulative IPC: 2.32778 (Simulation time: 16 hr 55 min 35 sec) 
 Total Blocks : 196608 Invalid Blocks : 1 Valid Blocks : 196607
 Total Tags : 491520 Threshold : 12288 Invalid Tags : 196609 Pr0 Tags : 98304 Pr1 Tags : 196607 num_pr0 : 12288
 SAE Count : 0
 Inter-Core Inteference in Data Store : 2147713
Heartbeat CPU 1 instructions: 200000001 cycles: 85919174 heartbeat IPC: 2.57813 cumulative IPC: 2.32777 (Simulation time: 16 hr 55 min 36 sec) 
 Total Blocks : 196608 Invalid Blocks : 1 Valid Blocks : 196607
 Total Tags : 491520 Threshold : 12288 Invalid Tags : 196609 Pr0 Tags : 98304 Pr1 Tags : 196607 num_pr0 : 12288
 SAE Count : 0
 Inter-Core Inteference in Data Store : 2147724
Heartbeat CPU 5 instructions: 200000001 cycles: 85919310 heartbeat IPC: 2.5783 cumulative IPC: 2.32777 (Simulation time: 16 hr 55 min 36 sec) 
 Total Blocks : 196608 Invalid Blocks : 1 Valid Blocks : 196607
 Total Tags : 491520 Threshold : 12288 Invalid Tags : 196611 Pr0 Tags : 98302 Pr1 Tags : 196607 num_pr0 : 12288
 SAE Count : 0
 Inter-Core Inteference in Data Store : 2147731
Heartbeat CPU 3 instructions: 200000001 cycles: 85919900 heartbeat IPC: 2.57768 cumulative IPC: 2.32775 (Simulation time: 16 hr 55 min 36 sec) 
 Total Blocks : 196608 Invalid Blocks : 1 Valid Blocks : 196607
 Total Tags : 491520 Threshold : 12288 Invalid Tags : 196611 Pr0 Tags : 98302 Pr1 Tags : 196607 num_pr0 : 12287
 SAE Count : 0
 Inter-Core Inteference in Data Store : 2147768
Heartbeat CPU 4 instructions: 200000001 cycles: 85921518 heartbeat IPC: 2.57806 cumulative IPC: 2.32771 (Simulation time: 16 hr 55 min 37 sec) 
 Total Blocks : 196608 Invalid Blocks : 1 Valid Blocks : 196607
 Total Tags : 491520 Threshold : 12288 Invalid Tags : 196609 Pr0 Tags : 98304 Pr1 Tags : 196607 num_pr0 : 12288
 SAE Count : 0
 Inter-Core Inteference in Data Store : 2147827
Heartbeat CPU 2 instructions: 200000001 cycles: 85921664 heartbeat IPC: 2.57775 cumulative IPC: 2.3277 (Simulation time: 16 hr 55 min 37 sec) 
 Total Blocks : 196608 Invalid Blocks : 1 Valid Blocks : 196607
 Total Tags : 491520 Threshold : 12288 Invalid Tags : 196609 Pr0 Tags : 98304 Pr1 Tags : 196607 num_pr0 : 12288
 SAE Count : 0
 Inter-Core Inteference in Data Store : 2147833
Heartbeat CPU 6 instructions: 200000001 cycles: 85922266 heartbeat IPC: 2.57772 cumulative IPC: 2.32769 (Simulation time: 16 hr 55 min 37 sec) 
 Total Blocks : 196608 Invalid Blocks : 1 Valid Blocks : 196607
 Total Tags : 491520 Threshold : 12288 Invalid Tags : 196609 Pr0 Tags : 98304 Pr1 Tags : 196607 num_pr0 : 12288
 SAE Count : 0
 Inter-Core Inteference in Data Store : 2147857
Heartbeat CPU 0 instructions: 200000001 cycles: 85922860 heartbeat IPC: 2.57774 cumulative IPC: 2.32767 (Simulation time: 16 hr 55 min 37 sec) 
 Total Blocks : 196608 Invalid Blocks : 1 Valid Blocks : 196607
 Total Tags : 491520 Threshold : 12288 Invalid Tags : 196609 Pr0 Tags : 98304 Pr1 Tags : 196607 num_pr0 : 12288
 SAE Count : 0
 Inter-Core Inteference in Data Store : 2147872

Warmup complete CPU 0 instructions: 200000001 cycles: 85922860 (Simulation time: 16 hr 55 min 37 sec) 
Warmup complete CPU 1 instructions: 200009568 cycles: 85922859 (Simulation time: 16 hr 55 min 37 sec) 
Warmup complete CPU 2 instructions: 200003195 cycles: 85922859 (Simulation time: 16 hr 55 min 37 sec) 
Warmup complete CPU 3 instructions: 200007447 cycles: 85922859 (Simulation time: 16 hr 55 min 37 sec) 
Warmup complete CPU 4 instructions: 200003476 cycles: 85922859 (Simulation time: 16 hr 55 min 37 sec) 
Warmup complete CPU 5 instructions: 200009251 cycles: 85922859 (Simulation time: 16 hr 55 min 37 sec) 
Warmup complete CPU 6 instructions: 200001475 cycles: 85922859 (Simulation time: 16 hr 55 min 37 sec) 
Warmup complete CPU 7 instructions: 200010553 cycles: 85922859 (Simulation time: 16 hr 55 min 37 sec) 

Heartbeat CPU 0 instructions: 210000002 cycles: 93250385 heartbeat IPC: 1.36472 cumulative IPC: 1.36472 (Simulation time: 17 hr 29 min 14 sec) 
 Total Blocks : 196608 Invalid Blocks : 1 Valid Blocks : 196607
 Total Tags : 491520 Threshold : 12288 Invalid Tags : 196610 Pr0 Tags : 98303 Pr1 Tags : 196607 num_pr0 : 12288
 SAE Count : 0
 Inter-Core Inteference in Data Store : 104162
Heartbeat CPU 7 instructions: 210000002 cycles: 93580714 heartbeat IPC: 1.30514 cumulative IPC: 1.30447 (Simulation time: 17 hr 30 min 49 sec) 
 Total Blocks : 196608 Invalid Blocks : 1 Valid Blocks : 196607
 Total Tags : 491520 Threshold : 12288 Invalid Tags : 196609 Pr0 Tags : 98304 Pr1 Tags : 196607 num_pr0 : 12288
 SAE Count : 0
 Inter-Core Inteference in Data Store : 108743
Heartbeat CPU 3 instructions: 210000002 cycles: 93729571 heartbeat IPC: 1.28046 cumulative IPC: 1.28 (Simulation time: 17 hr 31 min 30 sec) 
 Total Blocks : 196608 Invalid Blocks : 1 Valid Blocks : 196607
 Total Tags : 491520 Threshold : 12288 Invalid Tags : 196609 Pr0 Tags : 98304 Pr1 Tags : 196607 num_pr0 : 12288
 SAE Count : 0
 Inter-Core Inteference in Data Store : 110775
Heartbeat CPU 4 instructions: 210000002 cycles: 93805011 heartbeat IPC: 1.26847 cumulative IPC: 1.26825 (Simulation time: 17 hr 31 min 50 sec) 
 Total Blocks : 196608 Invalid Blocks : 1 Valid Blocks : 196607
 Total Tags : 491520 Threshold : 12288 Invalid Tags : 196611 Pr0 Tags : 98302 Pr1 Tags : 196607 num_pr0 : 12287
 SAE Count : 0
 Inter-Core Inteference in Data Store : 111825
Heartbeat CPU 1 instructions: 210000002 cycles: 94026352 heartbeat IPC: 1.23347 cumulative IPC: 1.23286 (Simulation time: 17 hr 32 min 45 sec) 
 Total Blocks : 196608 Invalid Blocks : 1 Valid Blocks : 196607
 Total Tags : 491520 Threshold : 12288 Invalid Tags : 196610 Pr0 Tags : 98303 Pr1 Tags : 196607 num_pr0 : 12288
 SAE Count : 0
 Inter-Core Inteference in Data Store : 114985
Heartbeat CPU 2 instructions: 210000002 cycles: 94730197 heartbeat IPC: 1.13526 cumulative IPC: 1.13505 (Simulation time: 17 hr 35 min 50 sec) 
 Total Blocks : 196608 Invalid Blocks : 1 Valid Blocks : 196607
 Total Tags : 491520 Threshold : 12288 Invalid Tags : 196610 Pr0 Tags : 98303 Pr1 Tags : 196607 num_pr0 : 12287
 SAE Count : 0
 Inter-Core Inteference in Data Store : 125001
Heartbeat CPU 6 instructions: 210000000 cycles: 94825123 heartbeat IPC: 1.12323 cumulative IPC: 1.12314 (Simulation time: 17 hr 36 min 16 sec) 
 Total Blocks : 196608 Invalid Blocks : 1 Valid Blocks : 196607
 Total Tags : 491520 Threshold : 12288 Invalid Tags : 196610 Pr0 Tags : 98303 Pr1 Tags : 196607 num_pr0 : 12288
 SAE Count : 0
 Inter-Core Inteference in Data Store : 126318
Heartbeat CPU 5 instructions: 210000002 cycles: 95044594 heartbeat IPC: 1.09586 cumulative IPC: 1.09527 (Simulation time: 17 hr 37 min 22 sec) 
 Total Blocks : 196608 Invalid Blocks : 1 Valid Blocks : 196607
 Total Tags : 491520 Threshold : 12288 Invalid Tags : 196609 Pr0 Tags : 98304 Pr1 Tags : 196607 num_pr0 : 12288
 SAE Count : 0
 Inter-Core Inteference in Data Store : 129517
Heartbeat CPU 0 instructions: 220000000 cycles: 100780152 heartbeat IPC: 1.32806 cumulative IPC: 1.34614 (Simulation time: 18 hr 2 min 50 sec) 
 Total Blocks : 196608 Invalid Blocks : 1 Valid Blocks : 196607
 Total Tags : 491520 Threshold : 12288 Invalid Tags : 196609 Pr0 Tags : 98304 Pr1 Tags : 196607 num_pr0 : 12288
 SAE Count : 0
 Inter-Core Inteference in Data Store : 211939
Heartbeat CPU 4 instructions: 220000000 cycles: 101301145 heartbeat IPC: 1.33402 cumulative IPC: 1.30031 (Simulation time: 18 hr 5 min 2 sec) 
 Total Blocks : 196608 Invalid Blocks : 1 Valid Blocks : 196607
 Total Tags : 491520 Threshold : 12288 Invalid Tags : 196609 Pr0 Tags : 98304 Pr1 Tags : 196607 num_pr0 : 12288
 SAE Count : 0
 Inter-Core Inteference in Data Store : 219567
Heartbeat CPU 7 instructions: 220000000 cycles: 101703643 heartbeat IPC: 1.23108 cumulative IPC: 1.2667 (Simulation time: 18 hr 6 min 31 sec) 
 Total Blocks : 196608 Invalid Blocks : 1 Valid Blocks : 196607
 Total Tags : 491520 Threshold : 12288 Invalid Tags : 196610 Pr0 Tags : 98303 Pr1 Tags : 196607 num_pr0 : 12287
 SAE Count : 0
 Inter-Core Inteference in Data Store : 225345
Heartbeat CPU 3 instructions: 220000000 cycles: 102442243 heartbeat IPC: 1.14775 cumulative IPC: 1.21025 (Simulation time: 18 hr 9 min 21 sec) 
 Total Blocks : 196608 Invalid Blocks : 1 Valid Blocks : 196607
 Total Tags : 491520 Threshold : 12288 Invalid Tags : 196609 Pr0 Tags : 98304 Pr1 Tags : 196607 num_pr0 : 12288
 SAE Count : 0
 Inter-Core Inteference in Data Store : 235596
Heartbeat CPU 1 instructions: 220000000 cycles: 102604722 heartbeat IPC: 1.16572 cumulative IPC: 1.19833 (Simulation time: 18 hr 9 min 57 sec) 
 Total Blocks : 196608 Invalid Blocks : 1 Valid Blocks : 196607
 Total Tags : 491520 Threshold : 12288 Invalid Tags : 196609 Pr0 Tags : 98304 Pr1 Tags : 196607 num_pr0 : 12288
 SAE Count : 0
 Inter-Core Inteference in Data Store : 237699
Heartbeat CPU 2 instructions: 220000000 cycles: 103180993 heartbeat IPC: 1.18332 cumulative IPC: 1.15869 (Simulation time: 18 hr 12 min 13 sec) 
 Total Blocks : 196608 Invalid Blocks : 0 Valid Blocks : 196608
 Total Tags : 491520 Threshold : 12288 Invalid Tags : 196608 Pr0 Tags : 98304 Pr1 Tags : 196608 num_pr0 : 12288
 SAE Count : 0
 Inter-Core Inteference in Data Store : 245345
Heartbeat CPU 5 instructions: 220000000 cycles: 103225000 heartbeat IPC: 1.22243 cumulative IPC: 1.15539 (Simulation time: 18 hr 12 min 24 sec) 
 Total Blocks : 196608 Invalid Blocks : 0 Valid Blocks : 196608
 Total Tags : 491520 Threshold : 12288 Invalid Tags : 196608 Pr0 Tags : 98304 Pr1 Tags : 196608 num_pr0 : 12288
 SAE Count : 0
 Inter-Core Inteference in Data Store : 245949
Heartbeat CPU 6 instructions: 220000000 cycles: 103491737 heartbeat IPC: 1.15385 cumulative IPC: 1.13829 (Simulation time: 18 hr 13 min 31 sec) 
 Total Blocks : 196608 Invalid Blocks : 0 Valid Blocks : 196608
 Total Tags : 491520 Threshold : 12288 Invalid Tags : 196609 Pr0 Tags : 98303 Pr1 Tags : 196608 num_pr0 : 12288
 SAE Count : 0
 Inter-Core Inteference in Data Store : 249628
Heartbeat CPU 0 instructions: 230000001 cycles: 109350215 heartbeat IPC: 1.16685 cumulative IPC: 1.28055 (Simulation time: 18 hr 37 min 59 sec) 
 Total Blocks : 196608 Invalid Blocks : 0 Valid Blocks : 196608
 Total Tags : 491520 Threshold : 12288 Invalid Tags : 196608 Pr0 Tags : 98304 Pr1 Tags : 196608 num_pr0 : 12288
 SAE Count : 0
 Inter-Core Inteference in Data Store : 332040
Heartbeat CPU 7 instructions: 230000001 cycles: 110102523 heartbeat IPC: 1.19064 cumulative IPC: 1.24028 (Simulation time: 18 hr 41 min 10 sec) 
 Total Blocks : 196608 Invalid Blocks : 0 Valid Blocks : 196608
 Total Tags : 491520 Threshold : 12288 Invalid Tags : 196609 Pr0 Tags : 98303 Pr1 Tags : 196608 num_pr0 : 12288
 SAE Count : 0
 Inter-Core Inteference in Data Store : 342270
Heartbeat CPU 4 instructions: 230000001 cycles: 110151273 heartbeat IPC: 1.12993 cumulative IPC: 1.23807 (Simulation time: 18 hr 41 min 22 sec) 
 Total Blocks : 196608 Invalid Blocks : 0 Valid Blocks : 196608
 Total Tags : 491520 Threshold : 12288 Invalid Tags : 196608 Pr0 Tags : 98304 Pr1 Tags : 196608 num_pr0 : 12288
 SAE Count : 0
 Inter-Core Inteference in Data Store : 342966
Heartbeat CPU 3 instructions: 230000001 cycles: 110368129 heartbeat IPC: 1.26169 cumulative IPC: 1.22693 (Simulation time: 18 hr 42 min 6 sec) 
 Total Blocks : 196608 Invalid Blocks : 0 Valid Blocks : 196608
 Total Tags : 491520 Threshold : 12288 Invalid Tags : 196610 Pr0 Tags : 98302 Pr1 Tags : 196608 num_pr0 : 12287
 SAE Count : 0
 Inter-Core Inteference in Data Store : 346106
Heartbeat CPU 1 instructions: 230000001 cycles: 110517512 heartbeat IPC: 1.26378 cumulative IPC: 1.21939 (Simulation time: 18 hr 42 min 51 sec) 
 Total Blocks : 196608 Invalid Blocks : 0 Valid Blocks : 196608
 Total Tags : 491520 Threshold : 12288 Invalid Tags : 196608 Pr0 Tags : 98304 Pr1 Tags : 196608 num_pr0 : 12288
 SAE Count : 0
 Inter-Core Inteference in Data Store : 348159
Heartbeat CPU 2 instructions: 230000001 cycles: 111321020 heartbeat IPC: 1.2285 cumulative IPC: 1.18106 (Simulation time: 18 hr 46 min 23 sec) 
 Total Blocks : 196608 Invalid Blocks : 0 Valid Blocks : 196608
 Total Tags : 491520 Threshold : 12288 Invalid Tags : 196608 Pr0 Tags : 98304 Pr1 Tags : 196608 num_pr0 : 12288
 SAE Count : 0
 Inter-Core Inteference in Data Store : 359713
Heartbeat CPU 6 instructions: 230000001 cycles: 112001836 heartbeat IPC: 1.17507 cumulative IPC: 1.1503 (Simulation time: 18 hr 49 min 20 sec) 
 Total Blocks : 196608 Invalid Blocks : 0 Valid Blocks : 196608
 Total Tags : 491520 Threshold : 12288 Invalid Tags : 196608 Pr0 Tags : 98304 Pr1 Tags : 196608 num_pr0 : 12288
 SAE Count : 0
 Inter-Core Inteference in Data Store : 369362
Heartbeat CPU 5 instructions: 230000001 cycles: 112027248 heartbeat IPC: 1.13607 cumulative IPC: 1.14888 (Simulation time: 18 hr 49 min 26 sec) 
 Total Blocks : 196608 Invalid Blocks : 0 Valid Blocks : 196608
 Total Tags : 491520 Threshold : 12288 Invalid Tags : 196609 Pr0 Tags : 98303 Pr1 Tags : 196608 num_pr0 : 12288
 SAE Count : 0
 Inter-Core Inteference in Data Store : 369667
Heartbeat CPU 0 instructions: 240000003 cycles: 117463850 heartbeat IPC: 1.23249 cumulative IPC: 1.26819 (Simulation time: 19 hr 13 min 59 sec) 
 Total Blocks : 196608 Invalid Blocks : 0 Valid Blocks : 196608
 Total Tags : 491520 Threshold : 12288 Invalid Tags : 196608 Pr0 Tags : 98304 Pr1 Tags : 196608 num_pr0 : 12288
 SAE Count : 0
 Inter-Core Inteference in Data Store : 446541
Heartbeat CPU 1 instructions: 240000003 cycles: 117979687 heartbeat IPC: 1.34009 cumulative IPC: 1.24749 (Simulation time: 19 hr 16 min 31 sec) 
 Total Blocks : 196608 Invalid Blocks : 0 Valid Blocks : 196608
 Total Tags : 491520 Threshold : 12288 Invalid Tags : 196608 Pr0 Tags : 98304 Pr1 Tags : 196608 num_pr0 : 12288
 SAE Count : 0
 Inter-Core Inteference in Data Store : 453404
Heartbeat CPU 7 instructions: 240000003 cycles: 118202464 heartbeat IPC: 1.23458 cumulative IPC: 1.23885 (Simulation time: 19 hr 17 min 32 sec) 
 Total Blocks : 196608 Invalid Blocks : 0 Valid Blocks : 196608
 Total Tags : 491520 Threshold : 12288 Invalid Tags : 196608 Pr0 Tags : 98304 Pr1 Tags : 196608 num_pr0 : 12288
 SAE Count : 0
 Inter-Core Inteference in Data Store : 456374
Heartbeat CPU 3 instructions: 240000003 cycles: 118581745 heartbeat IPC: 1.21749 cumulative IPC: 1.22455 (Simulation time: 19 hr 18 min 59 sec) 
 Total Blocks : 196608 Invalid Blocks : 0 Valid Blocks : 196608
 Total Tags : 491520 Threshold : 12288 Invalid Tags : 196609 Pr0 Tags : 98303 Pr1 Tags : 196608 num_pr0 : 12288
 SAE Count : 0
 Inter-Core Inteference in Data Store : 461802
Heartbeat CPU 2 instructions: 240000003 cycles: 118888808 heartbeat IPC: 1.32139 cumulative IPC: 1.21328 (Simulation time: 19 hr 20 min 18 sec) 
 Total Blocks : 196608 Invalid Blocks : 0 Valid Blocks : 196608
 Total Tags : 491520 Threshold : 12288 Invalid Tags : 196609 Pr0 Tags : 98303 Pr1 Tags : 196608 num_pr0 : 12288
 SAE Count : 0
 Inter-Core Inteference in Data Store : 466306
Heartbeat CPU 4 instructions: 240000003 cycles: 119282091 heartbeat IPC: 1.09519 cumulative IPC: 1.19896 (Simulation time: 19 hr 22 min 2 sec) 
 Total Blocks : 196608 Invalid Blocks : 0 Valid Blocks : 196608
 Total Tags : 491520 Threshold : 12288 Invalid Tags : 196610 Pr0 Tags : 98302 Pr1 Tags : 196608 num_pr0 : 12288
 SAE Count : 0
 Inter-Core Inteference in Data Store : 471532
Heartbeat CPU 5 instructions: 240000003 cycles: 119927668 heartbeat IPC: 1.26576 cumulative IPC: 1.17603 (Simulation time: 19 hr 24 min 42 sec) 
 Total Blocks : 196608 Invalid Blocks : 0 Valid Blocks : 196608
 Total Tags : 491520 Threshold : 12288 Invalid Tags : 196608 Pr0 Tags : 98304 Pr1 Tags : 196608 num_pr0 : 12288
 SAE Count : 0
 Inter-Core Inteference in Data Store : 480771
Heartbeat CPU 6 instructions: 240000003 cycles: 120384870 heartbeat IPC: 1.19289 cumulative IPC: 1.16066 (Simulation time: 19 hr 26 min 43 sec) 
 Total Blocks : 196608 Invalid Blocks : 0 Valid Blocks : 196608
 Total Tags : 491520 Threshold : 12288 Invalid Tags : 196609 Pr0 Tags : 98303 Pr1 Tags : 196608 num_pr0 : 12288
 SAE Count : 0
 Inter-Core Inteference in Data Store : 487867
Heartbeat CPU 0 instructions: 250000003 cycles: 125220518 heartbeat IPC: 1.28921 cumulative IPC: 1.27234 (Simulation time: 19 hr 46 min 23 sec) 
 Total Blocks : 196608 Invalid Blocks : 0 Valid Blocks : 196608
 Total Tags : 491520 Threshold : 12288 Invalid Tags : 196608 Pr0 Tags : 98304 Pr1 Tags : 196608 num_pr0 : 12288
 SAE Count : 0
 Inter-Core Inteference in Data Store : 556835
Heartbeat CPU 2 instructions: 250000002 cycles: 126669194 heartbeat IPC: 1.28528 cumulative IPC: 1.22703 (Simulation time: 19 hr 51 min 52 sec) 
 Total Blocks : 196608 Invalid Blocks : 0 Valid Blocks : 196608
 Total Tags : 491520 Threshold : 12288 Invalid Tags : 196608 Pr0 Tags : 98304 Pr1 Tags : 196608 num_pr0 : 12288
 SAE Count : 0
 Inter-Core Inteference in Data Store : 576879
Heartbeat CPU 1 instructions: 250000002 cycles: 126775909 heartbeat IPC: 1.13685 cumulative IPC: 1.22366 (Simulation time: 19 hr 52 min 15 sec) 
 Total Blocks : 196608 Invalid Blocks : 0 Valid Blocks : 196608
 Total Tags : 491520 Threshold : 12288 Invalid Tags : 196608 Pr0 Tags : 98304 Pr1 Tags : 196608 num_pr0 : 12288
 SAE Count : 0
 Inter-Core Inteference in Data Store : 578393
Heartbeat CPU 7 instructions: 250000002 cycles: 126860818 heartbeat IPC: 1.15495 cumulative IPC: 1.2211 (Simulation time: 19 hr 52 min 37 sec) 
 Total Blocks : 196608 Invalid Blocks : 0 Valid Blocks : 196608
 Total Tags : 491520 Threshold : 12288 Invalid Tags : 196608 Pr0 Tags : 98304 Pr1 Tags : 196608 num_pr0 : 12288
 SAE Count : 0
 Inter-Core Inteference in Data Store : 579593
Heartbeat CPU 3 instructions: 250000002 cycles: 127118283 heartbeat IPC: 1.17143 cumulative IPC: 1.21355 (Simulation time: 19 hr 53 min 34 sec) 
 Total Blocks : 196608 Invalid Blocks : 0 Valid Blocks : 196608
 Total Tags : 491520 Threshold : 12288 Invalid Tags : 196608 Pr0 Tags : 98304 Pr1 Tags : 196608 num_pr0 : 12288
 SAE Count : 0
 Inter-Core Inteference in Data Store : 583182
Heartbeat CPU 4 instructions: 250000003 cycles: 127795849 heartbeat IPC: 1.17457 cumulative IPC: 1.194 (Simulation time: 19 hr 56 min 7 sec) 
 Total Blocks : 196608 Invalid Blocks : 0 Valid Blocks : 196608
 Total Tags : 491520 Threshold : 12288 Invalid Tags : 196609 Pr0 Tags : 98303 Pr1 Tags : 196608 num_pr0 : 12288
 SAE Count : 0
 Inter-Core Inteference in Data Store : 592931
Heartbeat CPU 5 instructions: 250000003 cycles: 128299883 heartbeat IPC: 1.19443 cumulative IPC: 1.17967 (Simulation time: 19 hr 58 min 0 sec) 
[...]
LLC3 Inter-Core Interference : 301767
LLC4 TOTAL     ACCESS: 354056  HIT: 107297  MISS: 246759  HIT %: 30.3051  MISS %: 69.6949  AVERAGE MISS PENALTY: 530.066
LLC4 LOAD      ACCESS: 50958  HIT: 40236  MISS: 10722  HIT %: 78.9591  MISS %: 21.0409  AVERAGE MISS PENALTY: 683.249
LLC4 RFO       ACCESS:  7683  HIT:  7033  MISS:   650  HIT %: 91.5398  MISS %: 8.46024  AVERAGE MISS PENALTY: 584.328
LLC4 PREFETCH  ACCESS: 265284  HIT: 51544  MISS: 213740  HIT %: 19.4297  MISS %: 80.5703  AVERAGE MISS PENALTY: 575.9
LLC4 WRITEBACK ACCESS: 30131  HIT:  8484  MISS: 21647  HIT %: 28.157  MISS %: 71.843  AVERAGE MISS PENALTY: 0
LLC4 PREFETCH  REQUESTED:     0  ISSUED:     0  USEFUL: 30914  USELESS: 95332
 USEFUL LOAD PREFETCHES:      30914 PREFETCH ISSUED TO LOWER LEVEL:   17714163  ACCURACY: 0.174516
 TIMELY PREFETCHES:      30914 LATE PREFETCHES: 0 DROPPED PREFETCHES: 0
LLC4 AVERAGE MISS LATENCY: 530.066 cycles

LLC4 Set Associative Eviction Count : 0
LLC4 Priority 0 entries : 12288
LLC4 Inter-Core Interference : 301456
LLC5 TOTAL     ACCESS: 353721  HIT: 106964  MISS: 246757  HIT %: 30.2397  MISS %: 69.7603  AVERAGE MISS PENALTY: 528.608
LLC5 LOAD      ACCESS: 50894  HIT: 39846  MISS: 11048  HIT %: 78.2921  MISS %: 21.7079  AVERAGE MISS PENALTY: 673.525
LLC5 RFO       ACCESS:  7674  HIT:  7053  MISS:   621  HIT %: 91.9077  MISS %: 8.09226  AVERAGE MISS PENALTY: 633
LLC5 PREFETCH  ACCESS: 265006  HIT: 51602  MISS: 213404  HIT %: 19.472  MISS %: 80.528  AVERAGE MISS PENALTY: 574.514
LLC5 WRITEBACK ACCESS: 30147  HIT:  8463  MISS: 21684  HIT %: 28.0724  MISS %: 71.9276  AVERAGE MISS PENALTY: 0
LLC5 PREFETCH  REQUESTED:     0  ISSUED:     0  USEFUL: 31132  USELESS: 94885
 USEFUL LOAD PREFETCHES:      31132 PREFETCH ISSUED TO LOWER LEVEL:   19805806  ACCURACY: 0.157186
 TIMELY PREFETCHES:      31132 LATE PREFETCHES: 0 DROPPED PREFETCHES: 0
LLC5 AVERAGE MISS LATENCY: 528.608 cycles

LLC5 Set Associative Eviction Count : 0
LLC5 Priority 0 entries : 12288
LLC5 Inter-Core Interference : 301330
LLC6 TOTAL     ACCESS: 354538  HIT: 107755  MISS: 246783  HIT %: 30.3931  MISS %: 69.6069  AVERAGE MISS PENALTY: 527.764
LLC6 LOAD      ACCESS: 51230  HIT: 40382  MISS: 10848  HIT %: 78.8249  MISS %: 21.1751  AVERAGE MISS PENALTY: 648.346
LLC6 RFO       ACCESS:  7704  HIT:  7097  MISS:   607  HIT %: 92.121  MISS %: 7.87902  AVERAGE MISS PENALTY: 680.048
LLC6 PREFETCH  ACCESS: 265272  HIT: 51657  MISS: 213615  HIT %: 19.4732  MISS %: 80.5268  AVERAGE MISS PENALTY: 574.853
LLC6 WRITEBACK ACCESS: 30332  HIT:  8619  MISS: 21713  HIT %: 28.4155  MISS %: 71.5845  AVERAGE MISS PENALTY: 0
LLC6 PREFETCH  REQUESTED:     0  ISSUED:     0  USEFUL: 31139  USELESS: 95379
 USEFUL LOAD PREFETCHES:      31139 PREFETCH ISSUED TO LOWER LEVEL:   23022009  ACCURACY: 0.135258
 TIMELY PREFETCHES:      31139 LATE PREFETCHES: 0 DROPPED PREFETCHES: 0
LLC6 AVERAGE MISS LATENCY: 527.764 cycles

LLC6 Set Associative Eviction Count : 0
LLC6 Priority 0 entries : 12287
LLC6 Inter-Core Interference : 301927
LLC7 TOTAL     ACCESS: 355443  HIT: 108587  MISS: 246856  HIT %: 30.5498  MISS %: 69.4502  AVERAGE MISS PENALTY: 529.57
LLC7 LOAD      ACCESS: 50983  HIT: 40270  MISS: 10713  HIT %: 78.9871  MISS %: 21.0129  AVERAGE MISS PENALTY: 675.757
LLC7 RFO       ACCESS:  7748  HIT:  7161  MISS:   587  HIT %: 92.4239  MISS %: 7.57615  AVERAGE MISS PENALTY: 674.76
LLC7 PREFETCH  ACCESS: 266135  HIT: 52281  MISS: 213854  HIT %: 19.6445  MISS %: 80.3555  AVERAGE MISS PENALTY: 575.589
LLC7 WRITEBACK ACCESS: 30577  HIT:  8875  MISS: 21702  HIT %: 29.0251  MISS %: 70.9749  AVERAGE MISS PENALTY: 0
LLC7 PREFETCH  REQUESTED:     0  ISSUED:     0  USEFUL: 31488  USELESS: 95121
 USEFUL LOAD PREFETCHES:      31488 PREFETCH ISSUED TO LOWER LEVEL:   26316890  ACCURACY: 0.119649
 TIMELY PREFETCHES:      31488 LATE PREFETCHES: 0 DROPPED PREFETCHES: 0
LLC7 AVERAGE MISS LATENCY: 529.57 cycles

LLC7 Set Associative Eviction Count : 0
LLC7 Priority 0 entries : 12288
LLC7 Inter-Core Interference : 301783
ROI Average ROB Stall Cycles:	6.95025
ROI Total ROB Stalls Cycles:	126671412
ROI TOTAL ROB counter      :	18225441
ROI Average Load ROB Stall Cycles:	34.6184
ROI Total Load ROB Stalls Cycle  :	67758519
ROI Total Load ROB stalls Counter:	1957297
Major fault: 0 Minor fault: 21701

CPU 7 cumulative IPC: 1.19627 instructions: 200000001 cycles: 167186956
ITLB TOTAL     ACCESS: 35682056  HIT: 35682056  MISS:     0  HIT %:   100  MISS %:     0  AVERAGE MISS PENALTY: 0
ITLB LOAD      ACCESS: 35682056  HIT: 35682056  MISS:     0  HIT %:   100  MISS %:     0  AVERAGE MISS PENALTY: 0
ITLB RFO       ACCESS:     0  HIT:     0  MISS:     0  HIT %:     0  MISS %:     0  AVERAGE MISS PENALTY: 0
ITLB PREFETCH  ACCESS:     0  HIT:     0  MISS:     0  HIT %:     0  MISS %:     0  AVERAGE MISS PENALTY: 0
ITLB WRITEBACK ACCESS:     0  HIT:     0  MISS:     0  HIT %:     0  MISS %:     0  AVERAGE MISS PENALTY: 0
ITLB PREFETCH  REQUESTED:     0  ISSUED:     0  USEFUL:     0  USELESS:     0
 USEFUL LOAD PREFETCHES:          0 PREFETCH ISSUED TO LOWER LEVEL:          0  ACCURACY: -nan
 TIMELY PREFETCHES:          0 LATE PREFETCHES: 0 DROPPED PREFETCHES: 0
ITLB AVERAGE MISS LATENCY: -nan cycles

ITLB Set Associative Eviction Count : 0
ITLB Priority 0 entries : 0
ITLB Inter-Core Interference : 0
DTLB TOTAL     ACCESS: 39714158  HIT: 24633198  MISS: 15080960  HIT %: 62.0262  MISS %: 37.9738  AVERAGE MISS PENALTY: 10.2308
DTLB LOAD      ACCESS: 27969280  HIT: 14354104  MISS: 13615176  HIT %: 51.321  MISS %: 48.679  AVERAGE MISS PENALTY: 10.2876
DTLB RFO       ACCESS: 11744878  HIT: 10279094  MISS: 1465784  HIT %: 87.5198  MISS %: 12.4802  AVERAGE MISS PENALTY: 9.70305
DTLB PREFETCH  ACCESS:     0  HIT:     0  MISS:     0  HIT %:     0  MISS %:     0  AVERAGE MISS PENALTY: 0
DTLB WRITEBACK ACCESS:     0  HIT:     0  MISS:     0  HIT %:     0  MISS %:     0  AVERAGE MISS PENALTY: 0
DTLB PREFETCH  REQUESTED:     0  ISSUED:     0  USEFUL:     0  USELESS:     0
 USEFUL LOAD PREFETCHES:          0 PREFETCH ISSUED TO LOWER LEVEL:          0  ACCURACY: -nan
 TIMELY PREFETCHES:          0 LATE PREFETCHES: 0 DROPPED PREFETCHES: 0
DTLB AVERAGE MISS LATENCY: 10.2308 cycles

DTLB Set Associative Eviction Count : 0
DTLB Priority 0 entries : 0
DTLB Inter-Core Interference : 0
STLB TOTAL     ACCESS: 15080961  HIT: 15056604  MISS: 24357  HIT %: 99.8385  MISS %: 0.161508  AVERAGE MISS PENALTY: 100
STLB LOAD      ACCESS: 13615177  HIT: 13590824  MISS: 24353  HIT %: 99.8211  MISS %: 0.178867  AVERAGE MISS PENALTY: 100
STLB RFO       ACCESS: 1465784  HIT: 1465780  MISS:     4  HIT %: 99.9997  MISS %: 0.000272892  AVERAGE MISS PENALTY: 100
STLB PREFETCH  ACCESS:     0  HIT:     0  MISS:     0  HIT %:     0  MISS %:     0  AVERAGE MISS PENALTY: 0
STLB WRITEBACK ACCESS:     0  HIT:     0  MISS:     0  HIT %:     0  MISS %:     0  AVERAGE MISS PENALTY: 0
STLB PREFETCH  REQUESTED:     0  ISSUED:     0  USEFUL:     0  USELESS:     0
 USEFUL LOAD PREFETCHES:          0 PREFETCH ISSUED TO LOWER LEVEL:          0  ACCURACY: -nan
 TIMELY PREFETCHES:          0 LATE PREFETCHES: 0 DROPPED PREFETCHES: 0
STLB AVERAGE MISS LATENCY: 100 cycles

STLB Set Associative Eviction Count : 0
STLB Priority 0 entries : 0
STLB Inter-Core Interference : 0
L1D TOTAL     ACCESS: 69578214  HIT: 39459042  MISS: 30119172  HIT %: 56.7118  MISS %: 43.2882  AVERAGE MISS PENALTY: 94122
L1D LOAD      ACCESS: 34552516  HIT: 13080459  MISS: 21472057  HIT %: 37.8567  MISS %: 62.1433  AVERAGE MISS PENALTY: 131923
L1D RFO       ACCESS: 22581131  HIT: 20948958  MISS: 1632173  HIT %: 92.772  MISS %: 7.22804  AVERAGE MISS PENALTY: 877.934
L1D PREFETCH  ACCESS: 12444567  HIT: 5429625  MISS: 7014942  HIT %: 43.6305  MISS %: 56.3695  AVERAGE MISS PENALTY: 112.744
L1D WRITEBACK ACCESS:     0  HIT:     0  MISS:     0  HIT %:     0  MISS %:     0  AVERAGE MISS PENALTY: 0
L1D PREFETCH  REQUESTED: 15175291  ISSUED: 13258963  USEFUL: 127926  USELESS: 6887000
 USEFUL LOAD PREFETCHES:     127926 PREFETCH ISSUED TO LOWER LEVEL:   29780612  ACCURACY: 0.429561
 TIMELY PREFETCHES:     127926 LATE PREFETCHES: 554323 DROPPED PREFETCHES: 1916328
L1D AVERAGE MISS LATENCY: 76.6708 cycles

L1D Set Associative Eviction Count : 0
L1D Priority 0 entries : 0
L1D Inter-Core Interference : 0
L1I TOTAL     ACCESS: 47189783  HIT: 47189783  MISS:     0  HIT %:   100  MISS %:     0  AVERAGE MISS PENALTY: 0
L1I LOAD      ACCESS: 47189783  HIT: 47189783  MISS:     0  HIT %:   100  MISS %:     0  AVERAGE MISS PENALTY: 0
L1I RFO       ACCESS:     0  HIT:     0  MISS:     0  HIT %:     0  MISS %:     0  AVERAGE MISS PENALTY: 0
L1I PREFETCH  ACCESS:     0  HIT:     0  MISS:     0  HIT %:     0  MISS %:     0  AVERAGE MISS PENALTY: 0
L1I WRITEBACK ACCESS:     0  HIT:     0  MISS:     0  HIT %:     0  MISS %:     0  AVERAGE MISS PENALTY: 0
L1I PREFETCH  REQUESTED:     0  ISSUED:     0  USEFUL:     0  USELESS:     0
 USEFUL LOAD PREFETCHES:          0 PREFETCH ISSUED TO LOWER LEVEL:          0  ACCURACY: -nan
 TIMELY PREFETCHES:          0 LATE PREFETCHES: 0 DROPPED PREFETCHES: 0
L1I AVERAGE MISS LATENCY: -nan cycles

L1I Set Associative Eviction Count : 0
L1I Priority 0 entries : 0
L1I Inter-Core Interference : 0
L2C TOTAL     ACCESS: 54807384  HIT: 52351461  MISS: 2455923  HIT %: 95.519  MISS %: 4.48101  AVERAGE MISS PENALTY: 53108.4
L2C LOAD      ACCESS: 21155940  HIT: 20786485  MISS: 369455  HIT %: 98.2537  MISS %: 1.74634  AVERAGE MISS PENALTY: 350170
L2C RFO       ACCESS: 1629133  HIT: 1576078  MISS: 53055  HIT %: 96.7434  MISS %: 3.25664  AVERAGE MISS PENALTY: 76.516
L2C PREFETCH  ACCESS: 30172218  HIT: 28139223  MISS: 2032995  HIT %: 93.262  MISS %: 6.73797  AVERAGE MISS PENALTY: 518.362
L2C WRITEBACK ACCESS: 1850093  HIT: 1849675  MISS:   418  HIT %: 99.9774  MISS %: 0.0225935  AVERAGE MISS PENALTY: 0
L2C PREFETCH  REQUESTED: 34263920  ISSUED: 28991286  USEFUL: 1826854  USELESS: 205979
 USEFUL LOAD PREFETCHES:    1826854 PREFETCH ISSUED TO LOWER LEVEL:    5595770  ACCURACY: 32.6471
 TIMELY PREFETCHES:    1826854 LATE PREFETCHES: 52691 DROPPED PREFETCHES: 5272634
L2C AVERAGE MISS LATENCY: 465.611 cycles

L2C Set Associative Eviction Count : 0
L2C Priority 0 entries : 0
L2C Inter-Core Interference : 0
LLC0 TOTAL     ACCESS: 330800  HIT: 84118  MISS: 246682  HIT %: 25.4287  MISS %: 74.5713  AVERAGE MISS PENALTY: 529.77
LLC0 LOAD      ACCESS: 70548  HIT: 32948  MISS: 37600  HIT %: 46.703  MISS %: 53.297  AVERAGE MISS PENALTY: 610.402
LLC0 RFO       ACCESS:  5931  HIT:  5557  MISS:   374  HIT %: 93.6941  MISS %: 6.30585  AVERAGE MISS PENALTY: 600.273
LLC0 PREFETCH  ACCESS: 225556  HIT: 38906  MISS: 186650  HIT %: 17.2489  MISS %: 82.7511  AVERAGE MISS PENALTY: 575.993
LLC0 WRITEBACK ACCESS: 28765  HIT:  6707  MISS: 22058  HIT %: 23.3165  MISS %: 76.6835  AVERAGE MISS PENALTY: 0
LLC0 PREFETCH  REQUESTED:     0  ISSUED:     0  USEFUL: 27044  USELESS: 83624
 USEFUL LOAD PREFETCHES:      27044 PREFETCH ISSUED TO LOWER LEVEL:   10944824  ACCURACY: 0.247094
 TIMELY PREFETCHES:      27044 LATE PREFETCHES: 0 DROPPED PREFETCHES: 0
LLC0 AVERAGE MISS LATENCY: 529.77 cycles

LLC0 Set Associative Eviction Count : 0
LLC0 Priority 0 entries : 12288
LLC0 Inter-Core Interference : 302896
LLC1 TOTAL     ACCESS: 337406  HIT: 90883  MISS: 246523  HIT %: 26.9358  MISS %: 73.0642  AVERAGE MISS PENALTY: 521.634
LLC1 LOAD      ACCESS: 42176  HIT: 32087  MISS: 10089  HIT %: 76.0788  MISS %: 23.9212  AVERAGE MISS PENALTY: 675.379
LLC1 RFO       ACCESS:  6584  HIT:  6158  MISS:   426  HIT %: 93.5298  MISS %: 6.47023  AVERAGE MISS PENALTY: 581.376
LLC1 PREFETCH  ACCESS: 259227  HIT: 45028  MISS: 214199  HIT %: 17.3701  MISS %: 82.6299  AVERAGE MISS PENALTY: 567.385
LLC1 WRITEBACK ACCESS: 29419  HIT:  7610  MISS: 21809  HIT %: 25.8676  MISS %: 74.1324  AVERAGE MISS PENALTY: 0
LLC1 PREFETCH  REQUESTED:     0  ISSUED:     0  USEFUL: 30321  USELESS: 98164
 USEFUL LOAD PREFETCHES:      30321 PREFETCH ISSUED TO LOWER LEVEL:   12547730  ACCURACY: 0.241645
 TIMELY PREFETCHES:      30321 LATE PREFETCHES: 0 DROPPED PREFETCHES: 0
LLC1 AVERAGE MISS LATENCY: 521.634 cycles

LLC1 Set Associative Eviction Count : 0
LLC1 Priority 0 entries : 12288
LLC1 Inter-Core Interference : 303777
LLC2 TOTAL     ACCESS: 338330  HIT: 92202  MISS: 246128  HIT %: 27.2521  MISS %: 72.7479  AVERAGE MISS PENALTY: 531.979
LLC2 LOAD      ACCESS: 42755  HIT: 32977  MISS:  9778  HIT %: 77.1302  MISS %: 22.8698  AVERAGE MISS PENALTY: 650.664
LLC2 RFO       ACCESS:  6656  HIT:  6245  MISS:   411  HIT %: 93.8251  MISS %: 6.17488  AVERAGE MISS PENALTY: 644.966
LLC2 PREFETCH  ACCESS: 259509  HIT: 45363  MISS: 214146  HIT %: 17.4803  MISS %: 82.5197  AVERAGE MISS PENALTY: 580.481
LLC2 WRITEBACK ACCESS: 29410  HIT:  7617  MISS: 21793  HIT %: 25.8994  MISS %: 74.1006  AVERAGE MISS PENALTY: 0
LLC2 PREFETCH  REQUESTED:     0  ISSUED:     0  USEFUL: 31268  USELESS: 96880
 USEFUL LOAD PREFETCHES:      31268 PREFETCH ISSUED TO LOWER LEVEL:   14063681  ACCURACY: 0.222332
 TIMELY PREFETCHES:      31268 LATE PREFETCHES: 0 DROPPED PREFETCHES: 0
LLC2 AVERAGE MISS LATENCY: 531.979 cycles

LLC2 Set Associative Eviction Count : 0
LLC2 Priority 0 entries : 12288
LLC2 Inter-Core Interference : 302687
LLC3 TOTAL     ACCESS: 336464  HIT: 90447  MISS: 246017  HIT %: 26.8816  MISS %: 73.1184  AVERAGE MISS PENALTY: 523.427
LLC3 LOAD      ACCESS: 42448  HIT: 32214  MISS: 10234  HIT %: 75.8905  MISS %: 24.1095  AVERAGE MISS PENALTY: 650.297
LLC3 RFO       ACCESS:  6685  HIT:  6289  MISS:   396  HIT %: 94.0763  MISS %: 5.92371  AVERAGE MISS PENALTY: 615.192
LLC3 PREFETCH  ACCESS: 257930  HIT: 44392  MISS: 213538  HIT %: 17.2109  MISS %: 82.7891  AVERAGE MISS PENALTY: 570.734
LLC3 WRITEBACK ACCESS: 29401  HIT:  7552  MISS: 21849  HIT %: 25.6862  MISS %: 74.3138  AVERAGE MISS PENALTY: 0
LLC3 PREFETCH  REQUESTED:     0  ISSUED:     0  USEFUL: 30829  USELESS: 95218
 USEFUL LOAD PREFETCHES:      30829 PREFETCH ISSUED TO LOWER LEVEL:   15548153  ACCURACY: 0.198281
 TIMELY PREFETCHES:      30829 LATE PREFETCHES: 0 DROPPED PREFETCHES: 0
LLC3 AVERAGE MISS LATENCY: 523.427 cycles

LLC3 Set Associative Eviction Count : 0
LLC3 Priority 0 entries : 12288
LLC3 Inter-Core Interference : 301767
LLC4 TOTAL     ACCESS: 336143  HIT: 90320  MISS: 245823  HIT %: 26.8695  MISS %: 73.1305  AVERAGE MISS PENALTY: 528.992
LLC4 LOAD      ACCESS: 42550  HIT: 32362  MISS: 10188  HIT %: 76.0564  MISS %: 23.9436  AVERAGE MISS PENALTY: 702.403
LLC4 RFO       ACCESS:  6626  HIT:  6197  MISS:   429  HIT %: 93.5255  MISS %: 6.47449  AVERAGE MISS PENALTY: 589.065
LLC4 PREFETCH  ACCESS: 257679  HIT: 44233  MISS: 213446  HIT %: 17.1659  MISS %: 82.8341  AVERAGE MISS PENALTY: 574.523
LLC4 WRITEBACK ACCESS: 29288  HIT:  7528  MISS: 21760  HIT %: 25.7034  MISS %: 74.2966  AVERAGE MISS PENALTY: 0
LLC4 PREFETCH  REQUESTED:     0  ISSUED:     0  USEFUL: 30914  USELESS: 95332
 USEFUL LOAD PREFETCHES:      30914 PREFETCH ISSUED TO LOWER LEVEL:   17714163  ACCURACY: 0.174516
 TIMELY PREFETCHES:      30914 LATE PREFETCHES: 0 DROPPED PREFETCHES: 0
LLC4 AVERAGE MISS LATENCY: 528.992 cycles

LLC4 Set Associative Eviction Count : 0
LLC4 Priority 0 entries : 12288
LLC4 Inter-Core Interference : 301456
LLC5 TOTAL     ACCESS: 336642  HIT: 90826  MISS: 245816  HIT %: 26.98  MISS %: 73.02  AVERAGE MISS PENALTY: 528.628
LLC5 LOAD      ACCESS: 43017  HIT: 32601  MISS: 10416  HIT %: 75.7863  MISS %: 24.2137  AVERAGE MISS PENALTY: 693.541
LLC5 RFO       ACCESS:  6748  HIT:  6321  MISS:   427  HIT %: 93.6722  MISS %: 6.3278  AVERAGE MISS PENALTY: 587.806
LLC5 PREFETCH  ACCESS: 257488  HIT: 44332  MISS: 213156  HIT %: 17.2171  MISS %: 82.7829  AVERAGE MISS PENALTY: 574.557
LLC5 WRITEBACK ACCESS: 29389  HIT:  7572  MISS: 21817  HIT %: 25.7647  MISS %: 74.2353  AVERAGE MISS PENALTY: 0
LLC5 PREFETCH  REQUESTED:     0  ISSUED:     0  USEFUL: 31132  USELESS: 94885
 USEFUL LOAD PREFETCHES:      31132 PREFETCH ISSUED TO LOWER LEVEL:   19805806  ACCURACY: 0.157186
 TIMELY PREFETCHES:      31132 LATE PREFETCHES: 0 DROPPED PREFETCHES: 0
LLC5 AVERAGE MISS LATENCY: 528.628 cycles

LLC5 Set Associative Eviction Count : 0
LLC5 Priority 0 entries : 12288
LLC5 Inter-Core Interference : 301330
LLC6 TOTAL     ACCESS: 337019  HIT: 91175  MISS: 245844  HIT %: 27.0534  MISS %: 72.9466  AVERAGE MISS PENALTY: 528.145
LLC6 LOAD      ACCESS: 42919  HIT: 32551  MISS: 10368  HIT %: 75.8429  MISS %: 24.1571  AVERAGE MISS PENALTY: 654.999
LLC6 RFO       ACCESS:  6674  HIT:  6272  MISS:   402  HIT %: 93.9766  MISS %: 6.02337  AVERAGE MISS PENALTY: 686.179
LLC6 PREFETCH  ACCESS: 257828  HIT: 44572  MISS: 213256  HIT %: 17.2875  MISS %: 82.7125  AVERAGE MISS PENALTY: 575.713
LLC6 WRITEBACK ACCESS: 29598  HIT:  7780  MISS: 21818  HIT %: 26.2856  MISS %: 73.7144  AVERAGE MISS PENALTY: 0
LLC6 PREFETCH  REQUESTED:     0  ISSUED:     0  USEFUL: 31139  USELESS: 95379
 USEFUL LOAD PREFETCHES:      31139 PREFETCH ISSUED TO LOWER LEVEL:   23022009  ACCURACY: 0.135258
 TIMELY PREFETCHES:      31139 LATE PREFETCHES: 0 DROPPED PREFETCHES: 0
LLC6 AVERAGE MISS LATENCY: 528.145 cycles

LLC6 Set Associative Eviction Count : 0
LLC6 Priority 0 entries : 12287
LLC6 Inter-Core Interference : 301927
LLC7 TOTAL     ACCESS: 337208  HIT: 91383  MISS: 245825  HIT %: 27.0999  MISS %: 72.9001  AVERAGE MISS PENALTY: 529.815
LLC7 LOAD      ACCESS: 42560  HIT: 32433  MISS: 10127  HIT %: 76.2054  MISS %: 23.7946  AVERAGE MISS PENALTY: 669.683
LLC7 RFO       ACCESS:  6686  HIT:  6279  MISS:   407  HIT %: 93.9127  MISS %: 6.08735  AVERAGE MISS PENALTY: 684.929
LLC7 PREFETCH  ACCESS: 258226  HIT: 44738  MISS: 213488  HIT %: 17.3251  MISS %: 82.6749  AVERAGE MISS PENALTY: 576.993
LLC7 WRITEBACK ACCESS: 29736  HIT:  7933  MISS: 21803  HIT %: 26.6781  MISS %: 73.3219  AVERAGE MISS PENALTY: 0
LLC7 PREFETCH  REQUESTED:     0  ISSUED:     0  USEFUL: 31488  USELESS: 95121
 USEFUL LOAD PREFETCHES:      31488 PREFETCH ISSUED TO LOWER LEVEL:   26316890  ACCURACY: 0.119649
 TIMELY PREFETCHES:      31488 LATE PREFETCHES: 0 DROPPED PREFETCHES: 0
LLC7 AVERAGE MISS LATENCY: 529.814 cycles

LLC7 Set Associative Eviction Count : 0
LLC7 Priority 0 entries : 12288
LLC7 Inter-Core Interference : 301783
ROI Average ROB Stall Cycles:	6.75723
ROI Total ROB Stalls Cycles:	123407728
ROI TOTAL ROB counter      :	18263064
ROI Average Load ROB Stall Cycles:	32.9695
ROI Total Load ROB Stalls Cycle  :	64442563
ROI Total Load ROB stalls Counter:	1954613
Major fault: 0 Minor fault: 21851








Interconnect Stats 
LINK 0 BW : 0LINK 1 BW : 0LINK 2 BW : 0LINK 3 BW : 0LINK 4 BW : 0LINK 5 BW : 0LINK 6 BW : 0LINK 7 BW : 0
DRAM Statistics
 CHANNEL 0
 RQ ROW_BUFFER_HIT: 3507261  ROW_BUFFER_MISS: 3872256
 DBUS_CONGESTED: 5783478
 WQ ROW_BUFFER_HIT: 47235  ROW_BUFFER_MISS: 741675  FULL:     0

 CHANNEL 1
 RQ ROW_BUFFER_HIT: 3528106  ROW_BUFFER_MISS: 3849579
 DBUS_CONGESTED: 5783478
 WQ ROW_BUFFER_HIT: 47391  ROW_BUFFER_MISS: 742131  FULL:     0

 AVG_CONGESTED_CYCLE: 5
DRAM PAGES: 2097152
Allocated PAGES: 174933
L2C destructor called
L1D destructor called
L1I destructor called
STLB destructor called
DTLB destructor called
ITLB destructor called
L2C destructor called
L1D destructor called
L1I destructor called
STLB destructor called
DTLB destructor called
ITLB destructor called
L2C destructor called
L1D destructor called
L1I destructor called
STLB destructor called
DTLB destructor called
ITLB destructor called
L2C destructor called
L1D destructor called
L1I destructor called
STLB destructor called
DTLB destructor called
ITLB destructor called
L2C destructor called
L1D destructor called
L1I destructor called
STLB destructor called
DTLB destructor called
ITLB destructor called
L2C destructor called
L1D destructor called
L1I destructor called
STLB destructor called
DTLB destructor called
ITLB destructor called
L2C destructor called
L1D destructor called
L1I destructor called
STLB destructor called
DTLB destructor called
ITLB destructor called
L2C destructor called
L1D destructor called
L1I destructor called
STLB destructor called
DTLB destructor called
ITLB destructor called
