
*** ChampSim Multicore Out-of-Order Simulator ***

Warmup Instructions: 200000000
Simulation Instructions: 200000000
Number of CPUs: 8
threads:1

L1I Configuration:
L1I_SET:64
L1I_WAY:8
L1I_RQ_SIZE:64
L1I_WQ_SIZE:64
L1I_PQ_SIZE:8
L1I_MSHR_SIZE:8

L1D Configuration:
L1D_SET:64
L1D_WAY:12
L1D_RQ_SIZE:64
L1D_WQ_SIZE:64
L1D_PQ_SIZE:8
L1D_MSHR_SIZE:16

L2C Configuration:
L2C_SET:1024
L2C_WAY:8
L2C_RQ_SIZE:32
L2C_WQ_SIZE:32
L2C_PQ_SIZE:16
L2C_MSHR_SIZE:32

LLC Configuration:
LLC_SET:2048
LLC_WAY:12
LLC SLICES:8
LLC_RQ_SIZE:64
LLC_WQ_SIZE:64
LLC_PQ_SIZE:32
LLC_MSHR_SIZE:64

Interconnect OFF
Attacker deprioritize is: OFF
Off-chip DRAM Size: 8192 MB Channels: 2 Width: 64-bit Data Rate: 3200 MT/s
PAGE SIZE in KB: 4.000000 
PAGE SIZE in MB: 0.003906 
PAGE offset in bits: 12 
CEASER-S_LLC:0
MIRAGE : 1
CEASER_LATENCY:3
REMAP : OFF
Partitions : 1
Multi-Step : OFF
BFS : OFF

CPU 0 runs /home/anubhav/spec_2017/619.lbm_s-2677B.champsimtrace.xz
CPU 1 runs /home/anubhav/spec_2017/619.lbm_s-2677B.champsimtrace.xz
CPU 2 runs /home/anubhav/spec_2017/619.lbm_s-2677B.champsimtrace.xz
CPU 3 runs /home/anubhav/spec_2017/619.lbm_s-2677B.champsimtrace.xz
CPU 4 runs /home/anubhav/spec_2017/619.lbm_s-2677B.champsimtrace.xz
CPU 5 runs /home/anubhav/spec_2017/619.lbm_s-2677B.champsimtrace.xz
CPU 6 runs /home/anubhav/spec_2017/619.lbm_s-2677B.champsimtrace.xz
CPU 7 runs /home/anubhav/spec_2017/619.lbm_s-2677B.champsimtrace.xz
CPU 0 Bimodal branch predictor
Initialize Hawkeye state
Initialize Hawkeye state
Initialize Hawkeye state
Initialize Hawkeye state
Initialize Hawkeye state
Initialize Hawkeye state
Initialize Hawkeye state
Initialize Hawkeye state
CPU 1 Bimodal branch predictor
Initialize Hawkeye state
Initialize Hawkeye state
Initialize Hawkeye state
Initialize Hawkeye state
Initialize Hawkeye state
Initialize Hawkeye state
Initialize Hawkeye state
Initialize Hawkeye state
CPU 2 Bimodal branch predictor
Initialize Hawkeye state
Initialize Hawkeye state
Initialize Hawkeye state
Initialize Hawkeye state
Initialize Hawkeye state
Initialize Hawkeye state
Initialize Hawkeye state
Initialize Hawkeye state
CPU 3 Bimodal branch predictor
Initialize Hawkeye state
Initialize Hawkeye state
Initialize Hawkeye state
Initialize Hawkeye state
Initialize Hawkeye state
Initialize Hawkeye state
Initialize Hawkeye state
Initialize Hawkeye state
CPU 4 Bimodal branch predictor
Initialize Hawkeye state
Initialize Hawkeye state
Initialize Hawkeye state
Initialize Hawkeye state
Initialize Hawkeye state
Initialize Hawkeye state
Initialize Hawkeye state
Initialize Hawkeye state
CPU 5 Bimodal branch predictor
Initialize Hawkeye state
Initialize Hawkeye state
Initialize Hawkeye state
Initialize Hawkeye state
Initialize Hawkeye state
Initialize Hawkeye state
Initialize Hawkeye state
Initialize Hawkeye state
CPU 6 Bimodal branch predictor
Initialize Hawkeye state
Initialize Hawkeye state
Initialize Hawkeye state
Initialize Hawkeye state
Initialize Hawkeye state
Initialize Hawkeye state
Initialize Hawkeye state
Initialize Hawkeye state
CPU 7 Bimodal branch predictor
Initialize Hawkeye state
Initialize Hawkeye state
Initialize Hawkeye state
Initialize Hawkeye state
Initialize Hawkeye state
Initialize Hawkeye state
Initialize Hawkeye state
Initialize Hawkeye state
FILL
Heartbeat CPU 4 instructions: 10000003 cycles: 4003573 heartbeat IPC: 2.49777 cumulative IPC: 2.49777 (Simulation time: 1 hr 28 min 27 sec) 
 Total Blocks : 196608 Invalid Blocks : 1 Valid Blocks : 196607
 Total Tags : 491520 Threshold : 12288 Invalid Tags : 196611 Pr0 Tags : 98302 Pr1 Tags : 196607 num_pr0 : 12287
 SAE Count : 0
 Inter-Core Inteference in Data Store : 2448305
Heartbeat CPU 2 instructions: 10000003 cycles: 4003587 heartbeat IPC: 2.49776 cumulative IPC: 2.49776 (Simulation time: 1 hr 28 min 27 sec) 
 Total Blocks : 196608 Invalid Blocks : 1 Valid Blocks : 196607
 Total Tags : 491520 Threshold : 12288 Invalid Tags : 196614 Pr0 Tags : 98299 Pr1 Tags : 196607 num_pr0 : 12288
 SAE Count : 0
 Inter-Core Inteference in Data Store : 2448332
Heartbeat CPU 5 instructions: 10000003 cycles: 4003667 heartbeat IPC: 2.49771 cumulative IPC: 2.49771 (Simulation time: 1 hr 28 min 28 sec) 
 Total Blocks : 196608 Invalid Blocks : 1 Valid Blocks : 196607
 Total Tags : 491520 Threshold : 12288 Invalid Tags : 196613 Pr0 Tags : 98300 Pr1 Tags : 196607 num_pr0 : 12286
 SAE Count : 0
 Inter-Core Inteference in Data Store : 2448408
Heartbeat CPU 0 instructions: 10000003 cycles: 4003685 heartbeat IPC: 2.4977 cumulative IPC: 2.4977 (Simulation time: 1 hr 28 min 28 sec) 
 Total Blocks : 196608 Invalid Blocks : 1 Valid Blocks : 196607
 Total Tags : 491520 Threshold : 12288 Invalid Tags : 196611 Pr0 Tags : 98302 Pr1 Tags : 196607 num_pr0 : 12287
 SAE Count : 0
 Inter-Core Inteference in Data Store : 2448428
Heartbeat CPU 3 instructions: 10000003 cycles: 4003697 heartbeat IPC: 2.49769 cumulative IPC: 2.49769 (Simulation time: 1 hr 28 min 28 sec) 
 Total Blocks : 196608 Invalid Blocks : 1 Valid Blocks : 196607
 Total Tags : 491520 Threshold : 12288 Invalid Tags : 196616 Pr0 Tags : 98297 Pr1 Tags : 196607 num_pr0 : 12287
 SAE Count : 0
 Inter-Core Inteference in Data Store : 2448446
Heartbeat CPU 7 instructions: 10000003 cycles: 4003815 heartbeat IPC: 2.49762 cumulative IPC: 2.49762 (Simulation time: 1 hr 28 min 28 sec) 
 Total Blocks : 196608 Invalid Blocks : 1 Valid Blocks : 196607
 Total Tags : 491520 Threshold : 12288 Invalid Tags : 196614 Pr0 Tags : 98299 Pr1 Tags : 196607 num_pr0 : 12287
 SAE Count : 0
 Inter-Core Inteference in Data Store : 2448559
Heartbeat CPU 1 instructions: 10000003 cycles: 4003824 heartbeat IPC: 2.49761 cumulative IPC: 2.49761 (Simulation time: 1 hr 28 min 28 sec) 
 Total Blocks : 196608 Invalid Blocks : 1 Valid Blocks : 196607
 Total Tags : 491520 Threshold : 12288 Invalid Tags : 196612 Pr0 Tags : 98301 Pr1 Tags : 196607 num_pr0 : 12288
 SAE Count : 0
 Inter-Core Inteference in Data Store : 2448566
Heartbeat CPU 6 instructions: 10000003 cycles: 4003848 heartbeat IPC: 2.4976 cumulative IPC: 2.4976 (Simulation time: 1 hr 28 min 28 sec) 
 Total Blocks : 196608 Invalid Blocks : 1 Valid Blocks : 196607
 Total Tags : 491520 Threshold : 12288 Invalid Tags : 196613 Pr0 Tags : 98300 Pr1 Tags : 196607 num_pr0 : 12287
 SAE Count : 0
 Inter-Core Inteference in Data Store : 2448585
Heartbeat CPU 4 instructions: 20000001 cycles: 7981530 heartbeat IPC: 2.51385 cumulative IPC: 2.50579 (Simulation time: 2 hr 59 min 50 sec) 
 Total Blocks : 196608 Invalid Blocks : 0 Valid Blocks : 196608
 Total Tags : 491520 Threshold : 12288 Invalid Tags : 196611 Pr0 Tags : 98301 Pr1 Tags : 196608 num_pr0 : 12288
 SAE Count : 0
 Inter-Core Inteference in Data Store : 5008177
Heartbeat CPU 7 instructions: 20000001 cycles: 7981577 heartbeat IPC: 2.51398 cumulative IPC: 2.50577 (Simulation time: 2 hr 59 min 50 sec) 
 Total Blocks : 196608 Invalid Blocks : 0 Valid Blocks : 196608
 Total Tags : 491520 Threshold : 12288 Invalid Tags : 196616 Pr0 Tags : 98296 Pr1 Tags : 196608 num_pr0 : 12288
 SAE Count : 0
 Inter-Core Inteference in Data Store : 5008191
Heartbeat CPU 2 instructions: 20000001 cycles: 7981662 heartbeat IPC: 2.51378 cumulative IPC: 2.50574 (Simulation time: 2 hr 59 min 50 sec) 
 Total Blocks : 196608 Invalid Blocks : 0 Valid Blocks : 196608
 Total Tags : 491520 Threshold : 12288 Invalid Tags : 196616 Pr0 Tags : 98296 Pr1 Tags : 196608 num_pr0 : 12288
 SAE Count : 0
 Inter-Core Inteference in Data Store : 5008249
Heartbeat CPU 3 instructions: 20000001 cycles: 7981688 heartbeat IPC: 2.51383 cumulative IPC: 2.50574 (Simulation time: 2 hr 59 min 50 sec) 
 Total Blocks : 196608 Invalid Blocks : 0 Valid Blocks : 196608
 Total Tags : 491520 Threshold : 12288 Invalid Tags : 196616 Pr0 Tags : 98296 Pr1 Tags : 196608 num_pr0 : 12286
 SAE Count : 0
 Inter-Core Inteference in Data Store : 5008266
Heartbeat CPU 5 instructions: 20000001 cycles: 7981761 heartbeat IPC: 2.51377 cumulative IPC: 2.50571 (Simulation time: 2 hr 59 min 51 sec) 
 Total Blocks : 196608 Invalid Blocks : 0 Valid Blocks : 196608
 Total Tags : 491520 Threshold : 12288 Invalid Tags : 196614 Pr0 Tags : 98298 Pr1 Tags : 196608 num_pr0 : 12288
 SAE Count : 0
 Inter-Core Inteference in Data Store : 5008297
Heartbeat CPU 0 instructions: 20000001 cycles: 7981833 heartbeat IPC: 2.51373 cumulative IPC: 2.50569 (Simulation time: 2 hr 59 min 51 sec) 
 Total Blocks : 196608 Invalid Blocks : 0 Valid Blocks : 196608
 Total Tags : 491520 Threshold : 12288 Invalid Tags : 196614 Pr0 Tags : 98298 Pr1 Tags : 196608 num_pr0 : 12288
 SAE Count : 0
 Inter-Core Inteference in Data Store : 5008340
Heartbeat CPU 6 instructions: 20000001 cycles: 7981836 heartbeat IPC: 2.51383 cumulative IPC: 2.50569 (Simulation time: 2 hr 59 min 51 sec) 
 Total Blocks : 196608 Invalid Blocks : 0 Valid Blocks : 196608
 Total Tags : 491520 Threshold : 12288 Invalid Tags : 196611 Pr0 Tags : 98301 Pr1 Tags : 196608 num_pr0 : 12288
 SAE Count : 0
 Inter-Core Inteference in Data Store : 5008341
Heartbeat CPU 1 instructions: 20000001 cycles: 7982150 heartbeat IPC: 2.51362 cumulative IPC: 2.50559 (Simulation time: 2 hr 59 min 51 sec) 
 Total Blocks : 196608 Invalid Blocks : 0 Valid Blocks : 196608
 Total Tags : 491520 Threshold : 12288 Invalid Tags : 196614 Pr0 Tags : 98298 Pr1 Tags : 196608 num_pr0 : 12288
 SAE Count : 0
 Inter-Core Inteference in Data Store : 5008467
Heartbeat CPU 7 instructions: 30000000 cycles: 11983254 heartbeat IPC: 2.49895 cumulative IPC: 2.50349 (Simulation time: 4 hr 44 min 35 sec) 
 Total Blocks : 196608 Invalid Blocks : 0 Valid Blocks : 196608
 Total Tags : 491520 Threshold : 12288 Invalid Tags : 196612 Pr0 Tags : 98300 Pr1 Tags : 196608 num_pr0 : 12288
 SAE Count : 0
 Inter-Core Inteference in Data Store : 7635905
Heartbeat CPU 4 instructions: 30000000 cycles: 11983259 heartbeat IPC: 2.49892 cumulative IPC: 2.50349 (Simulation time: 4 hr 44 min 36 sec) 
 Total Blocks : 196608 Invalid Blocks : 0 Valid Blocks : 196608
 Total Tags : 491520 Threshold : 12288 Invalid Tags : 196612 Pr0 Tags : 98300 Pr1 Tags : 196608 num_pr0 : 12288
 SAE Count : 0
 Inter-Core Inteference in Data Store : 7635914
Heartbeat CPU 3 instructions: 30000000 cycles: 11983362 heartbeat IPC: 2.49895 cumulative IPC: 2.50347 (Simulation time: 4 hr 44 min 36 sec) 
 Total Blocks : 196608 Invalid Blocks : 0 Valid Blocks : 196608
 Total Tags : 491520 Threshold : 12288 Invalid Tags : 196615 Pr0 Tags : 98297 Pr1 Tags : 196608 num_pr0 : 12288
 SAE Count : 0
 Inter-Core Inteference in Data Store : 7636003
Heartbeat CPU 2 instructions: 30000000 cycles: 11983373 heartbeat IPC: 2.49893 cumulative IPC: 2.50347 (Simulation time: 4 hr 44 min 36 sec) 
 Total Blocks : 196608 Invalid Blocks : 0 Valid Blocks : 196608
 Total Tags : 491520 Threshold : 12288 Invalid Tags : 196614 Pr0 Tags : 98298 Pr1 Tags : 196608 num_pr0 : 12286
 SAE Count : 0
 Inter-Core Inteference in Data Store : 7636010
Heartbeat CPU 5 instructions: 30000000 cycles: 11983422 heartbeat IPC: 2.49896 cumulative IPC: 2.50346 (Simulation time: 4 hr 44 min 36 sec) 
 Total Blocks : 196608 Invalid Blocks : 0 Valid Blocks : 196608
 Total Tags : 491520 Threshold : 12288 Invalid Tags : 196616 Pr0 Tags : 98296 Pr1 Tags : 196608 num_pr0 : 12286
 SAE Count : 0
 Inter-Core Inteference in Data Store : 7636056
Heartbeat CPU 6 instructions: 30000000 cycles: 11983676 heartbeat IPC: 2.49885 cumulative IPC: 2.50341 (Simulation time: 4 hr 44 min 36 sec) 
 Total Blocks : 196608 Invalid Blocks : 0 Valid Blocks : 196608
 Total Tags : 491520 Threshold : 12288 Invalid Tags : 196616 Pr0 Tags : 98296 Pr1 Tags : 196608 num_pr0 : 12287
 SAE Count : 0
 Inter-Core Inteference in Data Store : 7636195
Heartbeat CPU 1 instructions: 30000000 cycles: 11983753 heartbeat IPC: 2.499 cumulative IPC: 2.50339 (Simulation time: 4 hr 44 min 36 sec) 
 Total Blocks : 196608 Invalid Blocks : 0 Valid Blocks : 196608
 Total Tags : 491520 Threshold : 12288 Invalid Tags : 196615 Pr0 Tags : 98297 Pr1 Tags : 196608 num_pr0 : 12288
 SAE Count : 0
 Inter-Core Inteference in Data Store : 7636218
Heartbeat CPU 0 instructions: 30000000 cycles: 11983950 heartbeat IPC: 2.49868 cumulative IPC: 2.50335 (Simulation time: 4 hr 44 min 37 sec) 
 Total Blocks : 196608 Invalid Blocks : 0 Valid Blocks : 196608
 Total Tags : 491520 Threshold : 12288 Invalid Tags : 196610 Pr0 Tags : 98302 Pr1 Tags : 196608 num_pr0 : 12288
 SAE Count : 0
 Inter-Core Inteference in Data Store : 7636303
Heartbeat CPU 7 instructions: 40000001 cycles: 15974508 heartbeat IPC: 2.50548 cumulative IPC: 2.50399 (Simulation time: 6 hr 45 min 1 sec) 
 Total Blocks : 196608 Invalid Blocks : 0 Valid Blocks : 196608
 Total Tags : 491520 Threshold : 12288 Invalid Tags : 196615 Pr0 Tags : 98297 Pr1 Tags : 196608 num_pr0 : 12288
 SAE Count : 0
 Inter-Core Inteference in Data Store : 10229229
Heartbeat CPU 4 instructions: 40000001 cycles: 15974730 heartbeat IPC: 2.50534 cumulative IPC: 2.50395 (Simulation time: 6 hr 45 min 2 sec) 
 Total Blocks : 196608 Invalid Blocks : 0 Valid Blocks : 196608
 Total Tags : 491520 Threshold : 12288 Invalid Tags : 196618 Pr0 Tags : 98294 Pr1 Tags : 196608 num_pr0 : 12287
 SAE Count : 0
 Inter-Core Inteference in Data Store : 10229360
Heartbeat CPU 6 instructions: 40000001 cycles: 15974808 heartbeat IPC: 2.50556 cumulative IPC: 2.50394 (Simulation time: 6 hr 45 min 2 sec) 
 Total Blocks : 196608 Invalid Blocks : 0 Valid Blocks : 196608
 Total Tags : 491520 Threshold : 12288 Invalid Tags : 196615 Pr0 Tags : 98297 Pr1 Tags : 196608 num_pr0 : 12287
 SAE Count : 0
 Inter-Core Inteference in Data Store : 10229384
Heartbeat CPU 3 instructions: 40000001 cycles: 15974888 heartbeat IPC: 2.50531 cumulative IPC: 2.50393 (Simulation time: 6 hr 45 min 2 sec) 
 Total Blocks : 196608 Invalid Blocks : 0 Valid Blocks : 196608
 Total Tags : 491520 Threshold : 12288 Invalid Tags : 196613 Pr0 Tags : 98299 Pr1 Tags : 196608 num_pr0 : 12287
 SAE Count : 0
 Inter-Core Inteference in Data Store : 10229418
Heartbeat CPU 2 instructions: 40000001 cycles: 15974949 heartbeat IPC: 2.50528 cumulative IPC: 2.50392 (Simulation time: 6 hr 45 min 3 sec) 
 Total Blocks : 196608 Invalid Blocks : 0 Valid Blocks : 196608
 Total Tags : 491520 Threshold : 12288 Invalid Tags : 196615 Pr0 Tags : 98297 Pr1 Tags : 196608 num_pr0 : 12288
 SAE Count : 0
 Inter-Core Inteference in Data Store : 10229440
Heartbeat CPU 5 instructions: 40000001 cycles: 15974951 heartbeat IPC: 2.50531 cumulative IPC: 2.50392 (Simulation time: 6 hr 45 min 3 sec) 
 Total Blocks : 196608 Invalid Blocks : 0 Valid Blocks : 196608
 Total Tags : 491520 Threshold : 12288 Invalid Tags : 196614 Pr0 Tags : 98298 Pr1 Tags : 196608 num_pr0 : 12288
 SAE Count : 0
 Inter-Core Inteference in Data Store : 10229442
Heartbeat CPU 1 instructions: 40000001 cycles: 15975285 heartbeat IPC: 2.5053 cumulative IPC: 2.50387 (Simulation time: 6 hr 45 min 4 sec) 
 Total Blocks : 196608 Invalid Blocks : 0 Valid Blocks : 196608
 Total Tags : 491520 Threshold : 12288 Invalid Tags : 196617 Pr0 Tags : 98295 Pr1 Tags : 196608 num_pr0 : 12286
 SAE Count : 0
 Inter-Core Inteference in Data Store : 10229561
Heartbeat CPU 0 instructions: 40000001 cycles: 15975942 heartbeat IPC: 2.50502 cumulative IPC: 2.50376 (Simulation time: 6 hr 45 min 5 sec) 
 Total Blocks : 196608 Invalid Blocks : 0 Valid Blocks : 196608
 Total Tags : 491520 Threshold : 12288 Invalid Tags : 196610 Pr0 Tags : 98302 Pr1 Tags : 196608 num_pr0 : 12287
 SAE Count : 0
 Inter-Core Inteference in Data Store : 10229792
Heartbeat CPU 6 instructions: 50000000 cycles: 19983673 heartbeat IPC: 2.49447 cumulative IPC: 2.50204 (Simulation time: 9 hr 4 min 55 sec) 
 Total Blocks : 196608 Invalid Blocks : 0 Valid Blocks : 196608
 Total Tags : 491520 Threshold : 12288 Invalid Tags : 196617 Pr0 Tags : 98295 Pr1 Tags : 196608 num_pr0 : 12286
 SAE Count : 0
 Inter-Core Inteference in Data Store : 12862915
Heartbeat CPU 7 instructions: 50000000 cycles: 19983717 heartbeat IPC: 2.49426 cumulative IPC: 2.50204 (Simulation time: 9 hr 4 min 55 sec) 
 Total Blocks : 196608 Invalid Blocks : 0 Valid Blocks : 196608
 Total Tags : 491520 Threshold : 12288 Invalid Tags : 196612 Pr0 Tags : 98300 Pr1 Tags : 196608 num_pr0 : 12288
 SAE Count : 0
 Inter-Core Inteference in Data Store : 12862922
Heartbeat CPU 4 instructions: 50000000 cycles: 19983926 heartbeat IPC: 2.49427 cumulative IPC: 2.50201 (Simulation time: 9 hr 4 min 55 sec) 
 Total Blocks : 196608 Invalid Blocks : 0 Valid Blocks : 196608
 Total Tags : 491520 Threshold : 12288 Invalid Tags : 196612 Pr0 Tags : 98300 Pr1 Tags : 196608 num_pr0 : 12287
 SAE Count : 0
 Inter-Core Inteference in Data Store : 12862984
Heartbeat CPU 3 instructions: 50000000 cycles: 19983957 heartbeat IPC: 2.49434 cumulative IPC: 2.50201 (Simulation time: 9 hr 4 min 55 sec) 
 Total Blocks : 196608 Invalid Blocks : 0 Valid Blocks : 196608
 Total Tags : 491520 Threshold : 12288 Invalid Tags : 196615 Pr0 Tags : 98297 Pr1 Tags : 196608 num_pr0 : 12287
 SAE Count : 0
 Inter-Core Inteference in Data Store : 12862997
Heartbeat CPU 5 instructions: 50000000 cycles: 19984069 heartbeat IPC: 2.49431 cumulative IPC: 2.50199 (Simulation time: 9 hr 4 min 55 sec) 
 Total Blocks : 196608 Invalid Blocks : 0 Valid Blocks : 196608
 Total Tags : 491520 Threshold : 12288 Invalid Tags : 196614 Pr0 Tags : 98298 Pr1 Tags : 196608 num_pr0 : 12286
 SAE Count : 0
 Inter-Core Inteference in Data Store : 12863019
Heartbeat CPU 2 instructions: 50000000 cycles: 19984119 heartbeat IPC: 2.49428 cumulative IPC: 2.50199 (Simulation time: 9 hr 4 min 55 sec) 
 Total Blocks : 196608 Invalid Blocks : 0 Valid Blocks : 196608
 Total Tags : 491520 Threshold : 12288 Invalid Tags : 196614 Pr0 Tags : 98298 Pr1 Tags : 196608 num_pr0 : 12287
 SAE Count : 0
 Inter-Core Inteference in Data Store : 12863046
Heartbeat CPU 1 instructions: 50000000 cycles: 19984852 heartbeat IPC: 2.49403 cumulative IPC: 2.50189 (Simulation time: 9 hr 4 min 56 sec) 
 Total Blocks : 196608 Invalid Blocks : 0 Valid Blocks : 196608
 Total Tags : 491520 Threshold : 12288 Invalid Tags : 196613 Pr0 Tags : 98299 Pr1 Tags : 196608 num_pr0 : 12287
 SAE Count : 0
 Inter-Core Inteference in Data Store : 12863348
Heartbeat CPU 0 instructions: 50000000 cycles: 19985428 heartbeat IPC: 2.49409 cumulative IPC: 2.50182 (Simulation time: 9 hr 4 min 57 sec) 
 Total Blocks : 196608 Invalid Blocks : 0 Valid Blocks : 196608
 Total Tags : 491520 Threshold : 12288 Invalid Tags : 196613 Pr0 Tags : 98299 Pr1 Tags : 196608 num_pr0 : 12288
 SAE Count : 0
 Inter-Core Inteference in Data Store : 12863532
Heartbeat CPU 6 instructions: 60000002 cycles: 23989364 heartbeat IPC: 2.49645 cumulative IPC: 2.50111 (Simulation time: 11 hr 38 min 13 sec) 
 Total Blocks : 196608 Invalid Blocks : 0 Valid Blocks : 196608
 Total Tags : 491520 Threshold : 12288 Invalid Tags : 196614 Pr0 Tags : 98298 Pr1 Tags : 196608 num_pr0 : 12288
 SAE Count : 0
 Inter-Core Inteference in Data Store : 15475129
Heartbeat CPU 4 instructions: 60000002 cycles: 23989828 heartbeat IPC: 2.49632 cumulative IPC: 2.50106 (Simulation time: 11 hr 38 min 14 sec) 
 Total Blocks : 196608 Invalid Blocks : 0 Valid Blocks : 196608
 Total Tags : 491520 Threshold : 12288 Invalid Tags : 196611 Pr0 Tags : 98301 Pr1 Tags : 196608 num_pr0 : 12288
 SAE Count : 0
 Inter-Core Inteference in Data Store : 15475361
Heartbeat CPU 7 instructions: 60000002 cycles: 23989888 heartbeat IPC: 2.49615 cumulative IPC: 2.50105 (Simulation time: 11 hr 38 min 14 sec) 
 Total Blocks : 196608 Invalid Blocks : 0 Valid Blocks : 196608
 Total Tags : 491520 Threshold : 12288 Invalid Tags : 196612 Pr0 Tags : 98300 Pr1 Tags : 196608 num_pr0 : 12288
 SAE Count : 0
 Inter-Core Inteference in Data Store : 15475391
Heartbeat CPU 5 instructions: 60000002 cycles: 23989912 heartbeat IPC: 2.49635 cumulative IPC: 2.50105 (Simulation time: 11 hr 38 min 14 sec) 
 Total Blocks : 196608 Invalid Blocks : 0 Valid Blocks : 196608
 Total Tags : 491520 Threshold : 12288 Invalid Tags : 196613 Pr0 Tags : 98299 Pr1 Tags : 196608 num_pr0 : 12287
 SAE Count : 0
 Inter-Core Inteference in Data Store : 15475398
Heartbeat CPU 3 instructions: 60000002 cycles: 23989972 heartbeat IPC: 2.49625 cumulative IPC: 2.50104 (Simulation time: 11 hr 38 min 14 sec) 
 Total Blocks : 196608 Invalid Blocks : 0 Valid Blocks : 196608
 Total Tags : 491520 Threshold : 12288 Invalid Tags : 196619 Pr0 Tags : 98293 Pr1 Tags : 196608 num_pr0 : 12288
 SAE Count : 0
 Inter-Core Inteference in Data Store : 15475414
Heartbeat CPU 2 instructions: 60000002 cycles: 23990217 heartbeat IPC: 2.4962 cumulative IPC: 2.50102 (Simulation time: 11 hr 38 min 14 sec) 
 Total Blocks : 196608 Invalid Blocks : 0 Valid Blocks : 196608
 Total Tags : 491520 Threshold : 12288 Invalid Tags : 196612 Pr0 Tags : 98300 Pr1 Tags : 196608 num_pr0 : 12288
 SAE Count : 0
 Inter-Core Inteference in Data Store : 15475578
Heartbeat CPU 1 instructions: 60000002 cycles: 23990731 heartbeat IPC: 2.49633 cumulative IPC: 2.50097 (Simulation time: 11 hr 38 min 15 sec) 
 Total Blocks : 196608 Invalid Blocks : 0 Valid Blocks : 196608
 Total Tags : 491520 Threshold : 12288 Invalid Tags : 196615 Pr0 Tags : 98297 Pr1 Tags : 196608 num_pr0 : 12286
 SAE Count : 0
 Inter-Core Inteference in Data Store : 15475932
Heartbeat CPU 0 instructions: 60000002 cycles: 23991504 heartbeat IPC: 2.49621 cumulative IPC: 2.50089 (Simulation time: 11 hr 38 min 17 sec) 
 Total Blocks : 196608 Invalid Blocks : 0 Valid Blocks : 196608
 Total Tags : 491520 Threshold : 12288 Invalid Tags : 196613 Pr0 Tags : 98299 Pr1 Tags : 196608 num_pr0 : 12288
 SAE Count : 0
 Inter-Core Inteference in Data Store : 15476446
Heartbeat CPU 6 instructions: 70000001 cycles: 27983237 heartbeat IPC: 2.50383 cumulative IPC: 2.5015 (Simulation time: 14 hr 25 min 53 sec) 
 Total Blocks : 196608 Invalid Blocks : 0 Valid Blocks : 196608
 Total Tags : 491520 Threshold : 12288 Invalid Tags : 196613 Pr0 Tags : 98299 Pr1 Tags : 196608 num_pr0 : 12288
 SAE Count : 0
 Inter-Core Inteference in Data Store : 18045586
Heartbeat CPU 4 instructions: 70000001 cycles: 27983665 heartbeat IPC: 2.50386 cumulative IPC: 2.50146 (Simulation time: 14 hr 25 min 55 sec) 
 Total Blocks : 196608 Invalid Blocks : 0 Valid Blocks : 196608
 Total Tags : 491520 Threshold : 12288 Invalid Tags : 196610 Pr0 Tags : 98302 Pr1 Tags : 196608 num_pr0 : 12287
 SAE Count : 0
 Inter-Core Inteference in Data Store : 18045838
Heartbeat CPU 5 instructions: 70000001 cycles: 27983880 heartbeat IPC: 2.50378 cumulative IPC: 2.50144 (Simulation time: 14 hr 25 min 55 sec) 
 Total Blocks : 196608 Invalid Blocks : 0 Valid Blocks : 196608
 Total Tags : 491520 Threshold : 12288 Invalid Tags : 196614 Pr0 Tags : 98298 Pr1 Tags : 196608 num_pr0 : 12288
 SAE Count : 0
 Inter-Core Inteference in Data Store : 18045988
Heartbeat CPU 7 instructions: 70000001 cycles: 27984007 heartbeat IPC: 2.50368 cumulative IPC: 2.50143 (Simulation time: 14 hr 25 min 55 sec) 
 Total Blocks : 196608 Invalid Blocks : 0 Valid Blocks : 196608
 Total Tags : 491520 Threshold : 12288 Invalid Tags : 196613 Pr0 Tags : 98299 Pr1 Tags : 196608 num_pr0 : 12287
 SAE Count : 0
 Inter-Core Inteference in Data Store : 18046091
Heartbeat CPU 3 instructions: 70000001 cycles: 27984234 heartbeat IPC: 2.50359 cumulative IPC: 2.50141 (Simulation time: 14 hr 25 min 56 sec) 
 Total Blocks : 196608 Invalid Blocks : 0 Valid Blocks : 196608
 Total Tags : 491520 Threshold : 12288 Invalid Tags : 196612 Pr0 Tags : 98300 Pr1 Tags : 196608 num_pr0 : 12286
 SAE Count : 0
 Inter-Core Inteference in Data Store : 18046281
Heartbeat CPU 2 instructions: 70000001 cycles: 27984317 heartbeat IPC: 2.50369 cumulative IPC: 2.5014 (Simulation time: 14 hr 25 min 56 sec) 
 Total Blocks : 196608 Invalid Blocks : 0 Valid Blocks : 196608
 Total Tags : 491520 Threshold : 12288 Invalid Tags : 196612 Pr0 Tags : 98300 Pr1 Tags : 196608 num_pr0 : 12288
 SAE Count : 0
 Inter-Core Inteference in Data Store : 18046352
Heartbeat CPU 1 instructions: 70000001 cycles: 27985021 heartbeat IPC: 2.50357 cumulative IPC: 2.50134 (Simulation time: 14 hr 25 min 58 sec) 
 Total Blocks : 196608 Invalid Blocks : 0 Valid Blocks : 196608
 Total Tags : 491520 Threshold : 12288 Invalid Tags : 196613 Pr0 Tags : 98299 Pr1 Tags : 196608 num_pr0 : 12287
 SAE Count : 0
 Inter-Core Inteference in Data Store : 18047068
Heartbeat CPU 0 instructions: 70000001 cycles: 27985696 heartbeat IPC: 2.50363 cumulative IPC: 2.50128 (Simulation time: 14 hr 26 min 0 sec) 
 Total Blocks : 196608 Invalid Blocks : 0 Valid Blocks : 196608
 Total Tags : 491520 Threshold : 12288 Invalid Tags : 196615 Pr0 Tags : 98297 Pr1 Tags : 196608 num_pr0 : 12287
 SAE Count : 0
 Inter-Core Inteference in Data Store : 18047748
Heartbeat CPU 6 instructions: 80000000 cycles: 31981547 heartbeat IPC: 2.50106 cumulative IPC: 2.50144 (Simulation time: 17 hr 12 min 24 sec) 
 Total Blocks : 196608 Invalid Blocks : 0 Valid Blocks : 196608
 Total Tags : 491520 Threshold : 12288 Invalid Tags : 196611 Pr0 Tags : 98301 Pr1 Tags : 196608 num_pr0 : 12288
 SAE Count : 0
 Inter-Core Inteference in Data Store : 20619847
Heartbeat CPU 5 instructions: 80000000 cycles: 31981803 heartbeat IPC: 2.5013 cumulative IPC: 2.50142 (Simulation time: 17 hr 12 min 24 sec) 
 Total Blocks : 196608 Invalid Blocks : 0 Valid Blocks : 196608
 Total Tags : 491520 Threshold : 12288 Invalid Tags : 196613 Pr0 Tags : 98299 Pr1 Tags : 196608 num_pr0 : 12288
 SAE Count : 0
 Inter-Core Inteference in Data Store : 20619946
Heartbeat CPU 4 instructions: 80000000 cycles: 31981827 heartbeat IPC: 2.50115 cumulative IPC: 2.50142 (Simulation time: 17 hr 12 min 25 sec) 
 Total Blocks : 196608 Invalid Blocks : 0 Valid Blocks : 196608
 Total Tags : 491520 Threshold : 12288 Invalid Tags : 196614 Pr0 Tags : 98298 Pr1 Tags : 196608 num_pr0 : 12288
 SAE Count : 0
 Inter-Core Inteference in Data Store : 20619963
Heartbeat CPU 7 instructions: 80000000 cycles: 31981960 heartbeat IPC: 2.50128 cumulative IPC: 2.50141 (Simulation time: 17 hr 12 min 25 sec) 
 Total Blocks : 196608 Invalid Blocks : 0 Valid Blocks : 196608
 Total Tags : 491520 Threshold : 12288 Invalid Tags : 196614 Pr0 Tags : 98298 Pr1 Tags : 196608 num_pr0 : 12287
 SAE Count : 0
 Inter-Core Inteference in Data Store : 20620024
Heartbeat CPU 3 instructions: 80000000 cycles: 31982397 heartbeat IPC: 2.50115 cumulative IPC: 2.50138 (Simulation time: 17 hr 12 min 26 sec) 
 Total Blocks : 196608 Invalid Blocks : 0 Valid Blocks : 196608
 Total Tags : 491520 Threshold : 12288 Invalid Tags : 196613 Pr0 Tags : 98299 Pr1 Tags : 196608 num_pr0 : 12287
 SAE Count : 0
 Inter-Core Inteference in Data Store : 20620281
Heartbeat CPU 2 instructions: 80000000 cycles: 31982511 heartbeat IPC: 2.50113 cumulative IPC: 2.50137 (Simulation time: 17 hr 12 min 27 sec) 
 Total Blocks : 196608 Invalid Blocks : 0 Valid Blocks : 196608
 Total Tags : 491520 Threshold : 12288 Invalid Tags : 196610 Pr0 Tags : 98302 Pr1 Tags : 196608 num_pr0 : 12288
 SAE Count : 0
 Inter-Core Inteference in Data Store : 20620332
Heartbeat CPU 1 instructions: 80000000 cycles: 31984009 heartbeat IPC: 2.50063 cumulative IPC: 2.50125 (Simulation time: 17 hr 12 min 29 sec) 
 Total Blocks : 196608 Invalid Blocks : 0 Valid Blocks : 196608
 Total Tags : 491520 Threshold : 12288 Invalid Tags : 196615 Pr0 Tags : 98297 Pr1 Tags : 196608 num_pr0 : 12286
 SAE Count : 0
 Inter-Core Inteference in Data Store : 20620994
Heartbeat CPU 0 instructions: 80000000 cycles: 31984010 heartbeat IPC: 2.50105 cumulative IPC: 2.50125 (Simulation time: 17 hr 12 min 29 sec) 
 Total Blocks : 196608 Invalid Blocks : 0 Valid Blocks : 196608
 Total Tags : 491520 Threshold : 12288 Invalid Tags : 196615 Pr0 Tags : 98297 Pr1 Tags : 196608 num_pr0 : 12286
 SAE Count : 0
 Inter-Core Inteference in Data Store : 20620994
Heartbeat CPU 5 instructions: 90000003 cycles: 35999968 heartbeat IPC: 2.4887 cumulative IPC: 2.5 (Simulation time: 20 hr 1 min 23 sec) 
 Total Blocks : 196608 Invalid Blocks : 0 Valid Blocks : 196608
 Total Tags : 491520 Threshold : 12288 Invalid Tags : 196611 Pr0 Tags : 98301 Pr1 Tags : 196608 num_pr0 : 12288
 SAE Count : 0
 Inter-Core Inteference in Data Store : 23240485
Heartbeat CPU 6 instructions: 90000003 cycles: 36000097 heartbeat IPC: 2.48846 cumulative IPC: 2.49999 (Simulation time: 20 hr 1 min 24 sec) 
 Total Blocks : 196608 Invalid Blocks : 0 Valid Blocks : 196608
 Total Tags : 491520 Threshold : 12288 Invalid Tags : 196611 Pr0 Tags : 98301 Pr1 Tags : 196608 num_pr0 : 12287
 SAE Count : 0
 Inter-Core Inteference in Data Store : 23240581
Heartbeat CPU 4 instructions: 90000003 cycles: 36000204 heartbeat IPC: 2.48857 cumulative IPC: 2.49999 (Simulation time: 20 hr 1 min 24 sec) 
 Total Blocks : 196608 Invalid Blocks : 0 Valid Blocks : 196608
 Total Tags : 491520 Threshold : 12288 Invalid Tags : 196609 Pr0 Tags : 98303 Pr1 Tags : 196608 num_pr0 : 12287
 SAE Count : 0
 Inter-Core Inteference in Data Store : 23240692
Heartbeat CPU 7 instructions: 90000003 cycles: 36000236 heartbeat IPC: 2.48863 cumulative IPC: 2.49998 (Simulation time: 20 hr 1 min 24 sec) 
 Total Blocks : 196608 Invalid Blocks : 0 Valid Blocks : 196608
 Total Tags : 491520 Threshold : 12288 Invalid Tags : 196612 Pr0 Tags : 98300 Pr1 Tags : 196608 num_pr0 : 12287
 SAE Count : 0
 Inter-Core Inteference in Data Store : 23240733
Heartbeat CPU 3 instructions: 90000003 cycles: 36000879 heartbeat IPC: 2.4885 cumulative IPC: 2.49994 (Simulation time: 20 hr 1 min 26 sec) 
 Total Blocks : 196608 Invalid Blocks : 0 Valid Blocks : 196608
 Total Tags : 491520 Threshold : 12288 Invalid Tags : 196611 Pr0 Tags : 98301 Pr1 Tags : 196608 num_pr0 : 12287
 SAE Count : 0
 Inter-Core Inteference in Data Store : 23241385
Heartbeat CPU 2 instructions: 90000003 cycles: 36001118 heartbeat IPC: 2.48843 cumulative IPC: 2.49992 (Simulation time: 20 hr 1 min 27 sec) 
 Total Blocks : 196608 Invalid Blocks : 0 Valid Blocks : 196608
 Total Tags : 491520 Threshold : 12288 Invalid Tags : 196612 Pr0 Tags : 98300 Pr1 Tags : 196608 num_pr0 : 12288
 SAE Count : 0
 Inter-Core Inteference in Data Store : 23241599
Heartbeat CPU 0 instructions: 90000003 cycles: 36002331 heartbeat IPC: 2.4886 cumulative IPC: 2.49984 (Simulation time: 20 hr 1 min 29 sec) 
 Total Blocks : 196608 Invalid Blocks : 0 Valid Blocks : 196608
 Total Tags : 491520 Threshold : 12288 Invalid Tags : 196615 Pr0 Tags : 98297 Pr1 Tags : 196608 num_pr0 : 12287
 SAE Count : 0
 Inter-Core Inteference in Data Store : 23242148
Heartbeat CPU 1 instructions: 90000003 cycles: 36002344 heartbeat IPC: 2.48859 cumulative IPC: 2.49984 (Simulation time: 20 hr 1 min 29 sec) 
 Total Blocks : 196608 Invalid Blocks : 0 Valid Blocks : 196608
 Total Tags : 491520 Threshold : 12288 Invalid Tags : 196611 Pr0 Tags : 98301 Pr1 Tags : 196608 num_pr0 : 12288
 SAE Count : 0
 Inter-Core Inteference in Data Store : 23242155
Heartbeat CPU 5 instructions: 100000001 cycles: 40009000 heartbeat IPC: 2.49437 cumulative IPC: 2.49944 (Simulation time: 22 hr 48 min 3 sec) 
 Total Blocks : 196608 Invalid Blocks : 0 Valid Blocks : 196608
 Total Tags : 491520 Threshold : 12288 Invalid Tags : 196613 Pr0 Tags : 98299 Pr1 Tags : 196608 num_pr0 : 12288
 SAE Count : 0
 Inter-Core Inteference in Data Store : 25847703
Heartbeat CPU 7 instructions: 100000001 cycles: 40009512 heartbeat IPC: 2.49422 cumulative IPC: 2.49941 (Simulation time: 22 hr 48 min 4 sec) 
 Total Blocks : 196608 Invalid Blocks : 0 Valid Blocks : 196608
 Total Tags : 491520 Threshold : 12288 Invalid Tags : 196615 Pr0 Tags : 98297 Pr1 Tags : 196608 num_pr0 : 12287
 SAE Count : 0
 Inter-Core Inteference in Data Store : 25848065
Heartbeat CPU 6 instructions: 100000001 cycles: 40009520 heartbeat IPC: 2.49412 cumulative IPC: 2.49941 (Simulation time: 22 hr 48 min 4 sec) 
 Total Blocks : 196608 Invalid Blocks : 0 Valid Blocks : 196608
 Total Tags : 491520 Threshold : 12288 Invalid Tags : 196616 Pr0 Tags : 98296 Pr1 Tags : 196608 num_pr0 : 12288
 SAE Count : 0
 Inter-Core Inteference in Data Store : 25848076
Heartbeat CPU 4 instructions: 100000001 cycles: 40009557 heartbeat IPC: 2.49417 cumulative IPC: 2.4994 (Simulation time: 22 hr 48 min 4 sec) 
 Total Blocks : 196608 Invalid Blocks : 0 Valid Blocks : 196608
 Total Tags : 491520 Threshold : 12288 Invalid Tags : 196612 Pr0 Tags : 98300 Pr1 Tags : 196608 num_pr0 : 12288
 SAE Count : 0
 Inter-Core Inteference in Data Store : 25848093
Heartbeat CPU 2 instructions: 100000001 cycles: 40010520 heartbeat IPC: 2.49414 cumulative IPC: 2.49934 (Simulation time: 22 hr 48 min 5 sec) 
 Total Blocks : 196608 Invalid Blocks : 0 Valid Blocks : 196608
 Total Tags : 491520 Threshold : 12288 Invalid Tags : 196613 Pr0 Tags : 98299 Pr1 Tags : 196608 num_pr0 : 12287
 SAE Count : 0
 Inter-Core Inteference in Data Store : 25848523
Heartbeat CPU 3 instructions: 100000001 cycles: 40010728 heartbeat IPC: 2.49386 cumulative IPC: 2.49933 (Simulation time: 22 hr 48 min 6 sec) 
 Total Blocks : 196608 Invalid Blocks : 0 Valid Blocks : 196608
 Total Tags : 491520 Threshold : 12288 Invalid Tags : 196616 Pr0 Tags : 98296 Pr1 Tags : 196608 num_pr0 : 12286
 SAE Count : 0
 Inter-Core Inteference in Data Store : 25848688
Heartbeat CPU 0 instructions: 100000001 cycles: 40011766 heartbeat IPC: 2.49412 cumulative IPC: 2.49926 (Simulation time: 22 hr 48 min 8 sec) 
 Total Blocks : 196608 Invalid Blocks : 0 Valid Blocks : 196608
 Total Tags : 491520 Threshold : 12288 Invalid Tags : 196614 Pr0 Tags : 98298 Pr1 Tags : 196608 num_pr0 : 12288
 SAE Count : 0
 Inter-Core Inteference in Data Store : 25849294
Heartbeat CPU 1 instructions: 100000001 cycles: 40011889 heartbeat IPC: 2.49405 cumulative IPC: 2.49926 (Simulation time: 22 hr 48 min 8 sec) 
 Total Blocks : 196608 Invalid Blocks : 0 Valid Blocks : 196608
 Total Tags : 491520 Threshold : 12288 Invalid Tags : 196614 Pr0 Tags : 98298 Pr1 Tags : 196608 num_pr0 : 12288
 SAE Count : 0
 Inter-Core Inteference in Data Store : 25849339
Heartbeat CPU 5 instructions: 110000000 cycles: 44031892 heartbeat IPC: 2.48577 cumulative IPC: 2.49819 (Simulation time: 25 hr 39 min 47 sec) 
 Total Blocks : 196608 Invalid Blocks : 0 Valid Blocks : 196608
 Total Tags : 491520 Threshold : 12288 Invalid Tags : 196615 Pr0 Tags : 98297 Pr1 Tags : 196608 num_pr0 : 12287
 SAE Count : 0
 Inter-Core Inteference in Data Store : 28477056
Heartbeat CPU 4 instructions: 110000000 cycles: 44032125 heartbeat IPC: 2.48597 cumulative IPC: 2.49818 (Simulation time: 25 hr 39 min 47 sec) 
 Total Blocks : 196608 Invalid Blocks : 0 Valid Blocks : 196608
 Total Tags : 491520 Threshold : 12288 Invalid Tags : 196615 Pr0 Tags : 98297 Pr1 Tags : 196608 num_pr0 : 12287
 SAE Count : 0
 Inter-Core Inteference in Data Store : 28477232
Heartbeat CPU 6 instructions: 110000000 cycles: 44032262 heartbeat IPC: 2.48587 cumulative IPC: 2.49817 (Simulation time: 25 hr 39 min 47 sec) 
 Total Blocks : 196608 Invalid Blocks : 0 Valid Blocks : 196608
 Total Tags : 491520 Threshold : 12288 Invalid Tags : 196614 Pr0 Tags : 98298 Pr1 Tags : 196608 num_pr0 : 12286
 SAE Count : 0
 Inter-Core Inteference in Data Store : 28477299
Heartbeat CPU 7 instructions: 110000000 cycles: 44032436 heartbeat IPC: 2.48575 cumulative IPC: 2.49816 (Simulation time: 25 hr 39 min 48 sec) 
 Total Blocks : 196608 Invalid Blocks : 0 Valid Blocks : 196608
 Total Tags : 491520 Threshold : 12288 Invalid Tags : 196610 Pr0 Tags : 98302 Pr1 Tags : 196608 num_pr0 : 12288
 SAE Count : 0
 Inter-Core Inteference in Data Store : 28477350
Heartbeat CPU 2 instructions: 110000000 cycles: 44033239 heartbeat IPC: 2.48588 cumulative IPC: 2.49811 (Simulation time: 25 hr 39 min 50 sec) 
 Total Blocks : 196608 Invalid Blocks : 0 Valid Blocks : 196608
 Total Tags : 491520 Threshold : 12288 Invalid Tags : 196618 Pr0 Tags : 98294 Pr1 Tags : 196608 num_pr0 : 12287
 SAE Count : 0
 Inter-Core Inteference in Data Store : 28477827
Heartbeat CPU 3 instructions: 110000000 cycles: 44033288 heartbeat IPC: 2.48598 cumulative IPC: 2.49811 (Simulation time: 25 hr 39 min 50 sec) 
 Total Blocks : 196608 Invalid Blocks : 0 Valid Blocks : 196608
 Total Tags : 491520 Threshold : 12288 Invalid Tags : 196612 Pr0 Tags : 98300 Pr1 Tags : 196608 num_pr0 : 12288
 SAE Count : 0
 Inter-Core Inteference in Data Store : 28477859
Heartbeat CPU 0 instructions: 110000000 cycles: 44034705 heartbeat IPC: 2.48574 cumulative IPC: 2.49803 (Simulation time: 25 hr 39 min 55 sec) 
 Total Blocks : 196608 Invalid Blocks : 0 Valid Blocks : 196608
 Total Tags : 491520 Threshold : 12288 Invalid Tags : 196612 Pr0 Tags : 98300 Pr1 Tags : 196608 num_pr0 : 12287
 SAE Count : 0
 Inter-Core Inteference in Data Store : 28479017
Heartbeat CPU 1 instructions: 110000000 cycles: 44034930 heartbeat IPC: 2.48568 cumulative IPC: 2.49802 (Simulation time: 25 hr 39 min 56 sec) 
 Total Blocks : 196608 Invalid Blocks : 0 Valid Blocks : 196608
 Total Tags : 491520 Threshold : 12288 Invalid Tags : 196614 Pr0 Tags : 98298 Pr1 Tags : 196608 num_pr0 : 12287
 SAE Count : 0
 Inter-Core Inteference in Data Store : 28479270
Heartbeat CPU 5 instructions: 120000003 cycles: 48034779 heartbeat IPC: 2.4982 cumulative IPC: 2.49819 (Simulation time: 28 hr 33 min 5 sec) 
 Total Blocks : 196608 Invalid Blocks : 0 Valid Blocks : 196608
 Total Tags : 491520 Threshold : 12288 Invalid Tags : 196612 Pr0 Tags : 98300 Pr1 Tags : 196608 num_pr0 : 12287
 SAE Count : 0
 Inter-Core Inteference in Data Store : 31047695
Heartbeat CPU 4 instructions: 120000003 cycles: 48034847 heartbeat IPC: 2.4983 cumulative IPC: 2.49819 (Simulation time: 28 hr 33 min 5 sec) 
 Total Blocks : 196608 Invalid Blocks : 0 Valid Blocks : 196608
 Total Tags : 491520 Threshold : 12288 Invalid Tags : 196612 Pr0 Tags : 98300 Pr1 Tags : 196608 num_pr0 : 12287
 SAE Count : 0
 Inter-Core Inteference in Data Store : 31047710
Heartbeat CPU 7 instructions: 120000003 cycles: 48035351 heartbeat IPC: 2.49818 cumulative IPC: 2.49816 (Simulation time: 28 hr 33 min 6 sec) 
 Total Blocks : 196608 Invalid Blocks : 0 Valid Blocks : 196608
 Total Tags : 491520 Threshold : 12288 Invalid Tags : 196612 Pr0 Tags : 98300 Pr1 Tags : 196608 num_pr0 : 12288
 SAE Count : 0
 Inter-Core Inteference in Data Store : 31047956
Heartbeat CPU 6 instructions: 120000003 cycles: 48035496 heartbeat IPC: 2.49798 cumulative IPC: 2.49815 (Simulation time: 28 hr 33 min 7 sec) 
 Total Blocks : 196608 Invalid Blocks : 0 Valid Blocks : 196608
 Total Tags : 491520 Threshold : 12288 Invalid Tags : 196616 Pr0 Tags : 98296 Pr1 Tags : 196608 num_pr0 : 12288
 SAE Count : 0
 Inter-Core Inteference in Data Store : 31048059
Heartbeat CPU 3 instructions: 120000003 cycles: 48036213 heartbeat IPC: 2.49817 cumulative IPC: 2.49812 (Simulation time: 28 hr 33 min 8 sec) 
 Total Blocks : 196608 Invalid Blocks : 0 Valid Blocks : 196608
 Total Tags : 491520 Threshold : 12288 Invalid Tags : 196615 Pr0 Tags : 98297 Pr1 Tags : 196608 num_pr0 : 12287
 SAE Count : 0
 Inter-Core Inteference in Data Store : 31048558
Heartbeat CPU 2 instructions: 120000003 cycles: 48036285 heartbeat IPC: 2.4981 cumulative IPC: 2.49811 (Simulation time: 28 hr 33 min 9 sec) 
 Total Blocks : 196608 Invalid Blocks : 0 Valid Blocks : 196608
 Total Tags : 491520 Threshold : 12288 Invalid Tags : 196615 Pr0 Tags : 98297 Pr1 Tags : 196608 num_pr0 : 12286
 SAE Count : 0
 Inter-Core Inteference in Data Store : 31048596
Heartbeat CPU 0 instructions: 120000003 cycles: 48037443 heartbeat IPC: 2.49829 cumulative IPC: 2.49805 (Simulation time: 28 hr 33 min 11 sec) 
 Total Blocks : 196608 Invalid Blocks : 0 Valid Blocks : 196608
 Total Tags : 491520 Threshold : 12288 Invalid Tags : 196612 Pr0 Tags : 98300 Pr1 Tags : 196608 num_pr0 : 12288
 SAE Count : 0
 Inter-Core Inteference in Data Store : 31049289
Heartbeat CPU 1 instructions: 120000003 cycles: 48037969 heartbeat IPC: 2.4981 cumulative IPC: 2.49802 (Simulation time: 28 hr 33 min 12 sec) 
 Total Blocks : 196608 Invalid Blocks : 0 Valid Blocks : 196608
 Total Tags : 491520 Threshold : 12288 Invalid Tags : 196610 Pr0 Tags : 98302 Pr1 Tags : 196608 num_pr0 : 12288
 SAE Count : 0
 Inter-Core Inteference in Data Store : 31049554
Heartbeat CPU 5 instructions: 130000001 cycles: 52036230 heartbeat IPC: 2.49909 cumulative IPC: 2.49826 (Simulation time: 31 hr 32 min 8 sec) 
 Total Blocks : 196608 Invalid Blocks : 0 Valid Blocks : 196608
 Total Tags : 491520 Threshold : 12288 Invalid Tags : 196614 Pr0 Tags : 98298 Pr1 Tags : 196608 num_pr0 : 12287
 SAE Count : 0
 Inter-Core Inteference in Data Store : 33613210
Heartbeat CPU 4 instructions: 130000001 cycles: 52036233 heartbeat IPC: 2.49913 cumulative IPC: 2.49826 (Simulation time: 31 hr 32 min 8 sec) 
 Total Blocks : 196608 Invalid Blocks : 0 Valid Blocks : 196608
 Total Tags : 491520 Threshold : 12288 Invalid Tags : 196614 Pr0 Tags : 98298 Pr1 Tags : 196608 num_pr0 : 12286
 SAE Count : 0
 Inter-Core Inteference in Data Store : 33613214
Heartbeat CPU 7 instructions: 130000001 cycles: 52036755 heartbeat IPC: 2.49912 cumulative IPC: 2.49823 (Simulation time: 31 hr 32 min 10 sec) 
 Total Blocks : 196608 Invalid Blocks : 0 Valid Blocks : 196608
 Total Tags : 491520 Threshold : 12288 Invalid Tags : 196610 Pr0 Tags : 98302 Pr1 Tags : 196608 num_pr0 : 12287
 SAE Count : 0
 Inter-Core Inteference in Data Store : 33613510
Heartbeat CPU 6 instructions: 130000001 cycles: 52036818 heartbeat IPC: 2.49917 cumulative IPC: 2.49823 (Simulation time: 31 hr 32 min 10 sec) 
 Total Blocks : 196608 Invalid Blocks : 0 Valid Blocks : 196608
 Total Tags : 491520 Threshold : 12288 Invalid Tags : 196609 Pr0 Tags : 98303 Pr1 Tags : 196608 num_pr0 : 12288
 SAE Count : 0
 Inter-Core Inteference in Data Store : 33613549
Heartbeat CPU 3 instructions: 130000001 cycles: 52037783 heartbeat IPC: 2.49902 cumulative IPC: 2.49818 (Simulation time: 31 hr 32 min 13 sec) 
 Total Blocks : 196608 Invalid Blocks : 0 Valid Blocks : 196608
 Total Tags : 491520 Threshold : 12288 Invalid Tags : 196613 Pr0 Tags : 98299 Pr1 Tags : 196608 num_pr0 : 12286
 SAE Count : 0
 Inter-Core Inteference in Data Store : 33614040
Heartbeat CPU 2 instructions: 130000001 cycles: 52037971 heartbeat IPC: 2.49895 cumulative IPC: 2.49818 (Simulation time: 31 hr 32 min 13 sec) 
 Total Blocks : 196608 Invalid Blocks : 0 Valid Blocks : 196608
 Total Tags : 491520 Threshold : 12288 Invalid Tags : 196613 Pr0 Tags : 98299 Pr1 Tags : 196608 num_pr0 : 12287
 SAE Count : 0
 Inter-Core Inteference in Data Store : 33614124
Heartbeat CPU 0 instructions: 130000001 cycles: 52039323 heartbeat IPC: 2.49883 cumulative IPC: 2.49811 (Simulation time: 31 hr 32 min 17 sec) 
 Total Blocks : 196608 Invalid Blocks : 0 Valid Blocks : 196608
 Total Tags : 491520 Threshold : 12288 Invalid Tags : 196616 Pr0 Tags : 98296 Pr1 Tags : 196608 num_pr0 : 12287
 SAE Count : 0
 Inter-Core Inteference in Data Store : 33614920
Heartbeat CPU 1 instructions: 130000001 cycles: 52039573 heartbeat IPC: 2.499 cumulative IPC: 2.4981 (Simulation time: 31 hr 32 min 17 sec) 
 Total Blocks : 196608 Invalid Blocks : 0 Valid Blocks : 196608
 Total Tags : 491520 Threshold : 12288 Invalid Tags : 196612 Pr0 Tags : 98300 Pr1 Tags : 196608 num_pr0 : 12288
 SAE Count : 0
 Inter-Core Inteference in Data Store : 33615029
Heartbeat CPU 4 instructions: 140000000 cycles: 56047506 heartbeat IPC: 2.49297 cumulative IPC: 2.49788 (Simulation time: 66 hr 57 min 40 sec) 
 Total Blocks : 196608 Invalid Blocks : 0 Valid Blocks : 196608
 Total Tags : 491520 Threshold : 12288 Invalid Tags : 196610 Pr0 Tags : 98302 Pr1 Tags : 196608 num_pr0 : 12288
 SAE Count : 0
 Inter-Core Inteference in Data Store : 36203242
Heartbeat CPU 5 instructions: 140000000 cycles: 56047654 heartbeat IPC: 2.49288 cumulative IPC: 2.49787 (Simulation time: 66 hr 57 min 42 sec) 
 Total Blocks : 196608 Invalid Blocks : 0 Valid Blocks : 196608
 Total Tags : 491520 Threshold : 12288 Invalid Tags : 196611 Pr0 Tags : 98301 Pr1 Tags : 196608 num_pr0 : 12287
 SAE Count : 0
 Inter-Core Inteference in Data Store : 36203359
Heartbeat CPU 7 instructions: 140000000 cycles: 56048169 heartbeat IPC: 2.49289 cumulative IPC: 2.49785 (Simulation time: 66 hr 57 min 45 sec) 
 Total Blocks : 196608 Invalid Blocks : 0 Valid Blocks : 196608
 Total Tags : 491520 Threshold : 12288 Invalid Tags : 196610 Pr0 Tags : 98302 Pr1 Tags : 196608 num_pr0 : 12288
 SAE Count : 0
 Inter-Core Inteference in Data Store : 36203953
Heartbeat CPU 6 instructions: 140000000 cycles: 56048204 heartbeat IPC: 2.4929 cumulative IPC: 2.49785 (Simulation time: 66 hr 57 min 46 sec) 
 Total Blocks : 196608 Invalid Blocks : 0 Valid Blocks : 196608
 Total Tags : 491520 Threshold : 12288 Invalid Tags : 196610 Pr0 Tags : 98302 Pr1 Tags : 196608 num_pr0 : 12287
 SAE Count : 0
 Inter-Core Inteference in Data Store : 36203974
Heartbeat CPU 3 instructions: 140000000 cycles: 56049012 heartbeat IPC: 2.493 cumulative IPC: 2.49781 (Simulation time: 66 hr 57 min 52 sec) 
 Total Blocks : 196608 Invalid Blocks : 0 Valid Blocks : 196608
 Total Tags : 491520 Threshold : 12288 Invalid Tags : 196609 Pr0 Tags : 98303 Pr1 Tags : 196608 num_pr0 : 12288
 SAE Count : 0
 Inter-Core Inteference in Data Store : 36204558
Heartbeat CPU 2 instructions: 140000000 cycles: 56049393 heartbeat IPC: 2.49288 cumulative IPC: 2.4978 (Simulation time: 66 hr 57 min 56 sec) 
 Total Blocks : 196608 Invalid Blocks : 0 Valid Blocks : 196608
 Total Tags : 491520 Threshold : 12288 Invalid Tags : 196613 Pr0 Tags : 98299 Pr1 Tags : 196608 num_pr0 : 12287
 SAE Count : 0
 Inter-Core Inteference in Data Store : 36204830
Heartbeat CPU 0 instructions: 140000000 cycles: 56050799 heartbeat IPC: 2.49285 cumulative IPC: 2.49773 (Simulation time: 66 hr 58 min 7 sec) 
 Total Blocks : 196608 Invalid Blocks : 0 Valid Blocks : 196608
 Total Tags : 491520 Threshold : 12288 Invalid Tags : 196609 Pr0 Tags : 98303 Pr1 Tags : 196608 num_pr0 : 12288
 SAE Count : 0
 Inter-Core Inteference in Data Store : 36205776
Heartbeat CPU 1 instructions: 140000000 cycles: 56051456 heartbeat IPC: 2.49259 cumulative IPC: 2.4977 (Simulation time: 66 hr 58 min 13 sec) 
 Total Blocks : 196608 Invalid Blocks : 0 Valid Blocks : 196608
 Total Tags : 491520 Threshold : 12288 Invalid Tags : 196611 Pr0 Tags : 98301 Pr1 Tags : 196608 num_pr0 : 12288
 SAE Count : 0
 Inter-Core Inteference in Data Store : 36206220
Heartbeat CPU 4 instructions: 150000000 cycles: 60066536 heartbeat IPC: 2.48816 cumulative IPC: 2.49723 (Simulation time: 78 hr 19 min 10 sec) 
 Total Blocks : 196608 Invalid Blocks : 0 Valid Blocks : 196608
 Total Tags : 491520 Threshold : 12288 Invalid Tags : 196614 Pr0 Tags : 98298 Pr1 Tags : 196608 num_pr0 : 12287
 SAE Count : 0
 Inter-Core Inteference in Data Store : 38813829
Heartbeat CPU 5 instructions: 150000000 cycles: 60066667 heartbeat IPC: 2.48817 cumulative IPC: 2.49723 (Simulation time: 78 hr 19 min 12 sec) 
 Total Blocks : 196608 Invalid Blocks : 0 Valid Blocks : 196608
 Total Tags : 491520 Threshold : 12288 Invalid Tags : 196615 Pr0 Tags : 98297 Pr1 Tags : 196608 num_pr0 : 12287
 SAE Count : 0
 Inter-Core Inteference in Data Store : 38813923
Heartbeat CPU 7 instructions: 150000000 cycles: 60066906 heartbeat IPC: 2.48834 cumulative IPC: 2.49722 (Simulation time: 78 hr 19 min 13 sec) 
 Total Blocks : 196608 Invalid Blocks : 0 Valid Blocks : 196608
 Total Tags : 491520 Threshold : 12288 Invalid Tags : 196610 Pr0 Tags : 98302 Pr1 Tags : 196608 num_pr0 : 12288
 SAE Count : 0
 Inter-Core Inteference in Data Store : 38814048
Heartbeat CPU 6 instructions: 150000000 cycles: 60066937 heartbeat IPC: 2.48835 cumulative IPC: 2.49721 (Simulation time: 78 hr 19 min 14 sec) 
 Total Blocks : 196608 Invalid Blocks : 0 Valid Blocks : 196608
 Total Tags : 491520 Threshold : 12288 Invalid Tags : 196612 Pr0 Tags : 98300 Pr1 Tags : 196608 num_pr0 : 12288
 SAE Count : 0
 Inter-Core Inteference in Data Store : 38814065
Heartbeat CPU 3 instructions: 150000000 cycles: 60067816 heartbeat IPC: 2.4883 cumulative IPC: 2.49718 (Simulation time: 78 hr 19 min 17 sec) 
 Total Blocks : 196608 Invalid Blocks : 0 Valid Blocks : 196608
 Total Tags : 491520 Threshold : 12288 Invalid Tags : 196615 Pr0 Tags : 98297 Pr1 Tags : 196608 num_pr0 : 12287
 SAE Count : 0
 Inter-Core Inteference in Data Store : 38814462
Heartbeat CPU 2 instructions: 150000000 cycles: 60068234 heartbeat IPC: 2.48828 cumulative IPC: 2.49716 (Simulation time: 78 hr 19 min 19 sec) 
 Total Blocks : 196608 Invalid Blocks : 0 Valid Blocks : 196608
 Total Tags : 491520 Threshold : 12288 Invalid Tags : 196614 Pr0 Tags : 98298 Pr1 Tags : 196608 num_pr0 : 12288
 SAE Count : 0
 Inter-Core Inteference in Data Store : 38814944
Heartbeat CPU 0 instructions: 150000000 cycles: 60070005 heartbeat IPC: 2.48805 cumulative IPC: 2.49709 (Simulation time: 78 hr 19 min 31 sec) 
 Total Blocks : 196608 Invalid Blocks : 0 Valid Blocks : 196608
 Total Tags : 491520 Threshold : 12288 Invalid Tags : 196609 Pr0 Tags : 98303 Pr1 Tags : 196608 num_pr0 : 12288
 SAE Count : 0
 Inter-Core Inteference in Data Store : 38816468
Heartbeat CPU 1 instructions: 150000000 cycles: 60070697 heartbeat IPC: 2.48803 cumulative IPC: 2.49706 (Simulation time: 78 hr 19 min 33 sec) 
 Total Blocks : 196608 Invalid Blocks : 0 Valid Blocks : 196608
 Total Tags : 491520 Threshold : 12288 Invalid Tags : 196612 Pr0 Tags : 98300 Pr1 Tags : 196608 num_pr0 : 12288
 SAE Count : 0
 Inter-Core Inteference in Data Store : 38816756
Heartbeat CPU 4 instructions: 160000001 cycles: 64066653 heartbeat IPC: 2.49993 cumulative IPC: 2.4974 (Simulation time: 86 hr 8 min 29 sec) 
 Total Blocks : 196608 Invalid Blocks : 0 Valid Blocks : 196608
 Total Tags : 491520 Threshold : 12288 Invalid Tags : 196612 Pr0 Tags : 98300 Pr1 Tags : 196608 num_pr0 : 12287
 SAE Count : 0
 Inter-Core Inteference in Data Store : 41365301
Heartbeat CPU 6 instructions: 160000001 cycles: 64067099 heartbeat IPC: 2.4999 cumulative IPC: 2.49738 (Simulation time: 86 hr 8 min 31 sec) 
 Total Blocks : 196608 Invalid Blocks : 0 Valid Blocks : 196608
 Total Tags : 491520 Threshold : 12288 Invalid Tags : 196612 Pr0 Tags : 98300 Pr1 Tags : 196608 num_pr0 : 12287
 SAE Count : 0
 Inter-Core Inteference in Data Store : 41365486
Heartbeat CPU 5 instructions: 160000001 cycles: 64067111 heartbeat IPC: 2.49972 cumulative IPC: 2.49738 (Simulation time: 86 hr 8 min 31 sec) 
 Total Blocks : 196608 Invalid Blocks : 0 Valid Blocks : 196608
 Total Tags : 491520 Threshold : 12288 Invalid Tags : 196611 Pr0 Tags : 98301 Pr1 Tags : 196608 num_pr0 : 12287
 SAE Count : 0
 Inter-Core Inteference in Data Store : 41365491
Heartbeat CPU 7 instructions: 160000001 cycles: 64067694 heartbeat IPC: 2.49951 cumulative IPC: 2.49736 (Simulation time: 86 hr 8 min 34 sec) 
 Total Blocks : 196608 Invalid Blocks : 0 Valid Blocks : 196608
 Total Tags : 491520 Threshold : 12288 Invalid Tags : 196610 Pr0 Tags : 98302 Pr1 Tags : 196608 num_pr0 : 12288
 SAE Count : 0
 Inter-Core Inteference in Data Store : 41365821
Heartbeat CPU 3 instructions: 160000001 cycles: 64068175 heartbeat IPC: 2.49978 cumulative IPC: 2.49734 (Simulation time: 86 hr 8 min 35 sec) 
 Total Blocks : 196608 Invalid Blocks : 0 Valid Blocks : 196608
 Total Tags : 491520 Threshold : 12288 Invalid Tags : 196610 Pr0 Tags : 98302 Pr1 Tags : 196608 num_pr0 : 12288
 SAE Count : 0
 Inter-Core Inteference in Data Store : 41366001
Heartbeat CPU 2 instructions: 160000001 cycles: 64068321 heartbeat IPC: 2.49995 cumulative IPC: 2.49733 (Simulation time: 86 hr 8 min 36 sec) 
 Total Blocks : 196608 Invalid Blocks : 0 Valid Blocks : 196608
 Total Tags : 491520 Threshold : 12288 Invalid Tags : 196610 Pr0 Tags : 98302 Pr1 Tags : 196608 num_pr0 : 12288
 SAE Count : 0
 Inter-Core Inteference in Data Store : 41366068
Heartbeat CPU 0 instructions: 160000001 cycles: 64070583 heartbeat IPC: 2.49964 cumulative IPC: 2.49725 (Simulation time: 86 hr 8 min 47 sec) 
 Total Blocks : 196608 Invalid Blocks : 0 Valid Blocks : 196608
 Total Tags : 491520 Threshold : 12288 Invalid Tags : 196612 Pr0 Tags : 98300 Pr1 Tags : 196608 num_pr0 : 12287
 SAE Count : 0
 Inter-Core Inteference in Data Store : 41367211
Heartbeat CPU 1 instructions: 160000001 cycles: 64071032 heartbeat IPC: 2.49979 cumulative IPC: 2.49723 (Simulation time: 86 hr 8 min 50 sec) 
 Total Blocks : 196608 Invalid Blocks : 0 Valid Blocks : 196608
 Total Tags : 491520 Threshold : 12288 Invalid Tags : 196609 Pr0 Tags : 98303 Pr1 Tags : 196608 num_pr0 : 12288
 SAE Count : 0
 Inter-Core Inteference in Data Store : 41367409
Heartbeat CPU 4 instructions: 170000002 cycles: 68063547 heartbeat IPC: 2.50194 cumulative IPC: 2.49767 (Simulation time: 93 hr 8 min 57 sec) 
 Total Blocks : 196608 Invalid Blocks : 0 Valid Blocks : 196608
 Total Tags : 491520 Threshold : 12288 Invalid Tags : 196612 Pr0 Tags : 98300 Pr1 Tags : 196608 num_pr0 : 12287
 SAE Count : 0
 Inter-Core Inteference in Data Store : 43902632
Heartbeat CPU 5 instructions: 170000002 cycles: 68063995 heartbeat IPC: 2.50195 cumulative IPC: 2.49765 (Simulation time: 93 hr 9 min 0 sec) 
 Total Blocks : 196608 Invalid Blocks : 0 Valid Blocks : 196608
 Total Tags : 491520 Threshold : 12288 Invalid Tags : 196614 Pr0 Tags : 98298 Pr1 Tags : 196608 num_pr0 : 12287
 SAE Count : 0
 Inter-Core Inteference in Data Store : 43902947
Heartbeat CPU 6 instructions: 170000002 cycles: 68064112 heartbeat IPC: 2.50187 cumulative IPC: 2.49765 (Simulation time: 93 hr 9 min 0 sec) 
 Total Blocks : 196608 Invalid Blocks : 0 Valid Blocks : 196608
 Total Tags : 491520 Threshold : 12288 Invalid Tags : 196611 Pr0 Tags : 98301 Pr1 Tags : 196608 num_pr0 : 12287
 SAE Count : 0
 Inter-Core Inteference in Data Store : 43903009
Heartbeat CPU 7 instructions: 170000002 cycles: 68064446 heartbeat IPC: 2.50203 cumulative IPC: 2.49763 (Simulation time: 93 hr 9 min 2 sec) 
 Total Blocks : 196608 Invalid Blocks : 0 Valid Blocks : 196608
 Total Tags : 491520 Threshold : 12288 Invalid Tags : 196615 Pr0 Tags : 98297 Pr1 Tags : 196608 num_pr0 : 12288
 SAE Count : 0
 Inter-Core Inteference in Data Store : 43903225
Heartbeat CPU 2 instructions: 170000002 cycles: 68065298 heartbeat IPC: 2.50189 cumulative IPC: 2.4976 (Simulation time: 93 hr 9 min 6 sec) 
 Total Blocks : 196608 Invalid Blocks : 0 Valid Blocks : 196608
 Total Tags : 491520 Threshold : 12288 Invalid Tags : 196615 Pr0 Tags : 98297 Pr1 Tags : 196608 num_pr0 : 12286
 SAE Count : 0
 Inter-Core Inteference in Data Store : 43903937
Heartbeat CPU 3 instructions: 170000002 cycles: 68065473 heartbeat IPC: 2.50169 cumulative IPC: 2.4976 (Simulation time: 93 hr 9 min 7 sec) 
 Total Blocks : 196608 Invalid Blocks : 0 Valid Blocks : 196608
 Total Tags : 491520 Threshold : 12288 Invalid Tags : 196610 Pr0 Tags : 98302 Pr1 Tags : 196608 num_pr0 : 12288
 SAE Count : 0
 Inter-Core Inteference in Data Store : 43904021
Heartbeat CPU 0 instructions: 170000002 cycles: 68067391 heartbeat IPC: 2.502 cumulative IPC: 2.49752 (Simulation time: 93 hr 9 min 16 sec) 
 Total Blocks : 196608 Invalid Blocks : 0 Valid Blocks : 196608
 Total Tags : 491520 Threshold : 12288 Invalid Tags : 196612 Pr0 Tags : 98300 Pr1 Tags : 196608 num_pr0 : 12288
 SAE Count : 0
 Inter-Core Inteference in Data Store : 43905376
Heartbeat CPU 1 instructions: 170000002 cycles: 68067912 heartbeat IPC: 2.50195 cumulative IPC: 2.49751 (Simulation time: 93 hr 9 min 19 sec) 
 Total Blocks : 196608 Invalid Blocks : 0 Valid Blocks : 196608
 Total Tags : 491520 Threshold : 12288 Invalid Tags : 196608 Pr0 Tags : 98304 Pr1 Tags : 196608 num_pr0 : 12288
 SAE Count : 0
 Inter-Core Inteference in Data Store : 43905658
Heartbeat CPU 4 instructions: 180000003 cycles: 72031709 heartbeat IPC: 2.52006 cumulative IPC: 2.4989 (Simulation time: 99 hr 22 min 39 sec) 
 Total Blocks : 196608 Invalid Blocks : 0 Valid Blocks : 196608
 Total Tags : 491520 Threshold : 12288 Invalid Tags : 196608 Pr0 Tags : 98304 Pr1 Tags : 196608 num_pr0 : 12288
 SAE Count : 0
 Inter-Core Inteference in Data Store : 46366041
Heartbeat CPU 6 instructions: 180000003 cycles: 72032358 heartbeat IPC: 2.52001 cumulative IPC: 2.49888 (Simulation time: 99 hr 22 min 42 sec) 
 Total Blocks : 196608 Invalid Blocks : 0 Valid Blocks : 196608
 Total Tags : 491520 Threshold : 12288 Invalid Tags : 196610 Pr0 Tags : 98302 Pr1 Tags : 196608 num_pr0 : 12288
 SAE Count : 0
 Inter-Core Inteference in Data Store : 46366237
Heartbeat CPU 5 instructions: 180000003 cycles: 72032415 heartbeat IPC: 2.51989 cumulative IPC: 2.49888 (Simulation time: 99 hr 22 min 42 sec) 
 Total Blocks : 196608 Invalid Blocks : 0 Valid Blocks : 196608
 Total Tags : 491520 Threshold : 12288 Invalid Tags : 196609 Pr0 Tags : 98303 Pr1 Tags : 196608 num_pr0 : 12287
 SAE Count : 0
 Inter-Core Inteference in Data Store : 46366254
Heartbeat CPU 7 instructions: 180000003 cycles: 72032494 heartbeat IPC: 2.52013 cumulative IPC: 2.49887 (Simulation time: 99 hr 22 min 43 sec) 
 Total Blocks : 196608 Invalid Blocks : 0 Valid Blocks : 196608
 Total Tags : 491520 Threshold : 12288 Invalid Tags : 196612 Pr0 Tags : 98300 Pr1 Tags : 196608 num_pr0 : 12288
 SAE Count : 0
 Inter-Core Inteference in Data Store : 46366291
Heartbeat CPU 3 instructions: 180000003 cycles: 72033595 heartbeat IPC: 2.52008 cumulative IPC: 2.49883 (Simulation time: 99 hr 22 min 46 sec) 
 Total Blocks : 196608 Invalid Blocks : 0 Valid Blocks : 196608
 Total Tags : 491520 Threshold : 12288 Invalid Tags : 196613 Pr0 Tags : 98299 Pr1 Tags : 196608 num_pr0 : 12287
 SAE Count : 0
 Inter-Core Inteference in Data Store : 46366937
Heartbeat CPU 2 instructions: 180000003 cycles: 72033798 heartbeat IPC: 2.51984 cumulative IPC: 2.49883 (Simulation time: 99 hr 22 min 48 sec) 
 Total Blocks : 196608 Invalid Blocks : 0 Valid Blocks : 196608
 Total Tags : 491520 Threshold : 12288 Invalid Tags : 196611 Pr0 Tags : 98301 Pr1 Tags : 196608 num_pr0 : 12287
 SAE Count : 0
 Inter-Core Inteference in Data Store : 46367010
Heartbeat CPU 0 instructions: 180000003 cycles: 72035683 heartbeat IPC: 2.51998 cumulative IPC: 2.49876 (Simulation time: 99 hr 22 min 52 sec) 
 Total Blocks : 196608 Invalid Blocks : 0 Valid Blocks : 196608
 Total Tags : 491520 Threshold : 12288 Invalid Tags : 196613 Pr0 Tags : 98299 Pr1 Tags : 196608 num_pr0 : 12288
 SAE Count : 0
 Inter-Core Inteference in Data Store : 46367734
Heartbeat CPU 1 instructions: 180000003 cycles: 72035724 heartbeat IPC: 2.52028 cumulative IPC: 2.49876 (Simulation time: 99 hr 22 min 53 sec) 
 Total Blocks : 196608 Invalid Blocks : 0 Valid Blocks : 196608
 Total Tags : 491520 Threshold : 12288 Invalid Tags : 196613 Pr0 Tags : 98299 Pr1 Tags : 196608 num_pr0 : 12288
 SAE Count : 0
 Inter-Core Inteference in Data Store : 46367751
Heartbeat CPU 4 instructions: 190000003 cycles: 76038117 heartbeat IPC: 2.496 cumulative IPC: 2.49875 (Simulation time: 105 hr 41 min 45 sec) 
 Total Blocks : 196608 Invalid Blocks : 0 Valid Blocks : 196608
 Total Tags : 491520 Threshold : 12288 Invalid Tags : 196610 Pr0 Tags : 98302 Pr1 Tags : 196608 num_pr0 : 12288
 SAE Count : 0
 Inter-Core Inteference in Data Store : 48930395
Heartbeat CPU 6 instructions: 190000003 cycles: 76038452 heartbeat IPC: 2.4962 cumulative IPC: 2.49874 (Simulation time: 105 hr 41 min 50 sec) 
 Total Blocks : 196608 Invalid Blocks : 0 Valid Blocks : 196608
 Total Tags : 491520 Threshold : 12288 Invalid Tags : 196611 Pr0 Tags : 98301 Pr1 Tags : 196608 num_pr0 : 12288
 SAE Count : 0
 Inter-Core Inteference in Data Store : 48930643
Heartbeat CPU 5 instructions: 190000003 cycles: 76038876 heartbeat IPC: 2.49597 cumulative IPC: 2.49872 (Simulation time: 105 hr 41 min 51 sec) 
 Total Blocks : 196608 Invalid Blocks : 0 Valid Blocks : 196608
 Total Tags : 491520 Threshold : 12288 Invalid Tags : 196610 Pr0 Tags : 98302 Pr1 Tags : 196608 num_pr0 : 12288
 SAE Count : 0
 Inter-Core Inteference in Data Store : 48930821
Heartbeat CPU 7 instructions: 190000003 cycles: 76038927 heartbeat IPC: 2.49599 cumulative IPC: 2.49872 (Simulation time: 105 hr 41 min 52 sec) 
 Total Blocks : 196608 Invalid Blocks : 0 Valid Blocks : 196608
 Total Tags : 491520 Threshold : 12288 Invalid Tags : 196611 Pr0 Tags : 98301 Pr1 Tags : 196608 num_pr0 : 12288
 SAE Count : 0
 Inter-Core Inteference in Data Store : 48930863
Heartbeat CPU 3 instructions: 190000003 cycles: 76039979 heartbeat IPC: 2.49602 cumulative IPC: 2.49869 (Simulation time: 105 hr 41 min 58 sec) 
 Total Blocks : 196608 Invalid Blocks : 0 Valid Blocks : 196608
 Total Tags : 491520 Threshold : 12288 Invalid Tags : 196610 Pr0 Tags : 98302 Pr1 Tags : 196608 num_pr0 : 12288
 SAE Count : 0
 Inter-Core Inteference in Data Store : 48931823
Heartbeat CPU 2 instructions: 190000003 cycles: 76040106 heartbeat IPC: 2.49606 cumulative IPC: 2.49868 (Simulation time: 105 hr 41 min 59 sec) 
 Total Blocks : 196608 Invalid Blocks : 0 Valid Blocks : 196608
 Total Tags : 491520 Threshold : 12288 Invalid Tags : 196611 Pr0 Tags : 98301 Pr1 Tags : 196608 num_pr0 : 12287
 SAE Count : 0
 Inter-Core Inteference in Data Store : 48931965
Heartbeat CPU 1 instructions: 190000003 cycles: 76042215 heartbeat IPC: 2.49595 cumulative IPC: 2.49861 (Simulation time: 105 hr 42 min 13 sec) 
 Total Blocks : 196608 Invalid Blocks : 0 Valid Blocks : 196608
 Total Tags : 491520 Threshold : 12288 Invalid Tags : 196613 Pr0 Tags : 98299 Pr1 Tags : 196608 num_pr0 : 12287
 SAE Count : 0
 Inter-Core Inteference in Data Store : 48934094
Heartbeat CPU 0 instructions: 190000003 cycles: 76042362 heartbeat IPC: 2.49583 cumulative IPC: 2.49861 (Simulation time: 105 hr 42 min 14 sec) 
 Total Blocks : 196608 Invalid Blocks : 0 Valid Blocks : 196608
 Total Tags : 491520 Threshold : 12288 Invalid Tags : 196612 Pr0 Tags : 98300 Pr1 Tags : 196608 num_pr0 : 12287
 SAE Count : 0
 Inter-Core Inteference in Data Store : 48934217
Heartbeat CPU 4 instructions: 200000003 cycles: 80032165 heartbeat IPC: 2.50373 cumulative IPC: 2.499 (Simulation time: 111 hr 54 min 58 sec) 
 Total Blocks : 196608 Invalid Blocks : 0 Valid Blocks : 196608
 Total Tags : 491520 Threshold : 12288 Invalid Tags : 196610 Pr0 Tags : 98302 Pr1 Tags : 196608 num_pr0 : 12288
 SAE Count : 0
 Inter-Core Inteference in Data Store : 51461956
Heartbeat CPU 6 instructions: 200000003 cycles: 80032228 heartbeat IPC: 2.5039 cumulative IPC: 2.49899 (Simulation time: 111 hr 55 min 0 sec) 
 Total Blocks : 196608 Invalid Blocks : 0 Valid Blocks : 196608
 Total Tags : 491520 Threshold : 12288 Invalid Tags : 196612 Pr0 Tags : 98300 Pr1 Tags : 196608 num_pr0 : 12288
 SAE Count : 0
 Inter-Core Inteference in Data Store : 51462022
Heartbeat CPU 5 instructions: 200000003 cycles: 80032554 heartbeat IPC: 2.50396 cumulative IPC: 2.49898 (Simulation time: 111 hr 55 min 2 sec) 
 Total Blocks : 196608 Invalid Blocks : 0 Valid Blocks : 196608
 Total Tags : 491520 Threshold : 12288 Invalid Tags : 196610 Pr0 Tags : 98302 Pr1 Tags : 196608 num_pr0 : 12287
 SAE Count : 0
 Inter-Core Inteference in Data Store : 51462286
Heartbeat CPU 7 instructions: 200000003 cycles: 80032871 heartbeat IPC: 2.50379 cumulative IPC: 2.49897 (Simulation time: 111 hr 55 min 6 sec) 
 Total Blocks : 196608 Invalid Blocks : 0 Valid Blocks : 196608
 Total Tags : 491520 Threshold : 12288 Invalid Tags : 196611 Pr0 Tags : 98301 Pr1 Tags : 196608 num_pr0 : 12286
 SAE Count : 0
 Inter-Core Inteference in Data Store : 51462619
Heartbeat CPU 3 instructions: 200000003 cycles: 80033881 heartbeat IPC: 2.50382 cumulative IPC: 2.49894 (Simulation time: 111 hr 55 min 15 sec) 
 Total Blocks : 196608 Invalid Blocks : 0 Valid Blocks : 196608
 Total Tags : 491520 Threshold : 12288 Invalid Tags : 196613 Pr0 Tags : 98299 Pr1 Tags : 196608 num_pr0 : 12288
 SAE Count : 0
 Inter-Core Inteference in Data Store : 51463850
Heartbeat CPU 2 instructions: 200000003 cycles: 80033920 heartbeat IPC: 2.50387 cumulative IPC: 2.49894 (Simulation time: 111 hr 55 min 16 sec) 
 Total Blocks : 196608 Invalid Blocks : 0 Valid Blocks : 196608
 Total Tags : 491520 Threshold : 12288 Invalid Tags : 196614 Pr0 Tags : 98298 Pr1 Tags : 196608 num_pr0 : 12286
 SAE Count : 0
 Inter-Core Inteference in Data Store : 51463903
Heartbeat CPU 1 instructions: 200000003 cycles: 80036128 heartbeat IPC: 2.50381 cumulative IPC: 2.49887 (Simulation time: 111 hr 55 min 28 sec) 
 Total Blocks : 196608 Invalid Blocks : 0 Valid Blocks : 196608
 Total Tags : 491520 Threshold : 12288 Invalid Tags : 196613 Pr0 Tags : 98299 Pr1 Tags : 196608 num_pr0 : 12287
 SAE Count : 0
 Inter-Core Inteference in Data Store : 51465421
Heartbeat CPU 0 instructions: 200000003 cycles: 80036659 heartbeat IPC: 2.50357 cumulative IPC: 2.49885 (Simulation time: 111 hr 55 min 32 sec) 
 Total Blocks : 196608 Invalid Blocks : 0 Valid Blocks : 196608
 Total Tags : 491520 Threshold : 12288 Invalid Tags : 196615 Pr0 Tags : 98297 Pr1 Tags : 196608 num_pr0 : 12288
 SAE Count : 0
 Inter-Core Inteference in Data Store : 51465704

Warmup complete CPU 0 instructions: 200000003 cycles: 80036659 (Simulation time: 111 hr 55 min 32 sec) 
Warmup complete CPU 1 instructions: 200001199 cycles: 80036658 (Simulation time: 111 hr 55 min 32 sec) 
Warmup complete CPU 2 instructions: 200006069 cycles: 80036658 (Simulation time: 111 hr 55 min 32 sec) 
Warmup complete CPU 3 instructions: 200006168 cycles: 80036658 (Simulation time: 111 hr 55 min 32 sec) 
Warmup complete CPU 4 instructions: 200010847 cycles: 80036658 (Simulation time: 111 hr 55 min 32 sec) 
Warmup complete CPU 5 instructions: 200009815 cycles: 80036658 (Simulation time: 111 hr 55 min 32 sec) 
Warmup complete CPU 6 instructions: 200010786 cycles: 80036658 (Simulation time: 111 hr 55 min 32 sec) 
Warmup complete CPU 7 instructions: 200008943 cycles: 80036658 (Simulation time: 111 hr 55 min 32 sec) 

Heartbeat CPU 5 instructions: 210000003 cycles: 153118426 heartbeat IPC: 0.136825 cumulative IPC: 0.136699 (Simulation time: 124 hr 47 min 44 sec) 
 Total Blocks : 196608 Invalid Blocks : 0 Valid Blocks : 196608
 Total Tags : 491520 Threshold : 12288 Invalid Tags : 196611 Pr0 Tags : 98301 Pr1 Tags : 196608 num_pr0 : 12287
 SAE Count : 0
 Inter-Core Inteference in Data Store : 2501435
Heartbeat CPU 6 instructions: 210000003 cycles: 153168076 heartbeat IPC: 0.136732 cumulative IPC: 0.136593 (Simulation time: 124 hr 48 min 6 sec) 
 Total Blocks : 196608 Invalid Blocks : 0 Valid Blocks : 196608
 Total Tags : 491520 Threshold : 12288 Invalid Tags : 196611 Pr0 Tags : 98301 Pr1 Tags : 196608 num_pr0 : 12287
 SAE Count : 0
 Inter-Core Inteference in Data Store : 2503077
Heartbeat CPU 1 instructions: 210000002 cycles: 153198015 heartbeat IPC: 0.136683 cumulative IPC: 0.136668 (Simulation time: 124 hr 48 min 15 sec) 
 Total Blocks : 196608 Invalid Blocks : 0 Valid Blocks : 196608
 Total Tags : 491520 Threshold : 12288 Invalid Tags : 196610 Pr0 Tags : 98302 Pr1 Tags : 196608 num_pr0 : 12288
 SAE Count : 0
 Inter-Core Inteference in Data Store : 2504095
Heartbeat CPU 4 instructions: 210000002 cycles: 153470827 heartbeat IPC: 0.136168 cumulative IPC: 0.136029 (Simulation time: 124 hr 50 min 30 sec) 
 Total Blocks : 196608 Invalid Blocks : 0 Valid Blocks : 196608
 Total Tags : 491520 Threshold : 12288 Invalid Tags : 196609 Pr0 Tags : 98303 Pr1 Tags : 196608 num_pr0 : 12288
 SAE Count : 0
 Inter-Core Inteference in Data Store : 2513037
Heartbeat CPU 2 instructions: 210000003 cycles: 153515589 heartbeat IPC: 0.136088 cumulative IPC: 0.136011 (Simulation time: 124 hr 51 min 0 sec) 
 Total Blocks : 196608 Invalid Blocks : 0 Valid Blocks : 196608
 Total Tags : 491520 Threshold : 12288 Invalid Tags : 196608 Pr0 Tags : 98304 Pr1 Tags : 196608 num_pr0 : 12288
 SAE Count : 0
 Inter-Core Inteference in Data Store : 2514452
Heartbeat CPU 7 instructions: 210000002 cycles: 153674922 heartbeat IPC: 0.135792 cumulative IPC: 0.135678 (Simulation time: 124 hr 52 min 13 sec) 
 Total Blocks : 196608 Invalid Blocks : 0 Valid Blocks : 196608
 Total Tags : 491520 Threshold : 12288 Invalid Tags : 196612 Pr0 Tags : 98300 Pr1 Tags : 196608 num_pr0 : 12288
 SAE Count : 0
 Inter-Core Inteference in Data Store : 2519731
Heartbeat CPU 0 instructions: 210000002 cycles: 153834298 heartbeat IPC: 0.135506 cumulative IPC: 0.135506 (Simulation time: 124 hr 53 min 28 sec) 
 Total Blocks : 196608 Invalid Blocks : 0 Valid Blocks : 196608
 Total Tags : 491520 Threshold : 12288 Invalid Tags : 196611 Pr0 Tags : 98301 Pr1 Tags : 196608 num_pr0 : 12288
 SAE Count : 0
 Inter-Core Inteference in Data Store : 2524856
Heartbeat CPU 3 instructions: 210000002 cycles: 154095726 heartbeat IPC: 0.135022 cumulative IPC: 0.134944 (Simulation time: 124 hr 55 min 41 sec) 
 Total Blocks : 196608 Invalid Blocks : 0 Valid Blocks : 196608
 Total Tags : 491520 Threshold : 12288 Invalid Tags : 196612 Pr0 Tags : 98300 Pr1 Tags : 196608 num_pr0 : 12287
 SAE Count : 0
 Inter-Core Inteference in Data Store : 2533273
Heartbeat CPU 1 instructions: 220000000 cycles: 229912611 heartbeat IPC: 0.130353 cumulative IPC: 0.133436 (Simulation time: 134 hr 46 min 7 sec) 
 Total Blocks : 196608 Invalid Blocks : 0 Valid Blocks : 196608
 Total Tags : 491520 Threshold : 12288 Invalid Tags : 196610 Pr0 Tags : 98302 Pr1 Tags : 196608 num_pr0 : 12288
 SAE Count : 0
 Inter-Core Inteference in Data Store : 5089190
Heartbeat CPU 5 instructions: 220000000 cycles: 229923638 heartbeat IPC: 0.130199 cumulative IPC: 0.133368 (Simulation time: 134 hr 46 min 11 sec) 
 Total Blocks : 196608 Invalid Blocks : 0 Valid Blocks : 196608
 Total Tags : 491520 Threshold : 12288 Invalid Tags : 196618 Pr0 Tags : 98294 Pr1 Tags : 196608 num_pr0 : 12286
 SAE Count : 0
 Inter-Core Inteference in Data Store : 5089563
Heartbeat CPU 4 instructions: 220000000 cycles: 229957355 heartbeat IPC: 0.130742 cumulative IPC: 0.133332 (Simulation time: 134 hr 46 min 25 sec) 
 Total Blocks : 196608 Invalid Blocks : 0 Valid Blocks : 196608
 Total Tags : 491520 Threshold : 12288 Invalid Tags : 196611 Pr0 Tags : 98301 Pr1 Tags : 196608 num_pr0 : 12288
 SAE Count : 0
 Inter-Core Inteference in Data Store : 5090721
Heartbeat CPU 6 instructions: 220000000 cycles: 230200488 heartbeat IPC: 0.129815 cumulative IPC: 0.133116 (Simulation time: 134 hr 48 min 28 sec) 
 Total Blocks : 196608 Invalid Blocks : 0 Valid Blocks : 196608
 Total Tags : 491520 Threshold : 12288 Invalid Tags : 196612 Pr0 Tags : 98300 Pr1 Tags : 196608 num_pr0 : 12287
 SAE Count : 0
 Inter-Core Inteference in Data Store : 5098995
Heartbeat CPU 7 instructions: 220000000 cycles: 230371374 heartbeat IPC: 0.130384 cumulative IPC: 0.132977 (Simulation time: 134 hr 49 min 51 sec) 
 Total Blocks : 196608 Invalid Blocks : 0 Valid Blocks : 196608
 Total Tags : 491520 Threshold : 12288 Invalid Tags : 196616 Pr0 Tags : 98296 Pr1 Tags : 196608 num_pr0 : 12288
 SAE Count : 0
 Inter-Core Inteference in Data Store : 5105022
Heartbeat CPU 0 instructions: 220000000 cycles: 230489584 heartbeat IPC: 0.130454 cumulative IPC: 0.132932 (Simulation time: 134 hr 50 min 43 sec) 
 Total Blocks : 196608 Invalid Blocks : 0 Valid Blocks : 196608
 Total Tags : 491520 Threshold : 12288 Invalid Tags : 196610 Pr0 Tags : 98302 Pr1 Tags : 196608 num_pr0 : 12287
 SAE Count : 0
 Inter-Core Inteference in Data Store : 5108999
Heartbeat CPU 2 instructions: 220000000 cycles: 230503799 heartbeat IPC: 0.12989 cumulative IPC: 0.132879 (Simulation time: 134 hr 50 min 50 sec) 
 Total Blocks : 196608 Invalid Blocks : 0 Valid Blocks : 196608
 Total Tags : 491520 Threshold : 12288 Invalid Tags : 196616 Pr0 Tags : 98296 Pr1 Tags : 196608 num_pr0 : 12287
 SAE Count : 0
 Inter-Core Inteference in Data Store : 5109468
Heartbeat CPU 3 instructions: 220000000 cycles: 232328790 heartbeat IPC: 0.127823 cumulative IPC: 0.131286 (Simulation time: 135 hr 4 min 40 sec) 
 Total Blocks : 196608 Invalid Blocks : 0 Valid Blocks : 196608
 Total Tags : 491520 Threshold : 12288 Invalid Tags : 196613 Pr0 Tags : 98299 Pr1 Tags : 196608 num_pr0 : 12288
 SAE Count : 0
 Inter-Core Inteference in Data Store : 5172390
Heartbeat CPU 6 instructions: 230000003 cycles: 307657856 heartbeat IPC: 0.129103 cumulative IPC: 0.131751 (Simulation time: 143 hr 53 min 25 sec) 
 Total Blocks : 196608 Invalid Blocks : 0 Valid Blocks : 196608
 Total Tags : 491520 Threshold : 12288 Invalid Tags : 196611 Pr0 Tags : 98301 Pr1 Tags : 196608 num_pr0 : 12288
 SAE Count : 0
 Inter-Core Inteference in Data Store : 7702013
Heartbeat CPU 4 instructions: 230000003 cycles: 307976495 heartbeat IPC: 0.128174 cumulative IPC: 0.131566 (Simulation time: 143 hr 55 min 13 sec) 
 Total Blocks : 196608 Invalid Blocks : 0 Valid Blocks : 196608
 Total Tags : 491520 Threshold : 12288 Invalid Tags : 196611 Pr0 Tags : 98301 Pr1 Tags : 196608 num_pr0 : 12288
 SAE Count : 0
 Inter-Core Inteference in Data Store : 7712425
Heartbeat CPU 0 instructions: 230000003 cycles: 308005871 heartbeat IPC: 0.129005 cumulative IPC: 0.131597 (Simulation time: 143 hr 55 min 23 sec) 
 Total Blocks : 196608 Invalid Blocks : 0 Valid Blocks : 196608
 Total Tags : 491520 Threshold : 12288 Invalid Tags : 196615 Pr0 Tags : 98297 Pr1 Tags : 196608 num_pr0 : 12286
 SAE Count : 0
 Inter-Core Inteference in Data Store : 7713376
Heartbeat CPU 7 instructions: 230000003 cycles: 308047674 heartbeat IPC: 0.128739 cumulative IPC: 0.131533 (Simulation time: 143 hr 55 min 37 sec) 
 Total Blocks : 196608 Invalid Blocks : 0 Valid Blocks : 196608
 Total Tags : 491520 Threshold : 12288 Invalid Tags : 196612 Pr0 Tags : 98300 Pr1 Tags : 196608 num_pr0 : 12288
 SAE Count : 0
 Inter-Core Inteference in Data Store : 7714772
Heartbeat CPU 1 instructions: 230000003 cycles: 308104366 heartbeat IPC: 0.127891 cumulative IPC: 0.131535 (Simulation time: 143 hr 55 min 56 sec) 
 Total Blocks : 196608 Invalid Blocks : 0 Valid Blocks : 196608
 Total Tags : 491520 Threshold : 12288 Invalid Tags : 196617 Pr0 Tags : 98295 Pr1 Tags : 196608 num_pr0 : 12287
 SAE Count : 0
 Inter-Core Inteference in Data Store : 7716651
Heartbeat CPU 5 instructions: 230000003 cycles: 308441282 heartbeat IPC: 0.12736 cumulative IPC: 0.131303 (Simulation time: 143 hr 57 min 50 sec) 
 Total Blocks : 196608 Invalid Blocks : 0 Valid Blocks : 196608
 Total Tags : 491520 Threshold : 12288 Invalid Tags : 196612 Pr0 Tags : 98300 Pr1 Tags : 196608 num_pr0 : 12288
 SAE Count : 0
 Inter-Core Inteference in Data Store : 7727723
Heartbeat CPU 2 instructions: 230000003 cycles: 309376238 heartbeat IPC: 0.126787 cumulative IPC: 0.130784 (Simulation time: 144 hr 3 min 24 sec) 
 Total Blocks : 196608 Invalid Blocks : 0 Valid Blocks : 196608
 Total Tags : 491520 Threshold : 12288 Invalid Tags : 196610 Pr0 Tags : 98302 Pr1 Tags : 196608 num_pr0 : 12288
 SAE Count : 0
 Inter-Core Inteference in Data Store : 7759021
Heartbeat CPU 3 instructions: 230000003 cycles: 311163188 heartbeat IPC: 0.126848 cumulative IPC: 0.129772 (Simulation time: 144 hr 14 min 13 sec) 
 Total Blocks : 196608 Invalid Blocks : 0 Valid Blocks : 196608
 Total Tags : 491520 Threshold : 12288 Invalid Tags : 196611 Pr0 Tags : 98301 Pr1 Tags : 196608 num_pr0 : 12287
 SAE Count : 0
 Inter-Core Inteference in Data Store : 7818550
Heartbeat CPU 6 instructions: 240000003 cycles: 388551648 heartbeat IPC: 0.123619 cumulative IPC: 0.129618 (Simulation time: 151 hr 28 min 50 sec) 
 Total Blocks : 196608 Invalid Blocks : 0 Valid Blocks : 196608
 Total Tags : 491520 Threshold : 12288 Invalid Tags : 196610 Pr0 Tags : 98302 Pr1 Tags : 196608 num_pr0 : 12287
 SAE Count : 0
 Inter-Core Inteference in Data Store : 10430380
Heartbeat CPU 0 instructions: 240000003 cycles: 388796726 heartbeat IPC: 0.123776 cumulative IPC: 0.12955 (Simulation time: 151 hr 30 min 6 sec) 
 Total Blocks : 196608 Invalid Blocks : 0 Valid Blocks : 196608
 Total Tags : 491520 Threshold : 12288 Invalid Tags : 196615 Pr0 Tags : 98297 Pr1 Tags : 196608 num_pr0 : 12288
 SAE Count : 0
 Inter-Core Inteference in Data Store : 10438586
Heartbeat CPU 4 instructions: 240000003 cycles: 388909840 heartbeat IPC: 0.123558 cumulative IPC: 0.129468 (Simulation time: 151 hr 30 min 41 sec) 
 Total Blocks : 196608 Invalid Blocks : 0 Valid Blocks : 196608
 Total Tags : 491520 Threshold : 12288 Invalid Tags : 196615 Pr0 Tags : 98297 Pr1 Tags : 196608 num_pr0 : 12287
 SAE Count : 0
 Inter-Core Inteference in Data Store : 10442463
Heartbeat CPU 7 instructions: 240000003 cycles: 389044141 heartbeat IPC: 0.123462 cumulative IPC: 0.129418 (Simulation time: 151 hr 31 min 24 sec) 
 Total Blocks : 196608 Invalid Blocks : 0 Valid Blocks : 196608
 Total Tags : 491520 Threshold : 12288 Invalid Tags : 196611 Pr0 Tags : 98301 Pr1 Tags : 196608 num_pr0 : 12286
 SAE Count : 0
 Inter-Core Inteference in Data Store : 10446859
Heartbeat CPU 5 instructions: 240000003 cycles: 389242516 heartbeat IPC: 0.12376 cumulative IPC: 0.129332 (Simulation time: 151 hr 32 min 26 sec) 
 Total Blocks : 196608 Invalid Blocks : 0 Valid Blocks : 196608
 Total Tags : 491520 Threshold : 12288 Invalid Tags : 196615 Pr0 Tags : 98297 Pr1 Tags : 196608 num_pr0 : 12288
 SAE Count : 0
 Inter-Core Inteference in Data Store : 10453570
Heartbeat CPU 1 instructions: 240000003 cycles: 389467014 heartbeat IPC: 0.122907 cumulative IPC: 0.129266 (Simulation time: 151 hr 33 min 41 sec) 
 Total Blocks : 196608 Invalid Blocks : 0 Valid Blocks : 196608
 Total Tags : 491520 Threshold : 12288 Invalid Tags : 196615 Pr0 Tags : 98297 Pr1 Tags : 196608 num_pr0 : 12287
 SAE Count : 0
 Inter-Core Inteference in Data Store : 10461046
Heartbeat CPU 2 instructions: 240000003 cycles: 390756591 heartbeat IPC: 0.12288 cumulative IPC: 0.128714 (Simulation time: 151 hr 40 min 38 sec) 
 Total Blocks : 196608 Invalid Blocks : 0 Valid Blocks : 196608
 Total Tags : 491520 Threshold : 12288 Invalid Tags : 196611 Pr0 Tags : 98301 Pr1 Tags : 196608 num_pr0 : 12288
 SAE Count : 0
 Inter-Core Inteference in Data Store : 10505383
Heartbeat CPU 3 instructions: 240000003 cycles: 391906077 heartbeat IPC: 0.12385 cumulative IPC: 0.128239 (Simulation time: 151 hr 46 min 55 sec) 
 Total Blocks : 196608 Invalid Blocks : 0 Valid Blocks : 196608
 Total Tags : 491520 Threshold : 12288 Invalid Tags : 196612 Pr0 Tags : 98300 Pr1 Tags : 196608 num_pr0 : 12287
 SAE Count : 0
 Inter-Core Inteference in Data Store : 10542931
Heartbeat CPU 6 instructions: 250000002 cycles: 467653958 heartbeat IPC: 0.126419 cumulative IPC: 0.128965 (Simulation time: 158 hr 0 min 30 sec) 
 Total Blocks : 196608 Invalid Blocks : 0 Valid Blocks : 196608
 Total Tags : 491520 Threshold : 12288 Invalid Tags : 196609 Pr0 Tags : 98303 Pr1 Tags : 196608 num_pr0 : 12288
 SAE Count : 0
 Inter-Core Inteference in Data Store : 13101961
Heartbeat CPU 0 instructions: 250000002 cycles: 467853080 heartbeat IPC: 0.126492 cumulative IPC: 0.128927 (Simulation time: 158 hr 1 min 23 sec) 
 Total Blocks : 196608 Invalid Blocks : 0 Valid Blocks : 196608
 Total Tags : 491520 Threshold : 12288 Invalid Tags : 196612 Pr0 Tags : 98300 Pr1 Tags : 196608 num_pr0 : 12287
 SAE Count : 0
 Inter-Core Inteference in Data Store : 13108807
Heartbeat CPU 7 instructions: 250000002 cycles: 468089284 heartbeat IPC: 0.12651 cumulative IPC: 0.128825 (Simulation time: 158 hr 2 min 29 sec) 
 Total Blocks : 196608 Invalid Blocks : 0 Valid Blocks : 196608
 Total Tags : 491520 Threshold : 12288 Invalid Tags : 196610 Pr0 Tags : 98302 Pr1 Tags : 196608 num_pr0 : 12288
 SAE Count : 0
 Inter-Core Inteference in Data Store : 13116629
Heartbeat CPU 5 instructions: 250000003 cycles: 468185261 heartbeat IPC: 0.126674 cumulative IPC: 0.128791 (Simulation time: 158 hr 2 min 56 sec) 
 Total Blocks : 196608 Invalid Blocks : 0 Valid Blocks : 196608
 Total Tags : 491520 Threshold : 12288 Invalid Tags : 196612 Pr0 Tags : 98300 Pr1 Tags : 196608 num_pr0 : 12286
 SAE Count : 0
 Inter-Core Inteference in Data Store : 13119765
Heartbeat CPU 4 instructions: 250000003 cycles: 468266320 heartbeat IPC: 0.126014 cumulative IPC: 0.128762 (Simulation time: 158 hr 3 min 22 sec) 
 Total Blocks : 196608 Invalid Blocks : 0 Valid Blocks : 196608
 Total Tags : 491520 Threshold : 12288 Invalid Tags : 196613 Pr0 Tags : 98299 Pr1 Tags : 196608 num_pr0 : 12287
 SAE Count : 0
 Inter-Core Inteference in Data Store : 13122300
Heartbeat CPU 1 instructions: 250000003 cycles: 469380546 heartbeat IPC: 0.125135 cumulative IPC: 0.128418 (Simulation time: 158 hr 8 min 35 sec) 
 Total Blocks : 196608 Invalid Blocks : 0 Valid Blocks : 196608
 Total Tags : 491520 Threshold : 12288 Invalid Tags : 196612 Pr0 Tags : 98300 Pr1 Tags : 196608 num_pr0 : 12288
 SAE Count : 0
 Inter-Core Inteference in Data Store : 13159428
[...]
LLC4 LOAD      ACCESS: 40694  HIT:     0  MISS: 40694  HIT %:     0  MISS %:   100  AVERAGE MISS PENALTY: 1909.07
LLC4 RFO       ACCESS: 1024759  HIT: 126171  MISS: 898588  HIT %: 12.3123  MISS %: 87.6877  AVERAGE MISS PENALTY: 2450.61
LLC4 PREFETCH  ACCESS: 257882  HIT:    14  MISS: 257868  HIT %: 0.00542884  MISS %: 99.9946  AVERAGE MISS PENALTY: 2031.43
LLC4 WRITEBACK ACCESS: 1024902  HIT: 111895  MISS: 913007  HIT %: 10.9176  MISS %: 89.0824  AVERAGE MISS PENALTY: 0
LLC4 PREFETCH  REQUESTED:     0  ISSUED:     0  USEFUL:     0  USELESS:   181
 USEFUL LOAD PREFETCHES:          0 PREFETCH ISSUED TO LOWER LEVEL:  777154667  ACCURACY: 0
 TIMELY PREFETCHES:          0 LATE PREFETCHES: 0 DROPPED PREFETCHES: 0
LLC4 AVERAGE MISS LATENCY: 1328.63 cycles

LLC4 Set Associative Eviction Count : 0
LLC4 Priority 0 entries : 12288
LLC4 Inter-Core Interference : 6431533
LLC5 TOTAL     ACCESS: 2348695  HIT: 238459  MISS: 2110236  HIT %: 10.1528  MISS %: 89.8472  AVERAGE MISS PENALTY: 1323.88
LLC5 LOAD      ACCESS: 41343  HIT:     0  MISS: 41343  HIT %:     0  MISS %:   100  AVERAGE MISS PENALTY: 1893.77
LLC5 RFO       ACCESS: 1024974  HIT: 126418  MISS: 898556  HIT %: 12.3338  MISS %: 87.6662  AVERAGE MISS PENALTY: 2441.19
LLC5 PREFETCH  ACCESS: 257226  HIT:    11  MISS: 257215  HIT %: 0.0042764  MISS %: 99.9957  AVERAGE MISS PENALTY: 2028.91
LLC5 WRITEBACK ACCESS: 1025152  HIT: 112030  MISS: 913122  HIT %: 10.9281  MISS %: 89.0719  AVERAGE MISS PENALTY: 0
LLC5 PREFETCH  REQUESTED:     0  ISSUED:     0  USEFUL:     0  USELESS:   183
 USEFUL LOAD PREFETCHES:          0 PREFETCH ISSUED TO LOWER LEVEL:  762095936  ACCURACY: 0
 TIMELY PREFETCHES:          0 LATE PREFETCHES: 0 DROPPED PREFETCHES: 0
LLC5 AVERAGE MISS LATENCY: 1323.88 cycles

LLC5 Set Associative Eviction Count : 0
LLC5 Priority 0 entries : 12288
LLC5 Inter-Core Interference : 6430494
LLC6 TOTAL     ACCESS: 2348737  HIT: 238018  MISS: 2110719  HIT %: 10.1339  MISS %: 89.8661  AVERAGE MISS PENALTY: 1303.87
LLC6 LOAD      ACCESS: 41163  HIT:     0  MISS: 41163  HIT %:     0  MISS %:   100  AVERAGE MISS PENALTY: 1937.03
LLC6 RFO       ACCESS: 1024802  HIT: 126083  MISS: 898719  HIT %: 12.3032  MISS %: 87.6968  AVERAGE MISS PENALTY: 2371.23
LLC6 PREFETCH  ACCESS: 257882  HIT:   217  MISS: 257665  HIT %: 0.084147  MISS %: 99.9159  AVERAGE MISS PENALTY: 2100.82
LLC6 WRITEBACK ACCESS: 1024890  HIT: 111718  MISS: 913172  HIT %: 10.9005  MISS %: 89.0995  AVERAGE MISS PENALTY: 0
LLC6 PREFETCH  REQUESTED:     0  ISSUED:     0  USEFUL:     0  USELESS:   837
 USEFUL LOAD PREFETCHES:          0 PREFETCH ISSUED TO LOWER LEVEL: 1002104103  ACCURACY: 0
 TIMELY PREFETCHES:          0 LATE PREFETCHES: 0 DROPPED PREFETCHES: 0
LLC6 AVERAGE MISS LATENCY: 1303.87 cycles

LLC6 Set Associative Eviction Count : 0
LLC6 Priority 0 entries : 12288
LLC6 Inter-Core Interference : 6431603
LLC7 TOTAL     ACCESS: 2348338  HIT: 237974  MISS: 2110364  HIT %: 10.1337  MISS %: 89.8663  AVERAGE MISS PENALTY: 1301.72
LLC7 LOAD      ACCESS: 41509  HIT:     0  MISS: 41509  HIT %:     0  MISS %:   100  AVERAGE MISS PENALTY: 1948.18
LLC7 RFO       ACCESS: 1024612  HIT: 125879  MISS: 898733  HIT %: 12.2855  MISS %: 87.7145  AVERAGE MISS PENALTY: 2366.76
LLC7 PREFETCH  ACCESS: 257531  HIT:   238  MISS: 257293  HIT %: 0.0924161  MISS %: 99.9076  AVERAGE MISS PENALTY: 2095.43
LLC7 WRITEBACK ACCESS: 1024686  HIT: 111857  MISS: 912829  HIT %: 10.9162  MISS %: 89.0838  AVERAGE MISS PENALTY: 0
LLC7 PREFETCH  REQUESTED:     0  ISSUED:     0  USEFUL:     0  USELESS:   841
 USEFUL LOAD PREFETCHES:          0 PREFETCH ISSUED TO LOWER LEVEL:  996469927  ACCURACY: 0
 TIMELY PREFETCHES:          0 LATE PREFETCHES: 0 DROPPED PREFETCHES: 0
LLC7 AVERAGE MISS LATENCY: 1301.72 cycles

LLC7 Set Associative Eviction Count : 0
LLC7 Priority 0 entries : 12287
LLC7 Inter-Core Interference : 6430202
ROI Average ROB Stall Cycles:	115.338
ROI Total ROB Stalls Cycles:	1451231585
ROI TOTAL ROB counter      :	12582460
ROI Average Load ROB Stall Cycles:	734.603
ROI Total Load ROB Stalls Cycle  :	1387675423
ROI Total Load ROB stalls Counter:	1889013
Major fault: 0 Minor fault: 152088

CPU 7 cumulative IPC: 0.131483 instructions: 200000003 cycles: 1521106905
ITLB TOTAL     ACCESS: 30669129  HIT: 30669129  MISS:     0  HIT %:   100  MISS %:     0  AVERAGE MISS PENALTY: 0
ITLB LOAD      ACCESS: 30669129  HIT: 30669129  MISS:     0  HIT %:   100  MISS %:     0  AVERAGE MISS PENALTY: 0
ITLB RFO       ACCESS:     0  HIT:     0  MISS:     0  HIT %:     0  MISS %:     0  AVERAGE MISS PENALTY: 0
ITLB PREFETCH  ACCESS:     0  HIT:     0  MISS:     0  HIT %:     0  MISS %:     0  AVERAGE MISS PENALTY: 0
ITLB WRITEBACK ACCESS:     0  HIT:     0  MISS:     0  HIT %:     0  MISS %:     0  AVERAGE MISS PENALTY: 0
ITLB PREFETCH  REQUESTED:     0  ISSUED:     0  USEFUL:     0  USELESS:     0
 USEFUL LOAD PREFETCHES:          0 PREFETCH ISSUED TO LOWER LEVEL:          0  ACCURACY: -nan
 TIMELY PREFETCHES:          0 LATE PREFETCHES: 0 DROPPED PREFETCHES: 0
ITLB AVERAGE MISS LATENCY: -nan cycles

ITLB Set Associative Eviction Count : 0
ITLB Priority 0 entries : 0
ITLB Inter-Core Interference : 0
DTLB TOTAL     ACCESS: 40419393  HIT: 40144295  MISS: 275098  HIT %: 99.3194  MISS %: 0.680609  AVERAGE MISS PENALTY: 87.1853
DTLB LOAD      ACCESS: 19545775  HIT: 19508444  MISS: 37331  HIT %: 99.809  MISS %: 0.190993  AVERAGE MISS PENALTY: 109.002
DTLB RFO       ACCESS: 20873618  HIT: 20635851  MISS: 237767  HIT %: 98.8609  MISS %: 1.13908  AVERAGE MISS PENALTY: 83.7599
DTLB PREFETCH  ACCESS:     0  HIT:     0  MISS:     0  HIT %:     0  MISS %:     0  AVERAGE MISS PENALTY: 0
DTLB WRITEBACK ACCESS:     0  HIT:     0  MISS:     0  HIT %:     0  MISS %:     0  AVERAGE MISS PENALTY: 0
DTLB PREFETCH  REQUESTED:     0  ISSUED:     0  USEFUL:     0  USELESS:     0
 USEFUL LOAD PREFETCHES:          0 PREFETCH ISSUED TO LOWER LEVEL:          0  ACCURACY: -nan
 TIMELY PREFETCHES:          0 LATE PREFETCHES: 0 DROPPED PREFETCHES: 0
DTLB AVERAGE MISS LATENCY: 87.1853 cycles

DTLB Set Associative Eviction Count : 0
DTLB Priority 0 entries : 0
DTLB Inter-Core Interference : 0
STLB TOTAL     ACCESS: 275098  HIT: 125824  MISS: 149274  HIT %: 45.7379  MISS %: 54.2621  AVERAGE MISS PENALTY: 100
STLB LOAD      ACCESS: 37331  HIT:     0  MISS: 37331  HIT %:     0  MISS %:   100  AVERAGE MISS PENALTY: 100
STLB RFO       ACCESS: 237767  HIT: 125824  MISS: 111943  HIT %: 52.919  MISS %: 47.081  AVERAGE MISS PENALTY: 100
STLB PREFETCH  ACCESS:     0  HIT:     0  MISS:     0  HIT %:     0  MISS %:     0  AVERAGE MISS PENALTY: 0
STLB WRITEBACK ACCESS:     0  HIT:     0  MISS:     0  HIT %:     0  MISS %:     0  AVERAGE MISS PENALTY: 0
STLB PREFETCH  REQUESTED:     0  ISSUED:     0  USEFUL:     0  USELESS:     0
 USEFUL LOAD PREFETCHES:          0 PREFETCH ISSUED TO LOWER LEVEL:          0  ACCURACY: -nan
 TIMELY PREFETCHES:          0 LATE PREFETCHES: 0 DROPPED PREFETCHES: 0
STLB AVERAGE MISS LATENCY: 100 cycles

STLB Set Associative Eviction Count : 0
STLB Priority 0 entries : 0
STLB Inter-Core Interference : 0
L1D TOTAL     ACCESS: 57975594  HIT: 42205715  MISS: 15769879  HIT %: 72.7991  MISS %: 27.2009  AVERAGE MISS PENALTY: 3.09717e+07
L1D LOAD      ACCESS: 16248117  HIT: 14659062  MISS: 1589055  HIT %: 90.2201  MISS %: 9.77993  AVERAGE MISS PENALTY: 3.07353e+08
L1D RFO       ACCESS: 34556277  HIT: 21184961  MISS: 13371316  HIT %: 61.3057  MISS %: 38.6943  AVERAGE MISS PENALTY: 1347.93
L1D PREFETCH  ACCESS: 7171200  HIT: 6361692  MISS: 809508  HIT %: 88.7117  MISS %: 11.2883  AVERAGE MISS PENALTY: 1083.97
L1D WRITEBACK ACCESS:     0  HIT:     0  MISS:     0  HIT %:     0  MISS %:     0  AVERAGE MISS PENALTY: 0
L1D PREFETCH  REQUESTED: 26081955  ISSUED: 21775045  USEFUL: 798935  USELESS: 10573
 USEFUL LOAD PREFETCHES:     798935 PREFETCH ISSUED TO LOWER LEVEL: 1919306480  ACCURACY: 0.0416262
 TIMELY PREFETCHES:     798935 LATE PREFETCHES: 1815486 DROPPED PREFETCHES: 4306910
L1D AVERAGE MISS LATENCY: 1339.29 cycles

L1D Set Associative Eviction Count : 0
L1D Priority 0 entries : 0
L1D Inter-Core Interference : 0
L1I TOTAL     ACCESS: 42344156  HIT: 42344156  MISS:     0  HIT %:   100  MISS %:     0  AVERAGE MISS PENALTY: 0
L1I LOAD      ACCESS: 42344156  HIT: 42344156  MISS:     0  HIT %:   100  MISS %:     0  AVERAGE MISS PENALTY: 0
L1I RFO       ACCESS:     0  HIT:     0  MISS:     0  HIT %:     0  MISS %:     0  AVERAGE MISS PENALTY: 0
L1I PREFETCH  ACCESS:     0  HIT:     0  MISS:     0  HIT %:     0  MISS %:     0  AVERAGE MISS PENALTY: 0
L1I WRITEBACK ACCESS:     0  HIT:     0  MISS:     0  HIT %:     0  MISS %:     0  AVERAGE MISS PENALTY: 0
L1I PREFETCH  REQUESTED:     0  ISSUED:     0  USEFUL:     0  USELESS:     0
 USEFUL LOAD PREFETCHES:          0 PREFETCH ISSUED TO LOWER LEVEL:          0  ACCURACY: -nan
 TIMELY PREFETCHES:          0 LATE PREFETCHES: 0 DROPPED PREFETCHES: 0
L1I AVERAGE MISS LATENCY: -nan cycles

L1I Set Associative Eviction Count : 0
L1I Priority 0 entries : 0
L1I Inter-Core Interference : 0
L2C TOTAL     ACCESS: 29969897  HIT: 19358731  MISS: 10611166  HIT %: 64.5939  MISS %: 35.4061  AVERAGE MISS PENALTY: 7.93425e+07
L2C LOAD      ACCESS: 1579877  HIT: 292537  MISS: 1287340  HIT %: 18.5164  MISS %: 81.4836  AVERAGE MISS PENALTY: 6.53982e+08
L2C RFO       ACCESS: 13371315  HIT: 5150030  MISS: 8221285  HIT %: 38.5155  MISS %: 61.4845  AVERAGE MISS PENALTY: 2166.43
L2C PREFETCH  ACCESS: 1647388  HIT: 545475  MISS: 1101913  HIT %: 33.1115  MISS %: 66.8885  AVERAGE MISS PENALTY: 1709.04
L2C WRITEBACK ACCESS: 13371317  HIT: 13370689  MISS:   628  HIT %: 99.9953  MISS %: 0.00469662  AVERAGE MISS PENALTY: 0
L2C PREFETCH  REQUESTED: 4168788  ISSUED: 4168774  USEFUL: 292429  USELESS: 811546
 USEFUL LOAD PREFETCHES:     292429 PREFETCH ISSUED TO LOWER LEVEL:    4144704  ACCURACY: 7.05549
 TIMELY PREFETCHES:     292429 LATE PREFETCHES: 1668043 DROPPED PREFETCHES: 14
L2C AVERAGE MISS LATENCY: 2055.42 cycles

L2C Set Associative Eviction Count : 0
L2C Priority 0 entries : 0
L2C Inter-Core Interference : 0
LLC0 TOTAL     ACCESS: 2352950  HIT: 243011  MISS: 2109939  HIT %: 10.3279  MISS %: 89.6721  AVERAGE MISS PENALTY: 1310.73
LLC0 LOAD      ACCESS: 67479  HIT:     0  MISS: 67479  HIT %:     0  MISS %:   100  AVERAGE MISS PENALTY: 1911.19
LLC0 RFO       ACCESS: 1027137  HIT: 128547  MISS: 898590  HIT %: 12.5151  MISS %: 87.4849  AVERAGE MISS PENALTY: 2412.55
LLC0 PREFETCH  ACCESS: 230972  HIT:     0  MISS: 230972  HIT %:     0  MISS %:   100  AVERAGE MISS PENALTY: 2029.3
LLC0 WRITEBACK ACCESS: 1027362  HIT: 114464  MISS: 912898  HIT %: 11.1415  MISS %: 88.8585  AVERAGE MISS PENALTY: 0
LLC0 PREFETCH  REQUESTED:     0  ISSUED:     0  USEFUL:     0  USELESS:     0
 USEFUL LOAD PREFETCHES:          0 PREFETCH ISSUED TO LOWER LEVEL:  600655163  ACCURACY: 0
 TIMELY PREFETCHES:          0 LATE PREFETCHES: 0 DROPPED PREFETCHES: 0
LLC0 AVERAGE MISS LATENCY: 1310.73 cycles

LLC0 Set Associative Eviction Count : 0
LLC0 Priority 0 entries : 12286
LLC0 Inter-Core Interference : 6428772
LLC1 TOTAL     ACCESS: 2353459  HIT: 243196  MISS: 2110263  HIT %: 10.3336  MISS %: 89.6664  AVERAGE MISS PENALTY: 1312.35
LLC1 LOAD      ACCESS: 52825  HIT:     0  MISS: 52825  HIT %:     0  MISS %:   100  AVERAGE MISS PENALTY: 1908.97
LLC1 RFO       ACCESS: 1027331  HIT: 128627  MISS: 898704  HIT %: 12.5205  MISS %: 87.4795  AVERAGE MISS PENALTY: 2414.03
LLC1 PREFETCH  ACCESS: 245715  HIT:     0  MISS: 245715  HIT %:     0  MISS %:   100  AVERAGE MISS PENALTY: 2031.04
LLC1 WRITEBACK ACCESS: 1027588  HIT: 114569  MISS: 913019  HIT %: 11.1493  MISS %: 88.8507  AVERAGE MISS PENALTY: 0
LLC1 PREFETCH  REQUESTED:     0  ISSUED:     0  USEFUL:     0  USELESS:     0
 USEFUL LOAD PREFETCHES:          0 PREFETCH ISSUED TO LOWER LEVEL:  622658378  ACCURACY: 0
 TIMELY PREFETCHES:          0 LATE PREFETCHES: 0 DROPPED PREFETCHES: 0
LLC1 AVERAGE MISS LATENCY: 1312.35 cycles

LLC1 Set Associative Eviction Count : 0
LLC1 Priority 0 entries : 12288
LLC1 Inter-Core Interference : 6430542
LLC2 TOTAL     ACCESS: 2353353  HIT: 243302  MISS: 2110051  HIT %: 10.3385  MISS %: 89.6615  AVERAGE MISS PENALTY: 1290.02
LLC2 LOAD      ACCESS: 42628  HIT:     0  MISS: 42628  HIT %:     0  MISS %:   100  AVERAGE MISS PENALTY: 1914.68
LLC2 RFO       ACCESS: 1027308  HIT: 128714  MISS: 898594  HIT %: 12.5293  MISS %: 87.4707  AVERAGE MISS PENALTY: 2340.13
LLC2 PREFETCH  ACCESS: 255913  HIT:     0  MISS: 255913  HIT %:     0  MISS %:   100  AVERAGE MISS PENALTY: 2100.6
LLC2 WRITEBACK ACCESS: 1027504  HIT: 114588  MISS: 912916  HIT %: 11.1521  MISS %: 88.8479  AVERAGE MISS PENALTY: 0
LLC2 PREFETCH  REQUESTED:     0  ISSUED:     0  USEFUL:     0  USELESS:     0
 USEFUL LOAD PREFETCHES:          0 PREFETCH ISSUED TO LOWER LEVEL:  709264825  ACCURACY: 0
 TIMELY PREFETCHES:          0 LATE PREFETCHES: 0 DROPPED PREFETCHES: 0
LLC2 AVERAGE MISS LATENCY: 1290.02 cycles

LLC2 Set Associative Eviction Count : 0
LLC2 Priority 0 entries : 12288
LLC2 Inter-Core Interference : 6430827
LLC3 TOTAL     ACCESS: 2353440  HIT: 243410  MISS: 2110030  HIT %: 10.3427  MISS %: 89.6573  AVERAGE MISS PENALTY: 1292.62
LLC3 LOAD      ACCESS: 42788  HIT:     2  MISS: 42786  HIT %: 0.00467421  MISS %: 99.9953  AVERAGE MISS PENALTY: 1945.84
LLC3 RFO       ACCESS: 1027335  HIT: 128698  MISS: 898637  HIT %: 12.5274  MISS %: 87.4726  AVERAGE MISS PENALTY: 2343.98
LLC3 PREFETCH  ACCESS: 255756  HIT:     0  MISS: 255756  HIT %:     0  MISS %:   100  AVERAGE MISS PENALTY: 2102.91
LLC3 WRITEBACK ACCESS: 1027561  HIT: 114710  MISS: 912851  HIT %: 11.1633  MISS %: 88.8367  AVERAGE MISS PENALTY: 0
LLC3 PREFETCH  REQUESTED:     0  ISSUED:     0  USEFUL:     1  USELESS:    10
 USEFUL LOAD PREFETCHES:          1 PREFETCH ISSUED TO LOWER LEVEL:  701773167  ACCURACY: 1.42496e-07
 TIMELY PREFETCHES:          1 LATE PREFETCHES: 0 DROPPED PREFETCHES: 0
LLC3 AVERAGE MISS LATENCY: 1292.62 cycles

LLC3 Set Associative Eviction Count : 0
LLC3 Priority 0 entries : 12288
LLC3 Inter-Core Interference : 6432026
LLC4 TOTAL     ACCESS: 2354161  HIT: 243597  MISS: 2110564  HIT %: 10.3475  MISS %: 89.6525  AVERAGE MISS PENALTY: 1319.41
LLC4 LOAD      ACCESS: 40958  HIT:     0  MISS: 40958  HIT %:     0  MISS %:   100  AVERAGE MISS PENALTY: 1905.14
LLC4 RFO       ACCESS: 1027667  HIT: 128938  MISS: 898729  HIT %: 12.5467  MISS %: 87.4533  AVERAGE MISS PENALTY: 2428.86
LLC4 PREFETCH  ACCESS: 257632  HIT:    15  MISS: 257617  HIT %: 0.00582226  MISS %: 99.9942  AVERAGE MISS PENALTY: 2033.2
LLC4 WRITEBACK ACCESS: 1027904  HIT: 114644  MISS: 913260  HIT %: 11.1532  MISS %: 88.8468  AVERAGE MISS PENALTY: 0
LLC4 PREFETCH  REQUESTED:     0  ISSUED:     0  USEFUL:     0  USELESS:   181
 USEFUL LOAD PREFETCHES:          0 PREFETCH ISSUED TO LOWER LEVEL:  777154667  ACCURACY: 0
 TIMELY PREFETCHES:          0 LATE PREFETCHES: 0 DROPPED PREFETCHES: 0
LLC4 AVERAGE MISS LATENCY: 1319.41 cycles

LLC4 Set Associative Eviction Count : 0
LLC4 Priority 0 entries : 12288
LLC4 Inter-Core Interference : 6431533
LLC5 TOTAL     ACCESS: 2353716  HIT: 243569  MISS: 2110147  HIT %: 10.3483  MISS %: 89.6517  AVERAGE MISS PENALTY: 1315.81
LLC5 LOAD      ACCESS: 41377  HIT:     0  MISS: 41377  HIT %:     0  MISS %:   100  AVERAGE MISS PENALTY: 1900.08
LLC5 RFO       ACCESS: 1027457  HIT: 128805  MISS: 898652  HIT %: 12.5363  MISS %: 87.4637  AVERAGE MISS PENALTY: 2420.63
LLC5 PREFETCH  ACCESS: 257208  HIT:    18  MISS: 257190  HIT %: 0.00699823  MISS %: 99.993  AVERAGE MISS PENALTY: 2032.06
LLC5 WRITEBACK ACCESS: 1027674  HIT: 114746  MISS: 912928  HIT %: 11.1656  MISS %: 88.8344  AVERAGE MISS PENALTY: 0
LLC5 PREFETCH  REQUESTED:     0  ISSUED:     0  USEFUL:     0  USELESS:   183
 USEFUL LOAD PREFETCHES:          0 PREFETCH ISSUED TO LOWER LEVEL:  762095936  ACCURACY: 0
 TIMELY PREFETCHES:          0 LATE PREFETCHES: 0 DROPPED PREFETCHES: 0
LLC5 AVERAGE MISS LATENCY: 1315.81 cycles

LLC5 Set Associative Eviction Count : 0
LLC5 Priority 0 entries : 12288
LLC5 Inter-Core Interference : 6430494
LLC6 TOTAL     ACCESS: 2354377  HIT: 243823  MISS: 2110554  HIT %: 10.3562  MISS %: 89.6438  AVERAGE MISS PENALTY: 1298.16
LLC6 LOAD      ACCESS: 41088  HIT:     0  MISS: 41088  HIT %:     0  MISS %:   100  AVERAGE MISS PENALTY: 1959.52
LLC6 RFO       ACCESS: 1027619  HIT: 128917  MISS: 898702  HIT %: 12.5452  MISS %: 87.4548  AVERAGE MISS PENALTY: 2355.32
LLC6 PREFETCH  ACCESS: 257918  HIT:   200  MISS: 257718  HIT %: 0.077544  MISS %: 99.9225  AVERAGE MISS PENALTY: 2105.35
LLC6 WRITEBACK ACCESS: 1027752  HIT: 114706  MISS: 913046  HIT %: 11.1609  MISS %: 88.8391  AVERAGE MISS PENALTY: 0
LLC6 PREFETCH  REQUESTED:     0  ISSUED:     0  USEFUL:     0  USELESS:   837
 USEFUL LOAD PREFETCHES:          0 PREFETCH ISSUED TO LOWER LEVEL: 1002104103  ACCURACY: 0
 TIMELY PREFETCHES:          0 LATE PREFETCHES: 0 DROPPED PREFETCHES: 0
LLC6 AVERAGE MISS LATENCY: 1298.16 cycles

LLC6 Set Associative Eviction Count : 0
LLC6 Priority 0 entries : 12288
LLC6 Inter-Core Interference : 6431603
LLC7 TOTAL     ACCESS: 2354184  HIT: 243749  MISS: 2110435  HIT %: 10.3539  MISS %: 89.6461  AVERAGE MISS PENALTY: 1296.06
LLC7 LOAD      ACCESS: 41064  HIT:     0  MISS: 41064  HIT %:     0  MISS %:   100  AVERAGE MISS PENALTY: 1949.99
LLC7 RFO       ACCESS: 1027511  HIT: 128796  MISS: 898715  HIT %: 12.5348  MISS %: 87.4652  AVERAGE MISS PENALTY: 2352.86
LLC7 PREFETCH  ACCESS: 257932  HIT:   210  MISS: 257722  HIT %: 0.0814168  MISS %: 99.9186  AVERAGE MISS PENALTY: 2097.66
LLC7 WRITEBACK ACCESS: 1027677  HIT: 114743  MISS: 912934  HIT %: 11.1653  MISS %: 88.8347  AVERAGE MISS PENALTY: 0
LLC7 PREFETCH  REQUESTED:     0  ISSUED:     0  USEFUL:     0  USELESS:   841
 USEFUL LOAD PREFETCHES:          0 PREFETCH ISSUED TO LOWER LEVEL:  996469927  ACCURACY: 0
 TIMELY PREFETCHES:          0 LATE PREFETCHES: 0 DROPPED PREFETCHES: 0
LLC7 AVERAGE MISS LATENCY: 1296.06 cycles

LLC7 Set Associative Eviction Count : 0
LLC7 Priority 0 entries : 12287
LLC7 Inter-Core Interference : 6430202
ROI Average ROB Stall Cycles:	115.1
ROI Total ROB Stalls Cycles:	1447482291
ROI TOTAL ROB counter      :	12575889
ROI Average Load ROB Stall Cycles:	733.426
ROI Total Load ROB Stalls Cycle  :	1383767017
ROI Total Load ROB stalls Counter:	1886716
Major fault: 0 Minor fault: 152303








Interconnect Stats 
LINK 0 BW : 0LINK 1 BW : 0LINK 2 BW : 0LINK 3 BW : 0LINK 4 BW : 0LINK 5 BW : 0LINK 6 BW : 0LINK 7 BW : 0
DRAM Statistics
 CHANNEL 0
 RQ ROW_BUFFER_HIT: 15374085  ROW_BUFFER_MISS: 23047092
 DBUS_CONGESTED: 81037023
 WQ ROW_BUFFER_HIT: 575156  ROW_BUFFER_MISS: 28809394  FULL: 677298

 CHANNEL 1
 RQ ROW_BUFFER_HIT: 15370784  ROW_BUFFER_MISS: 23051133
 DBUS_CONGESTED: 81037023
 WQ ROW_BUFFER_HIT: 575584  ROW_BUFFER_MISS: 28808429  FULL: 672265

 AVG_CONGESTED_CYCLE: 6
DRAM PAGES: 2097152
Allocated PAGES: 1217274
L2C destructor called
L1D destructor called
L1I destructor called
STLB destructor called
DTLB destructor called
ITLB destructor called
L2C destructor called
L1D destructor called
L1I destructor called
STLB destructor called
DTLB destructor called
ITLB destructor called
L2C destructor called
L1D destructor called
L1I destructor called
STLB destructor called
DTLB destructor called
ITLB destructor called
L2C destructor called
L1D destructor called
L1I destructor called
STLB destructor called
DTLB destructor called
ITLB destructor called
L2C destructor called
L1D destructor called
L1I destructor called
STLB destructor called
DTLB destructor called
ITLB destructor called
L2C destructor called
L1D destructor called
L1I destructor called
STLB destructor called
DTLB destructor called
ITLB destructor called
L2C destructor called
L1D destructor called
L1I destructor called
STLB destructor called
DTLB destructor called
ITLB destructor called
L2C destructor called
L1D destructor called
L1I destructor called
STLB destructor called
DTLB destructor called
ITLB destructor called
