
*** ChampSim Multicore Out-of-Order Simulator ***

Warmup Instructions: 200000000
Simulation Instructions: 200000000
Number of CPUs: 8
threads:1

L1I Configuration:
L1I_SET:64
L1I_WAY:8
L1I_RQ_SIZE:64
L1I_WQ_SIZE:64
L1I_PQ_SIZE:8
L1I_MSHR_SIZE:8

L1D Configuration:
L1D_SET:64
L1D_WAY:12
L1D_RQ_SIZE:64
L1D_WQ_SIZE:64
L1D_PQ_SIZE:8
L1D_MSHR_SIZE:16

L2C Configuration:
L2C_SET:1024
L2C_WAY:8
L2C_RQ_SIZE:32
L2C_WQ_SIZE:32
L2C_PQ_SIZE:16
L2C_MSHR_SIZE:32

LLC Configuration:
LLC_SET:2048
LLC_WAY:12
LLC SLICES:8
LLC_RQ_SIZE:64
LLC_WQ_SIZE:64
LLC_PQ_SIZE:32
LLC_MSHR_SIZE:64

Interconnect OFF
Attacker deprioritize is: OFF
Off-chip DRAM Size: 8192 MB Channels: 2 Width: 64-bit Data Rate: 3200 MT/s
PAGE SIZE in KB: 4.000000 
PAGE SIZE in MB: 0.003906 
PAGE offset in bits: 12 
CEASER-S_LLC:0
MIRAGE : 1
CEASER_LATENCY:3
REMAP : OFF
Partitions : 1
Multi-Step : OFF
BFS : OFF

CPU 0 runs /home/anubhav/spec_2017/620.omnetpp_s-874B.champsimtrace.xz
CPU 1 runs /home/anubhav/spec_2017/620.omnetpp_s-874B.champsimtrace.xz
CPU 2 runs /home/anubhav/spec_2017/620.omnetpp_s-874B.champsimtrace.xz
CPU 3 runs /home/anubhav/spec_2017/620.omnetpp_s-874B.champsimtrace.xz
CPU 4 runs /home/anubhav/spec_2017/620.omnetpp_s-874B.champsimtrace.xz
CPU 5 runs /home/anubhav/spec_2017/620.omnetpp_s-874B.champsimtrace.xz
CPU 6 runs /home/anubhav/spec_2017/620.omnetpp_s-874B.champsimtrace.xz
CPU 7 runs /home/anubhav/spec_2017/620.omnetpp_s-874B.champsimtrace.xz
CPU 0 Bimodal branch predictor
Initialize Hawkeye state
Initialize Hawkeye state
Initialize Hawkeye state
Initialize Hawkeye state
Initialize Hawkeye state
Initialize Hawkeye state
Initialize Hawkeye state
Initialize Hawkeye state
CPU 1 Bimodal branch predictor
Initialize Hawkeye state
Initialize Hawkeye state
Initialize Hawkeye state
Initialize Hawkeye state
Initialize Hawkeye state
Initialize Hawkeye state
Initialize Hawkeye state
Initialize Hawkeye state
CPU 2 Bimodal branch predictor
Initialize Hawkeye state
Initialize Hawkeye state
Initialize Hawkeye state
Initialize Hawkeye state
Initialize Hawkeye state
Initialize Hawkeye state
Initialize Hawkeye state
Initialize Hawkeye state
CPU 3 Bimodal branch predictor
Initialize Hawkeye state
Initialize Hawkeye state
Initialize Hawkeye state
Initialize Hawkeye state
Initialize Hawkeye state
Initialize Hawkeye state
Initialize Hawkeye state
Initialize Hawkeye state
CPU 4 Bimodal branch predictor
Initialize Hawkeye state
Initialize Hawkeye state
Initialize Hawkeye state
Initialize Hawkeye state
Initialize Hawkeye state
Initialize Hawkeye state
Initialize Hawkeye state
Initialize Hawkeye state
CPU 5 Bimodal branch predictor
Initialize Hawkeye state
Initialize Hawkeye state
Initialize Hawkeye state
Initialize Hawkeye state
Initialize Hawkeye state
Initialize Hawkeye state
Initialize Hawkeye state
Initialize Hawkeye state
CPU 6 Bimodal branch predictor
Initialize Hawkeye state
Initialize Hawkeye state
Initialize Hawkeye state
Initialize Hawkeye state
Initialize Hawkeye state
Initialize Hawkeye state
Initialize Hawkeye state
Initialize Hawkeye state
CPU 7 Bimodal branch predictor
Initialize Hawkeye state
Initialize Hawkeye state
Initialize Hawkeye state
Initialize Hawkeye state
Initialize Hawkeye state
Initialize Hawkeye state
Initialize Hawkeye state
Initialize Hawkeye state
Heartbeat CPU 3 instructions: 10000000 cycles: 8850469 heartbeat IPC: 1.12988 cumulative IPC: 1.12988 (Simulation time: 5 hr 54 min 4 sec) 
 Total Blocks : 196608 Invalid Blocks : 19908 Valid Blocks : 176700
 Total Tags : 491520 Threshold : 12288 Invalid Tags : 216517 Pr0 Tags : 98303 Pr1 Tags : 176700 num_pr0 : 12288
 SAE Count : 0
 Inter-Core Inteference in Data Store : 237487
Heartbeat CPU 7 instructions: 10000000 cycles: 8850764 heartbeat IPC: 1.12985 cumulative IPC: 1.12985 (Simulation time: 5 hr 54 min 6 sec) 
 Total Blocks : 196608 Invalid Blocks : 19904 Valid Blocks : 176704
 Total Tags : 491520 Threshold : 12288 Invalid Tags : 216513 Pr0 Tags : 98303 Pr1 Tags : 176704 num_pr0 : 12288
 SAE Count : 0
 Inter-Core Inteference in Data Store : 237502
Heartbeat CPU 1 instructions: 10000000 cycles: 8850813 heartbeat IPC: 1.12984 cumulative IPC: 1.12984 (Simulation time: 5 hr 54 min 6 sec) 
 Total Blocks : 196608 Invalid Blocks : 19903 Valid Blocks : 176705
 Total Tags : 491520 Threshold : 12288 Invalid Tags : 216513 Pr0 Tags : 98302 Pr1 Tags : 176705 num_pr0 : 12288
 SAE Count : 0
 Inter-Core Inteference in Data Store : 237504
Heartbeat CPU 2 instructions: 10000000 cycles: 8850830 heartbeat IPC: 1.12984 cumulative IPC: 1.12984 (Simulation time: 5 hr 54 min 6 sec) 
 Total Blocks : 196608 Invalid Blocks : 19903 Valid Blocks : 176705
 Total Tags : 491520 Threshold : 12288 Invalid Tags : 216513 Pr0 Tags : 98302 Pr1 Tags : 176705 num_pr0 : 12288
 SAE Count : 0
 Inter-Core Inteference in Data Store : 237504
Heartbeat CPU 0 instructions: 10000000 cycles: 8850846 heartbeat IPC: 1.12984 cumulative IPC: 1.12984 (Simulation time: 5 hr 54 min 6 sec) 
 Total Blocks : 196608 Invalid Blocks : 19903 Valid Blocks : 176705
 Total Tags : 491520 Threshold : 12288 Invalid Tags : 216513 Pr0 Tags : 98302 Pr1 Tags : 176705 num_pr0 : 12288
 SAE Count : 0
 Inter-Core Inteference in Data Store : 237504
Heartbeat CPU 5 instructions: 10000000 cycles: 8850996 heartbeat IPC: 1.12982 cumulative IPC: 1.12982 (Simulation time: 5 hr 54 min 6 sec) 
 Total Blocks : 196608 Invalid Blocks : 19902 Valid Blocks : 176706
 Total Tags : 491520 Threshold : 12288 Invalid Tags : 216511 Pr0 Tags : 98303 Pr1 Tags : 176706 num_pr0 : 12287
 SAE Count : 0
 Inter-Core Inteference in Data Store : 237513
Heartbeat CPU 6 instructions: 10000000 cycles: 8851007 heartbeat IPC: 1.12981 cumulative IPC: 1.12981 (Simulation time: 5 hr 54 min 6 sec) 
 Total Blocks : 196608 Invalid Blocks : 19902 Valid Blocks : 176706
 Total Tags : 491520 Threshold : 12288 Invalid Tags : 216512 Pr0 Tags : 98302 Pr1 Tags : 176706 num_pr0 : 12287
 SAE Count : 0
 Inter-Core Inteference in Data Store : 237514
Heartbeat CPU 4 instructions: 10000000 cycles: 8851100 heartbeat IPC: 1.1298 cumulative IPC: 1.1298 (Simulation time: 5 hr 54 min 7 sec) 
 Total Blocks : 196608 Invalid Blocks : 19901 Valid Blocks : 176707
 Total Tags : 491520 Threshold : 12288 Invalid Tags : 216510 Pr0 Tags : 98303 Pr1 Tags : 176707 num_pr0 : 12287
 SAE Count : 0
 Inter-Core Inteference in Data Store : 237516
Heartbeat CPU 3 instructions: 20000003 cycles: 17583074 heartbeat IPC: 1.14513 cumulative IPC: 1.13746 (Simulation time: 11 hr 53 min 30 sec) 
 Total Blocks : 196608 Invalid Blocks : 2348 Valid Blocks : 194260
 Total Tags : 491520 Threshold : 12288 Invalid Tags : 198963 Pr0 Tags : 98297 Pr1 Tags : 194260 num_pr0 : 12288
 SAE Count : 0
 Inter-Core Inteference in Data Store : 595137
Heartbeat CPU 7 instructions: 20000003 cycles: 17583487 heartbeat IPC: 1.14512 cumulative IPC: 1.13743 (Simulation time: 11 hr 53 min 30 sec) 
 Total Blocks : 196608 Invalid Blocks : 2348 Valid Blocks : 194260
 Total Tags : 491520 Threshold : 12288 Invalid Tags : 198960 Pr0 Tags : 98300 Pr1 Tags : 194260 num_pr0 : 12288
 SAE Count : 0
 Inter-Core Inteference in Data Store : 595167
Heartbeat CPU 1 instructions: 20000003 cycles: 17583552 heartbeat IPC: 1.14512 cumulative IPC: 1.13743 (Simulation time: 11 hr 53 min 30 sec) 
 Total Blocks : 196608 Invalid Blocks : 2348 Valid Blocks : 194260
 Total Tags : 491520 Threshold : 12288 Invalid Tags : 198959 Pr0 Tags : 98301 Pr1 Tags : 194260 num_pr0 : 12288
 SAE Count : 0
 Inter-Core Inteference in Data Store : 595169
Heartbeat CPU 2 instructions: 20000003 cycles: 17583566 heartbeat IPC: 1.14512 cumulative IPC: 1.13743 (Simulation time: 11 hr 53 min 30 sec) 
 Total Blocks : 196608 Invalid Blocks : 2348 Valid Blocks : 194260
 Total Tags : 491520 Threshold : 12288 Invalid Tags : 198959 Pr0 Tags : 98301 Pr1 Tags : 194260 num_pr0 : 12288
 SAE Count : 0
 Inter-Core Inteference in Data Store : 595170
Heartbeat CPU 0 instructions: 20000003 cycles: 17583579 heartbeat IPC: 1.14512 cumulative IPC: 1.13743 (Simulation time: 11 hr 53 min 30 sec) 
 Total Blocks : 196608 Invalid Blocks : 2348 Valid Blocks : 194260
 Total Tags : 491520 Threshold : 12288 Invalid Tags : 198958 Pr0 Tags : 98302 Pr1 Tags : 194260 num_pr0 : 12288
 SAE Count : 0
 Inter-Core Inteference in Data Store : 595170
Heartbeat CPU 6 instructions: 20000003 cycles: 17583723 heartbeat IPC: 1.14512 cumulative IPC: 1.13742 (Simulation time: 11 hr 53 min 30 sec) 
 Total Blocks : 196608 Invalid Blocks : 2348 Valid Blocks : 194260
 Total Tags : 491520 Threshold : 12288 Invalid Tags : 198957 Pr0 Tags : 98303 Pr1 Tags : 194260 num_pr0 : 12288
 SAE Count : 0
 Inter-Core Inteference in Data Store : 595177
Heartbeat CPU 5 instructions: 20000003 cycles: 17583805 heartbeat IPC: 1.14511 cumulative IPC: 1.13741 (Simulation time: 11 hr 53 min 30 sec) 
 Total Blocks : 196608 Invalid Blocks : 2348 Valid Blocks : 194260
 Total Tags : 491520 Threshold : 12288 Invalid Tags : 198956 Pr0 Tags : 98304 Pr1 Tags : 194260 num_pr0 : 12288
 SAE Count : 0
 Inter-Core Inteference in Data Store : 595182
Heartbeat CPU 4 instructions: 20000003 cycles: 17583951 heartbeat IPC: 1.1451 cumulative IPC: 1.1374 (Simulation time: 11 hr 53 min 30 sec) 
 Total Blocks : 196608 Invalid Blocks : 2348 Valid Blocks : 194260
 Total Tags : 491520 Threshold : 12288 Invalid Tags : 198957 Pr0 Tags : 98303 Pr1 Tags : 194260 num_pr0 : 12288
 SAE Count : 0
 Inter-Core Inteference in Data Store : 595198
Heartbeat CPU 3 instructions: 30000001 cycles: 26334724 heartbeat IPC: 1.14264 cumulative IPC: 1.13918 (Simulation time: 17 hr 1 min 49 sec) 
 Total Blocks : 196608 Invalid Blocks : 262 Valid Blocks : 196346
 Total Tags : 491520 Threshold : 12288 Invalid Tags : 196873 Pr0 Tags : 98301 Pr1 Tags : 196346 num_pr0 : 12288
 SAE Count : 0
 Inter-Core Inteference in Data Store : 967560
Heartbeat CPU 7 instructions: 30000001 cycles: 26335141 heartbeat IPC: 1.14264 cumulative IPC: 1.13916 (Simulation time: 17 hr 1 min 49 sec) 
 Total Blocks : 196608 Invalid Blocks : 262 Valid Blocks : 196346
 Total Tags : 491520 Threshold : 12288 Invalid Tags : 196870 Pr0 Tags : 98304 Pr1 Tags : 196346 num_pr0 : 12288
 SAE Count : 0
 Inter-Core Inteference in Data Store : 967573
Heartbeat CPU 0 instructions: 30000001 cycles: 26335179 heartbeat IPC: 1.14265 cumulative IPC: 1.13916 (Simulation time: 17 hr 1 min 49 sec) 
 Total Blocks : 196608 Invalid Blocks : 262 Valid Blocks : 196346
 Total Tags : 491520 Threshold : 12288 Invalid Tags : 196870 Pr0 Tags : 98304 Pr1 Tags : 196346 num_pr0 : 12288
 SAE Count : 0
 Inter-Core Inteference in Data Store : 967573
Heartbeat CPU 1 instructions: 30000001 cycles: 26335226 heartbeat IPC: 1.14264 cumulative IPC: 1.13916 (Simulation time: 17 hr 1 min 49 sec) 
 Total Blocks : 196608 Invalid Blocks : 262 Valid Blocks : 196346
 Total Tags : 491520 Threshold : 12288 Invalid Tags : 196870 Pr0 Tags : 98304 Pr1 Tags : 196346 num_pr0 : 12288
 SAE Count : 0
 Inter-Core Inteference in Data Store : 967573
Heartbeat CPU 2 instructions: 30000001 cycles: 26335267 heartbeat IPC: 1.14263 cumulative IPC: 1.13916 (Simulation time: 17 hr 1 min 49 sec) 
 Total Blocks : 196608 Invalid Blocks : 262 Valid Blocks : 196346
 Total Tags : 491520 Threshold : 12288 Invalid Tags : 196871 Pr0 Tags : 98303 Pr1 Tags : 196346 num_pr0 : 12288
 SAE Count : 0
 Inter-Core Inteference in Data Store : 967574
Heartbeat CPU 5 instructions: 30000001 cycles: 26335376 heartbeat IPC: 1.14265 cumulative IPC: 1.13915 (Simulation time: 17 hr 1 min 49 sec) 
 Total Blocks : 196608 Invalid Blocks : 262 Valid Blocks : 196346
 Total Tags : 491520 Threshold : 12288 Invalid Tags : 196871 Pr0 Tags : 98303 Pr1 Tags : 196346 num_pr0 : 12288
 SAE Count : 0
 Inter-Core Inteference in Data Store : 967574
Heartbeat CPU 6 instructions: 30000001 cycles: 26335478 heartbeat IPC: 1.14263 cumulative IPC: 1.13915 (Simulation time: 17 hr 1 min 49 sec) 
 Total Blocks : 196608 Invalid Blocks : 262 Valid Blocks : 196346
 Total Tags : 491520 Threshold : 12288 Invalid Tags : 196871 Pr0 Tags : 98303 Pr1 Tags : 196346 num_pr0 : 12288
 SAE Count : 0
 Inter-Core Inteference in Data Store : 967575
Heartbeat CPU 4 instructions: 30000001 cycles: 26335596 heartbeat IPC: 1.14264 cumulative IPC: 1.13914 (Simulation time: 17 hr 1 min 49 sec) 
 Total Blocks : 196608 Invalid Blocks : 262 Valid Blocks : 196346
 Total Tags : 491520 Threshold : 12288 Invalid Tags : 196872 Pr0 Tags : 98302 Pr1 Tags : 196346 num_pr0 : 12288
 SAE Count : 0
 Inter-Core Inteference in Data Store : 967579
Heartbeat CPU 3 instructions: 40000000 cycles: 35149096 heartbeat IPC: 1.13451 cumulative IPC: 1.13801 (Simulation time: 21 hr 30 min 55 sec) 
 Total Blocks : 196608 Invalid Blocks : 29 Valid Blocks : 196579
 Total Tags : 491520 Threshold : 12288 Invalid Tags : 196639 Pr0 Tags : 98302 Pr1 Tags : 196579 num_pr0 : 12288
 SAE Count : 0
 Inter-Core Inteference in Data Store : 1351383
Heartbeat CPU 7 instructions: 40000000 cycles: 35149426 heartbeat IPC: 1.13452 cumulative IPC: 1.138 (Simulation time: 21 hr 30 min 59 sec) 
 Total Blocks : 196608 Invalid Blocks : 29 Valid Blocks : 196579
 Total Tags : 491520 Threshold : 12288 Invalid Tags : 196639 Pr0 Tags : 98302 Pr1 Tags : 196579 num_pr0 : 12288
 SAE Count : 0
 Inter-Core Inteference in Data Store : 1351403
Heartbeat CPU 1 instructions: 40000000 cycles: 35149646 heartbeat IPC: 1.1345 cumulative IPC: 1.13799 (Simulation time: 21 hr 31 min 1 sec) 
 Total Blocks : 196608 Invalid Blocks : 29 Valid Blocks : 196579
 Total Tags : 491520 Threshold : 12288 Invalid Tags : 196639 Pr0 Tags : 98302 Pr1 Tags : 196579 num_pr0 : 12288
 SAE Count : 0
 Inter-Core Inteference in Data Store : 1351417
Heartbeat CPU 0 instructions: 40000000 cycles: 35149665 heartbeat IPC: 1.1345 cumulative IPC: 1.13799 (Simulation time: 21 hr 31 min 2 sec) 
 Total Blocks : 196608 Invalid Blocks : 29 Valid Blocks : 196579
 Total Tags : 491520 Threshold : 12288 Invalid Tags : 196637 Pr0 Tags : 98304 Pr1 Tags : 196579 num_pr0 : 12288
 SAE Count : 0
 Inter-Core Inteference in Data Store : 1351421
Heartbeat CPU 2 instructions: 40000000 cycles: 35149699 heartbeat IPC: 1.1345 cumulative IPC: 1.13799 (Simulation time: 21 hr 31 min 2 sec) 
 Total Blocks : 196608 Invalid Blocks : 29 Valid Blocks : 196579
 Total Tags : 491520 Threshold : 12288 Invalid Tags : 196637 Pr0 Tags : 98304 Pr1 Tags : 196579 num_pr0 : 12288
 SAE Count : 0
 Inter-Core Inteference in Data Store : 1351421
Heartbeat CPU 4 instructions: 40000000 cycles: 35149844 heartbeat IPC: 1.13453 cumulative IPC: 1.13799 (Simulation time: 21 hr 31 min 2 sec) 
 Total Blocks : 196608 Invalid Blocks : 29 Valid Blocks : 196579
 Total Tags : 491520 Threshold : 12288 Invalid Tags : 196637 Pr0 Tags : 98304 Pr1 Tags : 196579 num_pr0 : 12288
 SAE Count : 0
 Inter-Core Inteference in Data Store : 1351429
Heartbeat CPU 5 instructions: 40000000 cycles: 35149851 heartbeat IPC: 1.1345 cumulative IPC: 1.13798 (Simulation time: 21 hr 31 min 2 sec) 
 Total Blocks : 196608 Invalid Blocks : 29 Valid Blocks : 196579
 Total Tags : 491520 Threshold : 12288 Invalid Tags : 196637 Pr0 Tags : 98304 Pr1 Tags : 196579 num_pr0 : 12288
 SAE Count : 0
 Inter-Core Inteference in Data Store : 1351429
Heartbeat CPU 6 instructions: 40000000 cycles: 35149973 heartbeat IPC: 1.13449 cumulative IPC: 1.13798 (Simulation time: 21 hr 31 min 2 sec) 
 Total Blocks : 196608 Invalid Blocks : 29 Valid Blocks : 196579
 Total Tags : 491520 Threshold : 12288 Invalid Tags : 196638 Pr0 Tags : 98303 Pr1 Tags : 196579 num_pr0 : 12288
 SAE Count : 0
 Inter-Core Inteference in Data Store : 1351435
Heartbeat CPU 7 instructions: 50000000 cycles: 43998182 heartbeat IPC: 1.1301 cumulative IPC: 1.13641 (Simulation time: 24 hr 36 min 3 sec) 
 Total Blocks : 196608 Invalid Blocks : 3 Valid Blocks : 196605
 Total Tags : 491520 Threshold : 12288 Invalid Tags : 196614 Pr0 Tags : 98301 Pr1 Tags : 196605 num_pr0 : 12286
 SAE Count : 0
 Inter-Core Inteference in Data Store : 1723369
Heartbeat CPU 3 instructions: 50000000 cycles: 43998231 heartbeat IPC: 1.13005 cumulative IPC: 1.13641 (Simulation time: 24 hr 36 min 3 sec) 
 Total Blocks : 196608 Invalid Blocks : 3 Valid Blocks : 196605
 Total Tags : 491520 Threshold : 12288 Invalid Tags : 196614 Pr0 Tags : 98301 Pr1 Tags : 196605 num_pr0 : 12286
 SAE Count : 0
 Inter-Core Inteference in Data Store : 1723369
Heartbeat CPU 0 instructions: 50000000 cycles: 43998710 heartbeat IPC: 1.13007 cumulative IPC: 1.1364 (Simulation time: 24 hr 36 min 3 sec) 
 Total Blocks : 196608 Invalid Blocks : 3 Valid Blocks : 196605
 Total Tags : 491520 Threshold : 12288 Invalid Tags : 196614 Pr0 Tags : 98301 Pr1 Tags : 196605 num_pr0 : 12286
 SAE Count : 0
 Inter-Core Inteference in Data Store : 1723372
Heartbeat CPU 2 instructions: 50000000 cycles: 43998894 heartbeat IPC: 1.13005 cumulative IPC: 1.13639 (Simulation time: 24 hr 36 min 3 sec) 
 Total Blocks : 196608 Invalid Blocks : 3 Valid Blocks : 196605
 Total Tags : 491520 Threshold : 12288 Invalid Tags : 196613 Pr0 Tags : 98302 Pr1 Tags : 196605 num_pr0 : 12286
 SAE Count : 0
 Inter-Core Inteference in Data Store : 1723377
Heartbeat CPU 1 instructions: 50000000 cycles: 43998935 heartbeat IPC: 1.13003 cumulative IPC: 1.13639 (Simulation time: 24 hr 36 min 3 sec) 
 Total Blocks : 196608 Invalid Blocks : 3 Valid Blocks : 196605
 Total Tags : 491520 Threshold : 12288 Invalid Tags : 196613 Pr0 Tags : 98302 Pr1 Tags : 196605 num_pr0 : 12286
 SAE Count : 0
 Inter-Core Inteference in Data Store : 1723377
Heartbeat CPU 5 instructions: 50000000 cycles: 43999108 heartbeat IPC: 1.13004 cumulative IPC: 1.13639 (Simulation time: 24 hr 36 min 3 sec) 
 Total Blocks : 196608 Invalid Blocks : 3 Valid Blocks : 196605
 Total Tags : 491520 Threshold : 12288 Invalid Tags : 196611 Pr0 Tags : 98304 Pr1 Tags : 196605 num_pr0 : 12288
 SAE Count : 0
 Inter-Core Inteference in Data Store : 1723378
Heartbeat CPU 6 instructions: 50000000 cycles: 43999218 heartbeat IPC: 1.13004 cumulative IPC: 1.13638 (Simulation time: 24 hr 36 min 3 sec) 
 Total Blocks : 196608 Invalid Blocks : 3 Valid Blocks : 196605
 Total Tags : 491520 Threshold : 12288 Invalid Tags : 196613 Pr0 Tags : 98302 Pr1 Tags : 196605 num_pr0 : 12288
 SAE Count : 0
 Inter-Core Inteference in Data Store : 1723382
Heartbeat CPU 4 instructions: 50000000 cycles: 43999231 heartbeat IPC: 1.13002 cumulative IPC: 1.13638 (Simulation time: 24 hr 36 min 3 sec) 
 Total Blocks : 196608 Invalid Blocks : 3 Valid Blocks : 196605
 Total Tags : 491520 Threshold : 12288 Invalid Tags : 196614 Pr0 Tags : 98301 Pr1 Tags : 196605 num_pr0 : 12288
 SAE Count : 0
 Inter-Core Inteference in Data Store : 1723383
Heartbeat CPU 3 instructions: 60000000 cycles: 52850676 heartbeat IPC: 1.12963 cumulative IPC: 1.13527 (Simulation time: 25 hr 30 min 44 sec) 
 Total Blocks : 196608 Invalid Blocks : 0 Valid Blocks : 196608
 Total Tags : 491520 Threshold : 12288 Invalid Tags : 196608 Pr0 Tags : 98304 Pr1 Tags : 196608 num_pr0 : 12288
 SAE Count : 0
 Inter-Core Inteference in Data Store : 2110472
Heartbeat CPU 7 instructions: 60000000 cycles: 52851037 heartbeat IPC: 1.12958 cumulative IPC: 1.13527 (Simulation time: 25 hr 30 min 44 sec) 
 Total Blocks : 196608 Invalid Blocks : 0 Valid Blocks : 196608
 Total Tags : 491520 Threshold : 12288 Invalid Tags : 196609 Pr0 Tags : 98303 Pr1 Tags : 196608 num_pr0 : 12287
 SAE Count : 0
 Inter-Core Inteference in Data Store : 2110476
Heartbeat CPU 0 instructions: 60000000 cycles: 52851660 heartbeat IPC: 1.12957 cumulative IPC: 1.13525 (Simulation time: 25 hr 30 min 44 sec) 
 Total Blocks : 196608 Invalid Blocks : 0 Valid Blocks : 196608
 Total Tags : 491520 Threshold : 12288 Invalid Tags : 196608 Pr0 Tags : 98304 Pr1 Tags : 196608 num_pr0 : 12288
 SAE Count : 0
 Inter-Core Inteference in Data Store : 2110482
Heartbeat CPU 1 instructions: 60000000 cycles: 52851837 heartbeat IPC: 1.12957 cumulative IPC: 1.13525 (Simulation time: 25 hr 30 min 44 sec) 
 Total Blocks : 196608 Invalid Blocks : 0 Valid Blocks : 196608
 Total Tags : 491520 Threshold : 12288 Invalid Tags : 196611 Pr0 Tags : 98301 Pr1 Tags : 196608 num_pr0 : 12288
 SAE Count : 0
 Inter-Core Inteference in Data Store : 2110488
Heartbeat CPU 5 instructions: 60000000 cycles: 52851953 heartbeat IPC: 1.12958 cumulative IPC: 1.13525 (Simulation time: 25 hr 30 min 44 sec) 
 Total Blocks : 196608 Invalid Blocks : 0 Valid Blocks : 196608
 Total Tags : 491520 Threshold : 12288 Invalid Tags : 196610 Pr0 Tags : 98302 Pr1 Tags : 196608 num_pr0 : 12288
 SAE Count : 0
 Inter-Core Inteference in Data Store : 2110490
Heartbeat CPU 2 instructions: 60000000 cycles: 52851975 heartbeat IPC: 1.12955 cumulative IPC: 1.13525 (Simulation time: 25 hr 30 min 44 sec) 
 Total Blocks : 196608 Invalid Blocks : 0 Valid Blocks : 196608
 Total Tags : 491520 Threshold : 12288 Invalid Tags : 196610 Pr0 Tags : 98302 Pr1 Tags : 196608 num_pr0 : 12288
 SAE Count : 0
 Inter-Core Inteference in Data Store : 2110491
Heartbeat CPU 4 instructions: 60000000 cycles: 52852048 heartbeat IPC: 1.12958 cumulative IPC: 1.13524 (Simulation time: 25 hr 30 min 44 sec) 
 Total Blocks : 196608 Invalid Blocks : 0 Valid Blocks : 196608
 Total Tags : 491520 Threshold : 12288 Invalid Tags : 196610 Pr0 Tags : 98302 Pr1 Tags : 196608 num_pr0 : 12287
 SAE Count : 0
 Inter-Core Inteference in Data Store : 2110494
Heartbeat CPU 6 instructions: 60000000 cycles: 52852175 heartbeat IPC: 1.12957 cumulative IPC: 1.13524 (Simulation time: 25 hr 30 min 44 sec) 
 Total Blocks : 196608 Invalid Blocks : 0 Valid Blocks : 196608
 Total Tags : 491520 Threshold : 12288 Invalid Tags : 196609 Pr0 Tags : 98303 Pr1 Tags : 196608 num_pr0 : 12288
 SAE Count : 0
 Inter-Core Inteference in Data Store : 2110494
Heartbeat CPU 3 instructions: 70000000 cycles: 61658773 heartbeat IPC: 1.13532 cumulative IPC: 1.13528 (Simulation time: 25 hr 53 min 3 sec) 
 Total Blocks : 196608 Invalid Blocks : 0 Valid Blocks : 196608
 Total Tags : 491520 Threshold : 12288 Invalid Tags : 196609 Pr0 Tags : 98303 Pr1 Tags : 196608 num_pr0 : 12288
 SAE Count : 0
 Inter-Core Inteference in Data Store : 2478113
Heartbeat CPU 7 instructions: 70000000 cycles: 61659272 heartbeat IPC: 1.1353 cumulative IPC: 1.13527 (Simulation time: 25 hr 53 min 3 sec) 
 Total Blocks : 196608 Invalid Blocks : 0 Valid Blocks : 196608
 Total Tags : 491520 Threshold : 12288 Invalid Tags : 196608 Pr0 Tags : 98304 Pr1 Tags : 196608 num_pr0 : 12288
 SAE Count : 0
 Inter-Core Inteference in Data Store : 2478133
Heartbeat CPU 0 instructions: 70000000 cycles: 61659859 heartbeat IPC: 1.13531 cumulative IPC: 1.13526 (Simulation time: 25 hr 53 min 3 sec) 
 Total Blocks : 196608 Invalid Blocks : 0 Valid Blocks : 196608
 Total Tags : 491520 Threshold : 12288 Invalid Tags : 196610 Pr0 Tags : 98302 Pr1 Tags : 196608 num_pr0 : 12288
 SAE Count : 0
 Inter-Core Inteference in Data Store : 2478164
Heartbeat CPU 1 instructions: 70000000 cycles: 61660088 heartbeat IPC: 1.1353 cumulative IPC: 1.13526 (Simulation time: 25 hr 53 min 3 sec) 
 Total Blocks : 196608 Invalid Blocks : 0 Valid Blocks : 196608
 Total Tags : 491520 Threshold : 12288 Invalid Tags : 196610 Pr0 Tags : 98302 Pr1 Tags : 196608 num_pr0 : 12288
 SAE Count : 0
 Inter-Core Inteference in Data Store : 2478172
Heartbeat CPU 5 instructions: 70000000 cycles: 61660128 heartbeat IPC: 1.13531 cumulative IPC: 1.13526 (Simulation time: 25 hr 53 min 3 sec) 
 Total Blocks : 196608 Invalid Blocks : 0 Valid Blocks : 196608
 Total Tags : 491520 Threshold : 12288 Invalid Tags : 196611 Pr0 Tags : 98301 Pr1 Tags : 196608 num_pr0 : 12288
 SAE Count : 0
 Inter-Core Inteference in Data Store : 2478175
Heartbeat CPU 6 instructions: 70000000 cycles: 61660340 heartbeat IPC: 1.13531 cumulative IPC: 1.13525 (Simulation time: 25 hr 53 min 3 sec) 
 Total Blocks : 196608 Invalid Blocks : 0 Valid Blocks : 196608
 Total Tags : 491520 Threshold : 12288 Invalid Tags : 196608 Pr0 Tags : 98304 Pr1 Tags : 196608 num_pr0 : 12288
 SAE Count : 0
 Inter-Core Inteference in Data Store : 2478179
Heartbeat CPU 2 instructions: 70000000 cycles: 61660372 heartbeat IPC: 1.13528 cumulative IPC: 1.13525 (Simulation time: 25 hr 53 min 3 sec) 
 Total Blocks : 196608 Invalid Blocks : 0 Valid Blocks : 196608
 Total Tags : 491520 Threshold : 12288 Invalid Tags : 196609 Pr0 Tags : 98303 Pr1 Tags : 196608 num_pr0 : 12288
 SAE Count : 0
 Inter-Core Inteference in Data Store : 2478181
Heartbeat CPU 4 instructions: 70000000 cycles: 61660565 heartbeat IPC: 1.13526 cumulative IPC: 1.13525 (Simulation time: 25 hr 53 min 3 sec) 
 Total Blocks : 196608 Invalid Blocks : 0 Valid Blocks : 196608
 Total Tags : 491520 Threshold : 12288 Invalid Tags : 196609 Pr0 Tags : 98303 Pr1 Tags : 196608 num_pr0 : 12288
 SAE Count : 0
 Inter-Core Inteference in Data Store : 2478194
Heartbeat CPU 3 instructions: 80000000 cycles: 70455854 heartbeat IPC: 1.13674 cumulative IPC: 1.13546 (Simulation time: 26 hr 13 min 37 sec) 
 Total Blocks : 196608 Invalid Blocks : 0 Valid Blocks : 196608
 Total Tags : 491520 Threshold : 12288 Invalid Tags : 196609 Pr0 Tags : 98303 Pr1 Tags : 196608 num_pr0 : 12288
 SAE Count : 0
 Inter-Core Inteference in Data Store : 2851694
Heartbeat CPU 7 instructions: 80000000 cycles: 70456430 heartbeat IPC: 1.13673 cumulative IPC: 1.13545 (Simulation time: 26 hr 13 min 37 sec) 
 Total Blocks : 196608 Invalid Blocks : 0 Valid Blocks : 196608
 Total Tags : 491520 Threshold : 12288 Invalid Tags : 196609 Pr0 Tags : 98303 Pr1 Tags : 196608 num_pr0 : 12288
 SAE Count : 0
 Inter-Core Inteference in Data Store : 2851724
Heartbeat CPU 0 instructions: 80000000 cycles: 70456819 heartbeat IPC: 1.13676 cumulative IPC: 1.13545 (Simulation time: 26 hr 13 min 37 sec) 
 Total Blocks : 196608 Invalid Blocks : 0 Valid Blocks : 196608
 Total Tags : 491520 Threshold : 12288 Invalid Tags : 196610 Pr0 Tags : 98302 Pr1 Tags : 196608 num_pr0 : 12287
 SAE Count : 0
 Inter-Core Inteference in Data Store : 2851739
Heartbeat CPU 5 instructions: 80000000 cycles: 70457040 heartbeat IPC: 1.13676 cumulative IPC: 1.13544 (Simulation time: 26 hr 13 min 37 sec) 
 Total Blocks : 196608 Invalid Blocks : 0 Valid Blocks : 196608
 Total Tags : 491520 Threshold : 12288 Invalid Tags : 196613 Pr0 Tags : 98299 Pr1 Tags : 196608 num_pr0 : 12287
 SAE Count : 0
 Inter-Core Inteference in Data Store : 2851753
Heartbeat CPU 1 instructions: 80000000 cycles: 70457046 heartbeat IPC: 1.13676 cumulative IPC: 1.13544 (Simulation time: 26 hr 13 min 37 sec) 
 Total Blocks : 196608 Invalid Blocks : 0 Valid Blocks : 196608
 Total Tags : 491520 Threshold : 12288 Invalid Tags : 196613 Pr0 Tags : 98299 Pr1 Tags : 196608 num_pr0 : 12287
 SAE Count : 0
 Inter-Core Inteference in Data Store : 2851753
Heartbeat CPU 2 instructions: 80000000 cycles: 70457413 heartbeat IPC: 1.13675 cumulative IPC: 1.13544 (Simulation time: 26 hr 13 min 37 sec) 
 Total Blocks : 196608 Invalid Blocks : 0 Valid Blocks : 196608
 Total Tags : 491520 Threshold : 12288 Invalid Tags : 196611 Pr0 Tags : 98301 Pr1 Tags : 196608 num_pr0 : 12288
 SAE Count : 0
 Inter-Core Inteference in Data Store : 2851765
Heartbeat CPU 4 instructions: 80000000 cycles: 70457447 heartbeat IPC: 1.13677 cumulative IPC: 1.13544 (Simulation time: 26 hr 13 min 37 sec) 
 Total Blocks : 196608 Invalid Blocks : 0 Valid Blocks : 196608
 Total Tags : 491520 Threshold : 12288 Invalid Tags : 196611 Pr0 Tags : 98301 Pr1 Tags : 196608 num_pr0 : 12288
 SAE Count : 0
 Inter-Core Inteference in Data Store : 2851765
Heartbeat CPU 6 instructions: 80000000 cycles: 70457558 heartbeat IPC: 1.13672 cumulative IPC: 1.13544 (Simulation time: 26 hr 13 min 37 sec) 
 Total Blocks : 196608 Invalid Blocks : 0 Valid Blocks : 196608
 Total Tags : 491520 Threshold : 12288 Invalid Tags : 196610 Pr0 Tags : 98302 Pr1 Tags : 196608 num_pr0 : 12288
 SAE Count : 0
 Inter-Core Inteference in Data Store : 2851775
Heartbeat CPU 3 instructions: 90000000 cycles: 79291785 heartbeat IPC: 1.13174 cumulative IPC: 1.13505 (Simulation time: 26 hr 33 min 46 sec) 
 Total Blocks : 196608 Invalid Blocks : 0 Valid Blocks : 196608
 Total Tags : 491520 Threshold : 12288 Invalid Tags : 196609 Pr0 Tags : 98303 Pr1 Tags : 196608 num_pr0 : 12288
 SAE Count : 0
 Inter-Core Inteference in Data Store : 3207770
Heartbeat CPU 7 instructions: 90000000 cycles: 79292322 heartbeat IPC: 1.13175 cumulative IPC: 1.13504 (Simulation time: 26 hr 33 min 46 sec) 
 Total Blocks : 196608 Invalid Blocks : 0 Valid Blocks : 196608
 Total Tags : 491520 Threshold : 12288 Invalid Tags : 196611 Pr0 Tags : 98301 Pr1 Tags : 196608 num_pr0 : 12288
 SAE Count : 0
 Inter-Core Inteference in Data Store : 3207810
Heartbeat CPU 0 instructions: 90000000 cycles: 79292940 heartbeat IPC: 1.13172 cumulative IPC: 1.13503 (Simulation time: 26 hr 33 min 47 sec) 
 Total Blocks : 196608 Invalid Blocks : 0 Valid Blocks : 196608
 Total Tags : 491520 Threshold : 12288 Invalid Tags : 196612 Pr0 Tags : 98300 Pr1 Tags : 196608 num_pr0 : 12288
 SAE Count : 0
 Inter-Core Inteference in Data Store : 3207846
Heartbeat CPU 5 instructions: 90000000 cycles: 79293025 heartbeat IPC: 1.13174 cumulative IPC: 1.13503 (Simulation time: 26 hr 33 min 47 sec) 
 Total Blocks : 196608 Invalid Blocks : 0 Valid Blocks : 196608
 Total Tags : 491520 Threshold : 12288 Invalid Tags : 196608 Pr0 Tags : 98304 Pr1 Tags : 196608 num_pr0 : 12288
 SAE Count : 0
 Inter-Core Inteference in Data Store : 3207849
Heartbeat CPU 1 instructions: 90000000 cycles: 79293202 heartbeat IPC: 1.13171 cumulative IPC: 1.13503 (Simulation time: 26 hr 33 min 47 sec) 
 Total Blocks : 196608 Invalid Blocks : 0 Valid Blocks : 196608
 Total Tags : 491520 Threshold : 12288 Invalid Tags : 196610 Pr0 Tags : 98302 Pr1 Tags : 196608 num_pr0 : 12288
 SAE Count : 0
 Inter-Core Inteference in Data Store : 3207861
Heartbeat CPU 2 instructions: 90000000 cycles: 79293438 heartbeat IPC: 1.13173 cumulative IPC: 1.13502 (Simulation time: 26 hr 33 min 47 sec) 
 Total Blocks : 196608 Invalid Blocks : 0 Valid Blocks : 196608
 Total Tags : 491520 Threshold : 12288 Invalid Tags : 196609 Pr0 Tags : 98303 Pr1 Tags : 196608 num_pr0 : 12288
 SAE Count : 0
 Inter-Core Inteference in Data Store : 3207879
Heartbeat CPU 4 instructions: 90000000 cycles: 79293490 heartbeat IPC: 1.13173 cumulative IPC: 1.13502 (Simulation time: 26 hr 33 min 47 sec) 
 Total Blocks : 196608 Invalid Blocks : 0 Valid Blocks : 196608
 Total Tags : 491520 Threshold : 12288 Invalid Tags : 196613 Pr0 Tags : 98299 Pr1 Tags : 196608 num_pr0 : 12288
 SAE Count : 0
 Inter-Core Inteference in Data Store : 3207886
Heartbeat CPU 6 instructions: 90000000 cycles: 79293729 heartbeat IPC: 1.13171 cumulative IPC: 1.13502 (Simulation time: 26 hr 33 min 47 sec) 
 Total Blocks : 196608 Invalid Blocks : 0 Valid Blocks : 196608
 Total Tags : 491520 Threshold : 12288 Invalid Tags : 196610 Pr0 Tags : 98302 Pr1 Tags : 196608 num_pr0 : 12288
 SAE Count : 0
 Inter-Core Inteference in Data Store : 3207916
Heartbeat CPU 3 instructions: 100000003 cycles: 88204008 heartbeat IPC: 1.12205 cumulative IPC: 1.13374 (Simulation time: 26 hr 53 min 34 sec) 
 Total Blocks : 196608 Invalid Blocks : 0 Valid Blocks : 196608
 Total Tags : 491520 Threshold : 12288 Invalid Tags : 196608 Pr0 Tags : 98304 Pr1 Tags : 196608 num_pr0 : 12288
 SAE Count : 0
 Inter-Core Inteference in Data Store : 3581935
Heartbeat CPU 7 instructions: 100000003 cycles: 88204188 heartbeat IPC: 1.1221 cumulative IPC: 1.13373 (Simulation time: 26 hr 53 min 35 sec) 
 Total Blocks : 196608 Invalid Blocks : 0 Valid Blocks : 196608
 Total Tags : 491520 Threshold : 12288 Invalid Tags : 196609 Pr0 Tags : 98303 Pr1 Tags : 196608 num_pr0 : 12288
 SAE Count : 0
 Inter-Core Inteference in Data Store : 3581952
Heartbeat CPU 5 instructions: 100000003 cycles: 88205016 heartbeat IPC: 1.12208 cumulative IPC: 1.13372 (Simulation time: 26 hr 53 min 35 sec) 
 Total Blocks : 196608 Invalid Blocks : 0 Valid Blocks : 196608
 Total Tags : 491520 Threshold : 12288 Invalid Tags : 196611 Pr0 Tags : 98301 Pr1 Tags : 196608 num_pr0 : 12288
 SAE Count : 0
 Inter-Core Inteference in Data Store : 3582011
Heartbeat CPU 0 instructions: 100000003 cycles: 88205192 heartbeat IPC: 1.12205 cumulative IPC: 1.13372 (Simulation time: 26 hr 53 min 35 sec) 
 Total Blocks : 196608 Invalid Blocks : 0 Valid Blocks : 196608
 Total Tags : 491520 Threshold : 12288 Invalid Tags : 196610 Pr0 Tags : 98302 Pr1 Tags : 196608 num_pr0 : 12288
 SAE Count : 0
 Inter-Core Inteference in Data Store : 3582025
Heartbeat CPU 1 instructions: 100000003 cycles: 88205425 heartbeat IPC: 1.12205 cumulative IPC: 1.13372 (Simulation time: 26 hr 53 min 35 sec) 
 Total Blocks : 196608 Invalid Blocks : 0 Valid Blocks : 196608
 Total Tags : 491520 Threshold : 12288 Invalid Tags : 196611 Pr0 Tags : 98301 Pr1 Tags : 196608 num_pr0 : 12287
 SAE Count : 0
 Inter-Core Inteference in Data Store : 3582035
Heartbeat CPU 2 instructions: 100000003 cycles: 88205458 heartbeat IPC: 1.12208 cumulative IPC: 1.13372 (Simulation time: 26 hr 53 min 35 sec) 
 Total Blocks : 196608 Invalid Blocks : 0 Valid Blocks : 196608
 Total Tags : 491520 Threshold : 12288 Invalid Tags : 196611 Pr0 Tags : 98301 Pr1 Tags : 196608 num_pr0 : 12287
 SAE Count : 0
 Inter-Core Inteference in Data Store : 3582039
Heartbeat CPU 4 instructions: 100000003 cycles: 88205588 heartbeat IPC: 1.12207 cumulative IPC: 1.13372 (Simulation time: 26 hr 53 min 35 sec) 
 Total Blocks : 196608 Invalid Blocks : 0 Valid Blocks : 196608
 Total Tags : 491520 Threshold : 12288 Invalid Tags : 196610 Pr0 Tags : 98302 Pr1 Tags : 196608 num_pr0 : 12288
 SAE Count : 0
 Inter-Core Inteference in Data Store : 3582046
Heartbeat CPU 6 instructions: 100000003 cycles: 88205894 heartbeat IPC: 1.12206 cumulative IPC: 1.13371 (Simulation time: 26 hr 53 min 35 sec) 
 Total Blocks : 196608 Invalid Blocks : 0 Valid Blocks : 196608
 Total Tags : 491520 Threshold : 12288 Invalid Tags : 196609 Pr0 Tags : 98303 Pr1 Tags : 196608 num_pr0 : 12288
 SAE Count : 0
 Inter-Core Inteference in Data Store : 3582058
Heartbeat CPU 3 instructions: 110000000 cycles: 97019397 heartbeat IPC: 1.13438 cumulative IPC: 1.13379 (Simulation time: 27 hr 13 min 43 sec) 
 Total Blocks : 196608 Invalid Blocks : 0 Valid Blocks : 196608
 Total Tags : 491520 Threshold : 12288 Invalid Tags : 196608 Pr0 Tags : 98304 Pr1 Tags : 196608 num_pr0 : 12288
 SAE Count : 0
 Inter-Core Inteference in Data Store : 3952157
Heartbeat CPU 7 instructions: 110000000 cycles: 97019554 heartbeat IPC: 1.13438 cumulative IPC: 1.13379 (Simulation time: 27 hr 13 min 43 sec) 
 Total Blocks : 196608 Invalid Blocks : 0 Valid Blocks : 196608
 Total Tags : 491520 Threshold : 12288 Invalid Tags : 196609 Pr0 Tags : 98303 Pr1 Tags : 196608 num_pr0 : 12288
 SAE Count : 0
 Inter-Core Inteference in Data Store : 3952166
Heartbeat CPU 5 instructions: 110000000 cycles: 97020277 heartbeat IPC: 1.1344 cumulative IPC: 1.13378 (Simulation time: 27 hr 13 min 43 sec) 
 Total Blocks : 196608 Invalid Blocks : 0 Valid Blocks : 196608
 Total Tags : 491520 Threshold : 12288 Invalid Tags : 196610 Pr0 Tags : 98302 Pr1 Tags : 196608 num_pr0 : 12288
 SAE Count : 0
 Inter-Core Inteference in Data Store : 3952222
Heartbeat CPU 0 instructions: 110000000 cycles: 97020371 heartbeat IPC: 1.13441 cumulative IPC: 1.13378 (Simulation time: 27 hr 13 min 43 sec) 
 Total Blocks : 196608 Invalid Blocks : 0 Valid Blocks : 196608
 Total Tags : 491520 Threshold : 12288 Invalid Tags : 196608 Pr0 Tags : 98304 Pr1 Tags : 196608 num_pr0 : 12288
 SAE Count : 0
 Inter-Core Inteference in Data Store : 3952228
Heartbeat CPU 2 instructions: 110000000 cycles: 97020388 heartbeat IPC: 1.13444 cumulative IPC: 1.13378 (Simulation time: 27 hr 13 min 43 sec) 
 Total Blocks : 196608 Invalid Blocks : 0 Valid Blocks : 196608
 Total Tags : 491520 Threshold : 12288 Invalid Tags : 196610 Pr0 Tags : 98302 Pr1 Tags : 196608 num_pr0 : 12288
 SAE Count : 0
 Inter-Core Inteference in Data Store : 3952229
Heartbeat CPU 1 instructions: 110000000 cycles: 97020548 heartbeat IPC: 1.13441 cumulative IPC: 1.13378 (Simulation time: 27 hr 13 min 43 sec) 
 Total Blocks : 196608 Invalid Blocks : 0 Valid Blocks : 196608
 Total Tags : 491520 Threshold : 12288 Invalid Tags : 196609 Pr0 Tags : 98303 Pr1 Tags : 196608 num_pr0 : 12288
 SAE Count : 0
 Inter-Core Inteference in Data Store : 3952240
Heartbeat CPU 4 instructions: 110000000 cycles: 97020875 heartbeat IPC: 1.13439 cumulative IPC: 1.13378 (Simulation time: 27 hr 13 min 43 sec) 
 Total Blocks : 196608 Invalid Blocks : 0 Valid Blocks : 196608
 Total Tags : 491520 Threshold : 12288 Invalid Tags : 196608 Pr0 Tags : 98304 Pr1 Tags : 196608 num_pr0 : 12288
 SAE Count : 0
 Inter-Core Inteference in Data Store : 3952256
Heartbeat CPU 6 instructions: 110000000 cycles: 97021173 heartbeat IPC: 1.13439 cumulative IPC: 1.13377 (Simulation time: 27 hr 13 min 43 sec) 
 Total Blocks : 196608 Invalid Blocks : 0 Valid Blocks : 196608
 Total Tags : 491520 Threshold : 12288 Invalid Tags : 196608 Pr0 Tags : 98304 Pr1 Tags : 196608 num_pr0 : 12288
 SAE Count : 0
 Inter-Core Inteference in Data Store : 3952275
Heartbeat CPU 3 instructions: 120000003 cycles: 105824229 heartbeat IPC: 1.13574 cumulative IPC: 1.13396 (Simulation time: 27 hr 31 min 56 sec) 
 Total Blocks : 196608 Invalid Blocks : 0 Valid Blocks : 196608
 Total Tags : 491520 Threshold : 12288 Invalid Tags : 196610 Pr0 Tags : 98302 Pr1 Tags : 196608 num_pr0 : 12288
 SAE Count : 0
 Inter-Core Inteference in Data Store : 4320160
Heartbeat CPU 7 instructions: 120000003 cycles: 105824421 heartbeat IPC: 1.13574 cumulative IPC: 1.13395 (Simulation time: 27 hr 31 min 56 sec) 
 Total Blocks : 196608 Invalid Blocks : 0 Valid Blocks : 196608
 Total Tags : 491520 Threshold : 12288 Invalid Tags : 196610 Pr0 Tags : 98302 Pr1 Tags : 196608 num_pr0 : 12288
 SAE Count : 0
 Inter-Core Inteference in Data Store : 4320170
Heartbeat CPU 5 instructions: 120000003 cycles: 105824868 heartbeat IPC: 1.13577 cumulative IPC: 1.13395 (Simulation time: 27 hr 31 min 56 sec) 
 Total Blocks : 196608 Invalid Blocks : 0 Valid Blocks : 196608
 Total Tags : 491520 Threshold : 12288 Invalid Tags : 196609 Pr0 Tags : 98303 Pr1 Tags : 196608 num_pr0 : 12288
 SAE Count : 0
 Inter-Core Inteference in Data Store : 4320190
Heartbeat CPU 1 instructions: 120000003 cycles: 105825044 heartbeat IPC: 1.13578 cumulative IPC: 1.13395 (Simulation time: 27 hr 31 min 56 sec) 
 Total Blocks : 196608 Invalid Blocks : 0 Valid Blocks : 196608
 Total Tags : 491520 Threshold : 12288 Invalid Tags : 196609 Pr0 Tags : 98303 Pr1 Tags : 196608 num_pr0 : 12288
 SAE Count : 0
 Inter-Core Inteference in Data Store : 4320195
Heartbeat CPU 0 instructions: 120000003 cycles: 105825050 heartbeat IPC: 1.13576 cumulative IPC: 1.13395 (Simulation time: 27 hr 31 min 56 sec) 
 Total Blocks : 196608 Invalid Blocks : 0 Valid Blocks : 196608
 Total Tags : 491520 Threshold : 12288 Invalid Tags : 196610 Pr0 Tags : 98302 Pr1 Tags : 196608 num_pr0 : 12288
 SAE Count : 0
 Inter-Core Inteference in Data Store : 4320196
Heartbeat CPU 2 instructions: 120000003 cycles: 105825396 heartbeat IPC: 1.13572 cumulative IPC: 1.13394 (Simulation time: 27 hr 31 min 56 sec) 
 Total Blocks : 196608 Invalid Blocks : 0 Valid Blocks : 196608
 Total Tags : 491520 Threshold : 12288 Invalid Tags : 196610 Pr0 Tags : 98302 Pr1 Tags : 196608 num_pr0 : 12287
 SAE Count : 0
 Inter-Core Inteference in Data Store : 4320208
Heartbeat CPU 6 instructions: 120000003 cycles: 105825723 heartbeat IPC: 1.13578 cumulative IPC: 1.13394 (Simulation time: 27 hr 31 min 56 sec) 
 Total Blocks : 196608 Invalid Blocks : 0 Valid Blocks : 196608
 Total Tags : 491520 Threshold : 12288 Invalid Tags : 196609 Pr0 Tags : 98303 Pr1 Tags : 196608 num_pr0 : 12287
 SAE Count : 0
 Inter-Core Inteference in Data Store : 4320217
Heartbeat CPU 4 instructions: 120000003 cycles: 105826056 heartbeat IPC: 1.1357 cumulative IPC: 1.13394 (Simulation time: 27 hr 31 min 56 sec) 
 Total Blocks : 196608 Invalid Blocks : 0 Valid Blocks : 196608
 Total Tags : 491520 Threshold : 12288 Invalid Tags : 196611 Pr0 Tags : 98301 Pr1 Tags : 196608 num_pr0 : 12288
 SAE Count : 0
 Inter-Core Inteference in Data Store : 4320227
Heartbeat CPU 3 instructions: 130000000 cycles: 114646929 heartbeat IPC: 1.13344 cumulative IPC: 1.13392 (Simulation time: 27 hr 51 min 57 sec) 
 Total Blocks : 196608 Invalid Blocks : 0 Valid Blocks : 196608
 Total Tags : 491520 Threshold : 12288 Invalid Tags : 196609 Pr0 Tags : 98303 Pr1 Tags : 196608 num_pr0 : 12287
 SAE Count : 0
 Inter-Core Inteference in Data Store : 4691252
Heartbeat CPU 7 instructions: 130000000 cycles: 114647126 heartbeat IPC: 1.13344 cumulative IPC: 1.13391 (Simulation time: 27 hr 51 min 58 sec) 
 Total Blocks : 196608 Invalid Blocks : 0 Valid Blocks : 196608
 Total Tags : 491520 Threshold : 12288 Invalid Tags : 196609 Pr0 Tags : 98303 Pr1 Tags : 196608 num_pr0 : 12288
 SAE Count : 0
 Inter-Core Inteference in Data Store : 4691264
Heartbeat CPU 5 instructions: 130000000 cycles: 114647452 heartbeat IPC: 1.13345 cumulative IPC: 1.13391 (Simulation time: 27 hr 51 min 58 sec) 
 Total Blocks : 196608 Invalid Blocks : 0 Valid Blocks : 196608
 Total Tags : 491520 Threshold : 12288 Invalid Tags : 196608 Pr0 Tags : 98304 Pr1 Tags : 196608 num_pr0 : 12288
 SAE Count : 0
 Inter-Core Inteference in Data Store : 4691286
Heartbeat CPU 1 instructions: 130000000 cycles: 114647752 heartbeat IPC: 1.13344 cumulative IPC: 1.13391 (Simulation time: 27 hr 51 min 58 sec) 
 Total Blocks : 196608 Invalid Blocks : 0 Valid Blocks : 196608
 Total Tags : 491520 Threshold : 12288 Invalid Tags : 196609 Pr0 Tags : 98303 Pr1 Tags : 196608 num_pr0 : 12288
 SAE Count : 0
 Inter-Core Inteference in Data Store : 4691307
Heartbeat CPU 0 instructions: 130000000 cycles: 114647873 heartbeat IPC: 1.13342 cumulative IPC: 1.13391 (Simulation time: 27 hr 51 min 58 sec) 
 Total Blocks : 196608 Invalid Blocks : 0 Valid Blocks : 196608
 Total Tags : 491520 Threshold : 12288 Invalid Tags : 196610 Pr0 Tags : 98302 Pr1 Tags : 196608 num_pr0 : 12287
 SAE Count : 0
 Inter-Core Inteference in Data Store : 4691313
Heartbeat CPU 2 instructions: 130000000 cycles: 114648357 heartbeat IPC: 1.13341 cumulative IPC: 1.1339 (Simulation time: 27 hr 51 min 58 sec) 
 Total Blocks : 196608 Invalid Blocks : 0 Valid Blocks : 196608
 Total Tags : 491520 Threshold : 12288 Invalid Tags : 196610 Pr0 Tags : 98302 Pr1 Tags : 196608 num_pr0 : 12288
 SAE Count : 0
 Inter-Core Inteference in Data Store : 4691356
Heartbeat CPU 6 instructions: 130000000 cycles: 114648534 heartbeat IPC: 1.13343 cumulative IPC: 1.1339 (Simulation time: 27 hr 51 min 58 sec) 
 Total Blocks : 196608 Invalid Blocks : 0 Valid Blocks : 196608
 Total Tags : 491520 Threshold : 12288 Invalid Tags : 196609 Pr0 Tags : 98303 Pr1 Tags : 196608 num_pr0 : 12288
 SAE Count : 0
 Inter-Core Inteference in Data Store : 4691364
Heartbeat CPU 4 instructions: 130000000 cycles: 114648990 heartbeat IPC: 1.13341 cumulative IPC: 1.1339 (Simulation time: 27 hr 51 min 58 sec) 
 Total Blocks : 196608 Invalid Blocks : 0 Valid Blocks : 196608
 Total Tags : 491520 Threshold : 12288 Invalid Tags : 196610 Pr0 Tags : 98302 Pr1 Tags : 196608 num_pr0 : 12288
 SAE Count : 0
 Inter-Core Inteference in Data Store : 4691403
Heartbeat CPU 7 instructions: 140000000 cycles: 123480612 heartbeat IPC: 1.13206 cumulative IPC: 1.13378 (Simulation time: 28 hr 9 min 51 sec) 
 Total Blocks : 196608 Invalid Blocks : 0 Valid Blocks : 196608
 Total Tags : 491520 Threshold : 12288 Invalid Tags : 196608 Pr0 Tags : 98304 Pr1 Tags : 196608 num_pr0 : 12288
 SAE Count : 0
 Inter-Core Inteference in Data Store : 5062426
Heartbeat CPU 3 instructions: 140000000 cycles: 123480675 heartbeat IPC: 1.13202 cumulative IPC: 1.13378 (Simulation time: 28 hr 9 min 51 sec) 
 Total Blocks : 196608 Invalid Blocks : 0 Valid Blocks : 196608
 Total Tags : 491520 Threshold : 12288 Invalid Tags : 196608 Pr0 Tags : 98304 Pr1 Tags : 196608 num_pr0 : 12288
 SAE Count : 0
 Inter-Core Inteference in Data Store : 5062426
Heartbeat CPU 5 instructions: 140000000 cycles: 123480927 heartbeat IPC: 1.13206 cumulative IPC: 1.13378 (Simulation time: 28 hr 9 min 51 sec) 
 Total Blocks : 196608 Invalid Blocks : 0 Valid Blocks : 196608
 Total Tags : 491520 Threshold : 12288 Invalid Tags : 196608 Pr0 Tags : 98304 Pr1 Tags : 196608 num_pr0 : 12288
 SAE Count : 0
 Inter-Core Inteference in Data Store : 5062433
Heartbeat CPU 1 instructions: 140000000 cycles: 123481402 heartbeat IPC: 1.13203 cumulative IPC: 1.13377 (Simulation time: 28 hr 9 min 51 sec) 
 Total Blocks : 196608 Invalid Blocks : 0 Valid Blocks : 196608
 Total Tags : 491520 Threshold : 12288 Invalid Tags : 196610 Pr0 Tags : 98302 Pr1 Tags : 196608 num_pr0 : 12288
 SAE Count : 0
 Inter-Core Inteference in Data Store : 5062445
Heartbeat CPU 0 instructions: 140000000 cycles: 123481696 heartbeat IPC: 1.13201 cumulative IPC: 1.13377 (Simulation time: 28 hr 9 min 51 sec) 
 Total Blocks : 196608 Invalid Blocks : 0 Valid Blocks : 196608
 Total Tags : 491520 Threshold : 12288 Invalid Tags : 196609 Pr0 Tags : 98303 Pr1 Tags : 196608 num_pr0 : 12288
 SAE Count : 0
 Inter-Core Inteference in Data Store : 5062452
Heartbeat CPU 6 instructions: 140000000 cycles: 123481927 heartbeat IPC: 1.13207 cumulative IPC: 1.13377 (Simulation time: 28 hr 9 min 51 sec) 
 Total Blocks : 196608 Invalid Blocks : 0 Valid Blocks : 196608
 Total Tags : 491520 Threshold : 12288 Invalid Tags : 196609 Pr0 Tags : 98303 Pr1 Tags : 196608 num_pr0 : 12288
 SAE Count : 0
 Inter-Core Inteference in Data Store : 5062457
Heartbeat CPU 2 instructions: 140000000 cycles: 123482199 heartbeat IPC: 1.13201 cumulative IPC: 1.13377 (Simulation time: 28 hr 9 min 51 sec) 
 Total Blocks : 196608 Invalid Blocks : 0 Valid Blocks : 196608
 Total Tags : 491520 Threshold : 12288 Invalid Tags : 196609 Pr0 Tags : 98303 Pr1 Tags : 196608 num_pr0 : 12288
 SAE Count : 0
 Inter-Core Inteference in Data Store : 5062461
Heartbeat CPU 4 instructions: 140000000 cycles: 123482844 heartbeat IPC: 1.13201 cumulative IPC: 1.13376 (Simulation time: 28 hr 9 min 51 sec) 
 Total Blocks : 196608 Invalid Blocks : 0 Valid Blocks : 196608
 Total Tags : 491520 Threshold : 12288 Invalid Tags : 196608 Pr0 Tags : 98304 Pr1 Tags : 196608 num_pr0 : 12288
 SAE Count : 0
 Inter-Core Inteference in Data Store : 5062478
Heartbeat CPU 3 instructions: 150000001 cycles: 132341174 heartbeat IPC: 1.1286 cumulative IPC: 1.13343 (Simulation time: 28 hr 27 min 42 sec) 
 Total Blocks : 196608 Invalid Blocks : 0 Valid Blocks : 196608
 Total Tags : 491520 Threshold : 12288 Invalid Tags : 196610 Pr0 Tags : 98302 Pr1 Tags : 196608 num_pr0 : 12288
 SAE Count : 0
 Inter-Core Inteference in Data Store : 5416706
Heartbeat CPU 7 instructions: 150000001 cycles: 132341296 heartbeat IPC: 1.12858 cumulative IPC: 1.13343 (Simulation time: 28 hr 27 min 42 sec) 
 Total Blocks : 196608 Invalid Blocks : 0 Valid Blocks : 196608
 Total Tags : 491520 Threshold : 12288 Invalid Tags : 196610 Pr0 Tags : 98302 Pr1 Tags : 196608 num_pr0 : 12287
 SAE Count : 0
 Inter-Core Inteference in Data Store : 5416714
Heartbeat CPU 5 instructions: 150000001 cycles: 132341692 heartbeat IPC: 1.12857 cumulative IPC: 1.13343 (Simulation time: 28 hr 27 min 43 sec) 
 Total Blocks : 196608 Invalid Blocks : 0 Valid Blocks : 196608
 Total Tags : 491520 Threshold : 12288 Invalid Tags : 196608 Pr0 Tags : 98304 Pr1 Tags : 196608 num_pr0 : 12288
 SAE Count : 0
 Inter-Core Inteference in Data Store : 5416733
Heartbeat CPU 1 instructions: 150000001 cycles: 132342236 heartbeat IPC: 1.12856 cumulative IPC: 1.13342 (Simulation time: 28 hr 27 min 43 sec) 
 Total Blocks : 196608 Invalid Blocks : 0 Valid Blocks : 196608
 Total Tags : 491520 Threshold : 12288 Invalid Tags : 196609 Pr0 Tags : 98303 Pr1 Tags : 196608 num_pr0 : 12288
 SAE Count : 0
 Inter-Core Inteference in Data Store : 5416761
Heartbeat CPU 0 instructions: 150000001 cycles: 132342621 heartbeat IPC: 1.12855 cumulative IPC: 1.13342 (Simulation time: 28 hr 27 min 43 sec) 
 Total Blocks : 196608 Invalid Blocks : 0 Valid Blocks : 196608
 Total Tags : 491520 Threshold : 12288 Invalid Tags : 196608 Pr0 Tags : 98304 Pr1 Tags : 196608 num_pr0 : 12288
 SAE Count : 0
 Inter-Core Inteference in Data Store : 5416777
Heartbeat CPU 6 instructions: 150000001 cycles: 132342795 heartbeat IPC: 1.12856 cumulative IPC: 1.13342 (Simulation time: 28 hr 27 min 43 sec) 
 Total Blocks : 196608 Invalid Blocks : 0 Valid Blocks : 196608
 Total Tags : 491520 Threshold : 12288 Invalid Tags : 196610 Pr0 Tags : 98302 Pr1 Tags : 196608 num_pr0 : 12287
 SAE Count : 0
 Inter-Core Inteference in Data Store : 5416786
Heartbeat CPU 2 instructions: 150000001 cycles: 132343001 heartbeat IPC: 1.12857 cumulative IPC: 1.13342 (Simulation time: 28 hr 27 min 43 sec) 
 Total Blocks : 196608 Invalid Blocks : 0 Valid Blocks : 196608
 Total Tags : 491520 Threshold : 12288 Invalid Tags : 196609 Pr0 Tags : 98303 Pr1 Tags : 196608 num_pr0 : 12288
 SAE Count : 0
 Inter-Core Inteference in Data Store : 5416793
Heartbeat CPU 4 instructions: 150000001 cycles: 132343686 heartbeat IPC: 1.12856 cumulative IPC: 1.13341 (Simulation time: 28 hr 27 min 43 sec) 
 Total Blocks : 196608 Invalid Blocks : 0 Valid Blocks : 196608
 Total Tags : 491520 Threshold : 12288 Invalid Tags : 196608 Pr0 Tags : 98304 Pr1 Tags : 196608 num_pr0 : 12288
 SAE Count : 0
 Inter-Core Inteference in Data Store : 5416819
Heartbeat CPU 3 instructions: 160000000 cycles: 141168297 heartbeat IPC: 1.13287 cumulative IPC: 1.1334 (Simulation time: 28 hr 45 min 3 sec) 
 Total Blocks : 196608 Invalid Blocks : 0 Valid Blocks : 196608
 Total Tags : 491520 Threshold : 12288 Invalid Tags : 196609 Pr0 Tags : 98303 Pr1 Tags : 196608 num_pr0 : 12288
 SAE Count : 0
 Inter-Core Inteference in Data Store : 5790072
Heartbeat CPU 7 instructions: 160000000 cycles: 141168308 heartbeat IPC: 1.13289 cumulative IPC: 1.1334 (Simulation time: 28 hr 45 min 3 sec) 
 Total Blocks : 196608 Invalid Blocks : 0 Valid Blocks : 196608
 Total Tags : 491520 Threshold : 12288 Invalid Tags : 196608 Pr0 Tags : 98304 Pr1 Tags : 196608 num_pr0 : 12288
 SAE Count : 0
 Inter-Core Inteference in Data Store : 5790073
Heartbeat CPU 5 instructions: 160000000 cycles: 141168862 heartbeat IPC: 1.13287 cumulative IPC: 1.13339 (Simulation time: 28 hr 45 min 3 sec) 
 Total Blocks : 196608 Invalid Blocks : 0 Valid Blocks : 196608
 Total Tags : 491520 Threshold : 12288 Invalid Tags : 196609 Pr0 Tags : 98303 Pr1 Tags : 196608 num_pr0 : 12288
 SAE Count : 0
 Inter-Core Inteference in Data Store : 5790114
Heartbeat CPU 1 instructions: 160000000 cycles: 141169460 heartbeat IPC: 1.13286 cumulative IPC: 1.13339 (Simulation time: 28 hr 45 min 3 sec) 
 Total Blocks : 196608 Invalid Blocks : 0 Valid Blocks : 196608
 Total Tags : 491520 Threshold : 12288 Invalid Tags : 196609 Pr0 Tags : 98303 Pr1 Tags : 196608 num_pr0 : 12287
 SAE Count : 0
 Inter-Core Inteference in Data Store : 5790141
Heartbeat CPU 0 instructions: 160000000 cycles: 141169909 heartbeat IPC: 1.13285 cumulative IPC: 1.13339 (Simulation time: 28 hr 45 min 3 sec) 
 Total Blocks : 196608 Invalid Blocks : 0 Valid Blocks : 196608
 Total Tags : 491520 Threshold : 12288 Invalid Tags : 196610 Pr0 Tags : 98302 Pr1 Tags : 196608 num_pr0 : 12288
 SAE Count : 0
 Inter-Core Inteference in Data Store : 5790165
Heartbeat CPU 6 instructions: 160000000 cycles: 141169960 heartbeat IPC: 1.13287 cumulative IPC: 1.13339 (Simulation time: 28 hr 45 min 3 sec) 
 Total Blocks : 196608 Invalid Blocks : 0 Valid Blocks : 196608
 Total Tags : 491520 Threshold : 12288 Invalid Tags : 196612 Pr0 Tags : 98300 Pr1 Tags : 196608 num_pr0 : 12287
 SAE Count : 0
 Inter-Core Inteference in Data Store : 5790173
Heartbeat CPU 2 instructions: 160000000 cycles: 141170182 heartbeat IPC: 1.13286 cumulative IPC: 1.13338 (Simulation time: 28 hr 45 min 3 sec) 
 Total Blocks : 196608 Invalid Blocks : 0 Valid Blocks : 196608
 Total Tags : 491520 Threshold : 12288 Invalid Tags : 196608 Pr0 Tags : 98304 Pr1 Tags : 196608 num_pr0 : 12288
 SAE Count : 0
 Inter-Core Inteference in Data Store : 5790186
Heartbeat CPU 4 instructions: 160000000 cycles: 141171075 heartbeat IPC: 1.13284 cumulative IPC: 1.13338 (Simulation time: 28 hr 45 min 3 sec) 
 Total Blocks : 196608 Invalid Blocks : 0 Valid Blocks : 196608
 Total Tags : 491520 Threshold : 12288 Invalid Tags : 196609 Pr0 Tags : 98303 Pr1 Tags : 196608 num_pr0 : 12287
 SAE Count : 0
 Inter-Core Inteference in Data Store : 5790241
Heartbeat CPU 3 instructions: 170000003 cycles: 149964912 heartbeat IPC: 1.1368 cumulative IPC: 1.1336 (Simulation time: 29 hr 2 min 28 sec) 
 Total Blocks : 196608 Invalid Blocks : 0 Valid Blocks : 196608
 Total Tags : 491520 Threshold : 12288 Invalid Tags : 196608 Pr0 Tags : 98304 Pr1 Tags : 196608 num_pr0 : 12288
 SAE Count : 0
 Inter-Core Inteference in Data Store : 6159620
Heartbeat CPU 7 instructions: 170000003 cycles: 149965194 heartbeat IPC: 1.13677 cumulative IPC: 1.1336 (Simulation time: 29 hr 2 min 28 sec) 
 Total Blocks : 196608 Invalid Blocks : 0 Valid Blocks : 196608
 Total Tags : 491520 Threshold : 12288 Invalid Tags : 196610 Pr0 Tags : 98302 Pr1 Tags : 196608 num_pr0 : 12288
 SAE Count : 0
 Inter-Core Inteference in Data Store : 6159633
Heartbeat CPU 5 instructions: 170000003 cycles: 149965301 heartbeat IPC: 1.13682 cumulative IPC: 1.1336 (Simulation time: 29 hr 2 min 28 sec) 
 Total Blocks : 196608 Invalid Blocks : 0 Valid Blocks : 196608
 Total Tags : 491520 Threshold : 12288 Invalid Tags : 196610 Pr0 Tags : 98302 Pr1 Tags : 196608 num_pr0 : 12287
 SAE Count : 0
 Inter-Core Inteference in Data Store : 6159640
Heartbeat CPU 1 instructions: 170000003 cycles: 149966119 heartbeat IPC: 1.1368 cumulative IPC: 1.13359 (Simulation time: 29 hr 2 min 28 sec) 
 Total Blocks : 196608 Invalid Blocks : 0 Valid Blocks : 196608
 Total Tags : 491520 Threshold : 12288 Invalid Tags : 196610 Pr0 Tags : 98302 Pr1 Tags : 196608 num_pr0 : 12288
 SAE Count : 0
 Inter-Core Inteference in Data Store : 6159683
Heartbeat CPU 0 instructions: 170000003 cycles: 149966547 heartbeat IPC: 1.1368 cumulative IPC: 1.13359 (Simulation time: 29 hr 2 min 28 sec) 
 Total Blocks : 196608 Invalid Blocks : 0 Valid Blocks : 196608
 Total Tags : 491520 Threshold : 12288 Invalid Tags : 196609 Pr0 Tags : 98303 Pr1 Tags : 196608 num_pr0 : 12287
 SAE Count : 0
 Inter-Core Inteference in Data Store : 6159696
Heartbeat CPU 6 instructions: 170000003 cycles: 149966598 heartbeat IPC: 1.1368 cumulative IPC: 1.13359 (Simulation time: 29 hr 2 min 28 sec) 
 Total Blocks : 196608 Invalid Blocks : 0 Valid Blocks : 196608
 Total Tags : 491520 Threshold : 12288 Invalid Tags : 196608 Pr0 Tags : 98304 Pr1 Tags : 196608 num_pr0 : 12288
 SAE Count : 0
 Inter-Core Inteference in Data Store : 6159696
Heartbeat CPU 2 instructions: 170000003 cycles: 149967134 heartbeat IPC: 1.13676 cumulative IPC: 1.13358 (Simulation time: 29 hr 2 min 28 sec) 
 Total Blocks : 196608 Invalid Blocks : 0 Valid Blocks : 196608
 Total Tags : 491520 Threshold : 12288 Invalid Tags : 196609 Pr0 Tags : 98303 Pr1 Tags : 196608 num_pr0 : 12287
 SAE Count : 0
 Inter-Core Inteference in Data Store : 6159715
Heartbeat CPU 4 instructions: 170000003 cycles: 149967971 heartbeat IPC: 1.13677 cumulative IPC: 1.13358 (Simulation time: 29 hr 2 min 28 sec) 
 Total Blocks : 196608 Invalid Blocks : 0 Valid Blocks : 196608
 Total Tags : 491520 Threshold : 12288 Invalid Tags : 196608 Pr0 Tags : 98304 Pr1 Tags : 196608 num_pr0 : 12288
 SAE Count : 0
 Inter-Core Inteference in Data Store : 6159749
Heartbeat CPU 3 instructions: 180000000 cycles: 158759258 heartbeat IPC: 1.13709 cumulative IPC: 1.13379 (Simulation time: 29 hr 20 min 6 sec) 
 Total Blocks : 196608 Invalid Blocks : 0 Valid Blocks : 196608
 Total Tags : 491520 Threshold : 12288 Invalid Tags : 196608 Pr0 Tags : 98304 Pr1 Tags : 196608 num_pr0 : 12288
 SAE Count : 0
 Inter-Core Inteference in Data Store : 6526742
Heartbeat CPU 5 instructions: 180000000 cycles: 158759793 heartbeat IPC: 1.13707 cumulative IPC: 1.13379 (Simulation time: 29 hr 20 min 6 sec) 
 Total Blocks : 196608 Invalid Blocks : 0 Valid Blocks : 196608
 Total Tags : 491520 Threshold : 12288 Invalid Tags : 196608 Pr0 Tags : 98304 Pr1 Tags : 196608 num_pr0 : 12288
 SAE Count : 0
 Inter-Core Inteference in Data Store : 6526767
Heartbeat CPU 7 instructions: 180000000 cycles: 158759905 heartbeat IPC: 1.13705 cumulative IPC: 1.13379 (Simulation time: 29 hr 20 min 6 sec) 
 Total Blocks : 196608 Invalid Blocks : 0 Valid Blocks : 196608
 Total Tags : 491520 Threshold : 12288 Invalid Tags : 196610 Pr0 Tags : 98302 Pr1 Tags : 196608 num_pr0 : 12288
 SAE Count : 0
 Inter-Core Inteference in Data Store : 6526775
Heartbeat CPU 1 instructions: 180000000 cycles: 158760566 heartbeat IPC: 1.13708 cumulative IPC: 1.13378 (Simulation time: 29 hr 20 min 6 sec) 
 Total Blocks : 196608 Invalid Blocks : 0 Valid Blocks : 196608
 Total Tags : 491520 Threshold : 12288 Invalid Tags : 196609 Pr0 Tags : 98303 Pr1 Tags : 196608 num_pr0 : 12288
 SAE Count : 0
 Inter-Core Inteference in Data Store : 6526805
Heartbeat CPU 6 instructions: 180000000 cycles: 158761085 heartbeat IPC: 1.13708 cumulative IPC: 1.13378 (Simulation time: 29 hr 20 min 7 sec) 
 Total Blocks : 196608 Invalid Blocks : 0 Valid Blocks : 196608
 Total Tags : 491520 Threshold : 12288 Invalid Tags : 196609 Pr0 Tags : 98303 Pr1 Tags : 196608 num_pr0 : 12288
 SAE Count : 0
 Inter-Core Inteference in Data Store : 6526818
Heartbeat CPU 0 instructions: 180000000 cycles: 158761191 heartbeat IPC: 1.13706 cumulative IPC: 1.13378 (Simulation time: 29 hr 20 min 7 sec) 
 Total Blocks : 196608 Invalid Blocks : 0 Valid Blocks : 196608
 Total Tags : 491520 Threshold : 12288 Invalid Tags : 196611 Pr0 Tags : 98301 Pr1 Tags : 196608 num_pr0 : 12288
 SAE Count : 0
 Inter-Core Inteference in Data Store : 6526823
Heartbeat CPU 2 instructions: 180000000 cycles: 158761658 heartbeat IPC: 1.13707 cumulative IPC: 1.13377 (Simulation time: 29 hr 20 min 7 sec) 
 Total Blocks : 196608 Invalid Blocks : 0 Valid Blocks : 196608
 Total Tags : 491520 Threshold : 12288 Invalid Tags : 196611 Pr0 Tags : 98301 Pr1 Tags : 196608 num_pr0 : 12288
 SAE Count : 0
 Inter-Core Inteference in Data Store : 6526846
Heartbeat CPU 4 instructions: 180000000 cycles: 158762812 heartbeat IPC: 1.13703 cumulative IPC: 1.13377 (Simulation time: 29 hr 20 min 7 sec) 
 Total Blocks : 196608 Invalid Blocks : 0 Valid Blocks : 196608
 Total Tags : 491520 Threshold : 12288 Invalid Tags : 196610 Pr0 Tags : 98302 Pr1 Tags : 196608 num_pr0 : 12288
 SAE Count : 0
 Inter-Core Inteference in Data Store : 6526894
Heartbeat CPU 3 instructions: 190000002 cycles: 167581797 heartbeat IPC: 1.13346 cumulative IPC: 1.13377 (Simulation time: 29 hr 39 min 7 sec) 
 Total Blocks : 196608 Invalid Blocks : 0 Valid Blocks : 196608
 Total Tags : 491520 Threshold : 12288 Invalid Tags : 196611 Pr0 Tags : 98301 Pr1 Tags : 196608 num_pr0 : 12288
 SAE Count : 0
 Inter-Core Inteference in Data Store : 6887404
Heartbeat CPU 5 instructions: 190000002 cycles: 167582351 heartbeat IPC: 1.13346 cumulative IPC: 1.13377 (Simulation time: 29 hr 39 min 7 sec) 
 Total Blocks : 196608 Invalid Blocks : 0 Valid Blocks : 196608
 Total Tags : 491520 Threshold : 12288 Invalid Tags : 196610 Pr0 Tags : 98302 Pr1 Tags : 196608 num_pr0 : 12288
 SAE Count : 0
 Inter-Core Inteference in Data Store : 6887416
Heartbeat CPU 7 instructions: 190000002 cycles: 167582889 heartbeat IPC: 1.1334 cumulative IPC: 1.13377 (Simulation time: 29 hr 39 min 7 sec) 
 Total Blocks : 196608 Invalid Blocks : 0 Valid Blocks : 196608
 Total Tags : 491520 Threshold : 12288 Invalid Tags : 196611 Pr0 Tags : 98301 Pr1 Tags : 196608 num_pr0 : 12288
 SAE Count : 0
 Inter-Core Inteference in Data Store : 6887430
Heartbeat CPU 1 instructions: 190000002 cycles: 167583298 heartbeat IPC: 1.13344 cumulative IPC: 1.13376 (Simulation time: 29 hr 39 min 8 sec) 
 Total Blocks : 196608 Invalid Blocks : 0 Valid Blocks : 196608
 Total Tags : 491520 Threshold : 12288 Invalid Tags : 196610 Pr0 Tags : 98302 Pr1 Tags : 196608 num_pr0 : 12288
 SAE Count : 0
 Inter-Core Inteference in Data Store : 6887444
Heartbeat CPU 6 instructions: 190000002 cycles: 167583654 heartbeat IPC: 1.13346 cumulative IPC: 1.13376 (Simulation time: 29 hr 39 min 8 sec) 
 Total Blocks : 196608 Invalid Blocks : 0 Valid Blocks : 196608
 Total Tags : 491520 Threshold : 12288 Invalid Tags : 196611 Pr0 Tags : 98301 Pr1 Tags : 196608 num_pr0 : 12287
 SAE Count : 0
 Inter-Core Inteference in Data Store : 6887460
Heartbeat CPU 0 instructions: 190000002 cycles: 167583941 heartbeat IPC: 1.13343 cumulative IPC: 1.13376 (Simulation time: 29 hr 39 min 8 sec) 
 Total Blocks : 196608 Invalid Blocks : 0 Valid Blocks : 196608
 Total Tags : 491520 Threshold : 12288 Invalid Tags : 196610 Pr0 Tags : 98302 Pr1 Tags : 196608 num_pr0 : 12288
 SAE Count : 0
 Inter-Core Inteference in Data Store : 6887465
Heartbeat CPU 2 instructions: 190000002 cycles: 167584415 heartbeat IPC: 1.13343 cumulative IPC: 1.13376 (Simulation time: 29 hr 39 min 8 sec) 
 Total Blocks : 196608 Invalid Blocks : 0 Valid Blocks : 196608
 Total Tags : 491520 Threshold : 12288 Invalid Tags : 196608 Pr0 Tags : 98304 Pr1 Tags : 196608 num_pr0 : 12288
 SAE Count : 0
 Inter-Core Inteference in Data Store : 6887475
Heartbeat CPU 4 instructions: 190000002 cycles: 167585797 heartbeat IPC: 1.1334 cumulative IPC: 1.13375 (Simulation time: 29 hr 39 min 8 sec) 
 Total Blocks : 196608 Invalid Blocks : 0 Valid Blocks : 196608
 Total Tags : 491520 Threshold : 12288 Invalid Tags : 196609 Pr0 Tags : 98303 Pr1 Tags : 196608 num_pr0 : 12288
 SAE Count : 0
 Inter-Core Inteference in Data Store : 6887508
Heartbeat CPU 3 instructions: 200000000 cycles: 176374983 heartbeat IPC: 1.13724 cumulative IPC: 1.13395 (Simulation time: 29 hr 57 min 6 sec) 
 Total Blocks : 196608 Invalid Blocks : 0 Valid Blocks : 196608
 Total Tags : 491520 Threshold : 12288 Invalid Tags : 196610 Pr0 Tags : 98302 Pr1 Tags : 196608 num_pr0 : 12288
 SAE Count : 0
 Inter-Core Inteference in Data Store : 7245213
Heartbeat CPU 5 instructions: 200000000 cycles: 176375628 heartbeat IPC: 1.13723 cumulative IPC: 1.13394 (Simulation time: 29 hr 57 min 6 sec) 
 Total Blocks : 196608 Invalid Blocks : 0 Valid Blocks : 196608
 Total Tags : 491520 Threshold : 12288 Invalid Tags : 196608 Pr0 Tags : 98304 Pr1 Tags : 196608 num_pr0 : 12288
 SAE Count : 0
 Inter-Core Inteference in Data Store : 7245228
Heartbeat CPU 7 instructions: 200000000 cycles: 176376120 heartbeat IPC: 1.13724 cumulative IPC: 1.13394 (Simulation time: 29 hr 57 min 6 sec) 
 Total Blocks : 196608 Invalid Blocks : 0 Valid Blocks : 196608
 Total Tags : 491520 Threshold : 12288 Invalid Tags : 196610 Pr0 Tags : 98302 Pr1 Tags : 196608 num_pr0 : 12288
 SAE Count : 0
 Inter-Core Inteference in Data Store : 7245248
Heartbeat CPU 1 instructions: 200000000 cycles: 176376455 heartbeat IPC: 1.13725 cumulative IPC: 1.13394 (Simulation time: 29 hr 57 min 6 sec) 
 Total Blocks : 196608 Invalid Blocks : 0 Valid Blocks : 196608
 Total Tags : 491520 Threshold : 12288 Invalid Tags : 196608 Pr0 Tags : 98304 Pr1 Tags : 196608 num_pr0 : 12288
 SAE Count : 0
 Inter-Core Inteference in Data Store : 7245267
Heartbeat CPU 6 instructions: 200000000 cycles: 176376920 heartbeat IPC: 1.13723 cumulative IPC: 1.13394 (Simulation time: 29 hr 57 min 6 sec) 
 Total Blocks : 196608 Invalid Blocks : 0 Valid Blocks : 196608
 Total Tags : 491520 Threshold : 12288 Invalid Tags : 196609 Pr0 Tags : 98303 Pr1 Tags : 196608 num_pr0 : 12287
 SAE Count : 0
 Inter-Core Inteference in Data Store : 7245288
Heartbeat CPU 0 instructions: 200000000 cycles: 176377384 heartbeat IPC: 1.13721 cumulative IPC: 1.13393 (Simulation time: 29 hr 57 min 6 sec) 
 Total Blocks : 196608 Invalid Blocks : 0 Valid Blocks : 196608
 Total Tags : 491520 Threshold : 12288 Invalid Tags : 196609 Pr0 Tags : 98303 Pr1 Tags : 196608 num_pr0 : 12288
 SAE Count : 0
 Inter-Core Inteference in Data Store : 7245302
Heartbeat CPU 2 instructions: 200000000 cycles: 176377904 heartbeat IPC: 1.1372 cumulative IPC: 1.13393 (Simulation time: 29 hr 57 min 6 sec) 
 Total Blocks : 196608 Invalid Blocks : 0 Valid Blocks : 196608
 Total Tags : 491520 Threshold : 12288 Invalid Tags : 196609 Pr0 Tags : 98303 Pr1 Tags : 196608 num_pr0 : 12288
 SAE Count : 0
 Inter-Core Inteference in Data Store : 7245313
Heartbeat CPU 4 instructions: 200000000 cycles: 176379133 heartbeat IPC: 1.13722 cumulative IPC: 1.13392 (Simulation time: 29 hr 57 min 6 sec) 
 Total Blocks : 196608 Invalid Blocks : 0 Valid Blocks : 196608
 Total Tags : 491520 Threshold : 12288 Invalid Tags : 196608 Pr0 Tags : 98304 Pr1 Tags : 196608 num_pr0 : 12288
 SAE Count : 0
 Inter-Core Inteference in Data Store : 7245377

Warmup complete CPU 0 instructions: 200002006 cycles: 176379135 (Simulation time: 29 hr 57 min 6 sec) 
Warmup complete CPU 1 instructions: 200003051 cycles: 176379135 (Simulation time: 29 hr 57 min 6 sec) 
Warmup complete CPU 2 instructions: 200001556 cycles: 176379135 (Simulation time: 29 hr 57 min 6 sec) 
Warmup complete CPU 3 instructions: 200004687 cycles: 176379135 (Simulation time: 29 hr 57 min 6 sec) 
Warmup complete CPU 4 instructions: 200000001 cycles: 176379135 (Simulation time: 29 hr 57 min 6 sec) 
Warmup complete CPU 5 instructions: 200003897 cycles: 176379134 (Simulation time: 29 hr 57 min 6 sec) 
Warmup complete CPU 6 instructions: 200002452 cycles: 176379134 (Simulation time: 29 hr 57 min 6 sec) 
Warmup complete CPU 7 instructions: 200003317 cycles: 176379134 (Simulation time: 29 hr 57 min 6 sec) 

Heartbeat CPU 3 instructions: 210000003 cycles: 225639173 heartbeat IPC: 0.202987 cumulative IPC: 0.202909 (Simulation time: 30 hr 33 min 7 sec) 
 Total Blocks : 196608 Invalid Blocks : 0 Valid Blocks : 196608
 Total Tags : 491520 Threshold : 12288 Invalid Tags : 196608 Pr0 Tags : 98304 Pr1 Tags : 196608 num_pr0 : 12288
 SAE Count : 0
 Inter-Core Inteference in Data Store : 425180
Heartbeat CPU 7 instructions: 210000003 cycles: 225643760 heartbeat IPC: 0.202973 cumulative IPC: 0.202918 (Simulation time: 30 hr 33 min 7 sec) 
 Total Blocks : 196608 Invalid Blocks : 0 Valid Blocks : 196608
 Total Tags : 491520 Threshold : 12288 Invalid Tags : 196610 Pr0 Tags : 98302 Pr1 Tags : 196608 num_pr0 : 12288
 SAE Count : 0
 Inter-Core Inteference in Data Store : 425210
Heartbeat CPU 5 instructions: 210000003 cycles: 225702318 heartbeat IPC: 0.20273 cumulative IPC: 0.202665 (Simulation time: 30 hr 33 min 9 sec) 
 Total Blocks : 196608 Invalid Blocks : 0 Valid Blocks : 196608
 Total Tags : 491520 Threshold : 12288 Invalid Tags : 196608 Pr0 Tags : 98304 Pr1 Tags : 196608 num_pr0 : 12288
 SAE Count : 0
 Inter-Core Inteference in Data Store : 425661
Heartbeat CPU 0 instructions: 210000003 cycles: 225707069 heartbeat IPC: 0.202718 cumulative IPC: 0.202684 (Simulation time: 30 hr 33 min 9 sec) 
 Total Blocks : 196608 Invalid Blocks : 0 Valid Blocks : 196608
 Total Tags : 491520 Threshold : 12288 Invalid Tags : 196608 Pr0 Tags : 98304 Pr1 Tags : 196608 num_pr0 : 12288
 SAE Count : 0
 Inter-Core Inteference in Data Store : 425689
Heartbeat CPU 4 instructions: 210000003 cycles: 225795406 heartbeat IPC: 0.202363 cumulative IPC: 0.202363 (Simulation time: 30 hr 33 min 13 sec) 
 Total Blocks : 196608 Invalid Blocks : 0 Valid Blocks : 196608
 Total Tags : 491520 Threshold : 12288 Invalid Tags : 196610 Pr0 Tags : 98302 Pr1 Tags : 196608 num_pr0 : 12288
 SAE Count : 0
 Inter-Core Inteference in Data Store : 426447
Heartbeat CPU 2 instructions: 210000003 cycles: 225796574 heartbeat IPC: 0.202353 cumulative IPC: 0.202326 (Simulation time: 30 hr 33 min 13 sec) 
 Total Blocks : 196608 Invalid Blocks : 0 Valid Blocks : 196608
 Total Tags : 491520 Threshold : 12288 Invalid Tags : 196608 Pr0 Tags : 98304 Pr1 Tags : 196608 num_pr0 : 12288
 SAE Count : 0
 Inter-Core Inteference in Data Store : 426458
Heartbeat CPU 1 instructions: 210000003 cycles: 225804470 heartbeat IPC: 0.202314 cumulative IPC: 0.202264 (Simulation time: 30 hr 33 min 13 sec) 
 Total Blocks : 196608 Invalid Blocks : 0 Valid Blocks : 196608
 Total Tags : 491520 Threshold : 12288 Invalid Tags : 196608 Pr0 Tags : 98304 Pr1 Tags : 196608 num_pr0 : 12288
 SAE Count : 0
 Inter-Core Inteference in Data Store : 426526
Heartbeat CPU 6 instructions: 210000003 cycles: 225806200 heartbeat IPC: 0.202309 cumulative IPC: 0.202269 (Simulation time: 30 hr 33 min 13 sec) 
 Total Blocks : 196608 Invalid Blocks : 0 Valid Blocks : 196608
 Total Tags : 491520 Threshold : 12288 Invalid Tags : 196610 Pr0 Tags : 98302 Pr1 Tags : 196608 num_pr0 : 12288
 SAE Count : 0
 Inter-Core Inteference in Data Store : 426542
Heartbeat CPU 3 instructions: 220000000 cycles: 274731507 heartbeat IPC: 0.203698 cumulative IPC: 0.203303 (Simulation time: 31 hr 9 min 0 sec) 
 Total Blocks : 196608 Invalid Blocks : 0 Valid Blocks : 196608
 Total Tags : 491520 Threshold : 12288 Invalid Tags : 196608 Pr0 Tags : 98304 Pr1 Tags : 196608 num_pr0 : 12288
 SAE Count : 0
 Inter-Core Inteference in Data Store : 848281
Heartbeat CPU 7 instructions: 220000000 cycles: 274791623 heartbeat IPC: 0.203468 cumulative IPC: 0.203193 (Simulation time: 31 hr 9 min 2 sec) 
 Total Blocks : 196608 Invalid Blocks : 0 Valid Blocks : 196608
 Total Tags : 491520 Threshold : 12288 Invalid Tags : 196608 Pr0 Tags : 98304 Pr1 Tags : 196608 num_pr0 : 12288
 SAE Count : 0
 Inter-Core Inteference in Data Store : 848923
Heartbeat CPU 5 instructions: 220000000 cycles: 274899054 heartbeat IPC: 0.203265 cumulative IPC: 0.202965 (Simulation time: 31 hr 9 min 6 sec) 
 Total Blocks : 196608 Invalid Blocks : 0 Valid Blocks : 196608
 Total Tags : 491520 Threshold : 12288 Invalid Tags : 196608 Pr0 Tags : 98304 Pr1 Tags : 196608 num_pr0 : 12288
 SAE Count : 0
 Inter-Core Inteference in Data Store : 850140
Heartbeat CPU 0 instructions: 220000000 cycles: 274919792 heartbeat IPC: 0.203199 cumulative IPC: 0.202942 (Simulation time: 31 hr 9 min 7 sec) 
 Total Blocks : 196608 Invalid Blocks : 0 Valid Blocks : 196608
 Total Tags : 491520 Threshold : 12288 Invalid Tags : 196609 Pr0 Tags : 98303 Pr1 Tags : 196608 num_pr0 : 12288
 SAE Count : 0
 Inter-Core Inteference in Data Store : 850341
Heartbeat CPU 6 instructions: 220000000 cycles: 274932875 heartbeat IPC: 0.203555 cumulative IPC: 0.20291 (Simulation time: 31 hr 9 min 7 sec) 
 Total Blocks : 196608 Invalid Blocks : 0 Valid Blocks : 196608
 Total Tags : 491520 Threshold : 12288 Invalid Tags : 196608 Pr0 Tags : 98304 Pr1 Tags : 196608 num_pr0 : 12288
 SAE Count : 0
 Inter-Core Inteference in Data Store : 850458
Heartbeat CPU 1 instructions: 220000000 cycles: 274975854 heartbeat IPC: 0.20337 cumulative IPC: 0.202816 (Simulation time: 31 hr 9 min 9 sec) 
 Total Blocks : 196608 Invalid Blocks : 0 Valid Blocks : 196608
 Total Tags : 491520 Threshold : 12288 Invalid Tags : 196608 Pr0 Tags : 98304 Pr1 Tags : 196608 num_pr0 : 12288
 SAE Count : 0
 Inter-Core Inteference in Data Store : 850839
Heartbeat CPU 2 instructions: 220000000 cycles: 275015237 heartbeat IPC: 0.203175 cumulative IPC: 0.20275 (Simulation time: 31 hr 9 min 11 sec) 
 Total Blocks : 196608 Invalid Blocks : 0 Valid Blocks : 196608
 Total Tags : 491520 Threshold : 12288 Invalid Tags : 196609 Pr0 Tags : 98303 Pr1 Tags : 196608 num_pr0 : 12288
 SAE Count : 0
 Inter-Core Inteference in Data Store : 851143
Heartbeat CPU 4 instructions: 220000000 cycles: 275029742 heartbeat IPC: 0.20311 cumulative IPC: 0.202736 (Simulation time: 31 hr 9 min 11 sec) 
 Total Blocks : 196608 Invalid Blocks : 0 Valid Blocks : 196608
 Total Tags : 491520 Threshold : 12288 Invalid Tags : 196608 Pr0 Tags : 98304 Pr1 Tags : 196608 num_pr0 : 12288
 SAE Count : 0
 Inter-Core Inteference in Data Store : 851266
Heartbeat CPU 3 instructions: 230000001 cycles: 322882839 heartbeat IPC: 0.207679 cumulative IPC: 0.204741 (Simulation time: 31 hr 45 min 10 sec) 
 Total Blocks : 196608 Invalid Blocks : 0 Valid Blocks : 196608
 Total Tags : 491520 Threshold : 12288 Invalid Tags : 196609 Pr0 Tags : 98303 Pr1 Tags : 196608 num_pr0 : 12288
 SAE Count : 0
 Inter-Core Inteference in Data Store : 1256861
Heartbeat CPU 7 instructions: 230000001 cycles: 322988489 heartbeat IPC: 0.207482 cumulative IPC: 0.204603 (Simulation time: 31 hr 45 min 15 sec) 
 Total Blocks : 196608 Invalid Blocks : 0 Valid Blocks : 196608
 Total Tags : 491520 Threshold : 12288 Invalid Tags : 196609 Pr0 Tags : 98303 Pr1 Tags : 196608 num_pr0 : 12288
 SAE Count : 0
 Inter-Core Inteference in Data Store : 1257611
Heartbeat CPU 5 instructions: 230000001 cycles: 323249013 heartbeat IPC: 0.206825 cumulative IPC: 0.204236 (Simulation time: 31 hr 45 min 29 sec) 
 Total Blocks : 196608 Invalid Blocks : 0 Valid Blocks : 196608
 Total Tags : 491520 Threshold : 12288 Invalid Tags : 196609 Pr0 Tags : 98303 Pr1 Tags : 196608 num_pr0 : 12288
 SAE Count : 0
 Inter-Core Inteference in Data Store : 1259730
Heartbeat CPU 0 instructions: 230000001 cycles: 323262078 heartbeat IPC: 0.206858 cumulative IPC: 0.204231 (Simulation time: 31 hr 45 min 30 sec) 
 Total Blocks : 196608 Invalid Blocks : 0 Valid Blocks : 196608
 Total Tags : 491520 Threshold : 12288 Invalid Tags : 196608 Pr0 Tags : 98304 Pr1 Tags : 196608 num_pr0 : 12288
 SAE Count : 0
 Inter-Core Inteference in Data Store : 1259827
Heartbeat CPU 6 instructions: 230000001 cycles: 323271708 heartbeat IPC: 0.206873 cumulative IPC: 0.204214 (Simulation time: 31 hr 45 min 30 sec) 
 Total Blocks : 196608 Invalid Blocks : 0 Valid Blocks : 196608
 Total Tags : 491520 Threshold : 12288 Invalid Tags : 196608 Pr0 Tags : 98304 Pr1 Tags : 196608 num_pr0 : 12288
 SAE Count : 0
 Inter-Core Inteference in Data Store : 1259892
Heartbeat CPU 2 instructions: 230000001 cycles: 323345359 heartbeat IPC: 0.20691 cumulative IPC: 0.204118 (Simulation time: 31 hr 45 min 35 sec) 
 Total Blocks : 196608 Invalid Blocks : 0 Valid Blocks : 196608
 Total Tags : 491520 Threshold : 12288 Invalid Tags : 196608 Pr0 Tags : 98304 Pr1 Tags : 196608 num_pr0 : 12288
 SAE Count : 0
 Inter-Core Inteference in Data Store : 1260484
Heartbeat CPU 1 instructions: 230000001 cycles: 323347766 heartbeat IPC: 0.206732 cumulative IPC: 0.204104 (Simulation time: 31 hr 45 min 35 sec) 
 Total Blocks : 196608 Invalid Blocks : 0 Valid Blocks : 196608
 Total Tags : 491520 Threshold : 12288 Invalid Tags : 196609 Pr0 Tags : 98303 Pr1 Tags : 196608 num_pr0 : 12288
 SAE Count : 0
 Inter-Core Inteference in Data Store : 1260503
Heartbeat CPU 4 instructions: 230000001 cycles: 323349501 heartbeat IPC: 0.206955 cumulative IPC: 0.204123 (Simulation time: 31 hr 45 min 35 sec) 
 Total Blocks : 196608 Invalid Blocks : 0 Valid Blocks : 196608
 Total Tags : 491520 Threshold : 12288 Invalid Tags : 196608 Pr0 Tags : 98304 Pr1 Tags : 196608 num_pr0 : 12288
 SAE Count : 0
 Inter-Core Inteference in Data Store : 1260521
Heartbeat CPU 3 instructions: 240000000 cycles: 371656300 heartbeat IPC: 0.20503 cumulative IPC: 0.204813 (Simulation time: 32 hr 23 min 50 sec) 
 Total Blocks : 196608 Invalid Blocks : 0 Valid Blocks : 196608
 Total Tags : 491520 Threshold : 12288 Invalid Tags : 196609 Pr0 Tags : 98303 Pr1 Tags : 196608 num_pr0 : 12288
 SAE Count : 0
 Inter-Core Inteference in Data Store : 1681658
Heartbeat CPU 7 instructions: 240000000 cycles: 371720716 heartbeat IPC: 0.205203 cumulative IPC: 0.204753 (Simulation time: 32 hr 23 min 58 sec) 
 Total Blocks : 196608 Invalid Blocks : 0 Valid Blocks : 196608
 Total Tags : 491520 Threshold : 12288 Invalid Tags : 196609 Pr0 Tags : 98303 Pr1 Tags : 196608 num_pr0 : 12288
 SAE Count : 0
 Inter-Core Inteference in Data Store : 1682107
Heartbeat CPU 5 instructions: 240000000 cycles: 372142668 heartbeat IPC: 0.204526 cumulative IPC: 0.204308 (Simulation time: 32 hr 24 min 59 sec) 
 Total Blocks : 196608 Invalid Blocks : 0 Valid Blocks : 196608
 Total Tags : 491520 Threshold : 12288 Invalid Tags : 196608 Pr0 Tags : 98304 Pr1 Tags : 196608 num_pr0 : 12288
 SAE Count : 0
 Inter-Core Inteference in Data Store : 1684815
Heartbeat CPU 6 instructions: 240000000 cycles: 372292199 heartbeat IPC: 0.203996 cumulative IPC: 0.20416 (Simulation time: 32 hr 25 min 20 sec) 
 Total Blocks : 196608 Invalid Blocks : 0 Valid Blocks : 196608
 Total Tags : 491520 Threshold : 12288 Invalid Tags : 196608 Pr0 Tags : 98304 Pr1 Tags : 196608 num_pr0 : 12288
 SAE Count : 0
 Inter-Core Inteference in Data Store : 1686101
Heartbeat CPU 0 instructions: 240000000 cycles: 372300803 heartbeat IPC: 0.20392 cumulative IPC: 0.204153 (Simulation time: 32 hr 25 min 21 sec) 
 Total Blocks : 196608 Invalid Blocks : 0 Valid Blocks : 196608
 Total Tags : 491520 Threshold : 12288 Invalid Tags : 196609 Pr0 Tags : 98303 Pr1 Tags : 196608 num_pr0 : 12288
 SAE Count : 0
 Inter-Core Inteference in Data Store : 1686170
Heartbeat CPU 4 instructions: 240000000 cycles: 372339802 heartbeat IPC: 0.204122 cumulative IPC: 0.204123 (Simulation time: 32 hr 25 min 26 sec) 
 Total Blocks : 196608 Invalid Blocks : 0 Valid Blocks : 196608
 Total Tags : 491520 Threshold : 12288 Invalid Tags : 196608 Pr0 Tags : 98304 Pr1 Tags : 196608 num_pr0 : 12288
 SAE Count : 0
 Inter-Core Inteference in Data Store : 1686545
Heartbeat CPU 1 instructions: 240000000 cycles: 372373688 heartbeat IPC: 0.203974 cumulative IPC: 0.204072 (Simulation time: 32 hr 25 min 29 sec) 
 Total Blocks : 196608 Invalid Blocks : 0 Valid Blocks : 196608
 Total Tags : 491520 Threshold : 12288 Invalid Tags : 196611 Pr0 Tags : 98301 Pr1 Tags : 196608 num_pr0 : 12286
 SAE Count : 0
 Inter-Core Inteference in Data Store : 1686856
Heartbeat CPU 2 instructions: 240000000 cycles: 372388613 heartbeat IPC: 0.203902 cumulative IPC: 0.204064 (Simulation time: 32 hr 25 min 30 sec) 
 Total Blocks : 196608 Invalid Blocks : 0 Valid Blocks : 196608
 Total Tags : 491520 Threshold : 12288 Invalid Tags : 196609 Pr0 Tags : 98303 Pr1 Tags : 196608 num_pr0 : 12287
 SAE Count : 0
 Inter-Core Inteference in Data Store : 1687007
Heartbeat CPU 3 instructions: 250000003 cycles: 420257614 heartbeat IPC: 0.205756 cumulative IPC: 0.205001 (Simulation time: 50 hr 27 min 13 sec) 
 Total Blocks : 196608 Invalid Blocks : 0 Valid Blocks : 196608
 Total Tags : 491520 Threshold : 12288 Invalid Tags : 196608 Pr0 Tags : 98304 Pr1 Tags : 196608 num_pr0 : 12288
 SAE Count : 0
 Inter-Core Inteference in Data Store : 2101902
Heartbeat CPU 7 instructions: 250000003 cycles: 420361409 heartbeat IPC: 0.205589 cumulative IPC: 0.204919 (Simulation time: 50 hr 28 min 3 sec) 
 Total Blocks : 196608 Invalid Blocks : 0 Valid Blocks : 196608
 Total Tags : 491520 Threshold : 12288 Invalid Tags : 196611 Pr0 Tags : 98301 Pr1 Tags : 196608 num_pr0 : 12288
 SAE Count : 0
 Inter-Core Inteference in Data Store : 2102660
Heartbeat CPU 5 instructions: 250000003 cycles: 420743099 heartbeat IPC: 0.20576 cumulative IPC: 0.204597 (Simulation time: 50 hr 31 min 50 sec) 
 Total Blocks : 196608 Invalid Blocks : 0 Valid Blocks : 196608
 Total Tags : 491520 Threshold : 12288 Invalid Tags : 196608 Pr0 Tags : 98304 Pr1 Tags : 196608 num_pr0 : 12288
 SAE Count : 0
 Inter-Core Inteference in Data Store : 2106391
Heartbeat CPU 0 instructions: 250000003 cycles: 421082245 heartbeat IPC: 0.204996 cumulative IPC: 0.204321 (Simulation time: 50 hr 35 min 0 sec) 
 Total Blocks : 196608 Invalid Blocks : 0 Valid Blocks : 196608
 Total Tags : 491520 Threshold : 12288 Invalid Tags : 196608 Pr0 Tags : 98304 Pr1 Tags : 196608 num_pr0 : 12288
 SAE Count : 0
 Inter-Core Inteference in Data Store : 2109720
Heartbeat CPU 4 instructions: 250000003 cycles: 421121912 heartbeat IPC: 0.204993 cumulative IPC: 0.204296 (Simulation time: 50 hr 35 min 21 sec) 
 Total Blocks : 196608 Invalid Blocks : 0 Valid Blocks : 196608
 Total Tags : 491520 Threshold : 12288 Invalid Tags : 196610 Pr0 Tags : 98302 Pr1 Tags : 196608 num_pr0 : 12288
 SAE Count : 0
 Inter-Core Inteference in Data Store : 2110040
Heartbeat CPU 6 instructions: 250000003 cycles: 421136252 heartbeat IPC: 0.204733 cumulative IPC: 0.204274 (Simulation time: 50 hr 35 min 27 sec) 
 Total Blocks : 196608 Invalid Blocks : 0 Valid Blocks : 196608
 Total Tags : 491520 Threshold : 12288 Invalid Tags : 196608 Pr0 Tags : 98304 Pr1 Tags : 196608 num_pr0 : 12288
 SAE Count : 0
 Inter-Core Inteference in Data Store : 2110155
[...]
LLC4 LOAD      ACCESS: 230707  HIT: 63198  MISS: 167509  HIT %: 27.3932  MISS %: 72.6068  AVERAGE MISS PENALTY: 277.592
LLC4 RFO       ACCESS: 23146  HIT: 11501  MISS: 11645  HIT %: 49.6889  MISS %: 50.3111  AVERAGE MISS PENALTY: 270.282
LLC4 PREFETCH  ACCESS: 534302  HIT: 83128  MISS: 451174  HIT %: 15.5582  MISS %: 84.4418  AVERAGE MISS PENALTY: 279.133
LLC4 WRITEBACK ACCESS: 180430  HIT: 74511  MISS: 105919  HIT %: 41.2963  MISS %: 58.7037  AVERAGE MISS PENALTY: 0
LLC4 PREFETCH  REQUESTED:     0  ISSUED:     0  USEFUL: 19079  USELESS: 240319
 USEFUL LOAD PREFETCHES:      19079 PREFETCH ISSUED TO LOWER LEVEL:    3619143  ACCURACY: 0.527169
 TIMELY PREFETCHES:      19079 LATE PREFETCHES: 0 DROPPED PREFETCHES: 0
LLC4 AVERAGE MISS LATENCY: 238.485 cycles

LLC4 Set Associative Eviction Count : 0
LLC4 Priority 0 entries : 12288
LLC4 Inter-Core Interference : 1063557
LLC5 TOTAL     ACCESS: 972250  HIT: 234529  MISS: 737721  HIT %: 24.1223  MISS %: 75.8777  AVERAGE MISS PENALTY: 238.986
LLC5 LOAD      ACCESS: 225427  HIT: 58967  MISS: 166460  HIT %: 26.1579  MISS %: 73.8421  AVERAGE MISS PENALTY: 277.608
LLC5 RFO       ACCESS: 23020  HIT: 11405  MISS: 11615  HIT %: 49.5439  MISS %: 50.4561  AVERAGE MISS PENALTY: 269.951
LLC5 PREFETCH  ACCESS: 544244  HIT: 89706  MISS: 454538  HIT %: 16.4827  MISS %: 83.5173  AVERAGE MISS PENALTY: 279.314
LLC5 WRITEBACK ACCESS: 179559  HIT: 74451  MISS: 105108  HIT %: 41.4633  MISS %: 58.5367  AVERAGE MISS PENALTY: 0
LLC5 PREFETCH  REQUESTED:     0  ISSUED:     0  USEFUL: 18524  USELESS: 246765
 USEFUL LOAD PREFETCHES:      18524 PREFETCH ISSUED TO LOWER LEVEL:    3640758  ACCURACY: 0.508795
 TIMELY PREFETCHES:      18524 LATE PREFETCHES: 0 DROPPED PREFETCHES: 0
LLC5 AVERAGE MISS LATENCY: 238.986 cycles

LLC5 Set Associative Eviction Count : 0
LLC5 Priority 0 entries : 12288
LLC5 Inter-Core Interference : 1059443
LLC6 TOTAL     ACCESS: 968827  HIT: 232087  MISS: 736740  HIT %: 23.9555  MISS %: 76.0445  AVERAGE MISS PENALTY: 244.366
LLC6 LOAD      ACCESS: 228599  HIT: 60624  MISS: 167975  HIT %: 26.5198  MISS %: 73.4802  AVERAGE MISS PENALTY: 279.314
LLC6 RFO       ACCESS: 22779  HIT: 11305  MISS: 11474  HIT %: 49.629  MISS %: 50.371  AVERAGE MISS PENALTY: 278.816
LLC6 PREFETCH  ACCESS: 536924  HIT: 85387  MISS: 451537  HIT %: 15.903  MISS %: 84.097  AVERAGE MISS PENALTY: 287.722
LLC6 WRITEBACK ACCESS: 180525  HIT: 74771  MISS: 105754  HIT %: 41.4186  MISS %: 58.5814  AVERAGE MISS PENALTY: 0
LLC6 PREFETCH  REQUESTED:     0  ISSUED:     0  USEFUL: 18892  USELESS: 242361
 USEFUL LOAD PREFETCHES:      18892 PREFETCH ISSUED TO LOWER LEVEL:    3621161  ACCURACY: 0.521711
 TIMELY PREFETCHES:      18892 LATE PREFETCHES: 0 DROPPED PREFETCHES: 0
LLC6 AVERAGE MISS LATENCY: 244.366 cycles

LLC6 Set Associative Eviction Count : 0
LLC6 Priority 0 entries : 12288
LLC6 Inter-Core Interference : 1060886
LLC7 TOTAL     ACCESS: 964391  HIT: 227374  MISS: 737017  HIT %: 23.577  MISS %: 76.423  AVERAGE MISS PENALTY: 244.216
LLC7 LOAD      ACCESS: 225069  HIT: 57604  MISS: 167465  HIT %: 25.5939  MISS %: 74.4061  AVERAGE MISS PENALTY: 279.799
LLC7 RFO       ACCESS: 22893  HIT: 11351  MISS: 11542  HIT %: 49.5828  MISS %: 50.4172  AVERAGE MISS PENALTY: 276.871
LLC7 PREFETCH  ACCESS: 536143  HIT: 84222  MISS: 451921  HIT %: 15.7089  MISS %: 84.2911  AVERAGE MISS PENALTY: 287.527
LLC7 WRITEBACK ACCESS: 180286  HIT: 74197  MISS: 106089  HIT %: 41.1552  MISS %: 58.8448  AVERAGE MISS PENALTY: 0
LLC7 PREFETCH  REQUESTED:     0  ISSUED:     0  USEFUL: 18615  USELESS: 240949
 USEFUL LOAD PREFETCHES:      18615 PREFETCH ISSUED TO LOWER LEVEL:    3621725  ACCURACY: 0.513982
 TIMELY PREFETCHES:      18615 LATE PREFETCHES: 0 DROPPED PREFETCHES: 0
LLC7 AVERAGE MISS LATENCY: 244.216 cycles

LLC7 Set Associative Eviction Count : 0
LLC7 Priority 0 entries : 12288
LLC7 Inter-Core Interference : 1058470
ROI Average ROB Stall Cycles:	13.0535
ROI Total ROB Stalls Cycles:	922415083
ROI TOTAL ROB counter      :	70664402
ROI Average Load ROB Stall Cycles:	34.3187
ROI Total Load ROB Stalls Cycle  :	310129422
ROI Total Load ROB stalls Counter:	9036735
Major fault: 0 Minor fault: 48112

CPU 7 cumulative IPC: 0.204295 instructions: 200000000 cycles: 978974119
ITLB TOTAL     ACCESS: 33024999  HIT: 32705964  MISS: 319035  HIT %: 99.034  MISS %: 0.966041  AVERAGE MISS PENALTY: 10.9601
ITLB LOAD      ACCESS: 33024999  HIT: 32705964  MISS: 319035  HIT %: 99.034  MISS %: 0.966041  AVERAGE MISS PENALTY: 10.9601
ITLB RFO       ACCESS:     0  HIT:     0  MISS:     0  HIT %:     0  MISS %:     0  AVERAGE MISS PENALTY: 0
ITLB PREFETCH  ACCESS:     0  HIT:     0  MISS:     0  HIT %:     0  MISS %:     0  AVERAGE MISS PENALTY: 0
ITLB WRITEBACK ACCESS:     0  HIT:     0  MISS:     0  HIT %:     0  MISS %:     0  AVERAGE MISS PENALTY: 0
ITLB PREFETCH  REQUESTED:     0  ISSUED:     0  USEFUL:     0  USELESS:     0
 USEFUL LOAD PREFETCHES:          0 PREFETCH ISSUED TO LOWER LEVEL:          0  ACCURACY: -nan
 TIMELY PREFETCHES:          0 LATE PREFETCHES: 0 DROPPED PREFETCHES: 0
ITLB AVERAGE MISS LATENCY: 10.9601 cycles

ITLB Set Associative Eviction Count : 0
ITLB Priority 0 entries : 0
ITLB Inter-Core Interference : 0
DTLB TOTAL     ACCESS: 80587450  HIT: 76762901  MISS: 3824549  HIT %: 95.2542  MISS %: 4.74584  AVERAGE MISS PENALTY: 35.6153
DTLB LOAD      ACCESS: 49530723  HIT: 46134007  MISS: 3396716  HIT %: 93.1422  MISS %: 6.8578  AVERAGE MISS PENALTY: 33.0838
DTLB RFO       ACCESS: 31056727  HIT: 30628894  MISS: 427833  HIT %: 98.6224  MISS %: 1.37759  AVERAGE MISS PENALTY: 55.7133
DTLB PREFETCH  ACCESS:     0  HIT:     0  MISS:     0  HIT %:     0  MISS %:     0  AVERAGE MISS PENALTY: 0
DTLB WRITEBACK ACCESS:     0  HIT:     0  MISS:     0  HIT %:     0  MISS %:     0  AVERAGE MISS PENALTY: 0
DTLB PREFETCH  REQUESTED:     0  ISSUED:     0  USEFUL:     0  USELESS:     0
 USEFUL LOAD PREFETCHES:          0 PREFETCH ISSUED TO LOWER LEVEL:          0  ACCURACY: -nan
 TIMELY PREFETCHES:          0 LATE PREFETCHES: 0 DROPPED PREFETCHES: 0
DTLB AVERAGE MISS LATENCY: 35.6153 cycles

DTLB Set Associative Eviction Count : 0
DTLB Priority 0 entries : 0
DTLB Inter-Core Interference : 0
STLB TOTAL     ACCESS: 4143584  HIT: 3285689  MISS: 857895  HIT %: 79.2958  MISS %: 20.7042  AVERAGE MISS PENALTY: 100
STLB LOAD      ACCESS: 3715751  HIT: 3011628  MISS: 704123  HIT %: 81.0503  MISS %: 18.9497  AVERAGE MISS PENALTY: 100
STLB RFO       ACCESS: 427833  HIT: 274061  MISS: 153772  HIT %: 64.0579  MISS %: 35.9421  AVERAGE MISS PENALTY: 100
STLB PREFETCH  ACCESS:     0  HIT:     0  MISS:     0  HIT %:     0  MISS %:     0  AVERAGE MISS PENALTY: 0
STLB WRITEBACK ACCESS:     0  HIT:     0  MISS:     0  HIT %:     0  MISS %:     0  AVERAGE MISS PENALTY: 0
STLB PREFETCH  REQUESTED:     0  ISSUED:     0  USEFUL:     0  USELESS:     0
 USEFUL LOAD PREFETCHES:          0 PREFETCH ISSUED TO LOWER LEVEL:          0  ACCURACY: -nan
 TIMELY PREFETCHES:          0 LATE PREFETCHES: 0 DROPPED PREFETCHES: 0
STLB AVERAGE MISS LATENCY: 100 cycles

STLB Set Associative Eviction Count : 0
STLB Priority 0 entries : 0
STLB Inter-Core Interference : 0
L1D TOTAL     ACCESS: 115351859  HIT: 108284373  MISS: 7067486  HIT %: 93.8731  MISS %: 6.12689  AVERAGE MISS PENALTY: 7.82623e+06
L1D LOAD      ACCESS: 51743223  HIT: 48784308  MISS: 2958915  HIT %: 94.2815  MISS %: 5.71846  AVERAGE MISS PENALTY: 1.47989e+07
L1D RFO       ACCESS: 36692368  HIT: 36379860  MISS: 312508  HIT %: 99.1483  MISS %: 0.851698  AVERAGE MISS PENALTY: 3.68705e+07
L1D PREFETCH  ACCESS: 26916268  HIT: 23120205  MISS: 3796063  HIT %: 85.8968  MISS %: 14.1032  AVERAGE MISS PENALTY: 192.764
L1D WRITEBACK ACCESS:     0  HIT:     0  MISS:     0  HIT %:     0  MISS %:     0  AVERAGE MISS PENALTY: 0
L1D PREFETCH  REQUESTED: 28055469  ISSUED: 27891220  USEFUL: 635759  USELESS: 3160230
 USEFUL LOAD PREFETCHES:     635759 PREFETCH ISSUED TO LOWER LEVEL:    4663004  ACCURACY: 13.6341
 TIMELY PREFETCHES:     635759 LATE PREFETCHES: 549321 DROPPED PREFETCHES: 164249
L1D AVERAGE MISS LATENCY: 1.6305e+06 cycles

L1D Set Associative Eviction Count : 0
L1D Priority 0 entries : 0
L1D Inter-Core Interference : 0
L1I TOTAL     ACCESS: 43326389  HIT: 43248884  MISS: 77505  HIT %: 99.8211  MISS %: 0.178886  AVERAGE MISS PENALTY: 53.2122
L1I LOAD      ACCESS: 43326389  HIT: 43248884  MISS: 77505  HIT %: 99.8211  MISS %: 0.178886  AVERAGE MISS PENALTY: 53.2122
L1I RFO       ACCESS:     0  HIT:     0  MISS:     0  HIT %:     0  MISS %:     0  AVERAGE MISS PENALTY: 0
L1I PREFETCH  ACCESS:     0  HIT:     0  MISS:     0  HIT %:     0  MISS %:     0  AVERAGE MISS PENALTY: 0
L1I WRITEBACK ACCESS:     0  HIT:     0  MISS:     0  HIT %:     0  MISS %:     0  AVERAGE MISS PENALTY: 0
L1I PREFETCH  REQUESTED:     0  ISSUED:     0  USEFUL:     0  USELESS:     0
 USEFUL LOAD PREFETCHES:          0 PREFETCH ISSUED TO LOWER LEVEL:          0  ACCURACY: -nan
 TIMELY PREFETCHES:          0 LATE PREFETCHES: 0 DROPPED PREFETCHES: 0
L1I AVERAGE MISS LATENCY: 53.2122 cycles

L1I Set Associative Eviction Count : 0
L1I Priority 0 entries : 0
L1I Inter-Core Interference : 0
L2C TOTAL     ACCESS: 11921790  HIT: 5751954  MISS: 6169836  HIT %: 48.2474  MISS %: 51.7526  AVERAGE MISS PENALTY: 8.03972e+06
L2C LOAD      ACCESS: 3031732  HIT: 1192414  MISS: 1839318  HIT %: 39.3311  MISS %: 60.6689  AVERAGE MISS PENALTY: 2.56779e+07
L2C RFO       ACCESS: 295131  HIT: 103559  MISS: 191572  HIT %: 35.0892  MISS %: 64.9108  AVERAGE MISS PENALTY: 1.23856e+07
L2C PREFETCH  ACCESS: 6671468  HIT: 2538775  MISS: 4132693  HIT %: 38.0542  MISS %: 61.9458  AVERAGE MISS PENALTY: 282.088
L2C WRITEBACK ACCESS: 1923459  HIT: 1917206  MISS:  6253  HIT %: 99.6749  MISS %: 0.325091  AVERAGE MISS PENALTY: 0
L2C PREFETCH  REQUESTED: 4873244  ISSUED: 4804420  USEFUL: 356771  USELESS: 3774532
 USEFUL LOAD PREFETCHES:     356771 PREFETCH ISSUED TO LOWER LEVEL:    4441418  ACCURACY: 8.03282
 TIMELY PREFETCHES:     356771 LATE PREFETCHES: 247160 DROPPED PREFETCHES: 68824
L2C AVERAGE MISS LATENCY: 268.126 cycles

L2C Set Associative Eviction Count : 0
L2C Priority 0 entries : 0
L2C Inter-Core Interference : 0
LLC0 TOTAL     ACCESS: 911089  HIT: 209269  MISS: 701820  HIT %: 22.9691  MISS %: 77.0309  AVERAGE MISS PENALTY: 232.447
LLC0 LOAD      ACCESS: 232030  HIT: 56588  MISS: 175442  HIT %: 24.3882  MISS %: 75.6118  AVERAGE MISS PENALTY: 271.169
LLC0 RFO       ACCESS: 25456  HIT: 12414  MISS: 13042  HIT %: 48.7665  MISS %: 51.2335  AVERAGE MISS PENALTY: 262.132
LLC0 PREFETCH  ACCESS: 476125  HIT: 68612  MISS: 407513  HIT %: 14.4105  MISS %: 85.5895  AVERAGE MISS PENALTY: 275.188
LLC0 WRITEBACK ACCESS: 177478  HIT: 71655  MISS: 105823  HIT %: 40.374  MISS %: 59.626  AVERAGE MISS PENALTY: 0
LLC0 PREFETCH  REQUESTED:     0  ISSUED:     0  USEFUL: 16698  USELESS: 221272
 USEFUL LOAD PREFETCHES:      16698 PREFETCH ISSUED TO LOWER LEVEL:    3262402  ACCURACY: 0.511831
 TIMELY PREFETCHES:      16698 LATE PREFETCHES: 0 DROPPED PREFETCHES: 0
LLC0 AVERAGE MISS LATENCY: 232.447 cycles

LLC0 Set Associative Eviction Count : 0
LLC0 Priority 0 entries : 12288
LLC0 Inter-Core Interference : 1039149
LLC1 TOTAL     ACCESS: 937442  HIT: 215787  MISS: 721655  HIT %: 23.0187  MISS %: 76.9813  AVERAGE MISS PENALTY: 234.836
LLC1 LOAD      ACCESS: 223521  HIT: 54293  MISS: 169228  HIT %: 24.2899  MISS %: 75.7101  AVERAGE MISS PENALTY: 272.917
LLC1 RFO       ACCESS: 23855  HIT: 11847  MISS: 12008  HIT %: 49.6625  MISS %: 50.3375  AVERAGE MISS PENALTY: 267.303
LLC1 PREFETCH  ACCESS: 512043  HIT: 76726  MISS: 435317  HIT %: 14.9843  MISS %: 85.0157  AVERAGE MISS PENALTY: 275.835
LLC1 WRITEBACK ACCESS: 178023  HIT: 72921  MISS: 105102  HIT %: 40.9616  MISS %: 59.0384  AVERAGE MISS PENALTY: 0
LLC1 PREFETCH  REQUESTED:     0  ISSUED:     0  USEFUL: 18105  USELESS: 233462
 USEFUL LOAD PREFETCHES:      18105 PREFETCH ISSUED TO LOWER LEVEL:    3487321  ACCURACY: 0.519166
 TIMELY PREFETCHES:      18105 LATE PREFETCHES: 0 DROPPED PREFETCHES: 0
LLC1 AVERAGE MISS LATENCY: 234.836 cycles

LLC1 Set Associative Eviction Count : 0
LLC1 Priority 0 entries : 12288
LLC1 Inter-Core Interference : 1044687
LLC2 TOTAL     ACCESS: 952644  HIT: 215173  MISS: 737471  HIT %: 22.5869  MISS %: 77.4131  AVERAGE MISS PENALTY: 239.857
LLC2 LOAD      ACCESS: 222173  HIT: 54807  MISS: 167366  HIT %: 24.6686  MISS %: 75.3314  AVERAGE MISS PENALTY: 273.875
LLC2 RFO       ACCESS: 22835  HIT: 11416  MISS: 11419  HIT %: 49.9934  MISS %: 50.0066  AVERAGE MISS PENALTY: 270.853
LLC2 PREFETCH  ACCESS: 528803  HIT: 76191  MISS: 452612  HIT %: 14.4082  MISS %: 85.5918  AVERAGE MISS PENALTY: 282.708
LLC2 WRITEBACK ACCESS: 178833  HIT: 72759  MISS: 106074  HIT %: 40.6854  MISS %: 59.3146  AVERAGE MISS PENALTY: 0
LLC2 PREFETCH  REQUESTED:     0  ISSUED:     0  USEFUL: 18510  USELESS: 238000
 USEFUL LOAD PREFETCHES:      18510 PREFETCH ISSUED TO LOWER LEVEL:    3625909  ACCURACY: 0.510493
 TIMELY PREFETCHES:      18510 LATE PREFETCHES: 0 DROPPED PREFETCHES: 0
LLC2 AVERAGE MISS LATENCY: 239.857 cycles

LLC2 Set Associative Eviction Count : 0
LLC2 Priority 0 entries : 12288
LLC2 Inter-Core Interference : 1054999
LLC3 TOTAL     ACCESS: 954146  HIT: 217432  MISS: 736714  HIT %: 22.7881  MISS %: 77.2119  AVERAGE MISS PENALTY: 241.639
LLC3 LOAD      ACCESS: 220351  HIT: 54099  MISS: 166252  HIT %: 24.5513  MISS %: 75.4487  AVERAGE MISS PENALTY: 275.953
LLC3 RFO       ACCESS: 22893  HIT: 11460  MISS: 11433  HIT %: 50.059  MISS %: 49.941  AVERAGE MISS PENALTY: 272.663
LLC3 PREFETCH  ACCESS: 531548  HIT: 78234  MISS: 453314  HIT %: 14.7181  MISS %: 85.2819  AVERAGE MISS PENALTY: 284.623
LLC3 WRITEBACK ACCESS: 179354  HIT: 73639  MISS: 105715  HIT %: 41.0579  MISS %: 58.9421  AVERAGE MISS PENALTY: 0
LLC3 PREFETCH  REQUESTED:     0  ISSUED:     0  USEFUL: 18381  USELESS: 240156
 USEFUL LOAD PREFETCHES:      18381 PREFETCH ISSUED TO LOWER LEVEL:    3628578  ACCURACY: 0.506562
 TIMELY PREFETCHES:      18381 LATE PREFETCHES: 0 DROPPED PREFETCHES: 0
LLC3 AVERAGE MISS LATENCY: 241.639 cycles

LLC3 Set Associative Eviction Count : 0
LLC3 Priority 0 entries : 12287
LLC3 Inter-Core Interference : 1053919
LLC4 TOTAL     ACCESS: 961274  HIT: 222580  MISS: 738694  HIT %: 23.1547  MISS %: 76.8453  AVERAGE MISS PENALTY: 236.936
LLC4 LOAD      ACCESS: 227428  HIT: 59205  MISS: 168223  HIT %: 26.0324  MISS %: 73.9676  AVERAGE MISS PENALTY: 276.02
LLC4 RFO       ACCESS: 23393  HIT: 11674  MISS: 11719  HIT %: 49.9038  MISS %: 50.0962  AVERAGE MISS PENALTY: 268.623
LLC4 PREFETCH  ACCESS: 530093  HIT: 77727  MISS: 452366  HIT %: 14.6629  MISS %: 85.3371  AVERAGE MISS PENALTY: 277.303
LLC4 WRITEBACK ACCESS: 180360  HIT: 73974  MISS: 106386  HIT %: 41.0146  MISS %: 58.9854  AVERAGE MISS PENALTY: 0
LLC4 PREFETCH  REQUESTED:     0  ISSUED:     0  USEFUL: 19079  USELESS: 240319
 USEFUL LOAD PREFETCHES:      19079 PREFETCH ISSUED TO LOWER LEVEL:    3619143  ACCURACY: 0.527169
 TIMELY PREFETCHES:      19079 LATE PREFETCHES: 0 DROPPED PREFETCHES: 0
LLC4 AVERAGE MISS LATENCY: 236.936 cycles

LLC4 Set Associative Eviction Count : 0
LLC4 Priority 0 entries : 12288
LLC4 Inter-Core Interference : 1063557
LLC5 TOTAL     ACCESS: 963452  HIT: 225211  MISS: 738241  HIT %: 23.3754  MISS %: 76.6246  AVERAGE MISS PENALTY: 237.937
LLC5 LOAD      ACCESS: 223067  HIT: 56454  MISS: 166613  HIT %: 25.3081  MISS %: 74.6919  AVERAGE MISS PENALTY: 276.753
LLC5 RFO       ACCESS: 23422  HIT: 11593  MISS: 11829  HIT %: 49.4962  MISS %: 50.5038  AVERAGE MISS PENALTY: 271.134
LLC5 PREFETCH  ACCESS: 537778  HIT: 83348  MISS: 454430  HIT %: 15.4986  MISS %: 84.5014  AVERAGE MISS PENALTY: 278.012
LLC5 WRITEBACK ACCESS: 179185  HIT: 73816  MISS: 105369  HIT %: 41.1954  MISS %: 58.8046  AVERAGE MISS PENALTY: 0
LLC5 PREFETCH  REQUESTED:     0  ISSUED:     0  USEFUL: 18524  USELESS: 246765
 USEFUL LOAD PREFETCHES:      18524 PREFETCH ISSUED TO LOWER LEVEL:    3640758  ACCURACY: 0.508795
 TIMELY PREFETCHES:      18524 LATE PREFETCHES: 0 DROPPED PREFETCHES: 0
LLC5 AVERAGE MISS LATENCY: 237.937 cycles

LLC5 Set Associative Eviction Count : 0
LLC5 Priority 0 entries : 12288
LLC5 Inter-Core Interference : 1059443
LLC6 TOTAL     ACCESS: 961054  HIT: 221511  MISS: 739543  HIT %: 23.0488  MISS %: 76.9512  AVERAGE MISS PENALTY: 242.79
LLC6 LOAD      ACCESS: 225687  HIT: 56565  MISS: 169122  HIT %: 25.0635  MISS %: 74.9365  AVERAGE MISS PENALTY: 277.015
LLC6 RFO       ACCESS: 23039  HIT: 11441  MISS: 11598  HIT %: 49.6593  MISS %: 50.3407  AVERAGE MISS PENALTY: 272.274
LLC6 PREFETCH  ACCESS: 531860  HIT: 79191  MISS: 452669  HIT %: 14.8894  MISS %: 85.1106  AVERAGE MISS PENALTY: 286.183
LLC6 WRITEBACK ACCESS: 180468  HIT: 74314  MISS: 106154  HIT %: 41.1785  MISS %: 58.8215  AVERAGE MISS PENALTY: 0
LLC6 PREFETCH  REQUESTED:     0  ISSUED:     0  USEFUL: 18892  USELESS: 242361
 USEFUL LOAD PREFETCHES:      18892 PREFETCH ISSUED TO LOWER LEVEL:    3621161  ACCURACY: 0.521711
 TIMELY PREFETCHES:      18892 LATE PREFETCHES: 0 DROPPED PREFETCHES: 0
LLC6 AVERAGE MISS LATENCY: 242.79 cycles

LLC6 Set Associative Eviction Count : 0
LLC6 Priority 0 entries : 12288
LLC6 Inter-Core Interference : 1060886
LLC7 TOTAL     ACCESS: 955921  HIT: 218303  MISS: 737618  HIT %: 22.8369  MISS %: 77.1631  AVERAGE MISS PENALTY: 242.826
LLC7 LOAD      ACCESS: 222235  HIT: 54670  MISS: 167565  HIT %: 24.6001  MISS %: 75.3999  AVERAGE MISS PENALTY: 277.593
LLC7 RFO       ACCESS: 23127  HIT: 11513  MISS: 11614  HIT %: 49.7816  MISS %: 50.2184  AVERAGE MISS PENALTY: 273.376
LLC7 PREFETCH  ACCESS: 530807  HIT: 78591  MISS: 452216  HIT %: 14.8059  MISS %: 85.1941  AVERAGE MISS PENALTY: 286.198
LLC7 WRITEBACK ACCESS: 179752  HIT: 73529  MISS: 106223  HIT %: 40.9058  MISS %: 59.0942  AVERAGE MISS PENALTY: 0
LLC7 PREFETCH  REQUESTED:     0  ISSUED:     0  USEFUL: 18615  USELESS: 240949
 USEFUL LOAD PREFETCHES:      18615 PREFETCH ISSUED TO LOWER LEVEL:    3621725  ACCURACY: 0.513982
 TIMELY PREFETCHES:      18615 LATE PREFETCHES: 0 DROPPED PREFETCHES: 0
LLC7 AVERAGE MISS LATENCY: 242.826 cycles

LLC7 Set Associative Eviction Count : 0
LLC7 Priority 0 entries : 12288
LLC7 Inter-Core Interference : 1058470
ROI Average ROB Stall Cycles:	13.0304
ROI Total ROB Stalls Cycles:	921477374
ROI TOTAL ROB counter      :	70717594
ROI Average Load ROB Stall Cycles:	34.1072
ROI Total Load ROB Stalls Cycle  :	308371157
ROI Total Load ROB stalls Counter:	9041229
Major fault: 0 Minor fault: 48113








Interconnect Stats 
LINK 0 BW : 0LINK 1 BW : 0LINK 2 BW : 0LINK 3 BW : 0LINK 4 BW : 0LINK 5 BW : 0LINK 6 BW : 0LINK 7 BW : 0
DRAM Statistics
 CHANNEL 0
 RQ ROW_BUFFER_HIT: 2843152  ROW_BUFFER_MISS: 17102306
 DBUS_CONGESTED: 14137243
 WQ ROW_BUFFER_HIT: 264049  ROW_BUFFER_MISS: 3481639  FULL:     0

 CHANNEL 1
 RQ ROW_BUFFER_HIT: 2825875  ROW_BUFFER_MISS: 17284308
 DBUS_CONGESTED: 14137243
 WQ ROW_BUFFER_HIT: 252285  ROW_BUFFER_MISS: 3482121  FULL:     0

 AVG_CONGESTED_CYCLE: 6
DRAM PAGES: 2097152
Allocated PAGES: 384895
L2C destructor called
L1D destructor called
L1I destructor called
STLB destructor called
DTLB destructor called
ITLB destructor called
L2C destructor called
L1D destructor called
L1I destructor called
STLB destructor called
DTLB destructor called
ITLB destructor called
L2C destructor called
L1D destructor called
L1I destructor called
STLB destructor called
DTLB destructor called
ITLB destructor called
L2C destructor called
L1D destructor called
L1I destructor called
STLB destructor called
DTLB destructor called
ITLB destructor called
L2C destructor called
L1D destructor called
L1I destructor called
STLB destructor called
DTLB destructor called
ITLB destructor called
L2C destructor called
L1D destructor called
L1I destructor called
STLB destructor called
DTLB destructor called
ITLB destructor called
L2C destructor called
L1D destructor called
L1I destructor called
STLB destructor called
DTLB destructor called
ITLB destructor called
L2C destructor called
L1D destructor called
L1I destructor called
STLB destructor called
DTLB destructor called
ITLB destructor called
