
*** ChampSim Multicore Out-of-Order Simulator ***

Warmup Instructions: 200000000
Simulation Instructions: 200000000
Number of CPUs: 8
threads:1

L1I Configuration:
L1I_SET:64
L1I_WAY:8
L1I_RQ_SIZE:64
L1I_WQ_SIZE:64
L1I_PQ_SIZE:8
L1I_MSHR_SIZE:8

L1D Configuration:
L1D_SET:64
L1D_WAY:12
L1D_RQ_SIZE:64
L1D_WQ_SIZE:64
L1D_PQ_SIZE:8
L1D_MSHR_SIZE:16

L2C Configuration:
L2C_SET:1024
L2C_WAY:8
L2C_RQ_SIZE:32
L2C_WQ_SIZE:32
L2C_PQ_SIZE:16
L2C_MSHR_SIZE:32

LLC Configuration:
LLC_SET:2048
LLC_WAY:12
LLC SLICES:8
LLC_RQ_SIZE:64
LLC_WQ_SIZE:64
LLC_PQ_SIZE:32
LLC_MSHR_SIZE:64

Interconnect OFF
Attacker deprioritize is: OFF
Off-chip DRAM Size: 8192 MB Channels: 2 Width: 64-bit Data Rate: 3200 MT/s
PAGE SIZE in KB: 4.000000 
PAGE SIZE in MB: 0.003906 
PAGE offset in bits: 12 
CEASER-S_LLC:0
MIRAGE : 1
CEASER_LATENCY:3
REMAP : OFF
Partitions : 1
Multi-Step : OFF
BFS : OFF

CPU 0 runs /home/anubhav/spec_2017/620.omnetpp_s-141B.champsimtrace.xz
CPU 1 runs /home/anubhav/spec_2017/620.omnetpp_s-141B.champsimtrace.xz
CPU 2 runs /home/anubhav/spec_2017/620.omnetpp_s-141B.champsimtrace.xz
CPU 3 runs /home/anubhav/spec_2017/620.omnetpp_s-141B.champsimtrace.xz
CPU 4 runs /home/anubhav/spec_2017/620.omnetpp_s-141B.champsimtrace.xz
CPU 5 runs /home/anubhav/spec_2017/620.omnetpp_s-141B.champsimtrace.xz
CPU 6 runs /home/anubhav/spec_2017/620.omnetpp_s-141B.champsimtrace.xz
CPU 7 runs /home/anubhav/spec_2017/620.omnetpp_s-141B.champsimtrace.xz
CPU 0 Bimodal branch predictor
Initialize Hawkeye state
Initialize Hawkeye state
Initialize Hawkeye state
Initialize Hawkeye state
Initialize Hawkeye state
Initialize Hawkeye state
Initialize Hawkeye state
Initialize Hawkeye state
CPU 1 Bimodal branch predictor
Initialize Hawkeye state
Initialize Hawkeye state
Initialize Hawkeye state
Initialize Hawkeye state
Initialize Hawkeye state
Initialize Hawkeye state
Initialize Hawkeye state
Initialize Hawkeye state
CPU 2 Bimodal branch predictor
Initialize Hawkeye state
Initialize Hawkeye state
Initialize Hawkeye state
Initialize Hawkeye state
Initialize Hawkeye state
Initialize Hawkeye state
Initialize Hawkeye state
Initialize Hawkeye state
CPU 3 Bimodal branch predictor
Initialize Hawkeye state
Initialize Hawkeye state
Initialize Hawkeye state
Initialize Hawkeye state
Initialize Hawkeye state
Initialize Hawkeye state
Initialize Hawkeye state
Initialize Hawkeye state
CPU 4 Bimodal branch predictor
Initialize Hawkeye state
Initialize Hawkeye state
Initialize Hawkeye state
Initialize Hawkeye state
Initialize Hawkeye state
Initialize Hawkeye state
Initialize Hawkeye state
Initialize Hawkeye state
CPU 5 Bimodal branch predictor
Initialize Hawkeye state
Initialize Hawkeye state
Initialize Hawkeye state
Initialize Hawkeye state
Initialize Hawkeye state
Initialize Hawkeye state
Initialize Hawkeye state
Initialize Hawkeye state
CPU 6 Bimodal branch predictor
Initialize Hawkeye state
Initialize Hawkeye state
Initialize Hawkeye state
Initialize Hawkeye state
Initialize Hawkeye state
Initialize Hawkeye state
Initialize Hawkeye state
Initialize Hawkeye state
CPU 7 Bimodal branch predictor
Initialize Hawkeye state
Initialize Hawkeye state
Initialize Hawkeye state
Initialize Hawkeye state
Initialize Hawkeye state
Initialize Hawkeye state
Initialize Hawkeye state
Initialize Hawkeye state
FILL
Heartbeat CPU 5 instructions: 10000000 cycles: 9271903 heartbeat IPC: 1.07853 cumulative IPC: 1.07853 (Simulation time: 7 hr 29 min 50 sec) 
 Total Blocks : 196608 Invalid Blocks : 17351 Valid Blocks : 179257
 Total Tags : 491520 Threshold : 12288 Invalid Tags : 213963 Pr0 Tags : 98300 Pr1 Tags : 179257 num_pr0 : 12287
 SAE Count : 0
 Inter-Core Inteference in Data Store : 260403
Heartbeat CPU 3 instructions: 10000000 cycles: 9271964 heartbeat IPC: 1.07852 cumulative IPC: 1.07852 (Simulation time: 7 hr 29 min 50 sec) 
 Total Blocks : 196608 Invalid Blocks : 17350 Valid Blocks : 179258
 Total Tags : 491520 Threshold : 12288 Invalid Tags : 213963 Pr0 Tags : 98299 Pr1 Tags : 179258 num_pr0 : 12287
 SAE Count : 0
 Inter-Core Inteference in Data Store : 260403
Heartbeat CPU 0 instructions: 10000000 cycles: 9272132 heartbeat IPC: 1.0785 cumulative IPC: 1.0785 (Simulation time: 7 hr 29 min 50 sec) 
 Total Blocks : 196608 Invalid Blocks : 17350 Valid Blocks : 179258
 Total Tags : 491520 Threshold : 12288 Invalid Tags : 213961 Pr0 Tags : 98301 Pr1 Tags : 179258 num_pr0 : 12287
 SAE Count : 0
 Inter-Core Inteference in Data Store : 260404
Heartbeat CPU 6 instructions: 10000000 cycles: 9272138 heartbeat IPC: 1.0785 cumulative IPC: 1.0785 (Simulation time: 7 hr 29 min 50 sec) 
 Total Blocks : 196608 Invalid Blocks : 17350 Valid Blocks : 179258
 Total Tags : 491520 Threshold : 12288 Invalid Tags : 213961 Pr0 Tags : 98301 Pr1 Tags : 179258 num_pr0 : 12287
 SAE Count : 0
 Inter-Core Inteference in Data Store : 260404
Heartbeat CPU 4 instructions: 10000000 cycles: 9272167 heartbeat IPC: 1.0785 cumulative IPC: 1.0785 (Simulation time: 7 hr 29 min 51 sec) 
 Total Blocks : 196608 Invalid Blocks : 17350 Valid Blocks : 179258
 Total Tags : 491520 Threshold : 12288 Invalid Tags : 213961 Pr0 Tags : 98301 Pr1 Tags : 179258 num_pr0 : 12288
 SAE Count : 0
 Inter-Core Inteference in Data Store : 260406
Heartbeat CPU 2 instructions: 10000000 cycles: 9272195 heartbeat IPC: 1.07849 cumulative IPC: 1.07849 (Simulation time: 7 hr 29 min 51 sec) 
 Total Blocks : 196608 Invalid Blocks : 17350 Valid Blocks : 179258
 Total Tags : 491520 Threshold : 12288 Invalid Tags : 213962 Pr0 Tags : 98300 Pr1 Tags : 179258 num_pr0 : 12288
 SAE Count : 0
 Inter-Core Inteference in Data Store : 260407
Heartbeat CPU 7 instructions: 10000000 cycles: 9272206 heartbeat IPC: 1.07849 cumulative IPC: 1.07849 (Simulation time: 7 hr 29 min 51 sec) 
 Total Blocks : 196608 Invalid Blocks : 17350 Valid Blocks : 179258
 Total Tags : 491520 Threshold : 12288 Invalid Tags : 213960 Pr0 Tags : 98302 Pr1 Tags : 179258 num_pr0 : 12288
 SAE Count : 0
 Inter-Core Inteference in Data Store : 260407
Heartbeat CPU 1 instructions: 10000000 cycles: 9272215 heartbeat IPC: 1.07849 cumulative IPC: 1.07849 (Simulation time: 7 hr 29 min 51 sec) 
 Total Blocks : 196608 Invalid Blocks : 17349 Valid Blocks : 179259
 Total Tags : 491520 Threshold : 12288 Invalid Tags : 213961 Pr0 Tags : 98300 Pr1 Tags : 179259 num_pr0 : 12288
 SAE Count : 0
 Inter-Core Inteference in Data Store : 260408
Heartbeat CPU 3 instructions: 20000000 cycles: 18651169 heartbeat IPC: 1.06619 cumulative IPC: 1.07232 (Simulation time: 14 hr 31 min 19 sec) 
 Total Blocks : 196608 Invalid Blocks : 1481 Valid Blocks : 195127
 Total Tags : 491520 Threshold : 12288 Invalid Tags : 198090 Pr0 Tags : 98303 Pr1 Tags : 195127 num_pr0 : 12288
 SAE Count : 0
 Inter-Core Inteference in Data Store : 666857
Heartbeat CPU 5 instructions: 20000000 cycles: 18651557 heartbeat IPC: 1.06614 cumulative IPC: 1.0723 (Simulation time: 14 hr 31 min 20 sec) 
 Total Blocks : 196608 Invalid Blocks : 1481 Valid Blocks : 195127
 Total Tags : 491520 Threshold : 12288 Invalid Tags : 198091 Pr0 Tags : 98302 Pr1 Tags : 195127 num_pr0 : 12288
 SAE Count : 0
 Inter-Core Inteference in Data Store : 666880
Heartbeat CPU 6 instructions: 20000000 cycles: 18651608 heartbeat IPC: 1.06616 cumulative IPC: 1.07229 (Simulation time: 14 hr 31 min 20 sec) 
 Total Blocks : 196608 Invalid Blocks : 1481 Valid Blocks : 195127
 Total Tags : 491520 Threshold : 12288 Invalid Tags : 198089 Pr0 Tags : 98304 Pr1 Tags : 195127 num_pr0 : 12288
 SAE Count : 0
 Inter-Core Inteference in Data Store : 666881
Heartbeat CPU 2 instructions: 20000000 cycles: 18651656 heartbeat IPC: 1.06616 cumulative IPC: 1.07229 (Simulation time: 14 hr 31 min 20 sec) 
 Total Blocks : 196608 Invalid Blocks : 1481 Valid Blocks : 195127
 Total Tags : 491520 Threshold : 12288 Invalid Tags : 198089 Pr0 Tags : 98304 Pr1 Tags : 195127 num_pr0 : 12288
 SAE Count : 0
 Inter-Core Inteference in Data Store : 666883
Heartbeat CPU 0 instructions: 20000000 cycles: 18651666 heartbeat IPC: 1.06615 cumulative IPC: 1.07229 (Simulation time: 14 hr 31 min 20 sec) 
 Total Blocks : 196608 Invalid Blocks : 1481 Valid Blocks : 195127
 Total Tags : 491520 Threshold : 12288 Invalid Tags : 198090 Pr0 Tags : 98303 Pr1 Tags : 195127 num_pr0 : 12288
 SAE Count : 0
 Inter-Core Inteference in Data Store : 666884
Heartbeat CPU 4 instructions: 20000000 cycles: 18651811 heartbeat IPC: 1.06614 cumulative IPC: 1.07228 (Simulation time: 14 hr 31 min 20 sec) 
 Total Blocks : 196608 Invalid Blocks : 1481 Valid Blocks : 195127
 Total Tags : 491520 Threshold : 12288 Invalid Tags : 198091 Pr0 Tags : 98302 Pr1 Tags : 195127 num_pr0 : 12288
 SAE Count : 0
 Inter-Core Inteference in Data Store : 666893
Heartbeat CPU 1 instructions: 20000000 cycles: 18651907 heartbeat IPC: 1.06613 cumulative IPC: 1.07228 (Simulation time: 14 hr 31 min 20 sec) 
 Total Blocks : 196608 Invalid Blocks : 1481 Valid Blocks : 195127
 Total Tags : 491520 Threshold : 12288 Invalid Tags : 198090 Pr0 Tags : 98303 Pr1 Tags : 195127 num_pr0 : 12287
 SAE Count : 0
 Inter-Core Inteference in Data Store : 666897
Heartbeat CPU 7 instructions: 20000000 cycles: 18652072 heartbeat IPC: 1.06611 cumulative IPC: 1.07227 (Simulation time: 14 hr 31 min 21 sec) 
 Total Blocks : 196608 Invalid Blocks : 1481 Valid Blocks : 195127
 Total Tags : 491520 Threshold : 12288 Invalid Tags : 198091 Pr0 Tags : 98302 Pr1 Tags : 195127 num_pr0 : 12288
 SAE Count : 0
 Inter-Core Inteference in Data Store : 666901
Heartbeat CPU 3 instructions: 30000003 cycles: 28206135 heartbeat IPC: 1.04658 cumulative IPC: 1.0636 (Simulation time: 19 hr 2 min 31 sec) 
 Total Blocks : 196608 Invalid Blocks : 130 Valid Blocks : 196478
 Total Tags : 491520 Threshold : 12288 Invalid Tags : 196739 Pr0 Tags : 98303 Pr1 Tags : 196478 num_pr0 : 12287
 SAE Count : 0
 Inter-Core Inteference in Data Store : 1064090
Heartbeat CPU 6 instructions: 30000003 cycles: 28206633 heartbeat IPC: 1.04657 cumulative IPC: 1.06358 (Simulation time: 19 hr 2 min 34 sec) 
 Total Blocks : 196608 Invalid Blocks : 130 Valid Blocks : 196478
 Total Tags : 491520 Threshold : 12288 Invalid Tags : 196740 Pr0 Tags : 98302 Pr1 Tags : 196478 num_pr0 : 12287
 SAE Count : 0
 Inter-Core Inteference in Data Store : 1064109
Heartbeat CPU 5 instructions: 30000003 cycles: 28206689 heartbeat IPC: 1.04656 cumulative IPC: 1.06358 (Simulation time: 19 hr 2 min 34 sec) 
 Total Blocks : 196608 Invalid Blocks : 130 Valid Blocks : 196478
 Total Tags : 491520 Threshold : 12288 Invalid Tags : 196740 Pr0 Tags : 98302 Pr1 Tags : 196478 num_pr0 : 12288
 SAE Count : 0
 Inter-Core Inteference in Data Store : 1064112
Heartbeat CPU 0 instructions: 30000003 cycles: 28206774 heartbeat IPC: 1.04656 cumulative IPC: 1.06357 (Simulation time: 19 hr 2 min 34 sec) 
 Total Blocks : 196608 Invalid Blocks : 130 Valid Blocks : 196478
 Total Tags : 491520 Threshold : 12288 Invalid Tags : 196738 Pr0 Tags : 98304 Pr1 Tags : 196478 num_pr0 : 12288
 SAE Count : 0
 Inter-Core Inteference in Data Store : 1064119
Heartbeat CPU 2 instructions: 30000003 cycles: 28206776 heartbeat IPC: 1.04656 cumulative IPC: 1.06357 (Simulation time: 19 hr 2 min 34 sec) 
 Total Blocks : 196608 Invalid Blocks : 130 Valid Blocks : 196478
 Total Tags : 491520 Threshold : 12288 Invalid Tags : 196738 Pr0 Tags : 98304 Pr1 Tags : 196478 num_pr0 : 12288
 SAE Count : 0
 Inter-Core Inteference in Data Store : 1064119
Heartbeat CPU 4 instructions: 30000003 cycles: 28206893 heartbeat IPC: 1.04656 cumulative IPC: 1.06357 (Simulation time: 19 hr 2 min 35 sec) 
 Total Blocks : 196608 Invalid Blocks : 130 Valid Blocks : 196478
 Total Tags : 491520 Threshold : 12288 Invalid Tags : 196738 Pr0 Tags : 98304 Pr1 Tags : 196478 num_pr0 : 12288
 SAE Count : 0
 Inter-Core Inteference in Data Store : 1064126
Heartbeat CPU 1 instructions: 30000003 cycles: 28207103 heartbeat IPC: 1.04655 cumulative IPC: 1.06356 (Simulation time: 19 hr 2 min 36 sec) 
 Total Blocks : 196608 Invalid Blocks : 130 Valid Blocks : 196478
 Total Tags : 491520 Threshold : 12288 Invalid Tags : 196741 Pr0 Tags : 98301 Pr1 Tags : 196478 num_pr0 : 12288
 SAE Count : 0
 Inter-Core Inteference in Data Store : 1064135
Heartbeat CPU 7 instructions: 30000003 cycles: 28207567 heartbeat IPC: 1.04652 cumulative IPC: 1.06354 (Simulation time: 19 hr 2 min 38 sec) 
 Total Blocks : 196608 Invalid Blocks : 130 Valid Blocks : 196478
 Total Tags : 491520 Threshold : 12288 Invalid Tags : 196739 Pr0 Tags : 98303 Pr1 Tags : 196478 num_pr0 : 12288
 SAE Count : 0
 Inter-Core Inteference in Data Store : 1064152
Heartbeat CPU 3 instructions: 40000001 cycles: 37617288 heartbeat IPC: 1.06257 cumulative IPC: 1.06334 (Simulation time: 22 hr 8 min 38 sec) 
 Total Blocks : 196608 Invalid Blocks : 10 Valid Blocks : 196598
 Total Tags : 491520 Threshold : 12288 Invalid Tags : 196618 Pr0 Tags : 98304 Pr1 Tags : 196598 num_pr0 : 12288
 SAE Count : 0
 Inter-Core Inteference in Data Store : 1474785
Heartbeat CPU 5 instructions: 40000001 cycles: 37617753 heartbeat IPC: 1.06258 cumulative IPC: 1.06333 (Simulation time: 22 hr 8 min 39 sec) 
 Total Blocks : 196608 Invalid Blocks : 10 Valid Blocks : 196598
 Total Tags : 491520 Threshold : 12288 Invalid Tags : 196619 Pr0 Tags : 98303 Pr1 Tags : 196598 num_pr0 : 12288
 SAE Count : 0
 Inter-Core Inteference in Data Store : 1474799
Heartbeat CPU 6 instructions: 40000001 cycles: 37617899 heartbeat IPC: 1.06256 cumulative IPC: 1.06332 (Simulation time: 22 hr 8 min 39 sec) 
 Total Blocks : 196608 Invalid Blocks : 10 Valid Blocks : 196598
 Total Tags : 491520 Threshold : 12288 Invalid Tags : 196619 Pr0 Tags : 98303 Pr1 Tags : 196598 num_pr0 : 12288
 SAE Count : 0
 Inter-Core Inteference in Data Store : 1474801
Heartbeat CPU 2 instructions: 40000001 cycles: 37618246 heartbeat IPC: 1.06253 cumulative IPC: 1.06331 (Simulation time: 22 hr 8 min 39 sec) 
 Total Blocks : 196608 Invalid Blocks : 10 Valid Blocks : 196598
 Total Tags : 491520 Threshold : 12288 Invalid Tags : 196621 Pr0 Tags : 98301 Pr1 Tags : 196598 num_pr0 : 12287
 SAE Count : 0
 Inter-Core Inteference in Data Store : 1474820
Heartbeat CPU 4 instructions: 40000001 cycles: 37618276 heartbeat IPC: 1.06254 cumulative IPC: 1.06331 (Simulation time: 22 hr 8 min 39 sec) 
 Total Blocks : 196608 Invalid Blocks : 10 Valid Blocks : 196598
 Total Tags : 491520 Threshold : 12288 Invalid Tags : 196621 Pr0 Tags : 98301 Pr1 Tags : 196598 num_pr0 : 12287
 SAE Count : 0
 Inter-Core Inteference in Data Store : 1474820
Heartbeat CPU 0 instructions: 40000001 cycles: 37618375 heartbeat IPC: 1.06252 cumulative IPC: 1.06331 (Simulation time: 22 hr 8 min 39 sec) 
 Total Blocks : 196608 Invalid Blocks : 10 Valid Blocks : 196598
 Total Tags : 491520 Threshold : 12288 Invalid Tags : 196618 Pr0 Tags : 98304 Pr1 Tags : 196598 num_pr0 : 12288
 SAE Count : 0
 Inter-Core Inteference in Data Store : 1474822
Heartbeat CPU 1 instructions: 40000001 cycles: 37618743 heartbeat IPC: 1.06251 cumulative IPC: 1.0633 (Simulation time: 22 hr 8 min 39 sec) 
 Total Blocks : 196608 Invalid Blocks : 10 Valid Blocks : 196598
 Total Tags : 491520 Threshold : 12288 Invalid Tags : 196619 Pr0 Tags : 98303 Pr1 Tags : 196598 num_pr0 : 12288
 SAE Count : 0
 Inter-Core Inteference in Data Store : 1474831
Heartbeat CPU 7 instructions: 40000001 cycles: 37619552 heartbeat IPC: 1.06247 cumulative IPC: 1.06328 (Simulation time: 22 hr 8 min 39 sec) 
 Total Blocks : 196608 Invalid Blocks : 10 Valid Blocks : 196598
 Total Tags : 491520 Threshold : 12288 Invalid Tags : 196620 Pr0 Tags : 98302 Pr1 Tags : 196598 num_pr0 : 12288
 SAE Count : 0
 Inter-Core Inteference in Data Store : 1474856
Heartbeat CPU 3 instructions: 50000000 cycles: 47224350 heartbeat IPC: 1.0409 cumulative IPC: 1.05878 (Simulation time: 24 hr 37 min 43 sec) 
 Total Blocks : 196608 Invalid Blocks : 0 Valid Blocks : 196608
 Total Tags : 491520 Threshold : 12288 Invalid Tags : 196608 Pr0 Tags : 98304 Pr1 Tags : 196608 num_pr0 : 12288
 SAE Count : 0
 Inter-Core Inteference in Data Store : 1869328
Heartbeat CPU 5 instructions: 50000000 cycles: 47224719 heartbeat IPC: 1.04091 cumulative IPC: 1.05877 (Simulation time: 24 hr 37 min 44 sec) 
 Total Blocks : 196608 Invalid Blocks : 0 Valid Blocks : 196608
 Total Tags : 491520 Threshold : 12288 Invalid Tags : 196608 Pr0 Tags : 98304 Pr1 Tags : 196608 num_pr0 : 12288
 SAE Count : 0
 Inter-Core Inteference in Data Store : 1869346
Heartbeat CPU 6 instructions: 50000000 cycles: 47224777 heartbeat IPC: 1.04092 cumulative IPC: 1.05877 (Simulation time: 24 hr 37 min 44 sec) 
 Total Blocks : 196608 Invalid Blocks : 0 Valid Blocks : 196608
 Total Tags : 491520 Threshold : 12288 Invalid Tags : 196608 Pr0 Tags : 98304 Pr1 Tags : 196608 num_pr0 : 12288
 SAE Count : 0
 Inter-Core Inteference in Data Store : 1869349
Heartbeat CPU 0 instructions: 50000000 cycles: 47225341 heartbeat IPC: 1.04091 cumulative IPC: 1.05875 (Simulation time: 24 hr 37 min 45 sec) 
 Total Blocks : 196608 Invalid Blocks : 0 Valid Blocks : 196608
 Total Tags : 491520 Threshold : 12288 Invalid Tags : 196610 Pr0 Tags : 98302 Pr1 Tags : 196608 num_pr0 : 12288
 SAE Count : 0
 Inter-Core Inteference in Data Store : 1869378
Heartbeat CPU 4 instructions: 50000000 cycles: 47225381 heartbeat IPC: 1.0409 cumulative IPC: 1.05875 (Simulation time: 24 hr 37 min 45 sec) 
 Total Blocks : 196608 Invalid Blocks : 0 Valid Blocks : 196608
 Total Tags : 491520 Threshold : 12288 Invalid Tags : 196609 Pr0 Tags : 98303 Pr1 Tags : 196608 num_pr0 : 12288
 SAE Count : 0
 Inter-Core Inteference in Data Store : 1869378
Heartbeat CPU 2 instructions: 50000000 cycles: 47225420 heartbeat IPC: 1.04089 cumulative IPC: 1.05875 (Simulation time: 24 hr 37 min 45 sec) 
 Total Blocks : 196608 Invalid Blocks : 0 Valid Blocks : 196608
 Total Tags : 491520 Threshold : 12288 Invalid Tags : 196611 Pr0 Tags : 98301 Pr1 Tags : 196608 num_pr0 : 12287
 SAE Count : 0
 Inter-Core Inteference in Data Store : 1869387
Heartbeat CPU 1 instructions: 50000000 cycles: 47225810 heartbeat IPC: 1.0409 cumulative IPC: 1.05874 (Simulation time: 24 hr 37 min 46 sec) 
 Total Blocks : 196608 Invalid Blocks : 0 Valid Blocks : 196608
 Total Tags : 491520 Threshold : 12288 Invalid Tags : 196612 Pr0 Tags : 98300 Pr1 Tags : 196608 num_pr0 : 12286
 SAE Count : 0
 Inter-Core Inteference in Data Store : 1869426
Heartbeat CPU 7 instructions: 50000000 cycles: 47227179 heartbeat IPC: 1.04084 cumulative IPC: 1.05871 (Simulation time: 24 hr 37 min 49 sec) 
 Total Blocks : 196608 Invalid Blocks : 0 Valid Blocks : 196608
 Total Tags : 491520 Threshold : 12288 Invalid Tags : 196609 Pr0 Tags : 98303 Pr1 Tags : 196608 num_pr0 : 12288
 SAE Count : 0
 Inter-Core Inteference in Data Store : 1869519
Heartbeat CPU 3 instructions: 60000001 cycles: 56515828 heartbeat IPC: 1.07626 cumulative IPC: 1.06165 (Simulation time: 26 hr 19 min 39 sec) 
 Total Blocks : 196608 Invalid Blocks : 0 Valid Blocks : 196608
 Total Tags : 491520 Threshold : 12288 Invalid Tags : 196609 Pr0 Tags : 98303 Pr1 Tags : 196608 num_pr0 : 12288
 SAE Count : 0
 Inter-Core Inteference in Data Store : 2270591
Heartbeat CPU 6 instructions: 60000001 cycles: 56516348 heartbeat IPC: 1.07624 cumulative IPC: 1.06164 (Simulation time: 26 hr 19 min 40 sec) 
 Total Blocks : 196608 Invalid Blocks : 0 Valid Blocks : 196608
 Total Tags : 491520 Threshold : 12288 Invalid Tags : 196608 Pr0 Tags : 98304 Pr1 Tags : 196608 num_pr0 : 12288
 SAE Count : 0
 Inter-Core Inteference in Data Store : 2270607
Heartbeat CPU 5 instructions: 60000001 cycles: 56516427 heartbeat IPC: 1.07623 cumulative IPC: 1.06164 (Simulation time: 26 hr 19 min 40 sec) 
 Total Blocks : 196608 Invalid Blocks : 0 Valid Blocks : 196608
 Total Tags : 491520 Threshold : 12288 Invalid Tags : 196608 Pr0 Tags : 98304 Pr1 Tags : 196608 num_pr0 : 12288
 SAE Count : 0
 Inter-Core Inteference in Data Store : 2270607
Heartbeat CPU 0 instructions: 60000001 cycles: 56516916 heartbeat IPC: 1.07624 cumulative IPC: 1.06163 (Simulation time: 26 hr 19 min 40 sec) 
 Total Blocks : 196608 Invalid Blocks : 0 Valid Blocks : 196608
 Total Tags : 491520 Threshold : 12288 Invalid Tags : 196609 Pr0 Tags : 98303 Pr1 Tags : 196608 num_pr0 : 12288
 SAE Count : 0
 Inter-Core Inteference in Data Store : 2270620
Heartbeat CPU 2 instructions: 60000001 cycles: 56516984 heartbeat IPC: 1.07625 cumulative IPC: 1.06163 (Simulation time: 26 hr 19 min 40 sec) 
 Total Blocks : 196608 Invalid Blocks : 0 Valid Blocks : 196608
 Total Tags : 491520 Threshold : 12288 Invalid Tags : 196612 Pr0 Tags : 98300 Pr1 Tags : 196608 num_pr0 : 12288
 SAE Count : 0
 Inter-Core Inteference in Data Store : 2270626
Heartbeat CPU 1 instructions: 60000001 cycles: 56517025 heartbeat IPC: 1.07629 cumulative IPC: 1.06163 (Simulation time: 26 hr 19 min 40 sec) 
 Total Blocks : 196608 Invalid Blocks : 0 Valid Blocks : 196608
 Total Tags : 491520 Threshold : 12288 Invalid Tags : 196612 Pr0 Tags : 98300 Pr1 Tags : 196608 num_pr0 : 12288
 SAE Count : 0
 Inter-Core Inteference in Data Store : 2270628
Heartbeat CPU 4 instructions: 60000001 cycles: 56517068 heartbeat IPC: 1.07623 cumulative IPC: 1.06163 (Simulation time: 26 hr 19 min 40 sec) 
 Total Blocks : 196608 Invalid Blocks : 0 Valid Blocks : 196608
 Total Tags : 491520 Threshold : 12288 Invalid Tags : 196609 Pr0 Tags : 98303 Pr1 Tags : 196608 num_pr0 : 12288
 SAE Count : 0
 Inter-Core Inteference in Data Store : 2270628
Heartbeat CPU 7 instructions: 60000001 cycles: 56519055 heartbeat IPC: 1.07621 cumulative IPC: 1.06159 (Simulation time: 26 hr 19 min 40 sec) 
 Total Blocks : 196608 Invalid Blocks : 0 Valid Blocks : 196608
 Total Tags : 491520 Threshold : 12288 Invalid Tags : 196609 Pr0 Tags : 98303 Pr1 Tags : 196608 num_pr0 : 12288
 SAE Count : 0
 Inter-Core Inteference in Data Store : 2270708
Heartbeat CPU 3 instructions: 70000000 cycles: 65972943 heartbeat IPC: 1.0574 cumulative IPC: 1.06104 (Simulation time: 27 hr 35 min 31 sec) 
 Total Blocks : 196608 Invalid Blocks : 0 Valid Blocks : 196608
 Total Tags : 491520 Threshold : 12288 Invalid Tags : 196608 Pr0 Tags : 98304 Pr1 Tags : 196608 num_pr0 : 12288
 SAE Count : 0
 Inter-Core Inteference in Data Store : 2673837
Heartbeat CPU 6 instructions: 70000000 cycles: 65973842 heartbeat IPC: 1.05736 cumulative IPC: 1.06103 (Simulation time: 27 hr 35 min 32 sec) 
 Total Blocks : 196608 Invalid Blocks : 0 Valid Blocks : 196608
 Total Tags : 491520 Threshold : 12288 Invalid Tags : 196609 Pr0 Tags : 98303 Pr1 Tags : 196608 num_pr0 : 12288
 SAE Count : 0
 Inter-Core Inteference in Data Store : 2673892
Heartbeat CPU 5 instructions: 70000000 cycles: 65973924 heartbeat IPC: 1.05736 cumulative IPC: 1.06103 (Simulation time: 27 hr 35 min 33 sec) 
 Total Blocks : 196608 Invalid Blocks : 0 Valid Blocks : 196608
 Total Tags : 491520 Threshold : 12288 Invalid Tags : 196610 Pr0 Tags : 98302 Pr1 Tags : 196608 num_pr0 : 12288
 SAE Count : 0
 Inter-Core Inteference in Data Store : 2673896
Heartbeat CPU 4 instructions: 70000000 cycles: 65974323 heartbeat IPC: 1.05739 cumulative IPC: 1.06102 (Simulation time: 27 hr 35 min 33 sec) 
 Total Blocks : 196608 Invalid Blocks : 0 Valid Blocks : 196608
 Total Tags : 491520 Threshold : 12288 Invalid Tags : 196611 Pr0 Tags : 98301 Pr1 Tags : 196608 num_pr0 : 12288
 SAE Count : 0
 Inter-Core Inteference in Data Store : 2673907
Heartbeat CPU 0 instructions: 70000000 cycles: 65974449 heartbeat IPC: 1.05736 cumulative IPC: 1.06102 (Simulation time: 27 hr 35 min 33 sec) 
 Total Blocks : 196608 Invalid Blocks : 0 Valid Blocks : 196608
 Total Tags : 491520 Threshold : 12288 Invalid Tags : 196610 Pr0 Tags : 98302 Pr1 Tags : 196608 num_pr0 : 12288
 SAE Count : 0
 Inter-Core Inteference in Data Store : 2673910
Heartbeat CPU 2 instructions: 70000000 cycles: 65974468 heartbeat IPC: 1.05736 cumulative IPC: 1.06102 (Simulation time: 27 hr 35 min 33 sec) 
 Total Blocks : 196608 Invalid Blocks : 0 Valid Blocks : 196608
 Total Tags : 491520 Threshold : 12288 Invalid Tags : 196610 Pr0 Tags : 98302 Pr1 Tags : 196608 num_pr0 : 12288
 SAE Count : 0
 Inter-Core Inteference in Data Store : 2673910
Heartbeat CPU 1 instructions: 70000000 cycles: 65974791 heartbeat IPC: 1.05733 cumulative IPC: 1.06101 (Simulation time: 27 hr 35 min 33 sec) 
 Total Blocks : 196608 Invalid Blocks : 0 Valid Blocks : 196608
 Total Tags : 491520 Threshold : 12288 Invalid Tags : 196608 Pr0 Tags : 98304 Pr1 Tags : 196608 num_pr0 : 12288
 SAE Count : 0
 Inter-Core Inteference in Data Store : 2673925
Heartbeat CPU 7 instructions: 70000000 cycles: 65976717 heartbeat IPC: 1.05734 cumulative IPC: 1.06098 (Simulation time: 27 hr 35 min 35 sec) 
 Total Blocks : 196608 Invalid Blocks : 0 Valid Blocks : 196608
 Total Tags : 491520 Threshold : 12288 Invalid Tags : 196609 Pr0 Tags : 98303 Pr1 Tags : 196608 num_pr0 : 12288
 SAE Count : 0
 Inter-Core Inteference in Data Store : 2674017
Heartbeat CPU 3 instructions: 80000000 cycles: 75431633 heartbeat IPC: 1.05723 cumulative IPC: 1.06056 (Simulation time: 28 hr 12 min 5 sec) 
 Total Blocks : 196608 Invalid Blocks : 0 Valid Blocks : 196608
 Total Tags : 491520 Threshold : 12288 Invalid Tags : 196608 Pr0 Tags : 98304 Pr1 Tags : 196608 num_pr0 : 12288
 SAE Count : 0
 Inter-Core Inteference in Data Store : 3070684
Heartbeat CPU 5 instructions: 80000000 cycles: 75432476 heartbeat IPC: 1.05724 cumulative IPC: 1.06055 (Simulation time: 28 hr 12 min 5 sec) 
 Total Blocks : 196608 Invalid Blocks : 0 Valid Blocks : 196608
 Total Tags : 491520 Threshold : 12288 Invalid Tags : 196609 Pr0 Tags : 98303 Pr1 Tags : 196608 num_pr0 : 12288
 SAE Count : 0
 Inter-Core Inteference in Data Store : 3070720
Heartbeat CPU 6 instructions: 80000000 cycles: 75432542 heartbeat IPC: 1.05723 cumulative IPC: 1.06055 (Simulation time: 28 hr 12 min 5 sec) 
 Total Blocks : 196608 Invalid Blocks : 0 Valid Blocks : 196608
 Total Tags : 491520 Threshold : 12288 Invalid Tags : 196609 Pr0 Tags : 98303 Pr1 Tags : 196608 num_pr0 : 12288
 SAE Count : 0
 Inter-Core Inteference in Data Store : 3070722
Heartbeat CPU 4 instructions: 80000000 cycles: 75432984 heartbeat IPC: 1.05723 cumulative IPC: 1.06054 (Simulation time: 28 hr 12 min 5 sec) 
 Total Blocks : 196608 Invalid Blocks : 0 Valid Blocks : 196608
 Total Tags : 491520 Threshold : 12288 Invalid Tags : 196608 Pr0 Tags : 98304 Pr1 Tags : 196608 num_pr0 : 12288
 SAE Count : 0
 Inter-Core Inteference in Data Store : 3070736
Heartbeat CPU 2 instructions: 80000000 cycles: 75433176 heartbeat IPC: 1.05723 cumulative IPC: 1.06054 (Simulation time: 28 hr 12 min 5 sec) 
 Total Blocks : 196608 Invalid Blocks : 0 Valid Blocks : 196608
 Total Tags : 491520 Threshold : 12288 Invalid Tags : 196609 Pr0 Tags : 98303 Pr1 Tags : 196608 num_pr0 : 12288
 SAE Count : 0
 Inter-Core Inteference in Data Store : 3070742
Heartbeat CPU 0 instructions: 80000000 cycles: 75433427 heartbeat IPC: 1.0572 cumulative IPC: 1.06054 (Simulation time: 28 hr 12 min 5 sec) 
 Total Blocks : 196608 Invalid Blocks : 0 Valid Blocks : 196608
 Total Tags : 491520 Threshold : 12288 Invalid Tags : 196610 Pr0 Tags : 98302 Pr1 Tags : 196608 num_pr0 : 12287
 SAE Count : 0
 Inter-Core Inteference in Data Store : 3070754
Heartbeat CPU 1 instructions: 80000000 cycles: 75433655 heartbeat IPC: 1.05721 cumulative IPC: 1.06053 (Simulation time: 28 hr 12 min 6 sec) 
 Total Blocks : 196608 Invalid Blocks : 0 Valid Blocks : 196608
 Total Tags : 491520 Threshold : 12288 Invalid Tags : 196609 Pr0 Tags : 98303 Pr1 Tags : 196608 num_pr0 : 12288
 SAE Count : 0
 Inter-Core Inteference in Data Store : 3070759
Heartbeat CPU 7 instructions: 80000000 cycles: 75435657 heartbeat IPC: 1.0572 cumulative IPC: 1.06051 (Simulation time: 28 hr 12 min 6 sec) 
 Total Blocks : 196608 Invalid Blocks : 0 Valid Blocks : 196608
 Total Tags : 491520 Threshold : 12288 Invalid Tags : 196610 Pr0 Tags : 98302 Pr1 Tags : 196608 num_pr0 : 12288
 SAE Count : 0
 Inter-Core Inteference in Data Store : 3070785
Heartbeat CPU 3 instructions: 90000002 cycles: 84813837 heartbeat IPC: 1.06585 cumulative IPC: 1.06115 (Simulation time: 28 hr 40 min 18 sec) 
 Total Blocks : 196608 Invalid Blocks : 0 Valid Blocks : 196608
 Total Tags : 491520 Threshold : 12288 Invalid Tags : 196609 Pr0 Tags : 98303 Pr1 Tags : 196608 num_pr0 : 12288
 SAE Count : 0
 Inter-Core Inteference in Data Store : 3478907
Heartbeat CPU 5 instructions: 90000002 cycles: 84814858 heartbeat IPC: 1.06583 cumulative IPC: 1.06113 (Simulation time: 28 hr 40 min 19 sec) 
 Total Blocks : 196608 Invalid Blocks : 0 Valid Blocks : 196608
 Total Tags : 491520 Threshold : 12288 Invalid Tags : 196613 Pr0 Tags : 98299 Pr1 Tags : 196608 num_pr0 : 12287
 SAE Count : 0
 Inter-Core Inteference in Data Store : 3478954
Heartbeat CPU 6 instructions: 90000002 cycles: 84815056 heartbeat IPC: 1.06581 cumulative IPC: 1.06113 (Simulation time: 28 hr 40 min 19 sec) 
 Total Blocks : 196608 Invalid Blocks : 0 Valid Blocks : 196608
 Total Tags : 491520 Threshold : 12288 Invalid Tags : 196610 Pr0 Tags : 98302 Pr1 Tags : 196608 num_pr0 : 12287
 SAE Count : 0
 Inter-Core Inteference in Data Store : 3478963
Heartbeat CPU 2 instructions: 90000002 cycles: 84815458 heartbeat IPC: 1.06584 cumulative IPC: 1.06113 (Simulation time: 28 hr 40 min 19 sec) 
 Total Blocks : 196608 Invalid Blocks : 0 Valid Blocks : 196608
 Total Tags : 491520 Threshold : 12288 Invalid Tags : 196610 Pr0 Tags : 98302 Pr1 Tags : 196608 num_pr0 : 12287
 SAE Count : 0
 Inter-Core Inteference in Data Store : 3478976
Heartbeat CPU 4 instructions: 90000002 cycles: 84815514 heartbeat IPC: 1.06581 cumulative IPC: 1.06113 (Simulation time: 28 hr 40 min 19 sec) 
 Total Blocks : 196608 Invalid Blocks : 0 Valid Blocks : 196608
 Total Tags : 491520 Threshold : 12288 Invalid Tags : 196610 Pr0 Tags : 98302 Pr1 Tags : 196608 num_pr0 : 12287
 SAE Count : 0
 Inter-Core Inteference in Data Store : 3478976
Heartbeat CPU 0 instructions: 90000002 cycles: 84816122 heartbeat IPC: 1.06579 cumulative IPC: 1.06112 (Simulation time: 28 hr 40 min 19 sec) 
 Total Blocks : 196608 Invalid Blocks : 0 Valid Blocks : 196608
 Total Tags : 491520 Threshold : 12288 Invalid Tags : 196610 Pr0 Tags : 98302 Pr1 Tags : 196608 num_pr0 : 12287
 SAE Count : 0
 Inter-Core Inteference in Data Store : 3478996
Heartbeat CPU 1 instructions: 90000002 cycles: 84816353 heartbeat IPC: 1.06579 cumulative IPC: 1.06112 (Simulation time: 28 hr 40 min 19 sec) 
 Total Blocks : 196608 Invalid Blocks : 0 Valid Blocks : 196608
 Total Tags : 491520 Threshold : 12288 Invalid Tags : 196609 Pr0 Tags : 98303 Pr1 Tags : 196608 num_pr0 : 12288
 SAE Count : 0
 Inter-Core Inteference in Data Store : 3479006
Heartbeat CPU 7 instructions: 90000002 cycles: 84818479 heartbeat IPC: 1.06578 cumulative IPC: 1.06109 (Simulation time: 28 hr 40 min 19 sec) 
 Total Blocks : 196608 Invalid Blocks : 0 Valid Blocks : 196608
 Total Tags : 491520 Threshold : 12288 Invalid Tags : 196608 Pr0 Tags : 98304 Pr1 Tags : 196608 num_pr0 : 12288
 SAE Count : 0
 Inter-Core Inteference in Data Store : 3479078
Heartbeat CPU 3 instructions: 100000000 cycles: 94246394 heartbeat IPC: 1.06016 cumulative IPC: 1.06105 (Simulation time: 29 hr 6 min 59 sec) 
 Total Blocks : 196608 Invalid Blocks : 0 Valid Blocks : 196608
 Total Tags : 491520 Threshold : 12288 Invalid Tags : 196608 Pr0 Tags : 98304 Pr1 Tags : 196608 num_pr0 : 12288
 SAE Count : 0
 Inter-Core Inteference in Data Store : 3874912
Heartbeat CPU 5 instructions: 100000000 cycles: 94247606 heartbeat IPC: 1.06014 cumulative IPC: 1.06103 (Simulation time: 29 hr 6 min 59 sec) 
 Total Blocks : 196608 Invalid Blocks : 0 Valid Blocks : 196608
 Total Tags : 491520 Threshold : 12288 Invalid Tags : 196609 Pr0 Tags : 98303 Pr1 Tags : 196608 num_pr0 : 12287
 SAE Count : 0
 Inter-Core Inteference in Data Store : 3874977
Heartbeat CPU 6 instructions: 100000000 cycles: 94247736 heartbeat IPC: 1.06014 cumulative IPC: 1.06103 (Simulation time: 29 hr 6 min 59 sec) 
 Total Blocks : 196608 Invalid Blocks : 0 Valid Blocks : 196608
 Total Tags : 491520 Threshold : 12288 Invalid Tags : 196610 Pr0 Tags : 98302 Pr1 Tags : 196608 num_pr0 : 12288
 SAE Count : 0
 Inter-Core Inteference in Data Store : 3874982
Heartbeat CPU 4 instructions: 100000000 cycles: 94248041 heartbeat IPC: 1.06016 cumulative IPC: 1.06103 (Simulation time: 29 hr 6 min 59 sec) 
 Total Blocks : 196608 Invalid Blocks : 0 Valid Blocks : 196608
 Total Tags : 491520 Threshold : 12288 Invalid Tags : 196609 Pr0 Tags : 98303 Pr1 Tags : 196608 num_pr0 : 12288
 SAE Count : 0
 Inter-Core Inteference in Data Store : 3874995
Heartbeat CPU 2 instructions: 100000000 cycles: 94248076 heartbeat IPC: 1.06015 cumulative IPC: 1.06103 (Simulation time: 29 hr 6 min 59 sec) 
 Total Blocks : 196608 Invalid Blocks : 0 Valid Blocks : 196608
 Total Tags : 491520 Threshold : 12288 Invalid Tags : 196609 Pr0 Tags : 98303 Pr1 Tags : 196608 num_pr0 : 12288
 SAE Count : 0
 Inter-Core Inteference in Data Store : 3874995
Heartbeat CPU 0 instructions: 100000000 cycles: 94249022 heartbeat IPC: 1.06012 cumulative IPC: 1.06102 (Simulation time: 29 hr 7 min 0 sec) 
 Total Blocks : 196608 Invalid Blocks : 0 Valid Blocks : 196608
 Total Tags : 491520 Threshold : 12288 Invalid Tags : 196608 Pr0 Tags : 98304 Pr1 Tags : 196608 num_pr0 : 12288
 SAE Count : 0
 Inter-Core Inteference in Data Store : 3875045
Heartbeat CPU 1 instructions: 100000000 cycles: 94249103 heartbeat IPC: 1.06014 cumulative IPC: 1.06102 (Simulation time: 29 hr 7 min 0 sec) 
 Total Blocks : 196608 Invalid Blocks : 0 Valid Blocks : 196608
 Total Tags : 491520 Threshold : 12288 Invalid Tags : 196609 Pr0 Tags : 98303 Pr1 Tags : 196608 num_pr0 : 12288
 SAE Count : 0
 Inter-Core Inteference in Data Store : 3875047
Heartbeat CPU 7 instructions: 100000000 cycles: 94251676 heartbeat IPC: 1.06009 cumulative IPC: 1.06099 (Simulation time: 29 hr 7 min 0 sec) 
 Total Blocks : 196608 Invalid Blocks : 0 Valid Blocks : 196608
 Total Tags : 491520 Threshold : 12288 Invalid Tags : 196610 Pr0 Tags : 98302 Pr1 Tags : 196608 num_pr0 : 12288
 SAE Count : 0
 Inter-Core Inteference in Data Store : 3875177
Heartbeat CPU 3 instructions: 110000000 cycles: 103561933 heartbeat IPC: 1.07348 cumulative IPC: 1.06217 (Simulation time: 29 hr 33 min 3 sec) 
 Total Blocks : 196608 Invalid Blocks : 0 Valid Blocks : 196608
 Total Tags : 491520 Threshold : 12288 Invalid Tags : 196611 Pr0 Tags : 98301 Pr1 Tags : 196608 num_pr0 : 12287
 SAE Count : 0
 Inter-Core Inteference in Data Store : 4280104
Heartbeat CPU 5 instructions: 110000000 cycles: 103563153 heartbeat IPC: 1.07347 cumulative IPC: 1.06215 (Simulation time: 29 hr 33 min 3 sec) 
 Total Blocks : 196608 Invalid Blocks : 0 Valid Blocks : 196608
 Total Tags : 491520 Threshold : 12288 Invalid Tags : 196610 Pr0 Tags : 98302 Pr1 Tags : 196608 num_pr0 : 12288
 SAE Count : 0
 Inter-Core Inteference in Data Store : 4280189
Heartbeat CPU 6 instructions: 110000000 cycles: 103563354 heartbeat IPC: 1.07347 cumulative IPC: 1.06215 (Simulation time: 29 hr 33 min 3 sec) 
 Total Blocks : 196608 Invalid Blocks : 0 Valid Blocks : 196608
 Total Tags : 491520 Threshold : 12288 Invalid Tags : 196609 Pr0 Tags : 98303 Pr1 Tags : 196608 num_pr0 : 12288
 SAE Count : 0
 Inter-Core Inteference in Data Store : 4280220
Heartbeat CPU 4 instructions: 110000000 cycles: 103563722 heartbeat IPC: 1.07346 cumulative IPC: 1.06215 (Simulation time: 29 hr 33 min 3 sec) 
 Total Blocks : 196608 Invalid Blocks : 0 Valid Blocks : 196608
 Total Tags : 491520 Threshold : 12288 Invalid Tags : 196608 Pr0 Tags : 98304 Pr1 Tags : 196608 num_pr0 : 12288
 SAE Count : 0
 Inter-Core Inteference in Data Store : 4280232
Heartbeat CPU 2 instructions: 110000000 cycles: 103563857 heartbeat IPC: 1.07345 cumulative IPC: 1.06215 (Simulation time: 29 hr 33 min 3 sec) 
 Total Blocks : 196608 Invalid Blocks : 0 Valid Blocks : 196608
 Total Tags : 491520 Threshold : 12288 Invalid Tags : 196609 Pr0 Tags : 98303 Pr1 Tags : 196608 num_pr0 : 12288
 SAE Count : 0
 Inter-Core Inteference in Data Store : 4280235
Heartbeat CPU 0 instructions: 110000000 cycles: 103564803 heartbeat IPC: 1.07345 cumulative IPC: 1.06214 (Simulation time: 29 hr 33 min 3 sec) 
 Total Blocks : 196608 Invalid Blocks : 0 Valid Blocks : 196608
 Total Tags : 491520 Threshold : 12288 Invalid Tags : 196609 Pr0 Tags : 98303 Pr1 Tags : 196608 num_pr0 : 12287
 SAE Count : 0
 Inter-Core Inteference in Data Store : 4280295
Heartbeat CPU 1 instructions: 110000000 cycles: 103564847 heartbeat IPC: 1.07345 cumulative IPC: 1.06214 (Simulation time: 29 hr 33 min 3 sec) 
 Total Blocks : 196608 Invalid Blocks : 0 Valid Blocks : 196608
 Total Tags : 491520 Threshold : 12288 Invalid Tags : 196611 Pr0 Tags : 98301 Pr1 Tags : 196608 num_pr0 : 12287
 SAE Count : 0
 Inter-Core Inteference in Data Store : 4280299
Heartbeat CPU 7 instructions: 110000000 cycles: 103567818 heartbeat IPC: 1.07341 cumulative IPC: 1.06211 (Simulation time: 29 hr 33 min 3 sec) 
 Total Blocks : 196608 Invalid Blocks : 0 Valid Blocks : 196608
 Total Tags : 491520 Threshold : 12288 Invalid Tags : 196608 Pr0 Tags : 98304 Pr1 Tags : 196608 num_pr0 : 12288
 SAE Count : 0
 Inter-Core Inteference in Data Store : 4280473
Heartbeat CPU 3 instructions: 120000000 cycles: 112914575 heartbeat IPC: 1.06922 cumulative IPC: 1.06275 (Simulation time: 29 hr 57 min 52 sec) 
 Total Blocks : 196608 Invalid Blocks : 0 Valid Blocks : 196608
 Total Tags : 491520 Threshold : 12288 Invalid Tags : 196610 Pr0 Tags : 98302 Pr1 Tags : 196608 num_pr0 : 12288
 SAE Count : 0
 Inter-Core Inteference in Data Store : 4682194
Heartbeat CPU 5 instructions: 120000000 cycles: 112915765 heartbeat IPC: 1.06922 cumulative IPC: 1.06274 (Simulation time: 29 hr 57 min 52 sec) 
 Total Blocks : 196608 Invalid Blocks : 0 Valid Blocks : 196608
 Total Tags : 491520 Threshold : 12288 Invalid Tags : 196609 Pr0 Tags : 98303 Pr1 Tags : 196608 num_pr0 : 12288
 SAE Count : 0
 Inter-Core Inteference in Data Store : 4682212
Heartbeat CPU 6 instructions: 120000000 cycles: 112916099 heartbeat IPC: 1.0692 cumulative IPC: 1.06274 (Simulation time: 29 hr 57 min 52 sec) 
 Total Blocks : 196608 Invalid Blocks : 0 Valid Blocks : 196608
 Total Tags : 491520 Threshold : 12288 Invalid Tags : 196610 Pr0 Tags : 98302 Pr1 Tags : 196608 num_pr0 : 12288
 SAE Count : 0
 Inter-Core Inteference in Data Store : 4682216
Heartbeat CPU 2 instructions: 120000000 cycles: 112916759 heartbeat IPC: 1.06919 cumulative IPC: 1.06273 (Simulation time: 29 hr 57 min 52 sec) 
 Total Blocks : 196608 Invalid Blocks : 0 Valid Blocks : 196608
 Total Tags : 491520 Threshold : 12288 Invalid Tags : 196611 Pr0 Tags : 98301 Pr1 Tags : 196608 num_pr0 : 12288
 SAE Count : 0
 Inter-Core Inteference in Data Store : 4682228
Heartbeat CPU 4 instructions: 120000000 cycles: 112916764 heartbeat IPC: 1.06917 cumulative IPC: 1.06273 (Simulation time: 29 hr 57 min 52 sec) 
 Total Blocks : 196608 Invalid Blocks : 0 Valid Blocks : 196608
 Total Tags : 491520 Threshold : 12288 Invalid Tags : 196612 Pr0 Tags : 98300 Pr1 Tags : 196608 num_pr0 : 12288
 SAE Count : 0
 Inter-Core Inteference in Data Store : 4682229
Heartbeat CPU 0 instructions: 120000000 cycles: 112917557 heartbeat IPC: 1.0692 cumulative IPC: 1.06272 (Simulation time: 29 hr 57 min 52 sec) 
 Total Blocks : 196608 Invalid Blocks : 0 Valid Blocks : 196608
 Total Tags : 491520 Threshold : 12288 Invalid Tags : 196609 Pr0 Tags : 98303 Pr1 Tags : 196608 num_pr0 : 12288
 SAE Count : 0
 Inter-Core Inteference in Data Store : 4682241
Heartbeat CPU 1 instructions: 120000000 cycles: 112917721 heartbeat IPC: 1.06919 cumulative IPC: 1.06272 (Simulation time: 29 hr 57 min 52 sec) 
 Total Blocks : 196608 Invalid Blocks : 0 Valid Blocks : 196608
 Total Tags : 491520 Threshold : 12288 Invalid Tags : 196609 Pr0 Tags : 98303 Pr1 Tags : 196608 num_pr0 : 12288
 SAE Count : 0
 Inter-Core Inteference in Data Store : 4682244
Heartbeat CPU 7 instructions: 120000000 cycles: 112921123 heartbeat IPC: 1.06914 cumulative IPC: 1.06269 (Simulation time: 29 hr 57 min 53 sec) 
 Total Blocks : 196608 Invalid Blocks : 0 Valid Blocks : 196608
 Total Tags : 491520 Threshold : 12288 Invalid Tags : 196609 Pr0 Tags : 98303 Pr1 Tags : 196608 num_pr0 : 12288
 SAE Count : 0
 Inter-Core Inteference in Data Store : 4682301
Heartbeat CPU 3 instructions: 130000000 cycles: 122218585 heartbeat IPC: 1.07481 cumulative IPC: 1.06367 (Simulation time: 30 hr 21 min 36 sec) 
 Total Blocks : 196608 Invalid Blocks : 0 Valid Blocks : 196608
 Total Tags : 491520 Threshold : 12288 Invalid Tags : 196610 Pr0 Tags : 98302 Pr1 Tags : 196608 num_pr0 : 12287
 SAE Count : 0
 Inter-Core Inteference in Data Store : 5089134
Heartbeat CPU 5 instructions: 130000000 cycles: 122220017 heartbeat IPC: 1.07478 cumulative IPC: 1.06366 (Simulation time: 30 hr 21 min 36 sec) 
 Total Blocks : 196608 Invalid Blocks : 0 Valid Blocks : 196608
 Total Tags : 491520 Threshold : 12288 Invalid Tags : 196608 Pr0 Tags : 98304 Pr1 Tags : 196608 num_pr0 : 12288
 SAE Count : 0
 Inter-Core Inteference in Data Store : 5089187
Heartbeat CPU 6 instructions: 130000000 cycles: 122220808 heartbeat IPC: 1.07472 cumulative IPC: 1.06365 (Simulation time: 30 hr 21 min 36 sec) 
 Total Blocks : 196608 Invalid Blocks : 0 Valid Blocks : 196608
 Total Tags : 491520 Threshold : 12288 Invalid Tags : 196608 Pr0 Tags : 98304 Pr1 Tags : 196608 num_pr0 : 12288
 SAE Count : 0
 Inter-Core Inteference in Data Store : 5089208
Heartbeat CPU 4 instructions: 130000000 cycles: 122221161 heartbeat IPC: 1.07476 cumulative IPC: 1.06365 (Simulation time: 30 hr 21 min 36 sec) 
 Total Blocks : 196608 Invalid Blocks : 0 Valid Blocks : 196608
 Total Tags : 491520 Threshold : 12288 Invalid Tags : 196609 Pr0 Tags : 98303 Pr1 Tags : 196608 num_pr0 : 12288
 SAE Count : 0
 Inter-Core Inteference in Data Store : 5089220
Heartbeat CPU 2 instructions: 130000000 cycles: 122221293 heartbeat IPC: 1.07474 cumulative IPC: 1.06364 (Simulation time: 30 hr 21 min 36 sec) 
 Total Blocks : 196608 Invalid Blocks : 0 Valid Blocks : 196608
 Total Tags : 491520 Threshold : 12288 Invalid Tags : 196609 Pr0 Tags : 98303 Pr1 Tags : 196608 num_pr0 : 12288
 SAE Count : 0
 Inter-Core Inteference in Data Store : 5089225
Heartbeat CPU 0 instructions: 130000000 cycles: 122221916 heartbeat IPC: 1.07477 cumulative IPC: 1.06364 (Simulation time: 30 hr 21 min 37 sec) 
 Total Blocks : 196608 Invalid Blocks : 0 Valid Blocks : 196608
 Total Tags : 491520 Threshold : 12288 Invalid Tags : 196608 Pr0 Tags : 98304 Pr1 Tags : 196608 num_pr0 : 12288
 SAE Count : 0
 Inter-Core Inteference in Data Store : 5089235
Heartbeat CPU 1 instructions: 130000000 cycles: 122222188 heartbeat IPC: 1.07475 cumulative IPC: 1.06364 (Simulation time: 30 hr 21 min 37 sec) 
 Total Blocks : 196608 Invalid Blocks : 0 Valid Blocks : 196608
 Total Tags : 491520 Threshold : 12288 Invalid Tags : 196608 Pr0 Tags : 98304 Pr1 Tags : 196608 num_pr0 : 12288
 SAE Count : 0
 Inter-Core Inteference in Data Store : 5089239
Heartbeat CPU 7 instructions: 130000000 cycles: 122226208 heartbeat IPC: 1.07468 cumulative IPC: 1.0636 (Simulation time: 30 hr 21 min 37 sec) 
 Total Blocks : 196608 Invalid Blocks : 0 Valid Blocks : 196608
 Total Tags : 491520 Threshold : 12288 Invalid Tags : 196608 Pr0 Tags : 98304 Pr1 Tags : 196608 num_pr0 : 12288
 SAE Count : 0
 Inter-Core Inteference in Data Store : 5089337
Heartbeat CPU 3 instructions: 140000000 cycles: 131644251 heartbeat IPC: 1.06093 cumulative IPC: 1.06347 (Simulation time: 30 hr 44 min 42 sec) 
 Total Blocks : 196608 Invalid Blocks : 0 Valid Blocks : 196608
 Total Tags : 491520 Threshold : 12288 Invalid Tags : 196608 Pr0 Tags : 98304 Pr1 Tags : 196608 num_pr0 : 12288
 SAE Count : 0
 Inter-Core Inteference in Data Store : 5479142
Heartbeat CPU 5 instructions: 140000000 cycles: 131645442 heartbeat IPC: 1.06096 cumulative IPC: 1.06346 (Simulation time: 30 hr 44 min 42 sec) 
 Total Blocks : 196608 Invalid Blocks : 0 Valid Blocks : 196608
 Total Tags : 491520 Threshold : 12288 Invalid Tags : 196609 Pr0 Tags : 98303 Pr1 Tags : 196608 num_pr0 : 12288
 SAE Count : 0
 Inter-Core Inteference in Data Store : 5479176
Heartbeat CPU 6 instructions: 140000000 cycles: 131646276 heartbeat IPC: 1.06096 cumulative IPC: 1.06346 (Simulation time: 30 hr 44 min 43 sec) 
 Total Blocks : 196608 Invalid Blocks : 0 Valid Blocks : 196608
 Total Tags : 491520 Threshold : 12288 Invalid Tags : 196608 Pr0 Tags : 98304 Pr1 Tags : 196608 num_pr0 : 12288
 SAE Count : 0
 Inter-Core Inteference in Data Store : 5479205
Heartbeat CPU 4 instructions: 140000000 cycles: 131646896 heartbeat IPC: 1.06093 cumulative IPC: 1.06345 (Simulation time: 30 hr 44 min 43 sec) 
 Total Blocks : 196608 Invalid Blocks : 0 Valid Blocks : 196608
 Total Tags : 491520 Threshold : 12288 Invalid Tags : 196608 Pr0 Tags : 98304 Pr1 Tags : 196608 num_pr0 : 12288
 SAE Count : 0
 Inter-Core Inteference in Data Store : 5479228
Heartbeat CPU 2 instructions: 140000000 cycles: 131646945 heartbeat IPC: 1.06093 cumulative IPC: 1.06345 (Simulation time: 30 hr 44 min 43 sec) 
 Total Blocks : 196608 Invalid Blocks : 0 Valid Blocks : 196608
 Total Tags : 491520 Threshold : 12288 Invalid Tags : 196609 Pr0 Tags : 98303 Pr1 Tags : 196608 num_pr0 : 12288
 SAE Count : 0
 Inter-Core Inteference in Data Store : 5479229
Heartbeat CPU 0 instructions: 140000000 cycles: 131647602 heartbeat IPC: 1.06093 cumulative IPC: 1.06345 (Simulation time: 30 hr 44 min 43 sec) 
 Total Blocks : 196608 Invalid Blocks : 0 Valid Blocks : 196608
 Total Tags : 491520 Threshold : 12288 Invalid Tags : 196609 Pr0 Tags : 98303 Pr1 Tags : 196608 num_pr0 : 12288
 SAE Count : 0
 Inter-Core Inteference in Data Store : 5479242
Heartbeat CPU 1 instructions: 140000000 cycles: 131647757 heartbeat IPC: 1.06094 cumulative IPC: 1.06344 (Simulation time: 30 hr 44 min 43 sec) 
 Total Blocks : 196608 Invalid Blocks : 0 Valid Blocks : 196608
 Total Tags : 491520 Threshold : 12288 Invalid Tags : 196608 Pr0 Tags : 98304 Pr1 Tags : 196608 num_pr0 : 12288
 SAE Count : 0
 Inter-Core Inteference in Data Store : 5479243
Heartbeat CPU 7 instructions: 140000000 cycles: 131652161 heartbeat IPC: 1.0609 cumulative IPC: 1.06341 (Simulation time: 30 hr 44 min 43 sec) 
 Total Blocks : 196608 Invalid Blocks : 0 Valid Blocks : 196608
 Total Tags : 491520 Threshold : 12288 Invalid Tags : 196611 Pr0 Tags : 98301 Pr1 Tags : 196608 num_pr0 : 12288
 SAE Count : 0
 Inter-Core Inteference in Data Store : 5479333
Heartbeat CPU 3 instructions: 150000002 cycles: 141019332 heartbeat IPC: 1.06666 cumulative IPC: 1.06368 (Simulation time: 31 hr 8 min 42 sec) 
 Total Blocks : 196608 Invalid Blocks : 0 Valid Blocks : 196608
 Total Tags : 491520 Threshold : 12288 Invalid Tags : 196611 Pr0 Tags : 98301 Pr1 Tags : 196608 num_pr0 : 12288
 SAE Count : 0
 Inter-Core Inteference in Data Store : 5881545
Heartbeat CPU 5 instructions: 150000002 cycles: 141020607 heartbeat IPC: 1.06665 cumulative IPC: 1.06367 (Simulation time: 31 hr 8 min 42 sec) 
 Total Blocks : 196608 Invalid Blocks : 0 Valid Blocks : 196608
 Total Tags : 491520 Threshold : 12288 Invalid Tags : 196611 Pr0 Tags : 98301 Pr1 Tags : 196608 num_pr0 : 12288
 SAE Count : 0
 Inter-Core Inteference in Data Store : 5881575
Heartbeat CPU 6 instructions: 150000002 cycles: 141021643 heartbeat IPC: 1.06663 cumulative IPC: 1.06367 (Simulation time: 31 hr 8 min 42 sec) 
 Total Blocks : 196608 Invalid Blocks : 0 Valid Blocks : 196608
 Total Tags : 491520 Threshold : 12288 Invalid Tags : 196609 Pr0 Tags : 98303 Pr1 Tags : 196608 num_pr0 : 12288
 SAE Count : 0
 Inter-Core Inteference in Data Store : 5881595
Heartbeat CPU 4 instructions: 150000002 cycles: 141021821 heartbeat IPC: 1.06668 cumulative IPC: 1.06367 (Simulation time: 31 hr 8 min 42 sec) 
 Total Blocks : 196608 Invalid Blocks : 0 Valid Blocks : 196608
 Total Tags : 491520 Threshold : 12288 Invalid Tags : 196611 Pr0 Tags : 98301 Pr1 Tags : 196608 num_pr0 : 12288
 SAE Count : 0
 Inter-Core Inteference in Data Store : 5881603
Heartbeat CPU 2 instructions: 150000002 cycles: 141022020 heartbeat IPC: 1.06666 cumulative IPC: 1.06366 (Simulation time: 31 hr 8 min 42 sec) 
 Total Blocks : 196608 Invalid Blocks : 0 Valid Blocks : 196608
 Total Tags : 491520 Threshold : 12288 Invalid Tags : 196611 Pr0 Tags : 98301 Pr1 Tags : 196608 num_pr0 : 12288
 SAE Count : 0
 Inter-Core Inteference in Data Store : 5881607
Heartbeat CPU 0 instructions: 150000002 cycles: 141022907 heartbeat IPC: 1.06663 cumulative IPC: 1.06366 (Simulation time: 31 hr 8 min 42 sec) 
 Total Blocks : 196608 Invalid Blocks : 0 Valid Blocks : 196608
 Total Tags : 491520 Threshold : 12288 Invalid Tags : 196608 Pr0 Tags : 98304 Pr1 Tags : 196608 num_pr0 : 12288
 SAE Count : 0
 Inter-Core Inteference in Data Store : 5881619
Heartbeat CPU 1 instructions: 150000002 cycles: 141023314 heartbeat IPC: 1.0666 cumulative IPC: 1.06365 (Simulation time: 31 hr 8 min 42 sec) 
 Total Blocks : 196608 Invalid Blocks : 0 Valid Blocks : 196608
 Total Tags : 491520 Threshold : 12288 Invalid Tags : 196608 Pr0 Tags : 98304 Pr1 Tags : 196608 num_pr0 : 12288
 SAE Count : 0
 Inter-Core Inteference in Data Store : 5881631
Heartbeat CPU 7 instructions: 150000002 cycles: 141027700 heartbeat IPC: 1.06661 cumulative IPC: 1.06362 (Simulation time: 31 hr 8 min 44 sec) 
 Total Blocks : 196608 Invalid Blocks : 0 Valid Blocks : 196608
 Total Tags : 491520 Threshold : 12288 Invalid Tags : 196610 Pr0 Tags : 98302 Pr1 Tags : 196608 num_pr0 : 12288
 SAE Count : 0
 Inter-Core Inteference in Data Store : 5881785
Heartbeat CPU 3 instructions: 160000000 cycles: 150429193 heartbeat IPC: 1.06271 cumulative IPC: 1.06362 (Simulation time: 31 hr 32 min 10 sec) 
 Total Blocks : 196608 Invalid Blocks : 0 Valid Blocks : 196608
 Total Tags : 491520 Threshold : 12288 Invalid Tags : 196609 Pr0 Tags : 98303 Pr1 Tags : 196608 num_pr0 : 12287
 SAE Count : 0
 Inter-Core Inteference in Data Store : 6278443
Heartbeat CPU 5 instructions: 160000000 cycles: 150430465 heartbeat IPC: 1.06272 cumulative IPC: 1.06361 (Simulation time: 31 hr 32 min 12 sec) 
 Total Blocks : 196608 Invalid Blocks : 0 Valid Blocks : 196608
 Total Tags : 491520 Threshold : 12288 Invalid Tags : 196609 Pr0 Tags : 98303 Pr1 Tags : 196608 num_pr0 : 12288
 SAE Count : 0
 Inter-Core Inteference in Data Store : 6278510
Heartbeat CPU 6 instructions: 160000000 cycles: 150431526 heartbeat IPC: 1.06271 cumulative IPC: 1.06361 (Simulation time: 31 hr 32 min 13 sec) 
 Total Blocks : 196608 Invalid Blocks : 0 Valid Blocks : 196608
 Total Tags : 491520 Threshold : 12288 Invalid Tags : 196608 Pr0 Tags : 98304 Pr1 Tags : 196608 num_pr0 : 12288
 SAE Count : 0
 Inter-Core Inteference in Data Store : 6278560
Heartbeat CPU 4 instructions: 160000000 cycles: 150431810 heartbeat IPC: 1.0627 cumulative IPC: 1.0636 (Simulation time: 31 hr 32 min 13 sec) 
 Total Blocks : 196608 Invalid Blocks : 0 Valid Blocks : 196608
 Total Tags : 491520 Threshold : 12288 Invalid Tags : 196610 Pr0 Tags : 98302 Pr1 Tags : 196608 num_pr0 : 12288
 SAE Count : 0
 Inter-Core Inteference in Data Store : 6278576
Heartbeat CPU 2 instructions: 160000000 cycles: 150432218 heartbeat IPC: 1.06268 cumulative IPC: 1.0636 (Simulation time: 31 hr 32 min 14 sec) 
 Total Blocks : 196608 Invalid Blocks : 0 Valid Blocks : 196608
 Total Tags : 491520 Threshold : 12288 Invalid Tags : 196610 Pr0 Tags : 98302 Pr1 Tags : 196608 num_pr0 : 12288
 SAE Count : 0
 Inter-Core Inteference in Data Store : 6278594
Heartbeat CPU 0 instructions: 160000000 cycles: 150433221 heartbeat IPC: 1.06266 cumulative IPC: 1.06359 (Simulation time: 31 hr 32 min 16 sec) 
 Total Blocks : 196608 Invalid Blocks : 0 Valid Blocks : 196608
 Total Tags : 491520 Threshold : 12288 Invalid Tags : 196610 Pr0 Tags : 98302 Pr1 Tags : 196608 num_pr0 : 12288
 SAE Count : 0
 Inter-Core Inteference in Data Store : 6278651
Heartbeat CPU 1 instructions: 160000000 cycles: 150433357 heartbeat IPC: 1.06269 cumulative IPC: 1.06359 (Simulation time: 31 hr 32 min 16 sec) 
 Total Blocks : 196608 Invalid Blocks : 0 Valid Blocks : 196608
 Total Tags : 491520 Threshold : 12288 Invalid Tags : 196608 Pr0 Tags : 98304 Pr1 Tags : 196608 num_pr0 : 12288
 SAE Count : 0
 Inter-Core Inteference in Data Store : 6278660
Heartbeat CPU 7 instructions: 160000000 cycles: 150438199 heartbeat IPC: 1.06264 cumulative IPC: 1.06356 (Simulation time: 31 hr 32 min 18 sec) 
 Total Blocks : 196608 Invalid Blocks : 0 Valid Blocks : 196608
 Total Tags : 491520 Threshold : 12288 Invalid Tags : 196609 Pr0 Tags : 98303 Pr1 Tags : 196608 num_pr0 : 12288
 SAE Count : 0
 Inter-Core Inteference in Data Store : 6278872
Heartbeat CPU 3 instructions: 170000002 cycles: 159818363 heartbeat IPC: 1.06506 cumulative IPC: 1.06371 (Simulation time: 31 hr 55 min 0 sec) 
 Total Blocks : 196608 Invalid Blocks : 0 Valid Blocks : 196608
 Total Tags : 491520 Threshold : 12288 Invalid Tags : 196608 Pr0 Tags : 98304 Pr1 Tags : 196608 num_pr0 : 12288
 SAE Count : 0
 Inter-Core Inteference in Data Store : 6667434
Heartbeat CPU 5 instructions: 170000002 cycles: 159819406 heartbeat IPC: 1.06508 cumulative IPC: 1.0637 (Simulation time: 31 hr 55 min 1 sec) 
 Total Blocks : 196608 Invalid Blocks : 0 Valid Blocks : 196608
 Total Tags : 491520 Threshold : 12288 Invalid Tags : 196608 Pr0 Tags : 98304 Pr1 Tags : 196608 num_pr0 : 12288
 SAE Count : 0
 Inter-Core Inteference in Data Store : 6667481
Heartbeat CPU 6 instructions: 170000002 cycles: 159820793 heartbeat IPC: 1.06505 cumulative IPC: 1.06369 (Simulation time: 31 hr 55 min 1 sec) 
 Total Blocks : 196608 Invalid Blocks : 0 Valid Blocks : 196608
 Total Tags : 491520 Threshold : 12288 Invalid Tags : 196609 Pr0 Tags : 98303 Pr1 Tags : 196608 num_pr0 : 12288
 SAE Count : 0
 Inter-Core Inteference in Data Store : 6667545
Heartbeat CPU 4 instructions: 170000002 cycles: 159821111 heartbeat IPC: 1.06504 cumulative IPC: 1.06369 (Simulation time: 31 hr 55 min 1 sec) 
 Total Blocks : 196608 Invalid Blocks : 0 Valid Blocks : 196608
 Total Tags : 491520 Threshold : 12288 Invalid Tags : 196609 Pr0 Tags : 98303 Pr1 Tags : 196608 num_pr0 : 12288
 SAE Count : 0
 Inter-Core Inteference in Data Store : 6667562
Heartbeat CPU 2 instructions: 170000002 cycles: 159821325 heartbeat IPC: 1.06506 cumulative IPC: 1.06369 (Simulation time: 31 hr 55 min 1 sec) 
 Total Blocks : 196608 Invalid Blocks : 0 Valid Blocks : 196608
 Total Tags : 491520 Threshold : 12288 Invalid Tags : 196611 Pr0 Tags : 98301 Pr1 Tags : 196608 num_pr0 : 12288
 SAE Count : 0
 Inter-Core Inteference in Data Store : 6667575
Heartbeat CPU 0 instructions: 170000002 cycles: 159822368 heartbeat IPC: 1.06506 cumulative IPC: 1.06368 (Simulation time: 31 hr 55 min 1 sec) 
 Total Blocks : 196608 Invalid Blocks : 0 Valid Blocks : 196608
 Total Tags : 491520 Threshold : 12288 Invalid Tags : 196609 Pr0 Tags : 98303 Pr1 Tags : 196608 num_pr0 : 12288
 SAE Count : 0
 Inter-Core Inteference in Data Store : 6667646
Heartbeat CPU 1 instructions: 170000002 cycles: 159822580 heartbeat IPC: 1.06505 cumulative IPC: 1.06368 (Simulation time: 31 hr 55 min 1 sec) 
 Total Blocks : 196608 Invalid Blocks : 0 Valid Blocks : 196608
 Total Tags : 491520 Threshold : 12288 Invalid Tags : 196609 Pr0 Tags : 98303 Pr1 Tags : 196608 num_pr0 : 12288
 SAE Count : 0
 Inter-Core Inteference in Data Store : 6667657
Heartbeat CPU 7 instructions: 170000002 cycles: 159827608 heartbeat IPC: 1.06503 cumulative IPC: 1.06365 (Simulation time: 31 hr 55 min 1 sec) 
 Total Blocks : 196608 Invalid Blocks : 0 Valid Blocks : 196608
 Total Tags : 491520 Threshold : 12288 Invalid Tags : 196609 Pr0 Tags : 98303 Pr1 Tags : 196608 num_pr0 : 12288
 SAE Count : 0
 Inter-Core Inteference in Data Store : 6667906
Heartbeat CPU 3 instructions: 180000000 cycles: 169143299 heartbeat IPC: 1.07239 cumulative IPC: 1.06419 (Simulation time: 32 hr 20 min 52 sec) 
 Total Blocks : 196608 Invalid Blocks : 0 Valid Blocks : 196608
 Total Tags : 491520 Threshold : 12288 Invalid Tags : 196609 Pr0 Tags : 98303 Pr1 Tags : 196608 num_pr0 : 12288
 SAE Count : 0
 Inter-Core Inteference in Data Store : 7056531
Heartbeat CPU 5 instructions: 180000000 cycles: 169144459 heartbeat IPC: 1.07238 cumulative IPC: 1.06418 (Simulation time: 32 hr 20 min 52 sec) 
 Total Blocks : 196608 Invalid Blocks : 0 Valid Blocks : 196608
 Total Tags : 491520 Threshold : 12288 Invalid Tags : 196609 Pr0 Tags : 98303 Pr1 Tags : 196608 num_pr0 : 12287
 SAE Count : 0
 Inter-Core Inteference in Data Store : 7056591
Heartbeat CPU 6 instructions: 180000000 cycles: 169145764 heartbeat IPC: 1.07239 cumulative IPC: 1.06417 (Simulation time: 32 hr 20 min 53 sec) 
 Total Blocks : 196608 Invalid Blocks : 0 Valid Blocks : 196608
 Total Tags : 491520 Threshold : 12288 Invalid Tags : 196609 Pr0 Tags : 98303 Pr1 Tags : 196608 num_pr0 : 12288
 SAE Count : 0
 Inter-Core Inteference in Data Store : 7056674
Heartbeat CPU 4 instructions: 180000000 cycles: 169146176 heartbeat IPC: 1.07238 cumulative IPC: 1.06417 (Simulation time: 32 hr 20 min 53 sec) 
 Total Blocks : 196608 Invalid Blocks : 0 Valid Blocks : 196608
 Total Tags : 491520 Threshold : 12288 Invalid Tags : 196611 Pr0 Tags : 98301 Pr1 Tags : 196608 num_pr0 : 12287
 SAE Count : 0
 Inter-Core Inteference in Data Store : 7056690
Heartbeat CPU 2 instructions: 180000000 cycles: 169146252 heartbeat IPC: 1.07239 cumulative IPC: 1.06417 (Simulation time: 32 hr 20 min 53 sec) 
 Total Blocks : 196608 Invalid Blocks : 0 Valid Blocks : 196608
 Total Tags : 491520 Threshold : 12288 Invalid Tags : 196611 Pr0 Tags : 98301 Pr1 Tags : 196608 num_pr0 : 12287
 SAE Count : 0
 Inter-Core Inteference in Data Store : 7056694
Heartbeat CPU 0 instructions: 180000000 cycles: 169147598 heartbeat IPC: 1.07236 cumulative IPC: 1.06416 (Simulation time: 32 hr 20 min 53 sec) 
 Total Blocks : 196608 Invalid Blocks : 0 Valid Blocks : 196608
 Total Tags : 491520 Threshold : 12288 Invalid Tags : 196611 Pr0 Tags : 98301 Pr1 Tags : 196608 num_pr0 : 12287
 SAE Count : 0
 Inter-Core Inteference in Data Store : 7056767
Heartbeat CPU 1 instructions: 180000000 cycles: 169147811 heartbeat IPC: 1.07236 cumulative IPC: 1.06416 (Simulation time: 32 hr 20 min 53 sec) 
 Total Blocks : 196608 Invalid Blocks : 0 Valid Blocks : 196608
 Total Tags : 491520 Threshold : 12288 Invalid Tags : 196612 Pr0 Tags : 98300 Pr1 Tags : 196608 num_pr0 : 12288
 SAE Count : 0
 Inter-Core Inteference in Data Store : 7056778
Heartbeat CPU 7 instructions: 180000000 cycles: 169152759 heartbeat IPC: 1.07237 cumulative IPC: 1.06413 (Simulation time: 32 hr 20 min 55 sec) 
 Total Blocks : 196608 Invalid Blocks : 0 Valid Blocks : 196608
 Total Tags : 491520 Threshold : 12288 Invalid Tags : 196609 Pr0 Tags : 98303 Pr1 Tags : 196608 num_pr0 : 12288
 SAE Count : 0
 Inter-Core Inteference in Data Store : 7056981
Heartbeat CPU 3 instructions: 190000003 cycles: 178457664 heartbeat IPC: 1.07361 cumulative IPC: 1.06468 (Simulation time: 70 hr 46 min 5 sec) 
 Total Blocks : 196608 Invalid Blocks : 0 Valid Blocks : 196608
 Total Tags : 491520 Threshold : 12288 Invalid Tags : 196611 Pr0 Tags : 98301 Pr1 Tags : 196608 num_pr0 : 12287
 SAE Count : 0
 Inter-Core Inteference in Data Store : 7455166
Heartbeat CPU 5 instructions: 190000003 cycles: 178458858 heartbeat IPC: 1.07361 cumulative IPC: 1.06467 (Simulation time: 70 hr 46 min 6 sec) 
 Total Blocks : 196608 Invalid Blocks : 0 Valid Blocks : 196608
 Total Tags : 491520 Threshold : 12288 Invalid Tags : 196610 Pr0 Tags : 98302 Pr1 Tags : 196608 num_pr0 : 12288
 SAE Count : 0
 Inter-Core Inteference in Data Store : 7455204
Heartbeat CPU 6 instructions: 190000003 cycles: 178460178 heartbeat IPC: 1.07361 cumulative IPC: 1.06466 (Simulation time: 70 hr 46 min 7 sec) 
 Total Blocks : 196608 Invalid Blocks : 0 Valid Blocks : 196608
 Total Tags : 491520 Threshold : 12288 Invalid Tags : 196609 Pr0 Tags : 98303 Pr1 Tags : 196608 num_pr0 : 12288
 SAE Count : 0
 Inter-Core Inteference in Data Store : 7455258
Heartbeat CPU 4 instructions: 190000003 cycles: 178460676 heartbeat IPC: 1.0736 cumulative IPC: 1.06466 (Simulation time: 70 hr 46 min 8 sec) 
 Total Blocks : 196608 Invalid Blocks : 0 Valid Blocks : 196608
 Total Tags : 491520 Threshold : 12288 Invalid Tags : 196609 Pr0 Tags : 98303 Pr1 Tags : 196608 num_pr0 : 12288
 SAE Count : 0
 Inter-Core Inteference in Data Store : 7455285
Heartbeat CPU 2 instructions: 190000003 cycles: 178460753 heartbeat IPC: 1.0736 cumulative IPC: 1.06466 (Simulation time: 70 hr 46 min 8 sec) 
 Total Blocks : 196608 Invalid Blocks : 0 Valid Blocks : 196608
 Total Tags : 491520 Threshold : 12288 Invalid Tags : 196611 Pr0 Tags : 98301 Pr1 Tags : 196608 num_pr0 : 12288
 SAE Count : 0
 Inter-Core Inteference in Data Store : 7455292
Heartbeat CPU 0 instructions: 190000003 cycles: 178462103 heartbeat IPC: 1.07359 cumulative IPC: 1.06465 (Simulation time: 70 hr 46 min 8 sec) 
 Total Blocks : 196608 Invalid Blocks : 0 Valid Blocks : 196608
 Total Tags : 491520 Threshold : 12288 Invalid Tags : 196609 Pr0 Tags : 98303 Pr1 Tags : 196608 num_pr0 : 12287
 SAE Count : 0
 Inter-Core Inteference in Data Store : 7455347
Heartbeat CPU 1 instructions: 190000003 cycles: 178462231 heartbeat IPC: 1.0736 cumulative IPC: 1.06465 (Simulation time: 70 hr 46 min 8 sec) 
 Total Blocks : 196608 Invalid Blocks : 0 Valid Blocks : 196608
 Total Tags : 491520 Threshold : 12288 Invalid Tags : 196611 Pr0 Tags : 98301 Pr1 Tags : 196608 num_pr0 : 12286
 SAE Count : 0
 Inter-Core Inteference in Data Store : 7455356
Heartbeat CPU 7 instructions: 190000003 cycles: 178467733 heartbeat IPC: 1.07354 cumulative IPC: 1.06462 (Simulation time: 70 hr 46 min 10 sec) 
 Total Blocks : 196608 Invalid Blocks : 0 Valid Blocks : 196608
 Total Tags : 491520 Threshold : 12288 Invalid Tags : 196610 Pr0 Tags : 98302 Pr1 Tags : 196608 num_pr0 : 12288
 SAE Count : 0
 Inter-Core Inteference in Data Store : 7455546
Heartbeat CPU 3 instructions: 200000001 cycles: 187772320 heartbeat IPC: 1.07358 cumulative IPC: 1.06512 (Simulation time: 77 hr 35 min 23 sec) 
 Total Blocks : 196608 Invalid Blocks : 0 Valid Blocks : 196608
 Total Tags : 491520 Threshold : 12288 Invalid Tags : 196610 Pr0 Tags : 98302 Pr1 Tags : 196608 num_pr0 : 12288
 SAE Count : 0
 Inter-Core Inteference in Data Store : 7857635
Heartbeat CPU 5 instructions: 200000001 cycles: 187773509 heartbeat IPC: 1.07358 cumulative IPC: 1.06511 (Simulation time: 77 hr 35 min 24 sec) 
 Total Blocks : 196608 Invalid Blocks : 0 Valid Blocks : 196608
 Total Tags : 491520 Threshold : 12288 Invalid Tags : 196608 Pr0 Tags : 98304 Pr1 Tags : 196608 num_pr0 : 12288
 SAE Count : 0
 Inter-Core Inteference in Data Store : 7857674
Heartbeat CPU 6 instructions: 200000001 cycles: 187774821 heartbeat IPC: 1.07358 cumulative IPC: 1.06511 (Simulation time: 77 hr 35 min 25 sec) 
 Total Blocks : 196608 Invalid Blocks : 0 Valid Blocks : 196608
 Total Tags : 491520 Threshold : 12288 Invalid Tags : 196608 Pr0 Tags : 98304 Pr1 Tags : 196608 num_pr0 : 12288
 SAE Count : 0
 Inter-Core Inteference in Data Store : 7857736
Heartbeat CPU 4 instructions: 200000001 cycles: 187775217 heartbeat IPC: 1.07359 cumulative IPC: 1.0651 (Simulation time: 77 hr 35 min 25 sec) 
 Total Blocks : 196608 Invalid Blocks : 0 Valid Blocks : 196608
 Total Tags : 491520 Threshold : 12288 Invalid Tags : 196608 Pr0 Tags : 98304 Pr1 Tags : 196608 num_pr0 : 12288
 SAE Count : 0
 Inter-Core Inteference in Data Store : 7857756
Heartbeat CPU 2 instructions: 200000001 cycles: 187775317 heartbeat IPC: 1.07359 cumulative IPC: 1.0651 (Simulation time: 77 hr 35 min 25 sec) 
 Total Blocks : 196608 Invalid Blocks : 0 Valid Blocks : 196608
 Total Tags : 491520 Threshold : 12288 Invalid Tags : 196608 Pr0 Tags : 98304 Pr1 Tags : 196608 num_pr0 : 12288
 SAE Count : 0
 Inter-Core Inteference in Data Store : 7857761
Heartbeat CPU 0 instructions: 200000001 cycles: 187776787 heartbeat IPC: 1.07357 cumulative IPC: 1.06509 (Simulation time: 77 hr 35 min 25 sec) 
 Total Blocks : 196608 Invalid Blocks : 0 Valid Blocks : 196608
 Total Tags : 491520 Threshold : 12288 Invalid Tags : 196609 Pr0 Tags : 98303 Pr1 Tags : 196608 num_pr0 : 12288
 SAE Count : 0
 Inter-Core Inteference in Data Store : 7857835
Heartbeat CPU 1 instructions: 200000001 cycles: 187776810 heartbeat IPC: 1.07359 cumulative IPC: 1.06509 (Simulation time: 77 hr 35 min 25 sec) 
 Total Blocks : 196608 Invalid Blocks : 0 Valid Blocks : 196608
 Total Tags : 491520 Threshold : 12288 Invalid Tags : 196609 Pr0 Tags : 98303 Pr1 Tags : 196608 num_pr0 : 12288
 SAE Count : 0
 Inter-Core Inteference in Data Store : 7857835
Heartbeat CPU 7 instructions: 200000001 cycles: 187782692 heartbeat IPC: 1.07354 cumulative IPC: 1.06506 (Simulation time: 77 hr 35 min 31 sec) 
 Total Blocks : 196608 Invalid Blocks : 0 Valid Blocks : 196608
 Total Tags : 491520 Threshold : 12288 Invalid Tags : 196611 Pr0 Tags : 98301 Pr1 Tags : 196608 num_pr0 : 12287
 SAE Count : 0
 Inter-Core Inteference in Data Store : 7858130

Warmup complete CPU 0 instructions: 200006144 cycles: 187782692 (Simulation time: 77 hr 35 min 31 sec) 
Warmup complete CPU 1 instructions: 200006129 cycles: 187782692 (Simulation time: 77 hr 35 min 31 sec) 
Warmup complete CPU 2 instructions: 200007735 cycles: 187782692 (Simulation time: 77 hr 35 min 31 sec) 
Warmup complete CPU 3 instructions: 200010743 cycles: 187782692 (Simulation time: 77 hr 35 min 31 sec) 
Warmup complete CPU 4 instructions: 200007812 cycles: 187782692 (Simulation time: 77 hr 35 min 31 sec) 
Warmup complete CPU 5 instructions: 200009542 cycles: 187782692 (Simulation time: 77 hr 35 min 31 sec) 
Warmup complete CPU 6 instructions: 200008186 cycles: 187782692 (Simulation time: 77 hr 35 min 31 sec) 
Warmup complete CPU 7 instructions: 200000001 cycles: 187782692 (Simulation time: 77 hr 35 min 31 sec) 

Heartbeat CPU 3 instructions: 210000003 cycles: 240867064 heartbeat IPC: 0.188343 cumulative IPC: 0.188177 (Simulation time: 82 hr 51 min 6 sec) 
 Total Blocks : 196608 Invalid Blocks : 0 Valid Blocks : 196608
 Total Tags : 491520 Threshold : 12288 Invalid Tags : 196608 Pr0 Tags : 98304 Pr1 Tags : 196608 num_pr0 : 12288
 SAE Count : 0
 Inter-Core Inteference in Data Store : 461443
Heartbeat CPU 2 instructions: 210000003 cycles: 240892949 heartbeat IPC: 0.188261 cumulative IPC: 0.188142 (Simulation time: 82 hr 51 min 11 sec) 
 Total Blocks : 196608 Invalid Blocks : 0 Valid Blocks : 196608
 Total Tags : 491520 Threshold : 12288 Invalid Tags : 196608 Pr0 Tags : 98304 Pr1 Tags : 196608 num_pr0 : 12288
 SAE Count : 0
 Inter-Core Inteference in Data Store : 461673
Heartbeat CPU 4 instructions: 210000003 cycles: 240926263 heartbeat IPC: 0.188143 cumulative IPC: 0.188023 (Simulation time: 82 hr 51 min 16 sec) 
 Total Blocks : 196608 Invalid Blocks : 0 Valid Blocks : 196608
 Total Tags : 491520 Threshold : 12288 Invalid Tags : 196609 Pr0 Tags : 98303 Pr1 Tags : 196608 num_pr0 : 12288
 SAE Count : 0
 Inter-Core Inteference in Data Store : 461955
Heartbeat CPU 0 instructions: 210000003 cycles: 240947003 heartbeat IPC: 0.188075 cumulative IPC: 0.187981 (Simulation time: 82 hr 51 min 18 sec) 
 Total Blocks : 196608 Invalid Blocks : 0 Valid Blocks : 196608
 Total Tags : 491520 Threshold : 12288 Invalid Tags : 196609 Pr0 Tags : 98303 Pr1 Tags : 196608 num_pr0 : 12287
 SAE Count : 0
 Inter-Core Inteference in Data Store : 462116
Heartbeat CPU 6 instructions: 210000003 cycles: 240959499 heartbeat IPC: 0.188024 cumulative IPC: 0.187898 (Simulation time: 82 hr 51 min 20 sec) 
 Total Blocks : 196608 Invalid Blocks : 0 Valid Blocks : 196608
 Total Tags : 491520 Threshold : 12288 Invalid Tags : 196608 Pr0 Tags : 98304 Pr1 Tags : 196608 num_pr0 : 12288
 SAE Count : 0
 Inter-Core Inteference in Data Store : 462217
Heartbeat CPU 5 instructions: 210000003 cycles: 240963081 heartbeat IPC: 0.188007 cumulative IPC: 0.18786 (Simulation time: 82 hr 51 min 20 sec) 
 Total Blocks : 196608 Invalid Blocks : 0 Valid Blocks : 196608
 Total Tags : 491520 Threshold : 12288 Invalid Tags : 196609 Pr0 Tags : 98303 Pr1 Tags : 196608 num_pr0 : 12288
 SAE Count : 0
 Inter-Core Inteference in Data Store : 462233
Heartbeat CPU 1 instructions: 210000003 cycles: 241014116 heartbeat IPC: 0.187838 cumulative IPC: 0.187744 (Simulation time: 82 hr 51 min 27 sec) 
 Total Blocks : 196608 Invalid Blocks : 0 Valid Blocks : 196608
 Total Tags : 491520 Threshold : 12288 Invalid Tags : 196608 Pr0 Tags : 98304 Pr1 Tags : 196608 num_pr0 : 12288
 SAE Count : 0
 Inter-Core Inteference in Data Store : 462652
Heartbeat CPU 7 instructions: 210000003 cycles: 241014167 heartbeat IPC: 0.187859 cumulative IPC: 0.187859 (Simulation time: 82 hr 51 min 28 sec) 
 Total Blocks : 196608 Invalid Blocks : 0 Valid Blocks : 196608
 Total Tags : 491520 Threshold : 12288 Invalid Tags : 196608 Pr0 Tags : 98304 Pr1 Tags : 196608 num_pr0 : 12288
 SAE Count : 0
 Inter-Core Inteference in Data Store : 462652
Heartbeat CPU 3 instructions: 220000000 cycles: 293218453 heartbeat IPC: 0.191017 cumulative IPC: 0.189587 (Simulation time: 87 hr 24 min 52 sec) 
 Total Blocks : 196608 Invalid Blocks : 0 Valid Blocks : 196608
 Total Tags : 491520 Threshold : 12288 Invalid Tags : 196610 Pr0 Tags : 98302 Pr1 Tags : 196608 num_pr0 : 12288
 SAE Count : 0
 Inter-Core Inteference in Data Store : 907605
Heartbeat CPU 2 instructions: 220000000 cycles: 293470098 heartbeat IPC: 0.190197 cumulative IPC: 0.189164 (Simulation time: 87 hr 26 min 23 sec) 
 Total Blocks : 196608 Invalid Blocks : 0 Valid Blocks : 196608
 Total Tags : 491520 Threshold : 12288 Invalid Tags : 196608 Pr0 Tags : 98304 Pr1 Tags : 196608 num_pr0 : 12288
 SAE Count : 0
 Inter-Core Inteference in Data Store : 909947
Heartbeat CPU 4 instructions: 220000000 cycles: 293482282 heartbeat IPC: 0.190273 cumulative IPC: 0.189142 (Simulation time: 87 hr 26 min 26 sec) 
 Total Blocks : 196608 Invalid Blocks : 0 Valid Blocks : 196608
 Total Tags : 491520 Threshold : 12288 Invalid Tags : 196608 Pr0 Tags : 98304 Pr1 Tags : 196608 num_pr0 : 12288
 SAE Count : 0
 Inter-Core Inteference in Data Store : 910060
Heartbeat CPU 5 instructions: 220000000 cycles: 293618504 heartbeat IPC: 0.189914 cumulative IPC: 0.188882 (Simulation time: 87 hr 27 min 14 sec) 
 Total Blocks : 196608 Invalid Blocks : 0 Valid Blocks : 196608
 Total Tags : 491520 Threshold : 12288 Invalid Tags : 196608 Pr0 Tags : 98304 Pr1 Tags : 196608 num_pr0 : 12288
 SAE Count : 0
 Inter-Core Inteference in Data Store : 911285
Heartbeat CPU 6 instructions: 220000000 cycles: 293624267 heartbeat IPC: 0.18988 cumulative IPC: 0.188884 (Simulation time: 87 hr 27 min 15 sec) 
 Total Blocks : 196608 Invalid Blocks : 0 Valid Blocks : 196608
 Total Tags : 491520 Threshold : 12288 Invalid Tags : 196611 Pr0 Tags : 98301 Pr1 Tags : 196608 num_pr0 : 12288
 SAE Count : 0
 Inter-Core Inteference in Data Store : 911352
Heartbeat CPU 1 instructions: 220000000 cycles: 293632447 heartbeat IPC: 0.190048 cumulative IPC: 0.188889 (Simulation time: 87 hr 27 min 16 sec) 
 Total Blocks : 196608 Invalid Blocks : 0 Valid Blocks : 196608
 Total Tags : 491520 Threshold : 12288 Invalid Tags : 196609 Pr0 Tags : 98303 Pr1 Tags : 196608 num_pr0 : 12287
 SAE Count : 0
 Inter-Core Inteference in Data Store : 911415
Heartbeat CPU 0 instructions: 220000000 cycles: 293637343 heartbeat IPC: 0.189788 cumulative IPC: 0.18888 (Simulation time: 87 hr 27 min 17 sec) 
 Total Blocks : 196608 Invalid Blocks : 0 Valid Blocks : 196608
 Total Tags : 491520 Threshold : 12288 Invalid Tags : 196609 Pr0 Tags : 98303 Pr1 Tags : 196608 num_pr0 : 12288
 SAE Count : 0
 Inter-Core Inteference in Data Store : 911465
Heartbeat CPU 7 instructions: 220000000 cycles: 293637360 heartbeat IPC: 0.19003 cumulative IPC: 0.188938 (Simulation time: 87 hr 27 min 17 sec) 
 Total Blocks : 196608 Invalid Blocks : 0 Valid Blocks : 196608
 Total Tags : 491520 Threshold : 12288 Invalid Tags : 196609 Pr0 Tags : 98303 Pr1 Tags : 196608 num_pr0 : 12288
 SAE Count : 0
 Inter-Core Inteference in Data Store : 911465
Heartbeat CPU 3 instructions: 230000000 cycles: 345703342 heartbeat IPC: 0.190531 cumulative IPC: 0.189901 (Simulation time: 91 hr 17 min 17 sec) 
 Total Blocks : 196608 Invalid Blocks : 0 Valid Blocks : 196608
 Total Tags : 491520 Threshold : 12288 Invalid Tags : 196609 Pr0 Tags : 98303 Pr1 Tags : 196608 num_pr0 : 12288
 SAE Count : 0
 Inter-Core Inteference in Data Store : 1337535
Heartbeat CPU 2 instructions: 230000000 cycles: 345943638 heartbeat IPC: 0.190572 cumulative IPC: 0.189631 (Simulation time: 91 hr 18 min 48 sec) 
 Total Blocks : 196608 Invalid Blocks : 0 Valid Blocks : 196608
 Total Tags : 491520 Threshold : 12288 Invalid Tags : 196608 Pr0 Tags : 98304 Pr1 Tags : 196608 num_pr0 : 12288
 SAE Count : 0
 Inter-Core Inteference in Data Store : 1339614
Heartbeat CPU 4 instructions: 230000000 cycles: 345956813 heartbeat IPC: 0.190569 cumulative IPC: 0.189615 (Simulation time: 91 hr 18 min 51 sec) 
 Total Blocks : 196608 Invalid Blocks : 0 Valid Blocks : 196608
 Total Tags : 491520 Threshold : 12288 Invalid Tags : 196609 Pr0 Tags : 98303 Pr1 Tags : 196608 num_pr0 : 12288
 SAE Count : 0
 Inter-Core Inteference in Data Store : 1339717
Heartbeat CPU 5 instructions: 230000000 cycles: 346158171 heartbeat IPC: 0.190332 cumulative IPC: 0.189363 (Simulation time: 91 hr 19 min 46 sec) 
 Total Blocks : 196608 Invalid Blocks : 0 Valid Blocks : 196608
 Total Tags : 491520 Threshold : 12288 Invalid Tags : 196608 Pr0 Tags : 98304 Pr1 Tags : 196608 num_pr0 : 12288
 SAE Count : 0
 Inter-Core Inteference in Data Store : 1341373
Heartbeat CPU 6 instructions: 230000000 cycles: 346202865 heartbeat IPC: 0.190191 cumulative IPC: 0.189318 (Simulation time: 91 hr 20 min 23 sec) 
 Total Blocks : 196608 Invalid Blocks : 0 Valid Blocks : 196608
 Total Tags : 491520 Threshold : 12288 Invalid Tags : 196608 Pr0 Tags : 98304 Pr1 Tags : 196608 num_pr0 : 12288
 SAE Count : 0
 Inter-Core Inteference in Data Store : 1341753
Heartbeat CPU 1 instructions: 230000000 cycles: 346267774 heartbeat IPC: 0.189986 cumulative IPC: 0.189254 (Simulation time: 91 hr 20 min 32 sec) 
 Total Blocks : 196608 Invalid Blocks : 0 Valid Blocks : 196608
 Total Tags : 491520 Threshold : 12288 Invalid Tags : 196609 Pr0 Tags : 98303 Pr1 Tags : 196608 num_pr0 : 12288
 SAE Count : 0
 Inter-Core Inteference in Data Store : 1342266
Heartbeat CPU 0 instructions: 230000000 cycles: 346278470 heartbeat IPC: 0.189966 cumulative IPC: 0.189241 (Simulation time: 91 hr 20 min 34 sec) 
 Total Blocks : 196608 Invalid Blocks : 0 Valid Blocks : 196608
 Total Tags : 491520 Threshold : 12288 Invalid Tags : 196609 Pr0 Tags : 98303 Pr1 Tags : 196608 num_pr0 : 12288
 SAE Count : 0
 Inter-Core Inteference in Data Store : 1342349
Heartbeat CPU 7 instructions: 230000000 cycles: 346282234 heartbeat IPC: 0.189952 cumulative IPC: 0.189275 (Simulation time: 91 hr 20 min 34 sec) 
 Total Blocks : 196608 Invalid Blocks : 0 Valid Blocks : 196608
 Total Tags : 491520 Threshold : 12288 Invalid Tags : 196608 Pr0 Tags : 98304 Pr1 Tags : 196608 num_pr0 : 12288
 SAE Count : 0
 Inter-Core Inteference in Data Store : 1342386
Heartbeat CPU 3 instructions: 240000000 cycles: 397999620 heartbeat IPC: 0.191218 cumulative IPC: 0.190229 (Simulation time: 94 hr 54 min 22 sec) 
 Total Blocks : 196608 Invalid Blocks : 0 Valid Blocks : 196608
 Total Tags : 491520 Threshold : 12288 Invalid Tags : 196610 Pr0 Tags : 98302 Pr1 Tags : 196608 num_pr0 : 12288
 SAE Count : 0
 Inter-Core Inteference in Data Store : 1766281
Heartbeat CPU 2 instructions: 240000000 cycles: 398177819 heartbeat IPC: 0.191446 cumulative IPC: 0.190082 (Simulation time: 94 hr 54 min 48 sec) 
 Total Blocks : 196608 Invalid Blocks : 0 Valid Blocks : 196608
 Total Tags : 491520 Threshold : 12288 Invalid Tags : 196608 Pr0 Tags : 98304 Pr1 Tags : 196608 num_pr0 : 12288
 SAE Count : 0
 Inter-Core Inteference in Data Store : 1767664
Heartbeat CPU 4 instructions: 240000000 cycles: 398223976 heartbeat IPC: 0.191325 cumulative IPC: 0.19004 (Simulation time: 94 hr 54 min 51 sec) 
 Total Blocks : 196608 Invalid Blocks : 0 Valid Blocks : 196608
 Total Tags : 491520 Threshold : 12288 Invalid Tags : 196610 Pr0 Tags : 98302 Pr1 Tags : 196608 num_pr0 : 12288
 SAE Count : 0
 Inter-Core Inteference in Data Store : 1768014
Heartbeat CPU 5 instructions: 240000000 cycles: 398437081 heartbeat IPC: 0.191282 cumulative IPC: 0.189839 (Simulation time: 94 hr 55 min 29 sec) 
 Total Blocks : 196608 Invalid Blocks : 0 Valid Blocks : 196608
 Total Tags : 491520 Threshold : 12288 Invalid Tags : 196610 Pr0 Tags : 98302 Pr1 Tags : 196608 num_pr0 : 12288
 SAE Count : 0
 Inter-Core Inteference in Data Store : 1769538
Heartbeat CPU 6 instructions: 240000000 cycles: 398593653 heartbeat IPC: 0.190873 cumulative IPC: 0.189705 (Simulation time: 94 hr 55 min 46 sec) 
 Total Blocks : 196608 Invalid Blocks : 0 Valid Blocks : 196608
 Total Tags : 491520 Threshold : 12288 Invalid Tags : 196609 Pr0 Tags : 98303 Pr1 Tags : 196608 num_pr0 : 12288
 SAE Count : 0
 Inter-Core Inteference in Data Store : 1770769
Heartbeat CPU 1 instructions: 240000000 cycles: 398681848 heartbeat IPC: 0.190788 cumulative IPC: 0.189635 (Simulation time: 94 hr 56 min 10 sec) 
 Total Blocks : 196608 Invalid Blocks : 0 Valid Blocks : 196608
 Total Tags : 491520 Threshold : 12288 Invalid Tags : 196608 Pr0 Tags : 98304 Pr1 Tags : 196608 num_pr0 : 12288
 SAE Count : 0
 Inter-Core Inteference in Data Store : 1771437
Heartbeat CPU 0 instructions: 240000000 cycles: 398688937 heartbeat IPC: 0.190802 cumulative IPC: 0.189629 (Simulation time: 94 hr 56 min 10 sec) 
 Total Blocks : 196608 Invalid Blocks : 0 Valid Blocks : 196608
 Total Tags : 491520 Threshold : 12288 Invalid Tags : 196609 Pr0 Tags : 98303 Pr1 Tags : 196608 num_pr0 : 12288
 SAE Count : 0
 Inter-Core Inteference in Data Store : 1771486
Heartbeat CPU 7 instructions: 240000000 cycles: 398737707 heartbeat IPC: 0.190638 cumulative IPC: 0.189614 (Simulation time: 94 hr 56 min 16 sec) 
 Total Blocks : 196608 Invalid Blocks : 0 Valid Blocks : 196608
 Total Tags : 491520 Threshold : 12288 Invalid Tags : 196608 Pr0 Tags : 98304 Pr1 Tags : 196608 num_pr0 : 12288
 SAE Count : 0
 Inter-Core Inteference in Data Store : 1771838
Heartbeat CPU 3 instructions: 250000001 cycles: 448782228 heartbeat IPC: 0.196918 cumulative IPC: 0.19153 (Simulation time: 97 hr 36 min 39 sec) 
 Total Blocks : 196608 Invalid Blocks : 0 Valid Blocks : 196608
 Total Tags : 491520 Threshold : 12288 Invalid Tags : 196608 Pr0 Tags : 98304 Pr1 Tags : 196608 num_pr0 : 12288
 SAE Count : 0
 Inter-Core Inteference in Data Store : 2179595
Heartbeat CPU 2 instructions: 250000001 cycles: 449094947 heartbeat IPC: 0.196398 cumulative IPC: 0.191312 (Simulation time: 97 hr 37 min 30 sec) 
 Total Blocks : 196608 Invalid Blocks : 0 Valid Blocks : 196608
 Total Tags : 491520 Threshold : 12288 Invalid Tags : 196608 Pr0 Tags : 98304 Pr1 Tags : 196608 num_pr0 : 12288
 SAE Count : 0
 Inter-Core Inteference in Data Store : 2181709
Heartbeat CPU 4 instructions: 250000001 cycles: 449133679 heartbeat IPC: 0.196426 cumulative IPC: 0.191284 (Simulation time: 97 hr 37 min 36 sec) 
 Total Blocks : 196608 Invalid Blocks : 0 Valid Blocks : 196608
 Total Tags : 491520 Threshold : 12288 Invalid Tags : 196609 Pr0 Tags : 98303 Pr1 Tags : 196608 num_pr0 : 12288
 SAE Count : 0
 Inter-Core Inteference in Data Store : 2182009
Heartbeat CPU 5 instructions: 250000001 cycles: 449298285 heartbeat IPC: 0.196614 cumulative IPC: 0.191157 (Simulation time: 97 hr 37 min 51 sec) 
 Total Blocks : 196608 Invalid Blocks : 0 Valid Blocks : 196608
 Total Tags : 491520 Threshold : 12288 Invalid Tags : 196609 Pr0 Tags : 98303 Pr1 Tags : 196608 num_pr0 : 12288
 SAE Count : 0
 Inter-Core Inteference in Data Store : 2183163
Heartbeat CPU 6 instructions: 250000001 cycles: 449546137 heartbeat IPC: 0.196261 cumulative IPC: 0.190981 (Simulation time: 97 hr 38 min 41 sec) 
 Total Blocks : 196608 Invalid Blocks : 0 Valid Blocks : 196608
 Total Tags : 491520 Threshold : 12288 Invalid Tags : 196608 Pr0 Tags : 98304 Pr1 Tags : 196608 num_pr0 : 12288
 SAE Count : 0
 Inter-Core Inteference in Data Store : 2184926
Heartbeat CPU 7 instructions: 250000001 cycles: 449668933 heartbeat IPC: 0.196343 cumulative IPC: 0.190923 (Simulation time: 97 hr 38 min 56 sec) 
 Total Blocks : 196608 Invalid Blocks : 0 Valid Blocks : 196608
 Total Tags : 491520 Threshold : 12288 Invalid Tags : 196608 Pr0 Tags : 98304 Pr1 Tags : 196608 num_pr0 : 12288
 SAE Count : 0
[...]
LLC4 LOAD      ACCESS: 239733  HIT: 58406  MISS: 181327  HIT %: 24.3629  MISS %: 75.6371  AVERAGE MISS PENALTY: 282.639
LLC4 RFO       ACCESS: 23365  HIT:  9482  MISS: 13883  HIT %: 40.5821  MISS %: 59.4179  AVERAGE MISS PENALTY: 278.149
LLC4 PREFETCH  ACCESS: 572234  HIT: 76586  MISS: 495648  HIT %: 13.3837  MISS %: 86.6163  AVERAGE MISS PENALTY: 284.658
LLC4 WRITEBACK ACCESS: 184405  HIT: 68957  MISS: 115448  HIT %: 37.3943  MISS %: 62.6057  AVERAGE MISS PENALTY: 0
LLC4 PREFETCH  REQUESTED:     0  ISSUED:     0  USEFUL: 18650  USELESS: 197563
 USEFUL LOAD PREFETCHES:      18650 PREFETCH ISSUED TO LOWER LEVEL:    3964877  ACCURACY: 0.47038
 TIMELY PREFETCHES:      18650 LATE PREFETCHES: 0 DROPPED PREFETCHES: 0
LLC4 AVERAGE MISS LATENCY: 243.334 cycles

LLC4 Set Associative Eviction Count : 0
LLC4 Priority 0 entries : 12288
LLC4 Inter-Core Interference : 1081156
LLC5 TOTAL     ACCESS: 1017880  HIT: 212096  MISS: 805784  HIT %: 20.837  MISS %: 79.163  AVERAGE MISS PENALTY: 243.957
LLC5 LOAD      ACCESS: 234942  HIT: 54285  MISS: 180657  HIT %: 23.1057  MISS %: 76.8943  AVERAGE MISS PENALTY: 282.96
LLC5 RFO       ACCESS: 23433  HIT:  9412  MISS: 14021  HIT %: 40.1656  MISS %: 59.8344  AVERAGE MISS PENALTY: 279.445
LLC5 PREFETCH  ACCESS: 575324  HIT: 79220  MISS: 496104  HIT %: 13.7696  MISS %: 86.2304  AVERAGE MISS PENALTY: 285.302
LLC5 WRITEBACK ACCESS: 184181  HIT: 69179  MISS: 115002  HIT %: 37.5603  MISS %: 62.4397  AVERAGE MISS PENALTY: 0
LLC5 PREFETCH  REQUESTED:     0  ISSUED:     0  USEFUL: 18040  USELESS: 200237
 USEFUL LOAD PREFETCHES:      18040 PREFETCH ISSUED TO LOWER LEVEL:    3967376  ACCURACY: 0.454709
 TIMELY PREFETCHES:      18040 LATE PREFETCHES: 0 DROPPED PREFETCHES: 0
LLC5 AVERAGE MISS LATENCY: 243.957 cycles

LLC5 Set Associative Eviction Count : 0
LLC5 Priority 0 entries : 12287
LLC5 Inter-Core Interference : 1077273
LLC6 TOTAL     ACCESS: 1020720  HIT: 214911  MISS: 805809  HIT %: 21.0548  MISS %: 78.9452  AVERAGE MISS PENALTY: 248.439
LLC6 LOAD      ACCESS: 241136  HIT: 57349  MISS: 183787  HIT %: 23.7828  MISS %: 76.2172  AVERAGE MISS PENALTY: 283.804
LLC6 RFO       ACCESS: 23301  HIT:  9349  MISS: 13952  HIT %: 40.1227  MISS %: 59.8773  AVERAGE MISS PENALTY: 280.069
LLC6 PREFETCH  ACCESS: 568635  HIT: 77039  MISS: 491596  HIT %: 13.5481  MISS %: 86.4519  AVERAGE MISS PENALTY: 293.183
LLC6 WRITEBACK ACCESS: 187648  HIT: 71174  MISS: 116474  HIT %: 37.9295  MISS %: 62.0705  AVERAGE MISS PENALTY: 0
LLC6 PREFETCH  REQUESTED:     0  ISSUED:     0  USEFUL: 18263  USELESS: 194887
 USEFUL LOAD PREFETCHES:      18263 PREFETCH ISSUED TO LOWER LEVEL:    3935263  ACCURACY: 0.464086
 TIMELY PREFETCHES:      18263 LATE PREFETCHES: 0 DROPPED PREFETCHES: 0
LLC6 AVERAGE MISS LATENCY: 248.439 cycles

LLC6 Set Associative Eviction Count : 0
LLC6 Priority 0 entries : 12288
LLC6 Inter-Core Interference : 1087137
LLC7 TOTAL     ACCESS: 1016786  HIT: 211622  MISS: 805164  HIT %: 20.8128  MISS %: 79.1872  AVERAGE MISS PENALTY: 249.255
LLC7 LOAD      ACCESS: 235067  HIT: 54202  MISS: 180865  HIT %: 23.0581  MISS %: 76.9419  AVERAGE MISS PENALTY: 284.76
LLC7 RFO       ACCESS: 23264  HIT:  9388  MISS: 13876  HIT %: 40.3542  MISS %: 59.6458  AVERAGE MISS PENALTY: 284.561
LLC7 PREFETCH  ACCESS: 573552  HIT: 79106  MISS: 494446  HIT %: 13.7923  MISS %: 86.2077  AVERAGE MISS PENALTY: 293.742
LLC7 WRITEBACK ACCESS: 184903  HIT: 68926  MISS: 115977  HIT %: 37.2768  MISS %: 62.7232  AVERAGE MISS PENALTY: 0
LLC7 PREFETCH  REQUESTED:     0  ISSUED:     0  USEFUL: 18369  USELESS: 199708
 USEFUL LOAD PREFETCHES:      18369 PREFETCH ISSUED TO LOWER LEVEL:    3956508  ACCURACY: 0.464273
 TIMELY PREFETCHES:      18369 LATE PREFETCHES: 0 DROPPED PREFETCHES: 0
LLC7 AVERAGE MISS LATENCY: 249.255 cycles

LLC7 Set Associative Eviction Count : 0
LLC7 Priority 0 entries : 12288
LLC7 Inter-Core Interference : 1083101
ROI Average ROB Stall Cycles:	13.5047
ROI Total ROB Stalls Cycles:	975744594
ROI TOTAL ROB counter      :	72252004
ROI Average Load ROB Stall Cycles:	34.6574
ROI Total Load ROB Stalls Cycle  :	340707441
ROI Total Load ROB stalls Counter:	9830736
Major fault: 0 Minor fault: 54308

CPU 7 cumulative IPC: 0.192076 instructions: 200000003 cycles: 1041254921
ITLB TOTAL     ACCESS: 32103939  HIT: 31790760  MISS: 313179  HIT %: 99.0245  MISS %: 0.975516  AVERAGE MISS PENALTY: 10.7557
ITLB LOAD      ACCESS: 32103939  HIT: 31790760  MISS: 313179  HIT %: 99.0245  MISS %: 0.975516  AVERAGE MISS PENALTY: 10.7557
ITLB RFO       ACCESS:     0  HIT:     0  MISS:     0  HIT %:     0  MISS %:     0  AVERAGE MISS PENALTY: 0
ITLB PREFETCH  ACCESS:     0  HIT:     0  MISS:     0  HIT %:     0  MISS %:     0  AVERAGE MISS PENALTY: 0
ITLB WRITEBACK ACCESS:     0  HIT:     0  MISS:     0  HIT %:     0  MISS %:     0  AVERAGE MISS PENALTY: 0
ITLB PREFETCH  REQUESTED:     0  ISSUED:     0  USEFUL:     0  USELESS:     0
 USEFUL LOAD PREFETCHES:          0 PREFETCH ISSUED TO LOWER LEVEL:          0  ACCURACY: -nan
 TIMELY PREFETCHES:          0 LATE PREFETCHES: 0 DROPPED PREFETCHES: 0
ITLB AVERAGE MISS LATENCY: 10.7557 cycles

ITLB Set Associative Eviction Count : 0
ITLB Priority 0 entries : 0
ITLB Inter-Core Interference : 0
DTLB TOTAL     ACCESS: 81303452  HIT: 77152936  MISS: 4150516  HIT %: 94.895  MISS %: 5.10497  AVERAGE MISS PENALTY: 36.4758
DTLB LOAD      ACCESS: 50050326  HIT: 46400727  MISS: 3649599  HIT %: 92.7081  MISS %: 7.29186  AVERAGE MISS PENALTY: 33.9458
DTLB RFO       ACCESS: 31253126  HIT: 30752209  MISS: 500917  HIT %: 98.3972  MISS %: 1.60277  AVERAGE MISS PENALTY: 54.9085
DTLB PREFETCH  ACCESS:     0  HIT:     0  MISS:     0  HIT %:     0  MISS %:     0  AVERAGE MISS PENALTY: 0
DTLB WRITEBACK ACCESS:     0  HIT:     0  MISS:     0  HIT %:     0  MISS %:     0  AVERAGE MISS PENALTY: 0
DTLB PREFETCH  REQUESTED:     0  ISSUED:     0  USEFUL:     0  USELESS:     0
 USEFUL LOAD PREFETCHES:          0 PREFETCH ISSUED TO LOWER LEVEL:          0  ACCURACY: -nan
 TIMELY PREFETCHES:          0 LATE PREFETCHES: 0 DROPPED PREFETCHES: 0
DTLB AVERAGE MISS LATENCY: 36.4758 cycles

DTLB Set Associative Eviction Count : 0
DTLB Priority 0 entries : 0
DTLB Inter-Core Interference : 0
STLB TOTAL     ACCESS: 4463695  HIT: 3502037  MISS: 961658  HIT %: 78.456  MISS %: 21.544  AVERAGE MISS PENALTY: 100
STLB LOAD      ACCESS: 3962778  HIT: 3184782  MISS: 777996  HIT %: 80.3674  MISS %: 19.6326  AVERAGE MISS PENALTY: 100
STLB RFO       ACCESS: 500917  HIT: 317255  MISS: 183662  HIT %: 63.3348  MISS %: 36.6652  AVERAGE MISS PENALTY: 100
STLB PREFETCH  ACCESS:     0  HIT:     0  MISS:     0  HIT %:     0  MISS %:     0  AVERAGE MISS PENALTY: 0
STLB WRITEBACK ACCESS:     0  HIT:     0  MISS:     0  HIT %:     0  MISS %:     0  AVERAGE MISS PENALTY: 0
STLB PREFETCH  REQUESTED:     0  ISSUED:     0  USEFUL:     0  USELESS:     0
 USEFUL LOAD PREFETCHES:          0 PREFETCH ISSUED TO LOWER LEVEL:          0  ACCURACY: -nan
 TIMELY PREFETCHES:          0 LATE PREFETCHES: 0 DROPPED PREFETCHES: 0
STLB AVERAGE MISS LATENCY: 100 cycles

STLB Set Associative Eviction Count : 0
STLB Priority 0 entries : 0
STLB Inter-Core Interference : 0
L1D TOTAL     ACCESS: 118161950  HIT: 110630673  MISS: 7531277  HIT %: 93.6263  MISS %: 6.37369  AVERAGE MISS PENALTY: 8.51983e+06
L1D LOAD      ACCESS: 52952426  HIT: 49840897  MISS: 3111529  HIT %: 94.1239  MISS %: 5.87608  AVERAGE MISS PENALTY: 1.66294e+07
L1D RFO       ACCESS: 36635528  HIT: 36334777  MISS: 300751  HIT %: 99.1791  MISS %: 0.820927  AVERAGE MISS PENALTY: 4.13016e+07
L1D PREFETCH  ACCESS: 28573996  HIT: 24454999  MISS: 4118997  HIT %: 85.5848  MISS %: 14.4152  AVERAGE MISS PENALTY: 199.689
L1D WRITEBACK ACCESS:     0  HIT:     0  MISS:     0  HIT %:     0  MISS %:     0  AVERAGE MISS PENALTY: 0
L1D PREFETCH  REQUESTED: 29787450  ISSUED: 29606221  USEFUL: 627793  USELESS: 3491058
 USEFUL LOAD PREFETCHES:     627793 PREFETCH ISSUED TO LOWER LEVEL:    5012257  ACCURACY: 12.5252
 TIMELY PREFETCHES:     627793 LATE PREFETCHES: 558591 DROPPED PREFETCHES: 181229
L1D AVERAGE MISS LATENCY: 1.6495e+06 cycles

L1D Set Associative Eviction Count : 0
L1D Priority 0 entries : 0
L1D Inter-Core Interference : 0
L1I TOTAL     ACCESS: 42423865  HIT: 42299445  MISS: 124420  HIT %: 99.7067  MISS %: 0.293278  AVERAGE MISS PENALTY: 54.312
L1I LOAD      ACCESS: 42423865  HIT: 42299445  MISS: 124420  HIT %: 99.7067  MISS %: 0.293278  AVERAGE MISS PENALTY: 54.312
L1I RFO       ACCESS:     0  HIT:     0  MISS:     0  HIT %:     0  MISS %:     0  AVERAGE MISS PENALTY: 0
L1I PREFETCH  ACCESS:     0  HIT:     0  MISS:     0  HIT %:     0  MISS %:     0  AVERAGE MISS PENALTY: 0
L1I WRITEBACK ACCESS:     0  HIT:     0  MISS:     0  HIT %:     0  MISS %:     0  AVERAGE MISS PENALTY: 0
L1I PREFETCH  REQUESTED:     0  ISSUED:     0  USEFUL:     0  USELESS:     0
 USEFUL LOAD PREFETCHES:          0 PREFETCH ISSUED TO LOWER LEVEL:          0  ACCURACY: -nan
 TIMELY PREFETCHES:          0 LATE PREFETCHES: 0 DROPPED PREFETCHES: 0
L1I AVERAGE MISS LATENCY: 54.312 cycles

L1I Set Associative Eviction Count : 0
L1I Priority 0 entries : 0
L1I Inter-Core Interference : 0
L2C TOTAL     ACCESS: 12629686  HIT: 5856218  MISS: 6773468  HIT %: 46.3687  MISS %: 53.6313  AVERAGE MISS PENALTY: 8.30631e+06
L2C LOAD      ACCESS: 3230878  HIT: 1224472  MISS: 2006406  HIT %: 37.899  MISS %: 62.101  AVERAGE MISS PENALTY: 2.68939e+07
L2C RFO       ACCESS: 283354  HIT: 88954  MISS: 194400  HIT %: 31.3932  MISS %: 68.6068  AVERAGE MISS PENALTY: 1.1837e+07
L2C PREFETCH  ACCESS: 7163528  HIT: 2606642  MISS: 4556886  HIT %: 36.3877  MISS %: 63.6123  AVERAGE MISS PENALTY: 285.865
L2C WRITEBACK ACCESS: 1951926  HIT: 1936150  MISS: 15776  HIT %: 99.1918  MISS %: 0.808227  AVERAGE MISS PENALTY: 0
L2C PREFETCH  REQUESTED: 5078046  ISSUED: 5007821  USEFUL: 345298  USELESS: 4210042
 USEFUL LOAD PREFETCHES:     345298 PREFETCH ISSUED TO LOWER LEVEL:    4874661  ACCURACY: 7.08353
 TIMELY PREFETCHES:     345298 LATE PREFETCHES: 254630 DROPPED PREFETCHES: 70225
L2C AVERAGE MISS LATENCY: 272.547 cycles

L2C Set Associative Eviction Count : 0
L2C Priority 0 entries : 0
L2C Inter-Core Interference : 0
LLC0 TOTAL     ACCESS: 994375  HIT: 229675  MISS: 764700  HIT %: 23.0974  MISS %: 76.9026  AVERAGE MISS PENALTY: 238.584
LLC0 LOAD      ACCESS: 255741  HIT: 65998  MISS: 189743  HIT %: 25.8066  MISS %: 74.1934  AVERAGE MISS PENALTY: 278.97
LLC0 RFO       ACCESS: 26551  HIT: 10855  MISS: 15696  HIT %: 40.8836  MISS %: 59.1164  AVERAGE MISS PENALTY: 275.265
LLC0 PREFETCH  ACCESS: 524924  HIT: 80928  MISS: 443996  HIT %: 15.4171  MISS %: 84.5829  AVERAGE MISS PENALTY: 281.966
LLC0 WRITEBACK ACCESS: 187159  HIT: 71894  MISS: 115265  HIT %: 38.4133  MISS %: 61.5867  AVERAGE MISS PENALTY: 0
LLC0 PREFETCH  REQUESTED:     0  ISSUED:     0  USEFUL: 16856  USELESS: 181915
 USEFUL LOAD PREFETCHES:      16856 PREFETCH ISSUED TO LOWER LEVEL:    3559236  ACCURACY: 0.473585
 TIMELY PREFETCHES:      16856 LATE PREFETCHES: 0 DROPPED PREFETCHES: 0
LLC0 AVERAGE MISS LATENCY: 238.584 cycles

LLC0 Set Associative Eviction Count : 0
LLC0 Priority 0 entries : 12288
LLC0 Inter-Core Interference : 1069808
LLC1 TOTAL     ACCESS: 1026827  HIT: 240913  MISS: 785914  HIT %: 23.4619  MISS %: 76.5381  AVERAGE MISS PENALTY: 241.61
LLC1 LOAD      ACCESS: 245585  HIT: 63257  MISS: 182328  HIT %: 25.7577  MISS %: 74.2423  AVERAGE MISS PENALTY: 281.777
LLC1 RFO       ACCESS: 24154  HIT:  9715  MISS: 14439  HIT %: 40.2211  MISS %: 59.7789  AVERAGE MISS PENALTY: 278.121
LLC1 PREFETCH  ACCESS: 568432  HIT: 94110  MISS: 474322  HIT %: 16.5561  MISS %: 83.4439  AVERAGE MISS PENALTY: 283.549
LLC1 WRITEBACK ACCESS: 188656  HIT: 73831  MISS: 114825  HIT %: 39.1353  MISS %: 60.8647  AVERAGE MISS PENALTY: 0
LLC1 PREFETCH  REQUESTED:     0  ISSUED:     0  USEFUL: 17855  USELESS: 191705
 USEFUL LOAD PREFETCHES:      17855 PREFETCH ISSUED TO LOWER LEVEL:    3801001  ACCURACY: 0.469745
 TIMELY PREFETCHES:      17855 LATE PREFETCHES: 0 DROPPED PREFETCHES: 0
LLC1 AVERAGE MISS LATENCY: 241.61 cycles

LLC1 Set Associative Eviction Count : 0
LLC1 Priority 0 entries : 12288
LLC1 Inter-Core Interference : 1071815
LLC2 TOTAL     ACCESS: 1038855  HIT: 234995  MISS: 803860  HIT %: 22.6206  MISS %: 77.3794  AVERAGE MISS PENALTY: 246.061
LLC2 LOAD      ACCESS: 240784  HIT: 60305  MISS: 180479  HIT %: 25.0453  MISS %: 74.9547  AVERAGE MISS PENALTY: 281.412
LLC2 RFO       ACCESS: 23087  HIT:  9293  MISS: 13794  HIT %: 40.2521  MISS %: 59.7479  AVERAGE MISS PENALTY: 278.822
LLC2 PREFETCH  ACCESS: 585921  HIT: 92358  MISS: 493563  HIT %: 15.7629  MISS %: 84.2371  AVERAGE MISS PENALTY: 290.061
LLC2 WRITEBACK ACCESS: 189063  HIT: 73039  MISS: 116024  HIT %: 38.6321  MISS %: 61.3679  AVERAGE MISS PENALTY: 0
LLC2 PREFETCH  REQUESTED:     0  ISSUED:     0  USEFUL: 18241  USELESS: 195237
 USEFUL LOAD PREFETCHES:      18241 PREFETCH ISSUED TO LOWER LEVEL:    3956203  ACCURACY: 0.461073
 TIMELY PREFETCHES:      18241 LATE PREFETCHES: 0 DROPPED PREFETCHES: 0
LLC2 AVERAGE MISS LATENCY: 246.061 cycles

LLC2 Set Associative Eviction Count : 0
LLC2 Priority 0 entries : 12288
LLC2 Inter-Core Interference : 1081152
LLC3 TOTAL     ACCESS: 1038377  HIT: 234801  MISS: 803576  HIT %: 22.6123  MISS %: 77.3877  AVERAGE MISS PENALTY: 247.635
LLC3 LOAD      ACCESS: 240337  HIT: 60049  MISS: 180288  HIT %: 24.9853  MISS %: 75.0147  AVERAGE MISS PENALTY: 282.507
LLC3 RFO       ACCESS: 23368  HIT:  9487  MISS: 13881  HIT %: 40.5983  MISS %: 59.4017  AVERAGE MISS PENALTY: 283.768
LLC3 PREFETCH  ACCESS: 585147  HIT: 91841  MISS: 493306  HIT %: 15.6954  MISS %: 84.3046  AVERAGE MISS PENALTY: 292.156
LLC3 WRITEBACK ACCESS: 189525  HIT: 73424  MISS: 116101  HIT %: 38.7411  MISS %: 61.2589  AVERAGE MISS PENALTY: 0
LLC3 PREFETCH  REQUESTED:     0  ISSUED:     0  USEFUL: 17953  USELESS: 197295
 USEFUL LOAD PREFETCHES:      17953 PREFETCH ISSUED TO LOWER LEVEL:    3954553  ACCURACY: 0.453983
 TIMELY PREFETCHES:      17953 LATE PREFETCHES: 0 DROPPED PREFETCHES: 0
LLC3 AVERAGE MISS LATENCY: 247.635 cycles

LLC3 Set Associative Eviction Count : 0
LLC3 Priority 0 entries : 12288
LLC3 Inter-Core Interference : 1083474
LLC4 TOTAL     ACCESS: 1041042  HIT: 236213  MISS: 804829  HIT %: 22.6901  MISS %: 77.3099  AVERAGE MISS PENALTY: 243.756
LLC4 LOAD      ACCESS: 247944  HIT: 66973  MISS: 180971  HIT %: 27.0113  MISS %: 72.9887  AVERAGE MISS PENALTY: 283.105
LLC4 RFO       ACCESS: 23514  HIT:  9644  MISS: 13870  HIT %: 41.0139  MISS %: 58.9861  AVERAGE MISS PENALTY: 279.618
LLC4 PREFETCH  ACCESS: 582916  HIT: 88197  MISS: 494719  HIT %: 15.1303  MISS %: 84.8697  AVERAGE MISS PENALTY: 285.151
LLC4 WRITEBACK ACCESS: 186668  HIT: 71399  MISS: 115269  HIT %: 38.2492  MISS %: 61.7508  AVERAGE MISS PENALTY: 0
LLC4 PREFETCH  REQUESTED:     0  ISSUED:     0  USEFUL: 18650  USELESS: 197563
 USEFUL LOAD PREFETCHES:      18650 PREFETCH ISSUED TO LOWER LEVEL:    3964877  ACCURACY: 0.47038
 TIMELY PREFETCHES:      18650 LATE PREFETCHES: 0 DROPPED PREFETCHES: 0
LLC4 AVERAGE MISS LATENCY: 243.756 cycles

LLC4 Set Associative Eviction Count : 0
LLC4 Priority 0 entries : 12288
LLC4 Inter-Core Interference : 1081156
LLC5 TOTAL     ACCESS: 1041233  HIT: 237244  MISS: 803989  HIT %: 22.7849  MISS %: 77.2151  AVERAGE MISS PENALTY: 244.05
LLC5 LOAD      ACCESS: 240086  HIT: 59577  MISS: 180509  HIT %: 24.8149  MISS %: 75.1851  AVERAGE MISS PENALTY: 283.855
LLC5 RFO       ACCESS: 23612  HIT:  9638  MISS: 13974  HIT %: 40.8182  MISS %: 59.1818  AVERAGE MISS PENALTY: 277.667
LLC5 PREFETCH  ACCESS: 591574  HIT: 96819  MISS: 494755  HIT %: 16.3663  MISS %: 83.6337  AVERAGE MISS PENALTY: 285.181
LLC5 WRITEBACK ACCESS: 185961  HIT: 71210  MISS: 114751  HIT %: 38.293  MISS %: 61.707  AVERAGE MISS PENALTY: 0
LLC5 PREFETCH  REQUESTED:     0  ISSUED:     0  USEFUL: 18040  USELESS: 200237
 USEFUL LOAD PREFETCHES:      18040 PREFETCH ISSUED TO LOWER LEVEL:    3967376  ACCURACY: 0.454709
 TIMELY PREFETCHES:      18040 LATE PREFETCHES: 0 DROPPED PREFETCHES: 0
LLC5 AVERAGE MISS LATENCY: 244.05 cycles

LLC5 Set Associative Eviction Count : 0
LLC5 Priority 0 entries : 12287
LLC5 Inter-Core Interference : 1077273
LLC6 TOTAL     ACCESS: 1042767  HIT: 238061  MISS: 804706  HIT %: 22.8297  MISS %: 77.1703  AVERAGE MISS PENALTY: 249.082
LLC6 LOAD      ACCESS: 246989  HIT: 63726  MISS: 183263  HIT %: 25.8011  MISS %: 74.1989  AVERAGE MISS PENALTY: 284.706
LLC6 RFO       ACCESS: 23467  HIT:  9495  MISS: 13972  HIT %: 40.4611  MISS %: 59.5389  AVERAGE MISS PENALTY: 281.612
LLC6 PREFETCH  ACCESS: 583184  HIT: 91930  MISS: 491254  HIT %: 15.7635  MISS %: 84.2365  AVERAGE MISS PENALTY: 293.793
LLC6 WRITEBACK ACCESS: 189127  HIT: 72910  MISS: 116217  HIT %: 38.5508  MISS %: 61.4492  AVERAGE MISS PENALTY: 0
LLC6 PREFETCH  REQUESTED:     0  ISSUED:     0  USEFUL: 18263  USELESS: 194887
 USEFUL LOAD PREFETCHES:      18263 PREFETCH ISSUED TO LOWER LEVEL:    3935263  ACCURACY: 0.464086
 TIMELY PREFETCHES:      18263 LATE PREFETCHES: 0 DROPPED PREFETCHES: 0
LLC6 AVERAGE MISS LATENCY: 249.082 cycles

LLC6 Set Associative Eviction Count : 0
LLC6 Priority 0 entries : 12288
LLC6 Inter-Core Interference : 1087137
LLC7 TOTAL     ACCESS: 1037960  HIT: 233760  MISS: 804200  HIT %: 22.5211  MISS %: 77.4789  AVERAGE MISS PENALTY: 249.389
LLC7 LOAD      ACCESS: 239989  HIT: 59122  MISS: 180867  HIT %: 24.6353  MISS %: 75.3647  AVERAGE MISS PENALTY: 284.677
LLC7 RFO       ACCESS: 23494  HIT:  9609  MISS: 13885  HIT %: 40.8998  MISS %: 59.1002  AVERAGE MISS PENALTY: 285.759
LLC7 PREFETCH  ACCESS: 586870  HIT: 93262  MISS: 493608  HIT %: 15.8914  MISS %: 84.1086  AVERAGE MISS PENALTY: 293.962
LLC7 WRITEBACK ACCESS: 187607  HIT: 71767  MISS: 115840  HIT %: 38.2539  MISS %: 61.7461  AVERAGE MISS PENALTY: 0
LLC7 PREFETCH  REQUESTED:     0  ISSUED:     0  USEFUL: 18369  USELESS: 199708
 USEFUL LOAD PREFETCHES:      18369 PREFETCH ISSUED TO LOWER LEVEL:    3956508  ACCURACY: 0.464273
 TIMELY PREFETCHES:      18369 LATE PREFETCHES: 0 DROPPED PREFETCHES: 0
LLC7 AVERAGE MISS LATENCY: 249.389 cycles

LLC7 Set Associative Eviction Count : 0
LLC7 Priority 0 entries : 12288
LLC7 Inter-Core Interference : 1083101
ROI Average ROB Stall Cycles:	13.5219
ROI Total ROB Stalls Cycles:	976758561
ROI TOTAL ROB counter      :	72235276
ROI Average Load ROB Stall Cycles:	34.7653
ROI Total Load ROB Stalls Cycle  :	341788365
ROI Total Load ROB stalls Counter:	9831300
Major fault: 0 Minor fault: 54306








Interconnect Stats 
LINK 0 BW : 0LINK 1 BW : 0LINK 2 BW : 0LINK 3 BW : 0LINK 4 BW : 0LINK 5 BW : 0LINK 6 BW : 0LINK 7 BW : 0
DRAM Statistics
 CHANNEL 0
 RQ ROW_BUFFER_HIT: 3082157  ROW_BUFFER_MISS: 18680495
 DBUS_CONGESTED: 15557140
 WQ ROW_BUFFER_HIT: 221372  ROW_BUFFER_MISS: 3820081  FULL:     0

 CHANNEL 1
 RQ ROW_BUFFER_HIT: 3071865  ROW_BUFFER_MISS: 18859468
 DBUS_CONGESTED: 15557140
 WQ ROW_BUFFER_HIT: 209928  ROW_BUFFER_MISS: 3822075  FULL:     0

 AVG_CONGESTED_CYCLE: 6
DRAM PAGES: 2097152
Allocated PAGES: 434459
L2C destructor called
L1D destructor called
L1I destructor called
STLB destructor called
DTLB destructor called
ITLB destructor called
L2C destructor called
L1D destructor called
L1I destructor called
STLB destructor called
DTLB destructor called
ITLB destructor called
L2C destructor called
L1D destructor called
L1I destructor called
STLB destructor called
DTLB destructor called
ITLB destructor called
L2C destructor called
L1D destructor called
L1I destructor called
STLB destructor called
DTLB destructor called
ITLB destructor called
L2C destructor called
L1D destructor called
L1I destructor called
STLB destructor called
DTLB destructor called
ITLB destructor called
L2C destructor called
L1D destructor called
L1I destructor called
STLB destructor called
DTLB destructor called
ITLB destructor called
L2C destructor called
L1D destructor called
L1I destructor called
STLB destructor called
DTLB destructor called
ITLB destructor called
L2C destructor called
L1D destructor called
L1I destructor called
STLB destructor called
DTLB destructor called
ITLB destructor called
