
*** ChampSim Multicore Out-of-Order Simulator ***

Warmup Instructions: 200000000
Simulation Instructions: 200000000
Number of CPUs: 8
threads:1

L1I Configuration:
L1I_SET:64
L1I_WAY:8
L1I_RQ_SIZE:64
L1I_WQ_SIZE:64
L1I_PQ_SIZE:8
L1I_MSHR_SIZE:8

L1D Configuration:
L1D_SET:64
L1D_WAY:12
L1D_RQ_SIZE:64
L1D_WQ_SIZE:64
L1D_PQ_SIZE:8
L1D_MSHR_SIZE:16

L2C Configuration:
L2C_SET:1024
L2C_WAY:8
L2C_RQ_SIZE:32
L2C_WQ_SIZE:32
L2C_PQ_SIZE:16
L2C_MSHR_SIZE:32

LLC Configuration:
LLC_SET:2048
LLC_WAY:12
LLC SLICES:8
LLC_RQ_SIZE:64
LLC_WQ_SIZE:64
LLC_PQ_SIZE:32
LLC_MSHR_SIZE:64

Interconnect OFF
Attacker deprioritize is: OFF
Off-chip DRAM Size: 8192 MB Channels: 2 Width: 64-bit Data Rate: 3200 MT/s
PAGE SIZE in KB: 4.000000 
PAGE SIZE in MB: 0.003906 
PAGE offset in bits: 12 
CEASER-S_LLC:0
MIRAGE : 1
CEASER_LATENCY:3
REMAP : OFF
Partitions : 1
Multi-Step : OFF
BFS : OFF

CPU 0 runs /home/anubhav/spec_2017/627.cam4_s-490B.champsimtrace.xz
CPU 1 runs /home/anubhav/spec_2017/627.cam4_s-490B.champsimtrace.xz
CPU 2 runs /home/anubhav/spec_2017/627.cam4_s-490B.champsimtrace.xz
CPU 3 runs /home/anubhav/spec_2017/627.cam4_s-490B.champsimtrace.xz
CPU 4 runs /home/anubhav/spec_2017/627.cam4_s-490B.champsimtrace.xz
CPU 5 runs /home/anubhav/spec_2017/627.cam4_s-490B.champsimtrace.xz
CPU 6 runs /home/anubhav/spec_2017/627.cam4_s-490B.champsimtrace.xz
CPU 7 runs /home/anubhav/spec_2017/627.cam4_s-490B.champsimtrace.xz
CPU 0 Bimodal branch predictor
Initialize Hawkeye state
Initialize Hawkeye state
Initialize Hawkeye state
Initialize Hawkeye state
Initialize Hawkeye state
Initialize Hawkeye state
Initialize Hawkeye state
Initialize Hawkeye state
CPU 1 Bimodal branch predictor
Initialize Hawkeye state
Initialize Hawkeye state
Initialize Hawkeye state
Initialize Hawkeye state
Initialize Hawkeye state
Initialize Hawkeye state
Initialize Hawkeye state
Initialize Hawkeye state
CPU 2 Bimodal branch predictor
Initialize Hawkeye state
Initialize Hawkeye state
Initialize Hawkeye state
Initialize Hawkeye state
Initialize Hawkeye state
Initialize Hawkeye state
Initialize Hawkeye state
Initialize Hawkeye state
CPU 3 Bimodal branch predictor
Initialize Hawkeye state
Initialize Hawkeye state
Initialize Hawkeye state
Initialize Hawkeye state
Initialize Hawkeye state
Initialize Hawkeye state
Initialize Hawkeye state
Initialize Hawkeye state
CPU 4 Bimodal branch predictor
Initialize Hawkeye state
Initialize Hawkeye state
Initialize Hawkeye state
Initialize Hawkeye state
Initialize Hawkeye state
Initialize Hawkeye state
Initialize Hawkeye state
Initialize Hawkeye state
CPU 5 Bimodal branch predictor
Initialize Hawkeye state
Initialize Hawkeye state
Initialize Hawkeye state
Initialize Hawkeye state
Initialize Hawkeye state
Initialize Hawkeye state
Initialize Hawkeye state
Initialize Hawkeye state
CPU 6 Bimodal branch predictor
Initialize Hawkeye state
Initialize Hawkeye state
Initialize Hawkeye state
Initialize Hawkeye state
Initialize Hawkeye state
Initialize Hawkeye state
Initialize Hawkeye state
Initialize Hawkeye state
CPU 7 Bimodal branch predictor
Initialize Hawkeye state
Initialize Hawkeye state
Initialize Hawkeye state
Initialize Hawkeye state
Initialize Hawkeye state
Initialize Hawkeye state
Initialize Hawkeye state
Initialize Hawkeye state
Heartbeat CPU 1 instructions: 10000001 cycles: 6485682 heartbeat IPC: 1.54186 cumulative IPC: 1.54186 (Simulation time: 0 hr 27 min 42 sec) 
 Total Blocks : 196608 Invalid Blocks : 10765 Valid Blocks : 185843
 Total Tags : 491520 Threshold : 12288 Invalid Tags : 207396 Pr0 Tags : 98281 Pr1 Tags : 185843 num_pr0 : 12286
 SAE Count : 0
 Inter-Core Inteference in Data Store : 337491
Heartbeat CPU 7 instructions: 10000001 cycles: 6485684 heartbeat IPC: 1.54186 cumulative IPC: 1.54186 (Simulation time: 0 hr 27 min 43 sec) 
 Total Blocks : 196608 Invalid Blocks : 10765 Valid Blocks : 185843
 Total Tags : 491520 Threshold : 12288 Invalid Tags : 207396 Pr0 Tags : 98281 Pr1 Tags : 185843 num_pr0 : 12286
 SAE Count : 0
 Inter-Core Inteference in Data Store : 337491
Heartbeat CPU 0 instructions: 10000001 cycles: 6485698 heartbeat IPC: 1.54185 cumulative IPC: 1.54185 (Simulation time: 0 hr 27 min 43 sec) 
 Total Blocks : 196608 Invalid Blocks : 10765 Valid Blocks : 185843
 Total Tags : 491520 Threshold : 12288 Invalid Tags : 207396 Pr0 Tags : 98281 Pr1 Tags : 185843 num_pr0 : 12286
 SAE Count : 0
 Inter-Core Inteference in Data Store : 337491
Heartbeat CPU 5 instructions: 10000001 cycles: 6485707 heartbeat IPC: 1.54185 cumulative IPC: 1.54185 (Simulation time: 0 hr 27 min 43 sec) 
 Total Blocks : 196608 Invalid Blocks : 10765 Valid Blocks : 185843
 Total Tags : 491520 Threshold : 12288 Invalid Tags : 207396 Pr0 Tags : 98281 Pr1 Tags : 185843 num_pr0 : 12286
 SAE Count : 0
 Inter-Core Inteference in Data Store : 337491
Heartbeat CPU 6 instructions: 10000001 cycles: 6485749 heartbeat IPC: 1.54184 cumulative IPC: 1.54184 (Simulation time: 0 hr 27 min 43 sec) 
 Total Blocks : 196608 Invalid Blocks : 10765 Valid Blocks : 185843
 Total Tags : 491520 Threshold : 12288 Invalid Tags : 207396 Pr0 Tags : 98281 Pr1 Tags : 185843 num_pr0 : 12286
 SAE Count : 0
 Inter-Core Inteference in Data Store : 337492
Heartbeat CPU 3 instructions: 10000001 cycles: 6485841 heartbeat IPC: 1.54182 cumulative IPC: 1.54182 (Simulation time: 0 hr 27 min 43 sec) 
 Total Blocks : 196608 Invalid Blocks : 10765 Valid Blocks : 185843
 Total Tags : 491520 Threshold : 12288 Invalid Tags : 207396 Pr0 Tags : 98281 Pr1 Tags : 185843 num_pr0 : 12286
 SAE Count : 0
 Inter-Core Inteference in Data Store : 337493
Heartbeat CPU 4 instructions: 10000001 cycles: 6485904 heartbeat IPC: 1.54181 cumulative IPC: 1.54181 (Simulation time: 0 hr 27 min 43 sec) 
 Total Blocks : 196608 Invalid Blocks : 10765 Valid Blocks : 185843
 Total Tags : 491520 Threshold : 12288 Invalid Tags : 207396 Pr0 Tags : 98281 Pr1 Tags : 185843 num_pr0 : 12286
 SAE Count : 0
 Inter-Core Inteference in Data Store : 337493
Heartbeat CPU 2 instructions: 10000001 cycles: 6486145 heartbeat IPC: 1.54175 cumulative IPC: 1.54175 (Simulation time: 0 hr 27 min 43 sec) 
 Total Blocks : 196608 Invalid Blocks : 10765 Valid Blocks : 185843
 Total Tags : 491520 Threshold : 12288 Invalid Tags : 207396 Pr0 Tags : 98281 Pr1 Tags : 185843 num_pr0 : 12286
 SAE Count : 0
 Inter-Core Inteference in Data Store : 337496
Heartbeat CPU 1 instructions: 20000002 cycles: 11677196 heartbeat IPC: 1.92622 cumulative IPC: 1.71274 (Simulation time: 0 hr 55 min 20 sec) 
 Total Blocks : 196608 Invalid Blocks : 1635 Valid Blocks : 194973
 Total Tags : 491520 Threshold : 12288 Invalid Tags : 198249 Pr0 Tags : 98298 Pr1 Tags : 194973 num_pr0 : 12286
 SAE Count : 0
 Inter-Core Inteference in Data Store : 658417
Heartbeat CPU 7 instructions: 20000002 cycles: 11677231 heartbeat IPC: 1.92621 cumulative IPC: 1.71273 (Simulation time: 0 hr 55 min 20 sec) 
 Total Blocks : 196608 Invalid Blocks : 1635 Valid Blocks : 194973
 Total Tags : 491520 Threshold : 12288 Invalid Tags : 198249 Pr0 Tags : 98298 Pr1 Tags : 194973 num_pr0 : 12286
 SAE Count : 0
 Inter-Core Inteference in Data Store : 658417
Heartbeat CPU 6 instructions: 20000002 cycles: 11677248 heartbeat IPC: 1.92623 cumulative IPC: 1.71273 (Simulation time: 0 hr 55 min 20 sec) 
 Total Blocks : 196608 Invalid Blocks : 1635 Valid Blocks : 194973
 Total Tags : 491520 Threshold : 12288 Invalid Tags : 198249 Pr0 Tags : 98298 Pr1 Tags : 194973 num_pr0 : 12286
 SAE Count : 0
 Inter-Core Inteference in Data Store : 658418
Heartbeat CPU 5 instructions: 20000002 cycles: 11677301 heartbeat IPC: 1.92619 cumulative IPC: 1.71272 (Simulation time: 0 hr 55 min 20 sec) 
 Total Blocks : 196608 Invalid Blocks : 1635 Valid Blocks : 194973
 Total Tags : 491520 Threshold : 12288 Invalid Tags : 198249 Pr0 Tags : 98298 Pr1 Tags : 194973 num_pr0 : 12286
 SAE Count : 0
 Inter-Core Inteference in Data Store : 658423
Heartbeat CPU 0 instructions: 20000002 cycles: 11677376 heartbeat IPC: 1.92616 cumulative IPC: 1.71271 (Simulation time: 0 hr 55 min 20 sec) 
 Total Blocks : 196608 Invalid Blocks : 1635 Valid Blocks : 194973
 Total Tags : 491520 Threshold : 12288 Invalid Tags : 198248 Pr0 Tags : 98299 Pr1 Tags : 194973 num_pr0 : 12286
 SAE Count : 0
 Inter-Core Inteference in Data Store : 658427
Heartbeat CPU 3 instructions: 20000002 cycles: 11677942 heartbeat IPC: 1.926 cumulative IPC: 1.71263 (Simulation time: 0 hr 55 min 20 sec) 
 Total Blocks : 196608 Invalid Blocks : 1635 Valid Blocks : 194973
 Total Tags : 491520 Threshold : 12288 Invalid Tags : 198250 Pr0 Tags : 98297 Pr1 Tags : 194973 num_pr0 : 12287
 SAE Count : 0
 Inter-Core Inteference in Data Store : 658457
Heartbeat CPU 4 instructions: 20000002 cycles: 11678189 heartbeat IPC: 1.92593 cumulative IPC: 1.71259 (Simulation time: 0 hr 55 min 20 sec) 
 Total Blocks : 196608 Invalid Blocks : 1635 Valid Blocks : 194973
 Total Tags : 491520 Threshold : 12288 Invalid Tags : 198249 Pr0 Tags : 98298 Pr1 Tags : 194973 num_pr0 : 12288
 SAE Count : 0
 Inter-Core Inteference in Data Store : 658464
Heartbeat CPU 2 instructions: 20000002 cycles: 11678377 heartbeat IPC: 1.92595 cumulative IPC: 1.71257 (Simulation time: 0 hr 55 min 20 sec) 
 Total Blocks : 196608 Invalid Blocks : 1635 Valid Blocks : 194973
 Total Tags : 491520 Threshold : 12288 Invalid Tags : 198249 Pr0 Tags : 98298 Pr1 Tags : 194973 num_pr0 : 12288
 SAE Count : 0
 Inter-Core Inteference in Data Store : 658468
Heartbeat CPU 6 instructions: 30000002 cycles: 18199697 heartbeat IPC: 1.53317 cumulative IPC: 1.64838 (Simulation time: 1 hr 21 min 4 sec) 
 Total Blocks : 196608 Invalid Blocks : 154 Valid Blocks : 196454
 Total Tags : 491520 Threshold : 12288 Invalid Tags : 196762 Pr0 Tags : 98304 Pr1 Tags : 196454 num_pr0 : 12288
 SAE Count : 0
 Inter-Core Inteference in Data Store : 1066214
Heartbeat CPU 0 instructions: 30000002 cycles: 18199802 heartbeat IPC: 1.53317 cumulative IPC: 1.64837 (Simulation time: 1 hr 21 min 4 sec) 
 Total Blocks : 196608 Invalid Blocks : 154 Valid Blocks : 196454
 Total Tags : 491520 Threshold : 12288 Invalid Tags : 196762 Pr0 Tags : 98304 Pr1 Tags : 196454 num_pr0 : 12288
 SAE Count : 0
 Inter-Core Inteference in Data Store : 1066228
Heartbeat CPU 7 instructions: 30000002 cycles: 18199892 heartbeat IPC: 1.53312 cumulative IPC: 1.64836 (Simulation time: 1 hr 21 min 4 sec) 
 Total Blocks : 196608 Invalid Blocks : 154 Valid Blocks : 196454
 Total Tags : 491520 Threshold : 12288 Invalid Tags : 196762 Pr0 Tags : 98304 Pr1 Tags : 196454 num_pr0 : 12288
 SAE Count : 0
 Inter-Core Inteference in Data Store : 1066234
Heartbeat CPU 5 instructions: 30000002 cycles: 18199909 heartbeat IPC: 1.53313 cumulative IPC: 1.64836 (Simulation time: 1 hr 21 min 4 sec) 
 Total Blocks : 196608 Invalid Blocks : 154 Valid Blocks : 196454
 Total Tags : 491520 Threshold : 12288 Invalid Tags : 196762 Pr0 Tags : 98304 Pr1 Tags : 196454 num_pr0 : 12288
 SAE Count : 0
 Inter-Core Inteference in Data Store : 1066234
Heartbeat CPU 1 instructions: 30000002 cycles: 18199952 heartbeat IPC: 1.53309 cumulative IPC: 1.64836 (Simulation time: 1 hr 21 min 4 sec) 
 Total Blocks : 196608 Invalid Blocks : 154 Valid Blocks : 196454
 Total Tags : 491520 Threshold : 12288 Invalid Tags : 196762 Pr0 Tags : 98304 Pr1 Tags : 196454 num_pr0 : 12288
 SAE Count : 0
 Inter-Core Inteference in Data Store : 1066239
Heartbeat CPU 3 instructions: 30000002 cycles: 18200538 heartbeat IPC: 1.53313 cumulative IPC: 1.6483 (Simulation time: 1 hr 21 min 5 sec) 
 Total Blocks : 196608 Invalid Blocks : 154 Valid Blocks : 196454
 Total Tags : 491520 Threshold : 12288 Invalid Tags : 196763 Pr0 Tags : 98303 Pr1 Tags : 196454 num_pr0 : 12288
 SAE Count : 0
 Inter-Core Inteference in Data Store : 1066305
Heartbeat CPU 4 instructions: 30000002 cycles: 18201095 heartbeat IPC: 1.53306 cumulative IPC: 1.64825 (Simulation time: 1 hr 21 min 5 sec) 
 Total Blocks : 196608 Invalid Blocks : 154 Valid Blocks : 196454
 Total Tags : 491520 Threshold : 12288 Invalid Tags : 196762 Pr0 Tags : 98304 Pr1 Tags : 196454 num_pr0 : 12288
 SAE Count : 0
 Inter-Core Inteference in Data Store : 1066368
Heartbeat CPU 2 instructions: 30000002 cycles: 18201774 heartbeat IPC: 1.53294 cumulative IPC: 1.64819 (Simulation time: 1 hr 21 min 5 sec) 
 Total Blocks : 196608 Invalid Blocks : 154 Valid Blocks : 196454
 Total Tags : 491520 Threshold : 12288 Invalid Tags : 196764 Pr0 Tags : 98302 Pr1 Tags : 196454 num_pr0 : 12288
 SAE Count : 0
 Inter-Core Inteference in Data Store : 1066448
Heartbeat CPU 6 instructions: 40000000 cycles: 23887837 heartbeat IPC: 1.75804 cumulative IPC: 1.67449 (Simulation time: 1 hr 45 min 4 sec) 
 Total Blocks : 196608 Invalid Blocks : 25 Valid Blocks : 196583
 Total Tags : 491520 Threshold : 12288 Invalid Tags : 196637 Pr0 Tags : 98300 Pr1 Tags : 196583 num_pr0 : 12287
 SAE Count : 0
 Inter-Core Inteference in Data Store : 1382689
Heartbeat CPU 0 instructions: 40000000 cycles: 23887841 heartbeat IPC: 1.75807 cumulative IPC: 1.67449 (Simulation time: 1 hr 45 min 5 sec) 
 Total Blocks : 196608 Invalid Blocks : 25 Valid Blocks : 196583
 Total Tags : 491520 Threshold : 12288 Invalid Tags : 196637 Pr0 Tags : 98300 Pr1 Tags : 196583 num_pr0 : 12287
 SAE Count : 0
 Inter-Core Inteference in Data Store : 1382689
Heartbeat CPU 5 instructions: 40000000 cycles: 23887956 heartbeat IPC: 1.75807 cumulative IPC: 1.67448 (Simulation time: 1 hr 45 min 5 sec) 
 Total Blocks : 196608 Invalid Blocks : 25 Valid Blocks : 196583
 Total Tags : 491520 Threshold : 12288 Invalid Tags : 196637 Pr0 Tags : 98300 Pr1 Tags : 196583 num_pr0 : 12287
 SAE Count : 0
 Inter-Core Inteference in Data Store : 1382690
Heartbeat CPU 1 instructions: 40000000 cycles: 23888146 heartbeat IPC: 1.75803 cumulative IPC: 1.67447 (Simulation time: 1 hr 45 min 5 sec) 
 Total Blocks : 196608 Invalid Blocks : 25 Valid Blocks : 196583
 Total Tags : 491520 Threshold : 12288 Invalid Tags : 196637 Pr0 Tags : 98300 Pr1 Tags : 196583 num_pr0 : 12287
 SAE Count : 0
 Inter-Core Inteference in Data Store : 1382690
Heartbeat CPU 7 instructions: 40000000 cycles: 23888172 heartbeat IPC: 1.758 cumulative IPC: 1.67447 (Simulation time: 1 hr 45 min 5 sec) 
 Total Blocks : 196608 Invalid Blocks : 25 Valid Blocks : 196583
 Total Tags : 491520 Threshold : 12288 Invalid Tags : 196636 Pr0 Tags : 98301 Pr1 Tags : 196583 num_pr0 : 12287
 SAE Count : 0
 Inter-Core Inteference in Data Store : 1382690
Heartbeat CPU 3 instructions: 40000000 cycles: 23888745 heartbeat IPC: 1.75802 cumulative IPC: 1.67443 (Simulation time: 1 hr 45 min 5 sec) 
 Total Blocks : 196608 Invalid Blocks : 25 Valid Blocks : 196583
 Total Tags : 491520 Threshold : 12288 Invalid Tags : 196636 Pr0 Tags : 98301 Pr1 Tags : 196583 num_pr0 : 12287
 SAE Count : 0
 Inter-Core Inteference in Data Store : 1382691
Heartbeat CPU 4 instructions: 40000000 cycles: 23889344 heartbeat IPC: 1.75801 cumulative IPC: 1.67439 (Simulation time: 1 hr 45 min 6 sec) 
 Total Blocks : 196608 Invalid Blocks : 25 Valid Blocks : 196583
 Total Tags : 491520 Threshold : 12288 Invalid Tags : 196636 Pr0 Tags : 98301 Pr1 Tags : 196583 num_pr0 : 12287
 SAE Count : 0
 Inter-Core Inteference in Data Store : 1382691
Heartbeat CPU 2 instructions: 40000000 cycles: 23890103 heartbeat IPC: 1.75799 cumulative IPC: 1.67433 (Simulation time: 1 hr 45 min 6 sec) 
 Total Blocks : 196608 Invalid Blocks : 25 Valid Blocks : 196583
 Total Tags : 491520 Threshold : 12288 Invalid Tags : 196636 Pr0 Tags : 98301 Pr1 Tags : 196583 num_pr0 : 12287
 SAE Count : 0
 Inter-Core Inteference in Data Store : 1382691
Heartbeat CPU 6 instructions: 50000000 cycles: 29609740 heartbeat IPC: 1.74767 cumulative IPC: 1.68863 (Simulation time: 2 hr 10 min 16 sec) 
 Total Blocks : 196608 Invalid Blocks : 3 Valid Blocks : 196605
 Total Tags : 491520 Threshold : 12288 Invalid Tags : 196613 Pr0 Tags : 98302 Pr1 Tags : 196605 num_pr0 : 12287
 SAE Count : 0
 Inter-Core Inteference in Data Store : 1806934
Heartbeat CPU 5 instructions: 50000000 cycles: 29609892 heartbeat IPC: 1.74766 cumulative IPC: 1.68862 (Simulation time: 2 hr 10 min 16 sec) 
 Total Blocks : 196608 Invalid Blocks : 3 Valid Blocks : 196605
 Total Tags : 491520 Threshold : 12288 Invalid Tags : 196613 Pr0 Tags : 98302 Pr1 Tags : 196605 num_pr0 : 12287
 SAE Count : 0
 Inter-Core Inteference in Data Store : 1806934
Heartbeat CPU 0 instructions: 50000000 cycles: 29610021 heartbeat IPC: 1.74759 cumulative IPC: 1.68862 (Simulation time: 2 hr 10 min 16 sec) 
 Total Blocks : 196608 Invalid Blocks : 3 Valid Blocks : 196605
 Total Tags : 491520 Threshold : 12288 Invalid Tags : 196613 Pr0 Tags : 98302 Pr1 Tags : 196605 num_pr0 : 12287
 SAE Count : 0
 Inter-Core Inteference in Data Store : 1806934
Heartbeat CPU 1 instructions: 50000000 cycles: 29610053 heartbeat IPC: 1.74767 cumulative IPC: 1.68862 (Simulation time: 2 hr 10 min 16 sec) 
 Total Blocks : 196608 Invalid Blocks : 3 Valid Blocks : 196605
 Total Tags : 491520 Threshold : 12288 Invalid Tags : 196613 Pr0 Tags : 98302 Pr1 Tags : 196605 num_pr0 : 12287
 SAE Count : 0
 Inter-Core Inteference in Data Store : 1806934
Heartbeat CPU 7 instructions: 50000000 cycles: 29610241 heartbeat IPC: 1.74762 cumulative IPC: 1.6886 (Simulation time: 2 hr 10 min 16 sec) 
 Total Blocks : 196608 Invalid Blocks : 3 Valid Blocks : 196605
 Total Tags : 491520 Threshold : 12288 Invalid Tags : 196613 Pr0 Tags : 98302 Pr1 Tags : 196605 num_pr0 : 12287
 SAE Count : 0
 Inter-Core Inteference in Data Store : 1806934
Heartbeat CPU 3 instructions: 50000000 cycles: 29610944 heartbeat IPC: 1.74758 cumulative IPC: 1.68856 (Simulation time: 2 hr 10 min 16 sec) 
 Total Blocks : 196608 Invalid Blocks : 3 Valid Blocks : 196605
 Total Tags : 491520 Threshold : 12288 Invalid Tags : 196612 Pr0 Tags : 98303 Pr1 Tags : 196605 num_pr0 : 12288
 SAE Count : 0
 Inter-Core Inteference in Data Store : 1806953
Heartbeat CPU 4 instructions: 50000000 cycles: 29611544 heartbeat IPC: 1.74758 cumulative IPC: 1.68853 (Simulation time: 2 hr 10 min 17 sec) 
 Total Blocks : 196608 Invalid Blocks : 3 Valid Blocks : 196605
 Total Tags : 491520 Threshold : 12288 Invalid Tags : 196614 Pr0 Tags : 98301 Pr1 Tags : 196605 num_pr0 : 12288
 SAE Count : 0
 Inter-Core Inteference in Data Store : 1807012
Heartbeat CPU 2 instructions: 50000000 cycles: 29612919 heartbeat IPC: 1.74739 cumulative IPC: 1.68845 (Simulation time: 2 hr 10 min 17 sec) 
 Total Blocks : 196608 Invalid Blocks : 3 Valid Blocks : 196605
 Total Tags : 491520 Threshold : 12288 Invalid Tags : 196611 Pr0 Tags : 98304 Pr1 Tags : 196605 num_pr0 : 12288
 SAE Count : 0
 Inter-Core Inteference in Data Store : 1807131
Heartbeat CPU 6 instructions: 60000003 cycles: 35609990 heartbeat IPC: 1.6666 cumulative IPC: 1.68492 (Simulation time: 2 hr 35 min 6 sec) 
 Total Blocks : 196608 Invalid Blocks : 0 Valid Blocks : 196608
 Total Tags : 491520 Threshold : 12288 Invalid Tags : 196612 Pr0 Tags : 98300 Pr1 Tags : 196608 num_pr0 : 12287
 SAE Count : 0
 Inter-Core Inteference in Data Store : 2209147
Heartbeat CPU 5 instructions: 60000003 cycles: 35610113 heartbeat IPC: 1.66661 cumulative IPC: 1.68491 (Simulation time: 2 hr 35 min 6 sec) 
 Total Blocks : 196608 Invalid Blocks : 0 Valid Blocks : 196608
 Total Tags : 491520 Threshold : 12288 Invalid Tags : 196619 Pr0 Tags : 98293 Pr1 Tags : 196608 num_pr0 : 12287
 SAE Count : 0
 Inter-Core Inteference in Data Store : 2209205
Heartbeat CPU 1 instructions: 60000001 cycles: 35610245 heartbeat IPC: 1.66661 cumulative IPC: 1.68491 (Simulation time: 2 hr 35 min 6 sec) 
 Total Blocks : 196608 Invalid Blocks : 0 Valid Blocks : 196608
 Total Tags : 491520 Threshold : 12288 Invalid Tags : 196614 Pr0 Tags : 98298 Pr1 Tags : 196608 num_pr0 : 12287
 SAE Count : 0
 Inter-Core Inteference in Data Store : 2209264
Heartbeat CPU 0 instructions: 60000003 cycles: 35610337 heartbeat IPC: 1.66658 cumulative IPC: 1.6849 (Simulation time: 2 hr 35 min 7 sec) 
 Total Blocks : 196608 Invalid Blocks : 0 Valid Blocks : 196608
 Total Tags : 491520 Threshold : 12288 Invalid Tags : 196618 Pr0 Tags : 98294 Pr1 Tags : 196608 num_pr0 : 12286
 SAE Count : 0
 Inter-Core Inteference in Data Store : 2209308
Heartbeat CPU 7 instructions: 60000003 cycles: 35610552 heartbeat IPC: 1.66658 cumulative IPC: 1.68489 (Simulation time: 2 hr 35 min 7 sec) 
 Total Blocks : 196608 Invalid Blocks : 0 Valid Blocks : 196608
 Total Tags : 491520 Threshold : 12288 Invalid Tags : 196616 Pr0 Tags : 98296 Pr1 Tags : 196608 num_pr0 : 12287
 SAE Count : 0
 Inter-Core Inteference in Data Store : 2209395
Heartbeat CPU 3 instructions: 60000003 cycles: 35611315 heartbeat IPC: 1.66656 cumulative IPC: 1.68486 (Simulation time: 2 hr 35 min 7 sec) 
 Total Blocks : 196608 Invalid Blocks : 0 Valid Blocks : 196608
 Total Tags : 491520 Threshold : 12288 Invalid Tags : 196617 Pr0 Tags : 98295 Pr1 Tags : 196608 num_pr0 : 12287
 SAE Count : 0
 Inter-Core Inteference in Data Store : 2209743
Heartbeat CPU 4 instructions: 60000003 cycles: 35611807 heartbeat IPC: 1.66659 cumulative IPC: 1.68483 (Simulation time: 2 hr 35 min 7 sec) 
 Total Blocks : 196608 Invalid Blocks : 0 Valid Blocks : 196608
 Total Tags : 491520 Threshold : 12288 Invalid Tags : 196617 Pr0 Tags : 98295 Pr1 Tags : 196608 num_pr0 : 12286
 SAE Count : 0
 Inter-Core Inteference in Data Store : 2209981
Heartbeat CPU 2 instructions: 60000003 cycles: 35613354 heartbeat IPC: 1.66655 cumulative IPC: 1.68476 (Simulation time: 2 hr 35 min 8 sec) 
 Total Blocks : 196608 Invalid Blocks : 0 Valid Blocks : 196608
 Total Tags : 491520 Threshold : 12288 Invalid Tags : 196622 Pr0 Tags : 98290 Pr1 Tags : 196608 num_pr0 : 12286
 SAE Count : 0
 Inter-Core Inteference in Data Store : 2210781
Heartbeat CPU 6 instructions: 70000000 cycles: 41387978 heartbeat IPC: 1.73071 cumulative IPC: 1.69131 (Simulation time: 2 hr 58 min 27 sec) 
 Total Blocks : 196608 Invalid Blocks : 0 Valid Blocks : 196608
 Total Tags : 491520 Threshold : 12288 Invalid Tags : 196615 Pr0 Tags : 98297 Pr1 Tags : 196608 num_pr0 : 12287
 SAE Count : 0
 Inter-Core Inteference in Data Store : 2572331
Heartbeat CPU 0 instructions: 70000000 cycles: 41388045 heartbeat IPC: 1.73079 cumulative IPC: 1.69131 (Simulation time: 2 hr 58 min 27 sec) 
 Total Blocks : 196608 Invalid Blocks : 0 Valid Blocks : 196608
 Total Tags : 491520 Threshold : 12288 Invalid Tags : 196615 Pr0 Tags : 98297 Pr1 Tags : 196608 num_pr0 : 12287
 SAE Count : 0
 Inter-Core Inteference in Data Store : 2572332
Heartbeat CPU 5 instructions: 70000000 cycles: 41388102 heartbeat IPC: 1.73071 cumulative IPC: 1.69131 (Simulation time: 2 hr 58 min 27 sec) 
 Total Blocks : 196608 Invalid Blocks : 0 Valid Blocks : 196608
 Total Tags : 491520 Threshold : 12288 Invalid Tags : 196615 Pr0 Tags : 98297 Pr1 Tags : 196608 num_pr0 : 12287
 SAE Count : 0
 Inter-Core Inteference in Data Store : 2572332
Heartbeat CPU 1 instructions: 70000000 cycles: 41388128 heartbeat IPC: 1.73074 cumulative IPC: 1.69131 (Simulation time: 2 hr 58 min 27 sec) 
 Total Blocks : 196608 Invalid Blocks : 0 Valid Blocks : 196608
 Total Tags : 491520 Threshold : 12288 Invalid Tags : 196615 Pr0 Tags : 98297 Pr1 Tags : 196608 num_pr0 : 12287
 SAE Count : 0
 Inter-Core Inteference in Data Store : 2572332
Heartbeat CPU 7 instructions: 70000000 cycles: 41388567 heartbeat IPC: 1.7307 cumulative IPC: 1.69129 (Simulation time: 2 hr 58 min 27 sec) 
 Total Blocks : 196608 Invalid Blocks : 0 Valid Blocks : 196608
 Total Tags : 491520 Threshold : 12288 Invalid Tags : 196617 Pr0 Tags : 98295 Pr1 Tags : 196608 num_pr0 : 12287
 SAE Count : 0
 Inter-Core Inteference in Data Store : 2572336
Heartbeat CPU 3 instructions: 70000000 cycles: 41389169 heartbeat IPC: 1.73075 cumulative IPC: 1.69126 (Simulation time: 2 hr 58 min 27 sec) 
 Total Blocks : 196608 Invalid Blocks : 0 Valid Blocks : 196608
 Total Tags : 491520 Threshold : 12288 Invalid Tags : 196618 Pr0 Tags : 98294 Pr1 Tags : 196608 num_pr0 : 12287
 SAE Count : 0
 Inter-Core Inteference in Data Store : 2572347
Heartbeat CPU 4 instructions: 70000000 cycles: 41389839 heartbeat IPC: 1.73069 cumulative IPC: 1.69124 (Simulation time: 2 hr 58 min 28 sec) 
 Total Blocks : 196608 Invalid Blocks : 0 Valid Blocks : 196608
 Total Tags : 491520 Threshold : 12288 Invalid Tags : 196616 Pr0 Tags : 98296 Pr1 Tags : 196608 num_pr0 : 12288
 SAE Count : 0
 Inter-Core Inteference in Data Store : 2572361
Heartbeat CPU 2 instructions: 70000000 cycles: 41392134 heartbeat IPC: 1.73047 cumulative IPC: 1.69114 (Simulation time: 2 hr 58 min 28 sec) 
 Total Blocks : 196608 Invalid Blocks : 0 Valid Blocks : 196608
 Total Tags : 491520 Threshold : 12288 Invalid Tags : 196613 Pr0 Tags : 98299 Pr1 Tags : 196608 num_pr0 : 12288
 SAE Count : 0
 Inter-Core Inteference in Data Store : 2572402
Heartbeat CPU 5 instructions: 80000002 cycles: 47459984 heartbeat IPC: 1.64694 cumulative IPC: 1.68563 (Simulation time: 3 hr 21 min 42 sec) 
 Total Blocks : 196608 Invalid Blocks : 0 Valid Blocks : 196608
 Total Tags : 491520 Threshold : 12288 Invalid Tags : 196615 Pr0 Tags : 98297 Pr1 Tags : 196608 num_pr0 : 12287
 SAE Count : 0
 Inter-Core Inteference in Data Store : 2949524
Heartbeat CPU 0 instructions: 80000002 cycles: 47460032 heartbeat IPC: 1.64691 cumulative IPC: 1.68563 (Simulation time: 3 hr 21 min 42 sec) 
 Total Blocks : 196608 Invalid Blocks : 0 Valid Blocks : 196608
 Total Tags : 491520 Threshold : 12288 Invalid Tags : 196615 Pr0 Tags : 98297 Pr1 Tags : 196608 num_pr0 : 12287
 SAE Count : 0
 Inter-Core Inteference in Data Store : 2949537
Heartbeat CPU 6 instructions: 80000002 cycles: 47460221 heartbeat IPC: 1.64684 cumulative IPC: 1.68562 (Simulation time: 3 hr 21 min 42 sec) 
 Total Blocks : 196608 Invalid Blocks : 0 Valid Blocks : 196608
 Total Tags : 491520 Threshold : 12288 Invalid Tags : 196614 Pr0 Tags : 98298 Pr1 Tags : 196608 num_pr0 : 12288
 SAE Count : 0
 Inter-Core Inteference in Data Store : 2949562
Heartbeat CPU 1 instructions: 80000002 cycles: 47460327 heartbeat IPC: 1.64685 cumulative IPC: 1.68562 (Simulation time: 3 hr 21 min 42 sec) 
 Total Blocks : 196608 Invalid Blocks : 0 Valid Blocks : 196608
 Total Tags : 491520 Threshold : 12288 Invalid Tags : 196611 Pr0 Tags : 98301 Pr1 Tags : 196608 num_pr0 : 12288
 SAE Count : 0
 Inter-Core Inteference in Data Store : 2949570
Heartbeat CPU 7 instructions: 80000002 cycles: 47460592 heartbeat IPC: 1.6469 cumulative IPC: 1.68561 (Simulation time: 3 hr 21 min 42 sec) 
 Total Blocks : 196608 Invalid Blocks : 0 Valid Blocks : 196608
 Total Tags : 491520 Threshold : 12288 Invalid Tags : 196610 Pr0 Tags : 98302 Pr1 Tags : 196608 num_pr0 : 12287
 SAE Count : 0
 Inter-Core Inteference in Data Store : 2949608
Heartbeat CPU 3 instructions: 80000002 cycles: 47461472 heartbeat IPC: 1.64682 cumulative IPC: 1.68558 (Simulation time: 3 hr 21 min 43 sec) 
 Total Blocks : 196608 Invalid Blocks : 0 Valid Blocks : 196608
 Total Tags : 491520 Threshold : 12288 Invalid Tags : 196614 Pr0 Tags : 98298 Pr1 Tags : 196608 num_pr0 : 12287
 SAE Count : 0
 Inter-Core Inteference in Data Store : 2949728
Heartbeat CPU 4 instructions: 80000002 cycles: 47462256 heartbeat IPC: 1.64679 cumulative IPC: 1.68555 (Simulation time: 3 hr 21 min 43 sec) 
 Total Blocks : 196608 Invalid Blocks : 0 Valid Blocks : 196608
 Total Tags : 491520 Threshold : 12288 Invalid Tags : 196617 Pr0 Tags : 98295 Pr1 Tags : 196608 num_pr0 : 12287
 SAE Count : 0
 Inter-Core Inteference in Data Store : 2949840
Heartbeat CPU 2 instructions: 80000002 cycles: 47464651 heartbeat IPC: 1.64676 cumulative IPC: 1.68546 (Simulation time: 3 hr 21 min 45 sec) 
 Total Blocks : 196608 Invalid Blocks : 0 Valid Blocks : 196608
 Total Tags : 491520 Threshold : 12288 Invalid Tags : 196612 Pr0 Tags : 98300 Pr1 Tags : 196608 num_pr0 : 12287
 SAE Count : 0
 Inter-Core Inteference in Data Store : 2950185
FILL
Heartbeat CPU 0 instructions: 90000000 cycles: 53299145 heartbeat IPC: 1.71259 cumulative IPC: 1.68858 (Simulation time: 3 hr 43 min 48 sec) 
 Total Blocks : 196608 Invalid Blocks : 0 Valid Blocks : 196608
 Total Tags : 491520 Threshold : 12288 Invalid Tags : 196608 Pr0 Tags : 98304 Pr1 Tags : 196608 num_pr0 : 12288
 SAE Count : 0
 Inter-Core Inteference in Data Store : 3294312
Heartbeat CPU 5 instructions: 90000000 cycles: 53299303 heartbeat IPC: 1.71253 cumulative IPC: 1.68858 (Simulation time: 3 hr 43 min 48 sec) 
 Total Blocks : 196608 Invalid Blocks : 0 Valid Blocks : 196608
 Total Tags : 491520 Threshold : 12288 Invalid Tags : 196608 Pr0 Tags : 98304 Pr1 Tags : 196608 num_pr0 : 12288
 SAE Count : 0
 Inter-Core Inteference in Data Store : 3294312
Heartbeat CPU 6 instructions: 90000000 cycles: 53299421 heartbeat IPC: 1.71256 cumulative IPC: 1.68857 (Simulation time: 3 hr 43 min 48 sec) 
 Total Blocks : 196608 Invalid Blocks : 0 Valid Blocks : 196608
 Total Tags : 491520 Threshold : 12288 Invalid Tags : 196608 Pr0 Tags : 98304 Pr1 Tags : 196608 num_pr0 : 12288
 SAE Count : 0
 Inter-Core Inteference in Data Store : 3294312
Heartbeat CPU 1 instructions: 90000000 cycles: 53299512 heartbeat IPC: 1.71257 cumulative IPC: 1.68857 (Simulation time: 3 hr 43 min 49 sec) 
 Total Blocks : 196608 Invalid Blocks : 0 Valid Blocks : 196608
 Total Tags : 491520 Threshold : 12288 Invalid Tags : 196608 Pr0 Tags : 98304 Pr1 Tags : 196608 num_pr0 : 12288
 SAE Count : 0
 Inter-Core Inteference in Data Store : 3294312
Heartbeat CPU 7 instructions: 90000000 cycles: 53299926 heartbeat IPC: 1.71252 cumulative IPC: 1.68856 (Simulation time: 3 hr 43 min 49 sec) 
 Total Blocks : 196608 Invalid Blocks : 0 Valid Blocks : 196608
 Total Tags : 491520 Threshold : 12288 Invalid Tags : 196608 Pr0 Tags : 98304 Pr1 Tags : 196608 num_pr0 : 12288
 SAE Count : 0
 Inter-Core Inteference in Data Store : 3294312
Heartbeat CPU 3 instructions: 90000000 cycles: 53300678 heartbeat IPC: 1.71256 cumulative IPC: 1.68853 (Simulation time: 3 hr 43 min 49 sec) 
 Total Blocks : 196608 Invalid Blocks : 0 Valid Blocks : 196608
 Total Tags : 491520 Threshold : 12288 Invalid Tags : 196608 Pr0 Tags : 98304 Pr1 Tags : 196608 num_pr0 : 12288
 SAE Count : 0
 Inter-Core Inteference in Data Store : 3294312
Heartbeat CPU 4 instructions: 90000000 cycles: 53301565 heartbeat IPC: 1.71253 cumulative IPC: 1.68851 (Simulation time: 3 hr 43 min 49 sec) 
 Total Blocks : 196608 Invalid Blocks : 0 Valid Blocks : 196608
 Total Tags : 491520 Threshold : 12288 Invalid Tags : 196608 Pr0 Tags : 98304 Pr1 Tags : 196608 num_pr0 : 12288
 SAE Count : 0
 Inter-Core Inteference in Data Store : 3294312
Heartbeat CPU 2 instructions: 90000000 cycles: 53304333 heartbeat IPC: 1.71242 cumulative IPC: 1.68842 (Simulation time: 3 hr 43 min 49 sec) 
 Total Blocks : 196608 Invalid Blocks : 0 Valid Blocks : 196608
 Total Tags : 491520 Threshold : 12288 Invalid Tags : 196608 Pr0 Tags : 98304 Pr1 Tags : 196608 num_pr0 : 12288
 SAE Count : 0
 Inter-Core Inteference in Data Store : 3294312
Heartbeat CPU 5 instructions: 100000001 cycles: 59601206 heartbeat IPC: 1.58682 cumulative IPC: 1.67782 (Simulation time: 4 hr 5 min 38 sec) 
 Total Blocks : 196608 Invalid Blocks : 0 Valid Blocks : 196608
 Total Tags : 491520 Threshold : 12288 Invalid Tags : 196613 Pr0 Tags : 98299 Pr1 Tags : 196608 num_pr0 : 12288
 SAE Count : 0
 Inter-Core Inteference in Data Store : 3679624
Heartbeat CPU 0 instructions: 100000001 cycles: 59601222 heartbeat IPC: 1.58678 cumulative IPC: 1.67782 (Simulation time: 4 hr 5 min 38 sec) 
 Total Blocks : 196608 Invalid Blocks : 0 Valid Blocks : 196608
 Total Tags : 491520 Threshold : 12288 Invalid Tags : 196613 Pr0 Tags : 98299 Pr1 Tags : 196608 num_pr0 : 12288
 SAE Count : 0
 Inter-Core Inteference in Data Store : 3679624
Heartbeat CPU 6 instructions: 100000001 cycles: 59601327 heartbeat IPC: 1.58682 cumulative IPC: 1.67781 (Simulation time: 4 hr 5 min 38 sec) 
 Total Blocks : 196608 Invalid Blocks : 0 Valid Blocks : 196608
 Total Tags : 491520 Threshold : 12288 Invalid Tags : 196613 Pr0 Tags : 98299 Pr1 Tags : 196608 num_pr0 : 12288
 SAE Count : 0
 Inter-Core Inteference in Data Store : 3679624
Heartbeat CPU 1 instructions: 100000001 cycles: 59601443 heartbeat IPC: 1.58682 cumulative IPC: 1.67781 (Simulation time: 4 hr 5 min 38 sec) 
 Total Blocks : 196608 Invalid Blocks : 0 Valid Blocks : 196608
 Total Tags : 491520 Threshold : 12288 Invalid Tags : 196613 Pr0 Tags : 98299 Pr1 Tags : 196608 num_pr0 : 12288
 SAE Count : 0
 Inter-Core Inteference in Data Store : 3679624
Heartbeat CPU 7 instructions: 100000001 cycles: 59601928 heartbeat IPC: 1.5868 cumulative IPC: 1.6778 (Simulation time: 4 hr 5 min 38 sec) 
 Total Blocks : 196608 Invalid Blocks : 0 Valid Blocks : 196608
 Total Tags : 491520 Threshold : 12288 Invalid Tags : 196613 Pr0 Tags : 98299 Pr1 Tags : 196608 num_pr0 : 12288
 SAE Count : 0
 Inter-Core Inteference in Data Store : 3679624
Heartbeat CPU 3 instructions: 100000001 cycles: 59603045 heartbeat IPC: 1.58671 cumulative IPC: 1.67777 (Simulation time: 4 hr 5 min 39 sec) 
 Total Blocks : 196608 Invalid Blocks : 0 Valid Blocks : 196608
 Total Tags : 491520 Threshold : 12288 Invalid Tags : 196619 Pr0 Tags : 98293 Pr1 Tags : 196608 num_pr0 : 12287
 SAE Count : 0
 Inter-Core Inteference in Data Store : 3679645
Heartbeat CPU 4 instructions: 100000001 cycles: 59603860 heartbeat IPC: 1.58672 cumulative IPC: 1.67774 (Simulation time: 4 hr 5 min 39 sec) 
 Total Blocks : 196608 Invalid Blocks : 0 Valid Blocks : 196608
 Total Tags : 491520 Threshold : 12288 Invalid Tags : 196617 Pr0 Tags : 98295 Pr1 Tags : 196608 num_pr0 : 12287
 SAE Count : 0
 Inter-Core Inteference in Data Store : 3679657
Heartbeat CPU 2 instructions: 100000001 cycles: 59606782 heartbeat IPC: 1.58668 cumulative IPC: 1.67766 (Simulation time: 4 hr 5 min 39 sec) 
 Total Blocks : 196608 Invalid Blocks : 0 Valid Blocks : 196608
 Total Tags : 491520 Threshold : 12288 Invalid Tags : 196617 Pr0 Tags : 98295 Pr1 Tags : 196608 num_pr0 : 12287
 SAE Count : 0
 Inter-Core Inteference in Data Store : 3679659
Heartbeat CPU 0 instructions: 110000000 cycles: 65286579 heartbeat IPC: 1.7589 cumulative IPC: 1.68488 (Simulation time: 4 hr 28 min 10 sec) 
 Total Blocks : 196608 Invalid Blocks : 0 Valid Blocks : 196608
 Total Tags : 491520 Threshold : 12288 Invalid Tags : 196624 Pr0 Tags : 98288 Pr1 Tags : 196608 num_pr0 : 12286
 SAE Count : 0
 Inter-Core Inteference in Data Store : 4120772
Heartbeat CPU 5 instructions: 110000000 cycles: 65286676 heartbeat IPC: 1.75887 cumulative IPC: 1.68488 (Simulation time: 4 hr 28 min 10 sec) 
 Total Blocks : 196608 Invalid Blocks : 0 Valid Blocks : 196608
 Total Tags : 491520 Threshold : 12288 Invalid Tags : 196624 Pr0 Tags : 98288 Pr1 Tags : 196608 num_pr0 : 12286
 SAE Count : 0
 Inter-Core Inteference in Data Store : 4120772
Heartbeat CPU 6 instructions: 110000000 cycles: 65286899 heartbeat IPC: 1.75884 cumulative IPC: 1.68487 (Simulation time: 4 hr 28 min 10 sec) 
 Total Blocks : 196608 Invalid Blocks : 0 Valid Blocks : 196608
 Total Tags : 491520 Threshold : 12288 Invalid Tags : 196624 Pr0 Tags : 98288 Pr1 Tags : 196608 num_pr0 : 12286
 SAE Count : 0
 Inter-Core Inteference in Data Store : 4120773
Heartbeat CPU 1 instructions: 110000000 cycles: 65286998 heartbeat IPC: 1.75884 cumulative IPC: 1.68487 (Simulation time: 4 hr 28 min 11 sec) 
 Total Blocks : 196608 Invalid Blocks : 0 Valid Blocks : 196608
 Total Tags : 491520 Threshold : 12288 Invalid Tags : 196624 Pr0 Tags : 98288 Pr1 Tags : 196608 num_pr0 : 12286
 SAE Count : 0
 Inter-Core Inteference in Data Store : 4120773
Heartbeat CPU 7 instructions: 110000000 cycles: 65287406 heartbeat IPC: 1.75887 cumulative IPC: 1.68486 (Simulation time: 4 hr 28 min 11 sec) 
 Total Blocks : 196608 Invalid Blocks : 0 Valid Blocks : 196608
 Total Tags : 491520 Threshold : 12288 Invalid Tags : 196624 Pr0 Tags : 98288 Pr1 Tags : 196608 num_pr0 : 12286
 SAE Count : 0
 Inter-Core Inteference in Data Store : 4120774
Heartbeat CPU 3 instructions: 110000000 cycles: 65288453 heartbeat IPC: 1.75889 cumulative IPC: 1.68483 (Simulation time: 4 hr 28 min 11 sec) 
 Total Blocks : 196608 Invalid Blocks : 0 Valid Blocks : 196608
 Total Tags : 491520 Threshold : 12288 Invalid Tags : 196624 Pr0 Tags : 98288 Pr1 Tags : 196608 num_pr0 : 12286
 SAE Count : 0
 Inter-Core Inteference in Data Store : 4120776
Heartbeat CPU 4 instructions: 110000000 cycles: 65289150 heartbeat IPC: 1.75893 cumulative IPC: 1.68481 (Simulation time: 4 hr 28 min 11 sec) 
 Total Blocks : 196608 Invalid Blocks : 0 Valid Blocks : 196608
 Total Tags : 491520 Threshold : 12288 Invalid Tags : 196624 Pr0 Tags : 98288 Pr1 Tags : 196608 num_pr0 : 12286
 SAE Count : 0
 Inter-Core Inteference in Data Store : 4120778
Heartbeat CPU 2 instructions: 110000000 cycles: 65292355 heartbeat IPC: 1.75884 cumulative IPC: 1.68473 (Simulation time: 4 hr 28 min 11 sec) 
 Total Blocks : 196608 Invalid Blocks : 0 Valid Blocks : 196608
 Total Tags : 491520 Threshold : 12288 Invalid Tags : 196624 Pr0 Tags : 98288 Pr1 Tags : 196608 num_pr0 : 12286
 SAE Count : 0
 Inter-Core Inteference in Data Store : 4120793
Heartbeat CPU 0 instructions: 120000000 cycles: 71695723 heartbeat IPC: 1.56027 cumulative IPC: 1.67374 (Simulation time: 4 hr 49 min 40 sec) 
 Total Blocks : 196608 Invalid Blocks : 0 Valid Blocks : 196608
 Total Tags : 491520 Threshold : 12288 Invalid Tags : 196624 Pr0 Tags : 98288 Pr1 Tags : 196608 num_pr0 : 12286
 SAE Count : 0
 Inter-Core Inteference in Data Store : 4517614
Heartbeat CPU 5 instructions: 120000000 cycles: 71695917 heartbeat IPC: 1.56025 cumulative IPC: 1.67374 (Simulation time: 4 hr 49 min 40 sec) 
 Total Blocks : 196608 Invalid Blocks : 0 Valid Blocks : 196608
 Total Tags : 491520 Threshold : 12288 Invalid Tags : 196624 Pr0 Tags : 98288 Pr1 Tags : 196608 num_pr0 : 12286
 SAE Count : 0
 Inter-Core Inteference in Data Store : 4517614
Heartbeat CPU 6 instructions: 120000000 cycles: 71696032 heartbeat IPC: 1.56027 cumulative IPC: 1.67373 (Simulation time: 4 hr 49 min 40 sec) 
 Total Blocks : 196608 Invalid Blocks : 0 Valid Blocks : 196608
 Total Tags : 491520 Threshold : 12288 Invalid Tags : 196624 Pr0 Tags : 98288 Pr1 Tags : 196608 num_pr0 : 12286
 SAE Count : 0
 Inter-Core Inteference in Data Store : 4517614
Heartbeat CPU 1 instructions: 120000000 cycles: 71696127 heartbeat IPC: 1.56027 cumulative IPC: 1.67373 (Simulation time: 4 hr 49 min 41 sec) 
 Total Blocks : 196608 Invalid Blocks : 0 Valid Blocks : 196608
 Total Tags : 491520 Threshold : 12288 Invalid Tags : 196624 Pr0 Tags : 98288 Pr1 Tags : 196608 num_pr0 : 12286
 SAE Count : 0
 Inter-Core Inteference in Data Store : 4517614
Heartbeat CPU 7 instructions: 120000000 cycles: 71696515 heartbeat IPC: 1.56028 cumulative IPC: 1.67372 (Simulation time: 4 hr 49 min 41 sec) 
 Total Blocks : 196608 Invalid Blocks : 0 Valid Blocks : 196608
 Total Tags : 491520 Threshold : 12288 Invalid Tags : 196624 Pr0 Tags : 98288 Pr1 Tags : 196608 num_pr0 : 12286
 SAE Count : 0
 Inter-Core Inteference in Data Store : 4517614
Heartbeat CPU 3 instructions: 120000000 cycles: 71697715 heartbeat IPC: 1.56024 cumulative IPC: 1.67369 (Simulation time: 4 hr 49 min 41 sec) 
 Total Blocks : 196608 Invalid Blocks : 0 Valid Blocks : 196608
 Total Tags : 491520 Threshold : 12288 Invalid Tags : 196624 Pr0 Tags : 98288 Pr1 Tags : 196608 num_pr0 : 12286
 SAE Count : 0
 Inter-Core Inteference in Data Store : 4517614
Heartbeat CPU 4 instructions: 120000000 cycles: 71698498 heartbeat IPC: 1.56022 cumulative IPC: 1.67368 (Simulation time: 4 hr 49 min 41 sec) 
 Total Blocks : 196608 Invalid Blocks : 0 Valid Blocks : 196608
 Total Tags : 491520 Threshold : 12288 Invalid Tags : 196624 Pr0 Tags : 98288 Pr1 Tags : 196608 num_pr0 : 12286
 SAE Count : 0
 Inter-Core Inteference in Data Store : 4517614
Heartbeat CPU 2 instructions: 120000000 cycles: 71701654 heartbeat IPC: 1.56023 cumulative IPC: 1.6736 (Simulation time: 4 hr 49 min 41 sec) 
 Total Blocks : 196608 Invalid Blocks : 0 Valid Blocks : 196608
 Total Tags : 491520 Threshold : 12288 Invalid Tags : 196624 Pr0 Tags : 98288 Pr1 Tags : 196608 num_pr0 : 12286
 SAE Count : 0
 Inter-Core Inteference in Data Store : 4517616
Heartbeat CPU 0 instructions: 130000000 cycles: 77770172 heartbeat IPC: 1.64624 cumulative IPC: 1.67159 (Simulation time: 5 hr 10 min 26 sec) 
 Total Blocks : 196608 Invalid Blocks : 0 Valid Blocks : 196608
 Total Tags : 491520 Threshold : 12288 Invalid Tags : 196608 Pr0 Tags : 98304 Pr1 Tags : 196608 num_pr0 : 12288
 SAE Count : 0
 Inter-Core Inteference in Data Store : 4868433
Heartbeat CPU 6 instructions: 130000000 cycles: 77770416 heartbeat IPC: 1.64626 cumulative IPC: 1.67159 (Simulation time: 5 hr 10 min 26 sec) 
 Total Blocks : 196608 Invalid Blocks : 0 Valid Blocks : 196608
 Total Tags : 491520 Threshold : 12288 Invalid Tags : 196608 Pr0 Tags : 98304 Pr1 Tags : 196608 num_pr0 : 12288
 SAE Count : 0
 Inter-Core Inteference in Data Store : 4868443
Heartbeat CPU 5 instructions: 130000000 cycles: 77770428 heartbeat IPC: 1.64622 cumulative IPC: 1.67159 (Simulation time: 5 hr 10 min 26 sec) 
 Total Blocks : 196608 Invalid Blocks : 0 Valid Blocks : 196608
 Total Tags : 491520 Threshold : 12288 Invalid Tags : 196608 Pr0 Tags : 98304 Pr1 Tags : 196608 num_pr0 : 12288
 SAE Count : 0
 Inter-Core Inteference in Data Store : 4868444
Heartbeat CPU 1 instructions: 130000000 cycles: 77770762 heartbeat IPC: 1.64619 cumulative IPC: 1.67158 (Simulation time: 5 hr 10 min 26 sec) 
 Total Blocks : 196608 Invalid Blocks : 0 Valid Blocks : 196608
 Total Tags : 491520 Threshold : 12288 Invalid Tags : 196608 Pr0 Tags : 98304 Pr1 Tags : 196608 num_pr0 : 12288
 SAE Count : 0
 Inter-Core Inteference in Data Store : 4868452
Heartbeat CPU 7 instructions: 130000000 cycles: 77771168 heartbeat IPC: 1.64618 cumulative IPC: 1.67157 (Simulation time: 5 hr 10 min 26 sec) 
 Total Blocks : 196608 Invalid Blocks : 0 Valid Blocks : 196608
 Total Tags : 491520 Threshold : 12288 Invalid Tags : 196608 Pr0 Tags : 98304 Pr1 Tags : 196608 num_pr0 : 12288
 SAE Count : 0
 Inter-Core Inteference in Data Store : 4868465
Heartbeat CPU 3 instructions: 130000000 cycles: 77772209 heartbeat IPC: 1.64623 cumulative IPC: 1.67155 (Simulation time: 5 hr 10 min 27 sec) 
 Total Blocks : 196608 Invalid Blocks : 0 Valid Blocks : 196608
 Total Tags : 491520 Threshold : 12288 Invalid Tags : 196608 Pr0 Tags : 98304 Pr1 Tags : 196608 num_pr0 : 12288
 SAE Count : 0
 Inter-Core Inteference in Data Store : 4868505
Heartbeat CPU 4 instructions: 130000000 cycles: 77773288 heartbeat IPC: 1.64615 cumulative IPC: 1.67153 (Simulation time: 5 hr 10 min 27 sec) 
 Total Blocks : 196608 Invalid Blocks : 0 Valid Blocks : 196608
 Total Tags : 491520 Threshold : 12288 Invalid Tags : 196608 Pr0 Tags : 98304 Pr1 Tags : 196608 num_pr0 : 12288
 SAE Count : 0
 Inter-Core Inteference in Data Store : 4868538
Heartbeat CPU 2 instructions: 130000000 cycles: 77776273 heartbeat IPC: 1.64619 cumulative IPC: 1.67146 (Simulation time: 5 hr 10 min 29 sec) 
 Total Blocks : 196608 Invalid Blocks : 0 Valid Blocks : 196608
 Total Tags : 491520 Threshold : 12288 Invalid Tags : 196608 Pr0 Tags : 98304 Pr1 Tags : 196608 num_pr0 : 12288
 SAE Count : 0
 Inter-Core Inteference in Data Store : 4868696
Heartbeat CPU 0 instructions: 140000003 cycles: 84096712 heartbeat IPC: 1.58064 cumulative IPC: 1.66475 (Simulation time: 5 hr 32 min 42 sec) 
 Total Blocks : 196608 Invalid Blocks : 0 Valid Blocks : 196608
 Total Tags : 491520 Threshold : 12288 Invalid Tags : 196608 Pr0 Tags : 98304 Pr1 Tags : 196608 num_pr0 : 12288
 SAE Count : 0
 Inter-Core Inteference in Data Store : 5276955
Heartbeat CPU 6 instructions: 140000003 cycles: 84097096 heartbeat IPC: 1.58061 cumulative IPC: 1.66474 (Simulation time: 5 hr 32 min 43 sec) 
 Total Blocks : 196608 Invalid Blocks : 0 Valid Blocks : 196608
 Total Tags : 491520 Threshold : 12288 Invalid Tags : 196608 Pr0 Tags : 98304 Pr1 Tags : 196608 num_pr0 : 12288
 SAE Count : 0
 Inter-Core Inteference in Data Store : 5276955
Heartbeat CPU 5 instructions: 140000003 cycles: 84097184 heartbeat IPC: 1.58059 cumulative IPC: 1.66474 (Simulation time: 5 hr 32 min 43 sec) 
 Total Blocks : 196608 Invalid Blocks : 0 Valid Blocks : 196608
 Total Tags : 491520 Threshold : 12288 Invalid Tags : 196608 Pr0 Tags : 98304 Pr1 Tags : 196608 num_pr0 : 12288
 SAE Count : 0
 Inter-Core Inteference in Data Store : 5276955
Heartbeat CPU 1 instructions: 140000003 cycles: 84097220 heartbeat IPC: 1.58066 cumulative IPC: 1.66474 (Simulation time: 5 hr 32 min 43 sec) 
 Total Blocks : 196608 Invalid Blocks : 0 Valid Blocks : 196608
 Total Tags : 491520 Threshold : 12288 Invalid Tags : 196608 Pr0 Tags : 98304 Pr1 Tags : 196608 num_pr0 : 12288
 SAE Count : 0
 Inter-Core Inteference in Data Store : 5276955
Heartbeat CPU 7 instructions: 140000003 cycles: 84097796 heartbeat IPC: 1.58062 cumulative IPC: 1.66473 (Simulation time: 5 hr 32 min 43 sec) 
 Total Blocks : 196608 Invalid Blocks : 0 Valid Blocks : 196608
 Total Tags : 491520 Threshold : 12288 Invalid Tags : 196608 Pr0 Tags : 98304 Pr1 Tags : 196608 num_pr0 : 12288
 SAE Count : 0
 Inter-Core Inteference in Data Store : 5276955
Heartbeat CPU 3 instructions: 140000003 cycles: 84099197 heartbeat IPC: 1.58053 cumulative IPC: 1.6647 (Simulation time: 5 hr 32 min 43 sec) 
 Total Blocks : 196608 Invalid Blocks : 0 Valid Blocks : 196608
 Total Tags : 491520 Threshold : 12288 Invalid Tags : 196608 Pr0 Tags : 98304 Pr1 Tags : 196608 num_pr0 : 12288
 SAE Count : 0
 Inter-Core Inteference in Data Store : 5276955
Heartbeat CPU 4 instructions: 140000003 cycles: 84100720 heartbeat IPC: 1.58042 cumulative IPC: 1.66467 (Simulation time: 5 hr 32 min 43 sec) 
 Total Blocks : 196608 Invalid Blocks : 0 Valid Blocks : 196608
 Total Tags : 491520 Threshold : 12288 Invalid Tags : 196610 Pr0 Tags : 98302 Pr1 Tags : 196608 num_pr0 : 12288
 SAE Count : 0
 Inter-Core Inteference in Data Store : 5277026
Heartbeat CPU 2 instructions: 140000003 cycles: 84103229 heartbeat IPC: 1.58054 cumulative IPC: 1.66462 (Simulation time: 5 hr 32 min 44 sec) 
 Total Blocks : 196608 Invalid Blocks : 0 Valid Blocks : 196608
 Total Tags : 491520 Threshold : 12288 Invalid Tags : 196611 Pr0 Tags : 98301 Pr1 Tags : 196608 num_pr0 : 12288
 SAE Count : 0
 Inter-Core Inteference in Data Store : 5277137
Heartbeat CPU 0 instructions: 150000001 cycles: 90904818 heartbeat IPC: 1.46884 cumulative IPC: 1.65008 (Simulation time: 5 hr 52 min 3 sec) 
 Total Blocks : 196608 Invalid Blocks : 0 Valid Blocks : 196608
 Total Tags : 491520 Threshold : 12288 Invalid Tags : 196610 Pr0 Tags : 98302 Pr1 Tags : 196608 num_pr0 : 12288
 SAE Count : 0
 Inter-Core Inteference in Data Store : 5576282
Heartbeat CPU 6 instructions: 150000001 cycles: 90905051 heartbeat IPC: 1.46887 cumulative IPC: 1.65007 (Simulation time: 5 hr 52 min 3 sec) 
 Total Blocks : 196608 Invalid Blocks : 0 Valid Blocks : 196608
 Total Tags : 491520 Threshold : 12288 Invalid Tags : 196610 Pr0 Tags : 98302 Pr1 Tags : 196608 num_pr0 : 12288
 SAE Count : 0
 Inter-Core Inteference in Data Store : 5576282
Heartbeat CPU 5 instructions: 150000001 cycles: 90905241 heartbeat IPC: 1.46885 cumulative IPC: 1.65007 (Simulation time: 5 hr 52 min 3 sec) 
 Total Blocks : 196608 Invalid Blocks : 0 Valid Blocks : 196608
 Total Tags : 491520 Threshold : 12288 Invalid Tags : 196610 Pr0 Tags : 98302 Pr1 Tags : 196608 num_pr0 : 12288
 SAE Count : 0
 Inter-Core Inteference in Data Store : 5576282
Heartbeat CPU 1 instructions: 150000001 cycles: 90905321 heartbeat IPC: 1.46884 cumulative IPC: 1.65007 (Simulation time: 5 hr 52 min 3 sec) 
 Total Blocks : 196608 Invalid Blocks : 0 Valid Blocks : 196608
 Total Tags : 491520 Threshold : 12288 Invalid Tags : 196610 Pr0 Tags : 98302 Pr1 Tags : 196608 num_pr0 : 12288
 SAE Count : 0
 Inter-Core Inteference in Data Store : 5576282
Heartbeat CPU 7 instructions: 150000001 cycles: 90905859 heartbeat IPC: 1.46885 cumulative IPC: 1.65006 (Simulation time: 5 hr 52 min 3 sec) 
 Total Blocks : 196608 Invalid Blocks : 0 Valid Blocks : 196608
 Total Tags : 491520 Threshold : 12288 Invalid Tags : 196610 Pr0 Tags : 98302 Pr1 Tags : 196608 num_pr0 : 12288
 SAE Count : 0
 Inter-Core Inteference in Data Store : 5576282
Heartbeat CPU 3 instructions: 150000001 cycles: 90907278 heartbeat IPC: 1.46884 cumulative IPC: 1.65003 (Simulation time: 5 hr 52 min 4 sec) 
 Total Blocks : 196608 Invalid Blocks : 0 Valid Blocks : 196608
 Total Tags : 491520 Threshold : 12288 Invalid Tags : 196610 Pr0 Tags : 98302 Pr1 Tags : 196608 num_pr0 : 12288
 SAE Count : 0
 Inter-Core Inteference in Data Store : 5576282
Heartbeat CPU 4 instructions: 150000001 cycles: 90908966 heartbeat IPC: 1.46881 cumulative IPC: 1.65 (Simulation time: 5 hr 52 min 4 sec) 
 Total Blocks : 196608 Invalid Blocks : 0 Valid Blocks : 196608
 Total Tags : 491520 Threshold : 12288 Invalid Tags : 196610 Pr0 Tags : 98302 Pr1 Tags : 196608 num_pr0 : 12288
 SAE Count : 0
 Inter-Core Inteference in Data Store : 5576282
Heartbeat CPU 2 instructions: 150000001 cycles: 90911184 heartbeat IPC: 1.46887 cumulative IPC: 1.64996 (Simulation time: 5 hr 52 min 4 sec) 
 Total Blocks : 196608 Invalid Blocks : 0 Valid Blocks : 196608
 Total Tags : 491520 Threshold : 12288 Invalid Tags : 196610 Pr0 Tags : 98302 Pr1 Tags : 196608 num_pr0 : 12288
 SAE Count : 0
 Inter-Core Inteference in Data Store : 5576282
Heartbeat CPU 0 instructions: 160000001 cycles: 97229955 heartbeat IPC: 1.58099 cumulative IPC: 1.64558 (Simulation time: 6 hr 13 min 49 sec) 
 Total Blocks : 196608 Invalid Blocks : 0 Valid Blocks : 196608
 Total Tags : 491520 Threshold : 12288 Invalid Tags : 196608 Pr0 Tags : 98304 Pr1 Tags : 196608 num_pr0 : 12288
 SAE Count : 0
 Inter-Core Inteference in Data Store : 6018798
Heartbeat CPU 6 instructions: 160000001 cycles: 97230319 heartbeat IPC: 1.58096 cumulative IPC: 1.64558 (Simulation time: 6 hr 13 min 49 sec) 
 Total Blocks : 196608 Invalid Blocks : 0 Valid Blocks : 196608
 Total Tags : 491520 Threshold : 12288 Invalid Tags : 196608 Pr0 Tags : 98304 Pr1 Tags : 196608 num_pr0 : 12288
 SAE Count : 0
 Inter-Core Inteference in Data Store : 6018847
Heartbeat CPU 5 instructions: 160000001 cycles: 97230448 heartbeat IPC: 1.58098 cumulative IPC: 1.64558 (Simulation time: 6 hr 13 min 49 sec) 
 Total Blocks : 196608 Invalid Blocks : 0 Valid Blocks : 196608
 Total Tags : 491520 Threshold : 12288 Invalid Tags : 196611 Pr0 Tags : 98301 Pr1 Tags : 196608 num_pr0 : 12287
 SAE Count : 0
 Inter-Core Inteference in Data Store : 6018859
Heartbeat CPU 1 instructions: 160000001 cycles: 97230513 heartbeat IPC: 1.58098 cumulative IPC: 1.64557 (Simulation time: 6 hr 13 min 49 sec) 
 Total Blocks : 196608 Invalid Blocks : 0 Valid Blocks : 196608
 Total Tags : 491520 Threshold : 12288 Invalid Tags : 196608 Pr0 Tags : 98304 Pr1 Tags : 196608 num_pr0 : 12288
 SAE Count : 0
 Inter-Core Inteference in Data Store : 6018868
Heartbeat CPU 7 instructions: 160000001 cycles: 97230997 heartbeat IPC: 1.58099 cumulative IPC: 1.64557 (Simulation time: 6 hr 13 min 50 sec) 
 Total Blocks : 196608 Invalid Blocks : 0 Valid Blocks : 196608
 Total Tags : 491520 Threshold : 12288 Invalid Tags : 196609 Pr0 Tags : 98303 Pr1 Tags : 196608 num_pr0 : 12288
 SAE Count : 0
 Inter-Core Inteference in Data Store : 6018923
Heartbeat CPU 3 instructions: 160000001 cycles: 97232543 heartbeat IPC: 1.58096 cumulative IPC: 1.64554 (Simulation time: 6 hr 13 min 50 sec) 
 Total Blocks : 196608 Invalid Blocks : 0 Valid Blocks : 196608
 Total Tags : 491520 Threshold : 12288 Invalid Tags : 196610 Pr0 Tags : 98302 Pr1 Tags : 196608 num_pr0 : 12288
 SAE Count : 0
 Inter-Core Inteference in Data Store : 6019032
Heartbeat CPU 4 instructions: 160000001 cycles: 97234479 heartbeat IPC: 1.5809 cumulative IPC: 1.64551 (Simulation time: 6 hr 13 min 51 sec) 
 Total Blocks : 196608 Invalid Blocks : 0 Valid Blocks : 196608
 Total Tags : 491520 Threshold : 12288 Invalid Tags : 196613 Pr0 Tags : 98299 Pr1 Tags : 196608 num_pr0 : 12287
 SAE Count : 0
 Inter-Core Inteference in Data Store : 6019111
Heartbeat CPU 2 instructions: 160000001 cycles: 97236594 heartbeat IPC: 1.58093 cumulative IPC: 1.64547 (Simulation time: 6 hr 13 min 51 sec) 
 Total Blocks : 196608 Invalid Blocks : 0 Valid Blocks : 196608
 Total Tags : 491520 Threshold : 12288 Invalid Tags : 196614 Pr0 Tags : 98298 Pr1 Tags : 196608 num_pr0 : 12288
 SAE Count : 0
 Inter-Core Inteference in Data Store : 6019150
Heartbeat CPU 0 instructions: 170000001 cycles: 104012756 heartbeat IPC: 1.47432 cumulative IPC: 1.63441 (Simulation time: 6 hr 33 min 22 sec) 
 Total Blocks : 196608 Invalid Blocks : 0 Valid Blocks : 196608
 Total Tags : 491520 Threshold : 12288 Invalid Tags : 196624 Pr0 Tags : 98288 Pr1 Tags : 196608 num_pr0 : 12286
 SAE Count : 0
 Inter-Core Inteference in Data Store : 6374962
Heartbeat CPU 6 instructions: 170000001 cycles: 104013053 heartbeat IPC: 1.47433 cumulative IPC: 1.63441 (Simulation time: 6 hr 33 min 22 sec) 
 Total Blocks : 196608 Invalid Blocks : 0 Valid Blocks : 196608
 Total Tags : 491520 Threshold : 12288 Invalid Tags : 196624 Pr0 Tags : 98288 Pr1 Tags : 196608 num_pr0 : 12286
 SAE Count : 0
 Inter-Core Inteference in Data Store : 6374962
Heartbeat CPU 5 instructions: 170000001 cycles: 104013239 heartbeat IPC: 1.47432 cumulative IPC: 1.63441 (Simulation time: 6 hr 33 min 23 sec) 
 Total Blocks : 196608 Invalid Blocks : 0 Valid Blocks : 196608
 Total Tags : 491520 Threshold : 12288 Invalid Tags : 196624 Pr0 Tags : 98288 Pr1 Tags : 196608 num_pr0 : 12286
 SAE Count : 0
 Inter-Core Inteference in Data Store : 6374962
Heartbeat CPU 1 instructions: 170000001 cycles: 104013358 heartbeat IPC: 1.47431 cumulative IPC: 1.63441 (Simulation time: 6 hr 33 min 23 sec) 
 Total Blocks : 196608 Invalid Blocks : 0 Valid Blocks : 196608
 Total Tags : 491520 Threshold : 12288 Invalid Tags : 196624 Pr0 Tags : 98288 Pr1 Tags : 196608 num_pr0 : 12286
 SAE Count : 0
 Inter-Core Inteference in Data Store : 6374962
Heartbeat CPU 7 instructions: 170000001 cycles: 104013794 heartbeat IPC: 1.47432 cumulative IPC: 1.6344 (Simulation time: 6 hr 33 min 23 sec) 
 Total Blocks : 196608 Invalid Blocks : 0 Valid Blocks : 196608
 Total Tags : 491520 Threshold : 12288 Invalid Tags : 196624 Pr0 Tags : 98288 Pr1 Tags : 196608 num_pr0 : 12286
 SAE Count : 0
 Inter-Core Inteference in Data Store : 6374963
Heartbeat CPU 3 instructions: 170000001 cycles: 104015271 heartbeat IPC: 1.47433 cumulative IPC: 1.63438 (Simulation time: 6 hr 33 min 23 sec) 
 Total Blocks : 196608 Invalid Blocks : 0 Valid Blocks : 196608
 Total Tags : 491520 Threshold : 12288 Invalid Tags : 196624 Pr0 Tags : 98288 Pr1 Tags : 196608 num_pr0 : 12286
 SAE Count : 0
 Inter-Core Inteference in Data Store : 6374963
Heartbeat CPU 4 instructions: 170000001 cycles: 104017274 heartbeat IPC: 1.47432 cumulative IPC: 1.63434 (Simulation time: 6 hr 33 min 23 sec) 
 Total Blocks : 196608 Invalid Blocks : 0 Valid Blocks : 196608
 Total Tags : 491520 Threshold : 12288 Invalid Tags : 196622 Pr0 Tags : 98290 Pr1 Tags : 196608 num_pr0 : 12287
 SAE Count : 0
 Inter-Core Inteference in Data Store : 6374964
Heartbeat CPU 2 instructions: 170000001 cycles: 104019480 heartbeat IPC: 1.4743 cumulative IPC: 1.63431 (Simulation time: 6 hr 33 min 23 sec) 
 Total Blocks : 196608 Invalid Blocks : 0 Valid Blocks : 196608
 Total Tags : 491520 Threshold : 12288 Invalid Tags : 196622 Pr0 Tags : 98290 Pr1 Tags : 196608 num_pr0 : 12287
 SAE Count : 0
 Inter-Core Inteference in Data Store : 6374966
Heartbeat CPU 0 instructions: 180000001 cycles: 110537249 heartbeat IPC: 1.53269 cumulative IPC: 1.62841 (Simulation time: 6 hr 53 min 25 sec) 
 Total Blocks : 196608 Invalid Blocks : 0 Valid Blocks : 196608
 Total Tags : 491520 Threshold : 12288 Invalid Tags : 196612 Pr0 Tags : 98300 Pr1 Tags : 196608 num_pr0 : 12288
 SAE Count : 0
 Inter-Core Inteference in Data Store : 6738746
Heartbeat CPU 6 instructions: 180000001 cycles: 110537464 heartbeat IPC: 1.53271 cumulative IPC: 1.62841 (Simulation time: 6 hr 53 min 25 sec) 
 Total Blocks : 196608 Invalid Blocks : 0 Valid Blocks : 196608
 Total Tags : 491520 Threshold : 12288 Invalid Tags : 196613 Pr0 Tags : 98299 Pr1 Tags : 196608 num_pr0 : 12288
 SAE Count : 0
 Inter-Core Inteference in Data Store : 6738762
Heartbeat CPU 1 instructions: 180000001 cycles: 110537676 heartbeat IPC: 1.53273 cumulative IPC: 1.6284 (Simulation time: 6 hr 53 min 25 sec) 
 Total Blocks : 196608 Invalid Blocks : 0 Valid Blocks : 196608
 Total Tags : 491520 Threshold : 12288 Invalid Tags : 196616 Pr0 Tags : 98296 Pr1 Tags : 196608 num_pr0 : 12288
 SAE Count : 0
 Inter-Core Inteference in Data Store : 6738778
Heartbeat CPU 5 instructions: 180000001 cycles: 110537695 heartbeat IPC: 1.53269 cumulative IPC: 1.6284 (Simulation time: 6 hr 53 min 25 sec) 
 Total Blocks : 196608 Invalid Blocks : 0 Valid Blocks : 196608
 Total Tags : 491520 Threshold : 12288 Invalid Tags : 196616 Pr0 Tags : 98296 Pr1 Tags : 196608 num_pr0 : 12288
 SAE Count : 0
 Inter-Core Inteference in Data Store : 6738779
Heartbeat CPU 7 instructions: 180000001 cycles: 110538069 heartbeat IPC: 1.53274 cumulative IPC: 1.6284 (Simulation time: 6 hr 53 min 26 sec) 
 Total Blocks : 196608 Invalid Blocks : 0 Valid Blocks : 196608
 Total Tags : 491520 Threshold : 12288 Invalid Tags : 196620 Pr0 Tags : 98292 Pr1 Tags : 196608 num_pr0 : 12288
 SAE Count : 0
 Inter-Core Inteference in Data Store : 6738810
Heartbeat CPU 3 instructions: 180000001 cycles: 110540190 heartbeat IPC: 1.53259 cumulative IPC: 1.62837 (Simulation time: 6 hr 53 min 27 sec) 
 Total Blocks : 196608 Invalid Blocks : 0 Valid Blocks : 196608
 Total Tags : 491520 Threshold : 12288 Invalid Tags : 196624 Pr0 Tags : 98288 Pr1 Tags : 196608 num_pr0 : 12286
 SAE Count : 0
 Inter-Core Inteference in Data Store : 6739001
Heartbeat CPU 4 instructions: 180000001 cycles: 110541894 heartbeat IPC: 1.53266 cumulative IPC: 1.62834 (Simulation time: 6 hr 53 min 28 sec) 
 Total Blocks : 196608 Invalid Blocks : 0 Valid Blocks : 196608
 Total Tags : 491520 Threshold : 12288 Invalid Tags : 196624 Pr0 Tags : 98288 Pr1 Tags : 196608 num_pr0 : 12286
 SAE Count : 0
 Inter-Core Inteference in Data Store : 6739155
Heartbeat CPU 2 instructions: 180000001 cycles: 110544111 heartbeat IPC: 1.53265 cumulative IPC: 1.62831 (Simulation time: 6 hr 53 min 29 sec) 
 Total Blocks : 196608 Invalid Blocks : 0 Valid Blocks : 196608
 Total Tags : 491520 Threshold : 12288 Invalid Tags : 196624 Pr0 Tags : 98288 Pr1 Tags : 196608 num_pr0 : 12286
 SAE Count : 0
 Inter-Core Inteference in Data Store : 6739320
Heartbeat CPU 0 instructions: 190000000 cycles: 117240525 heartbeat IPC: 1.49181 cumulative IPC: 1.6206 (Simulation time: 7 hr 13 min 24 sec) 
 Total Blocks : 196608 Invalid Blocks : 0 Valid Blocks : 196608
 Total Tags : 491520 Threshold : 12288 Invalid Tags : 196610 Pr0 Tags : 98302 Pr1 Tags : 196608 num_pr0 : 12288
 SAE Count : 0
 Inter-Core Inteference in Data Store : 7116169
Heartbeat CPU 6 instructions: 190000000 cycles: 117240546 heartbeat IPC: 1.49185 cumulative IPC: 1.6206 (Simulation time: 7 hr 13 min 24 sec) 
 Total Blocks : 196608 Invalid Blocks : 0 Valid Blocks : 196608
 Total Tags : 491520 Threshold : 12288 Invalid Tags : 196611 Pr0 Tags : 98301 Pr1 Tags : 196608 num_pr0 : 12288
 SAE Count : 0
 Inter-Core Inteference in Data Store : 7116171
Heartbeat CPU 1 instructions: 190000000 cycles: 117240874 heartbeat IPC: 1.49183 cumulative IPC: 1.6206 (Simulation time: 7 hr 13 min 24 sec) 
 Total Blocks : 196608 Invalid Blocks : 0 Valid Blocks : 196608
 Total Tags : 491520 Threshold : 12288 Invalid Tags : 196609 Pr0 Tags : 98303 Pr1 Tags : 196608 num_pr0 : 12288
 SAE Count : 0
 Inter-Core Inteference in Data Store : 7116177
Heartbeat CPU 5 instructions: 190000000 cycles: 117240931 heartbeat IPC: 1.49182 cumulative IPC: 1.62059 (Simulation time: 7 hr 13 min 24 sec) 
 Total Blocks : 196608 Invalid Blocks : 0 Valid Blocks : 196608
 Total Tags : 491520 Threshold : 12288 Invalid Tags : 196611 Pr0 Tags : 98301 Pr1 Tags : 196608 num_pr0 : 12288
 SAE Count : 0
 Inter-Core Inteference in Data Store : 7116182
Heartbeat CPU 7 instructions: 190000000 cycles: 117241415 heartbeat IPC: 1.49179 cumulative IPC: 1.62059 (Simulation time: 7 hr 13 min 25 sec) 
 Total Blocks : 196608 Invalid Blocks : 0 Valid Blocks : 196608
 Total Tags : 491520 Threshold : 12288 Invalid Tags : 196616 Pr0 Tags : 98296 Pr1 Tags : 196608 num_pr0 : 12286
 SAE Count : 0
 Inter-Core Inteference in Data Store : 7116213
Heartbeat CPU 3 instructions: 190000000 cycles: 117243433 heartbeat IPC: 1.49182 cumulative IPC: 1.62056 (Simulation time: 7 hr 13 min 25 sec) 
 Total Blocks : 196608 Invalid Blocks : 0 Valid Blocks : 196608
 Total Tags : 491520 Threshold : 12288 Invalid Tags : 196608 Pr0 Tags : 98304 Pr1 Tags : 196608 num_pr0 : 12288
 SAE Count : 0
 Inter-Core Inteference in Data Store : 7116261
Heartbeat CPU 4 instructions: 190000000 cycles: 117245456 heartbeat IPC: 1.49174 cumulative IPC: 1.62053 (Simulation time: 7 hr 13 min 25 sec) 
 Total Blocks : 196608 Invalid Blocks : 0 Valid Blocks : 196608
 Total Tags : 491520 Threshold : 12288 Invalid Tags : 196609 Pr0 Tags : 98303 Pr1 Tags : 196608 num_pr0 : 12288
 SAE Count : 0
 Inter-Core Inteference in Data Store : 7116279
Heartbeat CPU 2 instructions: 190000000 cycles: 117247441 heartbeat IPC: 1.4918 cumulative IPC: 1.6205 (Simulation time: 7 hr 13 min 26 sec) 
 Total Blocks : 196608 Invalid Blocks : 0 Valid Blocks : 196608
 Total Tags : 491520 Threshold : 12288 Invalid Tags : 196609 Pr0 Tags : 98303 Pr1 Tags : 196608 num_pr0 : 12288
 SAE Count : 0
 Inter-Core Inteference in Data Store : 7116303
Heartbeat CPU 0 instructions: 200000000 cycles: 124138076 heartbeat IPC: 1.44979 cumulative IPC: 1.61111 (Simulation time: 7 hr 32 min 45 sec) 
 Total Blocks : 196608 Invalid Blocks : 0 Valid Blocks : 196608
 Total Tags : 491520 Threshold : 12288 Invalid Tags : 196615 Pr0 Tags : 98297 Pr1 Tags : 196608 num_pr0 : 12287
 SAE Count : 0
 Inter-Core Inteference in Data Store : 7442009
Heartbeat CPU 6 instructions: 200000000 cycles: 124138129 heartbeat IPC: 1.44978 cumulative IPC: 1.61111 (Simulation time: 7 hr 32 min 45 sec) 
 Total Blocks : 196608 Invalid Blocks : 0 Valid Blocks : 196608
 Total Tags : 491520 Threshold : 12288 Invalid Tags : 196614 Pr0 Tags : 98298 Pr1 Tags : 196608 num_pr0 : 12287
 SAE Count : 0
 Inter-Core Inteference in Data Store : 7442009
Heartbeat CPU 1 instructions: 200000000 cycles: 124138422 heartbeat IPC: 1.44979 cumulative IPC: 1.6111 (Simulation time: 7 hr 32 min 45 sec) 
 Total Blocks : 196608 Invalid Blocks : 0 Valid Blocks : 196608
 Total Tags : 491520 Threshold : 12288 Invalid Tags : 196616 Pr0 Tags : 98296 Pr1 Tags : 196608 num_pr0 : 12287
 SAE Count : 0
 Inter-Core Inteference in Data Store : 7442027
Heartbeat CPU 5 instructions: 200000000 cycles: 124138595 heartbeat IPC: 1.44977 cumulative IPC: 1.6111 (Simulation time: 7 hr 32 min 46 sec) 
 Total Blocks : 196608 Invalid Blocks : 0 Valid Blocks : 196608
 Total Tags : 491520 Threshold : 12288 Invalid Tags : 196618 Pr0 Tags : 98294 Pr1 Tags : 196608 num_pr0 : 12287
 SAE Count : 0
 Inter-Core Inteference in Data Store : 7442036
Heartbeat CPU 7 instructions: 200000000 cycles: 124139081 heartbeat IPC: 1.44977 cumulative IPC: 1.6111 (Simulation time: 7 hr 32 min 46 sec) 
 Total Blocks : 196608 Invalid Blocks : 0 Valid Blocks : 196608
 Total Tags : 491520 Threshold : 12288 Invalid Tags : 196617 Pr0 Tags : 98295 Pr1 Tags : 196608 num_pr0 : 12287
 SAE Count : 0
 Inter-Core Inteference in Data Store : 7442047
Heartbeat CPU 3 instructions: 200000000 cycles: 124141371 heartbeat IPC: 1.44971 cumulative IPC: 1.61107 (Simulation time: 7 hr 32 min 46 sec) 
 Total Blocks : 196608 Invalid Blocks : 0 Valid Blocks : 196608
 Total Tags : 491520 Threshold : 12288 Invalid Tags : 196617 Pr0 Tags : 98295 Pr1 Tags : 196608 num_pr0 : 12287
 SAE Count : 0
 Inter-Core Inteference in Data Store : 7442048
Heartbeat CPU 4 instructions: 200000000 cycles: 124143073 heartbeat IPC: 1.44978 cumulative IPC: 1.61104 (Simulation time: 7 hr 32 min 46 sec) 
 Total Blocks : 196608 Invalid Blocks : 0 Valid Blocks : 196608
 Total Tags : 491520 Threshold : 12288 Invalid Tags : 196616 Pr0 Tags : 98296 Pr1 Tags : 196608 num_pr0 : 12287
 SAE Count : 0
 Inter-Core Inteference in Data Store : 7442113
Heartbeat CPU 2 instructions: 200000000 cycles: 124145067 heartbeat IPC: 1.44977 cumulative IPC: 1.61102 (Simulation time: 7 hr 32 min 47 sec) 
 Total Blocks : 196608 Invalid Blocks : 0 Valid Blocks : 196608
 Total Tags : 491520 Threshold : 12288 Invalid Tags : 196609 Pr0 Tags : 98303 Pr1 Tags : 196608 num_pr0 : 12288
 SAE Count : 0
 Inter-Core Inteference in Data Store : 7442176

Warmup complete CPU 0 instructions: 200012816 cycles: 124145068 (Simulation time: 7 hr 32 min 47 sec) 
Warmup complete CPU 1 instructions: 200012513 cycles: 124145068 (Simulation time: 7 hr 32 min 47 sec) 
Warmup complete CPU 2 instructions: 200000004 cycles: 124145068 (Simulation time: 7 hr 32 min 47 sec) 
Warmup complete CPU 3 instructions: 200007407 cycles: 124145067 (Simulation time: 7 hr 32 min 47 sec) 
Warmup complete CPU 4 instructions: 200003373 cycles: 124145067 (Simulation time: 7 hr 32 min 47 sec) 
Warmup complete CPU 5 instructions: 200012430 cycles: 124145067 (Simulation time: 7 hr 32 min 47 sec) 
Warmup complete CPU 6 instructions: 200012799 cycles: 124145067 (Simulation time: 7 hr 32 min 47 sec) 
Warmup complete CPU 7 instructions: 200011623 cycles: 124145067 (Simulation time: 7 hr 32 min 47 sec) 

Heartbeat CPU 1 instructions: 210000000 cycles: 140906257 heartbeat IPC: 0.59638 cumulative IPC: 0.59587 (Simulation time: 8 hr 0 min 33 sec) 
 Total Blocks : 196608 Invalid Blocks : 0 Valid Blocks : 196608
 Total Tags : 491520 Threshold : 12288 Invalid Tags : 196610 Pr0 Tags : 98302 Pr1 Tags : 196608 num_pr0 : 12287
 SAE Count : 0
 Inter-Core Inteference in Data Store : 369614
Heartbeat CPU 0 instructions: 210000002 cycles: 141889450 heartbeat IPC: 0.563337 cumulative IPC: 0.562837 (Simulation time: 8 hr 2 min 22 sec) 
 Total Blocks : 196608 Invalid Blocks : 0 Valid Blocks : 196608
 Total Tags : 491520 Threshold : 12288 Invalid Tags : 196613 Pr0 Tags : 98299 Pr1 Tags : 196608 num_pr0 : 12287
 SAE Count : 0
 Inter-Core Inteference in Data Store : 396524
Heartbeat CPU 3 instructions: 210000001 cycles: 142260139 heartbeat IPC: 0.551914 cumulative IPC: 0.551618 (Simulation time: 8 hr 3 min 11 sec) 
 Total Blocks : 196608 Invalid Blocks : 0 Valid Blocks : 196608
 Total Tags : 491520 Threshold : 12288 Invalid Tags : 196608 Pr0 Tags : 98304 Pr1 Tags : 196608 num_pr0 : 12288
 SAE Count : 0
 Inter-Core Inteference in Data Store : 409633
Heartbeat CPU 2 instructions: 210000001 cycles: 142267381 heartbeat IPC: 0.551806 cumulative IPC: 0.551806 (Simulation time: 8 hr 3 min 12 sec) 
 Total Blocks : 196608 Invalid Blocks : 0 Valid Blocks : 196608
 Total Tags : 491520 Threshold : 12288 Invalid Tags : 196614 Pr0 Tags : 98298 Pr1 Tags : 196608 num_pr0 : 12287
 SAE Count : 0
 Inter-Core Inteference in Data Store : 409844
Heartbeat CPU 4 instructions: 210000002 cycles: 142376891 heartbeat IPC: 0.548432 cumulative IPC: 0.548307 (Simulation time: 8 hr 3 min 26 sec) 
 Total Blocks : 196608 Invalid Blocks : 0 Valid Blocks : 196608
 Total Tags : 491520 Threshold : 12288 Invalid Tags : 196609 Pr0 Tags : 98303 Pr1 Tags : 196608 num_pr0 : 12287
 SAE Count : 0
 Inter-Core Inteference in Data Store : 413443
Heartbeat CPU 6 instructions: 210000002 cycles: 142404545 heartbeat IPC: 0.547453 cumulative IPC: 0.54696 (Simulation time: 8 hr 3 min 29 sec) 
 Total Blocks : 196608 Invalid Blocks : 0 Valid Blocks : 196608
 Total Tags : 491520 Threshold : 12288 Invalid Tags : 196613 Pr0 Tags : 98299 Pr1 Tags : 196608 num_pr0 : 12286
 SAE Count : 0
 Inter-Core Inteference in Data Store : 414429
Heartbeat CPU 5 instructions: 210000000 cycles: 142408038 heartbeat IPC: 0.547362 cumulative IPC: 0.546875 (Simulation time: 8 hr 3 min 30 sec) 
 Total Blocks : 196608 Invalid Blocks : 0 Valid Blocks : 196608
 Total Tags : 491520 Threshold : 12288 Invalid Tags : 196611 Pr0 Tags : 98301 Pr1 Tags : 196608 num_pr0 : 12288
 SAE Count : 0
 Inter-Core Inteference in Data Store : 414525
Heartbeat CPU 7 instructions: 210000001 cycles: 142526852 heartbeat IPC: 0.54384 cumulative IPC: 0.543385 (Simulation time: 8 hr 3 min 43 sec) 
 Total Blocks : 196608 Invalid Blocks : 0 Valid Blocks : 196608
 Total Tags : 491520 Threshold : 12288 Invalid Tags : 196615 Pr0 Tags : 98297 Pr1 Tags : 196608 num_pr0 : 12286
 SAE Count : 0
 Inter-Core Inteference in Data Store : 418511
Heartbeat CPU 1 instructions: 220000000 cycles: 155361934 heartbeat IPC: 0.69177 cumulative IPC: 0.640278 (Simulation time: 8 hr 26 min 43 sec) 
 Total Blocks : 196608 Invalid Blocks : 0 Valid Blocks : 196608
 Total Tags : 491520 Threshold : 12288 Invalid Tags : 196612 Pr0 Tags : 98300 Pr1 Tags : 196608 num_pr0 : 12288
 SAE Count : 0
 Inter-Core Inteference in Data Store : 687814
Heartbeat CPU 0 instructions: 220000000 cycles: 157038758 heartbeat IPC: 0.660096 cumulative IPC: 0.60763 (Simulation time: 8 hr 29 min 24 sec) 
 Total Blocks : 196608 Invalid Blocks : 0 Valid Blocks : 196608
 Total Tags : 491520 Threshold : 12288 Invalid Tags : 196613 Pr0 Tags : 98299 Pr1 Tags : 196608 num_pr0 : 12287
 SAE Count : 0
 Inter-Core Inteference in Data Store : 747108
Heartbeat CPU 2 instructions: 220000000 cycles: 158706126 heartbeat IPC: 0.608319 cumulative IPC: 0.578686 (Simulation time: 8 hr 31 min 54 sec) 
 Total Blocks : 196608 Invalid Blocks : 0 Valid Blocks : 196608
 Total Tags : 491520 Threshold : 12288 Invalid Tags : 196608 Pr0 Tags : 98304 Pr1 Tags : 196608 num_pr0 : 12288
 SAE Count : 0
 Inter-Core Inteference in Data Store : 781896
Heartbeat CPU 3 instructions: 220000000 cycles: 158991110 heartbeat IPC: 0.597694 cumulative IPC: 0.573741 (Simulation time: 8 hr 32 min 25 sec) 
 Total Blocks : 196608 Invalid Blocks : 0 Valid Blocks : 196608
 Total Tags : 491520 Threshold : 12288 Invalid Tags : 196615 Pr0 Tags : 98297 Pr1 Tags : 196608 num_pr0 : 12287
 SAE Count : 0
 Inter-Core Inteference in Data Store : 784593
Heartbeat CPU 6 instructions: 220000000 cycles: 159083934 heartbeat IPC: 0.599542 cumulative IPC: 0.572062 (Simulation time: 8 hr 32 min 32 sec) 
 Total Blocks : 196608 Invalid Blocks : 0 Valid Blocks : 196608
 Total Tags : 491520 Threshold : 12288 Invalid Tags : 196611 Pr0 Tags : 98301 Pr1 Tags : 196608 num_pr0 : 12287
 SAE Count : 0
 Inter-Core Inteference in Data Store : 785470
Heartbeat CPU 5 instructions: 220000000 cycles: 159095231 heartbeat IPC: 0.599262 cumulative IPC: 0.571888 (Simulation time: 8 hr 32 min 34 sec) 
 Total Blocks : 196608 Invalid Blocks : 0 Valid Blocks : 196608
 Total Tags : 491520 Threshold : 12288 Invalid Tags : 196609 Pr0 Tags : 98303 Pr1 Tags : 196608 num_pr0 : 12288
 SAE Count : 0
 Inter-Core Inteference in Data Store : 785661
Heartbeat CPU 7 instructions: 220000000 cycles: 159107301 heartbeat IPC: 0.60312 cumulative IPC: 0.571713 (Simulation time: 8 hr 32 min 36 sec) 
 Total Blocks : 196608 Invalid Blocks : 0 Valid Blocks : 196608
 Total Tags : 491520 Threshold : 12288 Invalid Tags : 196617 Pr0 Tags : 98295 Pr1 Tags : 196608 num_pr0 : 12288
 SAE Count : 0
 Inter-Core Inteference in Data Store : 785807
Heartbeat CPU 4 instructions: 220000000 cycles: 159130408 heartbeat IPC: 0.596889 cumulative IPC: 0.571572 (Simulation time: 8 hr 32 min 37 sec) 
 Total Blocks : 196608 Invalid Blocks : 0 Valid Blocks : 196608
 Total Tags : 491520 Threshold : 12288 Invalid Tags : 196610 Pr0 Tags : 98302 Pr1 Tags : 196608 num_pr0 : 12288
 SAE Count : 0
 Inter-Core Inteference in Data Store : 786127
Heartbeat CPU 1 instructions: 230000001 cycles: 171501334 heartbeat IPC: 0.619602 cumulative IPC: 0.633232 (Simulation time: 8 hr 54 min 17 sec) 
 Total Blocks : 196608 Invalid Blocks : 0 Valid Blocks : 196608
 Total Tags : 491520 Threshold : 12288 Invalid Tags : 196609 Pr0 Tags : 98303 Pr1 Tags : 196608 num_pr0 : 12287
 SAE Count : 0
 Inter-Core Inteference in Data Store : 1047595
Heartbeat CPU 0 instructions: 230000001 cycles: 172060380 heartbeat IPC: 0.665707 cumulative IPC: 0.625837 (Simulation time: 8 hr 55 min 22 sec) 
 Total Blocks : 196608 Invalid Blocks : 0 Valid Blocks : 196608
 Total Tags : 491520 Threshold : 12288 Invalid Tags : 196612 Pr0 Tags : 98300 Pr1 Tags : 196608 num_pr0 : 12287
 SAE Count : 0
 Inter-Core Inteference in Data Store : 1061567
Heartbeat CPU 2 instructions: 230000001 cycles: 174210438 heartbeat IPC: 0.644982 cumulative IPC: 0.599217 (Simulation time: 8 hr 59 min 16 sec) 
 Total Blocks : 196608 Invalid Blocks : 0 Valid Blocks : 196608
 Total Tags : 491520 Threshold : 12288 Invalid Tags : 196611 Pr0 Tags : 98301 Pr1 Tags : 196608 num_pr0 : 12288
 SAE Count : 0
 Inter-Core Inteference in Data Store : 1134433
Heartbeat CPU 3 instructions: 230000001 cycles: 175572228 heartbeat IPC: 0.603096 cumulative IPC: 0.583205 (Simulation time: 9 hr 1 min 50 sec) 
 Total Blocks : 196608 Invalid Blocks : 0 Valid Blocks : 196608
 Total Tags : 491520 Threshold : 12288 Invalid Tags : 196622 Pr0 Tags : 98290 Pr1 Tags : 196608 num_pr0 : 12286
 SAE Count : 0
 Inter-Core Inteference in Data Store : 1163826
Heartbeat CPU 6 instructions: 230000001 cycles: 175847983 heartbeat IPC: 0.596515 cumulative IPC: 0.579991 (Simulation time: 9 hr 2 min 23 sec) 
 Total Blocks : 196608 Invalid Blocks : 0 Valid Blocks : 196608
 Total Tags : 491520 Threshold : 12288 Invalid Tags : 196617 Pr0 Tags : 98295 Pr1 Tags : 196608 num_pr0 : 12287
 SAE Count : 0
 Inter-Core Inteference in Data Store : 1171813
Heartbeat CPU 5 instructions: 230000001 cycles: 175889224 heartbeat IPC: 0.595451 cumulative IPC: 0.579535 (Simulation time: 9 hr 2 min 27 sec) 
 Total Blocks : 196608 Invalid Blocks : 0 Valid Blocks : 196608
 Total Tags : 491520 Threshold : 12288 Invalid Tags : 196618 Pr0 Tags : 98294 Pr1 Tags : 196608 num_pr0 : 12287
 SAE Count : 0
 Inter-Core Inteference in Data Store : 1172884
Heartbeat CPU 7 instructions: 230000001 cycles: 176045226 heartbeat IPC: 0.590391 cumulative IPC: 0.577809 (Simulation time: 9 hr 2 min 43 sec) 
 Total Blocks : 196608 Invalid Blocks : 0 Valid Blocks : 196608
 Total Tags : 491520 Threshold : 12288 Invalid Tags : 196616 Pr0 Tags : 98296 Pr1 Tags : 196608 num_pr0 : 12288
 SAE Count : 0
 Inter-Core Inteference in Data Store : 1177207
Heartbeat CPU 4 instructions: 230000001 cycles: 176081057 heartbeat IPC: 0.589948 cumulative IPC: 0.577569 (Simulation time: 9 hr 2 min 47 sec) 
 Total Blocks : 196608 Invalid Blocks : 0 Valid Blocks : 196608
 Total Tags : 491520 Threshold : 12288 Invalid Tags : 196608 Pr0 Tags : 98304 Pr1 Tags : 196608 num_pr0 : 12288
 SAE Count : 0
 Inter-Core Inteference in Data Store : 1177976
Heartbeat CPU 1 instructions: 240000000 cycles: 187159426 heartbeat IPC: 0.638647 cumulative IPC: 0.634577 (Simulation time: 9 hr 20 min 54 sec) 
 Total Blocks : 196608 Invalid Blocks : 0 Valid Blocks : 196608
 Total Tags : 491520 Threshold : 12288 Invalid Tags : 196620 Pr0 Tags : 98292 Pr1 Tags : 196608 num_pr0 : 12286
 SAE Count : 0
 Inter-Core Inteference in Data Store : 1411600
Heartbeat CPU 0 instructions: 240000000 cycles: 188122922 heartbeat IPC: 0.622566 cumulative IPC: 0.625016 (Simulation time: 9 hr 22 min 26 sec) 
 Total Blocks : 196608 Invalid Blocks : 0 Valid Blocks : 196608
 Total Tags : 491520 Threshold : 12288 Invalid Tags : 196614 Pr0 Tags : 98298 Pr1 Tags : 196608 num_pr0 : 12288
 SAE Count : 0
 Inter-Core Inteference in Data Store : 1434554
Heartbeat CPU 2 instructions: 240000000 cycles: 188726472 heartbeat IPC: 0.688893 cumulative IPC: 0.619373 (Simulation time: 9 hr 23 min 7 sec) 
 Total Blocks : 196608 Invalid Blocks : 0 Valid Blocks : 196608
 Total Tags : 491520 Threshold : 12288 Invalid Tags : 196620 Pr0 Tags : 98292 Pr1 Tags : 196608 num_pr0 : 12286
 SAE Count : 0
 Inter-Core Inteference in Data Store : 1438481
Heartbeat CPU 3 instructions: 240000000 cycles: 190935554 heartbeat IPC: 0.650901 cumulative IPC: 0.598777 (Simulation time: 9 hr 26 min 33 sec) 
 Total Blocks : 196608 Invalid Blocks : 0 Valid Blocks : 196608
 Total Tags : 491520 Threshold : 12288 Invalid Tags : 196608 Pr0 Tags : 98304 Pr1 Tags : 196608 num_pr0 : 12288
 SAE Count : 0
 Inter-Core Inteference in Data Store : 1482159
Heartbeat CPU 6 instructions: 240000000 cycles: 191695171 heartbeat IPC: 0.631027 cumulative IPC: 0.591964 (Simulation time: 9 hr 27 min 54 sec) 
 Total Blocks : 196608 Invalid Blocks : 0 Valid Blocks : 196608
 Total Tags : 491520 Threshold : 12288 Invalid Tags : 196620 Pr0 Tags : 98292 Pr1 Tags : 196608 num_pr0 : 12286
 SAE Count : 0
 Inter-Core Inteference in Data Store : 1499444
Heartbeat CPU 4 instructions: 240000000 cycles: 191718193 heartbeat IPC: 0.639503 cumulative IPC: 0.591901 (Simulation time: 9 hr 27 min 56 sec) 
 Total Blocks : 196608 Invalid Blocks : 0 Valid Blocks : 196608
 Total Tags : 491520 Threshold : 12288 Invalid Tags : 196608 Pr0 Tags : 98304 Pr1 Tags : 196608 num_pr0 : 12288
 SAE Count : 0
 Inter-Core Inteference in Data Store : 1499711
Heartbeat CPU 5 instructions: 240000000 cycles: 191787608 heartbeat IPC: 0.628995 cumulative IPC: 0.59116 (Simulation time: 9 hr 28 min 1 sec) 
 Total Blocks : 196608 Invalid Blocks : 0 Valid Blocks : 196608
 Total Tags : 491520 Threshold : 12288 Invalid Tags : 196611 Pr0 Tags : 98301 Pr1 Tags : 196608 num_pr0 : 12287
 SAE Count : 0
 Inter-Core Inteference in Data Store : 1501021
Heartbeat CPU 7 instructions: 240000000 cycles: 191825262 heartbeat IPC: 0.633712 cumulative IPC: 0.590843 (Simulation time: 9 hr 28 min 4 sec) 
 Total Blocks : 196608 Invalid Blocks : 0 Valid Blocks : 196608
 Total Tags : 491520 Threshold : 12288 Invalid Tags : 196616 Pr0 Tags : 98296 Pr1 Tags : 196608 num_pr0 : 12288
 SAE Count : 0
 Inter-Core Inteference in Data Store : 1501676
Heartbeat CPU 1 instructions: 250000000 cycles: 201732101 heartbeat IPC: 0.686216 cumulative IPC: 0.644276 (Simulation time: 9 hr 45 min 12 sec) 
 Total Blocks : 196608 Invalid Blocks : 0 Valid Blocks : 196608
 Total Tags : 491520 Threshold : 12288 Invalid Tags : 196619 Pr0 Tags : 98293 Pr1 Tags : 196608 num_pr0 : 12286
 SAE Count : 0
 Inter-Core Inteference in Data Store : 1730043
Heartbeat CPU 0 instructions: 250000000 cycles: 203473415 heartbeat IPC: 0.651445 cumulative IPC: 0.63013 (Simulation time: 9 hr 48 min 34 sec) 
 Total Blocks : 196608 Invalid Blocks : 0 Valid Blocks : 196608
 Total Tags : 491520 Threshold : 12288 Invalid Tags : 196614 Pr0 Tags : 98298 Pr1 Tags : 196608 num_pr0 : 12288
 SAE Count : 0
 Inter-Core Inteference in Data Store : 1783749
Heartbeat CPU 2 instructions: 250000000 cycles: 204568454 heartbeat IPC: 0.631234 cumulative IPC: 0.62171 (Simulation time: 9 hr 50 min 26 sec) 
 Total Blocks : 196608 Invalid Blocks : 0 Valid Blocks : 196608
 Total Tags : 491520 Threshold : 12288 Invalid Tags : 196614 Pr0 Tags : 98298 Pr1 Tags : 196608 num_pr0 : 12287
 SAE Count : 0
 Inter-Core Inteference in Data Store : 1816256
Heartbeat CPU 3 instructions: 250000000 cycles: 206003503 heartbeat IPC: 0.66366 cumulative IPC: 0.61072 (Simulation time: 9 hr 52 min 36 sec) 
 Total Blocks : 196608 Invalid Blocks : 0 Valid Blocks : 196608
 Total Tags : 491520 Threshold : 12288 Invalid Tags : 196612 Pr0 Tags : 98300 Pr1 Tags : 196608 num_pr0 : 12286
 SAE Count : 0
 Inter-Core Inteference in Data Store : 1841862
Heartbeat CPU 6 instructions: 250000000 cycles: 208187162 heartbeat IPC: 0.606355 cumulative IPC: 0.594788 (Simulation time: 9 hr 56 min 18 sec) 
 Total Blocks : 196608 Invalid Blocks : 0 Valid Blocks : 196608
 Total Tags : 491520 Threshold : 12288 Invalid Tags : 196610 Pr0 Tags : 98302 Pr1 Tags : 196608 num_pr0 : 12287
 SAE Count : 0
 Inter-Core Inteference in Data Store : 1887292
Heartbeat CPU 5 instructions: 250000000 cycles: 208286592 heartbeat IPC: 0.606098 cumulative IPC: 0.594089 (Simulation time: 9 hr 56 min 24 sec) 
 Total Blocks : 196608 Invalid Blocks : 0 Valid Blocks : 196608
 Total Tags : 491520 Threshold : 12288 Invalid Tags : 196614 Pr0 Tags : 98298 Pr1 Tags : 196608 num_pr0 : 12286
 SAE Count : 0
 Inter-Core Inteference in Data Store : 1888165
Heartbeat CPU 4 instructions: 250000000 cycles: 208295801 heartbeat IPC: 0.603223 cumulative IPC: 0.594132 (Simulation time: 9 hr 56 min 25 sec) 
 Total Blocks : 196608 Invalid Blocks : 0 Valid Blocks : 196608
[...]
LLC4 LOAD      ACCESS: 13761  HIT:  8879  MISS:  4882  HIT %: 64.5229  MISS %: 35.4771  AVERAGE MISS PENALTY: 492.367
LLC4 RFO       ACCESS: 138418  HIT: 51349  MISS: 87069  HIT %: 37.0971  MISS %: 62.9029  AVERAGE MISS PENALTY: 497.335
LLC4 PREFETCH  ACCESS: 264804  HIT: 176551  MISS: 88253  HIT %: 66.6723  MISS %: 33.3277  AVERAGE MISS PENALTY: 515.087
LLC4 WRITEBACK ACCESS: 189391  HIT: 107181  MISS: 82210  HIT %: 56.5924  MISS %: 43.4076  AVERAGE MISS PENALTY: 0
LLC4 PREFETCH  REQUESTED:     0  ISSUED:     0  USEFUL: 54345  USELESS: 157372
 USEFUL LOAD PREFETCHES:      54345 PREFETCH ISSUED TO LOWER LEVEL:     710710  ACCURACY: 7.64658
 TIMELY PREFETCHES:      54345 LATE PREFETCHES: 0 DROPPED PREFETCHES: 0
LLC4 AVERAGE MISS LATENCY: 347.406 cycles

LLC4 Set Associative Eviction Count : 0
LLC4 Priority 0 entries : 12288
LLC4 Inter-Core Interference : 933161
LLC5 TOTAL     ACCESS: 606001  HIT: 344015  MISS: 261986  HIT %: 56.7681  MISS %: 43.2319  AVERAGE MISS PENALTY: 346.865
LLC5 LOAD      ACCESS: 14626  HIT:  9228  MISS:  5398  HIT %: 63.0931  MISS %: 36.9069  AVERAGE MISS PENALTY: 489.841
LLC5 RFO       ACCESS: 138388  HIT: 51439  MISS: 86949  HIT %: 37.1701  MISS %: 62.8299  AVERAGE MISS PENALTY: 496.063
LLC5 PREFETCH  ACCESS: 263701  HIT: 176078  MISS: 87623  HIT %: 66.7718  MISS %: 33.2282  AVERAGE MISS PENALTY: 514.674
LLC5 WRITEBACK ACCESS: 189286  HIT: 107270  MISS: 82016  HIT %: 56.6709  MISS %: 43.3291  AVERAGE MISS PENALTY: 0
LLC5 PREFETCH  REQUESTED:     0  ISSUED:     0  USEFUL: 54328  USELESS: 156681
 USEFUL LOAD PREFETCHES:      54328 PREFETCH ISSUED TO LOWER LEVEL:     722041  ACCURACY: 7.52423
 TIMELY PREFETCHES:      54328 LATE PREFETCHES: 0 DROPPED PREFETCHES: 0
LLC5 AVERAGE MISS LATENCY: 346.865 cycles

LLC5 Set Associative Eviction Count : 0
LLC5 Priority 0 entries : 12287
LLC5 Inter-Core Interference : 932264
LLC6 TOTAL     ACCESS: 606816  HIT: 344135  MISS: 262681  HIT %: 56.7116  MISS %: 43.2884  AVERAGE MISS PENALTY: 346.078
LLC6 LOAD      ACCESS: 13348  HIT:  8824  MISS:  4524  HIT %: 66.1073  MISS %: 33.8927  AVERAGE MISS PENALTY: 491.738
LLC6 RFO       ACCESS: 138453  HIT: 51254  MISS: 87199  HIT %: 37.0191  MISS %: 62.9809  AVERAGE MISS PENALTY: 490.714
LLC6 PREFETCH  ACCESS: 265647  HIT: 176987  MISS: 88660  HIT %: 66.6249  MISS %: 33.3751  AVERAGE MISS PENALTY: 517.638
LLC6 WRITEBACK ACCESS: 189368  HIT: 107070  MISS: 82298  HIT %: 56.5407  MISS %: 43.4593  AVERAGE MISS PENALTY: 0
LLC6 PREFETCH  REQUESTED:     0  ISSUED:     0  USEFUL: 54399  USELESS: 158786
 USEFUL LOAD PREFETCHES:      54399 PREFETCH ISSUED TO LOWER LEVEL:     721743  ACCURACY: 7.53717
 TIMELY PREFETCHES:      54399 LATE PREFETCHES: 0 DROPPED PREFETCHES: 0
LLC6 AVERAGE MISS LATENCY: 346.078 cycles

LLC6 Set Associative Eviction Count : 0
LLC6 Priority 0 entries : 12288
LLC6 Inter-Core Interference : 933863
LLC7 TOTAL     ACCESS: 606008  HIT: 343956  MISS: 262052  HIT %: 56.7577  MISS %: 43.2423  AVERAGE MISS PENALTY: 346.356
LLC7 LOAD      ACCESS: 14453  HIT:  9204  MISS:  5249  HIT %: 63.6823  MISS %: 36.3177  AVERAGE MISS PENALTY: 485.632
LLC7 RFO       ACCESS: 138238  HIT: 51165  MISS: 87073  HIT %: 37.0123  MISS %: 62.9877  AVERAGE MISS PENALTY: 492.545
LLC7 PREFETCH  ACCESS: 264035  HIT: 176363  MISS: 87672  HIT %: 66.7953  MISS %: 33.2047  AVERAGE MISS PENALTY: 517.006
LLC7 WRITEBACK ACCESS: 189282  HIT: 107224  MISS: 82058  HIT %: 56.6478  MISS %: 43.3522  AVERAGE MISS PENALTY: 0
LLC7 PREFETCH  REQUESTED:     0  ISSUED:     0  USEFUL: 53738  USELESS: 158693
 USEFUL LOAD PREFETCHES:      53738 PREFETCH ISSUED TO LOWER LEVEL:     742436  ACCURACY: 7.23806
 TIMELY PREFETCHES:      53738 LATE PREFETCHES: 0 DROPPED PREFETCHES: 0
LLC7 AVERAGE MISS LATENCY: 346.356 cycles

LLC7 Set Associative Eviction Count : 0
LLC7 Priority 0 entries : 12287
LLC7 Inter-Core Interference : 932836
ROI Average ROB Stall Cycles:	6.30386
ROI Total ROB Stalls Cycles:	244138612
ROI TOTAL ROB counter      :	38728418
ROI Average Load ROB Stall Cycles:	19.1347
ROI Total Load ROB Stalls Cycle  :	71674142
ROI Total Load ROB stalls Counter:	3745759
Major fault: 0 Minor fault: 9056

CPU 7 cumulative IPC: 0.596904 instructions: 200000001 cycles: 335062461
ITLB TOTAL     ACCESS: 28611460  HIT: 28611452  MISS:     8  HIT %:   100  MISS %: 2.79608e-05  AVERAGE MISS PENALTY: 182.5
ITLB LOAD      ACCESS: 28611460  HIT: 28611452  MISS:     8  HIT %:   100  MISS %: 2.79608e-05  AVERAGE MISS PENALTY: 182.5
ITLB RFO       ACCESS:     0  HIT:     0  MISS:     0  HIT %:     0  MISS %:     0  AVERAGE MISS PENALTY: 0
ITLB PREFETCH  ACCESS:     0  HIT:     0  MISS:     0  HIT %:     0  MISS %:     0  AVERAGE MISS PENALTY: 0
ITLB WRITEBACK ACCESS:     0  HIT:     0  MISS:     0  HIT %:     0  MISS %:     0  AVERAGE MISS PENALTY: 0
ITLB PREFETCH  REQUESTED:     0  ISSUED:     0  USEFUL:     0  USELESS:     0
 USEFUL LOAD PREFETCHES:          0 PREFETCH ISSUED TO LOWER LEVEL:          0  ACCURACY: -nan
 TIMELY PREFETCHES:          0 LATE PREFETCHES: 0 DROPPED PREFETCHES: 0
ITLB AVERAGE MISS LATENCY: 182.5 cycles

ITLB Set Associative Eviction Count : 0
ITLB Priority 0 entries : 0
ITLB Inter-Core Interference : 8
DTLB TOTAL     ACCESS: 33966363  HIT: 33901816  MISS: 64547  HIT %: 99.81  MISS %: 0.190032  AVERAGE MISS PENALTY: 19.0235
DTLB LOAD      ACCESS: 23226856  HIT: 23183618  MISS: 43238  HIT %: 99.8138  MISS %: 0.186155  AVERAGE MISS PENALTY: 19.7587
DTLB RFO       ACCESS: 10739507  HIT: 10718198  MISS: 21309  HIT %: 99.8016  MISS %: 0.198417  AVERAGE MISS PENALTY: 17.5317
DTLB PREFETCH  ACCESS:     0  HIT:     0  MISS:     0  HIT %:     0  MISS %:     0  AVERAGE MISS PENALTY: 0
DTLB WRITEBACK ACCESS:     0  HIT:     0  MISS:     0  HIT %:     0  MISS %:     0  AVERAGE MISS PENALTY: 0
DTLB PREFETCH  REQUESTED:     0  ISSUED:     0  USEFUL:     0  USELESS:     0
 USEFUL LOAD PREFETCHES:          0 PREFETCH ISSUED TO LOWER LEVEL:          0  ACCURACY: -nan
 TIMELY PREFETCHES:          0 LATE PREFETCHES: 0 DROPPED PREFETCHES: 0
DTLB AVERAGE MISS LATENCY: 19.0235 cycles

DTLB Set Associative Eviction Count : 0
DTLB Priority 0 entries : 0
DTLB Inter-Core Interference : 0
STLB TOTAL     ACCESS: 64555  HIT: 58206  MISS:  6349  HIT %: 90.165  MISS %: 9.83502  AVERAGE MISS PENALTY: 100
STLB LOAD      ACCESS: 43246  HIT: 38711  MISS:  4535  HIT %: 89.5135  MISS %: 10.4865  AVERAGE MISS PENALTY: 100
STLB RFO       ACCESS: 21309  HIT: 19495  MISS:  1814  HIT %: 91.4872  MISS %: 8.51283  AVERAGE MISS PENALTY: 100
STLB PREFETCH  ACCESS:     0  HIT:     0  MISS:     0  HIT %:     0  MISS %:     0  AVERAGE MISS PENALTY: 0
STLB WRITEBACK ACCESS:     0  HIT:     0  MISS:     0  HIT %:     0  MISS %:     0  AVERAGE MISS PENALTY: 0
STLB PREFETCH  REQUESTED:     0  ISSUED:     0  USEFUL:     0  USELESS:     0
 USEFUL LOAD PREFETCHES:          0 PREFETCH ISSUED TO LOWER LEVEL:          0  ACCURACY: -nan
 TIMELY PREFETCHES:          0 LATE PREFETCHES: 0 DROPPED PREFETCHES: 0
STLB AVERAGE MISS LATENCY: 100 cycles

STLB Set Associative Eviction Count : 0
STLB Priority 0 entries : 0
STLB Inter-Core Interference : 0
L1D TOTAL     ACCESS: 40059229  HIT: 36349807  MISS: 3709422  HIT %: 90.7402  MISS %: 9.25984  AVERAGE MISS PENALTY: 3.43816e+07
L1D LOAD      ACCESS: 21491999  HIT: 20932738  MISS: 559261  HIT %: 97.3978  MISS %: 2.60218  AVERAGE MISS PENALTY: 2.27838e+08
L1D RFO       ACCESS: 9089541  HIT: 7936400  MISS: 1153141  HIT %: 87.3135  MISS %: 12.6865  AVERAGE MISS PENALTY: 99835
L1D PREFETCH  ACCESS: 9477689  HIT: 7480669  MISS: 1997020  HIT %: 78.9293  MISS %: 21.0707  AVERAGE MISS PENALTY: 79.737
L1D WRITEBACK ACCESS:     0  HIT:     0  MISS:     0  HIT %:     0  MISS %:     0  AVERAGE MISS PENALTY: 0
L1D PREFETCH  REQUESTED: 11996214  ISSUED: 11860028  USEFUL: 1943293  USELESS: 53752
 USEFUL LOAD PREFETCHES:    1943293 PREFETCH ISSUED TO LOWER LEVEL:    8954199  ACCURACY: 21.7026
 TIMELY PREFETCHES:    1943293 LATE PREFETCHES: 594899 DROPPED PREFETCHES: 136186
L1D AVERAGE MISS LATENCY: 31114.7 cycles

L1D Set Associative Eviction Count : 0
L1D Priority 0 entries : 0
L1D Inter-Core Interference : 0
L1I TOTAL     ACCESS: 38672947  HIT: 38668471  MISS:  4476  HIT %: 99.9884  MISS %: 0.011574  AVERAGE MISS PENALTY: 513.206
L1I LOAD      ACCESS: 38672947  HIT: 38668471  MISS:  4476  HIT %: 99.9884  MISS %: 0.011574  AVERAGE MISS PENALTY: 513.206
L1I RFO       ACCESS:     0  HIT:     0  MISS:     0  HIT %:     0  MISS %:     0  AVERAGE MISS PENALTY: 0
L1I PREFETCH  ACCESS:     0  HIT:     0  MISS:     0  HIT %:     0  MISS %:     0  AVERAGE MISS PENALTY: 0
L1I WRITEBACK ACCESS:     0  HIT:     0  MISS:     0  HIT %:     0  MISS %:     0  AVERAGE MISS PENALTY: 0
L1I PREFETCH  REQUESTED:     0  ISSUED:     0  USEFUL:     0  USELESS:     0
 USEFUL LOAD PREFETCHES:          0 PREFETCH ISSUED TO LOWER LEVEL:          0  ACCURACY: -nan
 TIMELY PREFETCHES:          0 LATE PREFETCHES: 0 DROPPED PREFETCHES: 0
L1I AVERAGE MISS LATENCY: 513.206 cycles

L1I Set Associative Eviction Count : 0
L1I Priority 0 entries : 0
L1I Inter-Core Interference : 0
L2C TOTAL     ACCESS: 7707703  HIT: 4277940  MISS: 3429763  HIT %: 55.5021  MISS %: 44.4979  AVERAGE MISS PENALTY: 2.4583e+07
L2C LOAD      ACCESS: 498451  HIT: 97924  MISS: 400527  HIT %: 19.6457  MISS %: 80.3543  AVERAGE MISS PENALTY: 2.10494e+08
L2C RFO       ACCESS: 1152731  HIT: 43037  MISS: 1109694  HIT %: 3.73348  MISS %: 96.2665  AVERAGE MISS PENALTY: 4523.34
L2C PREFETCH  ACCESS: 4473385  HIT: 2627267  MISS: 1846118  HIT %: 58.7311  MISS %: 41.2689  AVERAGE MISS PENALTY: 151.937
L2C WRITEBACK ACCESS: 1583136  HIT: 1509712  MISS: 73424  HIT %: 95.3621  MISS %: 4.63788  AVERAGE MISS PENALTY: 0
L2C PREFETCH  REQUESTED: 4341457  ISSUED: 4341042  USEFUL: 76581  USELESS: 1773659
 USEFUL LOAD PREFETCHES:      76581 PREFETCH ISSUED TO LOWER LEVEL:    2886389  ACCURACY: 2.65318
 TIMELY PREFETCHES:      76581 LATE PREFETCHES: 385571 DROPPED PREFETCHES: 415
L2C AVERAGE MISS LATENCY: 236.835 cycles

L2C Set Associative Eviction Count : 0
L2C Priority 0 entries : 0
L2C Inter-Core Interference : 0
LLC0 TOTAL     ACCESS: 609745  HIT: 346984  MISS: 262761  HIT %: 56.9064  MISS %: 43.0936  AVERAGE MISS PENALTY: 356.616
LLC0 LOAD      ACCESS: 45938  HIT: 31064  MISS: 14874  HIT %: 67.6216  MISS %: 32.3784  AVERAGE MISS PENALTY: 510.065
LLC0 RFO       ACCESS: 138867  HIT: 50904  MISS: 87963  HIT %: 36.6567  MISS %: 63.3433  AVERAGE MISS PENALTY: 512.105
LLC0 PREFETCH  ACCESS: 234316  HIT: 156901  MISS: 77415  HIT %: 66.9613  MISS %: 33.0387  AVERAGE MISS PENALTY: 530.54
LLC0 WRITEBACK ACCESS: 190624  HIT: 108115  MISS: 82509  HIT %: 56.7164  MISS %: 43.2836  AVERAGE MISS PENALTY: 0
LLC0 PREFETCH  REQUESTED:     0  ISSUED:     0  USEFUL: 47522  USELESS: 138440
 USEFUL LOAD PREFETCHES:      47522 PREFETCH ISSUED TO LOWER LEVEL:     625046  ACCURACY: 7.60296
 TIMELY PREFETCHES:      47522 LATE PREFETCHES: 0 DROPPED PREFETCHES: 0
LLC0 AVERAGE MISS LATENCY: 356.616 cycles

LLC0 Set Associative Eviction Count : 0
LLC0 Priority 0 entries : 12287
LLC0 Inter-Core Interference : 932519
LLC1 TOTAL     ACCESS: 609826  HIT: 347013  MISS: 262813  HIT %: 56.9036  MISS %: 43.0964  AVERAGE MISS PENALTY: 358.23
LLC1 LOAD      ACCESS: 24557  HIT: 15962  MISS:  8595  HIT %: 64.9998  MISS %: 35.0002  AVERAGE MISS PENALTY: 519.73
LLC1 RFO       ACCESS: 138728  HIT: 51173  MISS: 87555  HIT %: 36.8873  MISS %: 63.1127  AVERAGE MISS PENALTY: 516.527
LLC1 PREFETCH  ACCESS: 256023  HIT: 171644  MISS: 84379  HIT %: 67.0424  MISS %: 32.9576  AVERAGE MISS PENALTY: 526.859
LLC1 WRITEBACK ACCESS: 190518  HIT: 108234  MISS: 82284  HIT %: 56.8104  MISS %: 43.1896  AVERAGE MISS PENALTY: 0
LLC1 PREFETCH  REQUESTED:     0  ISSUED:     0  USEFUL: 54339  USELESS: 148805
 USEFUL LOAD PREFETCHES:      54339 PREFETCH ISSUED TO LOWER LEVEL:     702481  ACCURACY: 7.7353
 TIMELY PREFETCHES:      54339 LATE PREFETCHES: 0 DROPPED PREFETCHES: 0
LLC1 AVERAGE MISS LATENCY: 358.23 cycles

LLC1 Set Associative Eviction Count : 0
LLC1 Priority 0 entries : 12287
LLC1 Inter-Core Interference : 930741
LLC2 TOTAL     ACCESS: 610293  HIT: 346964  MISS: 263329  HIT %: 56.852  MISS %: 43.148  AVERAGE MISS PENALTY: 358.402
LLC2 LOAD      ACCESS: 17436  HIT: 11274  MISS:  6162  HIT %: 64.6593  MISS %: 35.3407  AVERAGE MISS PENALTY: 531.131
LLC2 RFO       ACCESS: 138861  HIT: 51093  MISS: 87768  HIT %: 36.7943  MISS %: 63.2057  AVERAGE MISS PENALTY: 505.425
LLC2 PREFETCH  ACCESS: 263434  HIT: 176541  MISS: 86893  HIT %: 67.0153  MISS %: 32.9847  AVERAGE MISS PENALTY: 537.957
LLC2 WRITEBACK ACCESS: 190562  HIT: 108056  MISS: 82506  HIT %: 56.7039  MISS %: 43.2961  AVERAGE MISS PENALTY: 0
LLC2 PREFETCH  REQUESTED:     0  ISSUED:     0  USEFUL: 54057  USELESS: 154964
 USEFUL LOAD PREFETCHES:      54057 PREFETCH ISSUED TO LOWER LEVEL:     716828  ACCURACY: 7.54114
 TIMELY PREFETCHES:      54057 LATE PREFETCHES: 0 DROPPED PREFETCHES: 0
LLC2 AVERAGE MISS LATENCY: 358.402 cycles

LLC2 Set Associative Eviction Count : 0
LLC2 Priority 0 entries : 12288
LLC2 Inter-Core Interference : 932287
LLC3 TOTAL     ACCESS: 610094  HIT: 346650  MISS: 263444  HIT %: 56.8191  MISS %: 43.1809  AVERAGE MISS PENALTY: 358.757
LLC3 LOAD      ACCESS: 15481  HIT:  9656  MISS:  5825  HIT %: 62.3732  MISS %: 37.6268  AVERAGE MISS PENALTY: 515.486
LLC3 RFO       ACCESS: 138605  HIT: 50893  MISS: 87712  HIT %: 36.718  MISS %: 63.282  AVERAGE MISS PENALTY: 510.268
LLC3 PREFETCH  ACCESS: 265418  HIT: 177919  MISS: 87499  HIT %: 67.0335  MISS %: 32.9665  AVERAGE MISS PENALTY: 534.327
LLC3 WRITEBACK ACCESS: 190590  HIT: 108182  MISS: 82408  HIT %: 56.7616  MISS %: 43.2384  AVERAGE MISS PENALTY: 0
LLC3 PREFETCH  REQUESTED:     0  ISSUED:     0  USEFUL: 54103  USELESS: 157047
 USEFUL LOAD PREFETCHES:      54103 PREFETCH ISSUED TO LOWER LEVEL:     744454  ACCURACY: 7.26747
 TIMELY PREFETCHES:      54103 LATE PREFETCHES: 0 DROPPED PREFETCHES: 0
LLC3 AVERAGE MISS LATENCY: 358.757 cycles

LLC3 Set Associative Eviction Count : 0
LLC3 Priority 0 entries : 12288
LLC3 Inter-Core Interference : 932153
LLC4 TOTAL     ACCESS: 610063  HIT: 346959  MISS: 263104  HIT %: 56.8727  MISS %: 43.1273  AVERAGE MISS PENALTY: 360.763
LLC4 LOAD      ACCESS: 14018  HIT:  9050  MISS:  4968  HIT %: 64.5599  MISS %: 35.4401  AVERAGE MISS PENALTY: 517.759
LLC4 RFO       ACCESS: 138659  HIT: 50945  MISS: 87714  HIT %: 36.7412  MISS %: 63.2588  AVERAGE MISS PENALTY: 517.946
LLC4 PREFETCH  ACCESS: 266722  HIT: 178741  MISS: 87981  HIT %: 67.014  MISS %: 32.986  AVERAGE MISS PENALTY: 533.237
LLC4 WRITEBACK ACCESS: 190664  HIT: 108223  MISS: 82441  HIT %: 56.7611  MISS %: 43.2389  AVERAGE MISS PENALTY: 0
LLC4 PREFETCH  REQUESTED:     0  ISSUED:     0  USEFUL: 54345  USELESS: 157372
 USEFUL LOAD PREFETCHES:      54345 PREFETCH ISSUED TO LOWER LEVEL:     710710  ACCURACY: 7.64658
 TIMELY PREFETCHES:      54345 LATE PREFETCHES: 0 DROPPED PREFETCHES: 0
LLC4 AVERAGE MISS LATENCY: 360.762 cycles

LLC4 Set Associative Eviction Count : 0
LLC4 Priority 0 entries : 12288
LLC4 Inter-Core Interference : 933161
LLC5 TOTAL     ACCESS: 610108  HIT: 347074  MISS: 263034  HIT %: 56.8873  MISS %: 43.1127  AVERAGE MISS PENALTY: 360.229
LLC5 LOAD      ACCESS: 14801  HIT:  9407  MISS:  5394  HIT %: 63.5565  MISS %: 36.4435  AVERAGE MISS PENALTY: 525.481
LLC5 RFO       ACCESS: 138619  HIT: 50976  MISS: 87643  HIT %: 36.7742  MISS %: 63.2258  AVERAGE MISS PENALTY: 518.195
LLC5 PREFETCH  ACCESS: 266096  HIT: 178405  MISS: 87691  HIT %: 67.0454  MISS %: 32.9546  AVERAGE MISS PENALTY: 530.291
LLC5 WRITEBACK ACCESS: 190592  HIT: 108286  MISS: 82306  HIT %: 56.8156  MISS %: 43.1844  AVERAGE MISS PENALTY: 0
LLC5 PREFETCH  REQUESTED:     0  ISSUED:     0  USEFUL: 54328  USELESS: 156681
 USEFUL LOAD PREFETCHES:      54328 PREFETCH ISSUED TO LOWER LEVEL:     722041  ACCURACY: 7.52423
 TIMELY PREFETCHES:      54328 LATE PREFETCHES: 0 DROPPED PREFETCHES: 0
LLC5 AVERAGE MISS LATENCY: 360.229 cycles

LLC5 Set Associative Eviction Count : 0
LLC5 Priority 0 entries : 12287
LLC5 Inter-Core Interference : 932264
LLC6 TOTAL     ACCESS: 610689  HIT: 347352  MISS: 263337  HIT %: 56.8787  MISS %: 43.1213  AVERAGE MISS PENALTY: 359.346
LLC6 LOAD      ACCESS: 13526  HIT:  8973  MISS:  4553  HIT %: 66.3389  MISS %: 33.6611  AVERAGE MISS PENALTY: 527.617
LLC6 RFO       ACCESS: 138781  HIT: 50888  MISS: 87893  HIT %: 36.6678  MISS %: 63.3322  AVERAGE MISS PENALTY: 508.606
LLC6 PREFETCH  ACCESS: 267768  HIT: 179076  MISS: 88692  HIT %: 66.8773  MISS %: 33.1227  AVERAGE MISS PENALTY: 535.83
LLC6 WRITEBACK ACCESS: 190614  HIT: 108415  MISS: 82199  HIT %: 56.8767  MISS %: 43.1233  AVERAGE MISS PENALTY: 0
LLC6 PREFETCH  REQUESTED:     0  ISSUED:     0  USEFUL: 54399  USELESS: 158786
 USEFUL LOAD PREFETCHES:      54399 PREFETCH ISSUED TO LOWER LEVEL:     721743  ACCURACY: 7.53717
 TIMELY PREFETCHES:      54399 LATE PREFETCHES: 0 DROPPED PREFETCHES: 0
LLC6 AVERAGE MISS LATENCY: 359.346 cycles

LLC6 Set Associative Eviction Count : 0
LLC6 Priority 0 entries : 12288
LLC6 Inter-Core Interference : 933863
LLC7 TOTAL     ACCESS: 610234  HIT: 346763  MISS: 263471  HIT %: 56.8246  MISS %: 43.1754  AVERAGE MISS PENALTY: 359.203
LLC7 LOAD      ACCESS: 14555  HIT:  9428  MISS:  5127  HIT %: 64.775  MISS %: 35.225  AVERAGE MISS PENALTY: 525.312
LLC7 RFO       ACCESS: 138564  HIT: 50978  MISS: 87586  HIT %: 36.7902  MISS %: 63.2098  AVERAGE MISS PENALTY: 510.129
LLC7 PREFETCH  ACCESS: 266558  HIT: 178450  MISS: 88108  HIT %: 66.946  MISS %: 33.054  AVERAGE MISS PENALTY: 536.456
LLC7 WRITEBACK ACCESS: 190557  HIT: 107907  MISS: 82650  HIT %: 56.6272  MISS %: 43.3728  AVERAGE MISS PENALTY: 0
LLC7 PREFETCH  REQUESTED:     0  ISSUED:     0  USEFUL: 53738  USELESS: 158693
 USEFUL LOAD PREFETCHES:      53738 PREFETCH ISSUED TO LOWER LEVEL:     742436  ACCURACY: 7.23806
 TIMELY PREFETCHES:      53738 LATE PREFETCHES: 0 DROPPED PREFETCHES: 0
LLC7 AVERAGE MISS LATENCY: 359.203 cycles

LLC7 Set Associative Eviction Count : 0
LLC7 Priority 0 entries : 12287
LLC7 Inter-Core Interference : 932836
ROI Average ROB Stall Cycles:	6.39874
ROI Total ROB Stalls Cycles:	247823404
ROI TOTAL ROB counter      :	38730054
ROI Average Load ROB Stall Cycles:	20.4122
ROI Total Load ROB Stalls Cycle  :	76467446
ROI Total Load ROB stalls Counter:	3746163
Major fault: 0 Minor fault: 9002








Interconnect Stats 
LINK 0 BW : 0LINK 1 BW : 0LINK 2 BW : 0LINK 3 BW : 0LINK 4 BW : 0LINK 5 BW : 0LINK 6 BW : 0LINK 7 BW : 0
DRAM Statistics
 CHANNEL 0
 RQ ROW_BUFFER_HIT: 1697487  ROW_BUFFER_MISS: 4068024
 DBUS_CONGESTED: 8823065
 WQ ROW_BUFFER_HIT: 445378  ROW_BUFFER_MISS: 3167415  FULL:  5096

 CHANNEL 1
 RQ ROW_BUFFER_HIT: 1684603  ROW_BUFFER_MISS: 4075082
 DBUS_CONGESTED: 8823065
 WQ ROW_BUFFER_HIT: 444705  ROW_BUFFER_MISS: 3163781  FULL:  5598

 AVG_CONGESTED_CYCLE: 6
DRAM PAGES: 2097152
Allocated PAGES: 72583
L2C destructor called
L1D destructor called
L1I destructor called
STLB destructor called
DTLB destructor called
ITLB destructor called
L2C destructor called
L1D destructor called
L1I destructor called
STLB destructor called
DTLB destructor called
ITLB destructor called
L2C destructor called
L1D destructor called
L1I destructor called
STLB destructor called
DTLB destructor called
ITLB destructor called
L2C destructor called
L1D destructor called
L1I destructor called
STLB destructor called
DTLB destructor called
ITLB destructor called
L2C destructor called
L1D destructor called
L1I destructor called
STLB destructor called
DTLB destructor called
ITLB destructor called
L2C destructor called
L1D destructor called
L1I destructor called
STLB destructor called
DTLB destructor called
ITLB destructor called
L2C destructor called
L1D destructor called
L1I destructor called
STLB destructor called
DTLB destructor called
ITLB destructor called
L2C destructor called
L1D destructor called
L1I destructor called
STLB destructor called
DTLB destructor called
ITLB destructor called
