
*** ChampSim Multicore Out-of-Order Simulator ***

Warmup Instructions: 200000000
Simulation Instructions: 200000000
Number of CPUs: 8
threads:1

L1I Configuration:
L1I_SET:64
L1I_WAY:8
L1I_RQ_SIZE:64
L1I_WQ_SIZE:64
L1I_PQ_SIZE:8
L1I_MSHR_SIZE:8

L1D Configuration:
L1D_SET:64
L1D_WAY:12
L1D_RQ_SIZE:64
L1D_WQ_SIZE:64
L1D_PQ_SIZE:8
L1D_MSHR_SIZE:16

L2C Configuration:
L2C_SET:1024
L2C_WAY:8
L2C_RQ_SIZE:32
L2C_WQ_SIZE:32
L2C_PQ_SIZE:16
L2C_MSHR_SIZE:32

LLC Configuration:
LLC_SET:2048
LLC_WAY:12
LLC SLICES:8
LLC_RQ_SIZE:64
LLC_WQ_SIZE:64
LLC_PQ_SIZE:32
LLC_MSHR_SIZE:64

Interconnect OFF
Attacker deprioritize is: OFF
Off-chip DRAM Size: 8192 MB Channels: 2 Width: 64-bit Data Rate: 3200 MT/s
PAGE SIZE in KB: 4.000000 
PAGE SIZE in MB: 0.003906 
PAGE offset in bits: 12 
CEASER-S_LLC:0
MIRAGE : 1
CEASER_LATENCY:3
REMAP : OFF
Partitions : 1
Multi-Step : OFF
BFS : OFF

CPU 0 runs /home/anubhav/spec_2017/628.pop2_s-17B.champsimtrace.xz
CPU 1 runs /home/anubhav/spec_2017/628.pop2_s-17B.champsimtrace.xz
CPU 2 runs /home/anubhav/spec_2017/628.pop2_s-17B.champsimtrace.xz
CPU 3 runs /home/anubhav/spec_2017/628.pop2_s-17B.champsimtrace.xz
CPU 4 runs /home/anubhav/spec_2017/628.pop2_s-17B.champsimtrace.xz
CPU 5 runs /home/anubhav/spec_2017/628.pop2_s-17B.champsimtrace.xz
CPU 6 runs /home/anubhav/spec_2017/628.pop2_s-17B.champsimtrace.xz
CPU 7 runs /home/anubhav/spec_2017/628.pop2_s-17B.champsimtrace.xz
CPU 0 Bimodal branch predictor
Initialize Hawkeye state
Initialize Hawkeye state
Initialize Hawkeye state
Initialize Hawkeye state
Initialize Hawkeye state
Initialize Hawkeye state
Initialize Hawkeye state
Initialize Hawkeye state
CPU 1 Bimodal branch predictor
Initialize Hawkeye state
Initialize Hawkeye state
Initialize Hawkeye state
Initialize Hawkeye state
Initialize Hawkeye state
Initialize Hawkeye state
Initialize Hawkeye state
Initialize Hawkeye state
CPU 2 Bimodal branch predictor
Initialize Hawkeye state
Initialize Hawkeye state
Initialize Hawkeye state
Initialize Hawkeye state
Initialize Hawkeye state
Initialize Hawkeye state
Initialize Hawkeye state
Initialize Hawkeye state
CPU 3 Bimodal branch predictor
Initialize Hawkeye state
Initialize Hawkeye state
Initialize Hawkeye state
Initialize Hawkeye state
Initialize Hawkeye state
Initialize Hawkeye state
Initialize Hawkeye state
Initialize Hawkeye state
CPU 4 Bimodal branch predictor
Initialize Hawkeye state
Initialize Hawkeye state
Initialize Hawkeye state
Initialize Hawkeye state
Initialize Hawkeye state
Initialize Hawkeye state
Initialize Hawkeye state
Initialize Hawkeye state
CPU 5 Bimodal branch predictor
Initialize Hawkeye state
Initialize Hawkeye state
Initialize Hawkeye state
Initialize Hawkeye state
Initialize Hawkeye state
Initialize Hawkeye state
Initialize Hawkeye state
Initialize Hawkeye state
CPU 6 Bimodal branch predictor
Initialize Hawkeye state
Initialize Hawkeye state
Initialize Hawkeye state
Initialize Hawkeye state
Initialize Hawkeye state
Initialize Hawkeye state
Initialize Hawkeye state
Initialize Hawkeye state
CPU 7 Bimodal branch predictor
Initialize Hawkeye state
Initialize Hawkeye state
Initialize Hawkeye state
Initialize Hawkeye state
Initialize Hawkeye state
Initialize Hawkeye state
Initialize Hawkeye state
Initialize Hawkeye state
Heartbeat CPU 0 instructions: 10000002 cycles: 4456054 heartbeat IPC: 2.24414 cumulative IPC: 2.24414 (Simulation time: 0 hr 27 min 27 sec) 
 Total Blocks : 196608 Invalid Blocks : 55074 Valid Blocks : 141534
 Total Tags : 491520 Threshold : 12288 Invalid Tags : 251723 Pr0 Tags : 98263 Pr1 Tags : 141534 num_pr0 : 12280
 SAE Count : 0
 Inter-Core Inteference in Data Store : 94144
Heartbeat CPU 3 instructions: 10000002 cycles: 4456241 heartbeat IPC: 2.24404 cumulative IPC: 2.24404 (Simulation time: 0 hr 27 min 27 sec) 
 Total Blocks : 196608 Invalid Blocks : 55074 Valid Blocks : 141534
 Total Tags : 491520 Threshold : 12288 Invalid Tags : 251723 Pr0 Tags : 98263 Pr1 Tags : 141534 num_pr0 : 12280
 SAE Count : 0
 Inter-Core Inteference in Data Store : 94144
Heartbeat CPU 1 instructions: 10000002 cycles: 4456268 heartbeat IPC: 2.24403 cumulative IPC: 2.24403 (Simulation time: 0 hr 27 min 27 sec) 
 Total Blocks : 196608 Invalid Blocks : 55074 Valid Blocks : 141534
 Total Tags : 491520 Threshold : 12288 Invalid Tags : 251723 Pr0 Tags : 98263 Pr1 Tags : 141534 num_pr0 : 12280
 SAE Count : 0
 Inter-Core Inteference in Data Store : 94144
Heartbeat CPU 2 instructions: 10000002 cycles: 4456396 heartbeat IPC: 2.24397 cumulative IPC: 2.24397 (Simulation time: 0 hr 27 min 28 sec) 
 Total Blocks : 196608 Invalid Blocks : 55074 Valid Blocks : 141534
 Total Tags : 491520 Threshold : 12288 Invalid Tags : 251723 Pr0 Tags : 98263 Pr1 Tags : 141534 num_pr0 : 12280
 SAE Count : 0
 Inter-Core Inteference in Data Store : 94144
Heartbeat CPU 6 instructions: 10000002 cycles: 4456493 heartbeat IPC: 2.24392 cumulative IPC: 2.24392 (Simulation time: 0 hr 27 min 28 sec) 
 Total Blocks : 196608 Invalid Blocks : 55074 Valid Blocks : 141534
 Total Tags : 491520 Threshold : 12288 Invalid Tags : 251723 Pr0 Tags : 98263 Pr1 Tags : 141534 num_pr0 : 12280
 SAE Count : 0
 Inter-Core Inteference in Data Store : 94144
Heartbeat CPU 4 instructions: 10000002 cycles: 4456495 heartbeat IPC: 2.24392 cumulative IPC: 2.24392 (Simulation time: 0 hr 27 min 28 sec) 
 Total Blocks : 196608 Invalid Blocks : 55074 Valid Blocks : 141534
 Total Tags : 491520 Threshold : 12288 Invalid Tags : 251723 Pr0 Tags : 98263 Pr1 Tags : 141534 num_pr0 : 12280
 SAE Count : 0
 Inter-Core Inteference in Data Store : 94144
Heartbeat CPU 5 instructions: 10000002 cycles: 4456619 heartbeat IPC: 2.24385 cumulative IPC: 2.24385 (Simulation time: 0 hr 27 min 28 sec) 
 Total Blocks : 196608 Invalid Blocks : 55074 Valid Blocks : 141534
 Total Tags : 491520 Threshold : 12288 Invalid Tags : 251723 Pr0 Tags : 98263 Pr1 Tags : 141534 num_pr0 : 12280
 SAE Count : 0
 Inter-Core Inteference in Data Store : 94144
Heartbeat CPU 7 instructions: 10000002 cycles: 4456899 heartbeat IPC: 2.24371 cumulative IPC: 2.24371 (Simulation time: 0 hr 27 min 28 sec) 
 Total Blocks : 196608 Invalid Blocks : 55074 Valid Blocks : 141534
 Total Tags : 491520 Threshold : 12288 Invalid Tags : 251723 Pr0 Tags : 98263 Pr1 Tags : 141534 num_pr0 : 12280
 SAE Count : 0
 Inter-Core Inteference in Data Store : 94144
Heartbeat CPU 0 instructions: 20000003 cycles: 8887899 heartbeat IPC: 2.2564 cumulative IPC: 2.25025 (Simulation time: 0 hr 56 min 30 sec) 
 Total Blocks : 196608 Invalid Blocks : 20169 Valid Blocks : 176439
 Total Tags : 491520 Threshold : 12288 Invalid Tags : 216791 Pr0 Tags : 98290 Pr1 Tags : 176439 num_pr0 : 12286
 SAE Count : 0
 Inter-Core Inteference in Data Store : 235410
Heartbeat CPU 3 instructions: 20000003 cycles: 8888108 heartbeat IPC: 2.25639 cumulative IPC: 2.2502 (Simulation time: 0 hr 56 min 30 sec) 
 Total Blocks : 196608 Invalid Blocks : 20169 Valid Blocks : 176439
 Total Tags : 491520 Threshold : 12288 Invalid Tags : 216791 Pr0 Tags : 98290 Pr1 Tags : 176439 num_pr0 : 12286
 SAE Count : 0
 Inter-Core Inteference in Data Store : 235410
Heartbeat CPU 2 instructions: 20000003 cycles: 8888288 heartbeat IPC: 2.25637 cumulative IPC: 2.25015 (Simulation time: 0 hr 56 min 31 sec) 
 Total Blocks : 196608 Invalid Blocks : 20169 Valid Blocks : 176439
 Total Tags : 491520 Threshold : 12288 Invalid Tags : 216791 Pr0 Tags : 98290 Pr1 Tags : 176439 num_pr0 : 12286
 SAE Count : 0
 Inter-Core Inteference in Data Store : 235410
Heartbeat CPU 1 instructions: 20000003 cycles: 8888322 heartbeat IPC: 2.25629 cumulative IPC: 2.25014 (Simulation time: 0 hr 56 min 31 sec) 
 Total Blocks : 196608 Invalid Blocks : 20169 Valid Blocks : 176439
 Total Tags : 491520 Threshold : 12288 Invalid Tags : 216791 Pr0 Tags : 98290 Pr1 Tags : 176439 num_pr0 : 12286
 SAE Count : 0
 Inter-Core Inteference in Data Store : 235410
Heartbeat CPU 5 instructions: 20000003 cycles: 8888586 heartbeat IPC: 2.25633 cumulative IPC: 2.25008 (Simulation time: 0 hr 56 min 31 sec) 
 Total Blocks : 196608 Invalid Blocks : 20169 Valid Blocks : 176439
 Total Tags : 491520 Threshold : 12288 Invalid Tags : 216791 Pr0 Tags : 98290 Pr1 Tags : 176439 num_pr0 : 12286
 SAE Count : 0
 Inter-Core Inteference in Data Store : 235410
Heartbeat CPU 6 instructions: 20000003 cycles: 8888632 heartbeat IPC: 2.25625 cumulative IPC: 2.25007 (Simulation time: 0 hr 56 min 31 sec) 
 Total Blocks : 196608 Invalid Blocks : 20169 Valid Blocks : 176439
 Total Tags : 491520 Threshold : 12288 Invalid Tags : 216791 Pr0 Tags : 98290 Pr1 Tags : 176439 num_pr0 : 12286
 SAE Count : 0
 Inter-Core Inteference in Data Store : 235410
Heartbeat CPU 4 instructions: 20000003 cycles: 8888647 heartbeat IPC: 2.25624 cumulative IPC: 2.25006 (Simulation time: 0 hr 56 min 31 sec) 
 Total Blocks : 196608 Invalid Blocks : 20169 Valid Blocks : 176439
 Total Tags : 491520 Threshold : 12288 Invalid Tags : 216791 Pr0 Tags : 98290 Pr1 Tags : 176439 num_pr0 : 12286
 SAE Count : 0
 Inter-Core Inteference in Data Store : 235410
Heartbeat CPU 7 instructions: 20000003 cycles: 8889374 heartbeat IPC: 2.25608 cumulative IPC: 2.24988 (Simulation time: 0 hr 56 min 31 sec) 
 Total Blocks : 196608 Invalid Blocks : 20169 Valid Blocks : 176439
 Total Tags : 491520 Threshold : 12288 Invalid Tags : 216791 Pr0 Tags : 98290 Pr1 Tags : 176439 num_pr0 : 12286
 SAE Count : 0
 Inter-Core Inteference in Data Store : 235410
Heartbeat CPU 0 instructions: 30000002 cycles: 13320220 heartbeat IPC: 2.25615 cumulative IPC: 2.25222 (Simulation time: 1 hr 23 min 41 sec) 
 Total Blocks : 196608 Invalid Blocks : 7505 Valid Blocks : 189103
 Total Tags : 491520 Threshold : 12288 Invalid Tags : 204121 Pr0 Tags : 98296 Pr1 Tags : 189103 num_pr0 : 12287
 SAE Count : 0
 Inter-Core Inteference in Data Store : 394990
Heartbeat CPU 3 instructions: 30000002 cycles: 13320427 heartbeat IPC: 2.25616 cumulative IPC: 2.25218 (Simulation time: 1 hr 23 min 41 sec) 
 Total Blocks : 196608 Invalid Blocks : 7505 Valid Blocks : 189103
 Total Tags : 491520 Threshold : 12288 Invalid Tags : 204120 Pr0 Tags : 98297 Pr1 Tags : 189103 num_pr0 : 12287
 SAE Count : 0
 Inter-Core Inteference in Data Store : 394990
Heartbeat CPU 2 instructions: 30000002 cycles: 13320702 heartbeat IPC: 2.25611 cumulative IPC: 2.25213 (Simulation time: 1 hr 23 min 41 sec) 
 Total Blocks : 196608 Invalid Blocks : 7505 Valid Blocks : 189103
 Total Tags : 491520 Threshold : 12288 Invalid Tags : 204120 Pr0 Tags : 98297 Pr1 Tags : 189103 num_pr0 : 12286
 SAE Count : 0
 Inter-Core Inteference in Data Store : 394992
Heartbeat CPU 1 instructions: 30000002 cycles: 13320797 heartbeat IPC: 2.25608 cumulative IPC: 2.25212 (Simulation time: 1 hr 23 min 41 sec) 
 Total Blocks : 196608 Invalid Blocks : 7505 Valid Blocks : 189103
 Total Tags : 491520 Threshold : 12288 Invalid Tags : 204120 Pr0 Tags : 98297 Pr1 Tags : 189103 num_pr0 : 12286
 SAE Count : 0
 Inter-Core Inteference in Data Store : 394992
Heartbeat CPU 4 instructions: 30000002 cycles: 13321206 heartbeat IPC: 2.25603 cumulative IPC: 2.25205 (Simulation time: 1 hr 23 min 41 sec) 
 Total Blocks : 196608 Invalid Blocks : 7504 Valid Blocks : 189104
 Total Tags : 491520 Threshold : 12288 Invalid Tags : 204120 Pr0 Tags : 98296 Pr1 Tags : 189104 num_pr0 : 12286
 SAE Count : 0
 Inter-Core Inteference in Data Store : 394994
Heartbeat CPU 5 instructions: 30000002 cycles: 13321279 heartbeat IPC: 2.25596 cumulative IPC: 2.25204 (Simulation time: 1 hr 23 min 42 sec) 
 Total Blocks : 196608 Invalid Blocks : 7504 Valid Blocks : 189104
 Total Tags : 491520 Threshold : 12288 Invalid Tags : 204120 Pr0 Tags : 98296 Pr1 Tags : 189104 num_pr0 : 12286
 SAE Count : 0
 Inter-Core Inteference in Data Store : 394994
Heartbeat CPU 6 instructions: 30000002 cycles: 13321407 heartbeat IPC: 2.25592 cumulative IPC: 2.25201 (Simulation time: 1 hr 23 min 42 sec) 
 Total Blocks : 196608 Invalid Blocks : 7504 Valid Blocks : 189104
 Total Tags : 491520 Threshold : 12288 Invalid Tags : 204120 Pr0 Tags : 98296 Pr1 Tags : 189104 num_pr0 : 12286
 SAE Count : 0
 Inter-Core Inteference in Data Store : 394994
Heartbeat CPU 7 instructions: 30000002 cycles: 13322285 heartbeat IPC: 2.25585 cumulative IPC: 2.25187 (Simulation time: 1 hr 23 min 42 sec) 
 Total Blocks : 196608 Invalid Blocks : 7504 Valid Blocks : 189104
 Total Tags : 491520 Threshold : 12288 Invalid Tags : 204120 Pr0 Tags : 98296 Pr1 Tags : 189104 num_pr0 : 12286
 SAE Count : 0
 Inter-Core Inteference in Data Store : 394997
FILL
Heartbeat CPU 0 instructions: 40000000 cycles: 17752591 heartbeat IPC: 2.25613 cumulative IPC: 2.25319 (Simulation time: 1 hr 51 min 2 sec) 
 Total Blocks : 196608 Invalid Blocks : 2808 Valid Blocks : 193800
 Total Tags : 491520 Threshold : 12288 Invalid Tags : 199416 Pr0 Tags : 98304 Pr1 Tags : 193800 num_pr0 : 12288
 SAE Count : 0
 Inter-Core Inteference in Data Store : 560989
Heartbeat CPU 3 instructions: 40000000 cycles: 17752809 heartbeat IPC: 2.25612 cumulative IPC: 2.25316 (Simulation time: 1 hr 51 min 2 sec) 
 Total Blocks : 196608 Invalid Blocks : 2808 Valid Blocks : 193800
 Total Tags : 491520 Threshold : 12288 Invalid Tags : 199416 Pr0 Tags : 98304 Pr1 Tags : 193800 num_pr0 : 12288
 SAE Count : 0
 Inter-Core Inteference in Data Store : 561011
Heartbeat CPU 2 instructions: 40000000 cycles: 17753100 heartbeat IPC: 2.25611 cumulative IPC: 2.25313 (Simulation time: 1 hr 51 min 2 sec) 
 Total Blocks : 196608 Invalid Blocks : 2807 Valid Blocks : 193801
 Total Tags : 491520 Threshold : 12288 Invalid Tags : 199416 Pr0 Tags : 98303 Pr1 Tags : 193801 num_pr0 : 12288
 SAE Count : 0
 Inter-Core Inteference in Data Store : 561037
Heartbeat CPU 1 instructions: 40000000 cycles: 17753315 heartbeat IPC: 2.25605 cumulative IPC: 2.2531 (Simulation time: 1 hr 51 min 3 sec) 
 Total Blocks : 196608 Invalid Blocks : 2807 Valid Blocks : 193801
 Total Tags : 491520 Threshold : 12288 Invalid Tags : 199415 Pr0 Tags : 98304 Pr1 Tags : 193801 num_pr0 : 12288
 SAE Count : 0
 Inter-Core Inteference in Data Store : 561056
Heartbeat CPU 4 instructions: 40000000 cycles: 17753957 heartbeat IPC: 2.25593 cumulative IPC: 2.25302 (Simulation time: 1 hr 51 min 3 sec) 
 Total Blocks : 196608 Invalid Blocks : 2806 Valid Blocks : 193802
 Total Tags : 491520 Threshold : 12288 Invalid Tags : 199417 Pr0 Tags : 98301 Pr1 Tags : 193802 num_pr0 : 12287
 SAE Count : 0
 Inter-Core Inteference in Data Store : 561091
Heartbeat CPU 5 instructions: 40000000 cycles: 17754030 heartbeat IPC: 2.25593 cumulative IPC: 2.25301 (Simulation time: 1 hr 51 min 3 sec) 
 Total Blocks : 196608 Invalid Blocks : 2806 Valid Blocks : 193802
 Total Tags : 491520 Threshold : 12288 Invalid Tags : 199415 Pr0 Tags : 98303 Pr1 Tags : 193802 num_pr0 : 12288
 SAE Count : 0
 Inter-Core Inteference in Data Store : 561092
Heartbeat CPU 6 instructions: 40000000 cycles: 17754083 heartbeat IPC: 2.25597 cumulative IPC: 2.253 (Simulation time: 1 hr 51 min 3 sec) 
 Total Blocks : 196608 Invalid Blocks : 2806 Valid Blocks : 193802
 Total Tags : 491520 Threshold : 12288 Invalid Tags : 199415 Pr0 Tags : 98303 Pr1 Tags : 193802 num_pr0 : 12288
 SAE Count : 0
 Inter-Core Inteference in Data Store : 561098
Heartbeat CPU 7 instructions: 40000000 cycles: 17755242 heartbeat IPC: 2.25583 cumulative IPC: 2.25286 (Simulation time: 1 hr 51 min 3 sec) 
 Total Blocks : 196608 Invalid Blocks : 2804 Valid Blocks : 193804
 Total Tags : 491520 Threshold : 12288 Invalid Tags : 199413 Pr0 Tags : 98303 Pr1 Tags : 193804 num_pr0 : 12288
 SAE Count : 0
 Inter-Core Inteference in Data Store : 561157
Heartbeat CPU 0 instructions: 50000001 cycles: 22040683 heartbeat IPC: 2.33204 cumulative IPC: 2.26853 (Simulation time: 2 hr 18 min 26 sec) 
 Total Blocks : 196608 Invalid Blocks : 1087 Valid Blocks : 195521
 Total Tags : 491520 Threshold : 12288 Invalid Tags : 197708 Pr0 Tags : 98291 Pr1 Tags : 195521 num_pr0 : 12286
 SAE Count : 0
 Inter-Core Inteference in Data Store : 726113
Heartbeat CPU 3 instructions: 50000001 cycles: 22040721 heartbeat IPC: 2.33214 cumulative IPC: 2.26853 (Simulation time: 2 hr 18 min 26 sec) 
 Total Blocks : 196608 Invalid Blocks : 1087 Valid Blocks : 195521
 Total Tags : 491520 Threshold : 12288 Invalid Tags : 197702 Pr0 Tags : 98297 Pr1 Tags : 195521 num_pr0 : 12286
 SAE Count : 0
 Inter-Core Inteference in Data Store : 726115
Heartbeat CPU 2 instructions: 50000003 cycles: 22040954 heartbeat IPC: 2.33217 cumulative IPC: 2.2685 (Simulation time: 2 hr 18 min 26 sec) 
 Total Blocks : 196608 Invalid Blocks : 1087 Valid Blocks : 195521
 Total Tags : 491520 Threshold : 12288 Invalid Tags : 197704 Pr0 Tags : 98295 Pr1 Tags : 195521 num_pr0 : 12287
 SAE Count : 0
 Inter-Core Inteference in Data Store : 726173
Heartbeat CPU 1 instructions: 50000001 cycles: 22041410 heartbeat IPC: 2.33204 cumulative IPC: 2.26846 (Simulation time: 2 hr 18 min 27 sec) 
 Total Blocks : 196608 Invalid Blocks : 1086 Valid Blocks : 195522
 Total Tags : 491520 Threshold : 12288 Invalid Tags : 197696 Pr0 Tags : 98302 Pr1 Tags : 195522 num_pr0 : 12288
 SAE Count : 0
 Inter-Core Inteference in Data Store : 726193
Heartbeat CPU 4 instructions: 50000003 cycles: 22042126 heartbeat IPC: 2.332 cumulative IPC: 2.26838 (Simulation time: 2 hr 18 min 27 sec) 
 Total Blocks : 196608 Invalid Blocks : 1085 Valid Blocks : 195523
 Total Tags : 491520 Threshold : 12288 Invalid Tags : 197696 Pr0 Tags : 98301 Pr1 Tags : 195523 num_pr0 : 12288
 SAE Count : 0
 Inter-Core Inteference in Data Store : 726228
Heartbeat CPU 5 instructions: 50000001 cycles: 22042357 heartbeat IPC: 2.33191 cumulative IPC: 2.26836 (Simulation time: 2 hr 18 min 27 sec) 
 Total Blocks : 196608 Invalid Blocks : 1085 Valid Blocks : 195523
 Total Tags : 491520 Threshold : 12288 Invalid Tags : 197697 Pr0 Tags : 98300 Pr1 Tags : 195523 num_pr0 : 12288
 SAE Count : 0
 Inter-Core Inteference in Data Store : 726256
Heartbeat CPU 6 instructions: 50000001 cycles: 22042374 heartbeat IPC: 2.33193 cumulative IPC: 2.26836 (Simulation time: 2 hr 18 min 27 sec) 
 Total Blocks : 196608 Invalid Blocks : 1085 Valid Blocks : 195523
 Total Tags : 491520 Threshold : 12288 Invalid Tags : 197694 Pr0 Tags : 98303 Pr1 Tags : 195523 num_pr0 : 12288
 SAE Count : 0
 Inter-Core Inteference in Data Store : 726261
Heartbeat CPU 7 instructions: 50000001 cycles: 22043723 heartbeat IPC: 2.33183 cumulative IPC: 2.26822 (Simulation time: 2 hr 18 min 28 sec) 
 Total Blocks : 196608 Invalid Blocks : 1084 Valid Blocks : 195524
 Total Tags : 491520 Threshold : 12288 Invalid Tags : 197695 Pr0 Tags : 98301 Pr1 Tags : 195524 num_pr0 : 12287
 SAE Count : 0
 Inter-Core Inteference in Data Store : 726405
Heartbeat CPU 3 instructions: 60000003 cycles: 26249490 heartbeat IPC: 2.37599 cumulative IPC: 2.28576 (Simulation time: 2 hr 44 min 59 sec) 
 Total Blocks : 196608 Invalid Blocks : 442 Valid Blocks : 196166
 Total Tags : 491520 Threshold : 12288 Invalid Tags : 197050 Pr0 Tags : 98304 Pr1 Tags : 196166 num_pr0 : 12288
 SAE Count : 0
 Inter-Core Inteference in Data Store : 889571
Heartbeat CPU 0 instructions: 60000003 cycles: 26249497 heartbeat IPC: 2.37597 cumulative IPC: 2.28576 (Simulation time: 2 hr 45 min 0 sec) 
 Total Blocks : 196608 Invalid Blocks : 442 Valid Blocks : 196166
 Total Tags : 491520 Threshold : 12288 Invalid Tags : 197050 Pr0 Tags : 98304 Pr1 Tags : 196166 num_pr0 : 12288
 SAE Count : 0
 Inter-Core Inteference in Data Store : 889571
Heartbeat CPU 2 instructions: 60000003 cycles: 26249746 heartbeat IPC: 2.37598 cumulative IPC: 2.28574 (Simulation time: 2 hr 45 min 0 sec) 
 Total Blocks : 196608 Invalid Blocks : 442 Valid Blocks : 196166
 Total Tags : 491520 Threshold : 12288 Invalid Tags : 197050 Pr0 Tags : 98304 Pr1 Tags : 196166 num_pr0 : 12288
 SAE Count : 0
 Inter-Core Inteference in Data Store : 889574
Heartbeat CPU 1 instructions: 60000003 cycles: 26250225 heartbeat IPC: 2.37597 cumulative IPC: 2.28569 (Simulation time: 2 hr 45 min 0 sec) 
 Total Blocks : 196608 Invalid Blocks : 442 Valid Blocks : 196166
 Total Tags : 491520 Threshold : 12288 Invalid Tags : 197058 Pr0 Tags : 98296 Pr1 Tags : 196166 num_pr0 : 12286
 SAE Count : 0
 Inter-Core Inteference in Data Store : 889595
Heartbeat CPU 4 instructions: 60000003 cycles: 26251052 heartbeat IPC: 2.3759 cumulative IPC: 2.28562 (Simulation time: 2 hr 45 min 0 sec) 
 Total Blocks : 196608 Invalid Blocks : 442 Valid Blocks : 196166
 Total Tags : 491520 Threshold : 12288 Invalid Tags : 197054 Pr0 Tags : 98300 Pr1 Tags : 196166 num_pr0 : 12287
 SAE Count : 0
 Inter-Core Inteference in Data Store : 889606
Heartbeat CPU 5 instructions: 60000003 cycles: 26251593 heartbeat IPC: 2.37573 cumulative IPC: 2.28558 (Simulation time: 2 hr 45 min 0 sec) 
 Total Blocks : 196608 Invalid Blocks : 442 Valid Blocks : 196166
 Total Tags : 491520 Threshold : 12288 Invalid Tags : 197054 Pr0 Tags : 98300 Pr1 Tags : 196166 num_pr0 : 12287
 SAE Count : 0
 Inter-Core Inteference in Data Store : 889610
Heartbeat CPU 6 instructions: 60000003 cycles: 26251622 heartbeat IPC: 2.37572 cumulative IPC: 2.28557 (Simulation time: 2 hr 45 min 0 sec) 
 Total Blocks : 196608 Invalid Blocks : 442 Valid Blocks : 196166
 Total Tags : 491520 Threshold : 12288 Invalid Tags : 197054 Pr0 Tags : 98300 Pr1 Tags : 196166 num_pr0 : 12287
 SAE Count : 0
 Inter-Core Inteference in Data Store : 889610
Heartbeat CPU 7 instructions: 60000003 cycles: 26253226 heartbeat IPC: 2.37558 cumulative IPC: 2.28543 (Simulation time: 2 hr 45 min 1 sec) 
 Total Blocks : 196608 Invalid Blocks : 442 Valid Blocks : 196166
 Total Tags : 491520 Threshold : 12288 Invalid Tags : 197055 Pr0 Tags : 98299 Pr1 Tags : 196166 num_pr0 : 12286
 SAE Count : 0
 Inter-Core Inteference in Data Store : 889614
Heartbeat CPU 0 instructions: 70000001 cycles: 30350413 heartbeat IPC: 2.43848 cumulative IPC: 2.30639 (Simulation time: 3 hr 12 min 0 sec) 
 Total Blocks : 196608 Invalid Blocks : 172 Valid Blocks : 196436
 Total Tags : 491520 Threshold : 12288 Invalid Tags : 196782 Pr0 Tags : 98302 Pr1 Tags : 196436 num_pr0 : 12288
 SAE Count : 0
 Inter-Core Inteference in Data Store : 1046517
Heartbeat CPU 3 instructions: 70000001 cycles: 30350471 heartbeat IPC: 2.43844 cumulative IPC: 2.30639 (Simulation time: 3 hr 12 min 0 sec) 
 Total Blocks : 196608 Invalid Blocks : 172 Valid Blocks : 196436
 Total Tags : 491520 Threshold : 12288 Invalid Tags : 196782 Pr0 Tags : 98302 Pr1 Tags : 196436 num_pr0 : 12288
 SAE Count : 0
 Inter-Core Inteference in Data Store : 1046519
Heartbeat CPU 2 instructions: 70000001 cycles: 30350769 heartbeat IPC: 2.43842 cumulative IPC: 2.30637 (Simulation time: 3 hr 12 min 0 sec) 
 Total Blocks : 196608 Invalid Blocks : 172 Valid Blocks : 196436
 Total Tags : 491520 Threshold : 12288 Invalid Tags : 196782 Pr0 Tags : 98302 Pr1 Tags : 196436 num_pr0 : 12288
 SAE Count : 0
 Inter-Core Inteference in Data Store : 1046525
Heartbeat CPU 1 instructions: 70000001 cycles: 30351213 heartbeat IPC: 2.43844 cumulative IPC: 2.30633 (Simulation time: 3 hr 12 min 0 sec) 
 Total Blocks : 196608 Invalid Blocks : 172 Valid Blocks : 196436
 Total Tags : 491520 Threshold : 12288 Invalid Tags : 196780 Pr0 Tags : 98304 Pr1 Tags : 196436 num_pr0 : 12288
 SAE Count : 0
 Inter-Core Inteference in Data Store : 1046533
Heartbeat CPU 4 instructions: 70000001 cycles: 30352016 heartbeat IPC: 2.43845 cumulative IPC: 2.30627 (Simulation time: 3 hr 12 min 1 sec) 
 Total Blocks : 196608 Invalid Blocks : 172 Valid Blocks : 196436
 Total Tags : 491520 Threshold : 12288 Invalid Tags : 196782 Pr0 Tags : 98302 Pr1 Tags : 196436 num_pr0 : 12288
 SAE Count : 0
 Inter-Core Inteference in Data Store : 1046546
Heartbeat CPU 5 instructions: 70000001 cycles: 30352884 heartbeat IPC: 2.43826 cumulative IPC: 2.30621 (Simulation time: 3 hr 12 min 1 sec) 
 Total Blocks : 196608 Invalid Blocks : 172 Valid Blocks : 196436
 Total Tags : 491520 Threshold : 12288 Invalid Tags : 196784 Pr0 Tags : 98300 Pr1 Tags : 196436 num_pr0 : 12286
 SAE Count : 0
 Inter-Core Inteference in Data Store : 1046562
Heartbeat CPU 6 instructions: 70000001 cycles: 30352950 heartbeat IPC: 2.43823 cumulative IPC: 2.3062 (Simulation time: 3 hr 12 min 1 sec) 
 Total Blocks : 196608 Invalid Blocks : 172 Valid Blocks : 196436
 Total Tags : 491520 Threshold : 12288 Invalid Tags : 196782 Pr0 Tags : 98302 Pr1 Tags : 196436 num_pr0 : 12287
 SAE Count : 0
 Inter-Core Inteference in Data Store : 1046562
Heartbeat CPU 7 instructions: 70000001 cycles: 30354673 heartbeat IPC: 2.43816 cumulative IPC: 2.30607 (Simulation time: 3 hr 12 min 2 sec) 
 Total Blocks : 196608 Invalid Blocks : 172 Valid Blocks : 196436
 Total Tags : 491520 Threshold : 12288 Invalid Tags : 196788 Pr0 Tags : 98296 Pr1 Tags : 196436 num_pr0 : 12287
 SAE Count : 0
 Inter-Core Inteference in Data Store : 1046588
Heartbeat CPU 0 instructions: 80000003 cycles: 34397293 heartbeat IPC: 2.47104 cumulative IPC: 2.32576 (Simulation time: 3 hr 37 min 40 sec) 
 Total Blocks : 196608 Invalid Blocks : 83 Valid Blocks : 196525
 Total Tags : 491520 Threshold : 12288 Invalid Tags : 196692 Pr0 Tags : 98303 Pr1 Tags : 196525 num_pr0 : 12288
 SAE Count : 0
 Inter-Core Inteference in Data Store : 1184739
Heartbeat CPU 3 instructions: 80000003 cycles: 34397367 heartbeat IPC: 2.47103 cumulative IPC: 2.32576 (Simulation time: 3 hr 37 min 40 sec) 
 Total Blocks : 196608 Invalid Blocks : 83 Valid Blocks : 196525
 Total Tags : 491520 Threshold : 12288 Invalid Tags : 196691 Pr0 Tags : 98304 Pr1 Tags : 196525 num_pr0 : 12288
 SAE Count : 0
 Inter-Core Inteference in Data Store : 1184739
Heartbeat CPU 2 instructions: 80000003 cycles: 34397726 heartbeat IPC: 2.47099 cumulative IPC: 2.32574 (Simulation time: 3 hr 37 min 41 sec) 
 Total Blocks : 196608 Invalid Blocks : 83 Valid Blocks : 196525
 Total Tags : 491520 Threshold : 12288 Invalid Tags : 196692 Pr0 Tags : 98303 Pr1 Tags : 196525 num_pr0 : 12288
 SAE Count : 0
 Inter-Core Inteference in Data Store : 1184744
Heartbeat CPU 1 instructions: 80000003 cycles: 34398053 heartbeat IPC: 2.47106 cumulative IPC: 2.32571 (Simulation time: 3 hr 37 min 41 sec) 
 Total Blocks : 196608 Invalid Blocks : 83 Valid Blocks : 196525
 Total Tags : 491520 Threshold : 12288 Invalid Tags : 196692 Pr0 Tags : 98303 Pr1 Tags : 196525 num_pr0 : 12288
 SAE Count : 0
 Inter-Core Inteference in Data Store : 1184745
Heartbeat CPU 4 instructions: 80000003 cycles: 34398977 heartbeat IPC: 2.47099 cumulative IPC: 2.32565 (Simulation time: 3 hr 37 min 41 sec) 
 Total Blocks : 196608 Invalid Blocks : 83 Valid Blocks : 196525
 Total Tags : 491520 Threshold : 12288 Invalid Tags : 196693 Pr0 Tags : 98302 Pr1 Tags : 196525 num_pr0 : 12288
 SAE Count : 0
 Inter-Core Inteference in Data Store : 1184756
Heartbeat CPU 6 instructions: 80000003 cycles: 34399881 heartbeat IPC: 2.47101 cumulative IPC: 2.32559 (Simulation time: 3 hr 37 min 41 sec) 
 Total Blocks : 196608 Invalid Blocks : 83 Valid Blocks : 196525
 Total Tags : 491520 Threshold : 12288 Invalid Tags : 196693 Pr0 Tags : 98302 Pr1 Tags : 196525 num_pr0 : 12288
 SAE Count : 0
 Inter-Core Inteference in Data Store : 1184783
Heartbeat CPU 5 instructions: 80000003 cycles: 34399951 heartbeat IPC: 2.47093 cumulative IPC: 2.32558 (Simulation time: 3 hr 37 min 41 sec) 
 Total Blocks : 196608 Invalid Blocks : 83 Valid Blocks : 196525
 Total Tags : 491520 Threshold : 12288 Invalid Tags : 196695 Pr0 Tags : 98300 Pr1 Tags : 196525 num_pr0 : 12288
 SAE Count : 0
 Inter-Core Inteference in Data Store : 1184788
Heartbeat CPU 7 instructions: 80000003 cycles: 34401675 heartbeat IPC: 2.47097 cumulative IPC: 2.32547 (Simulation time: 3 hr 37 min 42 sec) 
 Total Blocks : 196608 Invalid Blocks : 83 Valid Blocks : 196525
 Total Tags : 491520 Threshold : 12288 Invalid Tags : 196693 Pr0 Tags : 98302 Pr1 Tags : 196525 num_pr0 : 12288
 SAE Count : 0
 Inter-Core Inteference in Data Store : 1184879
Heartbeat CPU 3 instructions: 90000002 cycles: 38962038 heartbeat IPC: 2.19074 cumulative IPC: 2.30994 (Simulation time: 3 hr 59 min 25 sec) 
 Total Blocks : 196608 Invalid Blocks : 51 Valid Blocks : 196557
 Total Tags : 491520 Threshold : 12288 Invalid Tags : 196659 Pr0 Tags : 98304 Pr1 Tags : 196557 num_pr0 : 12288
 SAE Count : 0
 Inter-Core Inteference in Data Store : 1297565
Heartbeat CPU 0 instructions: 90000002 cycles: 38962069 heartbeat IPC: 2.19069 cumulative IPC: 2.30994 (Simulation time: 3 hr 59 min 25 sec) 
 Total Blocks : 196608 Invalid Blocks : 51 Valid Blocks : 196557
 Total Tags : 491520 Threshold : 12288 Invalid Tags : 196660 Pr0 Tags : 98303 Pr1 Tags : 196557 num_pr0 : 12288
 SAE Count : 0
 Inter-Core Inteference in Data Store : 1297566
Heartbeat CPU 2 instructions: 90000002 cycles: 38962412 heartbeat IPC: 2.19073 cumulative IPC: 2.30992 (Simulation time: 3 hr 59 min 25 sec) 
 Total Blocks : 196608 Invalid Blocks : 51 Valid Blocks : 196557
 Total Tags : 491520 Threshold : 12288 Invalid Tags : 196660 Pr0 Tags : 98303 Pr1 Tags : 196557 num_pr0 : 12288
 SAE Count : 0
 Inter-Core Inteference in Data Store : 1297577
Heartbeat CPU 1 instructions: 90000002 cycles: 38962745 heartbeat IPC: 2.19073 cumulative IPC: 2.3099 (Simulation time: 3 hr 59 min 25 sec) 
 Total Blocks : 196608 Invalid Blocks : 51 Valid Blocks : 196557
 Total Tags : 491520 Threshold : 12288 Invalid Tags : 196659 Pr0 Tags : 98304 Pr1 Tags : 196557 num_pr0 : 12288
 SAE Count : 0
 Inter-Core Inteference in Data Store : 1297583
Heartbeat CPU 4 instructions: 90000002 cycles: 38963608 heartbeat IPC: 2.19076 cumulative IPC: 2.30985 (Simulation time: 3 hr 59 min 26 sec) 
 Total Blocks : 196608 Invalid Blocks : 51 Valid Blocks : 196557
 Total Tags : 491520 Threshold : 12288 Invalid Tags : 196660 Pr0 Tags : 98303 Pr1 Tags : 196557 num_pr0 : 12288
 SAE Count : 0
 Inter-Core Inteference in Data Store : 1297630
Heartbeat CPU 5 instructions: 90000002 cycles: 38964918 heartbeat IPC: 2.1906 cumulative IPC: 2.30977 (Simulation time: 3 hr 59 min 26 sec) 
 Total Blocks : 196608 Invalid Blocks : 51 Valid Blocks : 196557
 Total Tags : 491520 Threshold : 12288 Invalid Tags : 196659 Pr0 Tags : 98304 Pr1 Tags : 196557 num_pr0 : 12288
 SAE Count : 0
 Inter-Core Inteference in Data Store : 1297680
Heartbeat CPU 6 instructions: 90000002 cycles: 38965240 heartbeat IPC: 2.19041 cumulative IPC: 2.30975 (Simulation time: 3 hr 59 min 26 sec) 
 Total Blocks : 196608 Invalid Blocks : 51 Valid Blocks : 196557
 Total Tags : 491520 Threshold : 12288 Invalid Tags : 196660 Pr0 Tags : 98303 Pr1 Tags : 196557 num_pr0 : 12288
 SAE Count : 0
 Inter-Core Inteference in Data Store : 1297698
Heartbeat CPU 7 instructions: 90000002 cycles: 38967503 heartbeat IPC: 2.19018 cumulative IPC: 2.30962 (Simulation time: 3 hr 59 min 27 sec) 
 Total Blocks : 196608 Invalid Blocks : 51 Valid Blocks : 196557
 Total Tags : 491520 Threshold : 12288 Invalid Tags : 196660 Pr0 Tags : 98303 Pr1 Tags : 196557 num_pr0 : 12288
 SAE Count : 0
 Inter-Core Inteference in Data Store : 1297791
Heartbeat CPU 3 instructions: 100000002 cycles: 43296674 heartbeat IPC: 2.307 cumulative IPC: 2.30965 (Simulation time: 4 hr 24 min 45 sec) 
 Total Blocks : 196608 Invalid Blocks : 14 Valid Blocks : 196594
 Total Tags : 491520 Threshold : 12288 Invalid Tags : 196629 Pr0 Tags : 98297 Pr1 Tags : 196594 num_pr0 : 12288
 SAE Count : 0
 Inter-Core Inteference in Data Store : 1467520
Heartbeat CPU 0 instructions: 100000002 cycles: 43296681 heartbeat IPC: 2.30701 cumulative IPC: 2.30965 (Simulation time: 4 hr 24 min 45 sec) 
 Total Blocks : 196608 Invalid Blocks : 14 Valid Blocks : 196594
 Total Tags : 491520 Threshold : 12288 Invalid Tags : 196628 Pr0 Tags : 98298 Pr1 Tags : 196594 num_pr0 : 12288
 SAE Count : 0
 Inter-Core Inteference in Data Store : 1467521
Heartbeat CPU 2 instructions: 100000002 cycles: 43297012 heartbeat IPC: 2.30702 cumulative IPC: 2.30963 (Simulation time: 4 hr 24 min 45 sec) 
 Total Blocks : 196608 Invalid Blocks : 14 Valid Blocks : 196594
 Total Tags : 491520 Threshold : 12288 Invalid Tags : 196629 Pr0 Tags : 98297 Pr1 Tags : 196594 num_pr0 : 12287
 SAE Count : 0
 Inter-Core Inteference in Data Store : 1467565
Heartbeat CPU 1 instructions: 100000002 cycles: 43297340 heartbeat IPC: 2.30702 cumulative IPC: 2.30961 (Simulation time: 4 hr 24 min 45 sec) 
 Total Blocks : 196608 Invalid Blocks : 14 Valid Blocks : 196594
 Total Tags : 491520 Threshold : 12288 Invalid Tags : 196634 Pr0 Tags : 98292 Pr1 Tags : 196594 num_pr0 : 12287
 SAE Count : 0
 Inter-Core Inteference in Data Store : 1467601
Heartbeat CPU 4 instructions: 100000002 cycles: 43298250 heartbeat IPC: 2.307 cumulative IPC: 2.30956 (Simulation time: 4 hr 24 min 46 sec) 
 Total Blocks : 196608 Invalid Blocks : 14 Valid Blocks : 196594
 Total Tags : 491520 Threshold : 12288 Invalid Tags : 196632 Pr0 Tags : 98294 Pr1 Tags : 196594 num_pr0 : 12286
 SAE Count : 0
 Inter-Core Inteference in Data Store : 1467765
Heartbeat CPU 5 instructions: 100000002 cycles: 43299505 heartbeat IPC: 2.30702 cumulative IPC: 2.3095 (Simulation time: 4 hr 24 min 46 sec) 
 Total Blocks : 196608 Invalid Blocks : 14 Valid Blocks : 196594
 Total Tags : 491520 Threshold : 12288 Invalid Tags : 196628 Pr0 Tags : 98298 Pr1 Tags : 196594 num_pr0 : 12288
 SAE Count : 0
 Inter-Core Inteference in Data Store : 1467921
Heartbeat CPU 6 instructions: 100000002 cycles: 43299959 heartbeat IPC: 2.30695 cumulative IPC: 2.30947 (Simulation time: 4 hr 24 min 46 sec) 
 Total Blocks : 196608 Invalid Blocks : 14 Valid Blocks : 196594
 Total Tags : 491520 Threshold : 12288 Invalid Tags : 196630 Pr0 Tags : 98296 Pr1 Tags : 196594 num_pr0 : 12287
 SAE Count : 0
 Inter-Core Inteference in Data Store : 1467994
Heartbeat CPU 7 instructions: 100000002 cycles: 43301865 heartbeat IPC: 2.30714 cumulative IPC: 2.30937 (Simulation time: 4 hr 24 min 47 sec) 
 Total Blocks : 196608 Invalid Blocks : 14 Valid Blocks : 196594
 Total Tags : 491520 Threshold : 12288 Invalid Tags : 196627 Pr0 Tags : 98299 Pr1 Tags : 196594 num_pr0 : 12288
 SAE Count : 0
 Inter-Core Inteference in Data Store : 1468176
Heartbeat CPU 3 instructions: 110000000 cycles: 47646584 heartbeat IPC: 2.2989 cumulative IPC: 2.30867 (Simulation time: 4 hr 52 min 24 sec) 
 Total Blocks : 196608 Invalid Blocks : 1 Valid Blocks : 196607
 Total Tags : 491520 Threshold : 12288 Invalid Tags : 196613 Pr0 Tags : 98300 Pr1 Tags : 196607 num_pr0 : 12288
 SAE Count : 0
 Inter-Core Inteference in Data Store : 1905268
Heartbeat CPU 0 instructions: 110000000 cycles: 47646939 heartbeat IPC: 2.29871 cumulative IPC: 2.30865 (Simulation time: 4 hr 52 min 24 sec) 
 Total Blocks : 196608 Invalid Blocks : 1 Valid Blocks : 196607
 Total Tags : 491520 Threshold : 12288 Invalid Tags : 196614 Pr0 Tags : 98299 Pr1 Tags : 196607 num_pr0 : 12287
 SAE Count : 0
 Inter-Core Inteference in Data Store : 1905300
Heartbeat CPU 2 instructions: 110000000 cycles: 47646986 heartbeat IPC: 2.29886 cumulative IPC: 2.30865 (Simulation time: 4 hr 52 min 24 sec) 
 Total Blocks : 196608 Invalid Blocks : 1 Valid Blocks : 196607
 Total Tags : 491520 Threshold : 12288 Invalid Tags : 196613 Pr0 Tags : 98300 Pr1 Tags : 196607 num_pr0 : 12288
 SAE Count : 0
 Inter-Core Inteference in Data Store : 1905306
Heartbeat CPU 1 instructions: 110000000 cycles: 47647460 heartbeat IPC: 2.29879 cumulative IPC: 2.30862 (Simulation time: 4 hr 52 min 24 sec) 
 Total Blocks : 196608 Invalid Blocks : 1 Valid Blocks : 196607
 Total Tags : 491520 Threshold : 12288 Invalid Tags : 196613 Pr0 Tags : 98300 Pr1 Tags : 196607 num_pr0 : 12288
 SAE Count : 0
 Inter-Core Inteference in Data Store : 1905348
Heartbeat CPU 4 instructions: 110000000 cycles: 47648346 heartbeat IPC: 2.2988 cumulative IPC: 2.30858 (Simulation time: 4 hr 52 min 25 sec) 
 Total Blocks : 196608 Invalid Blocks : 1 Valid Blocks : 196607
 Total Tags : 491520 Threshold : 12288 Invalid Tags : 196611 Pr0 Tags : 98302 Pr1 Tags : 196607 num_pr0 : 12288
 SAE Count : 0
 Inter-Core Inteference in Data Store : 1905369
Heartbeat CPU 5 instructions: 110000000 cycles: 47649456 heartbeat IPC: 2.29888 cumulative IPC: 2.30853 (Simulation time: 4 hr 52 min 25 sec) 
 Total Blocks : 196608 Invalid Blocks : 1 Valid Blocks : 196607
 Total Tags : 491520 Threshold : 12288 Invalid Tags : 196619 Pr0 Tags : 98294 Pr1 Tags : 196607 num_pr0 : 12286
 SAE Count : 0
 Inter-Core Inteference in Data Store : 1905386
Heartbeat CPU 6 instructions: 110000000 cycles: 47649934 heartbeat IPC: 2.29886 cumulative IPC: 2.3085 (Simulation time: 4 hr 52 min 25 sec) 
 Total Blocks : 196608 Invalid Blocks : 1 Valid Blocks : 196607
 Total Tags : 491520 Threshold : 12288 Invalid Tags : 196620 Pr0 Tags : 98293 Pr1 Tags : 196607 num_pr0 : 12286
 SAE Count : 0
 Inter-Core Inteference in Data Store : 1905391
Heartbeat CPU 7 instructions: 110000000 cycles: 47651769 heartbeat IPC: 2.2989 cumulative IPC: 2.30841 (Simulation time: 4 hr 52 min 26 sec) 
 Total Blocks : 196608 Invalid Blocks : 1 Valid Blocks : 196607
 Total Tags : 491520 Threshold : 12288 Invalid Tags : 196620 Pr0 Tags : 98293 Pr1 Tags : 196607 num_pr0 : 12286
 SAE Count : 0
 Inter-Core Inteference in Data Store : 1905408
Heartbeat CPU 3 instructions: 120000003 cycles: 51993172 heartbeat IPC: 2.30066 cumulative IPC: 2.308 (Simulation time: 5 hr 13 min 38 sec) 
 Total Blocks : 196608 Invalid Blocks : 0 Valid Blocks : 196608
 Total Tags : 491520 Threshold : 12288 Invalid Tags : 196619 Pr0 Tags : 98293 Pr1 Tags : 196608 num_pr0 : 12286
 SAE Count : 0
 Inter-Core Inteference in Data Store : 2139004
Heartbeat CPU 0 instructions: 120000003 cycles: 51993519 heartbeat IPC: 2.30066 cumulative IPC: 2.30798 (Simulation time: 5 hr 13 min 39 sec) 
 Total Blocks : 196608 Invalid Blocks : 0 Valid Blocks : 196608
 Total Tags : 491520 Threshold : 12288 Invalid Tags : 196619 Pr0 Tags : 98293 Pr1 Tags : 196608 num_pr0 : 12286
 SAE Count : 0
 Inter-Core Inteference in Data Store : 2139004
Heartbeat CPU 2 instructions: 120000003 cycles: 51993547 heartbeat IPC: 2.30067 cumulative IPC: 2.30798 (Simulation time: 5 hr 13 min 39 sec) 
 Total Blocks : 196608 Invalid Blocks : 0 Valid Blocks : 196608
 Total Tags : 491520 Threshold : 12288 Invalid Tags : 196619 Pr0 Tags : 98293 Pr1 Tags : 196608 num_pr0 : 12286
 SAE Count : 0
 Inter-Core Inteference in Data Store : 2139004
Heartbeat CPU 1 instructions: 120000003 cycles: 51994003 heartbeat IPC: 2.30068 cumulative IPC: 2.30796 (Simulation time: 5 hr 13 min 39 sec) 
 Total Blocks : 196608 Invalid Blocks : 0 Valid Blocks : 196608
 Total Tags : 491520 Threshold : 12288 Invalid Tags : 196619 Pr0 Tags : 98293 Pr1 Tags : 196608 num_pr0 : 12286
 SAE Count : 0
 Inter-Core Inteference in Data Store : 2139004
Heartbeat CPU 4 instructions: 120000003 cycles: 51994983 heartbeat IPC: 2.30063 cumulative IPC: 2.30791 (Simulation time: 5 hr 13 min 40 sec) 
 Total Blocks : 196608 Invalid Blocks : 0 Valid Blocks : 196608
 Total Tags : 491520 Threshold : 12288 Invalid Tags : 196619 Pr0 Tags : 98293 Pr1 Tags : 196608 num_pr0 : 12286
 SAE Count : 0
 Inter-Core Inteference in Data Store : 2139004
Heartbeat CPU 5 instructions: 120000003 cycles: 51996013 heartbeat IPC: 2.30067 cumulative IPC: 2.30787 (Simulation time: 5 hr 13 min 40 sec) 
 Total Blocks : 196608 Invalid Blocks : 0 Valid Blocks : 196608
 Total Tags : 491520 Threshold : 12288 Invalid Tags : 196619 Pr0 Tags : 98293 Pr1 Tags : 196608 num_pr0 : 12286
 SAE Count : 0
 Inter-Core Inteference in Data Store : 2139004
Heartbeat CPU 6 instructions: 120000003 cycles: 51996358 heartbeat IPC: 2.30074 cumulative IPC: 2.30785 (Simulation time: 5 hr 13 min 40 sec) 
 Total Blocks : 196608 Invalid Blocks : 0 Valid Blocks : 196608
 Total Tags : 491520 Threshold : 12288 Invalid Tags : 196619 Pr0 Tags : 98293 Pr1 Tags : 196608 num_pr0 : 12286
 SAE Count : 0
 Inter-Core Inteference in Data Store : 2139004
Heartbeat CPU 7 instructions: 120000003 cycles: 51998298 heartbeat IPC: 2.30069 cumulative IPC: 2.30777 (Simulation time: 5 hr 13 min 40 sec) 
 Total Blocks : 196608 Invalid Blocks : 0 Valid Blocks : 196608
 Total Tags : 491520 Threshold : 12288 Invalid Tags : 196619 Pr0 Tags : 98293 Pr1 Tags : 196608 num_pr0 : 12286
 SAE Count : 0
 Inter-Core Inteference in Data Store : 2139004
Heartbeat CPU 3 instructions: 130000002 cycles: 56807940 heartbeat IPC: 2.07694 cumulative IPC: 2.28841 (Simulation time: 5 hr 35 min 38 sec) 
 Total Blocks : 196608 Invalid Blocks : 0 Valid Blocks : 196608
 Total Tags : 491520 Threshold : 12288 Invalid Tags : 196619 Pr0 Tags : 98293 Pr1 Tags : 196608 num_pr0 : 12286
 SAE Count : 0
 Inter-Core Inteference in Data Store : 2322901
Heartbeat CPU 0 instructions: 130000002 cycles: 56808255 heartbeat IPC: 2.07696 cumulative IPC: 2.2884 (Simulation time: 5 hr 35 min 38 sec) 
 Total Blocks : 196608 Invalid Blocks : 0 Valid Blocks : 196608
 Total Tags : 491520 Threshold : 12288 Invalid Tags : 196616 Pr0 Tags : 98296 Pr1 Tags : 196608 num_pr0 : 12287
 SAE Count : 0
 Inter-Core Inteference in Data Store : 2322921
Heartbeat CPU 2 instructions: 130000002 cycles: 56808379 heartbeat IPC: 2.07692 cumulative IPC: 2.28839 (Simulation time: 5 hr 35 min 38 sec) 
 Total Blocks : 196608 Invalid Blocks : 0 Valid Blocks : 196608
 Total Tags : 491520 Threshold : 12288 Invalid Tags : 196616 Pr0 Tags : 98296 Pr1 Tags : 196608 num_pr0 : 12287
 SAE Count : 0
 Inter-Core Inteference in Data Store : 2322932
Heartbeat CPU 1 instructions: 130000002 cycles: 56808780 heartbeat IPC: 2.07694 cumulative IPC: 2.28838 (Simulation time: 5 hr 35 min 39 sec) 
 Total Blocks : 196608 Invalid Blocks : 0 Valid Blocks : 196608
 Total Tags : 491520 Threshold : 12288 Invalid Tags : 196610 Pr0 Tags : 98302 Pr1 Tags : 196608 num_pr0 : 12288
 SAE Count : 0
 Inter-Core Inteference in Data Store : 2322974
Heartbeat CPU 4 instructions: 130000002 cycles: 56809761 heartbeat IPC: 2.07694 cumulative IPC: 2.28834 (Simulation time: 5 hr 35 min 39 sec) 
 Total Blocks : 196608 Invalid Blocks : 0 Valid Blocks : 196608
 Total Tags : 491520 Threshold : 12288 Invalid Tags : 196612 Pr0 Tags : 98300 Pr1 Tags : 196608 num_pr0 : 12286
 SAE Count : 0
 Inter-Core Inteference in Data Store : 2323104
Heartbeat CPU 5 instructions: 130000002 cycles: 56810822 heartbeat IPC: 2.07693 cumulative IPC: 2.2883 (Simulation time: 5 hr 35 min 39 sec) 
 Total Blocks : 196608 Invalid Blocks : 0 Valid Blocks : 196608
 Total Tags : 491520 Threshold : 12288 Invalid Tags : 196617 Pr0 Tags : 98295 Pr1 Tags : 196608 num_pr0 : 12288
 SAE Count : 0
 Inter-Core Inteference in Data Store : 2323194
Heartbeat CPU 6 instructions: 130000002 cycles: 56811198 heartbeat IPC: 2.07691 cumulative IPC: 2.28828 (Simulation time: 5 hr 35 min 40 sec) 
 Total Blocks : 196608 Invalid Blocks : 0 Valid Blocks : 196608
 Total Tags : 491520 Threshold : 12288 Invalid Tags : 196620 Pr0 Tags : 98292 Pr1 Tags : 196608 num_pr0 : 12286
 SAE Count : 0
 Inter-Core Inteference in Data Store : 2323220
Heartbeat CPU 7 instructions: 130000002 cycles: 56813091 heartbeat IPC: 2.07693 cumulative IPC: 2.28821 (Simulation time: 5 hr 35 min 40 sec) 
 Total Blocks : 196608 Invalid Blocks : 0 Valid Blocks : 196608
 Total Tags : 491520 Threshold : 12288 Invalid Tags : 196621 Pr0 Tags : 98291 Pr1 Tags : 196608 num_pr0 : 12286
 SAE Count : 0
 Inter-Core Inteference in Data Store : 2323348
Heartbeat CPU 3 instructions: 140000002 cycles: 60968601 heartbeat IPC: 2.40346 cumulative IPC: 2.29626 (Simulation time: 5 hr 51 min 25 sec) 
 Total Blocks : 196608 Invalid Blocks : 0 Valid Blocks : 196608
 Total Tags : 491520 Threshold : 12288 Invalid Tags : 196616 Pr0 Tags : 98296 Pr1 Tags : 196608 num_pr0 : 12287
 SAE Count : 0
 Inter-Core Inteference in Data Store : 2563311
Heartbeat CPU 0 instructions: 140000002 cycles: 60968927 heartbeat IPC: 2.40346 cumulative IPC: 2.29625 (Simulation time: 5 hr 51 min 27 sec) 
 Total Blocks : 196608 Invalid Blocks : 0 Valid Blocks : 196608
 Total Tags : 491520 Threshold : 12288 Invalid Tags : 196616 Pr0 Tags : 98296 Pr1 Tags : 196608 num_pr0 : 12287
 SAE Count : 0
 Inter-Core Inteference in Data Store : 2563311
Heartbeat CPU 2 instructions: 140000002 cycles: 60969039 heartbeat IPC: 2.40346 cumulative IPC: 2.29625 (Simulation time: 5 hr 51 min 27 sec) 
 Total Blocks : 196608 Invalid Blocks : 0 Valid Blocks : 196608
 Total Tags : 491520 Threshold : 12288 Invalid Tags : 196616 Pr0 Tags : 98296 Pr1 Tags : 196608 num_pr0 : 12287
 SAE Count : 0
 Inter-Core Inteference in Data Store : 2563311
Heartbeat CPU 1 instructions: 140000002 cycles: 60969470 heartbeat IPC: 2.40345 cumulative IPC: 2.29623 (Simulation time: 5 hr 51 min 27 sec) 
 Total Blocks : 196608 Invalid Blocks : 0 Valid Blocks : 196608
 Total Tags : 491520 Threshold : 12288 Invalid Tags : 196616 Pr0 Tags : 98296 Pr1 Tags : 196608 num_pr0 : 12287
 SAE Count : 0
 Inter-Core Inteference in Data Store : 2563311
Heartbeat CPU 4 instructions: 140000002 cycles: 60970455 heartbeat IPC: 2.40345 cumulative IPC: 2.29619 (Simulation time: 5 hr 51 min 27 sec) 
 Total Blocks : 196608 Invalid Blocks : 0 Valid Blocks : 196608
 Total Tags : 491520 Threshold : 12288 Invalid Tags : 196616 Pr0 Tags : 98296 Pr1 Tags : 196608 num_pr0 : 12287
 SAE Count : 0
 Inter-Core Inteference in Data Store : 2563311
Heartbeat CPU 5 instructions: 140000002 cycles: 60971515 heartbeat IPC: 2.40345 cumulative IPC: 2.29615 (Simulation time: 5 hr 51 min 27 sec) 
 Total Blocks : 196608 Invalid Blocks : 0 Valid Blocks : 196608
 Total Tags : 491520 Threshold : 12288 Invalid Tags : 196616 Pr0 Tags : 98296 Pr1 Tags : 196608 num_pr0 : 12287
 SAE Count : 0
 Inter-Core Inteference in Data Store : 2563311
Heartbeat CPU 6 instructions: 140000002 cycles: 60971886 heartbeat IPC: 2.40345 cumulative IPC: 2.29614 (Simulation time: 5 hr 51 min 27 sec) 
 Total Blocks : 196608 Invalid Blocks : 0 Valid Blocks : 196608
 Total Tags : 491520 Threshold : 12288 Invalid Tags : 196616 Pr0 Tags : 98296 Pr1 Tags : 196608 num_pr0 : 12287
 SAE Count : 0
 Inter-Core Inteference in Data Store : 2563311
Heartbeat CPU 7 instructions: 140000002 cycles: 60973752 heartbeat IPC: 2.40346 cumulative IPC: 2.29607 (Simulation time: 5 hr 51 min 28 sec) 
 Total Blocks : 196608 Invalid Blocks : 0 Valid Blocks : 196608
 Total Tags : 491520 Threshold : 12288 Invalid Tags : 196616 Pr0 Tags : 98296 Pr1 Tags : 196608 num_pr0 : 12287
 SAE Count : 0
 Inter-Core Inteference in Data Store : 2563311
Heartbeat CPU 3 instructions: 150000001 cycles: 65122511 heartbeat IPC: 2.40737 cumulative IPC: 2.30335 (Simulation time: 6 hr 2 min 3 sec) 
 Total Blocks : 196608 Invalid Blocks : 0 Valid Blocks : 196608
 Total Tags : 491520 Threshold : 12288 Invalid Tags : 196608 Pr0 Tags : 98304 Pr1 Tags : 196608 num_pr0 : 12288
 SAE Count : 0
 Inter-Core Inteference in Data Store : 2638225
Heartbeat CPU 0 instructions: 150000001 cycles: 65122845 heartbeat IPC: 2.40737 cumulative IPC: 2.30334 (Simulation time: 6 hr 2 min 4 sec) 
 Total Blocks : 196608 Invalid Blocks : 0 Valid Blocks : 196608
 Total Tags : 491520 Threshold : 12288 Invalid Tags : 196609 Pr0 Tags : 98303 Pr1 Tags : 196608 num_pr0 : 12288
 SAE Count : 0
 Inter-Core Inteference in Data Store : 2638227
Heartbeat CPU 2 instructions: 150000001 cycles: 65122940 heartbeat IPC: 2.40738 cumulative IPC: 2.30334 (Simulation time: 6 hr 2 min 4 sec) 
 Total Blocks : 196608 Invalid Blocks : 0 Valid Blocks : 196608
 Total Tags : 491520 Threshold : 12288 Invalid Tags : 196609 Pr0 Tags : 98303 Pr1 Tags : 196608 num_pr0 : 12288
 SAE Count : 0
 Inter-Core Inteference in Data Store : 2638227
Heartbeat CPU 1 instructions: 150000001 cycles: 65123368 heartbeat IPC: 2.40738 cumulative IPC: 2.30332 (Simulation time: 6 hr 2 min 4 sec) 
 Total Blocks : 196608 Invalid Blocks : 0 Valid Blocks : 196608
 Total Tags : 491520 Threshold : 12288 Invalid Tags : 196609 Pr0 Tags : 98303 Pr1 Tags : 196608 num_pr0 : 12288
 SAE Count : 0
 Inter-Core Inteference in Data Store : 2638227
Heartbeat CPU 4 instructions: 150000001 cycles: 65124370 heartbeat IPC: 2.40737 cumulative IPC: 2.30329 (Simulation time: 6 hr 2 min 4 sec) 
 Total Blocks : 196608 Invalid Blocks : 0 Valid Blocks : 196608
 Total Tags : 491520 Threshold : 12288 Invalid Tags : 196609 Pr0 Tags : 98303 Pr1 Tags : 196608 num_pr0 : 12288
 SAE Count : 0
 Inter-Core Inteference in Data Store : 2638231
Heartbeat CPU 5 instructions: 150000001 cycles: 65125412 heartbeat IPC: 2.40738 cumulative IPC: 2.30325 (Simulation time: 6 hr 2 min 4 sec) 
 Total Blocks : 196608 Invalid Blocks : 0 Valid Blocks : 196608
 Total Tags : 491520 Threshold : 12288 Invalid Tags : 196609 Pr0 Tags : 98303 Pr1 Tags : 196608 num_pr0 : 12288
 SAE Count : 0
 Inter-Core Inteference in Data Store : 2638231
Heartbeat CPU 6 instructions: 150000001 cycles: 65125802 heartbeat IPC: 2.40737 cumulative IPC: 2.30323 (Simulation time: 6 hr 2 min 4 sec) 
 Total Blocks : 196608 Invalid Blocks : 0 Valid Blocks : 196608
 Total Tags : 491520 Threshold : 12288 Invalid Tags : 196609 Pr0 Tags : 98303 Pr1 Tags : 196608 num_pr0 : 12288
 SAE Count : 0
 Inter-Core Inteference in Data Store : 2638231
Heartbeat CPU 7 instructions: 150000001 cycles: 65127633 heartbeat IPC: 2.40739 cumulative IPC: 2.30317 (Simulation time: 6 hr 2 min 4 sec) 
 Total Blocks : 196608 Invalid Blocks : 0 Valid Blocks : 196608
 Total Tags : 491520 Threshold : 12288 Invalid Tags : 196609 Pr0 Tags : 98303 Pr1 Tags : 196608 num_pr0 : 12288
 SAE Count : 0
 Inter-Core Inteference in Data Store : 2638231
Heartbeat CPU 3 instructions: 160000001 cycles: 69448655 heartbeat IPC: 2.31153 cumulative IPC: 2.30386 (Simulation time: 6 hr 18 min 39 sec) 
 Total Blocks : 196608 Invalid Blocks : 0 Valid Blocks : 196608
 Total Tags : 491520 Threshold : 12288 Invalid Tags : 196615 Pr0 Tags : 98297 Pr1 Tags : 196608 num_pr0 : 12287
 SAE Count : 0
 Inter-Core Inteference in Data Store : 2836497
Heartbeat CPU 0 instructions: 160000001 cycles: 69448857 heartbeat IPC: 2.3116 cumulative IPC: 2.30385 (Simulation time: 6 hr 18 min 42 sec) 
 Total Blocks : 196608 Invalid Blocks : 0 Valid Blocks : 196608
 Total Tags : 491520 Threshold : 12288 Invalid Tags : 196615 Pr0 Tags : 98297 Pr1 Tags : 196608 num_pr0 : 12287
 SAE Count : 0
 Inter-Core Inteference in Data Store : 2836497
Heartbeat CPU 2 instructions: 160000001 cycles: 69448961 heartbeat IPC: 2.31159 cumulative IPC: 2.30385 (Simulation time: 6 hr 18 min 42 sec) 
 Total Blocks : 196608 Invalid Blocks : 0 Valid Blocks : 196608
 Total Tags : 491520 Threshold : 12288 Invalid Tags : 196615 Pr0 Tags : 98297 Pr1 Tags : 196608 num_pr0 : 12287
 SAE Count : 0
 Inter-Core Inteference in Data Store : 2836497
Heartbeat CPU 1 instructions: 160000001 cycles: 69449375 heartbeat IPC: 2.3116 cumulative IPC: 2.30384 (Simulation time: 6 hr 18 min 42 sec) 
 Total Blocks : 196608 Invalid Blocks : 0 Valid Blocks : 196608
 Total Tags : 491520 Threshold : 12288 Invalid Tags : 196615 Pr0 Tags : 98297 Pr1 Tags : 196608 num_pr0 : 12287
 SAE Count : 0
 Inter-Core Inteference in Data Store : 2836497
Heartbeat CPU 4 instructions: 160000001 cycles: 69450450 heartbeat IPC: 2.31156 cumulative IPC: 2.3038 (Simulation time: 6 hr 18 min 42 sec) 
 Total Blocks : 196608 Invalid Blocks : 0 Valid Blocks : 196608
 Total Tags : 491520 Threshold : 12288 Invalid Tags : 196615 Pr0 Tags : 98297 Pr1 Tags : 196608 num_pr0 : 12287
 SAE Count : 0
 Inter-Core Inteference in Data Store : 2836497
Heartbeat CPU 5 instructions: 160000001 cycles: 69451587 heartbeat IPC: 2.31151 cumulative IPC: 2.30376 (Simulation time: 6 hr 18 min 42 sec) 
 Total Blocks : 196608 Invalid Blocks : 0 Valid Blocks : 196608
 Total Tags : 491520 Threshold : 12288 Invalid Tags : 196615 Pr0 Tags : 98297 Pr1 Tags : 196608 num_pr0 : 12287
 SAE Count : 0
 Inter-Core Inteference in Data Store : 2836497
Heartbeat CPU 6 instructions: 160000001 cycles: 69452087 heartbeat IPC: 2.31145 cumulative IPC: 2.30375 (Simulation time: 6 hr 18 min 42 sec) 
 Total Blocks : 196608 Invalid Blocks : 0 Valid Blocks : 196608
 Total Tags : 491520 Threshold : 12288 Invalid Tags : 196615 Pr0 Tags : 98297 Pr1 Tags : 196608 num_pr0 : 12287
 SAE Count : 0
 Inter-Core Inteference in Data Store : 2836497
Heartbeat CPU 7 instructions: 160000001 cycles: 69453816 heartbeat IPC: 2.31151 cumulative IPC: 2.30369 (Simulation time: 6 hr 18 min 43 sec) 
 Total Blocks : 196608 Invalid Blocks : 0 Valid Blocks : 196608
 Total Tags : 491520 Threshold : 12288 Invalid Tags : 196615 Pr0 Tags : 98297 Pr1 Tags : 196608 num_pr0 : 12287
 SAE Count : 0
 Inter-Core Inteference in Data Store : 2836497
Heartbeat CPU 3 instructions: 170000003 cycles: 73777837 heartbeat IPC: 2.30991 cumulative IPC: 2.30421 (Simulation time: 6 hr 36 min 19 sec) 
 Total Blocks : 196608 Invalid Blocks : 0 Valid Blocks : 196608
 Total Tags : 491520 Threshold : 12288 Invalid Tags : 196608 Pr0 Tags : 98304 Pr1 Tags : 196608 num_pr0 : 12288
 SAE Count : 0
 Inter-Core Inteference in Data Store : 2913383
Heartbeat CPU 0 instructions: 170000003 cycles: 73778088 heartbeat IPC: 2.30988 cumulative IPC: 2.30421 (Simulation time: 6 hr 36 min 19 sec) 
 Total Blocks : 196608 Invalid Blocks : 0 Valid Blocks : 196608
 Total Tags : 491520 Threshold : 12288 Invalid Tags : 196609 Pr0 Tags : 98303 Pr1 Tags : 196608 num_pr0 : 12288
 SAE Count : 0
 Inter-Core Inteference in Data Store : 2913402
Heartbeat CPU 2 instructions: 170000003 cycles: 73778217 heartbeat IPC: 2.30987 cumulative IPC: 2.3042 (Simulation time: 6 hr 36 min 19 sec) 
 Total Blocks : 196608 Invalid Blocks : 0 Valid Blocks : 196608
 Total Tags : 491520 Threshold : 12288 Invalid Tags : 196614 Pr0 Tags : 98298 Pr1 Tags : 196608 num_pr0 : 12288
 SAE Count : 0
 Inter-Core Inteference in Data Store : 2913424
Heartbeat CPU 1 instructions: 170000003 cycles: 73778593 heartbeat IPC: 2.30989 cumulative IPC: 2.30419 (Simulation time: 6 hr 36 min 20 sec) 
 Total Blocks : 196608 Invalid Blocks : 0 Valid Blocks : 196608
 Total Tags : 491520 Threshold : 12288 Invalid Tags : 196608 Pr0 Tags : 98304 Pr1 Tags : 196608 num_pr0 : 12288
 SAE Count : 0
 Inter-Core Inteference in Data Store : 2913453
Heartbeat CPU 4 instructions: 170000003 cycles: 73779883 heartbeat IPC: 2.30977 cumulative IPC: 2.30415 (Simulation time: 6 hr 36 min 20 sec) 
 Total Blocks : 196608 Invalid Blocks : 0 Valid Blocks : 196608
 Total Tags : 491520 Threshold : 12288 Invalid Tags : 196608 Pr0 Tags : 98304 Pr1 Tags : 196608 num_pr0 : 12288
 SAE Count : 0
 Inter-Core Inteference in Data Store : 2913558
Heartbeat CPU 5 instructions: 170000003 cycles: 73781326 heartbeat IPC: 2.30961 cumulative IPC: 2.30411 (Simulation time: 6 hr 36 min 20 sec) 
 Total Blocks : 196608 Invalid Blocks : 0 Valid Blocks : 196608
 Total Tags : 491520 Threshold : 12288 Invalid Tags : 196610 Pr0 Tags : 98302 Pr1 Tags : 196608 num_pr0 : 12288
 SAE Count : 0
 Inter-Core Inteference in Data Store : 2913689
Heartbeat CPU 6 instructions: 170000003 cycles: 73783053 heartbeat IPC: 2.30895 cumulative IPC: 2.30405 (Simulation time: 6 hr 36 min 21 sec) 
 Total Blocks : 196608 Invalid Blocks : 0 Valid Blocks : 196608
 Total Tags : 491520 Threshold : 12288 Invalid Tags : 196612 Pr0 Tags : 98300 Pr1 Tags : 196608 num_pr0 : 12288
 SAE Count : 0
 Inter-Core Inteference in Data Store : 2913808
Heartbeat CPU 7 instructions: 170000003 cycles: 73785310 heartbeat IPC: 2.30867 cumulative IPC: 2.30398 (Simulation time: 6 hr 36 min 22 sec) 
 Total Blocks : 196608 Invalid Blocks : 0 Valid Blocks : 196608
 Total Tags : 491520 Threshold : 12288 Invalid Tags : 196611 Pr0 Tags : 98301 Pr1 Tags : 196608 num_pr0 : 12288
 SAE Count : 0
 Inter-Core Inteference in Data Store : 2913916
Heartbeat CPU 3 instructions: 180000000 cycles: 78128698 heartbeat IPC: 2.29839 cumulative IPC: 2.30389 (Simulation time: 6 hr 57 min 42 sec) 
 Total Blocks : 196608 Invalid Blocks : 0 Valid Blocks : 196608
 Total Tags : 491520 Threshold : 12288 Invalid Tags : 196608 Pr0 Tags : 98304 Pr1 Tags : 196608 num_pr0 : 12288
 SAE Count : 0
 Inter-Core Inteference in Data Store : 3066324
Heartbeat CPU 0 instructions: 180000000 cycles: 78129027 heartbeat IPC: 2.29835 cumulative IPC: 2.30388 (Simulation time: 6 hr 57 min 42 sec) 
 Total Blocks : 196608 Invalid Blocks : 0 Valid Blocks : 196608
 Total Tags : 491520 Threshold : 12288 Invalid Tags : 196609 Pr0 Tags : 98303 Pr1 Tags : 196608 num_pr0 : 12287
 SAE Count : 0
 Inter-Core Inteference in Data Store : 3066330
Heartbeat CPU 2 instructions: 180000000 cycles: 78129207 heartbeat IPC: 2.29833 cumulative IPC: 2.30388 (Simulation time: 6 hr 57 min 42 sec) 
 Total Blocks : 196608 Invalid Blocks : 0 Valid Blocks : 196608
 Total Tags : 491520 Threshold : 12288 Invalid Tags : 196609 Pr0 Tags : 98303 Pr1 Tags : 196608 num_pr0 : 12288
 SAE Count : 0
 Inter-Core Inteference in Data Store : 3066338
Heartbeat CPU 1 instructions: 180000000 cycles: 78129575 heartbeat IPC: 2.29833 cumulative IPC: 2.30387 (Simulation time: 6 hr 57 min 43 sec) 
 Total Blocks : 196608 Invalid Blocks : 0 Valid Blocks : 196608
 Total Tags : 491520 Threshold : 12288 Invalid Tags : 196608 Pr0 Tags : 98304 Pr1 Tags : 196608 num_pr0 : 12288
 SAE Count : 0
 Inter-Core Inteference in Data Store : 3066354
Heartbeat CPU 4 instructions: 180000000 cycles: 78131072 heartbeat IPC: 2.29822 cumulative IPC: 2.30382 (Simulation time: 6 hr 57 min 43 sec) 
 Total Blocks : 196608 Invalid Blocks : 0 Valid Blocks : 196608
 Total Tags : 491520 Threshold : 12288 Invalid Tags : 196613 Pr0 Tags : 98299 Pr1 Tags : 196608 num_pr0 : 12287
 SAE Count : 0
 Inter-Core Inteference in Data Store : 3066378
Heartbeat CPU 5 instructions: 180000000 cycles: 78132820 heartbeat IPC: 2.29806 cumulative IPC: 2.30377 (Simulation time: 6 hr 57 min 44 sec) 
 Total Blocks : 196608 Invalid Blocks : 0 Valid Blocks : 196608
 Total Tags : 491520 Threshold : 12288 Invalid Tags : 196611 Pr0 Tags : 98301 Pr1 Tags : 196608 num_pr0 : 12288
 SAE Count : 0
 Inter-Core Inteference in Data Store : 3066404
Heartbeat CPU 6 instructions: 180000000 cycles: 78135180 heartbeat IPC: 2.29773 cumulative IPC: 2.3037 (Simulation time: 6 hr 57 min 44 sec) 
 Total Blocks : 196608 Invalid Blocks : 0 Valid Blocks : 196608
 Total Tags : 491520 Threshold : 12288 Invalid Tags : 196614 Pr0 Tags : 98298 Pr1 Tags : 196608 num_pr0 : 12288
 SAE Count : 0
 Inter-Core Inteference in Data Store : 3066419
Heartbeat CPU 7 instructions: 180000000 cycles: 78137860 heartbeat IPC: 2.2975 cumulative IPC: 2.30362 (Simulation time: 6 hr 57 min 45 sec) 
 Total Blocks : 196608 Invalid Blocks : 0 Valid Blocks : 196608
 Total Tags : 491520 Threshold : 12288 Invalid Tags : 196616 Pr0 Tags : 98296 Pr1 Tags : 196608 num_pr0 : 12287
 SAE Count : 0
 Inter-Core Inteference in Data Store : 3066425
Heartbeat CPU 3 instructions: 190000000 cycles: 82520989 heartbeat IPC: 2.27672 cumulative IPC: 2.30244 (Simulation time: 7 hr 20 min 37 sec) 
 Total Blocks : 196608 Invalid Blocks : 0 Valid Blocks : 196608
 Total Tags : 491520 Threshold : 12288 Invalid Tags : 196618 Pr0 Tags : 98294 Pr1 Tags : 196608 num_pr0 : 12286
 SAE Count : 0
 Inter-Core Inteference in Data Store : 3231733
Heartbeat CPU 0 instructions: 190000000 cycles: 82521107 heartbeat IPC: 2.27683 cumulative IPC: 2.30244 (Simulation time: 7 hr 20 min 37 sec) 
 Total Blocks : 196608 Invalid Blocks : 0 Valid Blocks : 196608
 Total Tags : 491520 Threshold : 12288 Invalid Tags : 196610 Pr0 Tags : 98302 Pr1 Tags : 196608 num_pr0 : 12287
 SAE Count : 0
 Inter-Core Inteference in Data Store : 3231745
Heartbeat CPU 2 instructions: 190000000 cycles: 82521314 heartbeat IPC: 2.27681 cumulative IPC: 2.30244 (Simulation time: 7 hr 20 min 37 sec) 
 Total Blocks : 196608 Invalid Blocks : 0 Valid Blocks : 196608
 Total Tags : 491520 Threshold : 12288 Invalid Tags : 196611 Pr0 Tags : 98301 Pr1 Tags : 196608 num_pr0 : 12287
 SAE Count : 0
 Inter-Core Inteference in Data Store : 3231754
Heartbeat CPU 1 instructions: 190000000 cycles: 82521734 heartbeat IPC: 2.27678 cumulative IPC: 2.30242 (Simulation time: 7 hr 20 min 37 sec) 
 Total Blocks : 196608 Invalid Blocks : 0 Valid Blocks : 196608
 Total Tags : 491520 Threshold : 12288 Invalid Tags : 196610 Pr0 Tags : 98302 Pr1 Tags : 196608 num_pr0 : 12288
 SAE Count : 0
 Inter-Core Inteference in Data Store : 3231788
Heartbeat CPU 4 instructions: 190000000 cycles: 82523124 heartbeat IPC: 2.27684 cumulative IPC: 2.30238 (Simulation time: 7 hr 20 min 37 sec) 
 Total Blocks : 196608 Invalid Blocks : 0 Valid Blocks : 196608
 Total Tags : 491520 Threshold : 12288 Invalid Tags : 196608 Pr0 Tags : 98304 Pr1 Tags : 196608 num_pr0 : 12288
 SAE Count : 0
 Inter-Core Inteference in Data Store : 3231873
Heartbeat CPU 5 instructions: 190000000 cycles: 82525118 heartbeat IPC: 2.27671 cumulative IPC: 2.30233 (Simulation time: 7 hr 20 min 38 sec) 
 Total Blocks : 196608 Invalid Blocks : 0 Valid Blocks : 196608
 Total Tags : 491520 Threshold : 12288 Invalid Tags : 196608 Pr0 Tags : 98304 Pr1 Tags : 196608 num_pr0 : 12288
 SAE Count : 0
 Inter-Core Inteference in Data Store : 3231999
Heartbeat CPU 6 instructions: 190000000 cycles: 82527335 heartbeat IPC: 2.27679 cumulative IPC: 2.30227 (Simulation time: 7 hr 20 min 39 sec) 
 Total Blocks : 196608 Invalid Blocks : 0 Valid Blocks : 196608
 Total Tags : 491520 Threshold : 12288 Invalid Tags : 196611 Pr0 Tags : 98301 Pr1 Tags : 196608 num_pr0 : 12288
 SAE Count : 0
 Inter-Core Inteference in Data Store : 3232293
Heartbeat CPU 7 instructions: 190000000 cycles: 82530397 heartbeat IPC: 2.27659 cumulative IPC: 2.30218 (Simulation time: 7 hr 20 min 41 sec) 
 Total Blocks : 196608 Invalid Blocks : 0 Valid Blocks : 196608
 Total Tags : 491520 Threshold : 12288 Invalid Tags : 196611 Pr0 Tags : 98301 Pr1 Tags : 196608 num_pr0 : 12287
 SAE Count : 0
 Inter-Core Inteference in Data Store : 3232623
Heartbeat CPU 3 instructions: 200000002 cycles: 86909247 heartbeat IPC: 2.27881 cumulative IPC: 2.30125 (Simulation time: 7 hr 43 min 40 sec) 
 Total Blocks : 196608 Invalid Blocks : 0 Valid Blocks : 196608
 Total Tags : 491520 Threshold : 12288 Invalid Tags : 196608 Pr0 Tags : 98304 Pr1 Tags : 196608 num_pr0 : 12288
 SAE Count : 0
 Inter-Core Inteference in Data Store : 3394066
Heartbeat CPU 2 instructions: 200000002 cycles: 86909347 heartbeat IPC: 2.27893 cumulative IPC: 2.30125 (Simulation time: 7 hr 43 min 40 sec) 
 Total Blocks : 196608 Invalid Blocks : 0 Valid Blocks : 196608
 Total Tags : 491520 Threshold : 12288 Invalid Tags : 196613 Pr0 Tags : 98299 Pr1 Tags : 196608 num_pr0 : 12286
 SAE Count : 0
 Inter-Core Inteference in Data Store : 3394071
Heartbeat CPU 0 instructions: 200000002 cycles: 86909387 heartbeat IPC: 2.2788 cumulative IPC: 2.30125 (Simulation time: 7 hr 43 min 40 sec) 
 Total Blocks : 196608 Invalid Blocks : 0 Valid Blocks : 196608
 Total Tags : 491520 Threshold : 12288 Invalid Tags : 196612 Pr0 Tags : 98300 Pr1 Tags : 196608 num_pr0 : 12286
 SAE Count : 0
 Inter-Core Inteference in Data Store : 3394072
Heartbeat CPU 1 instructions: 200000002 cycles: 86909893 heartbeat IPC: 2.27886 cumulative IPC: 2.30123 (Simulation time: 7 hr 43 min 40 sec) 
 Total Blocks : 196608 Invalid Blocks : 0 Valid Blocks : 196608
 Total Tags : 491520 Threshold : 12288 Invalid Tags : 196609 Pr0 Tags : 98303 Pr1 Tags : 196608 num_pr0 : 12288
 SAE Count : 0
 Inter-Core Inteference in Data Store : 3394096
Heartbeat CPU 4 instructions: 200000002 cycles: 86911454 heartbeat IPC: 2.27877 cumulative IPC: 2.30119 (Simulation time: 7 hr 43 min 41 sec) 
 Total Blocks : 196608 Invalid Blocks : 0 Valid Blocks : 196608
 Total Tags : 491520 Threshold : 12288 Invalid Tags : 196613 Pr0 Tags : 98299 Pr1 Tags : 196608 num_pr0 : 12288
 SAE Count : 0
 Inter-Core Inteference in Data Store : 3394143
Heartbeat CPU 5 instructions: 200000002 cycles: 86913505 heartbeat IPC: 2.27874 cumulative IPC: 2.30114 (Simulation time: 7 hr 43 min 41 sec) 
 Total Blocks : 196608 Invalid Blocks : 0 Valid Blocks : 196608
 Total Tags : 491520 Threshold : 12288 Invalid Tags : 196613 Pr0 Tags : 98299 Pr1 Tags : 196608 num_pr0 : 12288
 SAE Count : 0
 Inter-Core Inteference in Data Store : 3394170
Heartbeat CPU 6 instructions: 200000002 cycles: 86915638 heartbeat IPC: 2.27879 cumulative IPC: 2.30108 (Simulation time: 7 hr 43 min 42 sec) 
 Total Blocks : 196608 Invalid Blocks : 0 Valid Blocks : 196608
 Total Tags : 491520 Threshold : 12288 Invalid Tags : 196610 Pr0 Tags : 98302 Pr1 Tags : 196608 num_pr0 : 12287
 SAE Count : 0
 Inter-Core Inteference in Data Store : 3394209
Heartbeat CPU 7 instructions: 200000002 cycles: 86919030 heartbeat IPC: 2.27861 cumulative IPC: 2.30099 (Simulation time: 7 hr 43 min 42 sec) 
 Total Blocks : 196608 Invalid Blocks : 0 Valid Blocks : 196608
 Total Tags : 491520 Threshold : 12288 Invalid Tags : 196619 Pr0 Tags : 98293 Pr1 Tags : 196608 num_pr0 : 12286
 SAE Count : 0
 Inter-Core Inteference in Data Store : 3394265

Warmup complete CPU 0 instructions: 200017601 cycles: 86919030 (Simulation time: 7 hr 43 min 42 sec) 
Warmup complete CPU 1 instructions: 200016619 cycles: 86919030 (Simulation time: 7 hr 43 min 42 sec) 
Warmup complete CPU 2 instructions: 200017681 cycles: 86919030 (Simulation time: 7 hr 43 min 42 sec) 
Warmup complete CPU 3 instructions: 200017767 cycles: 86919030 (Simulation time: 7 hr 43 min 42 sec) 
Warmup complete CPU 4 instructions: 200014408 cycles: 86919030 (Simulation time: 7 hr 43 min 42 sec) 
Warmup complete CPU 5 instructions: 200010619 cycles: 86919030 (Simulation time: 7 hr 43 min 42 sec) 
Warmup complete CPU 6 instructions: 200006764 cycles: 86919030 (Simulation time: 7 hr 43 min 42 sec) 
Warmup complete CPU 7 instructions: 200000002 cycles: 86919030 (Simulation time: 7 hr 43 min 42 sec) 

Heartbeat CPU 2 instructions: 210000001 cycles: 96694868 heartbeat IPC: 1.02192 cumulative IPC: 1.02112 (Simulation time: 8 hr 13 min 41 sec) 
 Total Blocks : 196608 Invalid Blocks : 0 Valid Blocks : 196608
 Total Tags : 491520 Threshold : 12288 Invalid Tags : 196608 Pr0 Tags : 98304 Pr1 Tags : 196608 num_pr0 : 12288
 SAE Count : 0
 Inter-Core Inteference in Data Store : 156651
Heartbeat CPU 1 instructions: 210000001 cycles: 96739291 heartbeat IPC: 1.01736 cumulative IPC: 1.01661 (Simulation time: 8 hr 13 min 48 sec) 
 Total Blocks : 196608 Invalid Blocks : 0 Valid Blocks : 196608
 Total Tags : 491520 Threshold : 12288 Invalid Tags : 196608 Pr0 Tags : 98304 Pr1 Tags : 196608 num_pr0 : 12288
 SAE Count : 0
 Inter-Core Inteference in Data Store : 157731
Heartbeat CPU 3 instructions: 210000001 cycles: 96757658 heartbeat IPC: 1.01539 cumulative IPC: 1.0146 (Simulation time: 8 hr 13 min 51 sec) 
 Total Blocks : 196608 Invalid Blocks : 0 Valid Blocks : 196608
 Total Tags : 491520 Threshold : 12288 Invalid Tags : 196610 Pr0 Tags : 98302 Pr1 Tags : 196608 num_pr0 : 12287
 SAE Count : 0
 Inter-Core Inteference in Data Store : 158201
Heartbeat CPU 4 instructions: 210000001 cycles: 96810514 heartbeat IPC: 1.0102 cumulative IPC: 1.00951 (Simulation time: 8 hr 14 min 1 sec) 
 Total Blocks : 196608 Invalid Blocks : 0 Valid Blocks : 196608
 Total Tags : 491520 Threshold : 12288 Invalid Tags : 196611 Pr0 Tags : 98301 Pr1 Tags : 196608 num_pr0 : 12288
 SAE Count : 0
 Inter-Core Inteference in Data Store : 159458
Heartbeat CPU 6 instructions: 210000001 cycles: 96836125 heartbeat IPC: 1.00801 cumulative IPC: 1.00768 (Simulation time: 8 hr 14 min 6 sec) 
 Total Blocks : 196608 Invalid Blocks : 0 Valid Blocks : 196608
 Total Tags : 491520 Threshold : 12288 Invalid Tags : 196608 Pr0 Tags : 98304 Pr1 Tags : 196608 num_pr0 : 12288
 SAE Count : 0
 Inter-Core Inteference in Data Store : 159973
Heartbeat CPU 5 instructions: 210000001 cycles: 96851692 heartbeat IPC: 1.00622 cumulative IPC: 1.00571 (Simulation time: 8 hr 14 min 10 sec) 
 Total Blocks : 196608 Invalid Blocks : 0 Valid Blocks : 196608
 Total Tags : 491520 Threshold : 12288 Invalid Tags : 196609 Pr0 Tags : 98303 Pr1 Tags : 196608 num_pr0 : 12288
 SAE Count : 0
 Inter-Core Inteference in Data Store : 160184
Heartbeat CPU 7 instructions: 210000001 cycles: 96860445 heartbeat IPC: 1.00589 cumulative IPC: 1.00589 (Simulation time: 8 hr 14 min 12 sec) 
 Total Blocks : 196608 Invalid Blocks : 0 Valid Blocks : 196608
 Total Tags : 491520 Threshold : 12288 Invalid Tags : 196610 Pr0 Tags : 98302 Pr1 Tags : 196608 num_pr0 : 12288
 SAE Count : 0
 Inter-Core Inteference in Data Store : 160254
Heartbeat CPU 0 instructions: 210000001 cycles: 96867422 heartbeat IPC: 1.00421 cumulative IPC: 1.00342 (Simulation time: 8 hr 14 min 14 sec) 
 Total Blocks : 196608 Invalid Blocks : 0 Valid Blocks : 196608
 Total Tags : 491520 Threshold : 12288 Invalid Tags : 196609 Pr0 Tags : 98303 Pr1 Tags : 196608 num_pr0 : 12288
 SAE Count : 0
 Inter-Core Inteference in Data Store : 160315
Heartbeat CPU 2 instructions: 220000000 cycles: 106369167 heartbeat IPC: 1.03367 cumulative IPC: 1.02736 (Simulation time: 8 hr 43 min 8 sec) 
 Total Blocks : 196608 Invalid Blocks : 0 Valid Blocks : 196608
 Total Tags : 491520 Threshold : 12288 Invalid Tags : 196608 Pr0 Tags : 98304 Pr1 Tags : 196608 num_pr0 : 12288
 SAE Count : 0
 Inter-Core Inteference in Data Store : 315207
Heartbeat CPU 1 instructions: 220000000 cycles: 106473015 heartbeat IPC: 1.02736 cumulative IPC: 1.02196 (Simulation time: 8 hr 43 min 23 sec) 
 Total Blocks : 196608 Invalid Blocks : 0 Valid Blocks : 196608
 Total Tags : 491520 Threshold : 12288 Invalid Tags : 196611 Pr0 Tags : 98301 Pr1 Tags : 196608 num_pr0 : 12288
 SAE Count : 0
 Inter-Core Inteference in Data Store : 317661
Heartbeat CPU 3 instructions: 220000000 cycles: 106493564 heartbeat IPC: 1.02713 cumulative IPC: 1.02083 (Simulation time: 8 hr 43 min 26 sec) 
 Total Blocks : 196608 Invalid Blocks : 0 Valid Blocks : 196608
 Total Tags : 491520 Threshold : 12288 Invalid Tags : 196609 Pr0 Tags : 98303 Pr1 Tags : 196608 num_pr0 : 12288
 SAE Count : 0
 Inter-Core Inteference in Data Store : 318209
Heartbeat CPU 4 instructions: 220000000 cycles: 106536130 heartbeat IPC: 1.02821 cumulative IPC: 1.01878 (Simulation time: 8 hr 43 min 33 sec) 
 Total Blocks : 196608 Invalid Blocks : 0 Valid Blocks : 196608
 Total Tags : 491520 Threshold : 12288 Invalid Tags : 196609 Pr0 Tags : 98303 Pr1 Tags : 196608 num_pr0 : 12288
 SAE Count : 0
 Inter-Core Inteference in Data Store : 319058
Heartbeat CPU 6 instructions: 220000000 cycles: 106584924 heartbeat IPC: 1.02577 cumulative IPC: 1.01665 (Simulation time: 8 hr 43 min 42 sec) 
 Total Blocks : 196608 Invalid Blocks : 0 Valid Blocks : 196608
 Total Tags : 491520 Threshold : 12288 Invalid Tags : 196609 Pr0 Tags : 98303 Pr1 Tags : 196608 num_pr0 : 12288
 SAE Count : 0
 Inter-Core Inteference in Data Store : 320015
Heartbeat CPU 5 instructions: 220000000 cycles: 106654607 heartbeat IPC: 1.0201 cumulative IPC: 1.01286 (Simulation time: 8 hr 43 min 56 sec) 
 Total Blocks : 196608 Invalid Blocks : 0 Valid Blocks : 196608
 Total Tags : 491520 Threshold : 12288 Invalid Tags : 196617 Pr0 Tags : 98295 Pr1 Tags : 196608 num_pr0 : 12288
 SAE Count : 0
 Inter-Core Inteference in Data Store : 321497
Heartbeat CPU 7 instructions: 220000000 cycles: 106663274 heartbeat IPC: 1.02011 cumulative IPC: 1.01295 (Simulation time: 8 hr 43 min 57 sec) 
 Total Blocks : 196608 Invalid Blocks : 0 Valid Blocks : 196608
 Total Tags : 491520 Threshold : 12288 Invalid Tags : 196609 Pr0 Tags : 98303 Pr1 Tags : 196608 num_pr0 : 12288
 SAE Count : 0
 Inter-Core Inteference in Data Store : 321699
Heartbeat CPU 0 instructions: 220000000 cycles: 106685732 heartbeat IPC: 1.01851 cumulative IPC: 1.01091 (Simulation time: 8 hr 44 min 3 sec) 
 Total Blocks : 196608 Invalid Blocks : 0 Valid Blocks : 196608
 Total Tags : 491520 Threshold : 12288 Invalid Tags : 196608 Pr0 Tags : 98304 Pr1 Tags : 196608 num_pr0 : 12288
 SAE Count : 0
 Inter-Core Inteference in Data Store : 322019
Heartbeat CPU 2 instructions: 230000000 cycles: 115814102 heartbeat IPC: 1.05877 cumulative IPC: 1.03763 (Simulation time: 9 hr 11 min 44 sec) 
 Total Blocks : 196608 Invalid Blocks : 0 Valid Blocks : 196608
 Total Tags : 491520 Threshold : 12288 Invalid Tags : 196614 Pr0 Tags : 98298 Pr1 Tags : 196608 num_pr0 : 12287
 SAE Count : 0
 Inter-Core Inteference in Data Store : 472760
Heartbeat CPU 1 instructions: 230000000 cycles: 116171225 heartbeat IPC: 1.03112 cumulative IPC: 1.025 (Simulation time: 9 hr 12 min 43 sec) 
 Total Blocks : 196608 Invalid Blocks : 0 Valid Blocks : 196608
 Total Tags : 491520 Threshold : 12288 Invalid Tags : 196608 Pr0 Tags : 98304 Pr1 Tags : 196608 num_pr0 : 12288
 SAE Count : 0
 Inter-Core Inteference in Data Store : 479134
Heartbeat CPU 4 instructions: 230000000 cycles: 116187731 heartbeat IPC: 1.0361 cumulative IPC: 1.02449 (Simulation time: 9 hr 12 min 45 sec) 
 Total Blocks : 196608 Invalid Blocks : 0 Valid Blocks : 196608
 Total Tags : 491520 Threshold : 12288 Invalid Tags : 196609 Pr0 Tags : 98303 Pr1 Tags : 196608 num_pr0 : 12288
 SAE Count : 0
 Inter-Core Inteference in Data Store : 479492
Heartbeat CPU 3 instructions: 230000000 cycles: 116190025 heartbeat IPC: 1.0313 cumulative IPC: 1.0243 (Simulation time: 9 hr 12 min 46 sec) 
 Total Blocks : 196608 Invalid Blocks : 0 Valid Blocks : 196608
 Total Tags : 491520 Threshold : 12288 Invalid Tags : 196612 Pr0 Tags : 98300 Pr1 Tags : 196608 num_pr0 : 12287
 SAE Count : 0
 Inter-Core Inteference in Data Store : 479567
Heartbeat CPU 6 instructions: 230000000 cycles: 116252957 heartbeat IPC: 1.03434 cumulative IPC: 1.02248 (Simulation time: 9 hr 12 min 56 sec) 
 Total Blocks : 196608 Invalid Blocks : 0 Valid Blocks : 196608
 Total Tags : 491520 Threshold : 12288 Invalid Tags : 196609 Pr0 Tags : 98303 Pr1 Tags : 196608 num_pr0 : 12288
 SAE Count : 0
 Inter-Core Inteference in Data Store : 481210
Heartbeat CPU 5 instructions: 230000000 cycles: 116347143 heartbeat IPC: 1.03172 cumulative IPC: 1.01907 (Simulation time: 9 hr 13 min 14 sec) 
 Total Blocks : 196608 Invalid Blocks : 0 Valid Blocks : 196608
 Total Tags : 491520 Threshold : 12288 Invalid Tags : 196617 Pr0 Tags : 98295 Pr1 Tags : 196608 num_pr0 : 12287
 SAE Count : 0
 Inter-Core Inteference in Data Store : 483057
Heartbeat CPU 7 instructions: 230000000 cycles: 116361470 heartbeat IPC: 1.03112 cumulative IPC: 1.01894 (Simulation time: 9 hr 13 min 16 sec) 
 Total Blocks : 196608 Invalid Blocks : 0 Valid Blocks : 196608
 Total Tags : 491520 Threshold : 12288 Invalid Tags : 196609 Pr0 Tags : 98303 Pr1 Tags : 196608 num_pr0 : 12288
 SAE Count : 0
 Inter-Core Inteference in Data Store : 483351
Heartbeat CPU 0 instructions: 230000000 cycles: 116377307 heartbeat IPC: 1.03182 cumulative IPC: 1.01779 (Simulation time: 9 hr 13 min 19 sec) 
 Total Blocks : 196608 Invalid Blocks : 0 Valid Blocks : 196608
 Total Tags : 491520 Threshold : 12288 Invalid Tags : 196608 Pr0 Tags : 98304 Pr1 Tags : 196608 num_pr0 : 12288
 SAE Count : 0
 Inter-Core Inteference in Data Store : 483761
Heartbeat CPU 2 instructions: 240000001 cycles: 125164642 heartbeat IPC: 1.06946 cumulative IPC: 1.04541 (Simulation time: 9 hr 38 min 39 sec) 
 Total Blocks : 196608 Invalid Blocks : 0 Valid Blocks : 196608
 Total Tags : 491520 Threshold : 12288 Invalid Tags : 196611 Pr0 Tags : 98301 Pr1 Tags : 196608 num_pr0 : 12287
 SAE Count : 0
 Inter-Core Inteference in Data Store : 628714
Heartbeat CPU 4 instructions: 240000001 cycles: 125742825 heartbeat IPC: 1.04656 cumulative IPC: 1.02992 (Simulation time: 9 hr 40 min 18 sec) 
 Total Blocks : 196608 Invalid Blocks : 0 Valid Blocks : 196608
 Total Tags : 491520 Threshold : 12288 Invalid Tags : 196608 Pr0 Tags : 98304 Pr1 Tags : 196608 num_pr0 : 12288
 SAE Count : 0
 Inter-Core Inteference in Data Store : 638143
Heartbeat CPU 1 instructions: 240000001 cycles: 125765209 heartbeat IPC: 1.04232 cumulative IPC: 1.02927 (Simulation time: 9 hr 40 min 22 sec) 
 Total Blocks : 196608 Invalid Blocks : 0 Valid Blocks : 196608
 Total Tags : 491520 Threshold : 12288 Invalid Tags : 196608 Pr0 Tags : 98304 Pr1 Tags : 196608 num_pr0 : 12288
 SAE Count : 0
 Inter-Core Inteference in Data Store : 638663
Heartbeat CPU 3 instructions: 240000001 cycles: 125819399 heartbeat IPC: 1.03849 cumulative IPC: 1.02781 (Simulation time: 9 hr 40 min 30 sec) 
 Total Blocks : 196608 Invalid Blocks : 0 Valid Blocks : 196608
 Total Tags : 491520 Threshold : 12288 Invalid Tags : 196611 Pr0 Tags : 98301 Pr1 Tags : 196608 num_pr0 : 12288
 SAE Count : 0
 Inter-Core Inteference in Data Store : 639940
Heartbeat CPU 6 instructions: 240000001 cycles: 125837065 heartbeat IPC: 1.04339 cumulative IPC: 1.02763 (Simulation time: 9 hr 40 min 33 sec) 
 Total Blocks : 196608 Invalid Blocks : 0 Valid Blocks : 196608
 Total Tags : 491520 Threshold : 12288 Invalid Tags : 196610 Pr0 Tags : 98302 Pr1 Tags : 196608 num_pr0 : 12288
 SAE Count : 0
 Inter-Core Inteference in Data Store : 640313
Heartbeat CPU 5 instructions: 240000001 cycles: 125929302 heartbeat IPC: 1.04361 cumulative IPC: 1.0251 (Simulation time: 9 hr 40 min 49 sec) 
 Total Blocks : 196608 Invalid Blocks : 0 Valid Blocks : 196608
 Total Tags : 491520 Threshold : 12288 Invalid Tags : 196615 Pr0 Tags : 98297 Pr1 Tags : 196608 num_pr0 : 12286
 SAE Count : 0
 Inter-Core Inteference in Data Store : 642220
Heartbeat CPU 7 instructions: 240000001 cycles: 125983228 heartbeat IPC: 1.03931 cumulative IPC: 1.02396 (Simulation time: 9 hr 40 min 59 sec) 
 Total Blocks : 196608 Invalid Blocks : 0 Valid Blocks : 196608
 Total Tags : 491520 Threshold : 12288 Invalid Tags : 196611 Pr0 Tags : 98301 Pr1 Tags : 196608 num_pr0 : 12288
 SAE Count : 0
 Inter-Core Inteference in Data Store : 643384
Heartbeat CPU 0 instructions: 240000001 cycles: 126003395 heartbeat IPC: 1.03884 cumulative IPC: 1.02298 (Simulation time: 9 hr 41 min 3 sec) 
 Total Blocks : 196608 Invalid Blocks : 0 Valid Blocks : 196608
 Total Tags : 491520 Threshold : 12288 Invalid Tags : 196608 Pr0 Tags : 98304 Pr1 Tags : 196608 num_pr0 : 12288
 SAE Count : 0
 Inter-Core Inteference in Data Store : 643796
Heartbeat CPU 2 instructions: 250000001 cycles: 134209984 heartbeat IPC: 1.10554 cumulative IPC: 1.05691 (Simulation time: 10 hr 5 min 56 sec) 
 Total Blocks : 196608 Invalid Blocks : 0 Valid Blocks : 196608
 Total Tags : 491520 Threshold : 12288 Invalid Tags : 196608 Pr0 Tags : 98304 Pr1 Tags : 196608 num_pr0 : 12288
 SAE Count : 0
 Inter-Core Inteference in Data Store : 778002
Heartbeat CPU 4 instructions: 250000001 cycles: 134855391 heartbeat IPC: 1.09739 cumulative IPC: 1.04275 (Simulation time: 10 hr 8 min 13 sec) 
 Total Blocks : 196608 Invalid Blocks : 0 Valid Blocks : 196608
 Total Tags : 491520 Threshold : 12288 Invalid Tags : 196608 Pr0 Tags : 98304 Pr1 Tags : 196608 num_pr0 : 12288
 SAE Count : 0
 Inter-Core Inteference in Data Store : 784892
Heartbeat CPU 1 instructions: 250000001 cycles: 134911964 heartbeat IPC: 1.09328 cumulative IPC: 1.04147 (Simulation time: 10 hr 8 min 27 sec) 
 Total Blocks : 196608 Invalid Blocks : 0 Valid Blocks : 196608
 Total Tags : 491520 Threshold : 12288 Invalid Tags : 196610 Pr0 Tags : 98302 Pr1 Tags : 196608 num_pr0 : 12288
 SAE Count : 0
 Inter-Core Inteference in Data Store : 785274
Heartbeat CPU 3 instructions: 250000001 cycles: 134990573 heartbeat IPC: 1.09037 cumulative IPC: 1.03975 (Simulation time: 10 hr 8 min 46 sec) 
 Total Blocks : 196608 Invalid Blocks : 0 Valid Blocks : 196608
 Total Tags : 491520 Threshold : 12288 Invalid Tags : 196610 Pr0 Tags : 98302 Pr1 Tags : 196608 num_pr0 : 12287
 SAE Count : 0
 Inter-Core Inteference in Data Store : 785712
Heartbeat CPU 6 instructions: 250000001 cycles: 134991915 heartbeat IPC: 1.09232 cumulative IPC: 1.03995 (Simulation time: 10 hr 8 min 47 sec) 
 Total Blocks : 196608 Invalid Blocks : 0 Valid Blocks : 196608
 Total Tags : 491520 Threshold : 12288 Invalid Tags : 196608 Pr0 Tags : 98304 Pr1 Tags : 196608 num_pr0 : 12288
 SAE Count : 0
 Inter-Core Inteference in Data Store : 785712
Heartbeat CPU 5 instructions: 250000001 cycles: 135058582 heartbeat IPC: 1.09538 cumulative IPC: 1.03843 (Simulation time: 10 hr 9 min 0 sec) 
 Total Blocks : 196608 Invalid Blocks : 0 Valid Blocks : 196608
 Total Tags : 491520 Threshold : 12288 Invalid Tags : 196608 Pr0 Tags : 98304 Pr1 Tags : 196608 num_pr0 : 12288
 SAE Count : 0
 Inter-Core Inteference in Data Store : 786062
Heartbeat CPU 0 instructions: 250000001 cycles: 135110580 heartbeat IPC: 1.09803 cumulative IPC: 1.03716 (Simulation time: 10 hr 9 min 12 sec) 
 Total Blocks : 196608 Invalid Blocks : 0 Valid Blocks : 196608
 Total Tags : 491520 Threshold : 12288 Invalid Tags : 196611 Pr0 Tags : 98301 Pr1 Tags : 196608 num_pr0 : 12288
[...]
LLC4 TOTAL     ACCESS: 329988  HIT: 176415  MISS: 153573  HIT %: 53.461  MISS %: 46.539  AVERAGE MISS PENALTY: 375.215
LLC4 LOAD      ACCESS: 21674  HIT: 15251  MISS:  6423  HIT %: 70.3654  MISS %: 29.6346  AVERAGE MISS PENALTY: 392.355
LLC4 RFO       ACCESS: 75072  HIT: 43725  MISS: 31347  HIT %: 58.2441  MISS %: 41.7559  AVERAGE MISS PENALTY: 872.738
LLC4 PREFETCH  ACCESS: 128111  HIT: 55989  MISS: 72122  HIT %: 43.7035  MISS %: 56.2965  AVERAGE MISS PENALTY: 384.697
LLC4 WRITEBACK ACCESS: 105131  HIT: 61450  MISS: 43681  HIT %: 58.4509  MISS %: 41.5491  AVERAGE MISS PENALTY: 0
LLC4 PREFETCH  REQUESTED:     0  ISSUED:     0  USEFUL:  6094  USELESS: 108287
 USEFUL LOAD PREFETCHES:       6094 PREFETCH ISSUED TO LOWER LEVEL:     629069  ACCURACY: 0.968733
 TIMELY PREFETCHES:       6094 LATE PREFETCHES: 0 DROPPED PREFETCHES: 0
LLC4 AVERAGE MISS LATENCY: 375.215 cycles

LLC4 Set Associative Eviction Count : 0
LLC4 Priority 0 entries : 12288
LLC4 Inter-Core Interference : 440799
LLC5 TOTAL     ACCESS: 333006  HIT: 178720  MISS: 154286  HIT %: 53.6687  MISS %: 46.3313  AVERAGE MISS PENALTY: 378.703
LLC5 LOAD      ACCESS: 23146  HIT: 17008  MISS:  6138  HIT %: 73.4814  MISS %: 26.5186  AVERAGE MISS PENALTY: 377.265
LLC5 RFO       ACCESS: 75543  HIT: 44091  MISS: 31452  HIT %: 58.3654  MISS %: 41.6346  AVERAGE MISS PENALTY: 894.996
LLC5 PREFETCH  ACCESS: 128367  HIT: 55449  MISS: 72918  HIT %: 43.1957  MISS %: 56.8043  AVERAGE MISS PENALTY: 383.494
LLC5 WRITEBACK ACCESS: 105950  HIT: 62172  MISS: 43778  HIT %: 58.6805  MISS %: 41.3195  AVERAGE MISS PENALTY: 0
LLC5 PREFETCH  REQUESTED:     0  ISSUED:     0  USEFUL:  6107  USELESS: 109772
 USEFUL LOAD PREFETCHES:       6107 PREFETCH ISSUED TO LOWER LEVEL:     628268  ACCURACY: 0.972037
 TIMELY PREFETCHES:       6107 LATE PREFETCHES: 0 DROPPED PREFETCHES: 0
LLC5 AVERAGE MISS LATENCY: 378.704 cycles

LLC5 Set Associative Eviction Count : 0
LLC5 Priority 0 entries : 12286
LLC5 Inter-Core Interference : 442423
LLC6 TOTAL     ACCESS: 329369  HIT: 175198  MISS: 154171  HIT %: 53.192  MISS %: 46.808  AVERAGE MISS PENALTY: 381.592
LLC6 LOAD      ACCESS: 21453  HIT: 14969  MISS:  6484  HIT %: 69.7758  MISS %: 30.2242  AVERAGE MISS PENALTY: 383.267
LLC6 RFO       ACCESS: 75384  HIT: 43901  MISS: 31483  HIT %: 58.2365  MISS %: 41.7635  AVERAGE MISS PENALTY: 897.199
LLC6 PREFETCH  ACCESS: 127830  HIT: 55437  MISS: 72393  HIT %: 43.3678  MISS %: 56.6322  AVERAGE MISS PENALTY: 388.143
LLC6 WRITEBACK ACCESS: 104702  HIT: 60891  MISS: 43811  HIT %: 58.1565  MISS %: 41.8435  AVERAGE MISS PENALTY: 0
LLC6 PREFETCH  REQUESTED:     0  ISSUED:     0  USEFUL:  5779  USELESS: 109793
 USEFUL LOAD PREFETCHES:       5779 PREFETCH ISSUED TO LOWER LEVEL:     653360  ACCURACY: 0.884505
 TIMELY PREFETCHES:       5779 LATE PREFETCHES: 0 DROPPED PREFETCHES: 0
LLC6 AVERAGE MISS LATENCY: 381.592 cycles

LLC6 Set Associative Eviction Count : 0
LLC6 Priority 0 entries : 12288
LLC6 Inter-Core Interference : 441527
LLC7 TOTAL     ACCESS: 330661  HIT: 176617  MISS: 154044  HIT %: 53.4133  MISS %: 46.5867  AVERAGE MISS PENALTY: 390.049
LLC7 LOAD      ACCESS: 21177  HIT: 15487  MISS:  5690  HIT %: 73.1312  MISS %: 26.8688  AVERAGE MISS PENALTY: 376.407
LLC7 RFO       ACCESS: 75578  HIT: 44139  MISS: 31439  HIT %: 58.4019  MISS %: 41.5981  AVERAGE MISS PENALTY: 929.01
LLC7 PREFETCH  ACCESS: 128659  HIT: 55482  MISS: 73177  HIT %: 43.1233  MISS %: 56.8767  AVERAGE MISS PENALTY: 392.689
LLC7 WRITEBACK ACCESS: 105247  HIT: 61509  MISS: 43738  HIT %: 58.4425  MISS %: 41.5575  AVERAGE MISS PENALTY: 0
LLC7 PREFETCH  REQUESTED:     0  ISSUED:     0  USEFUL:  5789  USELESS: 110335
 USEFUL LOAD PREFETCHES:       5789 PREFETCH ISSUED TO LOWER LEVEL:     688913  ACCURACY: 0.840309
 TIMELY PREFETCHES:       5789 LATE PREFETCHES: 0 DROPPED PREFETCHES: 0
LLC7 AVERAGE MISS LATENCY: 390.049 cycles

LLC7 Set Associative Eviction Count : 0
LLC7 Priority 0 entries : 12288
LLC7 Inter-Core Interference : 440857
ROI Average ROB Stall Cycles:	4.86989
ROI Total ROB Stalls Cycles:	155933031
ROI TOTAL ROB counter      :	32019827
ROI Average Load ROB Stall Cycles:	17.6848
ROI Total Load ROB Stalls Cycle  :	51981913
ROI Total Load ROB stalls Counter:	2939354
Major fault: 0 Minor fault: 13492

CPU 7 cumulative IPC: 0.951729 instructions: 200000001 cycles: 210143873
ITLB TOTAL     ACCESS: 28555818  HIT: 28551111  MISS:  4707  HIT %: 99.9835  MISS %: 0.0164835  AVERAGE MISS PENALTY: 12.3875
ITLB LOAD      ACCESS: 28555818  HIT: 28551111  MISS:  4707  HIT %: 99.9835  MISS %: 0.0164835  AVERAGE MISS PENALTY: 12.3875
ITLB RFO       ACCESS:     0  HIT:     0  MISS:     0  HIT %:     0  MISS %:     0  AVERAGE MISS PENALTY: 0
ITLB PREFETCH  ACCESS:     0  HIT:     0  MISS:     0  HIT %:     0  MISS %:     0  AVERAGE MISS PENALTY: 0
ITLB WRITEBACK ACCESS:     0  HIT:     0  MISS:     0  HIT %:     0  MISS %:     0  AVERAGE MISS PENALTY: 0
ITLB PREFETCH  REQUESTED:     0  ISSUED:     0  USEFUL:     0  USELESS:     0
 USEFUL LOAD PREFETCHES:          0 PREFETCH ISSUED TO LOWER LEVEL:          0  ACCURACY: -nan
 TIMELY PREFETCHES:          0 LATE PREFETCHES: 0 DROPPED PREFETCHES: 0
ITLB AVERAGE MISS LATENCY: 12.3875 cycles

ITLB Set Associative Eviction Count : 0
ITLB Priority 0 entries : 0
ITLB Inter-Core Interference : 0
DTLB TOTAL     ACCESS: 42548183  HIT: 42450077  MISS: 98106  HIT %: 99.7694  MISS %: 0.230576  AVERAGE MISS PENALTY: 21.6197
DTLB LOAD      ACCESS: 34154350  HIT: 34073697  MISS: 80653  HIT %: 99.7639  MISS %: 0.236143  AVERAGE MISS PENALTY: 19.8714
DTLB RFO       ACCESS: 8393833  HIT: 8376380  MISS: 17453  HIT %: 99.7921  MISS %: 0.207926  AVERAGE MISS PENALTY: 29.6988
DTLB PREFETCH  ACCESS:     0  HIT:     0  MISS:     0  HIT %:     0  MISS %:     0  AVERAGE MISS PENALTY: 0
DTLB WRITEBACK ACCESS:     0  HIT:     0  MISS:     0  HIT %:     0  MISS %:     0  AVERAGE MISS PENALTY: 0
DTLB PREFETCH  REQUESTED:     0  ISSUED:     0  USEFUL:     0  USELESS:     0
 USEFUL LOAD PREFETCHES:          0 PREFETCH ISSUED TO LOWER LEVEL:          0  ACCURACY: -nan
 TIMELY PREFETCHES:          0 LATE PREFETCHES: 0 DROPPED PREFETCHES: 0
DTLB AVERAGE MISS LATENCY: 21.6197 cycles

DTLB Set Associative Eviction Count : 0
DTLB Priority 0 entries : 0
DTLB Inter-Core Interference : 0
STLB TOTAL     ACCESS: 102813  HIT: 93230  MISS:  9583  HIT %: 90.6792  MISS %: 9.32081  AVERAGE MISS PENALTY: 100
STLB LOAD      ACCESS: 85360  HIT: 79355  MISS:  6005  HIT %: 92.9651  MISS %: 7.03491  AVERAGE MISS PENALTY: 100
STLB RFO       ACCESS: 17453  HIT: 13875  MISS:  3578  HIT %: 79.4992  MISS %: 20.5008  AVERAGE MISS PENALTY: 100
STLB PREFETCH  ACCESS:     0  HIT:     0  MISS:     0  HIT %:     0  MISS %:     0  AVERAGE MISS PENALTY: 0
STLB WRITEBACK ACCESS:     0  HIT:     0  MISS:     0  HIT %:     0  MISS %:     0  AVERAGE MISS PENALTY: 0
STLB PREFETCH  REQUESTED:     0  ISSUED:     0  USEFUL:     0  USELESS:     0
 USEFUL LOAD PREFETCHES:          0 PREFETCH ISSUED TO LOWER LEVEL:          0  ACCURACY: -nan
 TIMELY PREFETCHES:          0 LATE PREFETCHES: 0 DROPPED PREFETCHES: 0
STLB AVERAGE MISS LATENCY: 100 cycles

STLB Set Associative Eviction Count : 0
STLB Priority 0 entries : 0
STLB Inter-Core Interference : 0
L1D TOTAL     ACCESS: 47644989  HIT: 44400865  MISS: 3244124  HIT %: 93.191  MISS %: 6.80895  AVERAGE MISS PENALTY: 1.49796e+07
L1D LOAD      ACCESS: 25428886  HIT: 24913179  MISS: 515707  HIT %: 97.972  MISS %: 2.02804  AVERAGE MISS PENALTY: 9.41574e+07
L1D RFO       ACCESS: 10622802  HIT: 9616503  MISS: 1006299  HIT %: 90.527  MISS %: 9.47301  AVERAGE MISS PENALTY: 37816.8
L1D PREFETCH  ACCESS: 11593301  HIT: 9871183  MISS: 1722118  HIT %: 85.1456  MISS %: 14.8544  AVERAGE MISS PENALTY: 61.1662
L1D WRITEBACK ACCESS:     0  HIT:     0  MISS:     0  HIT %:     0  MISS %:     0  AVERAGE MISS PENALTY: 0
L1D PREFETCH  REQUESTED: 13319470  ISSUED: 12780258  USEFUL: 1511602  USELESS: 210530
 USEFUL LOAD PREFETCHES:    1511602 PREFETCH ISSUED TO LOWER LEVEL:    9813152  ACCURACY: 15.4038
 TIMELY PREFETCHES:    1511602 LATE PREFETCHES: 313435 DROPPED PREFETCHES: 539212
L1D AVERAGE MISS LATENCY: 11783.9 cycles

L1D Set Associative Eviction Count : 0
L1D Priority 0 entries : 0
L1D Inter-Core Interference : 0
L1I TOTAL     ACCESS: 41190970  HIT: 41078324  MISS: 112646  HIT %: 99.7265  MISS %: 0.273473  AVERAGE MISS PENALTY: 93.9164
L1I LOAD      ACCESS: 41190970  HIT: 41078324  MISS: 112646  HIT %: 99.7265  MISS %: 0.273473  AVERAGE MISS PENALTY: 93.9164
L1I RFO       ACCESS:     0  HIT:     0  MISS:     0  HIT %:     0  MISS %:     0  AVERAGE MISS PENALTY: 0
L1I PREFETCH  ACCESS:     0  HIT:     0  MISS:     0  HIT %:     0  MISS %:     0  AVERAGE MISS PENALTY: 0
L1I WRITEBACK ACCESS:     0  HIT:     0  MISS:     0  HIT %:     0  MISS %:     0  AVERAGE MISS PENALTY: 0
L1I PREFETCH  REQUESTED:     0  ISSUED:     0  USEFUL:     0  USELESS:     0
 USEFUL LOAD PREFETCHES:          0 PREFETCH ISSUED TO LOWER LEVEL:          0  ACCURACY: -nan
 TIMELY PREFETCHES:          0 LATE PREFETCHES: 0 DROPPED PREFETCHES: 0
L1I AVERAGE MISS LATENCY: 93.9164 cycles

L1I Set Associative Eviction Count : 0
L1I Priority 0 entries : 0
L1I Inter-Core Interference : 0
L2C TOTAL     ACCESS: 6777040  HIT: 4729709  MISS: 2047331  HIT %: 69.7902  MISS %: 30.2098  AVERAGE MISS PENALTY: 1.61125e+07
L2C LOAD      ACCESS: 573480  HIT: 219998  MISS: 353482  HIT %: 38.3619  MISS %: 61.6381  AVERAGE MISS PENALTY: 9.33047e+07
L2C RFO       ACCESS: 1006029  HIT: 338998  MISS: 667031  HIT %: 33.6966  MISS %: 66.3034  AVERAGE MISS PENALTY: 8742
L2C PREFETCH  ACCESS: 3856091  HIT: 2904118  MISS: 951973  HIT %: 75.3125  MISS %: 24.6875  AVERAGE MISS PENALTY: 195.523
L2C WRITEBACK ACCESS: 1341440  HIT: 1266595  MISS: 74845  HIT %: 94.4205  MISS %: 5.57945  AVERAGE MISS PENALTY: 0
L2C PREFETCH  REQUESTED: 3483083  ISSUED: 3479471  USEFUL: 87923  USELESS: 865266
 USEFUL LOAD PREFETCHES:      87923 PREFETCH ISSUED TO LOWER LEVEL:    1627152  ACCURACY: 5.40349
 TIMELY PREFETCHES:      87923 LATE PREFETCHES: 274611 DROPPED PREFETCHES: 3612
L2C AVERAGE MISS LATENCY: 248.152 cycles

L2C Set Associative Eviction Count : 0
L2C Priority 0 entries : 0
L2C Inter-Core Interference : 0
LLC0 TOTAL     ACCESS: 359369  HIT: 206886  MISS: 152483  HIT %: 57.5692  MISS %: 42.4308  AVERAGE MISS PENALTY: 368.139
LLC0 LOAD      ACCESS: 36841  HIT: 22643  MISS: 14198  HIT %: 61.4614  MISS %: 38.5386  AVERAGE MISS PENALTY: 371.303
LLC0 RFO       ACCESS: 83176  HIT: 51668  MISS: 31508  HIT %: 62.1189  MISS %: 37.8811  AVERAGE MISS PENALTY: 854.571
LLC0 PREFETCH  ACCESS: 123129  HIT: 59749  MISS: 63380  HIT %: 48.5255  MISS %: 51.4745  AVERAGE MISS PENALTY: 377.679
LLC0 WRITEBACK ACCESS: 116223  HIT: 72826  MISS: 43397  HIT %: 62.6606  MISS %: 37.3394  AVERAGE MISS PENALTY: 0
LLC0 PREFETCH  REQUESTED:     0  ISSUED:     0  USEFUL:  5119  USELESS: 95696
 USEFUL LOAD PREFETCHES:       5119 PREFETCH ISSUED TO LOWER LEVEL:     564995  ACCURACY: 0.906026
 TIMELY PREFETCHES:       5119 LATE PREFETCHES: 0 DROPPED PREFETCHES: 0
LLC0 AVERAGE MISS LATENCY: 368.139 cycles

LLC0 Set Associative Eviction Count : 0
LLC0 Priority 0 entries : 12288
LLC0 Inter-Core Interference : 436486
LLC1 TOTAL     ACCESS: 364911  HIT: 211656  MISS: 153255  HIT %: 58.0021  MISS %: 41.9979  AVERAGE MISS PENALTY: 374.906
LLC1 LOAD      ACCESS: 29189  HIT: 21096  MISS:  8093  HIT %: 72.2738  MISS %: 27.7262  AVERAGE MISS PENALTY: 370.67
LLC1 RFO       ACCESS: 83995  HIT: 52504  MISS: 31491  HIT %: 62.5085  MISS %: 37.4915  AVERAGE MISS PENALTY: 889.55
LLC1 PREFETCH  ACCESS: 133648  HIT: 63420  MISS: 70228  HIT %: 47.453  MISS %: 52.547  AVERAGE MISS PENALTY: 376.538
LLC1 WRITEBACK ACCESS: 118079  HIT: 74636  MISS: 43443  HIT %: 63.2085  MISS %: 36.7915  AVERAGE MISS PENALTY: 0
LLC1 PREFETCH  REQUESTED:     0  ISSUED:     0  USEFUL:  6520  USELESS: 106546
 USEFUL LOAD PREFETCHES:       6520 PREFETCH ISSUED TO LOWER LEVEL:     605618  ACCURACY: 1.07659
 TIMELY PREFETCHES:       6520 LATE PREFETCHES: 0 DROPPED PREFETCHES: 0
LLC1 AVERAGE MISS LATENCY: 374.906 cycles

LLC1 Set Associative Eviction Count : 0
LLC1 Priority 0 entries : 12288
LLC1 Inter-Core Interference : 440853
LLC2 TOTAL     ACCESS: 363852  HIT: 210725  MISS: 153127  HIT %: 57.915  MISS %: 42.085  AVERAGE MISS PENALTY: 378.506
LLC2 LOAD      ACCESS: 24889  HIT: 18092  MISS:  6797  HIT %: 72.6907  MISS %: 27.3093  AVERAGE MISS PENALTY: 398.304
LLC2 RFO       ACCESS: 83284  HIT: 51966  MISS: 31318  HIT %: 62.3961  MISS %: 37.6039  AVERAGE MISS PENALTY: 879.699
LLC2 PREFETCH  ACCESS: 138142  HIT: 66396  MISS: 71746  HIT %: 48.0636  MISS %: 51.9364  AVERAGE MISS PENALTY: 386.109
LLC2 WRITEBACK ACCESS: 117537  HIT: 74271  MISS: 43266  HIT %: 63.1895  MISS %: 36.8105  AVERAGE MISS PENALTY: 0
LLC2 PREFETCH  REQUESTED:     0  ISSUED:     0  USEFUL:  6206  USELESS: 109565
 USEFUL LOAD PREFETCHES:       6206 PREFETCH ISSUED TO LOWER LEVEL:     657368  ACCURACY: 0.944068
 TIMELY PREFETCHES:       6206 LATE PREFETCHES: 0 DROPPED PREFETCHES: 0
LLC2 AVERAGE MISS LATENCY: 378.506 cycles

LLC2 Set Associative Eviction Count : 0
LLC2 Priority 0 entries : 12288
LLC2 Inter-Core Interference : 440261
LLC3 TOTAL     ACCESS: 365080  HIT: 211694  MISS: 153386  HIT %: 57.9856  MISS %: 42.0144  AVERAGE MISS PENALTY: 387.699
LLC3 LOAD      ACCESS: 23524  HIT: 17830  MISS:  5694  HIT %: 75.7949  MISS %: 24.2051  AVERAGE MISS PENALTY: 388.559
LLC3 RFO       ACCESS: 83215  HIT: 51780  MISS: 31435  HIT %: 62.2244  MISS %: 37.7756  AVERAGE MISS PENALTY: 917.837
LLC3 PREFETCH  ACCESS: 140806  HIT: 67817  MISS: 72989  HIT %: 48.1634  MISS %: 51.8366  AVERAGE MISS PENALTY: 389.141
LLC3 WRITEBACK ACCESS: 117535  HIT: 74267  MISS: 43268  HIT %: 63.1871  MISS %: 36.8129  AVERAGE MISS PENALTY: 0
LLC3 PREFETCH  REQUESTED:     0  ISSUED:     0  USEFUL:  6045  USELESS: 111577
 USEFUL LOAD PREFETCHES:       6045 PREFETCH ISSUED TO LOWER LEVEL:     627421  ACCURACY: 0.963468
 TIMELY PREFETCHES:       6045 LATE PREFETCHES: 0 DROPPED PREFETCHES: 0
LLC3 AVERAGE MISS LATENCY: 387.699 cycles

LLC3 Set Associative Eviction Count : 0
LLC3 Priority 0 entries : 12288
LLC3 Inter-Core Interference : 441554
LLC4 TOTAL     ACCESS: 363283  HIT: 210206  MISS: 153077  HIT %: 57.8629  MISS %: 42.1371  AVERAGE MISS PENALTY: 373.302
LLC4 LOAD      ACCESS: 23853  HIT: 17573  MISS:  6280  HIT %: 73.6721  MISS %: 26.3279  AVERAGE MISS PENALTY: 385.484
LLC4 RFO       ACCESS: 82634  HIT: 50958  MISS: 31676  HIT %: 61.6671  MISS %: 38.3329  AVERAGE MISS PENALTY: 868.906
LLC4 PREFETCH  ACCESS: 140072  HIT: 68384  MISS: 71688  HIT %: 48.8206  MISS %: 51.1794  AVERAGE MISS PENALTY: 379.416
LLC4 WRITEBACK ACCESS: 116724  HIT: 73291  MISS: 43433  HIT %: 62.79  MISS %: 37.21  AVERAGE MISS PENALTY: 0
LLC4 PREFETCH  REQUESTED:     0  ISSUED:     0  USEFUL:  6094  USELESS: 108287
 USEFUL LOAD PREFETCHES:       6094 PREFETCH ISSUED TO LOWER LEVEL:     629069  ACCURACY: 0.968733
 TIMELY PREFETCHES:       6094 LATE PREFETCHES: 0 DROPPED PREFETCHES: 0
LLC4 AVERAGE MISS LATENCY: 373.302 cycles

LLC4 Set Associative Eviction Count : 0
LLC4 Priority 0 entries : 12288
LLC4 Inter-Core Interference : 440799
LLC5 TOTAL     ACCESS: 366715  HIT: 213406  MISS: 153309  HIT %: 58.194  MISS %: 41.806  AVERAGE MISS PENALTY: 379.402
LLC5 LOAD      ACCESS: 24606  HIT: 18758  MISS:  5848  HIT %: 76.2334  MISS %: 23.7666  AVERAGE MISS PENALTY: 382.978
LLC5 RFO       ACCESS: 83653  HIT: 52041  MISS: 31612  HIT %: 62.2106  MISS %: 37.7894  AVERAGE MISS PENALTY: 897.45
LLC5 PREFETCH  ACCESS: 140425  HIT: 67955  MISS: 72470  HIT %: 48.3924  MISS %: 51.6076  AVERAGE MISS PENALTY: 380.239
LLC5 WRITEBACK ACCESS: 118031  HIT: 74652  MISS: 43379  HIT %: 63.2478  MISS %: 36.7522  AVERAGE MISS PENALTY: 0
LLC5 PREFETCH  REQUESTED:     0  ISSUED:     0  USEFUL:  6107  USELESS: 109772
 USEFUL LOAD PREFETCHES:       6107 PREFETCH ISSUED TO LOWER LEVEL:     628268  ACCURACY: 0.972037
 TIMELY PREFETCHES:       6107 LATE PREFETCHES: 0 DROPPED PREFETCHES: 0
LLC5 AVERAGE MISS LATENCY: 379.402 cycles

LLC5 Set Associative Eviction Count : 0
LLC5 Priority 0 entries : 12286
LLC5 Inter-Core Interference : 442423
LLC6 TOTAL     ACCESS: 363566  HIT: 210038  MISS: 153528  HIT %: 57.7716  MISS %: 42.2284  AVERAGE MISS PENALTY: 381.717
LLC6 LOAD      ACCESS: 23193  HIT: 16797  MISS:  6396  HIT %: 72.4227  MISS %: 27.5773  AVERAGE MISS PENALTY: 385.258
LLC6 RFO       ACCESS: 83613  HIT: 51821  MISS: 31792  HIT %: 61.9772  MISS %: 38.0228  AVERAGE MISS PENALTY: 898.145
LLC6 PREFETCH  ACCESS: 140097  HIT: 68280  MISS: 71817  HIT %: 48.7377  MISS %: 51.2623  AVERAGE MISS PENALTY: 384.12
LLC6 WRITEBACK ACCESS: 116663  HIT: 73140  MISS: 43523  HIT %: 62.6934  MISS %: 37.3066  AVERAGE MISS PENALTY: 0
LLC6 PREFETCH  REQUESTED:     0  ISSUED:     0  USEFUL:  5779  USELESS: 109793
 USEFUL LOAD PREFETCHES:       5779 PREFETCH ISSUED TO LOWER LEVEL:     653360  ACCURACY: 0.884505
 TIMELY PREFETCHES:       5779 LATE PREFETCHES: 0 DROPPED PREFETCHES: 0
LLC6 AVERAGE MISS LATENCY: 381.717 cycles

LLC6 Set Associative Eviction Count : 0
LLC6 Priority 0 entries : 12288
LLC6 Inter-Core Interference : 441527
LLC7 TOTAL     ACCESS: 363564  HIT: 210212  MISS: 153352  HIT %: 57.8198  MISS %: 42.1802  AVERAGE MISS PENALTY: 388.462
LLC7 LOAD      ACCESS: 22765  HIT: 17177  MISS:  5588  HIT %: 75.4535  MISS %: 24.5465  AVERAGE MISS PENALTY: 388.914
LLC7 RFO       ACCESS: 83379  HIT: 51806  MISS: 31573  HIT %: 62.1332  MISS %: 37.8668  AVERAGE MISS PENALTY: 929.27
LLC7 PREFETCH  ACCESS: 140260  HIT: 67529  MISS: 72731  HIT %: 48.1456  MISS %: 51.8544  AVERAGE MISS PENALTY: 385.781
LLC7 WRITEBACK ACCESS: 117160  HIT: 73700  MISS: 43460  HIT %: 62.9054  MISS %: 37.0946  AVERAGE MISS PENALTY: 0
LLC7 PREFETCH  REQUESTED:     0  ISSUED:     0  USEFUL:  5789  USELESS: 110335
 USEFUL LOAD PREFETCHES:       5789 PREFETCH ISSUED TO LOWER LEVEL:     688913  ACCURACY: 0.840309
 TIMELY PREFETCHES:       5789 LATE PREFETCHES: 0 DROPPED PREFETCHES: 0
LLC7 AVERAGE MISS LATENCY: 388.462 cycles

LLC7 Set Associative Eviction Count : 0
LLC7 Priority 0 entries : 12288
LLC7 Inter-Core Interference : 440857
ROI Average ROB Stall Cycles:	4.87397
ROI Total ROB Stalls Cycles:	155988226
ROI TOTAL ROB counter      :	32004321
ROI Average Load ROB Stall Cycles:	17.7207
ROI Total Load ROB Stalls Cycle  :	52086164
ROI Total Load ROB stalls Counter:	2939278
Major fault: 0 Minor fault: 13489








Interconnect Stats 
LINK 0 BW : 0LINK 1 BW : 0LINK 2 BW : 0LINK 3 BW : 0LINK 4 BW : 0LINK 5 BW : 0LINK 6 BW : 0LINK 7 BW : 0
DRAM Statistics
 CHANNEL 0
 RQ ROW_BUFFER_HIT: 1290121  ROW_BUFFER_MISS: 2260263
 DBUS_CONGESTED: 4235818
 WQ ROW_BUFFER_HIT: 171715  ROW_BUFFER_MISS: 1347655  FULL: 31532

 CHANNEL 1
 RQ ROW_BUFFER_HIT: 1292311  ROW_BUFFER_MISS: 2268855
 DBUS_CONGESTED: 4235818
 WQ ROW_BUFFER_HIT: 173404  ROW_BUFFER_MISS: 1348466  FULL: 32477

 AVG_CONGESTED_CYCLE: 6
DRAM PAGES: 2097152
Allocated PAGES: 108120
L2C destructor called
L1D destructor called
L1I destructor called
STLB destructor called
DTLB destructor called
ITLB destructor called
L2C destructor called
L1D destructor called
L1I destructor called
STLB destructor called
DTLB destructor called
ITLB destructor called
L2C destructor called
L1D destructor called
L1I destructor called
STLB destructor called
DTLB destructor called
ITLB destructor called
L2C destructor called
L1D destructor called
L1I destructor called
STLB destructor called
DTLB destructor called
ITLB destructor called
L2C destructor called
L1D destructor called
L1I destructor called
STLB destructor called
DTLB destructor called
ITLB destructor called
L2C destructor called
L1D destructor called
L1I destructor called
STLB destructor called
DTLB destructor called
ITLB destructor called
L2C destructor called
L1D destructor called
L1I destructor called
STLB destructor called
DTLB destructor called
ITLB destructor called
L2C destructor called
L1D destructor called
L1I destructor called
STLB destructor called
DTLB destructor called
ITLB destructor called
