
*** ChampSim Multicore Out-of-Order Simulator ***

Warmup Instructions: 200000000
Simulation Instructions: 200000000
Number of CPUs: 8
threads:1

L1I Configuration:
L1I_SET:64
L1I_WAY:8
L1I_RQ_SIZE:64
L1I_WQ_SIZE:64
L1I_PQ_SIZE:8
L1I_MSHR_SIZE:8

L1D Configuration:
L1D_SET:64
L1D_WAY:12
L1D_RQ_SIZE:64
L1D_WQ_SIZE:64
L1D_PQ_SIZE:8
L1D_MSHR_SIZE:16

L2C Configuration:
L2C_SET:1024
L2C_WAY:8
L2C_RQ_SIZE:32
L2C_WQ_SIZE:32
L2C_PQ_SIZE:16
L2C_MSHR_SIZE:32

LLC Configuration:
LLC_SET:2048
LLC_WAY:12
LLC SLICES:8
LLC_RQ_SIZE:64
LLC_WQ_SIZE:64
LLC_PQ_SIZE:32
LLC_MSHR_SIZE:64

Interconnect OFF
Attacker deprioritize is: OFF
Off-chip DRAM Size: 8192 MB Channels: 2 Width: 64-bit Data Rate: 3200 MT/s
PAGE SIZE in KB: 4.000000 
PAGE SIZE in MB: 0.003906 
PAGE offset in bits: 12 
CEASER-S_LLC:0
MIRAGE : 1
CEASER_LATENCY:3
REMAP : OFF
Partitions : 1
Multi-Step : OFF
BFS : OFF

CPU 0 runs /home/anubhav/spec_2017/649.fotonik3d_s-1176B.champsimtrace.xz
CPU 1 runs /home/anubhav/spec_2017/649.fotonik3d_s-1176B.champsimtrace.xz
CPU 2 runs /home/anubhav/spec_2017/649.fotonik3d_s-1176B.champsimtrace.xz
CPU 3 runs /home/anubhav/spec_2017/649.fotonik3d_s-1176B.champsimtrace.xz
CPU 4 runs /home/anubhav/spec_2017/649.fotonik3d_s-1176B.champsimtrace.xz
CPU 5 runs /home/anubhav/spec_2017/649.fotonik3d_s-1176B.champsimtrace.xz
CPU 6 runs /home/anubhav/spec_2017/649.fotonik3d_s-1176B.champsimtrace.xz
CPU 7 runs /home/anubhav/spec_2017/649.fotonik3d_s-1176B.champsimtrace.xz
CPU 0 Bimodal branch predictor
Initialize Hawkeye state
Initialize Hawkeye state
Initialize Hawkeye state
Initialize Hawkeye state
Initialize Hawkeye state
Initialize Hawkeye state
Initialize Hawkeye state
Initialize Hawkeye state
CPU 1 Bimodal branch predictor
Initialize Hawkeye state
Initialize Hawkeye state
Initialize Hawkeye state
Initialize Hawkeye state
Initialize Hawkeye state
Initialize Hawkeye state
Initialize Hawkeye state
Initialize Hawkeye state
CPU 2 Bimodal branch predictor
Initialize Hawkeye state
Initialize Hawkeye state
Initialize Hawkeye state
Initialize Hawkeye state
Initialize Hawkeye state
Initialize Hawkeye state
Initialize Hawkeye state
Initialize Hawkeye state
CPU 3 Bimodal branch predictor
Initialize Hawkeye state
Initialize Hawkeye state
Initialize Hawkeye state
Initialize Hawkeye state
Initialize Hawkeye state
Initialize Hawkeye state
Initialize Hawkeye state
Initialize Hawkeye state
CPU 4 Bimodal branch predictor
Initialize Hawkeye state
Initialize Hawkeye state
Initialize Hawkeye state
Initialize Hawkeye state
Initialize Hawkeye state
Initialize Hawkeye state
Initialize Hawkeye state
Initialize Hawkeye state
CPU 5 Bimodal branch predictor
Initialize Hawkeye state
Initialize Hawkeye state
Initialize Hawkeye state
Initialize Hawkeye state
Initialize Hawkeye state
Initialize Hawkeye state
Initialize Hawkeye state
Initialize Hawkeye state
CPU 6 Bimodal branch predictor
Initialize Hawkeye state
Initialize Hawkeye state
Initialize Hawkeye state
Initialize Hawkeye state
Initialize Hawkeye state
Initialize Hawkeye state
Initialize Hawkeye state
Initialize Hawkeye state
CPU 7 Bimodal branch predictor
Initialize Hawkeye state
Initialize Hawkeye state
Initialize Hawkeye state
Initialize Hawkeye state
Initialize Hawkeye state
Initialize Hawkeye state
Initialize Hawkeye state
Initialize Hawkeye state
Heartbeat CPU 4 instructions: 10000003 cycles: 4250728 heartbeat IPC: 2.35254 cumulative IPC: 2.35254 (Simulation time: 0 hr 44 min 1 sec) 
 Total Blocks : 196608 Invalid Blocks : 4945 Valid Blocks : 191663
 Total Tags : 491520 Threshold : 12288 Invalid Tags : 201567 Pr0 Tags : 98290 Pr1 Tags : 191663 num_pr0 : 12287
 SAE Count : 0
 Inter-Core Inteference in Data Store : 469003
Heartbeat CPU 5 instructions: 10000003 cycles: 4250733 heartbeat IPC: 2.35254 cumulative IPC: 2.35254 (Simulation time: 0 hr 44 min 1 sec) 
 Total Blocks : 196608 Invalid Blocks : 4945 Valid Blocks : 191663
 Total Tags : 491520 Threshold : 12288 Invalid Tags : 201567 Pr0 Tags : 98290 Pr1 Tags : 191663 num_pr0 : 12287
 SAE Count : 0
 Inter-Core Inteference in Data Store : 469004
Heartbeat CPU 0 instructions: 10000003 cycles: 4250842 heartbeat IPC: 2.35248 cumulative IPC: 2.35248 (Simulation time: 0 hr 44 min 1 sec) 
 Total Blocks : 196608 Invalid Blocks : 4945 Valid Blocks : 191663
 Total Tags : 491520 Threshold : 12288 Invalid Tags : 201566 Pr0 Tags : 98291 Pr1 Tags : 191663 num_pr0 : 12287
 SAE Count : 0
 Inter-Core Inteference in Data Store : 469019
Heartbeat CPU 1 instructions: 10000003 cycles: 4250996 heartbeat IPC: 2.35239 cumulative IPC: 2.35239 (Simulation time: 0 hr 44 min 1 sec) 
 Total Blocks : 196608 Invalid Blocks : 4945 Valid Blocks : 191663
 Total Tags : 491520 Threshold : 12288 Invalid Tags : 201566 Pr0 Tags : 98291 Pr1 Tags : 191663 num_pr0 : 12287
 SAE Count : 0
 Inter-Core Inteference in Data Store : 469036
Heartbeat CPU 7 instructions: 10000003 cycles: 4251051 heartbeat IPC: 2.35236 cumulative IPC: 2.35236 (Simulation time: 0 hr 44 min 1 sec) 
 Total Blocks : 196608 Invalid Blocks : 4945 Valid Blocks : 191663
 Total Tags : 491520 Threshold : 12288 Invalid Tags : 201566 Pr0 Tags : 98291 Pr1 Tags : 191663 num_pr0 : 12287
 SAE Count : 0
 Inter-Core Inteference in Data Store : 469043
Heartbeat CPU 2 instructions: 10000003 cycles: 4251070 heartbeat IPC: 2.35235 cumulative IPC: 2.35235 (Simulation time: 0 hr 44 min 1 sec) 
 Total Blocks : 196608 Invalid Blocks : 4945 Valid Blocks : 191663
 Total Tags : 491520 Threshold : 12288 Invalid Tags : 201566 Pr0 Tags : 98291 Pr1 Tags : 191663 num_pr0 : 12287
 SAE Count : 0
 Inter-Core Inteference in Data Store : 469044
Heartbeat CPU 6 instructions: 10000003 cycles: 4251073 heartbeat IPC: 2.35235 cumulative IPC: 2.35235 (Simulation time: 0 hr 44 min 1 sec) 
 Total Blocks : 196608 Invalid Blocks : 4945 Valid Blocks : 191663
 Total Tags : 491520 Threshold : 12288 Invalid Tags : 201566 Pr0 Tags : 98291 Pr1 Tags : 191663 num_pr0 : 12287
 SAE Count : 0
 Inter-Core Inteference in Data Store : 469045
Heartbeat CPU 3 instructions: 10000003 cycles: 4251088 heartbeat IPC: 2.35234 cumulative IPC: 2.35234 (Simulation time: 0 hr 44 min 1 sec) 
 Total Blocks : 196608 Invalid Blocks : 4945 Valid Blocks : 191663
 Total Tags : 491520 Threshold : 12288 Invalid Tags : 201566 Pr0 Tags : 98291 Pr1 Tags : 191663 num_pr0 : 12287
 SAE Count : 0
 Inter-Core Inteference in Data Store : 469045
FILL
Heartbeat CPU 5 instructions: 20000002 cycles: 8501203 heartbeat IPC: 2.35268 cumulative IPC: 2.35261 (Simulation time: 1 hr 29 min 31 sec) 
 Total Blocks : 196608 Invalid Blocks : 114 Valid Blocks : 196494
 Total Tags : 491520 Threshold : 12288 Invalid Tags : 196728 Pr0 Tags : 98298 Pr1 Tags : 196494 num_pr0 : 12287
 SAE Count : 0
 Inter-Core Inteference in Data Store : 1116676
Heartbeat CPU 4 instructions: 20000002 cycles: 8501218 heartbeat IPC: 2.35267 cumulative IPC: 2.3526 (Simulation time: 1 hr 29 min 31 sec) 
 Total Blocks : 196608 Invalid Blocks : 114 Valid Blocks : 196494
 Total Tags : 491520 Threshold : 12288 Invalid Tags : 196727 Pr0 Tags : 98299 Pr1 Tags : 196494 num_pr0 : 12288
 SAE Count : 0
 Inter-Core Inteference in Data Store : 1116680
Heartbeat CPU 0 instructions: 20000002 cycles: 8501436 heartbeat IPC: 2.35261 cumulative IPC: 2.35254 (Simulation time: 1 hr 29 min 31 sec) 
 Total Blocks : 196608 Invalid Blocks : 114 Valid Blocks : 196494
 Total Tags : 491520 Threshold : 12288 Invalid Tags : 196729 Pr0 Tags : 98297 Pr1 Tags : 196494 num_pr0 : 12288
 SAE Count : 0
 Inter-Core Inteference in Data Store : 1116713
Heartbeat CPU 1 instructions: 20000002 cycles: 8501842 heartbeat IPC: 2.35247 cumulative IPC: 2.35243 (Simulation time: 1 hr 29 min 32 sec) 
 Total Blocks : 196608 Invalid Blocks : 114 Valid Blocks : 196494
 Total Tags : 491520 Threshold : 12288 Invalid Tags : 196729 Pr0 Tags : 98297 Pr1 Tags : 196494 num_pr0 : 12288
 SAE Count : 0
 Inter-Core Inteference in Data Store : 1116769
Heartbeat CPU 6 instructions: 20000002 cycles: 8501872 heartbeat IPC: 2.3525 cumulative IPC: 2.35242 (Simulation time: 1 hr 29 min 32 sec) 
 Total Blocks : 196608 Invalid Blocks : 114 Valid Blocks : 196494
 Total Tags : 491520 Threshold : 12288 Invalid Tags : 196729 Pr0 Tags : 98297 Pr1 Tags : 196494 num_pr0 : 12287
 SAE Count : 0
 Inter-Core Inteference in Data Store : 1116772
Heartbeat CPU 7 instructions: 20000002 cycles: 8501891 heartbeat IPC: 2.35248 cumulative IPC: 2.35242 (Simulation time: 1 hr 29 min 32 sec) 
 Total Blocks : 196608 Invalid Blocks : 114 Valid Blocks : 196494
 Total Tags : 491520 Threshold : 12288 Invalid Tags : 196730 Pr0 Tags : 98296 Pr1 Tags : 196494 num_pr0 : 12286
 SAE Count : 0
 Inter-Core Inteference in Data Store : 1116779
Heartbeat CPU 2 instructions: 20000002 cycles: 8501895 heartbeat IPC: 2.35248 cumulative IPC: 2.35242 (Simulation time: 1 hr 29 min 32 sec) 
 Total Blocks : 196608 Invalid Blocks : 114 Valid Blocks : 196494
 Total Tags : 491520 Threshold : 12288 Invalid Tags : 196730 Pr0 Tags : 98296 Pr1 Tags : 196494 num_pr0 : 12286
 SAE Count : 0
 Inter-Core Inteference in Data Store : 1116780
Heartbeat CPU 3 instructions: 20000002 cycles: 8501908 heartbeat IPC: 2.35249 cumulative IPC: 2.35241 (Simulation time: 1 hr 29 min 32 sec) 
 Total Blocks : 196608 Invalid Blocks : 114 Valid Blocks : 196494
 Total Tags : 491520 Threshold : 12288 Invalid Tags : 196730 Pr0 Tags : 98296 Pr1 Tags : 196494 num_pr0 : 12286
 SAE Count : 0
 Inter-Core Inteference in Data Store : 1116782
Heartbeat CPU 4 instructions: 30000000 cycles: 12751596 heartbeat IPC: 2.35273 cumulative IPC: 2.35265 (Simulation time: 2 hr 16 min 35 sec) 
 Total Blocks : 196608 Invalid Blocks : 5 Valid Blocks : 196603
 Total Tags : 491520 Threshold : 12288 Invalid Tags : 196623 Pr0 Tags : 98294 Pr1 Tags : 196603 num_pr0 : 12286
 SAE Count : 0
 Inter-Core Inteference in Data Store : 1766687
Heartbeat CPU 5 instructions: 30000000 cycles: 12751625 heartbeat IPC: 2.35271 cumulative IPC: 2.35264 (Simulation time: 2 hr 16 min 35 sec) 
 Total Blocks : 196608 Invalid Blocks : 5 Valid Blocks : 196603
 Total Tags : 491520 Threshold : 12288 Invalid Tags : 196625 Pr0 Tags : 98292 Pr1 Tags : 196603 num_pr0 : 12286
 SAE Count : 0
 Inter-Core Inteference in Data Store : 1766694
Heartbeat CPU 0 instructions: 30000000 cycles: 12752046 heartbeat IPC: 2.3526 cumulative IPC: 2.35256 (Simulation time: 2 hr 16 min 35 sec) 
 Total Blocks : 196608 Invalid Blocks : 5 Valid Blocks : 196603
 Total Tags : 491520 Threshold : 12288 Invalid Tags : 196623 Pr0 Tags : 98294 Pr1 Tags : 196603 num_pr0 : 12286
 SAE Count : 0
 Inter-Core Inteference in Data Store : 1766755
Heartbeat CPU 1 instructions: 30000000 cycles: 12752579 heartbeat IPC: 2.35253 cumulative IPC: 2.35247 (Simulation time: 2 hr 16 min 35 sec) 
 Total Blocks : 196608 Invalid Blocks : 5 Valid Blocks : 196603
 Total Tags : 491520 Threshold : 12288 Invalid Tags : 196624 Pr0 Tags : 98293 Pr1 Tags : 196603 num_pr0 : 12287
 SAE Count : 0
 Inter-Core Inteference in Data Store : 1766829
Heartbeat CPU 7 instructions: 30000000 cycles: 12752650 heartbeat IPC: 2.35252 cumulative IPC: 2.35245 (Simulation time: 2 hr 16 min 36 sec) 
 Total Blocks : 196608 Invalid Blocks : 5 Valid Blocks : 196603
 Total Tags : 491520 Threshold : 12288 Invalid Tags : 196624 Pr0 Tags : 98293 Pr1 Tags : 196603 num_pr0 : 12286
 SAE Count : 0
 Inter-Core Inteference in Data Store : 1766840
Heartbeat CPU 6 instructions: 30000000 cycles: 12752651 heartbeat IPC: 2.35251 cumulative IPC: 2.35245 (Simulation time: 2 hr 16 min 36 sec) 
 Total Blocks : 196608 Invalid Blocks : 5 Valid Blocks : 196603
 Total Tags : 491520 Threshold : 12288 Invalid Tags : 196624 Pr0 Tags : 98293 Pr1 Tags : 196603 num_pr0 : 12286
 SAE Count : 0
 Inter-Core Inteference in Data Store : 1766840
Heartbeat CPU 3 instructions: 30000000 cycles: 12752653 heartbeat IPC: 2.35253 cumulative IPC: 2.35245 (Simulation time: 2 hr 16 min 36 sec) 
 Total Blocks : 196608 Invalid Blocks : 5 Valid Blocks : 196603
 Total Tags : 491520 Threshold : 12288 Invalid Tags : 196624 Pr0 Tags : 98293 Pr1 Tags : 196603 num_pr0 : 12286
 SAE Count : 0
 Inter-Core Inteference in Data Store : 1766840
Heartbeat CPU 2 instructions: 30000000 cycles: 12752676 heartbeat IPC: 2.35251 cumulative IPC: 2.35245 (Simulation time: 2 hr 16 min 36 sec) 
 Total Blocks : 196608 Invalid Blocks : 5 Valid Blocks : 196603
 Total Tags : 491520 Threshold : 12288 Invalid Tags : 196625 Pr0 Tags : 98292 Pr1 Tags : 196603 num_pr0 : 12286
 SAE Count : 0
 Inter-Core Inteference in Data Store : 1766847
Heartbeat CPU 4 instructions: 40000003 cycles: 17002270 heartbeat IPC: 2.35257 cumulative IPC: 2.35263 (Simulation time: 3 hr 4 min 9 sec) 
 Total Blocks : 196608 Invalid Blocks : 0 Valid Blocks : 196608
 Total Tags : 491520 Threshold : 12288 Invalid Tags : 196616 Pr0 Tags : 98296 Pr1 Tags : 196608 num_pr0 : 12287
 SAE Count : 0
 Inter-Core Inteference in Data Store : 2414577
Heartbeat CPU 5 instructions: 40000003 cycles: 17002283 heartbeat IPC: 2.35258 cumulative IPC: 2.35263 (Simulation time: 3 hr 4 min 9 sec) 
 Total Blocks : 196608 Invalid Blocks : 0 Valid Blocks : 196608
 Total Tags : 491520 Threshold : 12288 Invalid Tags : 196616 Pr0 Tags : 98296 Pr1 Tags : 196608 num_pr0 : 12287
 SAE Count : 0
 Inter-Core Inteference in Data Store : 2414577
Heartbeat CPU 0 instructions: 40000003 cycles: 17002875 heartbeat IPC: 2.35248 cumulative IPC: 2.35254 (Simulation time: 3 hr 4 min 10 sec) 
 Total Blocks : 196608 Invalid Blocks : 0 Valid Blocks : 196608
 Total Tags : 491520 Threshold : 12288 Invalid Tags : 196614 Pr0 Tags : 98298 Pr1 Tags : 196608 num_pr0 : 12287
 SAE Count : 0
 Inter-Core Inteference in Data Store : 2414661
Heartbeat CPU 1 instructions: 40000003 cycles: 17003640 heartbeat IPC: 2.35235 cumulative IPC: 2.35244 (Simulation time: 3 hr 4 min 10 sec) 
 Total Blocks : 196608 Invalid Blocks : 0 Valid Blocks : 196608
 Total Tags : 491520 Threshold : 12288 Invalid Tags : 196615 Pr0 Tags : 98297 Pr1 Tags : 196608 num_pr0 : 12288
 SAE Count : 0
 Inter-Core Inteference in Data Store : 2414759
Heartbeat CPU 2 instructions: 40000003 cycles: 17003659 heartbeat IPC: 2.3524 cumulative IPC: 2.35244 (Simulation time: 3 hr 4 min 10 sec) 
 Total Blocks : 196608 Invalid Blocks : 0 Valid Blocks : 196608
 Total Tags : 491520 Threshold : 12288 Invalid Tags : 196615 Pr0 Tags : 98297 Pr1 Tags : 196608 num_pr0 : 12288
 SAE Count : 0
 Inter-Core Inteference in Data Store : 2414766
Heartbeat CPU 7 instructions: 40000003 cycles: 17003666 heartbeat IPC: 2.35238 cumulative IPC: 2.35243 (Simulation time: 3 hr 4 min 10 sec) 
 Total Blocks : 196608 Invalid Blocks : 0 Valid Blocks : 196608
 Total Tags : 491520 Threshold : 12288 Invalid Tags : 196615 Pr0 Tags : 98297 Pr1 Tags : 196608 num_pr0 : 12288
 SAE Count : 0
 Inter-Core Inteference in Data Store : 2414766
Heartbeat CPU 6 instructions: 40000003 cycles: 17003669 heartbeat IPC: 2.35238 cumulative IPC: 2.35243 (Simulation time: 3 hr 4 min 10 sec) 
 Total Blocks : 196608 Invalid Blocks : 0 Valid Blocks : 196608
 Total Tags : 491520 Threshold : 12288 Invalid Tags : 196615 Pr0 Tags : 98297 Pr1 Tags : 196608 num_pr0 : 12288
 SAE Count : 0
 Inter-Core Inteference in Data Store : 2414767
Heartbeat CPU 3 instructions: 40000003 cycles: 17003688 heartbeat IPC: 2.35237 cumulative IPC: 2.35243 (Simulation time: 3 hr 4 min 10 sec) 
 Total Blocks : 196608 Invalid Blocks : 0 Valid Blocks : 196608
 Total Tags : 491520 Threshold : 12288 Invalid Tags : 196614 Pr0 Tags : 98298 Pr1 Tags : 196608 num_pr0 : 12288
 SAE Count : 0
 Inter-Core Inteference in Data Store : 2414769
Heartbeat CPU 5 instructions: 50000001 cycles: 21252631 heartbeat IPC: 2.35275 cumulative IPC: 2.35265 (Simulation time: 3 hr 53 min 24 sec) 
 Total Blocks : 196608 Invalid Blocks : 0 Valid Blocks : 196608
 Total Tags : 491520 Threshold : 12288 Invalid Tags : 196617 Pr0 Tags : 98295 Pr1 Tags : 196608 num_pr0 : 12286
 SAE Count : 0
 Inter-Core Inteference in Data Store : 3059769
Heartbeat CPU 4 instructions: 50000001 cycles: 21252662 heartbeat IPC: 2.35272 cumulative IPC: 2.35265 (Simulation time: 3 hr 53 min 24 sec) 
 Total Blocks : 196608 Invalid Blocks : 0 Valid Blocks : 196608
 Total Tags : 491520 Threshold : 12288 Invalid Tags : 196617 Pr0 Tags : 98295 Pr1 Tags : 196608 num_pr0 : 12286
 SAE Count : 0
 Inter-Core Inteference in Data Store : 3059772
Heartbeat CPU 0 instructions: 50000001 cycles: 21253486 heartbeat IPC: 2.3526 cumulative IPC: 2.35256 (Simulation time: 3 hr 53 min 24 sec) 
 Total Blocks : 196608 Invalid Blocks : 0 Valid Blocks : 196608
 Total Tags : 491520 Threshold : 12288 Invalid Tags : 196617 Pr0 Tags : 98295 Pr1 Tags : 196608 num_pr0 : 12287
 SAE Count : 0
 Inter-Core Inteference in Data Store : 3059890
Heartbeat CPU 3 instructions: 50000001 cycles: 21254375 heartbeat IPC: 2.35256 cumulative IPC: 2.35246 (Simulation time: 3 hr 53 min 25 sec) 
 Total Blocks : 196608 Invalid Blocks : 0 Valid Blocks : 196608
 Total Tags : 491520 Threshold : 12288 Invalid Tags : 196615 Pr0 Tags : 98297 Pr1 Tags : 196608 num_pr0 : 12287
 SAE Count : 0
 Inter-Core Inteference in Data Store : 3059985
Heartbeat CPU 1 instructions: 50000001 cycles: 21254380 heartbeat IPC: 2.35253 cumulative IPC: 2.35246 (Simulation time: 3 hr 53 min 25 sec) 
 Total Blocks : 196608 Invalid Blocks : 0 Valid Blocks : 196608
 Total Tags : 491520 Threshold : 12288 Invalid Tags : 196615 Pr0 Tags : 98297 Pr1 Tags : 196608 num_pr0 : 12287
 SAE Count : 0
 Inter-Core Inteference in Data Store : 3059985
Heartbeat CPU 2 instructions: 50000001 cycles: 21254415 heartbeat IPC: 2.35252 cumulative IPC: 2.35245 (Simulation time: 3 hr 53 min 25 sec) 
 Total Blocks : 196608 Invalid Blocks : 0 Valid Blocks : 196608
 Total Tags : 491520 Threshold : 12288 Invalid Tags : 196618 Pr0 Tags : 98294 Pr1 Tags : 196608 num_pr0 : 12288
 SAE Count : 0
 Inter-Core Inteference in Data Store : 3059994
Heartbeat CPU 6 instructions: 50000001 cycles: 21254495 heartbeat IPC: 2.35248 cumulative IPC: 2.35244 (Simulation time: 3 hr 53 min 25 sec) 
 Total Blocks : 196608 Invalid Blocks : 0 Valid Blocks : 196608
 Total Tags : 491520 Threshold : 12288 Invalid Tags : 196619 Pr0 Tags : 98293 Pr1 Tags : 196608 num_pr0 : 12287
 SAE Count : 0
 Inter-Core Inteference in Data Store : 3060007
Heartbeat CPU 7 instructions: 50000001 cycles: 21254518 heartbeat IPC: 2.35247 cumulative IPC: 2.35244 (Simulation time: 3 hr 53 min 25 sec) 
 Total Blocks : 196608 Invalid Blocks : 0 Valid Blocks : 196608
 Total Tags : 491520 Threshold : 12288 Invalid Tags : 196620 Pr0 Tags : 98292 Pr1 Tags : 196608 num_pr0 : 12287
 SAE Count : 0
 Inter-Core Inteference in Data Store : 3060013
Heartbeat CPU 5 instructions: 60000000 cycles: 25503147 heartbeat IPC: 2.35266 cumulative IPC: 2.35265 (Simulation time: 4 hr 42 min 55 sec) 
 Total Blocks : 196608 Invalid Blocks : 0 Valid Blocks : 196608
 Total Tags : 491520 Threshold : 12288 Invalid Tags : 196618 Pr0 Tags : 98294 Pr1 Tags : 196608 num_pr0 : 12286
 SAE Count : 0
 Inter-Core Inteference in Data Store : 3706867
Heartbeat CPU 4 instructions: 60000000 cycles: 25503238 heartbeat IPC: 2.35262 cumulative IPC: 2.35264 (Simulation time: 4 hr 42 min 55 sec) 
 Total Blocks : 196608 Invalid Blocks : 0 Valid Blocks : 196608
 Total Tags : 491520 Threshold : 12288 Invalid Tags : 196617 Pr0 Tags : 98295 Pr1 Tags : 196608 num_pr0 : 12287
 SAE Count : 0
 Inter-Core Inteference in Data Store : 3706877
Heartbeat CPU 0 instructions: 60000000 cycles: 25504129 heartbeat IPC: 2.35259 cumulative IPC: 2.35256 (Simulation time: 4 hr 42 min 56 sec) 
 Total Blocks : 196608 Invalid Blocks : 0 Valid Blocks : 196608
 Total Tags : 491520 Threshold : 12288 Invalid Tags : 196612 Pr0 Tags : 98300 Pr1 Tags : 196608 num_pr0 : 12288
 SAE Count : 0
 Inter-Core Inteference in Data Store : 3706986
Heartbeat CPU 3 instructions: 60000000 cycles: 25505156 heartbeat IPC: 2.35251 cumulative IPC: 2.35247 (Simulation time: 4 hr 42 min 57 sec) 
 Total Blocks : 196608 Invalid Blocks : 0 Valid Blocks : 196608
 Total Tags : 491520 Threshold : 12288 Invalid Tags : 196620 Pr0 Tags : 98292 Pr1 Tags : 196608 num_pr0 : 12287
 SAE Count : 0
 Inter-Core Inteference in Data Store : 3707129
Heartbeat CPU 1 instructions: 60000000 cycles: 25505222 heartbeat IPC: 2.35247 cumulative IPC: 2.35246 (Simulation time: 4 hr 42 min 57 sec) 
 Total Blocks : 196608 Invalid Blocks : 0 Valid Blocks : 196608
 Total Tags : 491520 Threshold : 12288 Invalid Tags : 196620 Pr0 Tags : 98292 Pr1 Tags : 196608 num_pr0 : 12287
 SAE Count : 0
 Inter-Core Inteference in Data Store : 3707145
Heartbeat CPU 2 instructions: 60000000 cycles: 25505242 heartbeat IPC: 2.35248 cumulative IPC: 2.35246 (Simulation time: 4 hr 42 min 57 sec) 
 Total Blocks : 196608 Invalid Blocks : 0 Valid Blocks : 196608
 Total Tags : 491520 Threshold : 12288 Invalid Tags : 196620 Pr0 Tags : 98292 Pr1 Tags : 196608 num_pr0 : 12287
 SAE Count : 0
 Inter-Core Inteference in Data Store : 3707147
Heartbeat CPU 6 instructions: 60000000 cycles: 25505372 heartbeat IPC: 2.35246 cumulative IPC: 2.35245 (Simulation time: 4 hr 42 min 57 sec) 
 Total Blocks : 196608 Invalid Blocks : 0 Valid Blocks : 196608
 Total Tags : 491520 Threshold : 12288 Invalid Tags : 196621 Pr0 Tags : 98291 Pr1 Tags : 196608 num_pr0 : 12287
 SAE Count : 0
 Inter-Core Inteference in Data Store : 3707171
Heartbeat CPU 7 instructions: 60000000 cycles: 25505381 heartbeat IPC: 2.35246 cumulative IPC: 2.35244 (Simulation time: 4 hr 42 min 57 sec) 
 Total Blocks : 196608 Invalid Blocks : 0 Valid Blocks : 196608
 Total Tags : 491520 Threshold : 12288 Invalid Tags : 196621 Pr0 Tags : 98291 Pr1 Tags : 196608 num_pr0 : 12287
 SAE Count : 0
 Inter-Core Inteference in Data Store : 3707171
Heartbeat CPU 5 instructions: 70000001 cycles: 29753718 heartbeat IPC: 2.35263 cumulative IPC: 2.35265 (Simulation time: 5 hr 35 min 30 sec) 
 Total Blocks : 196608 Invalid Blocks : 0 Valid Blocks : 196608
 Total Tags : 491520 Threshold : 12288 Invalid Tags : 196621 Pr0 Tags : 98291 Pr1 Tags : 196608 num_pr0 : 12286
 SAE Count : 0
 Inter-Core Inteference in Data Store : 4354827
Heartbeat CPU 4 instructions: 70000001 cycles: 29753794 heartbeat IPC: 2.35263 cumulative IPC: 2.35264 (Simulation time: 5 hr 35 min 31 sec) 
 Total Blocks : 196608 Invalid Blocks : 0 Valid Blocks : 196608
 Total Tags : 491520 Threshold : 12288 Invalid Tags : 196621 Pr0 Tags : 98291 Pr1 Tags : 196608 num_pr0 : 12286
 SAE Count : 0
 Inter-Core Inteference in Data Store : 4354842
Heartbeat CPU 0 instructions: 70000001 cycles: 29754833 heartbeat IPC: 2.35255 cumulative IPC: 2.35256 (Simulation time: 5 hr 35 min 31 sec) 
 Total Blocks : 196608 Invalid Blocks : 0 Valid Blocks : 196608
 Total Tags : 491520 Threshold : 12288 Invalid Tags : 196621 Pr0 Tags : 98291 Pr1 Tags : 196608 num_pr0 : 12286
 SAE Count : 0
 Inter-Core Inteference in Data Store : 4355028
Heartbeat CPU 3 instructions: 70000001 cycles: 29756024 heartbeat IPC: 2.35246 cumulative IPC: 2.35246 (Simulation time: 5 hr 35 min 32 sec) 
 Total Blocks : 196608 Invalid Blocks : 0 Valid Blocks : 196608
 Total Tags : 491520 Threshold : 12288 Invalid Tags : 196622 Pr0 Tags : 98290 Pr1 Tags : 196608 num_pr0 : 12286
 SAE Count : 0
 Inter-Core Inteference in Data Store : 4355246
Heartbeat CPU 1 instructions: 70000001 cycles: 29756060 heartbeat IPC: 2.35248 cumulative IPC: 2.35246 (Simulation time: 5 hr 35 min 32 sec) 
 Total Blocks : 196608 Invalid Blocks : 0 Valid Blocks : 196608
 Total Tags : 491520 Threshold : 12288 Invalid Tags : 196618 Pr0 Tags : 98294 Pr1 Tags : 196608 num_pr0 : 12287
 SAE Count : 0
 Inter-Core Inteference in Data Store : 4355252
Heartbeat CPU 2 instructions: 70000001 cycles: 29756120 heartbeat IPC: 2.35246 cumulative IPC: 2.35246 (Simulation time: 5 hr 35 min 32 sec) 
 Total Blocks : 196608 Invalid Blocks : 0 Valid Blocks : 196608
 Total Tags : 491520 Threshold : 12288 Invalid Tags : 196620 Pr0 Tags : 98292 Pr1 Tags : 196608 num_pr0 : 12286
 SAE Count : 0
 Inter-Core Inteference in Data Store : 4355261
Heartbeat CPU 6 instructions: 70000001 cycles: 29756317 heartbeat IPC: 2.35242 cumulative IPC: 2.35244 (Simulation time: 5 hr 35 min 32 sec) 
 Total Blocks : 196608 Invalid Blocks : 0 Valid Blocks : 196608
 Total Tags : 491520 Threshold : 12288 Invalid Tags : 196619 Pr0 Tags : 98293 Pr1 Tags : 196608 num_pr0 : 12286
 SAE Count : 0
 Inter-Core Inteference in Data Store : 4355300
Heartbeat CPU 7 instructions: 70000001 cycles: 29756337 heartbeat IPC: 2.35241 cumulative IPC: 2.35244 (Simulation time: 5 hr 35 min 32 sec) 
 Total Blocks : 196608 Invalid Blocks : 0 Valid Blocks : 196608
 Total Tags : 491520 Threshold : 12288 Invalid Tags : 196619 Pr0 Tags : 98293 Pr1 Tags : 196608 num_pr0 : 12286
 SAE Count : 0
 Inter-Core Inteference in Data Store : 4355303
Heartbeat CPU 5 instructions: 80000001 cycles: 34004206 heartbeat IPC: 2.35267 cumulative IPC: 2.35265 (Simulation time: 6 hr 31 min 21 sec) 
 Total Blocks : 196608 Invalid Blocks : 0 Valid Blocks : 196608
 Total Tags : 491520 Threshold : 12288 Invalid Tags : 196614 Pr0 Tags : 98298 Pr1 Tags : 196608 num_pr0 : 12286
 SAE Count : 0
 Inter-Core Inteference in Data Store : 5004647
Heartbeat CPU 4 instructions: 80000001 cycles: 34004393 heartbeat IPC: 2.35261 cumulative IPC: 2.35264 (Simulation time: 6 hr 31 min 21 sec) 
 Total Blocks : 196608 Invalid Blocks : 0 Valid Blocks : 196608
 Total Tags : 491520 Threshold : 12288 Invalid Tags : 196611 Pr0 Tags : 98301 Pr1 Tags : 196608 num_pr0 : 12288
 SAE Count : 0
 Inter-Core Inteference in Data Store : 5004667
Heartbeat CPU 0 instructions: 80000001 cycles: 34005520 heartbeat IPC: 2.35256 cumulative IPC: 2.35256 (Simulation time: 6 hr 31 min 22 sec) 
 Total Blocks : 196608 Invalid Blocks : 0 Valid Blocks : 196608
 Total Tags : 491520 Threshold : 12288 Invalid Tags : 196612 Pr0 Tags : 98300 Pr1 Tags : 196608 num_pr0 : 12288
 SAE Count : 0
 Inter-Core Inteference in Data Store : 5004806
Heartbeat CPU 3 instructions: 80000001 cycles: 34006889 heartbeat IPC: 2.35246 cumulative IPC: 2.35246 (Simulation time: 6 hr 31 min 24 sec) 
 Total Blocks : 196608 Invalid Blocks : 0 Valid Blocks : 196608
 Total Tags : 491520 Threshold : 12288 Invalid Tags : 196616 Pr0 Tags : 98296 Pr1 Tags : 196608 num_pr0 : 12286
 SAE Count : 0
 Inter-Core Inteference in Data Store : 5004980
Heartbeat CPU 1 instructions: 80000001 cycles: 34006927 heartbeat IPC: 2.35246 cumulative IPC: 2.35246 (Simulation time: 6 hr 31 min 24 sec) 
 Total Blocks : 196608 Invalid Blocks : 0 Valid Blocks : 196608
 Total Tags : 491520 Threshold : 12288 Invalid Tags : 196615 Pr0 Tags : 98297 Pr1 Tags : 196608 num_pr0 : 12286
 SAE Count : 0
 Inter-Core Inteference in Data Store : 5004987
Heartbeat CPU 2 instructions: 80000001 cycles: 34007039 heartbeat IPC: 2.35243 cumulative IPC: 2.35245 (Simulation time: 6 hr 31 min 24 sec) 
 Total Blocks : 196608 Invalid Blocks : 0 Valid Blocks : 196608
 Total Tags : 491520 Threshold : 12288 Invalid Tags : 196613 Pr0 Tags : 98299 Pr1 Tags : 196608 num_pr0 : 12287
 SAE Count : 0
 Inter-Core Inteference in Data Store : 5005000
Heartbeat CPU 6 instructions: 80000001 cycles: 34007118 heartbeat IPC: 2.3525 cumulative IPC: 2.35245 (Simulation time: 6 hr 31 min 24 sec) 
 Total Blocks : 196608 Invalid Blocks : 0 Valid Blocks : 196608
 Total Tags : 491520 Threshold : 12288 Invalid Tags : 196615 Pr0 Tags : 98297 Pr1 Tags : 196608 num_pr0 : 12287
 SAE Count : 0
 Inter-Core Inteference in Data Store : 5005011
Heartbeat CPU 7 instructions: 80000001 cycles: 34007132 heartbeat IPC: 2.3525 cumulative IPC: 2.35245 (Simulation time: 6 hr 31 min 24 sec) 
 Total Blocks : 196608 Invalid Blocks : 0 Valid Blocks : 196608
 Total Tags : 491520 Threshold : 12288 Invalid Tags : 196614 Pr0 Tags : 98298 Pr1 Tags : 196608 num_pr0 : 12287
 SAE Count : 0
 Inter-Core Inteference in Data Store : 5005014
Heartbeat CPU 5 instructions: 90000003 cycles: 38254636 heartbeat IPC: 2.3527 cumulative IPC: 2.35266 (Simulation time: 7 hr 28 min 26 sec) 
 Total Blocks : 196608 Invalid Blocks : 0 Valid Blocks : 196608
 Total Tags : 491520 Threshold : 12288 Invalid Tags : 196620 Pr0 Tags : 98292 Pr1 Tags : 196608 num_pr0 : 12286
 SAE Count : 0
 Inter-Core Inteference in Data Store : 5651259
Heartbeat CPU 4 instructions: 90000003 cycles: 38254855 heartbeat IPC: 2.35269 cumulative IPC: 2.35264 (Simulation time: 7 hr 28 min 26 sec) 
 Total Blocks : 196608 Invalid Blocks : 0 Valid Blocks : 196608
 Total Tags : 491520 Threshold : 12288 Invalid Tags : 196621 Pr0 Tags : 98291 Pr1 Tags : 196608 num_pr0 : 12286
 SAE Count : 0
 Inter-Core Inteference in Data Store : 5651307
Heartbeat CPU 0 instructions: 90000003 cycles: 38256123 heartbeat IPC: 2.35261 cumulative IPC: 2.35256 (Simulation time: 7 hr 28 min 27 sec) 
 Total Blocks : 196608 Invalid Blocks : 0 Valid Blocks : 196608
 Total Tags : 491520 Threshold : 12288 Invalid Tags : 196618 Pr0 Tags : 98294 Pr1 Tags : 196608 num_pr0 : 12286
 SAE Count : 0
 Inter-Core Inteference in Data Store : 5651549
Heartbeat CPU 3 instructions: 90000003 cycles: 38257691 heartbeat IPC: 2.3525 cumulative IPC: 2.35247 (Simulation time: 7 hr 28 min 29 sec) 
 Total Blocks : 196608 Invalid Blocks : 0 Valid Blocks : 196608
 Total Tags : 491520 Threshold : 12288 Invalid Tags : 196619 Pr0 Tags : 98293 Pr1 Tags : 196608 num_pr0 : 12286
 SAE Count : 0
 Inter-Core Inteference in Data Store : 5651824
Heartbeat CPU 1 instructions: 90000003 cycles: 38257756 heartbeat IPC: 2.35248 cumulative IPC: 2.35246 (Simulation time: 7 hr 28 min 29 sec) 
 Total Blocks : 196608 Invalid Blocks : 0 Valid Blocks : 196608
 Total Tags : 491520 Threshold : 12288 Invalid Tags : 196618 Pr0 Tags : 98294 Pr1 Tags : 196608 num_pr0 : 12287
 SAE Count : 0
 Inter-Core Inteference in Data Store : 5651832
Heartbeat CPU 6 instructions: 90000003 cycles: 38257853 heartbeat IPC: 2.35253 cumulative IPC: 2.35246 (Simulation time: 7 hr 28 min 29 sec) 
 Total Blocks : 196608 Invalid Blocks : 0 Valid Blocks : 196608
 Total Tags : 491520 Threshold : 12288 Invalid Tags : 196611 Pr0 Tags : 98301 Pr1 Tags : 196608 num_pr0 : 12288
 SAE Count : 0
 Inter-Core Inteference in Data Store : 5651851
Heartbeat CPU 2 instructions: 90000003 cycles: 38257857 heartbeat IPC: 2.35249 cumulative IPC: 2.35246 (Simulation time: 7 hr 28 min 29 sec) 
 Total Blocks : 196608 Invalid Blocks : 0 Valid Blocks : 196608
 Total Tags : 491520 Threshold : 12288 Invalid Tags : 196613 Pr0 Tags : 98299 Pr1 Tags : 196608 num_pr0 : 12288
 SAE Count : 0
 Inter-Core Inteference in Data Store : 5651855
Heartbeat CPU 7 instructions: 90000003 cycles: 38258077 heartbeat IPC: 2.35242 cumulative IPC: 2.35244 (Simulation time: 7 hr 28 min 29 sec) 
 Total Blocks : 196608 Invalid Blocks : 0 Valid Blocks : 196608
 Total Tags : 491520 Threshold : 12288 Invalid Tags : 196614 Pr0 Tags : 98298 Pr1 Tags : 196608 num_pr0 : 12287
 SAE Count : 0
 Inter-Core Inteference in Data Store : 5651889
Heartbeat CPU 5 instructions: 100000002 cycles: 42505260 heartbeat IPC: 2.3526 cumulative IPC: 2.35265 (Simulation time: 8 hr 27 min 42 sec) 
 Total Blocks : 196608 Invalid Blocks : 0 Valid Blocks : 196608
 Total Tags : 491520 Threshold : 12288 Invalid Tags : 196620 Pr0 Tags : 98292 Pr1 Tags : 196608 num_pr0 : 12287
 SAE Count : 0
 Inter-Core Inteference in Data Store : 6297023
Heartbeat CPU 4 instructions: 100000002 cycles: 42505526 heartbeat IPC: 2.35257 cumulative IPC: 2.35264 (Simulation time: 8 hr 27 min 42 sec) 
 Total Blocks : 196608 Invalid Blocks : 0 Valid Blocks : 196608
 Total Tags : 491520 Threshold : 12288 Invalid Tags : 196616 Pr0 Tags : 98296 Pr1 Tags : 196608 num_pr0 : 12287
 SAE Count : 0
 Inter-Core Inteference in Data Store : 6297046
Heartbeat CPU 0 instructions: 100000002 cycles: 42506878 heartbeat IPC: 2.35252 cumulative IPC: 2.35256 (Simulation time: 8 hr 27 min 44 sec) 
 Total Blocks : 196608 Invalid Blocks : 0 Valid Blocks : 196608
 Total Tags : 491520 Threshold : 12288 Invalid Tags : 196617 Pr0 Tags : 98295 Pr1 Tags : 196608 num_pr0 : 12286
 SAE Count : 0
 Inter-Core Inteference in Data Store : 6297269
Heartbeat CPU 3 instructions: 100000002 cycles: 42508667 heartbeat IPC: 2.3524 cumulative IPC: 2.35246 (Simulation time: 8 hr 27 min 45 sec) 
 Total Blocks : 196608 Invalid Blocks : 0 Valid Blocks : 196608
 Total Tags : 491520 Threshold : 12288 Invalid Tags : 196616 Pr0 Tags : 98296 Pr1 Tags : 196608 num_pr0 : 12287
 SAE Count : 0
 Inter-Core Inteference in Data Store : 6297529
Heartbeat CPU 6 instructions: 100000002 cycles: 42508682 heartbeat IPC: 2.35248 cumulative IPC: 2.35246 (Simulation time: 8 hr 27 min 45 sec) 
 Total Blocks : 196608 Invalid Blocks : 0 Valid Blocks : 196608
 Total Tags : 491520 Threshold : 12288 Invalid Tags : 196616 Pr0 Tags : 98296 Pr1 Tags : 196608 num_pr0 : 12287
 SAE Count : 0
 Inter-Core Inteference in Data Store : 6297529
Heartbeat CPU 1 instructions: 100000002 cycles: 42508713 heartbeat IPC: 2.35241 cumulative IPC: 2.35246 (Simulation time: 8 hr 27 min 45 sec) 
 Total Blocks : 196608 Invalid Blocks : 0 Valid Blocks : 196608
 Total Tags : 491520 Threshold : 12288 Invalid Tags : 196616 Pr0 Tags : 98296 Pr1 Tags : 196608 num_pr0 : 12287
 SAE Count : 0
 Inter-Core Inteference in Data Store : 6297536
Heartbeat CPU 2 instructions: 100000002 cycles: 42508766 heartbeat IPC: 2.35244 cumulative IPC: 2.35246 (Simulation time: 8 hr 27 min 46 sec) 
 Total Blocks : 196608 Invalid Blocks : 0 Valid Blocks : 196608
 Total Tags : 491520 Threshold : 12288 Invalid Tags : 196616 Pr0 Tags : 98296 Pr1 Tags : 196608 num_pr0 : 12287
 SAE Count : 0
 Inter-Core Inteference in Data Store : 6297549
Heartbeat CPU 7 instructions: 100000002 cycles: 42509316 heartbeat IPC: 2.35226 cumulative IPC: 2.35243 (Simulation time: 8 hr 27 min 46 sec) 
 Total Blocks : 196608 Invalid Blocks : 0 Valid Blocks : 196608
 Total Tags : 491520 Threshold : 12288 Invalid Tags : 196617 Pr0 Tags : 98295 Pr1 Tags : 196608 num_pr0 : 12287
 SAE Count : 0
 Inter-Core Inteference in Data Store : 6297635
Heartbeat CPU 5 instructions: 110000000 cycles: 46755617 heartbeat IPC: 2.35274 cumulative IPC: 2.35266 (Simulation time: 9 hr 28 min 3 sec) 
 Total Blocks : 196608 Invalid Blocks : 0 Valid Blocks : 196608
 Total Tags : 491520 Threshold : 12288 Invalid Tags : 196619 Pr0 Tags : 98293 Pr1 Tags : 196608 num_pr0 : 12287
 SAE Count : 0
 Inter-Core Inteference in Data Store : 6945628
Heartbeat CPU 4 instructions: 110000000 cycles: 46755913 heartbeat IPC: 2.35273 cumulative IPC: 2.35264 (Simulation time: 9 hr 28 min 4 sec) 
 Total Blocks : 196608 Invalid Blocks : 0 Valid Blocks : 196608
 Total Tags : 491520 Threshold : 12288 Invalid Tags : 196617 Pr0 Tags : 98295 Pr1 Tags : 196608 num_pr0 : 12286
 SAE Count : 0
 Inter-Core Inteference in Data Store : 6945672
Heartbeat CPU 0 instructions: 110000000 cycles: 46757430 heartbeat IPC: 2.35264 cumulative IPC: 2.35257 (Simulation time: 9 hr 28 min 5 sec) 
 Total Blocks : 196608 Invalid Blocks : 0 Valid Blocks : 196608
 Total Tags : 491520 Threshold : 12288 Invalid Tags : 196621 Pr0 Tags : 98291 Pr1 Tags : 196608 num_pr0 : 12286
 SAE Count : 0
 Inter-Core Inteference in Data Store : 6945920
Heartbeat CPU 3 instructions: 110000000 cycles: 46759412 heartbeat IPC: 2.35253 cumulative IPC: 2.35247 (Simulation time: 9 hr 28 min 7 sec) 
 Total Blocks : 196608 Invalid Blocks : 0 Valid Blocks : 196608
 Total Tags : 491520 Threshold : 12288 Invalid Tags : 196617 Pr0 Tags : 98295 Pr1 Tags : 196608 num_pr0 : 12287
 SAE Count : 0
 Inter-Core Inteference in Data Store : 6946230
Heartbeat CPU 6 instructions: 110000000 cycles: 46759422 heartbeat IPC: 2.35253 cumulative IPC: 2.35247 (Simulation time: 9 hr 28 min 7 sec) 
 Total Blocks : 196608 Invalid Blocks : 0 Valid Blocks : 196608
 Total Tags : 491520 Threshold : 12288 Invalid Tags : 196617 Pr0 Tags : 98295 Pr1 Tags : 196608 num_pr0 : 12287
 SAE Count : 0
 Inter-Core Inteference in Data Store : 6946232
Heartbeat CPU 1 instructions: 110000000 cycles: 46759425 heartbeat IPC: 2.35255 cumulative IPC: 2.35247 (Simulation time: 9 hr 28 min 7 sec) 
 Total Blocks : 196608 Invalid Blocks : 0 Valid Blocks : 196608
 Total Tags : 491520 Threshold : 12288 Invalid Tags : 196617 Pr0 Tags : 98295 Pr1 Tags : 196608 num_pr0 : 12287
 SAE Count : 0
 Inter-Core Inteference in Data Store : 6946232
Heartbeat CPU 2 instructions: 110000000 cycles: 46759498 heartbeat IPC: 2.35254 cumulative IPC: 2.35246 (Simulation time: 9 hr 28 min 7 sec) 
 Total Blocks : 196608 Invalid Blocks : 0 Valid Blocks : 196608
 Total Tags : 491520 Threshold : 12288 Invalid Tags : 196616 Pr0 Tags : 98296 Pr1 Tags : 196608 num_pr0 : 12287
 SAE Count : 0
 Inter-Core Inteference in Data Store : 6946248
Heartbeat CPU 7 instructions: 110000000 cycles: 46760474 heartbeat IPC: 2.3523 cumulative IPC: 2.35241 (Simulation time: 9 hr 28 min 8 sec) 
 Total Blocks : 196608 Invalid Blocks : 0 Valid Blocks : 196608
 Total Tags : 491520 Threshold : 12288 Invalid Tags : 196620 Pr0 Tags : 98292 Pr1 Tags : 196608 num_pr0 : 12286
 SAE Count : 0
 Inter-Core Inteference in Data Store : 6946416
Heartbeat CPU 5 instructions: 120000001 cycles: 51006208 heartbeat IPC: 2.35261 cumulative IPC: 2.35265 (Simulation time: 10 hr 29 min 40 sec) 
 Total Blocks : 196608 Invalid Blocks : 0 Valid Blocks : 196608
 Total Tags : 491520 Threshold : 12288 Invalid Tags : 196621 Pr0 Tags : 98291 Pr1 Tags : 196608 num_pr0 : 12287
 SAE Count : 0
 Inter-Core Inteference in Data Store : 7593687
Heartbeat CPU 4 instructions: 120000001 cycles: 51006502 heartbeat IPC: 2.35262 cumulative IPC: 2.35264 (Simulation time: 10 hr 29 min 41 sec) 
 Total Blocks : 196608 Invalid Blocks : 0 Valid Blocks : 196608
 Total Tags : 491520 Threshold : 12288 Invalid Tags : 196622 Pr0 Tags : 98290 Pr1 Tags : 196608 num_pr0 : 12287
 SAE Count : 0
 Inter-Core Inteference in Data Store : 7593740
Heartbeat CPU 0 instructions: 120000001 cycles: 51007993 heartbeat IPC: 2.35263 cumulative IPC: 2.35257 (Simulation time: 10 hr 29 min 43 sec) 
 Total Blocks : 196608 Invalid Blocks : 0 Valid Blocks : 196608
 Total Tags : 491520 Threshold : 12288 Invalid Tags : 196617 Pr0 Tags : 98295 Pr1 Tags : 196608 num_pr0 : 12286
 SAE Count : 0
 Inter-Core Inteference in Data Store : 7593966
Heartbeat CPU 1 instructions: 120000001 cycles: 51010303 heartbeat IPC: 2.35246 cumulative IPC: 2.35247 (Simulation time: 10 hr 29 min 45 sec) 
 Total Blocks : 196608 Invalid Blocks : 0 Valid Blocks : 196608
 Total Tags : 491520 Threshold : 12288 Invalid Tags : 196617 Pr0 Tags : 98295 Pr1 Tags : 196608 num_pr0 : 12286
 SAE Count : 0
 Inter-Core Inteference in Data Store : 7594301
Heartbeat CPU 6 instructions: 120000001 cycles: 51010320 heartbeat IPC: 2.35244 cumulative IPC: 2.35247 (Simulation time: 10 hr 29 min 45 sec) 
 Total Blocks : 196608 Invalid Blocks : 0 Valid Blocks : 196608
 Total Tags : 491520 Threshold : 12288 Invalid Tags : 196617 Pr0 Tags : 98295 Pr1 Tags : 196608 num_pr0 : 12286
 SAE Count : 0
 Inter-Core Inteference in Data Store : 7594305
Heartbeat CPU 3 instructions: 120000001 cycles: 51010337 heartbeat IPC: 2.35243 cumulative IPC: 2.35246 (Simulation time: 10 hr 29 min 45 sec) 
 Total Blocks : 196608 Invalid Blocks : 0 Valid Blocks : 196608
 Total Tags : 491520 Threshold : 12288 Invalid Tags : 196617 Pr0 Tags : 98295 Pr1 Tags : 196608 num_pr0 : 12287
 SAE Count : 0
 Inter-Core Inteference in Data Store : 7594308
Heartbeat CPU 2 instructions: 120000001 cycles: 51010359 heartbeat IPC: 2.35246 cumulative IPC: 2.35246 (Simulation time: 10 hr 29 min 45 sec) 
 Total Blocks : 196608 Invalid Blocks : 0 Valid Blocks : 196608
 Total Tags : 491520 Threshold : 12288 Invalid Tags : 196615 Pr0 Tags : 98297 Pr1 Tags : 196608 num_pr0 : 12288
 SAE Count : 0
 Inter-Core Inteference in Data Store : 7594310
Heartbeat CPU 7 instructions: 120000001 cycles: 51011706 heartbeat IPC: 2.35226 cumulative IPC: 2.3524 (Simulation time: 10 hr 29 min 46 sec) 
 Total Blocks : 196608 Invalid Blocks : 0 Valid Blocks : 196608
 Total Tags : 491520 Threshold : 12288 Invalid Tags : 196618 Pr0 Tags : 98294 Pr1 Tags : 196608 num_pr0 : 12287
 SAE Count : 0
 Inter-Core Inteference in Data Store : 7594518
Heartbeat CPU 5 instructions: 130000002 cycles: 55256847 heartbeat IPC: 2.35259 cumulative IPC: 2.35265 (Simulation time: 11 hr 38 min 34 sec) 
 Total Blocks : 196608 Invalid Blocks : 0 Valid Blocks : 196608
 Total Tags : 491520 Threshold : 12288 Invalid Tags : 196613 Pr0 Tags : 98299 Pr1 Tags : 196608 num_pr0 : 12288
 SAE Count : 0
 Inter-Core Inteference in Data Store : 8242559
Heartbeat CPU 4 instructions: 130000002 cycles: 55257119 heartbeat IPC: 2.3526 cumulative IPC: 2.35264 (Simulation time: 11 hr 38 min 34 sec) 
 Total Blocks : 196608 Invalid Blocks : 0 Valid Blocks : 196608
 Total Tags : 491520 Threshold : 12288 Invalid Tags : 196612 Pr0 Tags : 98300 Pr1 Tags : 196608 num_pr0 : 12286
 SAE Count : 0
 Inter-Core Inteference in Data Store : 8242588
Heartbeat CPU 0 instructions: 130000002 cycles: 55258629 heartbeat IPC: 2.35259 cumulative IPC: 2.35257 (Simulation time: 11 hr 38 min 36 sec) 
 Total Blocks : 196608 Invalid Blocks : 0 Valid Blocks : 196608
 Total Tags : 491520 Threshold : 12288 Invalid Tags : 196619 Pr0 Tags : 98293 Pr1 Tags : 196608 num_pr0 : 12287
 SAE Count : 0
 Inter-Core Inteference in Data Store : 8242783
Heartbeat CPU 1 instructions: 130000002 cycles: 55261260 heartbeat IPC: 2.35241 cumulative IPC: 2.35246 (Simulation time: 11 hr 38 min 37 sec) 
 Total Blocks : 196608 Invalid Blocks : 0 Valid Blocks : 196608
 Total Tags : 491520 Threshold : 12288 Invalid Tags : 196619 Pr0 Tags : 98293 Pr1 Tags : 196608 num_pr0 : 12286
 SAE Count : 0
 Inter-Core Inteference in Data Store : 8243207
Heartbeat CPU 2 instructions: 130000002 cycles: 55261309 heartbeat IPC: 2.35242 cumulative IPC: 2.35246 (Simulation time: 11 hr 38 min 37 sec) 
 Total Blocks : 196608 Invalid Blocks : 0 Valid Blocks : 196608
 Total Tags : 491520 Threshold : 12288 Invalid Tags : 196620 Pr0 Tags : 98292 Pr1 Tags : 196608 num_pr0 : 12286
 SAE Count : 0
 Inter-Core Inteference in Data Store : 8243210
Heartbeat CPU 3 instructions: 130000002 cycles: 55261327 heartbeat IPC: 2.35239 cumulative IPC: 2.35246 (Simulation time: 11 hr 38 min 37 sec) 
 Total Blocks : 196608 Invalid Blocks : 0 Valid Blocks : 196608
 Total Tags : 491520 Threshold : 12288 Invalid Tags : 196619 Pr0 Tags : 98293 Pr1 Tags : 196608 num_pr0 : 12287
 SAE Count : 0
 Inter-Core Inteference in Data Store : 8243212
Heartbeat CPU 6 instructions: 130000002 cycles: 55261376 heartbeat IPC: 2.35236 cumulative IPC: 2.35246 (Simulation time: 11 hr 38 min 38 sec) 
 Total Blocks : 196608 Invalid Blocks : 0 Valid Blocks : 196608
 Total Tags : 491520 Threshold : 12288 Invalid Tags : 196621 Pr0 Tags : 98291 Pr1 Tags : 196608 num_pr0 : 12286
 SAE Count : 0
 Inter-Core Inteference in Data Store : 8243224
Heartbeat CPU 7 instructions: 130000002 cycles: 55263008 heartbeat IPC: 2.35222 cumulative IPC: 2.35239 (Simulation time: 11 hr 38 min 39 sec) 
 Total Blocks : 196608 Invalid Blocks : 0 Valid Blocks : 196608
 Total Tags : 491520 Threshold : 12288 Invalid Tags : 196617 Pr0 Tags : 98295 Pr1 Tags : 196608 num_pr0 : 12287
 SAE Count : 0
 Inter-Core Inteference in Data Store : 8243489
Heartbeat CPU 5 instructions: 140000003 cycles: 59507380 heartbeat IPC: 2.35265 cumulative IPC: 2.35265 (Simulation time: 12 hr 48 min 10 sec) 
 Total Blocks : 196608 Invalid Blocks : 0 Valid Blocks : 196608
 Total Tags : 491520 Threshold : 12288 Invalid Tags : 196618 Pr0 Tags : 98294 Pr1 Tags : 196608 num_pr0 : 12287
 SAE Count : 0
 Inter-Core Inteference in Data Store : 8889032
Heartbeat CPU 4 instructions: 140000003 cycles: 59507614 heartbeat IPC: 2.35267 cumulative IPC: 2.35264 (Simulation time: 12 hr 48 min 10 sec) 
 Total Blocks : 196608 Invalid Blocks : 0 Valid Blocks : 196608
 Total Tags : 491520 Threshold : 12288 Invalid Tags : 196615 Pr0 Tags : 98297 Pr1 Tags : 196608 num_pr0 : 12287
 SAE Count : 0
 Inter-Core Inteference in Data Store : 8889060
Heartbeat CPU 0 instructions: 140000003 cycles: 59509238 heartbeat IPC: 2.3526 cumulative IPC: 2.35258 (Simulation time: 12 hr 48 min 12 sec) 
 Total Blocks : 196608 Invalid Blocks : 0 Valid Blocks : 196608
 Total Tags : 491520 Threshold : 12288 Invalid Tags : 196616 Pr0 Tags : 98296 Pr1 Tags : 196608 num_pr0 : 12287
 SAE Count : 0
 Inter-Core Inteference in Data Store : 8889280
Heartbeat CPU 1 instructions: 140000003 cycles: 59512168 heartbeat IPC: 2.35244 cumulative IPC: 2.35246 (Simulation time: 12 hr 48 min 14 sec) 
 Total Blocks : 196608 Invalid Blocks : 0 Valid Blocks : 196608
 Total Tags : 491520 Threshold : 12288 Invalid Tags : 196619 Pr0 Tags : 98293 Pr1 Tags : 196608 num_pr0 : 12286
 SAE Count : 0
 Inter-Core Inteference in Data Store : 8889694
Heartbeat CPU 2 instructions: 140000003 cycles: 59512183 heartbeat IPC: 2.35246 cumulative IPC: 2.35246 (Simulation time: 12 hr 48 min 14 sec) 
 Total Blocks : 196608 Invalid Blocks : 0 Valid Blocks : 196608
 Total Tags : 491520 Threshold : 12288 Invalid Tags : 196620 Pr0 Tags : 98292 Pr1 Tags : 196608 num_pr0 : 12286
 SAE Count : 0
 Inter-Core Inteference in Data Store : 8889697
Heartbeat CPU 3 instructions: 140000003 cycles: 59512258 heartbeat IPC: 2.35243 cumulative IPC: 2.35246 (Simulation time: 12 hr 48 min 14 sec) 
 Total Blocks : 196608 Invalid Blocks : 0 Valid Blocks : 196608
 Total Tags : 491520 Threshold : 12288 Invalid Tags : 196620 Pr0 Tags : 98292 Pr1 Tags : 196608 num_pr0 : 12286
 SAE Count : 0
 Inter-Core Inteference in Data Store : 8889707
Heartbeat CPU 6 instructions: 140000003 cycles: 59512521 heartbeat IPC: 2.35231 cumulative IPC: 2.35245 (Simulation time: 12 hr 48 min 14 sec) 
 Total Blocks : 196608 Invalid Blocks : 0 Valid Blocks : 196608
 Total Tags : 491520 Threshold : 12288 Invalid Tags : 196619 Pr0 Tags : 98293 Pr1 Tags : 196608 num_pr0 : 12286
 SAE Count : 0
 Inter-Core Inteference in Data Store : 8889733
Heartbeat CPU 7 instructions: 140000003 cycles: 59514144 heartbeat IPC: 2.35231 cumulative IPC: 2.35238 (Simulation time: 12 hr 48 min 16 sec) 
 Total Blocks : 196608 Invalid Blocks : 0 Valid Blocks : 196608
 Total Tags : 491520 Threshold : 12288 Invalid Tags : 196621 Pr0 Tags : 98291 Pr1 Tags : 196608 num_pr0 : 12286
 SAE Count : 0
 Inter-Core Inteference in Data Store : 8889995
Heartbeat CPU 5 instructions: 150000002 cycles: 63757782 heartbeat IPC: 2.35272 cumulative IPC: 2.35265 (Simulation time: 13 hr 58 min 30 sec) 
 Total Blocks : 196608 Invalid Blocks : 0 Valid Blocks : 196608
 Total Tags : 491520 Threshold : 12288 Invalid Tags : 196617 Pr0 Tags : 98295 Pr1 Tags : 196608 num_pr0 : 12287
 SAE Count : 0
 Inter-Core Inteference in Data Store : 9533417
Heartbeat CPU 4 instructions: 150000002 cycles: 63757935 heartbeat IPC: 2.35276 cumulative IPC: 2.35265 (Simulation time: 13 hr 58 min 30 sec) 
 Total Blocks : 196608 Invalid Blocks : 0 Valid Blocks : 196608
 Total Tags : 491520 Threshold : 12288 Invalid Tags : 196613 Pr0 Tags : 98299 Pr1 Tags : 196608 num_pr0 : 12287
 SAE Count : 0
 Inter-Core Inteference in Data Store : 9533440
Heartbeat CPU 0 instructions: 150000002 cycles: 63759804 heartbeat IPC: 2.35263 cumulative IPC: 2.35258 (Simulation time: 13 hr 58 min 32 sec) 
 Total Blocks : 196608 Invalid Blocks : 0 Valid Blocks : 196608
 Total Tags : 491520 Threshold : 12288 Invalid Tags : 196613 Pr0 Tags : 98299 Pr1 Tags : 196608 num_pr0 : 12287
 SAE Count : 0
 Inter-Core Inteference in Data Store : 9533718
Heartbeat CPU 1 instructions: 150000002 cycles: 63762837 heartbeat IPC: 2.35257 cumulative IPC: 2.35247 (Simulation time: 13 hr 58 min 35 sec) 
 Total Blocks : 196608 Invalid Blocks : 0 Valid Blocks : 196608
 Total Tags : 491520 Threshold : 12288 Invalid Tags : 196619 Pr0 Tags : 98293 Pr1 Tags : 196608 num_pr0 : 12287
 SAE Count : 0
 Inter-Core Inteference in Data Store : 9534193
Heartbeat CPU 2 instructions: 150000002 cycles: 63762887 heartbeat IPC: 2.35255 cumulative IPC: 2.35247 (Simulation time: 13 hr 58 min 35 sec) 
 Total Blocks : 196608 Invalid Blocks : 0 Valid Blocks : 196608
 Total Tags : 491520 Threshold : 12288 Invalid Tags : 196619 Pr0 Tags : 98293 Pr1 Tags : 196608 num_pr0 : 12287
 SAE Count : 0
 Inter-Core Inteference in Data Store : 9534200
Heartbeat CPU 3 instructions: 150000002 cycles: 63762924 heartbeat IPC: 2.35257 cumulative IPC: 2.35246 (Simulation time: 13 hr 58 min 35 sec) 
 Total Blocks : 196608 Invalid Blocks : 0 Valid Blocks : 196608
 Total Tags : 491520 Threshold : 12288 Invalid Tags : 196619 Pr0 Tags : 98293 Pr1 Tags : 196608 num_pr0 : 12287
 SAE Count : 0
 Inter-Core Inteference in Data Store : 9534209
Heartbeat CPU 6 instructions: 150000002 cycles: 63763572 heartbeat IPC: 2.35236 cumulative IPC: 2.35244 (Simulation time: 13 hr 58 min 36 sec) 
 Total Blocks : 196608 Invalid Blocks : 0 Valid Blocks : 196608
 Total Tags : 491520 Threshold : 12288 Invalid Tags : 196617 Pr0 Tags : 98295 Pr1 Tags : 196608 num_pr0 : 12287
 SAE Count : 0
 Inter-Core Inteference in Data Store : 9534292
Heartbeat CPU 7 instructions: 150000002 cycles: 63765267 heartbeat IPC: 2.35232 cumulative IPC: 2.35238 (Simulation time: 13 hr 58 min 37 sec) 
 Total Blocks : 196608 Invalid Blocks : 0 Valid Blocks : 196608
 Total Tags : 491520 Threshold : 12288 Invalid Tags : 196615 Pr0 Tags : 98297 Pr1 Tags : 196608 num_pr0 : 12287
 SAE Count : 0
 Inter-Core Inteference in Data Store : 9534558
Heartbeat CPU 5 instructions: 160000003 cycles: 68008392 heartbeat IPC: 2.3526 cumulative IPC: 2.35265 (Simulation time: 15 hr 8 min 1 sec) 
 Total Blocks : 196608 Invalid Blocks : 0 Valid Blocks : 196608
 Total Tags : 491520 Threshold : 12288 Invalid Tags : 196617 Pr0 Tags : 98295 Pr1 Tags : 196608 num_pr0 : 12287
 SAE Count : 0
 Inter-Core Inteference in Data Store : 10178808
Heartbeat CPU 4 instructions: 160000003 cycles: 68008505 heartbeat IPC: 2.35263 cumulative IPC: 2.35265 (Simulation time: 15 hr 8 min 1 sec) 
 Total Blocks : 196608 Invalid Blocks : 0 Valid Blocks : 196608
 Total Tags : 491520 Threshold : 12288 Invalid Tags : 196622 Pr0 Tags : 98290 Pr1 Tags : 196608 num_pr0 : 12287
 SAE Count : 0
 Inter-Core Inteference in Data Store : 10178841
Heartbeat CPU 0 instructions: 160000003 cycles: 68010497 heartbeat IPC: 2.35256 cumulative IPC: 2.35258 (Simulation time: 15 hr 8 min 3 sec) 
 Total Blocks : 196608 Invalid Blocks : 0 Valid Blocks : 196608
 Total Tags : 491520 Threshold : 12288 Invalid Tags : 196621 Pr0 Tags : 98291 Pr1 Tags : 196608 num_pr0 : 12287
 SAE Count : 0
 Inter-Core Inteference in Data Store : 10179194
Heartbeat CPU 1 instructions: 160000003 cycles: 68013785 heartbeat IPC: 2.35242 cumulative IPC: 2.35246 (Simulation time: 15 hr 8 min 7 sec) 
 Total Blocks : 196608 Invalid Blocks : 0 Valid Blocks : 196608
 Total Tags : 491520 Threshold : 12288 Invalid Tags : 196618 Pr0 Tags : 98294 Pr1 Tags : 196608 num_pr0 : 12287
 SAE Count : 0
 Inter-Core Inteference in Data Store : 10179772
Heartbeat CPU 2 instructions: 160000000 cycles: 68013827 heartbeat IPC: 2.35242 cumulative IPC: 2.35246 (Simulation time: 15 hr 8 min 7 sec) 
 Total Blocks : 196608 Invalid Blocks : 0 Valid Blocks : 196608
 Total Tags : 491520 Threshold : 12288 Invalid Tags : 196615 Pr0 Tags : 98297 Pr1 Tags : 196608 num_pr0 : 12287
 SAE Count : 0
 Inter-Core Inteference in Data Store : 10179775
Heartbeat CPU 3 instructions: 160000003 cycles: 68013848 heartbeat IPC: 2.35243 cumulative IPC: 2.35246 (Simulation time: 15 hr 8 min 7 sec) 
 Total Blocks : 196608 Invalid Blocks : 0 Valid Blocks : 196608
 Total Tags : 491520 Threshold : 12288 Invalid Tags : 196615 Pr0 Tags : 98297 Pr1 Tags : 196608 num_pr0 : 12287
 SAE Count : 0
 Inter-Core Inteference in Data Store : 10179780
Heartbeat CPU 6 instructions: 160000003 cycles: 68014821 heartbeat IPC: 2.35225 cumulative IPC: 2.35243 (Simulation time: 15 hr 8 min 8 sec) 
 Total Blocks : 196608 Invalid Blocks : 0 Valid Blocks : 196608
 Total Tags : 491520 Threshold : 12288 Invalid Tags : 196617 Pr0 Tags : 98295 Pr1 Tags : 196608 num_pr0 : 12288
 SAE Count : 0
 Inter-Core Inteference in Data Store : 10179939
Heartbeat CPU 7 instructions: 160000003 cycles: 68016561 heartbeat IPC: 2.35223 cumulative IPC: 2.35237 (Simulation time: 15 hr 8 min 10 sec) 
 Total Blocks : 196608 Invalid Blocks : 0 Valid Blocks : 196608
 Total Tags : 491520 Threshold : 12288 Invalid Tags : 196621 Pr0 Tags : 98291 Pr1 Tags : 196608 num_pr0 : 12287
 SAE Count : 0
 Inter-Core Inteference in Data Store : 10180247
Heartbeat CPU 5 instructions: 170000001 cycles: 72258893 heartbeat IPC: 2.35266 cumulative IPC: 2.35265 (Simulation time: 16 hr 16 min 33 sec) 
 Total Blocks : 196608 Invalid Blocks : 0 Valid Blocks : 196608
 Total Tags : 491520 Threshold : 12288 Invalid Tags : 196614 Pr0 Tags : 98298 Pr1 Tags : 196608 num_pr0 : 12287
 SAE Count : 0
 Inter-Core Inteference in Data Store : 10824735
Heartbeat CPU 4 instructions: 170000001 cycles: 72258973 heartbeat IPC: 2.35268 cumulative IPC: 2.35265 (Simulation time: 16 hr 16 min 33 sec) 
 Total Blocks : 196608 Invalid Blocks : 0 Valid Blocks : 196608
 Total Tags : 491520 Threshold : 12288 Invalid Tags : 196616 Pr0 Tags : 98296 Pr1 Tags : 196608 num_pr0 : 12287
 SAE Count : 0
 Inter-Core Inteference in Data Store : 10824746
Heartbeat CPU 0 instructions: 170000001 cycles: 72261182 heartbeat IPC: 2.35256 cumulative IPC: 2.35258 (Simulation time: 16 hr 16 min 35 sec) 
 Total Blocks : 196608 Invalid Blocks : 0 Valid Blocks : 196608
 Total Tags : 491520 Threshold : 12288 Invalid Tags : 196616 Pr0 Tags : 98296 Pr1 Tags : 196608 num_pr0 : 12287
 SAE Count : 0
 Inter-Core Inteference in Data Store : 10825077
Heartbeat CPU 1 instructions: 170000001 cycles: 72264663 heartbeat IPC: 2.35245 cumulative IPC: 2.35246 (Simulation time: 16 hr 16 min 38 sec) 
 Total Blocks : 196608 Invalid Blocks : 0 Valid Blocks : 196608
 Total Tags : 491520 Threshold : 12288 Invalid Tags : 196616 Pr0 Tags : 98296 Pr1 Tags : 196608 num_pr0 : 12287
 SAE Count : 0
 Inter-Core Inteference in Data Store : 10825631
Heartbeat CPU 3 instructions: 170000001 cycles: 72264691 heartbeat IPC: 2.35247 cumulative IPC: 2.35246 (Simulation time: 16 hr 16 min 38 sec) 
 Total Blocks : 196608 Invalid Blocks : 0 Valid Blocks : 196608
 Total Tags : 491520 Threshold : 12288 Invalid Tags : 196616 Pr0 Tags : 98296 Pr1 Tags : 196608 num_pr0 : 12287
 SAE Count : 0
 Inter-Core Inteference in Data Store : 10825633
Heartbeat CPU 2 instructions: 170000001 cycles: 72264720 heartbeat IPC: 2.35245 cumulative IPC: 2.35246 (Simulation time: 16 hr 16 min 38 sec) 
 Total Blocks : 196608 Invalid Blocks : 0 Valid Blocks : 196608
 Total Tags : 491520 Threshold : 12288 Invalid Tags : 196615 Pr0 Tags : 98297 Pr1 Tags : 196608 num_pr0 : 12287
 SAE Count : 0
 Inter-Core Inteference in Data Store : 10825638
Heartbeat CPU 6 instructions: 170000001 cycles: 72266022 heartbeat IPC: 2.35228 cumulative IPC: 2.35242 (Simulation time: 16 hr 16 min 39 sec) 
 Total Blocks : 196608 Invalid Blocks : 0 Valid Blocks : 196608
 Total Tags : 491520 Threshold : 12288 Invalid Tags : 196615 Pr0 Tags : 98297 Pr1 Tags : 196608 num_pr0 : 12287
 SAE Count : 0
 Inter-Core Inteference in Data Store : 10825837
Heartbeat CPU 7 instructions: 170000001 cycles: 72267743 heartbeat IPC: 2.35229 cumulative IPC: 2.35236 (Simulation time: 16 hr 16 min 41 sec) 
 Total Blocks : 196608 Invalid Blocks : 0 Valid Blocks : 196608
 Total Tags : 491520 Threshold : 12288 Invalid Tags : 196617 Pr0 Tags : 98295 Pr1 Tags : 196608 num_pr0 : 12287
 SAE Count : 0
 Inter-Core Inteference in Data Store : 10826128
Heartbeat CPU 5 instructions: 180000000 cycles: 76509327 heartbeat IPC: 2.3527 cumulative IPC: 2.35265 (Simulation time: 17 hr 22 min 28 sec) 
 Total Blocks : 196608 Invalid Blocks : 0 Valid Blocks : 196608
 Total Tags : 491520 Threshold : 12288 Invalid Tags : 196616 Pr0 Tags : 98296 Pr1 Tags : 196608 num_pr0 : 12287
 SAE Count : 0
 Inter-Core Inteference in Data Store : 11473278
Heartbeat CPU 4 instructions: 180000000 cycles: 76509345 heartbeat IPC: 2.35274 cumulative IPC: 2.35265 (Simulation time: 17 hr 22 min 28 sec) 
 Total Blocks : 196608 Invalid Blocks : 0 Valid Blocks : 196608
 Total Tags : 491520 Threshold : 12288 Invalid Tags : 196616 Pr0 Tags : 98296 Pr1 Tags : 196608 num_pr0 : 12287
 SAE Count : 0
 Inter-Core Inteference in Data Store : 11473282
Heartbeat CPU 0 instructions: 180000000 cycles: 76511719 heartbeat IPC: 2.35264 cumulative IPC: 2.35258 (Simulation time: 17 hr 22 min 30 sec) 
 Total Blocks : 196608 Invalid Blocks : 0 Valid Blocks : 196608
 Total Tags : 491520 Threshold : 12288 Invalid Tags : 196615 Pr0 Tags : 98297 Pr1 Tags : 196608 num_pr0 : 12287
 SAE Count : 0
 Inter-Core Inteference in Data Store : 11473646
Heartbeat CPU 3 instructions: 180000000 cycles: 76515431 heartbeat IPC: 2.35253 cumulative IPC: 2.35247 (Simulation time: 17 hr 22 min 34 sec) 
 Total Blocks : 196608 Invalid Blocks : 0 Valid Blocks : 196608
 Total Tags : 491520 Threshold : 12288 Invalid Tags : 196615 Pr0 Tags : 98297 Pr1 Tags : 196608 num_pr0 : 12287
 SAE Count : 0
 Inter-Core Inteference in Data Store : 11474220
Heartbeat CPU 1 instructions: 180000000 cycles: 76515449 heartbeat IPC: 2.35251 cumulative IPC: 2.35247 (Simulation time: 17 hr 22 min 34 sec) 
 Total Blocks : 196608 Invalid Blocks : 0 Valid Blocks : 196608
 Total Tags : 491520 Threshold : 12288 Invalid Tags : 196616 Pr0 Tags : 98296 Pr1 Tags : 196608 num_pr0 : 12287
 SAE Count : 0
 Inter-Core Inteference in Data Store : 11474224
Heartbeat CPU 2 instructions: 180000000 cycles: 76515507 heartbeat IPC: 2.35251 cumulative IPC: 2.35246 (Simulation time: 17 hr 22 min 34 sec) 
 Total Blocks : 196608 Invalid Blocks : 0 Valid Blocks : 196608
 Total Tags : 491520 Threshold : 12288 Invalid Tags : 196617 Pr0 Tags : 98295 Pr1 Tags : 196608 num_pr0 : 12286
 SAE Count : 0
 Inter-Core Inteference in Data Store : 11474236
Heartbeat CPU 6 instructions: 180000000 cycles: 76517012 heartbeat IPC: 2.35239 cumulative IPC: 2.35242 (Simulation time: 17 hr 22 min 36 sec) 
 Total Blocks : 196608 Invalid Blocks : 0 Valid Blocks : 196608
 Total Tags : 491520 Threshold : 12288 Invalid Tags : 196615 Pr0 Tags : 98297 Pr1 Tags : 196608 num_pr0 : 12287
 SAE Count : 0
 Inter-Core Inteference in Data Store : 11474450
Heartbeat CPU 7 instructions: 180000000 cycles: 76518476 heartbeat IPC: 2.35254 cumulative IPC: 2.35237 (Simulation time: 17 hr 22 min 37 sec) 
 Total Blocks : 196608 Invalid Blocks : 0 Valid Blocks : 196608
 Total Tags : 491520 Threshold : 12288 Invalid Tags : 196615 Pr0 Tags : 98297 Pr1 Tags : 196608 num_pr0 : 12287
 SAE Count : 0
 Inter-Core Inteference in Data Store : 11474684
Heartbeat CPU 5 instructions: 190000003 cycles: 80759922 heartbeat IPC: 2.35261 cumulative IPC: 2.35265 (Simulation time: 18 hr 27 min 13 sec) 
 Total Blocks : 196608 Invalid Blocks : 0 Valid Blocks : 196608
 Total Tags : 491520 Threshold : 12288 Invalid Tags : 196619 Pr0 Tags : 98293 Pr1 Tags : 196608 num_pr0 : 12286
 SAE Count : 0
 Inter-Core Inteference in Data Store : 12121300
Heartbeat CPU 4 instructions: 190000003 cycles: 80759932 heartbeat IPC: 2.35262 cumulative IPC: 2.35265 (Simulation time: 18 hr 27 min 13 sec) 
 Total Blocks : 196608 Invalid Blocks : 0 Valid Blocks : 196608
 Total Tags : 491520 Threshold : 12288 Invalid Tags : 196619 Pr0 Tags : 98293 Pr1 Tags : 196608 num_pr0 : 12286
 SAE Count : 0
 Inter-Core Inteference in Data Store : 12121303
Heartbeat CPU 0 instructions: 190000003 cycles: 80762475 heartbeat IPC: 2.35252 cumulative IPC: 2.35258 (Simulation time: 18 hr 27 min 15 sec) 
 Total Blocks : 196608 Invalid Blocks : 0 Valid Blocks : 196608
 Total Tags : 491520 Threshold : 12288 Invalid Tags : 196616 Pr0 Tags : 98296 Pr1 Tags : 196608 num_pr0 : 12287
 SAE Count : 0
 Inter-Core Inteference in Data Store : 12121719
Heartbeat CPU 3 instructions: 190000003 cycles: 80766314 heartbeat IPC: 2.35245 cumulative IPC: 2.35247 (Simulation time: 18 hr 27 min 18 sec) 
 Total Blocks : 196608 Invalid Blocks : 0 Valid Blocks : 196608
 Total Tags : 491520 Threshold : 12288 Invalid Tags : 196613 Pr0 Tags : 98299 Pr1 Tags : 196608 num_pr0 : 12287
 SAE Count : 0
 Inter-Core Inteference in Data Store : 12122259
Heartbeat CPU 1 instructions: 190000003 cycles: 80766329 heartbeat IPC: 2.35245 cumulative IPC: 2.35247 (Simulation time: 18 hr 27 min 18 sec) 
 Total Blocks : 196608 Invalid Blocks : 0 Valid Blocks : 196608
 Total Tags : 491520 Threshold : 12288 Invalid Tags : 196614 Pr0 Tags : 98298 Pr1 Tags : 196608 num_pr0 : 12287
 SAE Count : 0
 Inter-Core Inteference in Data Store : 12122262
Heartbeat CPU 2 instructions: 190000003 cycles: 80766374 heartbeat IPC: 2.35246 cumulative IPC: 2.35246 (Simulation time: 18 hr 27 min 18 sec) 
 Total Blocks : 196608 Invalid Blocks : 0 Valid Blocks : 196608
 Total Tags : 491520 Threshold : 12288 Invalid Tags : 196613 Pr0 Tags : 98299 Pr1 Tags : 196608 num_pr0 : 12287
 SAE Count : 0
 Inter-Core Inteference in Data Store : 12122266
Heartbeat CPU 6 instructions: 190000003 cycles: 80768212 heartbeat IPC: 2.35228 cumulative IPC: 2.35241 (Simulation time: 18 hr 27 min 20 sec) 
 Total Blocks : 196608 Invalid Blocks : 0 Valid Blocks : 196608
 Total Tags : 491520 Threshold : 12288 Invalid Tags : 196618 Pr0 Tags : 98294 Pr1 Tags : 196608 num_pr0 : 12287
 SAE Count : 0
 Inter-Core Inteference in Data Store : 12122458
Heartbeat CPU 7 instructions: 190000003 cycles: 80769253 heartbeat IPC: 2.35251 cumulative IPC: 2.35238 (Simulation time: 18 hr 27 min 21 sec) 
 Total Blocks : 196608 Invalid Blocks : 0 Valid Blocks : 196608
 Total Tags : 491520 Threshold : 12288 Invalid Tags : 196612 Pr0 Tags : 98300 Pr1 Tags : 196608 num_pr0 : 12288
 SAE Count : 0
 Inter-Core Inteference in Data Store : 12122604
Heartbeat CPU 4 instructions: 200000001 cycles: 85010427 heartbeat IPC: 2.35267 cumulative IPC: 2.35265 (Simulation time: 19 hr 30 min 23 sec) 
 Total Blocks : 196608 Invalid Blocks : 0 Valid Blocks : 196608
 Total Tags : 491520 Threshold : 12288 Invalid Tags : 196620 Pr0 Tags : 98292 Pr1 Tags : 196608 num_pr0 : 12287
 SAE Count : 0
 Inter-Core Inteference in Data Store : 12770462
Heartbeat CPU 5 instructions: 200000001 cycles: 85010444 heartbeat IPC: 2.35265 cumulative IPC: 2.35265 (Simulation time: 19 hr 30 min 23 sec) 
 Total Blocks : 196608 Invalid Blocks : 0 Valid Blocks : 196608
 Total Tags : 491520 Threshold : 12288 Invalid Tags : 196619 Pr0 Tags : 98293 Pr1 Tags : 196608 num_pr0 : 12287
 SAE Count : 0
 Inter-Core Inteference in Data Store : 12770464
Heartbeat CPU 0 instructions: 200000001 cycles: 85013128 heartbeat IPC: 2.35258 cumulative IPC: 2.35258 (Simulation time: 19 hr 30 min 26 sec) 
 Total Blocks : 196608 Invalid Blocks : 0 Valid Blocks : 196608
 Total Tags : 491520 Threshold : 12288 Invalid Tags : 196622 Pr0 Tags : 98290 Pr1 Tags : 196608 num_pr0 : 12287
 SAE Count : 0
 Inter-Core Inteference in Data Store : 12770943
Heartbeat CPU 3 instructions: 200000001 cycles: 85017129 heartbeat IPC: 2.35249 cumulative IPC: 2.35247 (Simulation time: 19 hr 30 min 30 sec) 
 Total Blocks : 196608 Invalid Blocks : 0 Valid Blocks : 196608
 Total Tags : 491520 Threshold : 12288 Invalid Tags : 196621 Pr0 Tags : 98291 Pr1 Tags : 196608 num_pr0 : 12287
 SAE Count : 0
 Inter-Core Inteference in Data Store : 12771673
Heartbeat CPU 1 instructions: 200000001 cycles: 85017153 heartbeat IPC: 2.35248 cumulative IPC: 2.35247 (Simulation time: 19 hr 30 min 30 sec) 
 Total Blocks : 196608 Invalid Blocks : 0 Valid Blocks : 196608
 Total Tags : 491520 Threshold : 12288 Invalid Tags : 196622 Pr0 Tags : 98290 Pr1 Tags : 196608 num_pr0 : 12287
 SAE Count : 0
 Inter-Core Inteference in Data Store : 12771675
Heartbeat CPU 2 instructions: 200000001 cycles: 85017281 heartbeat IPC: 2.35244 cumulative IPC: 2.35246 (Simulation time: 19 hr 30 min 30 sec) 
 Total Blocks : 196608 Invalid Blocks : 0 Valid Blocks : 196608
 Total Tags : 491520 Threshold : 12288 Invalid Tags : 196620 Pr0 Tags : 98292 Pr1 Tags : 196608 num_pr0 : 12287
 SAE Count : 0
 Inter-Core Inteference in Data Store : 12771695
Heartbeat CPU 6 instructions: 200000001 cycles: 85019380 heartbeat IPC: 2.35229 cumulative IPC: 2.3524 (Simulation time: 19 hr 30 min 32 sec) 
 Total Blocks : 196608 Invalid Blocks : 0 Valid Blocks : 196608
 Total Tags : 491520 Threshold : 12288 Invalid Tags : 196613 Pr0 Tags : 98299 Pr1 Tags : 196608 num_pr0 : 12287
 SAE Count : 0
 Inter-Core Inteference in Data Store : 12772015
Heartbeat CPU 7 instructions: 200000001 cycles: 85020128 heartbeat IPC: 2.35246 cumulative IPC: 2.35238 (Simulation time: 19 hr 30 min 32 sec) 
 Total Blocks : 196608 Invalid Blocks : 0 Valid Blocks : 196608
 Total Tags : 491520 Threshold : 12288 Invalid Tags : 196615 Pr0 Tags : 98297 Pr1 Tags : 196608 num_pr0 : 12286
 SAE Count : 0
 Inter-Core Inteference in Data Store : 12772123

Warmup complete CPU 0 instructions: 200016457 cycles: 85020128 (Simulation time: 19 hr 30 min 32 sec) 
Warmup complete CPU 1 instructions: 200006987 cycles: 85020128 (Simulation time: 19 hr 30 min 32 sec) 
Warmup complete CPU 2 instructions: 200006723 cycles: 85020128 (Simulation time: 19 hr 30 min 32 sec) 
Warmup complete CPU 3 instructions: 200007083 cycles: 85020128 (Simulation time: 19 hr 30 min 32 sec) 
Warmup complete CPU 4 instructions: 200022819 cycles: 85020128 (Simulation time: 19 hr 30 min 32 sec) 
Warmup complete CPU 5 instructions: 200022772 cycles: 85020128 (Simulation time: 19 hr 30 min 32 sec) 
Warmup complete CPU 6 instructions: 200001756 cycles: 85020128 (Simulation time: 19 hr 30 min 32 sec) 
Warmup complete CPU 7 instructions: 200000001 cycles: 85020128 (Simulation time: 19 hr 30 min 32 sec) 

Heartbeat CPU 5 instructions: 210000002 cycles: 101884678 heartbeat IPC: 0.59262 cumulative IPC: 0.59161 (Simulation time: 20 hr 40 min 23 sec) 
 Total Blocks : 196608 Invalid Blocks : 0 Valid Blocks : 196608
 Total Tags : 491520 Threshold : 12288 Invalid Tags : 196612 Pr0 Tags : 98300 Pr1 Tags : 196608 num_pr0 : 12288
 SAE Count : 0
 Inter-Core Inteference in Data Store : 650864
Heartbeat CPU 4 instructions: 210000003 cycles: 101905302 heartbeat IPC: 0.591896 cumulative IPC: 0.590884 (Simulation time: 20 hr 40 min 29 sec) 
 Total Blocks : 196608 Invalid Blocks : 0 Valid Blocks : 196608
 Total Tags : 491520 Threshold : 12288 Invalid Tags : 196614 Pr0 Tags : 98298 Pr1 Tags : 196608 num_pr0 : 12288
 SAE Count : 0
 Inter-Core Inteference in Data Store : 651706
Heartbeat CPU 0 instructions: 210000002 cycles: 101925631 heartbeat IPC: 0.591279 cumulative IPC: 0.59055 (Simulation time: 20 hr 40 min 34 sec) 
 Total Blocks : 196608 Invalid Blocks : 0 Valid Blocks : 196608
 Total Tags : 491520 Threshold : 12288 Invalid Tags : 196615 Pr0 Tags : 98297 Pr1 Tags : 196608 num_pr0 : 12287
 SAE Count : 0
 Inter-Core Inteference in Data Store : 652503
Heartbeat CPU 2 instructions: 210000003 cycles: 101957150 heartbeat IPC: 0.590323 cumulative IPC: 0.590026 (Simulation time: 20 hr 40 min 43 sec) 
 Total Blocks : 196608 Invalid Blocks : 0 Valid Blocks : 196608
 Total Tags : 491520 Threshold : 12288 Invalid Tags : 196612 Pr0 Tags : 98300 Pr1 Tags : 196608 num_pr0 : 12288
 SAE Count : 0
 Inter-Core Inteference in Data Store : 653727
Heartbeat CPU 3 instructions: 210000003 cycles: 101966091 heartbeat IPC: 0.590007 cumulative IPC: 0.589693 (Simulation time: 20 hr 40 min 45 sec) 
 Total Blocks : 196608 Invalid Blocks : 0 Valid Blocks : 196608
 Total Tags : 491520 Threshold : 12288 Invalid Tags : 196615 Pr0 Tags : 98297 Pr1 Tags : 196608 num_pr0 : 12287
 SAE Count : 0
 Inter-Core Inteference in Data Store : 654090
Heartbeat CPU 1 instructions: 210000003 cycles: 102021527 heartbeat IPC: 0.588084 cumulative IPC: 0.587776 (Simulation time: 20 hr 40 min 59 sec) 
 Total Blocks : 196608 Invalid Blocks : 0 Valid Blocks : 196608
 Total Tags : 491520 Threshold : 12288 Invalid Tags : 196615 Pr0 Tags : 98297 Pr1 Tags : 196608 num_pr0 : 12287
 SAE Count : 0
 Inter-Core Inteference in Data Store : 656239
Heartbeat CPU 6 instructions: 210000003 cycles: 102149290 heartbeat IPC: 0.583774 cumulative IPC: 0.583697 (Simulation time: 20 hr 41 min 29 sec) 
 Total Blocks : 196608 Invalid Blocks : 0 Valid Blocks : 196608
 Total Tags : 491520 Threshold : 12288 Invalid Tags : 196612 Pr0 Tags : 98300 Pr1 Tags : 196608 num_pr0 : 12288
 SAE Count : 0
 Inter-Core Inteference in Data Store : 661091
Heartbeat CPU 7 instructions: 210000003 cycles: 102174785 heartbeat IPC: 0.582932 cumulative IPC: 0.582932 (Simulation time: 20 hr 41 min 35 sec) 
 Total Blocks : 196608 Invalid Blocks : 0 Valid Blocks : 196608
 Total Tags : 491520 Threshold : 12288 Invalid Tags : 196615 Pr0 Tags : 98297 Pr1 Tags : 196608 num_pr0 : 12287
 SAE Count : 0
 Inter-Core Inteference in Data Store : 662141
Heartbeat CPU 4 instructions: 220000000 cycles: 118750787 heartbeat IPC: 0.593631 cumulative IPC: 0.592256 (Simulation time: 21 hr 51 min 29 sec) 
 Total Blocks : 196608 Invalid Blocks : 0 Valid Blocks : 196608
 Total Tags : 491520 Threshold : 12288 Invalid Tags : 196609 Pr0 Tags : 98303 Pr1 Tags : 196608 num_pr0 : 12288
 SAE Count : 0
 Inter-Core Inteference in Data Store : 1305519
Heartbeat CPU 5 instructions: 220000000 cycles: 118780673 heartbeat IPC: 0.591856 cumulative IPC: 0.591733 (Simulation time: 21 hr 51 min 36 sec) 
 Total Blocks : 196608 Invalid Blocks : 0 Valid Blocks : 196608
 Total Tags : 491520 Threshold : 12288 Invalid Tags : 196610 Pr0 Tags : 98302 Pr1 Tags : 196608 num_pr0 : 12288
 SAE Count : 0
 Inter-Core Inteference in Data Store : 1306651
Heartbeat CPU 0 instructions: 220000000 cycles: 118827778 heartbeat IPC: 0.591641 cumulative IPC: 0.591095 (Simulation time: 21 hr 51 min 46 sec) 
 Total Blocks : 196608 Invalid Blocks : 0 Valid Blocks : 196608
 Total Tags : 491520 Threshold : 12288 Invalid Tags : 196620 Pr0 Tags : 98292 Pr1 Tags : 196608 num_pr0 : 12287
 SAE Count : 0
 Inter-Core Inteference in Data Store : 1308451
Heartbeat CPU 3 instructions: 220000000 cycles: 118846269 heartbeat IPC: 0.592411 cumulative IPC: 0.591049 (Simulation time: 21 hr 51 min 51 sec) 
 Total Blocks : 196608 Invalid Blocks : 0 Valid Blocks : 196608
 Total Tags : 491520 Threshold : 12288 Invalid Tags : 196614 Pr0 Tags : 98298 Pr1 Tags : 196608 num_pr0 : 12288
 SAE Count : 0
 Inter-Core Inteference in Data Store : 1309132
Heartbeat CPU 2 instructions: 220000000 cycles: 118906010 heartbeat IPC: 0.59001 cumulative IPC: 0.590018 (Simulation time: 21 hr 52 min 6 sec) 
 Total Blocks : 196608 Invalid Blocks : 0 Valid Blocks : 196608
 Total Tags : 491520 Threshold : 12288 Invalid Tags : 196614 Pr0 Tags : 98298 Pr1 Tags : 196608 num_pr0 : 12287
 SAE Count : 0
 Inter-Core Inteference in Data Store : 1311467
Heartbeat CPU 1 instructions: 220000000 cycles: 118961723 heartbeat IPC: 0.590312 cumulative IPC: 0.589042 (Simulation time: 21 hr 52 min 20 sec) 
 Total Blocks : 196608 Invalid Blocks : 0 Valid Blocks : 196608
 Total Tags : 491520 Threshold : 12288 Invalid Tags : 196610 Pr0 Tags : 98302 Pr1 Tags : 196608 num_pr0 : 12288
 SAE Count : 0
 Inter-Core Inteference in Data Store : 1313583
Heartbeat CPU 6 instructions: 220000000 cycles: 119154601 heartbeat IPC: 0.588051 cumulative IPC: 0.585867 (Simulation time: 21 hr 53 min 6 sec) 
 Total Blocks : 196608 Invalid Blocks : 0 Valid Blocks : 196608
 Total Tags : 491520 Threshold : 12288 Invalid Tags : 196619 Pr0 Tags : 98293 Pr1 Tags : 196608 num_pr0 : 12287
 SAE Count : 0
 Inter-Core Inteference in Data Store : 1321109
Heartbeat CPU 7 instructions: 220000000 cycles: 119187423 heartbeat IPC: 0.587798 cumulative IPC: 0.585355 (Simulation time: 21 hr 53 min 13 sec) 
 Total Blocks : 196608 Invalid Blocks : 0 Valid Blocks : 196608
 Total Tags : 491520 Threshold : 12288 Invalid Tags : 196615 Pr0 Tags : 98297 Pr1 Tags : 196608 num_pr0 : 12288
 SAE Count : 0
 Inter-Core Inteference in Data Store : 1322469
Heartbeat CPU 3 instructions: 230000000 cycles: 135732136 heartbeat IPC: 0.592211 cumulative IPC: 0.591436 (Simulation time: 23 hr 6 min 15 sec) 
 Total Blocks : 196608 Invalid Blocks : 0 Valid Blocks : 196608
 Total Tags : 491520 Threshold : 12288 Invalid Tags : 196612 Pr0 Tags : 98300 Pr1 Tags : 196608 num_pr0 : 12286
 SAE Count : 0
 Inter-Core Inteference in Data Store : 1965470
Heartbeat CPU 0 instructions: 230000001 cycles: 135735203 heartbeat IPC: 0.591456 cumulative IPC: 0.591216 (Simulation time: 23 hr 6 min 16 sec) 
 Total Blocks : 196608 Invalid Blocks : 0 Valid Blocks : 196608
 Total Tags : 491520 Threshold : 12288 Invalid Tags : 196613 Pr0 Tags : 98299 Pr1 Tags : 196608 num_pr0 : 12288
 SAE Count : 0
 Inter-Core Inteference in Data Store : 1965569
Heartbeat CPU 5 instructions: 230000001 cycles: 135738578 heartbeat IPC: 0.589696 cumulative IPC: 0.591052 (Simulation time: 23 hr 6 min 17 sec) 
 Total Blocks : 196608 Invalid Blocks : 0 Valid Blocks : 196608
 Total Tags : 491520 Threshold : 12288 Invalid Tags : 196610 Pr0 Tags : 98302 Pr1 Tags : 196608 num_pr0 : 12288
 SAE Count : 0
 Inter-Core Inteference in Data Store : 1965687
Heartbeat CPU 4 instructions: 230000000 cycles: 135739584 heartbeat IPC: 0.588623 cumulative IPC: 0.591039 (Simulation time: 23 hr 6 min 18 sec) 
 Total Blocks : 196608 Invalid Blocks : 0 Valid Blocks : 196608
 Total Tags : 491520 Threshold : 12288 Invalid Tags : 196612 Pr0 Tags : 98300 Pr1 Tags : 196608 num_pr0 : 12287
 SAE Count : 0
 Inter-Core Inteference in Data Store : 1965717
Heartbeat CPU 2 instructions: 230000001 cycles: 135792679 heartbeat IPC: 0.592183 cumulative IPC: 0.590738 (Simulation time: 23 hr 6 min 31 sec) 
 Total Blocks : 196608 Invalid Blocks : 0 Valid Blocks : 196608
 Total Tags : 491520 Threshold : 12288 Invalid Tags : 196612 Pr0 Tags : 98300 Pr1 Tags : 196608 num_pr0 : 12288
 SAE Count : 0
 Inter-Core Inteference in Data Store : 1967690
Heartbeat CPU 1 instructions: 230000000 cycles: 135871317 heartbeat IPC: 0.59138 cumulative IPC: 0.589819 (Simulation time: 23 hr 6 min 49 sec) 
 Total Blocks : 196608 Invalid Blocks : 0 Valid Blocks : 196608
 Total Tags : 491520 Threshold : 12288 Invalid Tags : 196614 Pr0 Tags : 98298 Pr1 Tags : 196608 num_pr0 : 12287
 SAE Count : 0
 Inter-Core Inteference in Data Store : 1970736
Heartbeat CPU 7 instructions: 230000001 cycles: 136080480 heartbeat IPC: 0.591959 cumulative IPC: 0.58754 (Simulation time: 23 hr 7 min 42 sec) 
 Total Blocks : 196608 Invalid Blocks : 0 Valid Blocks : 196608
 Total Tags : 491520 Threshold : 12288 Invalid Tags : 196615 Pr0 Tags : 98297 Pr1 Tags : 196608 num_pr0 : 12288
 SAE Count : 0
 Inter-Core Inteference in Data Store : 1979096
Heartbeat CPU 6 instructions: 230000001 cycles: 136089354 heartbeat IPC: 0.590502 cumulative IPC: 0.587404 (Simulation time: 23 hr 7 min 43 sec) 
 Total Blocks : 196608 Invalid Blocks : 0 Valid Blocks : 196608
 Total Tags : 491520 Threshold : 12288 Invalid Tags : 196614 Pr0 Tags : 98298 Pr1 Tags : 196608 num_pr0 : 12288
 SAE Count : 0
 Inter-Core Inteference in Data Store : 1979441
Heartbeat CPU 0 instructions: 240000001 cycles: 152571447 heartbeat IPC: 0.593957 cumulative IPC: 0.591899 (Simulation time: 24 hr 17 min 33 sec) 
 Total Blocks : 196608 Invalid Blocks : 0 Valid Blocks : 196608
 Total Tags : 491520 Threshold : 12288 Invalid Tags : 196618 Pr0 Tags : 98294 Pr1 Tags : 196608 num_pr0 : 12288
 SAE Count : 0
 Inter-Core Inteference in Data Store : 2618839
Heartbeat CPU 5 instructions: 240000001 cycles: 152649661 heartbeat IPC: 0.591328 cumulative IPC: 0.591121 (Simulation time: 24 hr 17 min 52 sec) 
 Total Blocks : 196608 Invalid Blocks : 0 Valid Blocks : 196608
 Total Tags : 491520 Threshold : 12288 Invalid Tags : 196612 Pr0 Tags : 98300 Pr1 Tags : 196608 num_pr0 : 12287
 SAE Count : 0
 Inter-Core Inteference in Data Store : 2621806
Heartbeat CPU 4 instructions: 240000001 cycles: 152652127 heartbeat IPC: 0.591277 cumulative IPC: 0.591099 (Simulation time: 24 hr 17 min 52 sec) 
 Total Blocks : 196608 Invalid Blocks : 0 Valid Blocks : 196608
 Total Tags : 491520 Threshold : 12288 Invalid Tags : 196617 Pr0 Tags : 98295 Pr1 Tags : 196608 num_pr0 : 12287
 SAE Count : 0
 Inter-Core Inteference in Data Store : 2621896
Heartbeat CPU 3 instructions: 240000001 cycles: 152691771 heartbeat IPC: 0.589635 cumulative IPC: 0.590985 (Simulation time: 24 hr 18 min 1 sec) 
 Total Blocks : 196608 Invalid Blocks : 0 Valid Blocks : 196608
 Total Tags : 491520 Threshold : 12288 Invalid Tags : 196616 Pr0 Tags : 98296 Pr1 Tags : 196608 num_pr0 : 12288
 SAE Count : 0
 Inter-Core Inteference in Data Store : 2623573
Heartbeat CPU 2 instructions: 240000001 cycles: 152701122 heartbeat IPC: 0.591421 cumulative IPC: 0.590909 (Simulation time: 24 hr 18 min 3 sec) 
 Total Blocks : 196608 Invalid Blocks : 0 Valid Blocks : 196608
 Total Tags : 491520 Threshold : 12288 Invalid Tags : 196613 Pr0 Tags : 98299 Pr1 Tags : 196608 num_pr0 : 12287
 SAE Count : 0
 Inter-Core Inteference in Data Store : 2623941
Heartbeat CPU 1 instructions: 240000001 cycles: 152888025 heartbeat IPC: 0.587658 cumulative IPC: 0.589277 (Simulation time: 24 hr 18 min 47 sec) 
 Total Blocks : 196608 Invalid Blocks : 0 Valid Blocks : 196608
 Total Tags : 491520 Threshold : 12288 Invalid Tags : 196614 Pr0 Tags : 98298 Pr1 Tags : 196608 num_pr0 : 12287
 SAE Count : 0
 Inter-Core Inteference in Data Store : 2631192
Heartbeat CPU 7 instructions: 240000001 cycles: 153012021 heartbeat IPC: 0.590614 cumulative IPC: 0.588305 (Simulation time: 24 hr 19 min 17 sec) 
 Total Blocks : 196608 Invalid Blocks : 0 Valid Blocks : 196608
 Total Tags : 491520 Threshold : 12288 Invalid Tags : 196612 Pr0 Tags : 98300 Pr1 Tags : 196608 num_pr0 : 12287
 SAE Count : 0
 Inter-Core Inteference in Data Store : 2636124
Heartbeat CPU 6 instructions: 240000001 cycles: 153064034 heartbeat IPC: 0.589113 cumulative IPC: 0.58783 (Simulation time: 24 hr 19 min 30 sec) 
 Total Blocks : 196608 Invalid Blocks : 0 Valid Blocks : 196608
 Total Tags : 491520 Threshold : 12288 Invalid Tags : 196614 Pr0 Tags : 98298 Pr1 Tags : 196608 num_pr0 : 12287
 SAE Count : 0
 Inter-Core Inteference in Data Store : 2638131
Heartbeat CPU 4 instructions: 250000002 cycles: 169497899 heartbeat IPC: 0.593621 cumulative IPC: 0.591602 (Simulation time: 25 hr 27 min 30 sec) 
 Total Blocks : 196608 Invalid Blocks : 0 Valid Blocks : 196608
 Total Tags : 491520 Threshold : 12288 Invalid Tags : 196613 Pr0 Tags : 98299 Pr1 Tags : 196608 num_pr0 : 12287
 SAE Count : 0
 Inter-Core Inteference in Data Store : 3276139
Heartbeat CPU 0 instructions: 250000002 cycles: 169507916 heartbeat IPC: 0.590442 cumulative IPC: 0.591607 (Simulation time: 25 hr 27 min 32 sec) 
 Total Blocks : 196608 Invalid Blocks : 0 Valid Blocks : 196608
 Total Tags : 491520 Threshold : 12288 Invalid Tags : 196614 Pr0 Tags : 98298 Pr1 Tags : 196608 num_pr0 : 12288
 SAE Count : 0
 Inter-Core Inteference in Data Store : 3276539
Heartbeat CPU 5 instructions: 250000002 cycles: 169529950 heartbeat IPC: 0.592407 cumulative IPC: 0.591378 (Simulation time: 25 hr 27 min 37 sec) 
 Total Blocks : 196608 Invalid Blocks : 0 Valid Blocks : 196608
 Total Tags : 491520 Threshold : 12288 Invalid Tags : 196612 Pr0 Tags : 98300 Pr1 Tags : 196608 num_pr0 : 12287
 SAE Count : 0
 Inter-Core Inteference in Data Store : 3277476
Heartbeat CPU 3 instructions: 250000002 cycles: 169590856 heartbeat IPC: 0.591748 cumulative IPC: 0.591137 (Simulation time: 25 hr 27 min 51 sec) 
 Total Blocks : 196608 Invalid Blocks : 0 Valid Blocks : 196608
 Total Tags : 491520 Threshold : 12288 Invalid Tags : 196612 Pr0 Tags : 98300 Pr1 Tags : 196608 num_pr0 : 12287
 SAE Count : 0
 Inter-Core Inteference in Data Store : 3279900
Heartbeat CPU 1 instructions: 250000002 cycles: 169709631 heartbeat IPC: 0.594474 cumulative IPC: 0.590309 (Simulation time: 25 hr 28 min 20 sec) 
 Total Blocks : 196608 Invalid Blocks : 0 Valid Blocks : 196608
 Total Tags : 491520 Threshold : 12288 Invalid Tags : 196615 Pr0 Tags : 98297 Pr1 Tags : 196608 num_pr0 : 12287
 SAE Count : 0
 Inter-Core Inteference in Data Store : 3284230
Heartbeat CPU 2 instructions: 250000002 cycles: 169752801 heartbeat IPC: 0.586453 cumulative IPC: 0.590012 (Simulation time: 25 hr 28 min 31 sec) 
 Total Blocks : 196608 Invalid Blocks : 0 Valid Blocks : 196608
 Total Tags : 491520 Threshold : 12288 Invalid Tags : 196615 Pr0 Tags : 98297 Pr1 Tags : 196608 num_pr0 : 12288
 SAE Count : 0
 Inter-Core Inteference in Data Store : 3285897
[...]
LLC4 TOTAL     ACCESS: 533330  HIT: 78867  MISS: 454463  HIT %: 14.7877  MISS %: 85.2123  AVERAGE MISS PENALTY: 322.047
LLC4 LOAD      ACCESS:  1084  HIT:   803  MISS:   281  HIT %: 74.0775  MISS %: 25.9225  AVERAGE MISS PENALTY: 792.569
LLC4 RFO       ACCESS:   431  HIT:   398  MISS:    33  HIT %: 92.3434  MISS %: 7.65661  AVERAGE MISS PENALTY: 698.485
LLC4 PREFETCH  ACCESS: 315835  HIT: 77018  MISS: 238817  HIT %: 24.3855  MISS %: 75.6145  AVERAGE MISS PENALTY: 611.818
LLC4 WRITEBACK ACCESS: 215980  HIT:   648  MISS: 215332  HIT %: 0.300028  MISS %:  99.7  AVERAGE MISS PENALTY: 0
LLC4 PREFETCH  REQUESTED:     0  ISSUED:     0  USEFUL:   135  USELESS: 120300
 USEFUL LOAD PREFETCHES:        135 PREFETCH ISSUED TO LOWER LEVEL:    1910069  ACCURACY: 0.00706781
 TIMELY PREFETCHES:        135 LATE PREFETCHES: 0 DROPPED PREFETCHES: 0
LLC4 AVERAGE MISS LATENCY: 322.047 cycles

LLC4 Set Associative Eviction Count : 0
LLC4 Priority 0 entries : 12288
LLC4 Inter-Core Interference : 1618660
LLC5 TOTAL     ACCESS: 532260  HIT: 77472  MISS: 454788  HIT %: 14.5553  MISS %: 85.4447  AVERAGE MISS PENALTY: 322.784
LLC5 LOAD      ACCESS:   672  HIT:   415  MISS:   257  HIT %: 61.756  MISS %: 38.244  AVERAGE MISS PENALTY: 754.549
LLC5 RFO       ACCESS:     1  HIT:     0  MISS:     1  HIT %:     0  MISS %:   100  AVERAGE MISS PENALTY: 178
LLC5 PREFETCH  ACCESS: 316038  HIT: 76779  MISS: 239259  HIT %: 24.2942  MISS %: 75.7058  AVERAGE MISS PENALTY: 612.743
LLC5 WRITEBACK ACCESS: 215549  HIT:   278  MISS: 215271  HIT %: 0.128973  MISS %: 99.871  AVERAGE MISS PENALTY: 0
LLC5 PREFETCH  REQUESTED:     0  ISSUED:     0  USEFUL:   115  USELESS: 120250
 USEFUL LOAD PREFETCHES:        115 PREFETCH ISSUED TO LOWER LEVEL:    1910523  ACCURACY: 0.00601929
 TIMELY PREFETCHES:        115 LATE PREFETCHES: 0 DROPPED PREFETCHES: 0
LLC5 AVERAGE MISS LATENCY: 322.784 cycles

LLC5 Set Associative Eviction Count : 0
LLC5 Priority 0 entries : 12287
LLC5 Inter-Core Interference : 1617882
LLC6 TOTAL     ACCESS: 531819  HIT: 77145  MISS: 454674  HIT %: 14.5059  MISS %: 85.4941  AVERAGE MISS PENALTY: 357.919
LLC6 LOAD      ACCESS:  1056  HIT:   767  MISS:   289  HIT %: 72.6326  MISS %: 27.3674  AVERAGE MISS PENALTY: 827.294
LLC6 RFO       ACCESS:     1  HIT:     0  MISS:     1  HIT %:     0  MISS %:   100  AVERAGE MISS PENALTY: 178
LLC6 PREFETCH  ACCESS: 315213  HIT: 76110  MISS: 239103  HIT %: 24.1456  MISS %: 75.8544  AVERAGE MISS PENALTY: 679.611
LLC6 WRITEBACK ACCESS: 215549  HIT:   268  MISS: 215281  HIT %: 0.124334  MISS %: 99.8757  AVERAGE MISS PENALTY: 0
LLC6 PREFETCH  REQUESTED:     0  ISSUED:     0  USEFUL:   105  USELESS: 119007
 USEFUL LOAD PREFETCHES:        105 PREFETCH ISSUED TO LOWER LEVEL:    1908818  ACCURACY: 0.00550079
 TIMELY PREFETCHES:        105 LATE PREFETCHES: 0 DROPPED PREFETCHES: 0
LLC6 AVERAGE MISS LATENCY: 357.919 cycles

LLC6 Set Associative Eviction Count : 0
LLC6 Priority 0 entries : 12287
LLC6 Inter-Core Interference : 1617832
LLC7 TOTAL     ACCESS: 531766  HIT: 77241  MISS: 454525  HIT %: 14.5254  MISS %: 85.4746  AVERAGE MISS PENALTY: 358.643
LLC7 LOAD      ACCESS:  1107  HIT:   790  MISS:   317  HIT %: 71.364  MISS %: 28.636  AVERAGE MISS PENALTY: 750.11
LLC7 RFO       ACCESS:     1  HIT:     0  MISS:     1  HIT %:     0  MISS %:   100  AVERAGE MISS PENALTY: 295
LLC7 PREFETCH  ACCESS: 315111  HIT: 76176  MISS: 238935  HIT %: 24.1743  MISS %: 75.8257  AVERAGE MISS PENALTY: 681.249
LLC7 WRITEBACK ACCESS: 215547  HIT:   275  MISS: 215272  HIT %: 0.127582  MISS %: 99.8724  AVERAGE MISS PENALTY: 0
LLC7 PREFETCH  REQUESTED:     0  ISSUED:     0  USEFUL:    92  USELESS: 118931
 USEFUL LOAD PREFETCHES:         92 PREFETCH ISSUED TO LOWER LEVEL:    1908716  ACCURACY: 0.00481999
 TIMELY PREFETCHES:         92 LATE PREFETCHES: 0 DROPPED PREFETCHES: 0
LLC7 AVERAGE MISS LATENCY: 358.643 cycles

LLC7 Set Associative Eviction Count : 0
LLC7 Priority 0 entries : 12287
LLC7 Inter-Core Interference : 1617714
ROI Average ROB Stall Cycles:	23.3733
ROI Total ROB Stalls Cycles:	293373139
ROI TOTAL ROB counter      :	12551644
ROI Average Load ROB Stall Cycles:	73.2078
ROI Total Load ROB Stalls Cycle  :	227708584
ROI Total Load ROB stalls Counter:	3110440
Major fault: 0 Minor fault: 54521

CPU 7 cumulative IPC: 0.588447 instructions: 200000002 cycles: 339877740
ITLB TOTAL     ACCESS: 32341503  HIT: 32341492  MISS:    11  HIT %:   100  MISS %: 3.4012e-05  AVERAGE MISS PENALTY: 127
ITLB LOAD      ACCESS: 32341503  HIT: 32341492  MISS:    11  HIT %:   100  MISS %: 3.4012e-05  AVERAGE MISS PENALTY: 127
ITLB RFO       ACCESS:     0  HIT:     0  MISS:     0  HIT %:     0  MISS %:     0  AVERAGE MISS PENALTY: 0
ITLB PREFETCH  ACCESS:     0  HIT:     0  MISS:     0  HIT %:     0  MISS %:     0  AVERAGE MISS PENALTY: 0
ITLB WRITEBACK ACCESS:     0  HIT:     0  MISS:     0  HIT %:     0  MISS %:     0  AVERAGE MISS PENALTY: 0
ITLB PREFETCH  REQUESTED:     0  ISSUED:     0  USEFUL:     0  USELESS:     0
 USEFUL LOAD PREFETCHES:          0 PREFETCH ISSUED TO LOWER LEVEL:          0  ACCURACY: -nan
 TIMELY PREFETCHES:          0 LATE PREFETCHES: 0 DROPPED PREFETCHES: 0
ITLB AVERAGE MISS LATENCY: 127 cycles

ITLB Set Associative Eviction Count : 0
ITLB Priority 0 entries : 0
ITLB Inter-Core Interference : 11
DTLB TOTAL     ACCESS: 33671146  HIT: 33625052  MISS: 46094  HIT %: 99.8631  MISS %: 0.136895  AVERAGE MISS PENALTY: 67.6734
DTLB LOAD      ACCESS: 28246009  HIT: 28200366  MISS: 45643  HIT %: 99.8384  MISS %: 0.161591  AVERAGE MISS PENALTY: 68.2531
DTLB RFO       ACCESS: 5425137  HIT: 5424686  MISS:   451  HIT %: 99.9917  MISS %: 0.00831315  AVERAGE MISS PENALTY: 9
DTLB PREFETCH  ACCESS:     0  HIT:     0  MISS:     0  HIT %:     0  MISS %:     0  AVERAGE MISS PENALTY: 0
DTLB WRITEBACK ACCESS:     0  HIT:     0  MISS:     0  HIT %:     0  MISS %:     0  AVERAGE MISS PENALTY: 0
DTLB PREFETCH  REQUESTED:     0  ISSUED:     0  USEFUL:     0  USELESS:     0
 USEFUL LOAD PREFETCHES:          0 PREFETCH ISSUED TO LOWER LEVEL:          0  ACCURACY: -nan
 TIMELY PREFETCHES:          0 LATE PREFETCHES: 0 DROPPED PREFETCHES: 0
DTLB AVERAGE MISS LATENCY: 67.6734 cycles

DTLB Set Associative Eviction Count : 0
DTLB Priority 0 entries : 0
DTLB Inter-Core Interference : 0
STLB TOTAL     ACCESS: 46105  HIT: 19092  MISS: 27013  HIT %: 41.4098  MISS %: 58.5902  AVERAGE MISS PENALTY: 100
STLB LOAD      ACCESS: 45654  HIT: 18641  MISS: 27013  HIT %: 40.831  MISS %: 59.169  AVERAGE MISS PENALTY: 100
STLB RFO       ACCESS:   451  HIT:   451  MISS:     0  HIT %:   100  MISS %:     0  AVERAGE MISS PENALTY: 0
STLB PREFETCH  ACCESS:     0  HIT:     0  MISS:     0  HIT %:     0  MISS %:     0  AVERAGE MISS PENALTY: 0
STLB WRITEBACK ACCESS:     0  HIT:     0  MISS:     0  HIT %:     0  MISS %:     0  AVERAGE MISS PENALTY: 0
STLB PREFETCH  REQUESTED:     0  ISSUED:     0  USEFUL:     0  USELESS:     0
 USEFUL LOAD PREFETCHES:          0 PREFETCH ISSUED TO LOWER LEVEL:          0  ACCURACY: -nan
 TIMELY PREFETCHES:          0 LATE PREFETCHES: 0 DROPPED PREFETCHES: 0
STLB AVERAGE MISS LATENCY: 100 cycles

STLB Set Associative Eviction Count : 0
STLB Priority 0 entries : 0
STLB Inter-Core Interference : 0
L1D TOTAL     ACCESS: 50081223  HIT: 47470595  MISS: 2610628  HIT %: 94.7872  MISS %: 5.21279  AVERAGE MISS PENALTY: 5.91308e+07
L1D LOAD      ACCESS: 26673444  HIT: 26015273  MISS: 658171  HIT %: 97.5325  MISS %: 2.46751  AVERAGE MISS PENALTY: 2.34541e+08
L1D RFO       ACCESS: 14138397  HIT: 14135346  MISS:  3051  HIT %: 99.9784  MISS %: 0.0215795  AVERAGE MISS PENALTY: 98.3566
L1D PREFETCH  ACCESS: 9269382  HIT: 7319976  MISS: 1949406  HIT %: 78.9694  MISS %: 21.0306  AVERAGE MISS PENALTY: 268.094
L1D WRITEBACK ACCESS:     0  HIT:     0  MISS:     0  HIT %:     0  MISS %:     0  AVERAGE MISS PENALTY: 0
L1D PREFETCH  REQUESTED: 19360343  ISSUED: 19307936  USEFUL: 1942933  USELESS:  6477
 USEFUL LOAD PREFETCHES:    1942933 PREFETCH ISSUED TO LOWER LEVEL:   10550993  ACCURACY: 18.4147
 TIMELY PREFETCHES:    1942933 LATE PREFETCHES: 748076 DROPPED PREFETCHES: 52407
L1D AVERAGE MISS LATENCY: 303.259 cycles

L1D Set Associative Eviction Count : 0
L1D Priority 0 entries : 0
L1D Inter-Core Interference : 0
L1I TOTAL     ACCESS: 44200789  HIT: 44200512  MISS:   277  HIT %: 99.9994  MISS %: 0.000626686  AVERAGE MISS PENALTY: 176.383
L1I LOAD      ACCESS: 44200789  HIT: 44200512  MISS:   277  HIT %: 99.9994  MISS %: 0.000626686  AVERAGE MISS PENALTY: 176.383
L1I RFO       ACCESS:     0  HIT:     0  MISS:     0  HIT %:     0  MISS %:     0  AVERAGE MISS PENALTY: 0
L1I PREFETCH  ACCESS:     0  HIT:     0  MISS:     0  HIT %:     0  MISS %:     0  AVERAGE MISS PENALTY: 0
L1I WRITEBACK ACCESS:     0  HIT:     0  MISS:     0  HIT %:     0  MISS %:     0  AVERAGE MISS PENALTY: 0
L1I PREFETCH  REQUESTED:     0  ISSUED:     0  USEFUL:     0  USELESS:     0
 USEFUL LOAD PREFETCHES:          0 PREFETCH ISSUED TO LOWER LEVEL:          0  ACCURACY: -nan
 TIMELY PREFETCHES:          0 LATE PREFETCHES: 0 DROPPED PREFETCHES: 0
L1I AVERAGE MISS LATENCY: 176.383 cycles

L1I Set Associative Eviction Count : 0
L1I Priority 0 entries : 0
L1I Inter-Core Interference : 277
L2C TOTAL     ACCESS: 5968388  HIT: 3426426  MISS: 2541962  HIT %: 57.4096  MISS %: 42.5904  AVERAGE MISS PENALTY: 5.90613e+07
L2C LOAD      ACCESS: 642852  HIT:  7167  MISS: 635685  HIT %: 1.11488  MISS %: 98.8851  AVERAGE MISS PENALTY: 2.36172e+08
L2C RFO       ACCESS:  3051  HIT:   229  MISS:  2822  HIT %: 7.50574  MISS %: 92.4943  AVERAGE MISS PENALTY: 90.1208
L2C PREFETCH  ACCESS: 3593833  HIT: 1690384  MISS: 1903449  HIT %: 47.0357  MISS %: 52.9643  AVERAGE MISS PENALTY: 404.104
L2C WRITEBACK ACCESS: 1728652  HIT: 1728646  MISS:     6  HIT %: 99.9997  MISS %: 0.000347091  AVERAGE MISS PENALTY: 0
L2C PREFETCH  REQUESTED: 3879553  ISSUED: 3879547  USEFUL:  2117  USELESS: 1903409
 USEFUL LOAD PREFETCHES:       2117 PREFETCH ISSUED TO LOWER LEVEL:    4390888  ACCURACY: 0.0482135
 TIMELY PREFETCHES:       2117 LATE PREFETCHES: 587939 DROPPED PREFETCHES: 6
L2C AVERAGE MISS LATENCY: 405.724 cycles

L2C Set Associative Eviction Count : 0
L2C Priority 0 entries : 0
L2C Inter-Core Interference : 0
LLC0 TOTAL     ACCESS: 533371  HIT: 78934  MISS: 454437  HIT %: 14.7991  MISS %: 85.2009  AVERAGE MISS PENALTY: 319.168
LLC0 LOAD      ACCESS: 40324  HIT: 10356  MISS: 29968  HIT %: 25.682  MISS %: 74.318  AVERAGE MISS PENALTY: 564.89
LLC0 RFO       ACCESS:   452  HIT:   427  MISS:    25  HIT %: 94.469  MISS %: 5.53097  AVERAGE MISS PENALTY: 730.44
LLC0 PREFETCH  ACCESS: 276581  HIT: 67499  MISS: 209082  HIT %: 24.4048  MISS %: 75.5952  AVERAGE MISS PENALTY: 612.654
LLC0 WRITEBACK ACCESS: 216014  HIT:   652  MISS: 215362  HIT %: 0.301832  MISS %: 99.6982  AVERAGE MISS PENALTY: 0
LLC0 PREFETCH  REQUESTED:     0  ISSUED:     0  USEFUL:    97  USELESS: 104488
 USEFUL LOAD PREFETCHES:         97 PREFETCH ISSUED TO LOWER LEVEL:    1669949  ACCURACY: 0.00580856
 TIMELY PREFETCHES:         97 LATE PREFETCHES: 0 DROPPED PREFETCHES: 0
LLC0 AVERAGE MISS LATENCY: 319.168 cycles

LLC0 Set Associative Eviction Count : 0
LLC0 Priority 0 entries : 12286
LLC0 Inter-Core Interference : 1617124
LLC1 TOTAL     ACCESS: 534675  HIT: 80274  MISS: 454401  HIT %: 15.0136  MISS %: 84.9864  AVERAGE MISS PENALTY: 320.62
LLC1 LOAD      ACCESS:  5078  HIT:  1050  MISS:  4028  HIT %: 20.6774  MISS %: 79.3226  AVERAGE MISS PENALTY: 642.299
LLC1 RFO       ACCESS:   862  HIT:   810  MISS:    52  HIT %: 93.9675  MISS %: 6.03248  AVERAGE MISS PENALTY: 871.192
LLC1 PREFETCH  ACCESS: 312283  HIT: 77404  MISS: 234879  HIT %: 24.7865  MISS %: 75.2135  AVERAGE MISS PENALTY: 609.069
LLC1 WRITEBACK ACCESS: 216452  HIT:  1010  MISS: 215442  HIT %: 0.466616  MISS %: 99.5334  AVERAGE MISS PENALTY: 0
LLC1 PREFETCH  REQUESTED:     0  ISSUED:     0  USEFUL:   154  USELESS: 119250
 USEFUL LOAD PREFETCHES:        154 PREFETCH ISSUED TO LOWER LEVEL:    1879358  ACCURACY: 0.00819429
 TIMELY PREFETCHES:        154 LATE PREFETCHES: 0 DROPPED PREFETCHES: 0
LLC1 AVERAGE MISS LATENCY: 320.62 cycles

LLC1 Set Associative Eviction Count : 0
LLC1 Priority 0 entries : 12288
LLC1 Inter-Core Interference : 1618281
LLC2 TOTAL     ACCESS: 533648  HIT: 79134  MISS: 454514  HIT %: 14.8289  MISS %: 85.1711  AVERAGE MISS PENALTY: 358.799
LLC2 LOAD      ACCESS:   754  HIT:   478  MISS:   276  HIT %: 63.3952  MISS %: 36.6048  AVERAGE MISS PENALTY: 747.319
LLC2 RFO       ACCESS:   431  HIT:   411  MISS:    20  HIT %: 95.3596  MISS %: 4.64037  AVERAGE MISS PENALTY: 964.85
LLC2 PREFETCH  ACCESS: 316431  HIT: 77599  MISS: 238832  HIT %: 24.5232  MISS %: 75.4768  AVERAGE MISS PENALTY: 681.876
LLC2 WRITEBACK ACCESS: 216032  HIT:   646  MISS: 215386  HIT %: 0.29903  MISS %: 99.701  AVERAGE MISS PENALTY: 0
LLC2 PREFETCH  REQUESTED:     0  ISSUED:     0  USEFUL:   147  USELESS: 119292
 USEFUL LOAD PREFETCHES:        147 PREFETCH ISSUED TO LOWER LEVEL:    1908610  ACCURACY: 0.00770194
 TIMELY PREFETCHES:        147 LATE PREFETCHES: 0 DROPPED PREFETCHES: 0
LLC2 AVERAGE MISS LATENCY: 358.799 cycles

LLC2 Set Associative Eviction Count : 0
LLC2 Priority 0 entries : 12286
LLC2 Inter-Core Interference : 1617529
LLC3 TOTAL     ACCESS: 534942  HIT: 80193  MISS: 454749  HIT %: 14.991  MISS %: 85.009  AVERAGE MISS PENALTY: 355.458
LLC3 LOAD      ACCESS:  1129  HIT:   818  MISS:   311  HIT %: 72.4535  MISS %: 27.5465  AVERAGE MISS PENALTY: 798.994
LLC3 RFO       ACCESS:   642  HIT:   600  MISS:    42  HIT %: 93.4579  MISS %: 6.54206  AVERAGE MISS PENALTY: 963
LLC3 PREFETCH  ACCESS: 316717  HIT: 77743  MISS: 238974  HIT %: 24.5465  MISS %: 75.4535  AVERAGE MISS PENALTY: 675.2
LLC3 WRITEBACK ACCESS: 216454  HIT:  1032  MISS: 215422  HIT %: 0.476776  MISS %: 99.5232  AVERAGE MISS PENALTY: 0
LLC3 PREFETCH  REQUESTED:     0  ISSUED:     0  USEFUL:   131  USELESS: 119790
 USEFUL LOAD PREFETCHES:        131 PREFETCH ISSUED TO LOWER LEVEL:    1909389  ACCURACY: 0.00686083
 TIMELY PREFETCHES:        131 LATE PREFETCHES: 0 DROPPED PREFETCHES: 0
LLC3 AVERAGE MISS LATENCY: 355.458 cycles

LLC3 Set Associative Eviction Count : 0
LLC3 Priority 0 entries : 12286
LLC3 Inter-Core Interference : 1618472
LLC4 TOTAL     ACCESS: 534549  HIT: 79783  MISS: 454766  HIT %: 14.9253  MISS %: 85.0747  AVERAGE MISS PENALTY: 322.637
LLC4 LOAD      ACCESS:  1596  HIT:  1192  MISS:   404  HIT %: 74.6867  MISS %: 25.3133  AVERAGE MISS PENALTY: 842.762
LLC4 RFO       ACCESS:   432  HIT:   404  MISS:    28  HIT %: 93.5185  MISS %: 6.48148  AVERAGE MISS PENALTY: 774.143
LLC4 PREFETCH  ACCESS: 316497  HIT: 77521  MISS: 238976  HIT %: 24.4934  MISS %: 75.5066  AVERAGE MISS PENALTY: 612.456
LLC4 WRITEBACK ACCESS: 216024  HIT:   666  MISS: 215358  HIT %: 0.308299  MISS %: 99.6917  AVERAGE MISS PENALTY: 0
LLC4 PREFETCH  REQUESTED:     0  ISSUED:     0  USEFUL:   135  USELESS: 120300
 USEFUL LOAD PREFETCHES:        135 PREFETCH ISSUED TO LOWER LEVEL:    1910069  ACCURACY: 0.00706781
 TIMELY PREFETCHES:        135 LATE PREFETCHES: 0 DROPPED PREFETCHES: 0
LLC4 AVERAGE MISS LATENCY: 322.637 cycles

LLC4 Set Associative Eviction Count : 0
LLC4 Priority 0 entries : 12288
LLC4 Inter-Core Interference : 1618660
LLC5 TOTAL     ACCESS: 533401  HIT: 78601  MISS: 454800  HIT %: 14.7358  MISS %: 85.2642  AVERAGE MISS PENALTY: 323.525
LLC5 LOAD      ACCESS:  1086  HIT:   773  MISS:   313  HIT %: 71.1786  MISS %: 28.8214  AVERAGE MISS PENALTY: 755.968
LLC5 RFO       ACCESS:     1  HIT:     0  MISS:     1  HIT %:     0  MISS %:   100  AVERAGE MISS PENALTY: 529
LLC5 PREFETCH  ACCESS: 316723  HIT: 77552  MISS: 239171  HIT %: 24.4857  MISS %: 75.5143  AVERAGE MISS PENALTY: 614.213
LLC5 WRITEBACK ACCESS: 215591  HIT:   276  MISS: 215315  HIT %: 0.12802  MISS %: 99.872  AVERAGE MISS PENALTY: 0
LLC5 PREFETCH  REQUESTED:     0  ISSUED:     0  USEFUL:   115  USELESS: 120250
 USEFUL LOAD PREFETCHES:        115 PREFETCH ISSUED TO LOWER LEVEL:    1910523  ACCURACY: 0.00601929
 TIMELY PREFETCHES:        115 LATE PREFETCHES: 0 DROPPED PREFETCHES: 0
LLC5 AVERAGE MISS LATENCY: 323.525 cycles

LLC5 Set Associative Eviction Count : 0
LLC5 Priority 0 entries : 12287
LLC5 Inter-Core Interference : 1617882
LLC6 TOTAL     ACCESS: 532634  HIT: 78329  MISS: 454305  HIT %: 14.706  MISS %: 85.294  AVERAGE MISS PENALTY: 357.613
LLC6 LOAD      ACCESS:  1080  HIT:   801  MISS:   279  HIT %: 74.1667  MISS %: 25.8333  AVERAGE MISS PENALTY: 752.455
LLC6 RFO       ACCESS:     1  HIT:     0  MISS:     1  HIT %:     0  MISS %:   100  AVERAGE MISS PENALTY: 178
LLC6 PREFETCH  ACCESS: 315959  HIT: 77259  MISS: 238700  HIT %: 24.4522  MISS %: 75.5478  AVERAGE MISS PENALTY: 679.746
LLC6 WRITEBACK ACCESS: 215594  HIT:   269  MISS: 215325  HIT %: 0.124772  MISS %: 99.8752  AVERAGE MISS PENALTY: 0
LLC6 PREFETCH  REQUESTED:     0  ISSUED:     0  USEFUL:   105  USELESS: 119007
 USEFUL LOAD PREFETCHES:        105 PREFETCH ISSUED TO LOWER LEVEL:    1908818  ACCURACY: 0.00550079
 TIMELY PREFETCHES:        105 LATE PREFETCHES: 0 DROPPED PREFETCHES: 0
LLC6 AVERAGE MISS LATENCY: 357.613 cycles

LLC6 Set Associative Eviction Count : 0
LLC6 Priority 0 entries : 12287
LLC6 Inter-Core Interference : 1617832
LLC7 TOTAL     ACCESS: 532486  HIT: 78338  MISS: 454148  HIT %: 14.7117  MISS %: 85.2883  AVERAGE MISS PENALTY: 358.419
LLC7 LOAD      ACCESS:  1094  HIT:   783  MISS:   311  HIT %: 71.5722  MISS %: 28.4278  AVERAGE MISS PENALTY: 775.424
LLC7 RFO       ACCESS:     1  HIT:     0  MISS:     1  HIT %:     0  MISS %:   100  AVERAGE MISS PENALTY: 178
LLC7 PREFETCH  ACCESS: 315802  HIT: 77289  MISS: 238513  HIT %: 24.4739  MISS %: 75.5261  AVERAGE MISS PENALTY: 681.446
LLC7 WRITEBACK ACCESS: 215589  HIT:   266  MISS: 215323  HIT %: 0.123383  MISS %: 99.8766  AVERAGE MISS PENALTY: 0
LLC7 PREFETCH  REQUESTED:     0  ISSUED:     0  USEFUL:    92  USELESS: 118931
 USEFUL LOAD PREFETCHES:         92 PREFETCH ISSUED TO LOWER LEVEL:    1908716  ACCURACY: 0.00481999
 TIMELY PREFETCHES:         92 LATE PREFETCHES: 0 DROPPED PREFETCHES: 0
LLC7 AVERAGE MISS LATENCY: 358.419 cycles

LLC7 Set Associative Eviction Count : 0
LLC7 Priority 0 entries : 12287
LLC7 Inter-Core Interference : 1617714
ROI Average ROB Stall Cycles:	23.4053
ROI Total ROB Stalls Cycles:	293733663
ROI TOTAL ROB counter      :	12549874
ROI Average Load ROB Stall Cycles:	73.3146
ROI Total Load ROB Stalls Cycle  :	228018810
ROI Total Load ROB stalls Counter:	3110144
Major fault: 0 Minor fault: 54494








Interconnect Stats 
LINK 0 BW : 0LINK 1 BW : 0LINK 2 BW : 0LINK 3 BW : 0LINK 4 BW : 0LINK 5 BW : 0LINK 6 BW : 0LINK 7 BW : 0
DRAM Statistics
 CHANNEL 0
 RQ ROW_BUFFER_HIT: 3851865  ROW_BUFFER_MISS: 3793161
 DBUS_CONGESTED: 15726184
 WQ ROW_BUFFER_HIT: 461234  ROW_BUFFER_MISS: 6458865  FULL: 26203

 CHANNEL 1
 RQ ROW_BUFFER_HIT: 3853298  ROW_BUFFER_MISS: 3793921
 DBUS_CONGESTED: 15726184
 WQ ROW_BUFFER_HIT: 460449  ROW_BUFFER_MISS: 6459758  FULL: 22894

 AVG_CONGESTED_CYCLE: 6
DRAM PAGES: 2097152
Allocated PAGES: 436559
L2C destructor called
L1D destructor called
L1I destructor called
STLB destructor called
DTLB destructor called
ITLB destructor called
L2C destructor called
L1D destructor called
L1I destructor called
STLB destructor called
DTLB destructor called
ITLB destructor called
L2C destructor called
L1D destructor called
L1I destructor called
STLB destructor called
DTLB destructor called
ITLB destructor called
L2C destructor called
L1D destructor called
L1I destructor called
STLB destructor called
DTLB destructor called
ITLB destructor called
L2C destructor called
L1D destructor called
L1I destructor called
STLB destructor called
DTLB destructor called
ITLB destructor called
L2C destructor called
L1D destructor called
L1I destructor called
STLB destructor called
DTLB destructor called
ITLB destructor called
L2C destructor called
L1D destructor called
L1I destructor called
STLB destructor called
DTLB destructor called
ITLB destructor called
L2C destructor called
L1D destructor called
L1I destructor called
STLB destructor called
DTLB destructor called
ITLB destructor called
