
*** ChampSim Multicore Out-of-Order Simulator ***

Warmup Instructions: 200000000
Simulation Instructions: 200000000
Number of CPUs: 8
threads:1

L1I Configuration:
L1I_SET:64
L1I_WAY:8
L1I_RQ_SIZE:64
L1I_WQ_SIZE:64
L1I_PQ_SIZE:8
L1I_MSHR_SIZE:8

L1D Configuration:
L1D_SET:64
L1D_WAY:12
L1D_RQ_SIZE:64
L1D_WQ_SIZE:64
L1D_PQ_SIZE:8
L1D_MSHR_SIZE:16

L2C Configuration:
L2C_SET:1024
L2C_WAY:8
L2C_RQ_SIZE:32
L2C_WQ_SIZE:32
L2C_PQ_SIZE:16
L2C_MSHR_SIZE:32

LLC Configuration:
LLC_SET:2048
LLC_WAY:12
LLC SLICES:8
LLC_RQ_SIZE:64
LLC_WQ_SIZE:64
LLC_PQ_SIZE:32
LLC_MSHR_SIZE:64

Interconnect OFF
Attacker deprioritize is: OFF
Off-chip DRAM Size: 8192 MB Channels: 2 Width: 64-bit Data Rate: 3200 MT/s
PAGE SIZE in KB: 4.000000 
PAGE SIZE in MB: 0.003906 
PAGE offset in bits: 12 
CEASER-S_LLC:0
MIRAGE : 1
CEASER_LATENCY:3
REMAP : OFF
Partitions : 1
Multi-Step : OFF
BFS : OFF

CPU 0 runs /home/anubhav/spec_2017/654.roms_s-1007B.champsimtrace.xz
CPU 1 runs /home/anubhav/spec_2017/654.roms_s-1007B.champsimtrace.xz
CPU 2 runs /home/anubhav/spec_2017/654.roms_s-1007B.champsimtrace.xz
CPU 3 runs /home/anubhav/spec_2017/654.roms_s-1007B.champsimtrace.xz
CPU 4 runs /home/anubhav/spec_2017/654.roms_s-1007B.champsimtrace.xz
CPU 5 runs /home/anubhav/spec_2017/654.roms_s-1007B.champsimtrace.xz
CPU 6 runs /home/anubhav/spec_2017/654.roms_s-1007B.champsimtrace.xz
CPU 7 runs /home/anubhav/spec_2017/654.roms_s-1007B.champsimtrace.xz
CPU 0 Bimodal branch predictor
Initialize Hawkeye state
Initialize Hawkeye state
Initialize Hawkeye state
Initialize Hawkeye state
Initialize Hawkeye state
Initialize Hawkeye state
Initialize Hawkeye state
Initialize Hawkeye state
CPU 1 Bimodal branch predictor
Initialize Hawkeye state
Initialize Hawkeye state
Initialize Hawkeye state
Initialize Hawkeye state
Initialize Hawkeye state
Initialize Hawkeye state
Initialize Hawkeye state
Initialize Hawkeye state
CPU 2 Bimodal branch predictor
Initialize Hawkeye state
Initialize Hawkeye state
Initialize Hawkeye state
Initialize Hawkeye state
Initialize Hawkeye state
Initialize Hawkeye state
Initialize Hawkeye state
Initialize Hawkeye state
CPU 3 Bimodal branch predictor
Initialize Hawkeye state
Initialize Hawkeye state
Initialize Hawkeye state
Initialize Hawkeye state
Initialize Hawkeye state
Initialize Hawkeye state
Initialize Hawkeye state
Initialize Hawkeye state
CPU 4 Bimodal branch predictor
Initialize Hawkeye state
Initialize Hawkeye state
Initialize Hawkeye state
Initialize Hawkeye state
Initialize Hawkeye state
Initialize Hawkeye state
Initialize Hawkeye state
Initialize Hawkeye state
CPU 5 Bimodal branch predictor
Initialize Hawkeye state
Initialize Hawkeye state
Initialize Hawkeye state
Initialize Hawkeye state
Initialize Hawkeye state
Initialize Hawkeye state
Initialize Hawkeye state
Initialize Hawkeye state
CPU 6 Bimodal branch predictor
Initialize Hawkeye state
Initialize Hawkeye state
Initialize Hawkeye state
Initialize Hawkeye state
Initialize Hawkeye state
Initialize Hawkeye state
Initialize Hawkeye state
Initialize Hawkeye state
CPU 7 Bimodal branch predictor
Initialize Hawkeye state
Initialize Hawkeye state
Initialize Hawkeye state
Initialize Hawkeye state
Initialize Hawkeye state
Initialize Hawkeye state
Initialize Hawkeye state
Initialize Hawkeye state
Heartbeat CPU 0 instructions: 10000000 cycles: 4500973 heartbeat IPC: 2.22174 cumulative IPC: 2.22174 (Simulation time: 0 hr 46 min 59 sec) 
 Total Blocks : 196608 Invalid Blocks : 161364 Valid Blocks : 35244
 Total Tags : 491520 Threshold : 12288 Invalid Tags : 376499 Pr0 Tags : 79777 Pr1 Tags : 35244 num_pr0 : 9911
 SAE Count : 0
 Inter-Core Inteference in Data Store : 3186
Heartbeat CPU 1 instructions: 10000000 cycles: 4500975 heartbeat IPC: 2.22174 cumulative IPC: 2.22174 (Simulation time: 0 hr 46 min 59 sec) 
 Total Blocks : 196608 Invalid Blocks : 161364 Valid Blocks : 35244
 Total Tags : 491520 Threshold : 12288 Invalid Tags : 376499 Pr0 Tags : 79777 Pr1 Tags : 35244 num_pr0 : 9911
 SAE Count : 0
 Inter-Core Inteference in Data Store : 3186
Heartbeat CPU 2 instructions: 10000000 cycles: 4500977 heartbeat IPC: 2.22174 cumulative IPC: 2.22174 (Simulation time: 0 hr 46 min 59 sec) 
 Total Blocks : 196608 Invalid Blocks : 161364 Valid Blocks : 35244
 Total Tags : 491520 Threshold : 12288 Invalid Tags : 376499 Pr0 Tags : 79777 Pr1 Tags : 35244 num_pr0 : 9911
 SAE Count : 0
 Inter-Core Inteference in Data Store : 3186
Heartbeat CPU 3 instructions: 10000000 cycles: 4500979 heartbeat IPC: 2.22174 cumulative IPC: 2.22174 (Simulation time: 0 hr 46 min 59 sec) 
 Total Blocks : 196608 Invalid Blocks : 161364 Valid Blocks : 35244
 Total Tags : 491520 Threshold : 12288 Invalid Tags : 376499 Pr0 Tags : 79777 Pr1 Tags : 35244 num_pr0 : 9911
 SAE Count : 0
 Inter-Core Inteference in Data Store : 3186
Heartbeat CPU 4 instructions: 10000000 cycles: 4500982 heartbeat IPC: 2.22174 cumulative IPC: 2.22174 (Simulation time: 0 hr 46 min 59 sec) 
 Total Blocks : 196608 Invalid Blocks : 161364 Valid Blocks : 35244
 Total Tags : 491520 Threshold : 12288 Invalid Tags : 376499 Pr0 Tags : 79777 Pr1 Tags : 35244 num_pr0 : 9911
 SAE Count : 0
 Inter-Core Inteference in Data Store : 3186
Heartbeat CPU 5 instructions: 10000000 cycles: 4500984 heartbeat IPC: 2.22174 cumulative IPC: 2.22174 (Simulation time: 0 hr 46 min 59 sec) 
 Total Blocks : 196608 Invalid Blocks : 161364 Valid Blocks : 35244
 Total Tags : 491520 Threshold : 12288 Invalid Tags : 376499 Pr0 Tags : 79777 Pr1 Tags : 35244 num_pr0 : 9911
 SAE Count : 0
 Inter-Core Inteference in Data Store : 3186
Heartbeat CPU 6 instructions: 10000000 cycles: 4500986 heartbeat IPC: 2.22174 cumulative IPC: 2.22174 (Simulation time: 0 hr 47 min 0 sec) 
 Total Blocks : 196608 Invalid Blocks : 161364 Valid Blocks : 35244
 Total Tags : 491520 Threshold : 12288 Invalid Tags : 376499 Pr0 Tags : 79777 Pr1 Tags : 35244 num_pr0 : 9911
 SAE Count : 0
 Inter-Core Inteference in Data Store : 3186
Heartbeat CPU 7 instructions: 10000000 cycles: 4500988 heartbeat IPC: 2.22173 cumulative IPC: 2.22173 (Simulation time: 0 hr 47 min 0 sec) 
 Total Blocks : 196608 Invalid Blocks : 161364 Valid Blocks : 35244
 Total Tags : 491520 Threshold : 12288 Invalid Tags : 376499 Pr0 Tags : 79777 Pr1 Tags : 35244 num_pr0 : 9911
 SAE Count : 0
 Inter-Core Inteference in Data Store : 3186
Heartbeat CPU 0 instructions: 20000000 cycles: 9001339 heartbeat IPC: 2.22204 cumulative IPC: 2.22189 (Simulation time: 1 hr 30 min 54 sec) 
 Total Blocks : 196608 Invalid Blocks : 130065 Valid Blocks : 66543
 Total Tags : 491520 Threshold : 12288 Invalid Tags : 326673 Pr0 Tags : 98304 Pr1 Tags : 66543 num_pr0 : 12288
 SAE Count : 0
 Inter-Core Inteference in Data Store : 12943
Heartbeat CPU 1 instructions: 20000000 cycles: 9001341 heartbeat IPC: 2.22204 cumulative IPC: 2.22189 (Simulation time: 1 hr 30 min 54 sec) 
 Total Blocks : 196608 Invalid Blocks : 130065 Valid Blocks : 66543
 Total Tags : 491520 Threshold : 12288 Invalid Tags : 326673 Pr0 Tags : 98304 Pr1 Tags : 66543 num_pr0 : 12288
 SAE Count : 0
 Inter-Core Inteference in Data Store : 12943
Heartbeat CPU 2 instructions: 20000000 cycles: 9001343 heartbeat IPC: 2.22204 cumulative IPC: 2.22189 (Simulation time: 1 hr 30 min 54 sec) 
 Total Blocks : 196608 Invalid Blocks : 130065 Valid Blocks : 66543
 Total Tags : 491520 Threshold : 12288 Invalid Tags : 326673 Pr0 Tags : 98304 Pr1 Tags : 66543 num_pr0 : 12288
 SAE Count : 0
 Inter-Core Inteference in Data Store : 12943
Heartbeat CPU 3 instructions: 20000000 cycles: 9001345 heartbeat IPC: 2.22204 cumulative IPC: 2.22189 (Simulation time: 1 hr 30 min 54 sec) 
 Total Blocks : 196608 Invalid Blocks : 130065 Valid Blocks : 66543
 Total Tags : 491520 Threshold : 12288 Invalid Tags : 326673 Pr0 Tags : 98304 Pr1 Tags : 66543 num_pr0 : 12288
 SAE Count : 0
 Inter-Core Inteference in Data Store : 12943
Heartbeat CPU 4 instructions: 20000000 cycles: 9001348 heartbeat IPC: 2.22204 cumulative IPC: 2.22189 (Simulation time: 1 hr 30 min 55 sec) 
 Total Blocks : 196608 Invalid Blocks : 130065 Valid Blocks : 66543
 Total Tags : 491520 Threshold : 12288 Invalid Tags : 326673 Pr0 Tags : 98304 Pr1 Tags : 66543 num_pr0 : 12288
 SAE Count : 0
 Inter-Core Inteference in Data Store : 12943
Heartbeat CPU 5 instructions: 20000000 cycles: 9001350 heartbeat IPC: 2.22204 cumulative IPC: 2.22189 (Simulation time: 1 hr 30 min 55 sec) 
 Total Blocks : 196608 Invalid Blocks : 130065 Valid Blocks : 66543
 Total Tags : 491520 Threshold : 12288 Invalid Tags : 326673 Pr0 Tags : 98304 Pr1 Tags : 66543 num_pr0 : 12288
 SAE Count : 0
 Inter-Core Inteference in Data Store : 12943
Heartbeat CPU 6 instructions: 20000000 cycles: 9001352 heartbeat IPC: 2.22204 cumulative IPC: 2.22189 (Simulation time: 1 hr 30 min 55 sec) 
 Total Blocks : 196608 Invalid Blocks : 130065 Valid Blocks : 66543
 Total Tags : 491520 Threshold : 12288 Invalid Tags : 326673 Pr0 Tags : 98304 Pr1 Tags : 66543 num_pr0 : 12288
 SAE Count : 0
 Inter-Core Inteference in Data Store : 12943
Heartbeat CPU 7 instructions: 20000000 cycles: 9001354 heartbeat IPC: 2.22204 cumulative IPC: 2.22189 (Simulation time: 1 hr 30 min 55 sec) 
 Total Blocks : 196608 Invalid Blocks : 130065 Valid Blocks : 66543
 Total Tags : 491520 Threshold : 12288 Invalid Tags : 326673 Pr0 Tags : 98304 Pr1 Tags : 66543 num_pr0 : 12288
 SAE Count : 0
 Inter-Core Inteference in Data Store : 12943
Heartbeat CPU 0 instructions: 30000000 cycles: 13501834 heartbeat IPC: 2.22198 cumulative IPC: 2.22192 (Simulation time: 2 hr 14 min 22 sec) 
 Total Blocks : 196608 Invalid Blocks : 105291 Valid Blocks : 91317
 Total Tags : 491520 Threshold : 12288 Invalid Tags : 301913 Pr0 Tags : 98290 Pr1 Tags : 91317 num_pr0 : 12288
 SAE Count : 0
 Inter-Core Inteference in Data Store : 27703
Heartbeat CPU 1 instructions: 30000000 cycles: 13501836 heartbeat IPC: 2.22198 cumulative IPC: 2.22192 (Simulation time: 2 hr 14 min 22 sec) 
 Total Blocks : 196608 Invalid Blocks : 105291 Valid Blocks : 91317
 Total Tags : 491520 Threshold : 12288 Invalid Tags : 301913 Pr0 Tags : 98290 Pr1 Tags : 91317 num_pr0 : 12288
 SAE Count : 0
 Inter-Core Inteference in Data Store : 27703
Heartbeat CPU 2 instructions: 30000000 cycles: 13501838 heartbeat IPC: 2.22198 cumulative IPC: 2.22192 (Simulation time: 2 hr 14 min 22 sec) 
 Total Blocks : 196608 Invalid Blocks : 105291 Valid Blocks : 91317
 Total Tags : 491520 Threshold : 12288 Invalid Tags : 301913 Pr0 Tags : 98290 Pr1 Tags : 91317 num_pr0 : 12288
 SAE Count : 0
 Inter-Core Inteference in Data Store : 27703
Heartbeat CPU 3 instructions: 30000000 cycles: 13501840 heartbeat IPC: 2.22198 cumulative IPC: 2.22192 (Simulation time: 2 hr 14 min 22 sec) 
 Total Blocks : 196608 Invalid Blocks : 105291 Valid Blocks : 91317
 Total Tags : 491520 Threshold : 12288 Invalid Tags : 301913 Pr0 Tags : 98290 Pr1 Tags : 91317 num_pr0 : 12288
 SAE Count : 0
 Inter-Core Inteference in Data Store : 27703
Heartbeat CPU 4 instructions: 30000000 cycles: 13501843 heartbeat IPC: 2.22198 cumulative IPC: 2.22192 (Simulation time: 2 hr 14 min 22 sec) 
 Total Blocks : 196608 Invalid Blocks : 105291 Valid Blocks : 91317
 Total Tags : 491520 Threshold : 12288 Invalid Tags : 301913 Pr0 Tags : 98290 Pr1 Tags : 91317 num_pr0 : 12288
 SAE Count : 0
 Inter-Core Inteference in Data Store : 27703
Heartbeat CPU 5 instructions: 30000000 cycles: 13501845 heartbeat IPC: 2.22198 cumulative IPC: 2.22192 (Simulation time: 2 hr 14 min 22 sec) 
 Total Blocks : 196608 Invalid Blocks : 105291 Valid Blocks : 91317
 Total Tags : 491520 Threshold : 12288 Invalid Tags : 301913 Pr0 Tags : 98290 Pr1 Tags : 91317 num_pr0 : 12288
 SAE Count : 0
 Inter-Core Inteference in Data Store : 27703
Heartbeat CPU 6 instructions: 30000000 cycles: 13501847 heartbeat IPC: 2.22198 cumulative IPC: 2.22192 (Simulation time: 2 hr 14 min 22 sec) 
 Total Blocks : 196608 Invalid Blocks : 105291 Valid Blocks : 91317
 Total Tags : 491520 Threshold : 12288 Invalid Tags : 301913 Pr0 Tags : 98290 Pr1 Tags : 91317 num_pr0 : 12288
 SAE Count : 0
 Inter-Core Inteference in Data Store : 27703
Heartbeat CPU 7 instructions: 30000000 cycles: 13501849 heartbeat IPC: 2.22198 cumulative IPC: 2.22192 (Simulation time: 2 hr 14 min 22 sec) 
 Total Blocks : 196608 Invalid Blocks : 105291 Valid Blocks : 91317
 Total Tags : 491520 Threshold : 12288 Invalid Tags : 301913 Pr0 Tags : 98290 Pr1 Tags : 91317 num_pr0 : 12288
 SAE Count : 0
 Inter-Core Inteference in Data Store : 27703
Heartbeat CPU 0 instructions: 40000003 cycles: 18002415 heartbeat IPC: 2.22194 cumulative IPC: 2.22192 (Simulation time: 2 hr 55 min 16 sec) 
 Total Blocks : 196608 Invalid Blocks : 84928 Valid Blocks : 111680
 Total Tags : 491520 Threshold : 12288 Invalid Tags : 281538 Pr0 Tags : 98302 Pr1 Tags : 111680 num_pr0 : 12288
 SAE Count : 0
 Inter-Core Inteference in Data Store : 47102
Heartbeat CPU 1 instructions: 40000003 cycles: 18002417 heartbeat IPC: 2.22194 cumulative IPC: 2.22192 (Simulation time: 2 hr 55 min 16 sec) 
 Total Blocks : 196608 Invalid Blocks : 84928 Valid Blocks : 111680
 Total Tags : 491520 Threshold : 12288 Invalid Tags : 281538 Pr0 Tags : 98302 Pr1 Tags : 111680 num_pr0 : 12288
 SAE Count : 0
 Inter-Core Inteference in Data Store : 47102
Heartbeat CPU 2 instructions: 40000003 cycles: 18002419 heartbeat IPC: 2.22194 cumulative IPC: 2.22192 (Simulation time: 2 hr 55 min 16 sec) 
 Total Blocks : 196608 Invalid Blocks : 84928 Valid Blocks : 111680
 Total Tags : 491520 Threshold : 12288 Invalid Tags : 281538 Pr0 Tags : 98302 Pr1 Tags : 111680 num_pr0 : 12288
 SAE Count : 0
 Inter-Core Inteference in Data Store : 47102
Heartbeat CPU 3 instructions: 40000003 cycles: 18002421 heartbeat IPC: 2.22194 cumulative IPC: 2.22192 (Simulation time: 2 hr 55 min 16 sec) 
 Total Blocks : 196608 Invalid Blocks : 84928 Valid Blocks : 111680
 Total Tags : 491520 Threshold : 12288 Invalid Tags : 281538 Pr0 Tags : 98302 Pr1 Tags : 111680 num_pr0 : 12288
 SAE Count : 0
 Inter-Core Inteference in Data Store : 47102
Heartbeat CPU 4 instructions: 40000003 cycles: 18002424 heartbeat IPC: 2.22194 cumulative IPC: 2.22192 (Simulation time: 2 hr 55 min 16 sec) 
 Total Blocks : 196608 Invalid Blocks : 84928 Valid Blocks : 111680
 Total Tags : 491520 Threshold : 12288 Invalid Tags : 281538 Pr0 Tags : 98302 Pr1 Tags : 111680 num_pr0 : 12288
 SAE Count : 0
 Inter-Core Inteference in Data Store : 47102
Heartbeat CPU 5 instructions: 40000003 cycles: 18002426 heartbeat IPC: 2.22194 cumulative IPC: 2.22192 (Simulation time: 2 hr 55 min 16 sec) 
 Total Blocks : 196608 Invalid Blocks : 84928 Valid Blocks : 111680
 Total Tags : 491520 Threshold : 12288 Invalid Tags : 281538 Pr0 Tags : 98302 Pr1 Tags : 111680 num_pr0 : 12288
 SAE Count : 0
 Inter-Core Inteference in Data Store : 47102
Heartbeat CPU 6 instructions: 40000003 cycles: 18002428 heartbeat IPC: 2.22194 cumulative IPC: 2.22192 (Simulation time: 2 hr 55 min 16 sec) 
 Total Blocks : 196608 Invalid Blocks : 84928 Valid Blocks : 111680
 Total Tags : 491520 Threshold : 12288 Invalid Tags : 281538 Pr0 Tags : 98302 Pr1 Tags : 111680 num_pr0 : 12288
 SAE Count : 0
 Inter-Core Inteference in Data Store : 47102
Heartbeat CPU 7 instructions: 40000003 cycles: 18002430 heartbeat IPC: 2.22194 cumulative IPC: 2.22192 (Simulation time: 2 hr 55 min 16 sec) 
 Total Blocks : 196608 Invalid Blocks : 84928 Valid Blocks : 111680
 Total Tags : 491520 Threshold : 12288 Invalid Tags : 281538 Pr0 Tags : 98302 Pr1 Tags : 111680 num_pr0 : 12288
 SAE Count : 0
 Inter-Core Inteference in Data Store : 47102
FILL
Heartbeat CPU 0 instructions: 50000001 cycles: 22484753 heartbeat IPC: 2.23098 cumulative IPC: 2.22373 (Simulation time: 4 hr 5 min 0 sec) 
 Total Blocks : 196608 Invalid Blocks : 4334 Valid Blocks : 192274
 Total Tags : 491520 Threshold : 12288 Invalid Tags : 200943 Pr0 Tags : 98303 Pr1 Tags : 192274 num_pr0 : 12288
 SAE Count : 0
 Inter-Core Inteference in Data Store : 486535
Heartbeat CPU 1 instructions: 50000001 cycles: 22484778 heartbeat IPC: 2.23097 cumulative IPC: 2.22373 (Simulation time: 4 hr 5 min 0 sec) 
 Total Blocks : 196608 Invalid Blocks : 4334 Valid Blocks : 192274
 Total Tags : 491520 Threshold : 12288 Invalid Tags : 200942 Pr0 Tags : 98304 Pr1 Tags : 192274 num_pr0 : 12288
 SAE Count : 0
 Inter-Core Inteference in Data Store : 486541
Heartbeat CPU 4 instructions: 50000001 cycles: 22484812 heartbeat IPC: 2.23095 cumulative IPC: 2.22372 (Simulation time: 4 hr 5 min 0 sec) 
 Total Blocks : 196608 Invalid Blocks : 4334 Valid Blocks : 192274
 Total Tags : 491520 Threshold : 12288 Invalid Tags : 200943 Pr0 Tags : 98303 Pr1 Tags : 192274 num_pr0 : 12288
 SAE Count : 0
 Inter-Core Inteference in Data Store : 486547
Heartbeat CPU 2 instructions: 50000001 cycles: 22484835 heartbeat IPC: 2.23094 cumulative IPC: 2.22372 (Simulation time: 4 hr 5 min 0 sec) 
 Total Blocks : 196608 Invalid Blocks : 4334 Valid Blocks : 192274
 Total Tags : 491520 Threshold : 12288 Invalid Tags : 200942 Pr0 Tags : 98304 Pr1 Tags : 192274 num_pr0 : 12288
 SAE Count : 0
 Inter-Core Inteference in Data Store : 486552
Heartbeat CPU 7 instructions: 50000001 cycles: 22484861 heartbeat IPC: 2.23093 cumulative IPC: 2.22372 (Simulation time: 4 hr 5 min 0 sec) 
 Total Blocks : 196608 Invalid Blocks : 4334 Valid Blocks : 192274
 Total Tags : 491520 Threshold : 12288 Invalid Tags : 200943 Pr0 Tags : 98303 Pr1 Tags : 192274 num_pr0 : 12288
 SAE Count : 0
 Inter-Core Inteference in Data Store : 486556
Heartbeat CPU 3 instructions: 50000001 cycles: 22484914 heartbeat IPC: 2.2309 cumulative IPC: 2.22371 (Simulation time: 4 hr 5 min 0 sec) 
 Total Blocks : 196608 Invalid Blocks : 4334 Valid Blocks : 192274
 Total Tags : 491520 Threshold : 12288 Invalid Tags : 200943 Pr0 Tags : 98303 Pr1 Tags : 192274 num_pr0 : 12288
 SAE Count : 0
 Inter-Core Inteference in Data Store : 486571
Heartbeat CPU 5 instructions: 50000001 cycles: 22484928 heartbeat IPC: 2.2309 cumulative IPC: 2.22371 (Simulation time: 4 hr 5 min 0 sec) 
 Total Blocks : 196608 Invalid Blocks : 4334 Valid Blocks : 192274
 Total Tags : 491520 Threshold : 12288 Invalid Tags : 200943 Pr0 Tags : 98303 Pr1 Tags : 192274 num_pr0 : 12288
 SAE Count : 0
 Inter-Core Inteference in Data Store : 486571
Heartbeat CPU 6 instructions: 50000001 cycles: 22484953 heartbeat IPC: 2.23089 cumulative IPC: 2.22371 (Simulation time: 4 hr 5 min 0 sec) 
 Total Blocks : 196608 Invalid Blocks : 4333 Valid Blocks : 192275
 Total Tags : 491520 Threshold : 12288 Invalid Tags : 200941 Pr0 Tags : 98304 Pr1 Tags : 192275 num_pr0 : 12288
 SAE Count : 0
 Inter-Core Inteference in Data Store : 486576
Heartbeat CPU 0 instructions: 60000001 cycles: 26845566 heartbeat IPC: 2.29315 cumulative IPC: 2.23501 (Simulation time: 5 hr 35 min 1 sec) 
 Total Blocks : 196608 Invalid Blocks : 328 Valid Blocks : 196280
 Total Tags : 491520 Threshold : 12288 Invalid Tags : 196940 Pr0 Tags : 98300 Pr1 Tags : 196280 num_pr0 : 12288
 SAE Count : 0
 Inter-Core Inteference in Data Store : 930166
Heartbeat CPU 4 instructions: 60000001 cycles: 26845576 heartbeat IPC: 2.29318 cumulative IPC: 2.23501 (Simulation time: 5 hr 35 min 2 sec) 
 Total Blocks : 196608 Invalid Blocks : 328 Valid Blocks : 196280
 Total Tags : 491520 Threshold : 12288 Invalid Tags : 196940 Pr0 Tags : 98300 Pr1 Tags : 196280 num_pr0 : 12288
 SAE Count : 0
 Inter-Core Inteference in Data Store : 930166
Heartbeat CPU 1 instructions: 60000001 cycles: 26845582 heartbeat IPC: 2.29316 cumulative IPC: 2.235 (Simulation time: 5 hr 35 min 2 sec) 
 Total Blocks : 196608 Invalid Blocks : 328 Valid Blocks : 196280
 Total Tags : 491520 Threshold : 12288 Invalid Tags : 196940 Pr0 Tags : 98300 Pr1 Tags : 196280 num_pr0 : 12288
 SAE Count : 0
 Inter-Core Inteference in Data Store : 930166
Heartbeat CPU 7 instructions: 60000001 cycles: 26845654 heartbeat IPC: 2.29316 cumulative IPC: 2.235 (Simulation time: 5 hr 35 min 2 sec) 
 Total Blocks : 196608 Invalid Blocks : 328 Valid Blocks : 196280
 Total Tags : 491520 Threshold : 12288 Invalid Tags : 196940 Pr0 Tags : 98300 Pr1 Tags : 196280 num_pr0 : 12288
 SAE Count : 0
 Inter-Core Inteference in Data Store : 930168
Heartbeat CPU 2 instructions: 60000001 cycles: 26845658 heartbeat IPC: 2.29315 cumulative IPC: 2.235 (Simulation time: 5 hr 35 min 2 sec) 
 Total Blocks : 196608 Invalid Blocks : 328 Valid Blocks : 196280
 Total Tags : 491520 Threshold : 12288 Invalid Tags : 196940 Pr0 Tags : 98300 Pr1 Tags : 196280 num_pr0 : 12288
 SAE Count : 0
 Inter-Core Inteference in Data Store : 930168
Heartbeat CPU 5 instructions: 60000001 cycles: 26845672 heartbeat IPC: 2.29319 cumulative IPC: 2.235 (Simulation time: 5 hr 35 min 2 sec) 
 Total Blocks : 196608 Invalid Blocks : 328 Valid Blocks : 196280
 Total Tags : 491520 Threshold : 12288 Invalid Tags : 196940 Pr0 Tags : 98300 Pr1 Tags : 196280 num_pr0 : 12288
 SAE Count : 0
 Inter-Core Inteference in Data Store : 930168
Heartbeat CPU 3 instructions: 60000001 cycles: 26845675 heartbeat IPC: 2.29318 cumulative IPC: 2.235 (Simulation time: 5 hr 35 min 2 sec) 
 Total Blocks : 196608 Invalid Blocks : 328 Valid Blocks : 196280
 Total Tags : 491520 Threshold : 12288 Invalid Tags : 196940 Pr0 Tags : 98300 Pr1 Tags : 196280 num_pr0 : 12288
 SAE Count : 0
 Inter-Core Inteference in Data Store : 930168
Heartbeat CPU 6 instructions: 60000001 cycles: 26845699 heartbeat IPC: 2.29319 cumulative IPC: 2.23499 (Simulation time: 5 hr 35 min 2 sec) 
 Total Blocks : 196608 Invalid Blocks : 328 Valid Blocks : 196280
 Total Tags : 491520 Threshold : 12288 Invalid Tags : 196940 Pr0 Tags : 98300 Pr1 Tags : 196280 num_pr0 : 12288
 SAE Count : 0
 Inter-Core Inteference in Data Store : 930168
FILL
Heartbeat CPU 0 instructions: 70000003 cycles: 31345828 heartbeat IPC: 2.22209 cumulative IPC: 2.23315 (Simulation time: 6 hr 15 min 40 sec) 
 Total Blocks : 196608 Invalid Blocks : 267 Valid Blocks : 196341
 Total Tags : 491520 Threshold : 12288 Invalid Tags : 196876 Pr0 Tags : 98303 Pr1 Tags : 196341 num_pr0 : 12287
 SAE Count : 0
 Inter-Core Inteference in Data Store : 967677
Heartbeat CPU 4 instructions: 70000003 cycles: 31345838 heartbeat IPC: 2.22209 cumulative IPC: 2.23315 (Simulation time: 6 hr 15 min 41 sec) 
 Total Blocks : 196608 Invalid Blocks : 267 Valid Blocks : 196341
 Total Tags : 491520 Threshold : 12288 Invalid Tags : 196876 Pr0 Tags : 98303 Pr1 Tags : 196341 num_pr0 : 12287
 SAE Count : 0
 Inter-Core Inteference in Data Store : 967677
Heartbeat CPU 1 instructions: 70000003 cycles: 31345851 heartbeat IPC: 2.22209 cumulative IPC: 2.23315 (Simulation time: 6 hr 15 min 41 sec) 
 Total Blocks : 196608 Invalid Blocks : 267 Valid Blocks : 196341
 Total Tags : 491520 Threshold : 12288 Invalid Tags : 196876 Pr0 Tags : 98303 Pr1 Tags : 196341 num_pr0 : 12287
 SAE Count : 0
 Inter-Core Inteference in Data Store : 967677
Heartbeat CPU 7 instructions: 70000003 cycles: 31345920 heartbeat IPC: 2.22209 cumulative IPC: 2.23315 (Simulation time: 6 hr 15 min 41 sec) 
 Total Blocks : 196608 Invalid Blocks : 267 Valid Blocks : 196341
 Total Tags : 491520 Threshold : 12288 Invalid Tags : 196876 Pr0 Tags : 98303 Pr1 Tags : 196341 num_pr0 : 12287
 SAE Count : 0
 Inter-Core Inteference in Data Store : 967677
Heartbeat CPU 2 instructions: 70000003 cycles: 31345922 heartbeat IPC: 2.22209 cumulative IPC: 2.23315 (Simulation time: 6 hr 15 min 41 sec) 
 Total Blocks : 196608 Invalid Blocks : 267 Valid Blocks : 196341
 Total Tags : 491520 Threshold : 12288 Invalid Tags : 196876 Pr0 Tags : 98303 Pr1 Tags : 196341 num_pr0 : 12287
 SAE Count : 0
 Inter-Core Inteference in Data Store : 967677
Heartbeat CPU 3 instructions: 70000003 cycles: 31345940 heartbeat IPC: 2.22209 cumulative IPC: 2.23314 (Simulation time: 6 hr 15 min 41 sec) 
 Total Blocks : 196608 Invalid Blocks : 267 Valid Blocks : 196341
 Total Tags : 491520 Threshold : 12288 Invalid Tags : 196876 Pr0 Tags : 98303 Pr1 Tags : 196341 num_pr0 : 12287
 SAE Count : 0
 Inter-Core Inteference in Data Store : 967677
Heartbeat CPU 5 instructions: 70000003 cycles: 31345943 heartbeat IPC: 2.22209 cumulative IPC: 2.23314 (Simulation time: 6 hr 15 min 41 sec) 
 Total Blocks : 196608 Invalid Blocks : 267 Valid Blocks : 196341
 Total Tags : 491520 Threshold : 12288 Invalid Tags : 196876 Pr0 Tags : 98303 Pr1 Tags : 196341 num_pr0 : 12287
 SAE Count : 0
 Inter-Core Inteference in Data Store : 967677
Heartbeat CPU 6 instructions: 70000003 cycles: 31345965 heartbeat IPC: 2.22209 cumulative IPC: 2.23314 (Simulation time: 6 hr 15 min 41 sec) 
 Total Blocks : 196608 Invalid Blocks : 267 Valid Blocks : 196341
 Total Tags : 491520 Threshold : 12288 Invalid Tags : 196876 Pr0 Tags : 98303 Pr1 Tags : 196341 num_pr0 : 12287
 SAE Count : 0
 Inter-Core Inteference in Data Store : 967677
Heartbeat CPU 0 instructions: 80000000 cycles: 35846411 heartbeat IPC: 2.22193 cumulative IPC: 2.23174 (Simulation time: 6 hr 53 min 0 sec) 
 Total Blocks : 196608 Invalid Blocks : 197 Valid Blocks : 196411
 Total Tags : 491520 Threshold : 12288 Invalid Tags : 196812 Pr0 Tags : 98297 Pr1 Tags : 196411 num_pr0 : 12287
 SAE Count : 0
 Inter-Core Inteference in Data Store : 1007058
Heartbeat CPU 4 instructions: 80000000 cycles: 35846423 heartbeat IPC: 2.22193 cumulative IPC: 2.23174 (Simulation time: 6 hr 53 min 1 sec) 
 Total Blocks : 196608 Invalid Blocks : 197 Valid Blocks : 196411
 Total Tags : 491520 Threshold : 12288 Invalid Tags : 196812 Pr0 Tags : 98297 Pr1 Tags : 196411 num_pr0 : 12287
 SAE Count : 0
 Inter-Core Inteference in Data Store : 1007058
Heartbeat CPU 1 instructions: 80000000 cycles: 35846431 heartbeat IPC: 2.22194 cumulative IPC: 2.23174 (Simulation time: 6 hr 53 min 1 sec) 
 Total Blocks : 196608 Invalid Blocks : 197 Valid Blocks : 196411
 Total Tags : 491520 Threshold : 12288 Invalid Tags : 196812 Pr0 Tags : 98297 Pr1 Tags : 196411 num_pr0 : 12287
 SAE Count : 0
 Inter-Core Inteference in Data Store : 1007058
Heartbeat CPU 2 instructions: 80000000 cycles: 35846502 heartbeat IPC: 2.22194 cumulative IPC: 2.23174 (Simulation time: 6 hr 53 min 1 sec) 
 Total Blocks : 196608 Invalid Blocks : 197 Valid Blocks : 196411
 Total Tags : 491520 Threshold : 12288 Invalid Tags : 196812 Pr0 Tags : 98297 Pr1 Tags : 196411 num_pr0 : 12287
 SAE Count : 0
 Inter-Core Inteference in Data Store : 1007058
Heartbeat CPU 7 instructions: 80000000 cycles: 35846506 heartbeat IPC: 2.22193 cumulative IPC: 2.23174 (Simulation time: 6 hr 53 min 1 sec) 
 Total Blocks : 196608 Invalid Blocks : 197 Valid Blocks : 196411
 Total Tags : 491520 Threshold : 12288 Invalid Tags : 196812 Pr0 Tags : 98297 Pr1 Tags : 196411 num_pr0 : 12287
 SAE Count : 0
 Inter-Core Inteference in Data Store : 1007058
Heartbeat CPU 3 instructions: 80000000 cycles: 35846520 heartbeat IPC: 2.22194 cumulative IPC: 2.23174 (Simulation time: 6 hr 53 min 1 sec) 
 Total Blocks : 196608 Invalid Blocks : 197 Valid Blocks : 196411
 Total Tags : 491520 Threshold : 12288 Invalid Tags : 196812 Pr0 Tags : 98297 Pr1 Tags : 196411 num_pr0 : 12287
 SAE Count : 0
 Inter-Core Inteference in Data Store : 1007058
Heartbeat CPU 5 instructions: 80000000 cycles: 35846524 heartbeat IPC: 2.22193 cumulative IPC: 2.23174 (Simulation time: 6 hr 53 min 1 sec) 
 Total Blocks : 196608 Invalid Blocks : 197 Valid Blocks : 196411
 Total Tags : 491520 Threshold : 12288 Invalid Tags : 196812 Pr0 Tags : 98297 Pr1 Tags : 196411 num_pr0 : 12287
 SAE Count : 0
 Inter-Core Inteference in Data Store : 1007058
Heartbeat CPU 6 instructions: 80000000 cycles: 35846543 heartbeat IPC: 2.22194 cumulative IPC: 2.23174 (Simulation time: 6 hr 53 min 1 sec) 
 Total Blocks : 196608 Invalid Blocks : 197 Valid Blocks : 196411
 Total Tags : 491520 Threshold : 12288 Invalid Tags : 196812 Pr0 Tags : 98297 Pr1 Tags : 196411 num_pr0 : 12287
 SAE Count : 0
 Inter-Core Inteference in Data Store : 1007058
Heartbeat CPU 0 instructions: 90000002 cycles: 40346904 heartbeat IPC: 2.22198 cumulative IPC: 2.23065 (Simulation time: 7 hr 29 min 59 sec) 
 Total Blocks : 196608 Invalid Blocks : 163 Valid Blocks : 196445
 Total Tags : 491520 Threshold : 12288 Invalid Tags : 196772 Pr0 Tags : 98303 Pr1 Tags : 196445 num_pr0 : 12288
 SAE Count : 0
 Inter-Core Inteference in Data Store : 1046931
Heartbeat CPU 4 instructions: 90000002 cycles: 40346915 heartbeat IPC: 2.22198 cumulative IPC: 2.23065 (Simulation time: 7 hr 30 min 0 sec) 
 Total Blocks : 196608 Invalid Blocks : 163 Valid Blocks : 196445
 Total Tags : 491520 Threshold : 12288 Invalid Tags : 196772 Pr0 Tags : 98303 Pr1 Tags : 196445 num_pr0 : 12288
 SAE Count : 0
 Inter-Core Inteference in Data Store : 1046931
Heartbeat CPU 1 instructions: 90000002 cycles: 40346924 heartbeat IPC: 2.22198 cumulative IPC: 2.23065 (Simulation time: 7 hr 30 min 0 sec) 
 Total Blocks : 196608 Invalid Blocks : 163 Valid Blocks : 196445
 Total Tags : 491520 Threshold : 12288 Invalid Tags : 196772 Pr0 Tags : 98303 Pr1 Tags : 196445 num_pr0 : 12288
 SAE Count : 0
 Inter-Core Inteference in Data Store : 1046931
Heartbeat CPU 7 instructions: 90000002 cycles: 40346991 heartbeat IPC: 2.22198 cumulative IPC: 2.23065 (Simulation time: 7 hr 30 min 0 sec) 
 Total Blocks : 196608 Invalid Blocks : 163 Valid Blocks : 196445
 Total Tags : 491520 Threshold : 12288 Invalid Tags : 196772 Pr0 Tags : 98303 Pr1 Tags : 196445 num_pr0 : 12288
 SAE Count : 0
 Inter-Core Inteference in Data Store : 1046931
Heartbeat CPU 2 instructions: 90000002 cycles: 40346995 heartbeat IPC: 2.22198 cumulative IPC: 2.23065 (Simulation time: 7 hr 30 min 0 sec) 
 Total Blocks : 196608 Invalid Blocks : 163 Valid Blocks : 196445
 Total Tags : 491520 Threshold : 12288 Invalid Tags : 196772 Pr0 Tags : 98303 Pr1 Tags : 196445 num_pr0 : 12288
 SAE Count : 0
 Inter-Core Inteference in Data Store : 1046931
Heartbeat CPU 5 instructions: 90000002 cycles: 40347014 heartbeat IPC: 2.22198 cumulative IPC: 2.23065 (Simulation time: 7 hr 30 min 0 sec) 
 Total Blocks : 196608 Invalid Blocks : 163 Valid Blocks : 196445
 Total Tags : 491520 Threshold : 12288 Invalid Tags : 196772 Pr0 Tags : 98303 Pr1 Tags : 196445 num_pr0 : 12288
 SAE Count : 0
 Inter-Core Inteference in Data Store : 1046931
Heartbeat CPU 3 instructions: 90000002 cycles: 40347017 heartbeat IPC: 2.22198 cumulative IPC: 2.23065 (Simulation time: 7 hr 30 min 0 sec) 
 Total Blocks : 196608 Invalid Blocks : 163 Valid Blocks : 196445
 Total Tags : 491520 Threshold : 12288 Invalid Tags : 196772 Pr0 Tags : 98303 Pr1 Tags : 196445 num_pr0 : 12288
 SAE Count : 0
 Inter-Core Inteference in Data Store : 1046931
Heartbeat CPU 6 instructions: 90000002 cycles: 40347033 heartbeat IPC: 2.22198 cumulative IPC: 2.23065 (Simulation time: 7 hr 30 min 0 sec) 
 Total Blocks : 196608 Invalid Blocks : 163 Valid Blocks : 196445
 Total Tags : 491520 Threshold : 12288 Invalid Tags : 196772 Pr0 Tags : 98303 Pr1 Tags : 196445 num_pr0 : 12288
 SAE Count : 0
 Inter-Core Inteference in Data Store : 1046931
Heartbeat CPU 0 instructions: 100000000 cycles: 44847202 heartbeat IPC: 2.22207 cumulative IPC: 2.22979 (Simulation time: 8 hr 5 min 23 sec) 
 Total Blocks : 196608 Invalid Blocks : 130 Valid Blocks : 196478
 Total Tags : 491520 Threshold : 12288 Invalid Tags : 196743 Pr0 Tags : 98299 Pr1 Tags : 196478 num_pr0 : 12287
 SAE Count : 0
 Inter-Core Inteference in Data Store : 1085978
Heartbeat CPU 4 instructions: 100000000 cycles: 44847213 heartbeat IPC: 2.22207 cumulative IPC: 2.22979 (Simulation time: 8 hr 5 min 23 sec) 
 Total Blocks : 196608 Invalid Blocks : 130 Valid Blocks : 196478
 Total Tags : 491520 Threshold : 12288 Invalid Tags : 196743 Pr0 Tags : 98299 Pr1 Tags : 196478 num_pr0 : 12287
 SAE Count : 0
 Inter-Core Inteference in Data Store : 1085978
Heartbeat CPU 1 instructions: 100000000 cycles: 44847216 heartbeat IPC: 2.22208 cumulative IPC: 2.22979 (Simulation time: 8 hr 5 min 23 sec) 
 Total Blocks : 196608 Invalid Blocks : 130 Valid Blocks : 196478
 Total Tags : 491520 Threshold : 12288 Invalid Tags : 196743 Pr0 Tags : 98299 Pr1 Tags : 196478 num_pr0 : 12287
 SAE Count : 0
 Inter-Core Inteference in Data Store : 1085978
Heartbeat CPU 7 instructions: 100000000 cycles: 44847281 heartbeat IPC: 2.22208 cumulative IPC: 2.22979 (Simulation time: 8 hr 5 min 23 sec) 
 Total Blocks : 196608 Invalid Blocks : 130 Valid Blocks : 196478
 Total Tags : 491520 Threshold : 12288 Invalid Tags : 196742 Pr0 Tags : 98300 Pr1 Tags : 196478 num_pr0 : 12287
 SAE Count : 0
 Inter-Core Inteference in Data Store : 1085978
Heartbeat CPU 2 instructions: 100000000 cycles: 44847285 heartbeat IPC: 2.22208 cumulative IPC: 2.22979 (Simulation time: 8 hr 5 min 23 sec) 
 Total Blocks : 196608 Invalid Blocks : 130 Valid Blocks : 196478
 Total Tags : 491520 Threshold : 12288 Invalid Tags : 196742 Pr0 Tags : 98300 Pr1 Tags : 196478 num_pr0 : 12287
 SAE Count : 0
 Inter-Core Inteference in Data Store : 1085978
Heartbeat CPU 5 instructions: 100000000 cycles: 44847313 heartbeat IPC: 2.22207 cumulative IPC: 2.22979 (Simulation time: 8 hr 5 min 23 sec) 
 Total Blocks : 196608 Invalid Blocks : 130 Valid Blocks : 196478
 Total Tags : 491520 Threshold : 12288 Invalid Tags : 196742 Pr0 Tags : 98300 Pr1 Tags : 196478 num_pr0 : 12287
 SAE Count : 0
 Inter-Core Inteference in Data Store : 1085978
Heartbeat CPU 3 instructions: 100000000 cycles: 44847315 heartbeat IPC: 2.22207 cumulative IPC: 2.22979 (Simulation time: 8 hr 5 min 23 sec) 
 Total Blocks : 196608 Invalid Blocks : 130 Valid Blocks : 196478
 Total Tags : 491520 Threshold : 12288 Invalid Tags : 196742 Pr0 Tags : 98300 Pr1 Tags : 196478 num_pr0 : 12287
 SAE Count : 0
 Inter-Core Inteference in Data Store : 1085978
Heartbeat CPU 6 instructions: 100000000 cycles: 44847329 heartbeat IPC: 2.22208 cumulative IPC: 2.22979 (Simulation time: 8 hr 5 min 24 sec) 
 Total Blocks : 196608 Invalid Blocks : 130 Valid Blocks : 196478
 Total Tags : 491520 Threshold : 12288 Invalid Tags : 196742 Pr0 Tags : 98300 Pr1 Tags : 196478 num_pr0 : 12287
 SAE Count : 0
 Inter-Core Inteference in Data Store : 1085978
Heartbeat CPU 0 instructions: 110000000 cycles: 49347754 heartbeat IPC: 2.22195 cumulative IPC: 2.22908 (Simulation time: 8 hr 40 min 23 sec) 
 Total Blocks : 196608 Invalid Blocks : 102 Valid Blocks : 196506
 Total Tags : 491520 Threshold : 12288 Invalid Tags : 196714 Pr0 Tags : 98300 Pr1 Tags : 196506 num_pr0 : 12288
 SAE Count : 0
 Inter-Core Inteference in Data Store : 1125682
Heartbeat CPU 1 instructions: 110000000 cycles: 49347773 heartbeat IPC: 2.22195 cumulative IPC: 2.22908 (Simulation time: 8 hr 40 min 23 sec) 
 Total Blocks : 196608 Invalid Blocks : 102 Valid Blocks : 196506
 Total Tags : 491520 Threshold : 12288 Invalid Tags : 196714 Pr0 Tags : 98300 Pr1 Tags : 196506 num_pr0 : 12288
 SAE Count : 0
 Inter-Core Inteference in Data Store : 1125682
Heartbeat CPU 4 instructions: 110000000 cycles: 49347774 heartbeat IPC: 2.22195 cumulative IPC: 2.22908 (Simulation time: 8 hr 40 min 23 sec) 
 Total Blocks : 196608 Invalid Blocks : 102 Valid Blocks : 196506
 Total Tags : 491520 Threshold : 12288 Invalid Tags : 196714 Pr0 Tags : 98300 Pr1 Tags : 196506 num_pr0 : 12288
 SAE Count : 0
 Inter-Core Inteference in Data Store : 1125682
Heartbeat CPU 7 instructions: 110000000 cycles: 49347834 heartbeat IPC: 2.22195 cumulative IPC: 2.22907 (Simulation time: 8 hr 40 min 23 sec) 
 Total Blocks : 196608 Invalid Blocks : 102 Valid Blocks : 196506
 Total Tags : 491520 Threshold : 12288 Invalid Tags : 196714 Pr0 Tags : 98300 Pr1 Tags : 196506 num_pr0 : 12288
 SAE Count : 0
 Inter-Core Inteference in Data Store : 1125682
Heartbeat CPU 2 instructions: 110000000 cycles: 49347841 heartbeat IPC: 2.22195 cumulative IPC: 2.22907 (Simulation time: 8 hr 40 min 24 sec) 
 Total Blocks : 196608 Invalid Blocks : 102 Valid Blocks : 196506
 Total Tags : 491520 Threshold : 12288 Invalid Tags : 196714 Pr0 Tags : 98300 Pr1 Tags : 196506 num_pr0 : 12288
 SAE Count : 0
 Inter-Core Inteference in Data Store : 1125682
Heartbeat CPU 3 instructions: 110000000 cycles: 49347867 heartbeat IPC: 2.22195 cumulative IPC: 2.22907 (Simulation time: 8 hr 40 min 24 sec) 
 Total Blocks : 196608 Invalid Blocks : 102 Valid Blocks : 196506
 Total Tags : 491520 Threshold : 12288 Invalid Tags : 196714 Pr0 Tags : 98300 Pr1 Tags : 196506 num_pr0 : 12288
 SAE Count : 0
 Inter-Core Inteference in Data Store : 1125682
Heartbeat CPU 5 instructions: 110000000 cycles: 49347879 heartbeat IPC: 2.22194 cumulative IPC: 2.22907 (Simulation time: 8 hr 40 min 24 sec) 
 Total Blocks : 196608 Invalid Blocks : 102 Valid Blocks : 196506
 Total Tags : 491520 Threshold : 12288 Invalid Tags : 196714 Pr0 Tags : 98300 Pr1 Tags : 196506 num_pr0 : 12288
 SAE Count : 0
 Inter-Core Inteference in Data Store : 1125682
Heartbeat CPU 6 instructions: 110000000 cycles: 49347883 heartbeat IPC: 2.22195 cumulative IPC: 2.22907 (Simulation time: 8 hr 40 min 24 sec) 
 Total Blocks : 196608 Invalid Blocks : 102 Valid Blocks : 196506
 Total Tags : 491520 Threshold : 12288 Invalid Tags : 196714 Pr0 Tags : 98300 Pr1 Tags : 196506 num_pr0 : 12288
 SAE Count : 0
 Inter-Core Inteference in Data Store : 1125682
FILL
Heartbeat CPU 0 instructions: 120000000 cycles: 53839435 heartbeat IPC: 2.22634 cumulative IPC: 2.22885 (Simulation time: 9 hr 26 min 9 sec) 
 Total Blocks : 196608 Invalid Blocks : 28 Valid Blocks : 196580
 Total Tags : 491520 Threshold : 12288 Invalid Tags : 196637 Pr0 Tags : 98303 Pr1 Tags : 196580 num_pr0 : 12288
 SAE Count : 0
 Inter-Core Inteference in Data Store : 1366707
Heartbeat CPU 1 instructions: 120000000 cycles: 53839459 heartbeat IPC: 2.22634 cumulative IPC: 2.22885 (Simulation time: 9 hr 26 min 9 sec) 
 Total Blocks : 196608 Invalid Blocks : 28 Valid Blocks : 196580
 Total Tags : 491520 Threshold : 12288 Invalid Tags : 196636 Pr0 Tags : 98304 Pr1 Tags : 196580 num_pr0 : 12288
 SAE Count : 0
 Inter-Core Inteference in Data Store : 1366711
Heartbeat CPU 4 instructions: 120000000 cycles: 53839475 heartbeat IPC: 2.22633 cumulative IPC: 2.22885 (Simulation time: 9 hr 26 min 9 sec) 
 Total Blocks : 196608 Invalid Blocks : 28 Valid Blocks : 196580
 Total Tags : 491520 Threshold : 12288 Invalid Tags : 196636 Pr0 Tags : 98304 Pr1 Tags : 196580 num_pr0 : 12288
 SAE Count : 0
 Inter-Core Inteference in Data Store : 1366714
Heartbeat CPU 7 instructions: 120000000 cycles: 53839515 heartbeat IPC: 2.22634 cumulative IPC: 2.22885 (Simulation time: 9 hr 26 min 9 sec) 
 Total Blocks : 196608 Invalid Blocks : 28 Valid Blocks : 196580
 Total Tags : 491520 Threshold : 12288 Invalid Tags : 196636 Pr0 Tags : 98304 Pr1 Tags : 196580 num_pr0 : 12288
 SAE Count : 0
 Inter-Core Inteference in Data Store : 1366718
Heartbeat CPU 2 instructions: 120000000 cycles: 53839517 heartbeat IPC: 2.22634 cumulative IPC: 2.22885 (Simulation time: 9 hr 26 min 9 sec) 
 Total Blocks : 196608 Invalid Blocks : 28 Valid Blocks : 196580
 Total Tags : 491520 Threshold : 12288 Invalid Tags : 196637 Pr0 Tags : 98303 Pr1 Tags : 196580 num_pr0 : 12288
 SAE Count : 0
 Inter-Core Inteference in Data Store : 1366719
Heartbeat CPU 3 instructions: 120000000 cycles: 53839536 heartbeat IPC: 2.22634 cumulative IPC: 2.22885 (Simulation time: 9 hr 26 min 9 sec) 
 Total Blocks : 196608 Invalid Blocks : 28 Valid Blocks : 196580
 Total Tags : 491520 Threshold : 12288 Invalid Tags : 196637 Pr0 Tags : 98303 Pr1 Tags : 196580 num_pr0 : 12288
 SAE Count : 0
 Inter-Core Inteference in Data Store : 1366727
Heartbeat CPU 6 instructions: 120000000 cycles: 53839555 heartbeat IPC: 2.22634 cumulative IPC: 2.22884 (Simulation time: 9 hr 26 min 9 sec) 
 Total Blocks : 196608 Invalid Blocks : 28 Valid Blocks : 196580
 Total Tags : 491520 Threshold : 12288 Invalid Tags : 196637 Pr0 Tags : 98303 Pr1 Tags : 196580 num_pr0 : 12288
 SAE Count : 0
 Inter-Core Inteference in Data Store : 1366732
Heartbeat CPU 5 instructions: 120000000 cycles: 53839590 heartbeat IPC: 2.22632 cumulative IPC: 2.22884 (Simulation time: 9 hr 26 min 9 sec) 
 Total Blocks : 196608 Invalid Blocks : 28 Valid Blocks : 196580
 Total Tags : 491520 Threshold : 12288 Invalid Tags : 196638 Pr0 Tags : 98302 Pr1 Tags : 196580 num_pr0 : 12287
 SAE Count : 0
 Inter-Core Inteference in Data Store : 1366738
Heartbeat CPU 4 instructions: 130000003 cycles: 58200952 heartbeat IPC: 2.2928 cumulative IPC: 2.23364 (Simulation time: 10 hr 47 min 47 sec) 
 Total Blocks : 196608 Invalid Blocks : 1 Valid Blocks : 196607
 Total Tags : 491520 Threshold : 12288 Invalid Tags : 196617 Pr0 Tags : 98296 Pr1 Tags : 196607 num_pr0 : 12287
 SAE Count : 0
 Inter-Core Inteference in Data Store : 2103070
Heartbeat CPU 0 instructions: 130000003 cycles: 58200982 heartbeat IPC: 2.29277 cumulative IPC: 2.23364 (Simulation time: 10 hr 47 min 48 sec) 
 Total Blocks : 196608 Invalid Blocks : 1 Valid Blocks : 196607
 Total Tags : 491520 Threshold : 12288 Invalid Tags : 196617 Pr0 Tags : 98296 Pr1 Tags : 196607 num_pr0 : 12287
 SAE Count : 0
 Inter-Core Inteference in Data Store : 2103070
Heartbeat CPU 1 instructions: 130000003 cycles: 58200982 heartbeat IPC: 2.29278 cumulative IPC: 2.23364 (Simulation time: 10 hr 47 min 48 sec) 
 Total Blocks : 196608 Invalid Blocks : 1 Valid Blocks : 196607
 Total Tags : 491520 Threshold : 12288 Invalid Tags : 196617 Pr0 Tags : 98296 Pr1 Tags : 196607 num_pr0 : 12287
 SAE Count : 0
 Inter-Core Inteference in Data Store : 2103070
Heartbeat CPU 2 instructions: 130000003 cycles: 58200993 heartbeat IPC: 2.2928 cumulative IPC: 2.23364 (Simulation time: 10 hr 47 min 48 sec) 
 Total Blocks : 196608 Invalid Blocks : 1 Valid Blocks : 196607
 Total Tags : 491520 Threshold : 12288 Invalid Tags : 196617 Pr0 Tags : 98296 Pr1 Tags : 196607 num_pr0 : 12287
 SAE Count : 0
 Inter-Core Inteference in Data Store : 2103070
Heartbeat CPU 3 instructions: 130000003 cycles: 58201042 heartbeat IPC: 2.29279 cumulative IPC: 2.23364 (Simulation time: 10 hr 47 min 48 sec) 
 Total Blocks : 196608 Invalid Blocks : 1 Valid Blocks : 196607
 Total Tags : 491520 Threshold : 12288 Invalid Tags : 196617 Pr0 Tags : 98296 Pr1 Tags : 196607 num_pr0 : 12287
 SAE Count : 0
 Inter-Core Inteference in Data Store : 2103070
Heartbeat CPU 7 instructions: 130000003 cycles: 58201055 heartbeat IPC: 2.29277 cumulative IPC: 2.23364 (Simulation time: 10 hr 47 min 48 sec) 
 Total Blocks : 196608 Invalid Blocks : 1 Valid Blocks : 196607
 Total Tags : 491520 Threshold : 12288 Invalid Tags : 196617 Pr0 Tags : 98296 Pr1 Tags : 196607 num_pr0 : 12287
 SAE Count : 0
 Inter-Core Inteference in Data Store : 2103070
Heartbeat CPU 6 instructions: 130000003 cycles: 58201081 heartbeat IPC: 2.29278 cumulative IPC: 2.23364 (Simulation time: 10 hr 47 min 48 sec) 
 Total Blocks : 196608 Invalid Blocks : 1 Valid Blocks : 196607
 Total Tags : 491520 Threshold : 12288 Invalid Tags : 196617 Pr0 Tags : 98296 Pr1 Tags : 196607 num_pr0 : 12287
 SAE Count : 0
 Inter-Core Inteference in Data Store : 2103070
Heartbeat CPU 5 instructions: 130000003 cycles: 58201096 heartbeat IPC: 2.29279 cumulative IPC: 2.23363 (Simulation time: 10 hr 47 min 48 sec) 
 Total Blocks : 196608 Invalid Blocks : 1 Valid Blocks : 196607
 Total Tags : 491520 Threshold : 12288 Invalid Tags : 196617 Pr0 Tags : 98296 Pr1 Tags : 196607 num_pr0 : 12287
 SAE Count : 0
 Inter-Core Inteference in Data Store : 2103070
FILL
Heartbeat CPU 4 instructions: 140000000 cycles: 62701293 heartbeat IPC: 2.22205 cumulative IPC: 2.23281 (Simulation time: 11 hr 23 min 37 sec) 
 Total Blocks : 196608 Invalid Blocks : 1 Valid Blocks : 196607
 Total Tags : 491520 Threshold : 12288 Invalid Tags : 196610 Pr0 Tags : 98303 Pr1 Tags : 196607 num_pr0 : 12288
 SAE Count : 0
 Inter-Core Inteference in Data Store : 2135376
Heartbeat CPU 1 instructions: 140000000 cycles: 62701317 heartbeat IPC: 2.22206 cumulative IPC: 2.23281 (Simulation time: 11 hr 23 min 38 sec) 
 Total Blocks : 196608 Invalid Blocks : 1 Valid Blocks : 196607
 Total Tags : 491520 Threshold : 12288 Invalid Tags : 196609 Pr0 Tags : 98304 Pr1 Tags : 196607 num_pr0 : 12288
 SAE Count : 0
 Inter-Core Inteference in Data Store : 2135379
Heartbeat CPU 0 instructions: 140000000 cycles: 62701325 heartbeat IPC: 2.22205 cumulative IPC: 2.23281 (Simulation time: 11 hr 23 min 38 sec) 
 Total Blocks : 196608 Invalid Blocks : 1 Valid Blocks : 196607
 Total Tags : 491520 Threshold : 12288 Invalid Tags : 196610 Pr0 Tags : 98303 Pr1 Tags : 196607 num_pr0 : 12288
 SAE Count : 0
 Inter-Core Inteference in Data Store : 2135380
Heartbeat CPU 2 instructions: 140000000 cycles: 62701335 heartbeat IPC: 2.22205 cumulative IPC: 2.23281 (Simulation time: 11 hr 23 min 38 sec) 
 Total Blocks : 196608 Invalid Blocks : 1 Valid Blocks : 196607
 Total Tags : 491520 Threshold : 12288 Invalid Tags : 196610 Pr0 Tags : 98303 Pr1 Tags : 196607 num_pr0 : 12288
 SAE Count : 0
 Inter-Core Inteference in Data Store : 2135380
Heartbeat CPU 3 instructions: 140000000 cycles: 62701390 heartbeat IPC: 2.22205 cumulative IPC: 2.23281 (Simulation time: 11 hr 23 min 38 sec) 
 Total Blocks : 196608 Invalid Blocks : 1 Valid Blocks : 196607
 Total Tags : 491520 Threshold : 12288 Invalid Tags : 196610 Pr0 Tags : 98303 Pr1 Tags : 196607 num_pr0 : 12288
 SAE Count : 0
 Inter-Core Inteference in Data Store : 2135382
Heartbeat CPU 7 instructions: 140000000 cycles: 62701400 heartbeat IPC: 2.22205 cumulative IPC: 2.23281 (Simulation time: 11 hr 23 min 38 sec) 
 Total Blocks : 196608 Invalid Blocks : 1 Valid Blocks : 196607
 Total Tags : 491520 Threshold : 12288 Invalid Tags : 196610 Pr0 Tags : 98303 Pr1 Tags : 196607 num_pr0 : 12288
 SAE Count : 0
 Inter-Core Inteference in Data Store : 2135382
Heartbeat CPU 6 instructions: 140000000 cycles: 62701425 heartbeat IPC: 2.22205 cumulative IPC: 2.2328 (Simulation time: 11 hr 23 min 38 sec) 
 Total Blocks : 196608 Invalid Blocks : 1 Valid Blocks : 196607
 Total Tags : 491520 Threshold : 12288 Invalid Tags : 196609 Pr0 Tags : 98304 Pr1 Tags : 196607 num_pr0 : 12288
 SAE Count : 0
 Inter-Core Inteference in Data Store : 2135383
Heartbeat CPU 5 instructions: 140000000 cycles: 62701438 heartbeat IPC: 2.22205 cumulative IPC: 2.2328 (Simulation time: 11 hr 23 min 38 sec) 
 Total Blocks : 196608 Invalid Blocks : 1 Valid Blocks : 196607
 Total Tags : 491520 Threshold : 12288 Invalid Tags : 196609 Pr0 Tags : 98304 Pr1 Tags : 196607 num_pr0 : 12288
 SAE Count : 0
 Inter-Core Inteference in Data Store : 2135384
Heartbeat CPU 4 instructions: 150000000 cycles: 67201832 heartbeat IPC: 2.22196 cumulative IPC: 2.23208 (Simulation time: 11 hr 58 min 11 sec) 
 Total Blocks : 196608 Invalid Blocks : 1 Valid Blocks : 196607
 Total Tags : 491520 Threshold : 12288 Invalid Tags : 196616 Pr0 Tags : 98297 Pr1 Tags : 196607 num_pr0 : 12287
 SAE Count : 0
 Inter-Core Inteference in Data Store : 2174943
Heartbeat CPU 1 instructions: 150000000 cycles: 67201857 heartbeat IPC: 2.22196 cumulative IPC: 2.23208 (Simulation time: 11 hr 58 min 11 sec) 
 Total Blocks : 196608 Invalid Blocks : 1 Valid Blocks : 196607
 Total Tags : 491520 Threshold : 12288 Invalid Tags : 196615 Pr0 Tags : 98298 Pr1 Tags : 196607 num_pr0 : 12287
 SAE Count : 0
 Inter-Core Inteference in Data Store : 2174943
Heartbeat CPU 0 instructions: 150000000 cycles: 67201869 heartbeat IPC: 2.22195 cumulative IPC: 2.23208 (Simulation time: 11 hr 58 min 12 sec) 
 Total Blocks : 196608 Invalid Blocks : 1 Valid Blocks : 196607
 Total Tags : 491520 Threshold : 12288 Invalid Tags : 196615 Pr0 Tags : 98298 Pr1 Tags : 196607 num_pr0 : 12287
 SAE Count : 0
 Inter-Core Inteference in Data Store : 2174943
Heartbeat CPU 2 instructions: 150000000 cycles: 67201874 heartbeat IPC: 2.22196 cumulative IPC: 2.23208 (Simulation time: 11 hr 58 min 12 sec) 
 Total Blocks : 196608 Invalid Blocks : 1 Valid Blocks : 196607
 Total Tags : 491520 Threshold : 12288 Invalid Tags : 196615 Pr0 Tags : 98298 Pr1 Tags : 196607 num_pr0 : 12287
 SAE Count : 0
 Inter-Core Inteference in Data Store : 2174943
Heartbeat CPU 3 instructions: 150000000 cycles: 67201938 heartbeat IPC: 2.22195 cumulative IPC: 2.23208 (Simulation time: 11 hr 58 min 12 sec) 
 Total Blocks : 196608 Invalid Blocks : 1 Valid Blocks : 196607
 Total Tags : 491520 Threshold : 12288 Invalid Tags : 196615 Pr0 Tags : 98298 Pr1 Tags : 196607 num_pr0 : 12287
 SAE Count : 0
 Inter-Core Inteference in Data Store : 2174943
Heartbeat CPU 7 instructions: 150000000 cycles: 67201946 heartbeat IPC: 2.22195 cumulative IPC: 2.23208 (Simulation time: 11 hr 58 min 12 sec) 
 Total Blocks : 196608 Invalid Blocks : 1 Valid Blocks : 196607
 Total Tags : 491520 Threshold : 12288 Invalid Tags : 196615 Pr0 Tags : 98298 Pr1 Tags : 196607 num_pr0 : 12287
 SAE Count : 0
 Inter-Core Inteference in Data Store : 2174943
Heartbeat CPU 6 instructions: 150000000 cycles: 67201967 heartbeat IPC: 2.22195 cumulative IPC: 2.23208 (Simulation time: 11 hr 58 min 12 sec) 
 Total Blocks : 196608 Invalid Blocks : 1 Valid Blocks : 196607
 Total Tags : 491520 Threshold : 12288 Invalid Tags : 196616 Pr0 Tags : 98297 Pr1 Tags : 196607 num_pr0 : 12287
 SAE Count : 0
 Inter-Core Inteference in Data Store : 2174944
Heartbeat CPU 5 instructions: 150000000 cycles: 67201978 heartbeat IPC: 2.22196 cumulative IPC: 2.23208 (Simulation time: 11 hr 58 min 12 sec) 
 Total Blocks : 196608 Invalid Blocks : 1 Valid Blocks : 196607
 Total Tags : 491520 Threshold : 12288 Invalid Tags : 196616 Pr0 Tags : 98297 Pr1 Tags : 196607 num_pr0 : 12287
 SAE Count : 0
 Inter-Core Inteference in Data Store : 2174945
Heartbeat CPU 4 instructions: 160000000 cycles: 71702346 heartbeat IPC: 2.22197 cumulative IPC: 2.23145 (Simulation time: 12 hr 32 min 6 sec) 
 Total Blocks : 196608 Invalid Blocks : 1 Valid Blocks : 196607
 Total Tags : 491520 Threshold : 12288 Invalid Tags : 196609 Pr0 Tags : 98304 Pr1 Tags : 196607 num_pr0 : 12288
 SAE Count : 0
 Inter-Core Inteference in Data Store : 2213935
Heartbeat CPU 1 instructions: 160000000 cycles: 71702375 heartbeat IPC: 2.22197 cumulative IPC: 2.23145 (Simulation time: 12 hr 32 min 6 sec) 
 Total Blocks : 196608 Invalid Blocks : 1 Valid Blocks : 196607
 Total Tags : 491520 Threshold : 12288 Invalid Tags : 196609 Pr0 Tags : 98304 Pr1 Tags : 196607 num_pr0 : 12288
 SAE Count : 0
 Inter-Core Inteference in Data Store : 2213935
Heartbeat CPU 0 instructions: 160000000 cycles: 71702380 heartbeat IPC: 2.22197 cumulative IPC: 2.23145 (Simulation time: 12 hr 32 min 6 sec) 
 Total Blocks : 196608 Invalid Blocks : 1 Valid Blocks : 196607
 Total Tags : 491520 Threshold : 12288 Invalid Tags : 196609 Pr0 Tags : 98304 Pr1 Tags : 196607 num_pr0 : 12288
 SAE Count : 0
 Inter-Core Inteference in Data Store : 2213935
Heartbeat CPU 2 instructions: 160000000 cycles: 71702387 heartbeat IPC: 2.22197 cumulative IPC: 2.23145 (Simulation time: 12 hr 32 min 6 sec) 
 Total Blocks : 196608 Invalid Blocks : 1 Valid Blocks : 196607
 Total Tags : 491520 Threshold : 12288 Invalid Tags : 196609 Pr0 Tags : 98304 Pr1 Tags : 196607 num_pr0 : 12288
 SAE Count : 0
 Inter-Core Inteference in Data Store : 2213935
Heartbeat CPU 7 instructions: 160000000 cycles: 71702456 heartbeat IPC: 2.22197 cumulative IPC: 2.23144 (Simulation time: 12 hr 32 min 6 sec) 
 Total Blocks : 196608 Invalid Blocks : 1 Valid Blocks : 196607
 Total Tags : 491520 Threshold : 12288 Invalid Tags : 196609 Pr0 Tags : 98304 Pr1 Tags : 196607 num_pr0 : 12288
 SAE Count : 0
 Inter-Core Inteference in Data Store : 2213935
Heartbeat CPU 3 instructions: 160000000 cycles: 71702458 heartbeat IPC: 2.22197 cumulative IPC: 2.23144 (Simulation time: 12 hr 32 min 6 sec) 
 Total Blocks : 196608 Invalid Blocks : 1 Valid Blocks : 196607
 Total Tags : 491520 Threshold : 12288 Invalid Tags : 196609 Pr0 Tags : 98304 Pr1 Tags : 196607 num_pr0 : 12288
 SAE Count : 0
 Inter-Core Inteference in Data Store : 2213935
Heartbeat CPU 6 instructions: 160000000 cycles: 71702479 heartbeat IPC: 2.22197 cumulative IPC: 2.23144 (Simulation time: 12 hr 32 min 6 sec) 
 Total Blocks : 196608 Invalid Blocks : 1 Valid Blocks : 196607
 Total Tags : 491520 Threshold : 12288 Invalid Tags : 196609 Pr0 Tags : 98304 Pr1 Tags : 196607 num_pr0 : 12288
 SAE Count : 0
 Inter-Core Inteference in Data Store : 2213935
Heartbeat CPU 5 instructions: 160000000 cycles: 71702487 heartbeat IPC: 2.22197 cumulative IPC: 2.23144 (Simulation time: 12 hr 32 min 6 sec) 
 Total Blocks : 196608 Invalid Blocks : 1 Valid Blocks : 196607
 Total Tags : 491520 Threshold : 12288 Invalid Tags : 196609 Pr0 Tags : 98304 Pr1 Tags : 196607 num_pr0 : 12288
 SAE Count : 0
 Inter-Core Inteference in Data Store : 2213935
Heartbeat CPU 4 instructions: 170000000 cycles: 76202624 heartbeat IPC: 2.22208 cumulative IPC: 2.23089 (Simulation time: 13 hr 5 min 47 sec) 
 Total Blocks : 196608 Invalid Blocks : 0 Valid Blocks : 196608
 Total Tags : 491520 Threshold : 12288 Invalid Tags : 196608 Pr0 Tags : 98304 Pr1 Tags : 196608 num_pr0 : 12288
 SAE Count : 0
 Inter-Core Inteference in Data Store : 2253580
Heartbeat CPU 1 instructions: 170000000 cycles: 76202649 heartbeat IPC: 2.22209 cumulative IPC: 2.23089 (Simulation time: 13 hr 5 min 47 sec) 
 Total Blocks : 196608 Invalid Blocks : 0 Valid Blocks : 196608
 Total Tags : 491520 Threshold : 12288 Invalid Tags : 196608 Pr0 Tags : 98304 Pr1 Tags : 196608 num_pr0 : 12288
 SAE Count : 0
 Inter-Core Inteference in Data Store : 2253580
Heartbeat CPU 0 instructions: 170000000 cycles: 76202656 heartbeat IPC: 2.22209 cumulative IPC: 2.23089 (Simulation time: 13 hr 5 min 47 sec) 
 Total Blocks : 196608 Invalid Blocks : 0 Valid Blocks : 196608
 Total Tags : 491520 Threshold : 12288 Invalid Tags : 196608 Pr0 Tags : 98304 Pr1 Tags : 196608 num_pr0 : 12288
 SAE Count : 0
 Inter-Core Inteference in Data Store : 2253580
Heartbeat CPU 2 instructions: 170000000 cycles: 76202661 heartbeat IPC: 2.22209 cumulative IPC: 2.23089 (Simulation time: 13 hr 5 min 48 sec) 
 Total Blocks : 196608 Invalid Blocks : 0 Valid Blocks : 196608
 Total Tags : 491520 Threshold : 12288 Invalid Tags : 196608 Pr0 Tags : 98304 Pr1 Tags : 196608 num_pr0 : 12288
 SAE Count : 0
 Inter-Core Inteference in Data Store : 2253580
Heartbeat CPU 3 instructions: 170000000 cycles: 76202733 heartbeat IPC: 2.22209 cumulative IPC: 2.23089 (Simulation time: 13 hr 5 min 48 sec) 
 Total Blocks : 196608 Invalid Blocks : 0 Valid Blocks : 196608
 Total Tags : 491520 Threshold : 12288 Invalid Tags : 196608 Pr0 Tags : 98304 Pr1 Tags : 196608 num_pr0 : 12288
 SAE Count : 0
 Inter-Core Inteference in Data Store : 2253580
Heartbeat CPU 7 instructions: 170000000 cycles: 76202736 heartbeat IPC: 2.22208 cumulative IPC: 2.23089 (Simulation time: 13 hr 5 min 48 sec) 
 Total Blocks : 196608 Invalid Blocks : 0 Valid Blocks : 196608
 Total Tags : 491520 Threshold : 12288 Invalid Tags : 196608 Pr0 Tags : 98304 Pr1 Tags : 196608 num_pr0 : 12288
 SAE Count : 0
 Inter-Core Inteference in Data Store : 2253580
Heartbeat CPU 6 instructions: 170000000 cycles: 76202756 heartbeat IPC: 2.22209 cumulative IPC: 2.23089 (Simulation time: 13 hr 5 min 48 sec) 
 Total Blocks : 196608 Invalid Blocks : 0 Valid Blocks : 196608
 Total Tags : 491520 Threshold : 12288 Invalid Tags : 196608 Pr0 Tags : 98304 Pr1 Tags : 196608 num_pr0 : 12288
 SAE Count : 0
 Inter-Core Inteference in Data Store : 2253580
Heartbeat CPU 5 instructions: 170000000 cycles: 76202767 heartbeat IPC: 2.22208 cumulative IPC: 2.23089 (Simulation time: 13 hr 5 min 48 sec) 
 Total Blocks : 196608 Invalid Blocks : 0 Valid Blocks : 196608
 Total Tags : 491520 Threshold : 12288 Invalid Tags : 196608 Pr0 Tags : 98304 Pr1 Tags : 196608 num_pr0 : 12288
 SAE Count : 0
 Inter-Core Inteference in Data Store : 2253580
Heartbeat CPU 4 instructions: 180000001 cycles: 80703302 heartbeat IPC: 2.22189 cumulative IPC: 2.23039 (Simulation time: 13 hr 38 min 16 sec) 
 Total Blocks : 196608 Invalid Blocks : 0 Valid Blocks : 196608
 Total Tags : 491520 Threshold : 12288 Invalid Tags : 196615 Pr0 Tags : 98297 Pr1 Tags : 196608 num_pr0 : 12287
 SAE Count : 0
 Inter-Core Inteference in Data Store : 2293166
Heartbeat CPU 1 instructions: 180000001 cycles: 80703328 heartbeat IPC: 2.22189 cumulative IPC: 2.23039 (Simulation time: 13 hr 38 min 17 sec) 
 Total Blocks : 196608 Invalid Blocks : 0 Valid Blocks : 196608
 Total Tags : 491520 Threshold : 12288 Invalid Tags : 196615 Pr0 Tags : 98297 Pr1 Tags : 196608 num_pr0 : 12287
 SAE Count : 0
 Inter-Core Inteference in Data Store : 2293168
Heartbeat CPU 0 instructions: 180000001 cycles: 80703335 heartbeat IPC: 2.22189 cumulative IPC: 2.23039 (Simulation time: 13 hr 38 min 17 sec) 
 Total Blocks : 196608 Invalid Blocks : 0 Valid Blocks : 196608
 Total Tags : 491520 Threshold : 12288 Invalid Tags : 196615 Pr0 Tags : 98297 Pr1 Tags : 196608 num_pr0 : 12287
 SAE Count : 0
 Inter-Core Inteference in Data Store : 2293168
Heartbeat CPU 2 instructions: 180000001 cycles: 80703339 heartbeat IPC: 2.22189 cumulative IPC: 2.23039 (Simulation time: 13 hr 38 min 17 sec) 
 Total Blocks : 196608 Invalid Blocks : 0 Valid Blocks : 196608
 Total Tags : 491520 Threshold : 12288 Invalid Tags : 196615 Pr0 Tags : 98297 Pr1 Tags : 196608 num_pr0 : 12287
 SAE Count : 0
 Inter-Core Inteference in Data Store : 2293168
Heartbeat CPU 3 instructions: 180000001 cycles: 80703409 heartbeat IPC: 2.22189 cumulative IPC: 2.23039 (Simulation time: 13 hr 38 min 17 sec) 
 Total Blocks : 196608 Invalid Blocks : 0 Valid Blocks : 196608
 Total Tags : 491520 Threshold : 12288 Invalid Tags : 196615 Pr0 Tags : 98297 Pr1 Tags : 196608 num_pr0 : 12287
 SAE Count : 0
 Inter-Core Inteference in Data Store : 2293168
Heartbeat CPU 7 instructions: 180000001 cycles: 80703422 heartbeat IPC: 2.22188 cumulative IPC: 2.23039 (Simulation time: 13 hr 38 min 17 sec) 
 Total Blocks : 196608 Invalid Blocks : 0 Valid Blocks : 196608
 Total Tags : 491520 Threshold : 12288 Invalid Tags : 196615 Pr0 Tags : 98297 Pr1 Tags : 196608 num_pr0 : 12287
 SAE Count : 0
 Inter-Core Inteference in Data Store : 2293168
Heartbeat CPU 6 instructions: 180000001 cycles: 80703442 heartbeat IPC: 2.22188 cumulative IPC: 2.23039 (Simulation time: 13 hr 38 min 17 sec) 
 Total Blocks : 196608 Invalid Blocks : 0 Valid Blocks : 196608
 Total Tags : 491520 Threshold : 12288 Invalid Tags : 196615 Pr0 Tags : 98297 Pr1 Tags : 196608 num_pr0 : 12287
 SAE Count : 0
 Inter-Core Inteference in Data Store : 2293168
Heartbeat CPU 5 instructions: 180000001 cycles: 80703444 heartbeat IPC: 2.22189 cumulative IPC: 2.23039 (Simulation time: 13 hr 38 min 17 sec) 
 Total Blocks : 196608 Invalid Blocks : 0 Valid Blocks : 196608
 Total Tags : 491520 Threshold : 12288 Invalid Tags : 196615 Pr0 Tags : 98297 Pr1 Tags : 196608 num_pr0 : 12287
 SAE Count : 0
 Inter-Core Inteference in Data Store : 2293168
Heartbeat CPU 4 instructions: 190000000 cycles: 85203741 heartbeat IPC: 2.22201 cumulative IPC: 2.22995 (Simulation time: 14 hr 9 min 59 sec) 
 Total Blocks : 196608 Invalid Blocks : 0 Valid Blocks : 196608
 Total Tags : 491520 Threshold : 12288 Invalid Tags : 196608 Pr0 Tags : 98304 Pr1 Tags : 196608 num_pr0 : 12288
 SAE Count : 0
 Inter-Core Inteference in Data Store : 2332760
Heartbeat CPU 1 instructions: 190000000 cycles: 85203764 heartbeat IPC: 2.22201 cumulative IPC: 2.22995 (Simulation time: 14 hr 9 min 59 sec) 
 Total Blocks : 196608 Invalid Blocks : 0 Valid Blocks : 196608
 Total Tags : 491520 Threshold : 12288 Invalid Tags : 196608 Pr0 Tags : 98304 Pr1 Tags : 196608 num_pr0 : 12288
 SAE Count : 0
 Inter-Core Inteference in Data Store : 2332760
Heartbeat CPU 0 instructions: 190000000 cycles: 85203774 heartbeat IPC: 2.22201 cumulative IPC: 2.22995 (Simulation time: 14 hr 9 min 59 sec) 
 Total Blocks : 196608 Invalid Blocks : 0 Valid Blocks : 196608
 Total Tags : 491520 Threshold : 12288 Invalid Tags : 196608 Pr0 Tags : 98304 Pr1 Tags : 196608 num_pr0 : 12288
 SAE Count : 0
 Inter-Core Inteference in Data Store : 2332760
Heartbeat CPU 2 instructions: 190000000 cycles: 85203778 heartbeat IPC: 2.22201 cumulative IPC: 2.22995 (Simulation time: 14 hr 9 min 59 sec) 
 Total Blocks : 196608 Invalid Blocks : 0 Valid Blocks : 196608
 Total Tags : 491520 Threshold : 12288 Invalid Tags : 196608 Pr0 Tags : 98304 Pr1 Tags : 196608 num_pr0 : 12288
 SAE Count : 0
 Inter-Core Inteference in Data Store : 2332760
Heartbeat CPU 3 instructions: 190000000 cycles: 85203849 heartbeat IPC: 2.222 cumulative IPC: 2.22995 (Simulation time: 14 hr 9 min 59 sec) 
 Total Blocks : 196608 Invalid Blocks : 0 Valid Blocks : 196608
 Total Tags : 491520 Threshold : 12288 Invalid Tags : 196608 Pr0 Tags : 98304 Pr1 Tags : 196608 num_pr0 : 12288
 SAE Count : 0
 Inter-Core Inteference in Data Store : 2332760
Heartbeat CPU 7 instructions: 190000000 cycles: 85203858 heartbeat IPC: 2.22201 cumulative IPC: 2.22995 (Simulation time: 14 hr 9 min 59 sec) 
 Total Blocks : 196608 Invalid Blocks : 0 Valid Blocks : 196608
 Total Tags : 491520 Threshold : 12288 Invalid Tags : 196608 Pr0 Tags : 98304 Pr1 Tags : 196608 num_pr0 : 12288
 SAE Count : 0
 Inter-Core Inteference in Data Store : 2332760
Heartbeat CPU 6 instructions: 190000000 cycles: 85203885 heartbeat IPC: 2.222 cumulative IPC: 2.22995 (Simulation time: 14 hr 9 min 59 sec) 
 Total Blocks : 196608 Invalid Blocks : 0 Valid Blocks : 196608
 Total Tags : 491520 Threshold : 12288 Invalid Tags : 196608 Pr0 Tags : 98304 Pr1 Tags : 196608 num_pr0 : 12288
 SAE Count : 0
 Inter-Core Inteference in Data Store : 2332760
Heartbeat CPU 5 instructions: 190000000 cycles: 85203886 heartbeat IPC: 2.222 cumulative IPC: 2.22995 (Simulation time: 14 hr 9 min 59 sec) 
 Total Blocks : 196608 Invalid Blocks : 0 Valid Blocks : 196608
 Total Tags : 491520 Threshold : 12288 Invalid Tags : 196608 Pr0 Tags : 98304 Pr1 Tags : 196608 num_pr0 : 12288
 SAE Count : 0
 Inter-Core Inteference in Data Store : 2332760
FILL
Heartbeat CPU 0 instructions: 200000000 cycles: 89660747 heartbeat IPC: 2.24368 cumulative IPC: 2.23063 (Simulation time: 15 hr 33 min 44 sec) 
 Total Blocks : 196608 Invalid Blocks : 0 Valid Blocks : 196608
 Total Tags : 491520 Threshold : 12288 Invalid Tags : 196612 Pr0 Tags : 98300 Pr1 Tags : 196608 num_pr0 : 12287
 SAE Count : 0
 Inter-Core Inteference in Data Store : 3063341
Heartbeat CPU 2 instructions: 200000000 cycles: 89660750 heartbeat IPC: 2.24368 cumulative IPC: 2.23063 (Simulation time: 15 hr 33 min 44 sec) 
 Total Blocks : 196608 Invalid Blocks : 0 Valid Blocks : 196608
 Total Tags : 491520 Threshold : 12288 Invalid Tags : 196611 Pr0 Tags : 98301 Pr1 Tags : 196608 num_pr0 : 12288
 SAE Count : 0
 Inter-Core Inteference in Data Store : 3063341
Heartbeat CPU 1 instructions: 200000000 cycles: 89660766 heartbeat IPC: 2.24366 cumulative IPC: 2.23063 (Simulation time: 15 hr 33 min 44 sec) 
 Total Blocks : 196608 Invalid Blocks : 0 Valid Blocks : 196608
 Total Tags : 491520 Threshold : 12288 Invalid Tags : 196610 Pr0 Tags : 98302 Pr1 Tags : 196608 num_pr0 : 12288
 SAE Count : 0
 Inter-Core Inteference in Data Store : 3063348
Heartbeat CPU 4 instructions: 200000000 cycles: 89660783 heartbeat IPC: 2.24364 cumulative IPC: 2.23063 (Simulation time: 15 hr 33 min 44 sec) 
 Total Blocks : 196608 Invalid Blocks : 0 Valid Blocks : 196608
 Total Tags : 491520 Threshold : 12288 Invalid Tags : 196610 Pr0 Tags : 98302 Pr1 Tags : 196608 num_pr0 : 12288
 SAE Count : 0
 Inter-Core Inteference in Data Store : 3063355
Heartbeat CPU 3 instructions: 200000000 cycles: 89660871 heartbeat IPC: 2.24365 cumulative IPC: 2.23063 (Simulation time: 15 hr 33 min 44 sec) 
 Total Blocks : 196608 Invalid Blocks : 0 Valid Blocks : 196608
 Total Tags : 491520 Threshold : 12288 Invalid Tags : 196611 Pr0 Tags : 98301 Pr1 Tags : 196608 num_pr0 : 12287
 SAE Count : 0
 Inter-Core Inteference in Data Store : 3063399
Heartbeat CPU 6 instructions: 200000000 cycles: 89660930 heartbeat IPC: 2.24364 cumulative IPC: 2.23063 (Simulation time: 15 hr 33 min 44 sec) 
 Total Blocks : 196608 Invalid Blocks : 0 Valid Blocks : 196608
 Total Tags : 491520 Threshold : 12288 Invalid Tags : 196611 Pr0 Tags : 98301 Pr1 Tags : 196608 num_pr0 : 12287
 SAE Count : 0
 Inter-Core Inteference in Data Store : 3063423
Heartbeat CPU 5 instructions: 200000000 cycles: 89660997 heartbeat IPC: 2.24361 cumulative IPC: 2.23062 (Simulation time: 15 hr 33 min 44 sec) 
 Total Blocks : 196608 Invalid Blocks : 0 Valid Blocks : 196608
 Total Tags : 491520 Threshold : 12288 Invalid Tags : 196613 Pr0 Tags : 98299 Pr1 Tags : 196608 num_pr0 : 12288
 SAE Count : 0
 Inter-Core Inteference in Data Store : 3063451
Heartbeat CPU 7 instructions: 200000000 cycles: 89661010 heartbeat IPC: 2.24359 cumulative IPC: 2.23062 (Simulation time: 15 hr 33 min 44 sec) 
 Total Blocks : 196608 Invalid Blocks : 0 Valid Blocks : 196608
 Total Tags : 491520 Threshold : 12288 Invalid Tags : 196611 Pr0 Tags : 98301 Pr1 Tags : 196608 num_pr0 : 12288
 SAE Count : 0
 Inter-Core Inteference in Data Store : 3063455

Warmup complete CPU 0 instructions: 200000680 cycles: 89661011 (Simulation time: 15 hr 33 min 45 sec) 
Warmup complete CPU 1 instructions: 200000628 cycles: 89661011 (Simulation time: 15 hr 33 min 45 sec) 
Warmup complete CPU 2 instructions: 200000668 cycles: 89661011 (Simulation time: 15 hr 33 min 45 sec) 
Warmup complete CPU 3 instructions: 200000372 cycles: 89661011 (Simulation time: 15 hr 33 min 45 sec) 
Warmup complete CPU 4 instructions: 200000596 cycles: 89661011 (Simulation time: 15 hr 33 min 45 sec) 
Warmup complete CPU 5 instructions: 200000056 cycles: 89661011 (Simulation time: 15 hr 33 min 45 sec) 
Warmup complete CPU 6 instructions: 200000204 cycles: 89661011 (Simulation time: 15 hr 33 min 45 sec) 
Warmup complete CPU 7 instructions: 200000004 cycles: 89661011 (Simulation time: 15 hr 33 min 45 sec) 

FILL
Heartbeat CPU 7 instructions: 210000000 cycles: 113563779 heartbeat IPC: 0.418362 cumulative IPC: 0.418361 (Simulation time: 16 hr 39 min 31 sec) 
 Total Blocks : 196608 Invalid Blocks : 0 Valid Blocks : 196608
 Total Tags : 491520 Threshold : 12288 Invalid Tags : 196608 Pr0 Tags : 98304 Pr1 Tags : 196608 num_pr0 : 12288
 SAE Count : 0
 Inter-Core Inteference in Data Store : 240408
Heartbeat CPU 4 instructions: 210000000 cycles: 113576769 heartbeat IPC: 0.41813 cumulative IPC: 0.418109 (Simulation time: 16 hr 39 min 34 sec) 
 Total Blocks : 196608 Invalid Blocks : 0 Valid Blocks : 196608
 Total Tags : 491520 Threshold : 12288 Invalid Tags : 196608 Pr0 Tags : 98304 Pr1 Tags : 196608 num_pr0 : 12288
 SAE Count : 0
 Inter-Core Inteference in Data Store : 240409
Heartbeat CPU 3 instructions: 210000000 cycles: 113576976 heartbeat IPC: 0.418128 cumulative IPC: 0.418115 (Simulation time: 16 hr 39 min 34 sec) 
 Total Blocks : 196608 Invalid Blocks : 0 Valid Blocks : 196608
 Total Tags : 491520 Threshold : 12288 Invalid Tags : 196608 Pr0 Tags : 98304 Pr1 Tags : 196608 num_pr0 : 12288
 SAE Count : 0
 Inter-Core Inteference in Data Store : 240409
Heartbeat CPU 5 instructions: 210000000 cycles: 113600201 heartbeat IPC: 0.417725 cumulative IPC: 0.417723 (Simulation time: 16 hr 39 min 37 sec) 
 Total Blocks : 196608 Invalid Blocks : 0 Valid Blocks : 196608
 Total Tags : 491520 Threshold : 12288 Invalid Tags : 196608 Pr0 Tags : 98304 Pr1 Tags : 196608 num_pr0 : 12288
 SAE Count : 0
 Inter-Core Inteference in Data Store : 240424
Heartbeat CPU 2 instructions: 210000000 cycles: 113600437 heartbeat IPC: 0.417716 cumulative IPC: 0.417693 (Simulation time: 16 hr 39 min 37 sec) 
 Total Blocks : 196608 Invalid Blocks : 0 Valid Blocks : 196608
 Total Tags : 491520 Threshold : 12288 Invalid Tags : 196608 Pr0 Tags : 98304 Pr1 Tags : 196608 num_pr0 : 12288
 SAE Count : 0
 Inter-Core Inteference in Data Store : 240424
Heartbeat CPU 6 instructions: 210000000 cycles: 113636482 heartbeat IPC: 0.417092 cumulative IPC: 0.417084 (Simulation time: 16 hr 39 min 42 sec) 
 Total Blocks : 196608 Invalid Blocks : 0 Valid Blocks : 196608
 Total Tags : 491520 Threshold : 12288 Invalid Tags : 196609 Pr0 Tags : 98303 Pr1 Tags : 196608 num_pr0 : 12288
 SAE Count : 0
 Inter-Core Inteference in Data Store : 240452
Heartbeat CPU 0 instructions: 210000000 cycles: 113652324 heartbeat IPC: 0.416813 cumulative IPC: 0.416789 (Simulation time: 16 hr 39 min 44 sec) 
 Total Blocks : 196608 Invalid Blocks : 0 Valid Blocks : 196608
 Total Tags : 491520 Threshold : 12288 Invalid Tags : 196609 Pr0 Tags : 98303 Pr1 Tags : 196608 num_pr0 : 12288
 SAE Count : 0
 Inter-Core Inteference in Data Store : 240464
Heartbeat CPU 1 instructions: 210000000 cycles: 113671158 heartbeat IPC: 0.416486 cumulative IPC: 0.416464 (Simulation time: 16 hr 39 min 47 sec) 
 Total Blocks : 196608 Invalid Blocks : 0 Valid Blocks : 196608
 Total Tags : 491520 Threshold : 12288 Invalid Tags : 196609 Pr0 Tags : 98303 Pr1 Tags : 196608 num_pr0 : 12288
 SAE Count : 0
 Inter-Core Inteference in Data Store : 240477
Heartbeat CPU 7 instructions: 220000000 cycles: 130259206 heartbeat IPC: 0.598966 cumulative IPC: 0.492633 (Simulation time: 17 hr 20 min 7 sec) 
 Total Blocks : 196608 Invalid Blocks : 0 Valid Blocks : 196608
 Total Tags : 491520 Threshold : 12288 Invalid Tags : 196611 Pr0 Tags : 98301 Pr1 Tags : 196608 num_pr0 : 12287
 SAE Count : 0
 Inter-Core Inteference in Data Store : 279856
Heartbeat CPU 4 instructions: 220000000 cycles: 130271612 heartbeat IPC: 0.598987 cumulative IPC: 0.492468 (Simulation time: 17 hr 20 min 11 sec) 
 Total Blocks : 196608 Invalid Blocks : 0 Valid Blocks : 196608
 Total Tags : 491520 Threshold : 12288 Invalid Tags : 196614 Pr0 Tags : 98298 Pr1 Tags : 196608 num_pr0 : 12288
 SAE Count : 0
 Inter-Core Inteference in Data Store : 279886
Heartbeat CPU 3 instructions: 220000000 cycles: 130271714 heartbeat IPC: 0.598991 cumulative IPC: 0.492472 (Simulation time: 17 hr 20 min 11 sec) 
 Total Blocks : 196608 Invalid Blocks : 0 Valid Blocks : 196608
 Total Tags : 491520 Threshold : 12288 Invalid Tags : 196614 Pr0 Tags : 98298 Pr1 Tags : 196608 num_pr0 : 12288
 SAE Count : 0
 Inter-Core Inteference in Data Store : 279886
Heartbeat CPU 5 instructions: 220000000 cycles: 130296155 heartbeat IPC: 0.598948 cumulative IPC: 0.492183 (Simulation time: 17 hr 20 min 14 sec) 
 Total Blocks : 196608 Invalid Blocks : 0 Valid Blocks : 196608
 Total Tags : 491520 Threshold : 12288 Invalid Tags : 196612 Pr0 Tags : 98300 Pr1 Tags : 196608 num_pr0 : 12288
 SAE Count : 0
 Inter-Core Inteference in Data Store : 279953
Heartbeat CPU 2 instructions: 220000000 cycles: 130296261 heartbeat IPC: 0.598952 cumulative IPC: 0.492167 (Simulation time: 17 hr 20 min 14 sec) 
 Total Blocks : 196608 Invalid Blocks : 0 Valid Blocks : 196608
 Total Tags : 491520 Threshold : 12288 Invalid Tags : 196614 Pr0 Tags : 98298 Pr1 Tags : 196608 num_pr0 : 12288
 SAE Count : 0
 Inter-Core Inteference in Data Store : 279954
Heartbeat CPU 6 instructions: 220000000 cycles: 130333142 heartbeat IPC: 0.598922 cumulative IPC: 0.491732 (Simulation time: 17 hr 20 min 19 sec) 
 Total Blocks : 196608 Invalid Blocks : 0 Valid Blocks : 196608
 Total Tags : 491520 Threshold : 12288 Invalid Tags : 196617 Pr0 Tags : 98295 Pr1 Tags : 196608 num_pr0 : 12287
 SAE Count : 0
 Inter-Core Inteference in Data Store : 280063
Heartbeat CPU 0 instructions: 220000000 cycles: 130347430 heartbeat IPC: 0.598978 cumulative IPC: 0.491548 (Simulation time: 17 hr 20 min 21 sec) 
 Total Blocks : 196608 Invalid Blocks : 0 Valid Blocks : 196608
 Total Tags : 491520 Threshold : 12288 Invalid Tags : 196617 Pr0 Tags : 98295 Pr1 Tags : 196608 num_pr0 : 12287
 SAE Count : 0
 Inter-Core Inteference in Data Store : 280110
Heartbeat CPU 1 instructions: 220000000 cycles: 130365977 heartbeat IPC: 0.598988 cumulative IPC: 0.491325 (Simulation time: 17 hr 20 min 24 sec) 
 Total Blocks : 196608 Invalid Blocks : 0 Valid Blocks : 196608
 Total Tags : 491520 Threshold : 12288 Invalid Tags : 196615 Pr0 Tags : 98297 Pr1 Tags : 196608 num_pr0 : 12287
 SAE Count : 0
 Inter-Core Inteference in Data Store : 280168
Heartbeat CPU 7 instructions: 230000000 cycles: 146973967 heartbeat IPC: 0.598274 cumulative IPC: 0.523442 (Simulation time: 17 hr 58 min 39 sec) 
 Total Blocks : 196608 Invalid Blocks : 0 Valid Blocks : 196608
 Total Tags : 491520 Threshold : 12288 Invalid Tags : 196609 Pr0 Tags : 98303 Pr1 Tags : 196608 num_pr0 : 12288
 SAE Count : 0
 Inter-Core Inteference in Data Store : 319474
Heartbeat CPU 3 instructions: 230000000 cycles: 146985544 heartbeat IPC: 0.598307 cumulative IPC: 0.52333 (Simulation time: 17 hr 58 min 42 sec) 
 Total Blocks : 196608 Invalid Blocks : 0 Valid Blocks : 196608
 Total Tags : 491520 Threshold : 12288 Invalid Tags : 196614 Pr0 Tags : 98298 Pr1 Tags : 196608 num_pr0 : 12288
 SAE Count : 0
 Inter-Core Inteference in Data Store : 319500
Heartbeat CPU 4 instructions: 230000000 cycles: 146985595 heartbeat IPC: 0.598301 cumulative IPC: 0.523325 (Simulation time: 17 hr 58 min 42 sec) 
 Total Blocks : 196608 Invalid Blocks : 0 Valid Blocks : 196608
 Total Tags : 491520 Threshold : 12288 Invalid Tags : 196614 Pr0 Tags : 98298 Pr1 Tags : 196608 num_pr0 : 12288
 SAE Count : 0
 Inter-Core Inteference in Data Store : 319500
Heartbeat CPU 5 instructions: 230000000 cycles: 147009706 heartbeat IPC: 0.598317 cumulative IPC: 0.523115 (Simulation time: 17 hr 58 min 45 sec) 
 Total Blocks : 196608 Invalid Blocks : 0 Valid Blocks : 196608
 Total Tags : 491520 Threshold : 12288 Invalid Tags : 196616 Pr0 Tags : 98296 Pr1 Tags : 196608 num_pr0 : 12287
 SAE Count : 0
 Inter-Core Inteference in Data Store : 319560
Heartbeat CPU 2 instructions: 230000000 cycles: 147009809 heartbeat IPC: 0.598317 cumulative IPC: 0.523103 (Simulation time: 17 hr 58 min 45 sec) 
 Total Blocks : 196608 Invalid Blocks : 0 Valid Blocks : 196608
 Total Tags : 491520 Threshold : 12288 Invalid Tags : 196616 Pr0 Tags : 98296 Pr1 Tags : 196608 num_pr0 : 12287
 SAE Count : 0
 Inter-Core Inteference in Data Store : 319561
Heartbeat CPU 6 instructions: 230000000 cycles: 147045429 heartbeat IPC: 0.598362 cumulative IPC: 0.522786 (Simulation time: 17 hr 58 min 49 sec) 
 Total Blocks : 196608 Invalid Blocks : 0 Valid Blocks : 196608
 Total Tags : 491520 Threshold : 12288 Invalid Tags : 196616 Pr0 Tags : 98296 Pr1 Tags : 196608 num_pr0 : 12287
 SAE Count : 0
 Inter-Core Inteference in Data Store : 319661
Heartbeat CPU 0 instructions: 230000000 cycles: 147057847 heartbeat IPC: 0.598429 cumulative IPC: 0.522665 (Simulation time: 17 hr 58 min 50 sec) 
 Total Blocks : 196608 Invalid Blocks : 0 Valid Blocks : 196608
 Total Tags : 491520 Threshold : 12288 Invalid Tags : 196617 Pr0 Tags : 98295 Pr1 Tags : 196608 num_pr0 : 12287
 SAE Count : 0
 Inter-Core Inteference in Data Store : 319700
Heartbeat CPU 1 instructions: 230000000 cycles: 147079277 heartbeat IPC: 0.598326 cumulative IPC: 0.522471 (Simulation time: 17 hr 58 min 53 sec) 
 Total Blocks : 196608 Invalid Blocks : 0 Valid Blocks : 196608
 Total Tags : 491520 Threshold : 12288 Invalid Tags : 196614 Pr0 Tags : 98298 Pr1 Tags : 196608 num_pr0 : 12288
 SAE Count : 0
 Inter-Core Inteference in Data Store : 319751
Heartbeat CPU 7 instructions: 240000000 cycles: 163675795 heartbeat IPC: 0.598737 cumulative IPC: 0.540433 (Simulation time: 18 hr 37 min 30 sec) 
 Total Blocks : 196608 Invalid Blocks : 0 Valid Blocks : 196608
 Total Tags : 491520 Threshold : 12288 Invalid Tags : 196610 Pr0 Tags : 98302 Pr1 Tags : 196608 num_pr0 : 12288
 SAE Count : 0
 Inter-Core Inteference in Data Store : 359365
Heartbeat CPU 4 instructions: 240000000 cycles: 163686366 heartbeat IPC: 0.598775 cumulative IPC: 0.540347 (Simulation time: 18 hr 37 min 32 sec) 
 Total Blocks : 196608 Invalid Blocks : 0 Valid Blocks : 196608
 Total Tags : 491520 Threshold : 12288 Invalid Tags : 196610 Pr0 Tags : 98302 Pr1 Tags : 196608 num_pr0 : 12288
 SAE Count : 0
 Inter-Core Inteference in Data Store : 359380
Heartbeat CPU 3 instructions: 240000000 cycles: 163686417 heartbeat IPC: 0.598771 cumulative IPC: 0.54035 (Simulation time: 18 hr 37 min 32 sec) 
 Total Blocks : 196608 Invalid Blocks : 0 Valid Blocks : 196608
 Total Tags : 491520 Threshold : 12288 Invalid Tags : 196610 Pr0 Tags : 98302 Pr1 Tags : 196608 num_pr0 : 12288
 SAE Count : 0
 Inter-Core Inteference in Data Store : 359380
Heartbeat CPU 2 instructions: 240000000 cycles: 163710452 heartbeat IPC: 0.598779 cumulative IPC: 0.540171 (Simulation time: 18 hr 37 min 34 sec) 
 Total Blocks : 196608 Invalid Blocks : 0 Valid Blocks : 196608
 Total Tags : 491520 Threshold : 12288 Invalid Tags : 196615 Pr0 Tags : 98297 Pr1 Tags : 196608 num_pr0 : 12287
 SAE Count : 0
 Inter-Core Inteference in Data Store : 359495
Heartbeat CPU 5 instructions: 240000000 cycles: 163710555 heartbeat IPC: 0.598772 cumulative IPC: 0.540178 (Simulation time: 18 hr 37 min 34 sec) 
 Total Blocks : 196608 Invalid Blocks : 0 Valid Blocks : 196608
 Total Tags : 491520 Threshold : 12288 Invalid Tags : 196615 Pr0 Tags : 98297 Pr1 Tags : 196608 num_pr0 : 12287
 SAE Count : 0
 Inter-Core Inteference in Data Store : 359496
Heartbeat CPU 6 instructions: 240000000 cycles: 163744386 heartbeat IPC: 0.59884 cumulative IPC: 0.539929 (Simulation time: 18 hr 37 min 38 sec) 
 Total Blocks : 196608 Invalid Blocks : 0 Valid Blocks : 196608
 Total Tags : 491520 Threshold : 12288 Invalid Tags : 196610 Pr0 Tags : 98302 Pr1 Tags : 196608 num_pr0 : 12288
 SAE Count : 0
 Inter-Core Inteference in Data Store : 359607
Heartbeat CPU 0 instructions: 240000000 cycles: 163756845 heartbeat IPC: 0.598838 cumulative IPC: 0.539832 (Simulation time: 18 hr 37 min 39 sec) 
 Total Blocks : 196608 Invalid Blocks : 0 Valid Blocks : 196608
 Total Tags : 491520 Threshold : 12288 Invalid Tags : 196608 Pr0 Tags : 98304 Pr1 Tags : 196608 num_pr0 : 12288
 SAE Count : 0
 Inter-Core Inteference in Data Store : 359618
Heartbeat CPU 1 instructions: 240000000 cycles: 163778997 heartbeat IPC: 0.598812 cumulative IPC: 0.539672 (Simulation time: 18 hr 37 min 42 sec) 
 Total Blocks : 196608 Invalid Blocks : 0 Valid Blocks : 196608
 Total Tags : 491520 Threshold : 12288 Invalid Tags : 196615 Pr0 Tags : 98297 Pr1 Tags : 196608 num_pr0 : 12287
 SAE Count : 0
 Inter-Core Inteference in Data Store : 359676
Heartbeat CPU 7 instructions: 250000001 cycles: 180377766 heartbeat IPC: 0.598732 cumulative IPC: 0.551166 (Simulation time: 19 hr 14 min 37 sec) 
 Total Blocks : 196608 Invalid Blocks : 0 Valid Blocks : 196608
 Total Tags : 491520 Threshold : 12288 Invalid Tags : 196614 Pr0 Tags : 98298 Pr1 Tags : 196608 num_pr0 : 12287
 SAE Count : 0
 Inter-Core Inteference in Data Store : 398552
Heartbeat CPU 3 instructions: 250000001 cycles: 180387291 heartbeat IPC: 0.598771 cumulative IPC: 0.551104 (Simulation time: 19 hr 14 min 38 sec) 
 Total Blocks : 196608 Invalid Blocks : 0 Valid Blocks : 196608
 Total Tags : 491520 Threshold : 12288 Invalid Tags : 196613 Pr0 Tags : 98299 Pr1 Tags : 196608 num_pr0 : 12288
 SAE Count : 0
 Inter-Core Inteference in Data Store : 398568
Heartbeat CPU 4 instructions: 250000001 cycles: 180387508 heartbeat IPC: 0.598761 cumulative IPC: 0.5511 (Simulation time: 19 hr 14 min 38 sec) 
 Total Blocks : 196608 Invalid Blocks : 0 Valid Blocks : 196608
 Total Tags : 491520 Threshold : 12288 Invalid Tags : 196614 Pr0 Tags : 98298 Pr1 Tags : 196608 num_pr0 : 12288
 SAE Count : 0
 Inter-Core Inteference in Data Store : 398569
Heartbeat CPU 5 instructions: 250000001 cycles: 180410393 heartbeat IPC: 0.598808 cumulative IPC: 0.550967 (Simulation time: 19 hr 14 min 41 sec) 
 Total Blocks : 196608 Invalid Blocks : 0 Valid Blocks : 196608
 Total Tags : 491520 Threshold : 12288 Invalid Tags : 196608 Pr0 Tags : 98304 Pr1 Tags : 196608 num_pr0 : 12288
 SAE Count : 0
 Inter-Core Inteference in Data Store : 398616
Heartbeat CPU 2 instructions: 250000001 cycles: 180410492 heartbeat IPC: 0.598801 cumulative IPC: 0.55096 (Simulation time: 19 hr 14 min 41 sec) 
 Total Blocks : 196608 Invalid Blocks : 0 Valid Blocks : 196608
 Total Tags : 491520 Threshold : 12288 Invalid Tags : 196608 Pr0 Tags : 98304 Pr1 Tags : 196608 num_pr0 : 12288
 SAE Count : 0
 Inter-Core Inteference in Data Store : 398616
Heartbeat CPU 6 instructions: 250000001 cycles: 180443914 heartbeat IPC: 0.598819 cumulative IPC: 0.550762 (Simulation time: 19 hr 14 min 45 sec) 
 Total Blocks : 196608 Invalid Blocks : 0 Valid Blocks : 196608
 Total Tags : 491520 Threshold : 12288 Invalid Tags : 196611 Pr0 Tags : 98301 Pr1 Tags : 196608 num_pr0 : 12288
 SAE Count : 0
 Inter-Core Inteference in Data Store : 398690
[...]
LLC4 LOAD      ACCESS:  1936  HIT:    30  MISS:  1906  HIT %: 1.54959  MISS %: 98.4504  AVERAGE MISS PENALTY: 1195.08
LLC4 RFO       ACCESS: 63366  HIT:    97  MISS: 63269  HIT %: 0.153079  MISS %: 99.8469  AVERAGE MISS PENALTY: 890.549
LLC4 PREFETCH  ACCESS: 121790  HIT:  5755  MISS: 116035  HIT %: 4.72535  MISS %: 95.2747  AVERAGE MISS PENALTY: 1220.17
LLC4 WRITEBACK ACCESS: 64252  HIT:   592  MISS: 63660  HIT %: 0.921372  MISS %: 99.0786  AVERAGE MISS PENALTY: 0
LLC4 PREFETCH  REQUESTED:     0  ISSUED:     0  USEFUL:    76  USELESS:  8486
 USEFUL LOAD PREFETCHES:         76 PREFETCH ISSUED TO LOWER LEVEL:   70647035  ACCURACY: 0.000107577
 TIMELY PREFETCHES:         76 LATE PREFETCHES: 0 DROPPED PREFETCHES: 0
LLC4 AVERAGE MISS LATENCY: 817.593 cycles

LLC4 Set Associative Eviction Count : 0
LLC4 Priority 0 entries : 12287
LLC4 Inter-Core Interference : 454436
LLC5 TOTAL     ACCESS: 251299  HIT:  6432  MISS: 244867  HIT %: 2.5595  MISS %: 97.4405  AVERAGE MISS PENALTY: 809.598
LLC5 LOAD      ACCESS:  1938  HIT:    31  MISS:  1907  HIT %: 1.59959  MISS %: 98.4004  AVERAGE MISS PENALTY: 1204.02
LLC5 RFO       ACCESS: 63364  HIT:   103  MISS: 63261  HIT %: 0.162553  MISS %: 99.8374  AVERAGE MISS PENALTY: 888.035
LLC5 PREFETCH  ACCESS: 121755  HIT:  5722  MISS: 116033  HIT %: 4.6996  MISS %: 95.3004  AVERAGE MISS PENALTY: 1204.57
LLC5 WRITEBACK ACCESS: 64242  HIT:   576  MISS: 63666  HIT %: 0.89661  MISS %: 99.1034  AVERAGE MISS PENALTY: 0
LLC5 PREFETCH  REQUESTED:     0  ISSUED:     0  USEFUL:    80  USELESS:  8575
 USEFUL LOAD PREFETCHES:         80 PREFETCH ISSUED TO LOWER LEVEL:   66068396  ACCURACY: 0.000121087
 TIMELY PREFETCHES:         80 LATE PREFETCHES: 0 DROPPED PREFETCHES: 0
LLC5 AVERAGE MISS LATENCY: 809.598 cycles

LLC5 Set Associative Eviction Count : 0
LLC5 Priority 0 entries : 12288
LLC5 Inter-Core Interference : 454316
LLC6 TOTAL     ACCESS: 251312  HIT:  6432  MISS: 244880  HIT %: 2.55937  MISS %: 97.4406  AVERAGE MISS PENALTY: 832.918
LLC6 LOAD      ACCESS:  1963  HIT:    36  MISS:  1927  HIT %: 1.83393  MISS %: 98.1661  AVERAGE MISS PENALTY: 1207.08
LLC6 RFO       ACCESS: 63369  HIT:   104  MISS: 63265  HIT %: 0.164118  MISS %: 99.8359  AVERAGE MISS PENALTY: 950.233
LLC6 PREFETCH  ACCESS: 121737  HIT:  5721  MISS: 116016  HIT %: 4.69948  MISS %: 95.3005  AVERAGE MISS PENALTY: 1219.85
LLC6 WRITEBACK ACCESS: 64243  HIT:   571  MISS: 63672  HIT %: 0.888813  MISS %: 99.1112  AVERAGE MISS PENALTY: 0
LLC6 PREFETCH  REQUESTED:     0  ISSUED:     0  USEFUL:    76  USELESS:  8574
 USEFUL LOAD PREFETCHES:         76 PREFETCH ISSUED TO LOWER LEVEL:   83600385  ACCURACY: 9.09087e-05
 TIMELY PREFETCHES:         76 LATE PREFETCHES: 0 DROPPED PREFETCHES: 0
LLC6 AVERAGE MISS LATENCY: 832.918 cycles

LLC6 Set Associative Eviction Count : 0
LLC6 Priority 0 entries : 12288
LLC6 Inter-Core Interference : 454352
LLC7 TOTAL     ACCESS: 251287  HIT:  6523  MISS: 244764  HIT %: 2.59584  MISS %: 97.4042  AVERAGE MISS PENALTY: 825.333
LLC7 LOAD      ACCESS:  1960  HIT:    23  MISS:  1937  HIT %: 1.17347  MISS %: 98.8265  AVERAGE MISS PENALTY: 1199.74
LLC7 RFO       ACCESS: 63368  HIT:   103  MISS: 63265  HIT %: 0.162543  MISS %: 99.8375  AVERAGE MISS PENALTY: 937.313
LLC7 PREFETCH  ACCESS: 121720  HIT:  5839  MISS: 115881  HIT %: 4.79708  MISS %: 95.2029  AVERAGE MISS PENALTY: 1211.49
LLC7 WRITEBACK ACCESS: 64239  HIT:   558  MISS: 63681  HIT %: 0.868631  MISS %: 99.1314  AVERAGE MISS PENALTY: 0
LLC7 PREFETCH  REQUESTED:     0  ISSUED:     0  USEFUL:    79  USELESS:  8574
 USEFUL LOAD PREFETCHES:         79 PREFETCH ISSUED TO LOWER LEVEL:   81070052  ACCURACY: 9.74466e-05
 TIMELY PREFETCHES:         79 LATE PREFETCHES: 0 DROPPED PREFETCHES: 0
LLC7 AVERAGE MISS LATENCY: 825.333 cycles

LLC7 Set Associative Eviction Count : 0
LLC7 Priority 0 entries : 12288
LLC7 Inter-Core Interference : 454259
ROI Average ROB Stall Cycles:	6.80675
ROI Total ROB Stalls Cycles:	387839979
ROI TOTAL ROB counter      :	56978754
ROI Average Load ROB Stall Cycles:	16.8617
ROI Total Load ROB Stalls Cycle  :	177369225
ROI Total Load ROB stalls Counter:	10519080
Major fault: 0 Minor fault: 27198

CPU 7 cumulative IPC: 0.475331 instructions: 200000001 cycles: 420759331
ITLB TOTAL     ACCESS: 68114628  HIT: 68114623  MISS:     5  HIT %:   100  MISS %: 7.34057e-06  AVERAGE MISS PENALTY: 109
ITLB LOAD      ACCESS: 68114628  HIT: 68114623  MISS:     5  HIT %:   100  MISS %: 7.34057e-06  AVERAGE MISS PENALTY: 109
ITLB RFO       ACCESS:     0  HIT:     0  MISS:     0  HIT %:     0  MISS %:     0  AVERAGE MISS PENALTY: 0
ITLB PREFETCH  ACCESS:     0  HIT:     0  MISS:     0  HIT %:     0  MISS %:     0  AVERAGE MISS PENALTY: 0
ITLB WRITEBACK ACCESS:     0  HIT:     0  MISS:     0  HIT %:     0  MISS %:     0  AVERAGE MISS PENALTY: 0
ITLB PREFETCH  REQUESTED:     0  ISSUED:     0  USEFUL:     0  USELESS:     0
 USEFUL LOAD PREFETCHES:          0 PREFETCH ISSUED TO LOWER LEVEL:          0  ACCURACY: -nan
 TIMELY PREFETCHES:          0 LATE PREFETCHES: 0 DROPPED PREFETCHES: 0
ITLB AVERAGE MISS LATENCY: 109 cycles

ITLB Set Associative Eviction Count : 0
ITLB Priority 0 entries : 0
ITLB Inter-Core Interference : 5
DTLB TOTAL     ACCESS: 58442265  HIT: 58326734  MISS: 115531  HIT %: 99.8023  MISS %: 0.197684  AVERAGE MISS PENALTY: 45.2133
DTLB LOAD      ACCESS: 40479832  HIT: 40382395  MISS: 97437  HIT %: 99.7593  MISS %: 0.240705  AVERAGE MISS PENALTY: 39.5793
DTLB RFO       ACCESS: 17962433  HIT: 17944339  MISS: 18094  HIT %: 99.8993  MISS %: 0.100732  AVERAGE MISS PENALTY: 75.5526
DTLB PREFETCH  ACCESS:     0  HIT:     0  MISS:     0  HIT %:     0  MISS %:     0  AVERAGE MISS PENALTY: 0
DTLB WRITEBACK ACCESS:     0  HIT:     0  MISS:     0  HIT %:     0  MISS %:     0  AVERAGE MISS PENALTY: 0
DTLB PREFETCH  REQUESTED:     0  ISSUED:     0  USEFUL:     0  USELESS:     0
 USEFUL LOAD PREFETCHES:          0 PREFETCH ISSUED TO LOWER LEVEL:          0  ACCURACY: -nan
 TIMELY PREFETCHES:          0 LATE PREFETCHES: 0 DROPPED PREFETCHES: 0
DTLB AVERAGE MISS LATENCY: 45.2133 cycles

DTLB Set Associative Eviction Count : 0
DTLB Priority 0 entries : 0
DTLB Inter-Core Interference : 0
STLB TOTAL     ACCESS: 115536  HIT: 81448  MISS: 34088  HIT %: 70.4958  MISS %: 29.5042  AVERAGE MISS PENALTY: 100
STLB LOAD      ACCESS: 97442  HIT: 74304  MISS: 23138  HIT %: 76.2546  MISS %: 23.7454  AVERAGE MISS PENALTY: 100
STLB RFO       ACCESS: 18094  HIT:  7144  MISS: 10950  HIT %: 39.4827  MISS %: 60.5173  AVERAGE MISS PENALTY: 100
STLB PREFETCH  ACCESS:     0  HIT:     0  MISS:     0  HIT %:     0  MISS %:     0  AVERAGE MISS PENALTY: 0
STLB WRITEBACK ACCESS:     0  HIT:     0  MISS:     0  HIT %:     0  MISS %:     0  AVERAGE MISS PENALTY: 0
STLB PREFETCH  REQUESTED:     0  ISSUED:     0  USEFUL:     0  USELESS:     0
 USEFUL LOAD PREFETCHES:          0 PREFETCH ISSUED TO LOWER LEVEL:          0  ACCURACY: -nan
 TIMELY PREFETCHES:          0 LATE PREFETCHES: 0 DROPPED PREFETCHES: 0
STLB AVERAGE MISS LATENCY: 100 cycles

STLB Set Associative Eviction Count : 0
STLB Priority 0 entries : 0
STLB Inter-Core Interference : 0
L1D TOTAL     ACCESS: 65560552  HIT: 64035174  MISS: 1525378  HIT %: 97.6733  MISS %: 2.32667  AVERAGE MISS PENALTY: 3.42871e+07
L1D LOAD      ACCESS: 37918526  HIT: 37700108  MISS: 218418  HIT %: 99.424  MISS %: 0.576019  AVERAGE MISS PENALTY: 2.39446e+08
L1D RFO       ACCESS: 22808258  HIT: 22300395  MISS: 507863  HIT %: 97.7733  MISS %: 2.22666  AVERAGE MISS PENALTY: 1933.88
L1D PREFETCH  ACCESS: 4833768  HIT: 4034671  MISS: 799097  HIT %: 83.4684  MISS %: 16.5316  AVERAGE MISS PENALTY: 459.97
L1D WRITEBACK ACCESS:     0  HIT:     0  MISS:     0  HIT %:     0  MISS %:     0  AVERAGE MISS PENALTY: 0
L1D PREFETCH  REQUESTED: 5585054  ISSUED: 5526728  USEFUL: 755509  USELESS: 43307
 USEFUL LOAD PREFETCHES:     755509 PREFETCH ISSUED TO LOWER LEVEL:   26214962  ACCURACY: 2.88198
 TIMELY PREFETCHES:     755509 LATE PREFETCHES: 186847 DROPPED PREFETCHES: 58326
L1D AVERAGE MISS LATENCY: 996.232 cycles

L1D Set Associative Eviction Count : 0
L1D Priority 0 entries : 0
L1D Inter-Core Interference : 0
L1I TOTAL     ACCESS: 75577463  HIT: 75577289  MISS:   174  HIT %: 99.9998  MISS %: 0.000230227  AVERAGE MISS PENALTY: 983.695
L1I LOAD      ACCESS: 75577463  HIT: 75577289  MISS:   174  HIT %: 99.9998  MISS %: 0.000230227  AVERAGE MISS PENALTY: 983.695
L1I RFO       ACCESS:     0  HIT:     0  MISS:     0  HIT %:     0  MISS %:     0  AVERAGE MISS PENALTY: 0
L1I PREFETCH  ACCESS:     0  HIT:     0  MISS:     0  HIT %:     0  MISS %:     0  AVERAGE MISS PENALTY: 0
L1I WRITEBACK ACCESS:     0  HIT:     0  MISS:     0  HIT %:     0  MISS %:     0  AVERAGE MISS PENALTY: 0
L1I PREFETCH  REQUESTED:     0  ISSUED:     0  USEFUL:     0  USELESS:     0
 USEFUL LOAD PREFETCHES:          0 PREFETCH ISSUED TO LOWER LEVEL:          0  ACCURACY: -nan
 TIMELY PREFETCHES:          0 LATE PREFETCHES: 0 DROPPED PREFETCHES: 0
L1I AVERAGE MISS LATENCY: 983.695 cycles

L1I Set Associative Eviction Count : 0
L1I Priority 0 entries : 0
L1I Inter-Core Interference : 174
L2C TOTAL     ACCESS: 2672363  HIT: 1165190  MISS: 1507173  HIT %: 43.6015  MISS %: 56.3985  AVERAGE MISS PENALTY: 3.40971e+07
L2C LOAD      ACCESS: 214129  HIT: 19688  MISS: 194441  HIT %: 9.19446  MISS %: 90.8055  AVERAGE MISS PENALTY: 2.64291e+08
L2C RFO       ACCESS: 507861  HIT:   864  MISS: 506997  HIT %: 0.170125  MISS %: 99.8299  AVERAGE MISS PENALTY: 945.559
L2C PREFETCH  ACCESS: 1434620  HIT: 640248  MISS: 794372  HIT %: 44.6284  MISS %: 55.3716  AVERAGE MISS PENALTY: 1031.58
L2C WRITEBACK ACCESS: 515753  HIT: 504390  MISS: 11363  HIT %: 97.7968  MISS %: 2.20319  AVERAGE MISS PENALTY: 0
L2C PREFETCH  REQUESTED: 1504103  ISSUED: 1503935  USEFUL:  9656  USELESS: 788622
 USEFUL LOAD PREFETCHES:       9656 PREFETCH ISSUED TO LOWER LEVEL:    1567226  ACCURACY: 0.61612
 TIMELY PREFETCHES:       9656 LATE PREFETCHES: 171771 DROPPED PREFETCHES: 168
L2C AVERAGE MISS LATENCY: 972.866 cycles

L2C Set Associative Eviction Count : 0
L2C Priority 0 entries : 0
L2C Inter-Core Interference : 0
LLC0 TOTAL     ACCESS: 250739  HIT:  6279  MISS: 244460  HIT %: 2.5042  MISS %: 97.4958  AVERAGE MISS PENALTY: 770.171
LLC0 LOAD      ACCESS: 16288  HIT:   716  MISS: 15572  HIT %: 4.39587  MISS %: 95.6041  AVERAGE MISS PENALTY: 1021.82
LLC0 RFO       ACCESS: 63371  HIT:   103  MISS: 63268  HIT %: 0.162535  MISS %: 99.8375  AVERAGE MISS PENALTY: 844.84
LLC0 PREFETCH  ACCESS: 106960  HIT:  4932  MISS: 102028  HIT %: 4.61107  MISS %: 95.3889  AVERAGE MISS PENALTY: 1165.49
LLC0 WRITEBACK ACCESS: 64120  HIT:   528  MISS: 63592  HIT %: 0.823456  MISS %: 99.1765  AVERAGE MISS PENALTY: 0
LLC0 PREFETCH  REQUESTED:     0  ISSUED:     0  USEFUL:    82  USELESS:  7447
 USEFUL LOAD PREFETCHES:         82 PREFETCH ISSUED TO LOWER LEVEL:   50283357  ACCURACY: 0.000163076
 TIMELY PREFETCHES:         82 LATE PREFETCHES: 0 DROPPED PREFETCHES: 0
LLC0 AVERAGE MISS LATENCY: 770.171 cycles

LLC0 Set Associative Eviction Count : 0
LLC0 Priority 0 entries : 12288
LLC0 Inter-Core Interference : 454163
LLC1 TOTAL     ACCESS: 251038  HIT:  6256  MISS: 244782  HIT %: 2.49205  MISS %: 97.5079  AVERAGE MISS PENALTY: 778.986
LLC1 LOAD      ACCESS:  3265  HIT:    54  MISS:  3211  HIT %: 1.65391  MISS %: 98.3461  AVERAGE MISS PENALTY: 1118.54
LLC1 RFO       ACCESS: 63378  HIT:   111  MISS: 63267  HIT %: 0.17514  MISS %: 99.8249  AVERAGE MISS PENALTY: 851.932
LLC1 PREFETCH  ACCESS: 120272  HIT:  5569  MISS: 114703  HIT %: 4.63034  MISS %: 95.3697  AVERAGE MISS PENALTY: 1161.18
LLC1 WRITEBACK ACCESS: 64123  HIT:   522  MISS: 63601  HIT %: 0.81406  MISS %: 99.1859  AVERAGE MISS PENALTY: 0
LLC1 PREFETCH  REQUESTED:     0  ISSUED:     0  USEFUL:    96  USELESS:  8660
 USEFUL LOAD PREFETCHES:         96 PREFETCH ISSUED TO LOWER LEVEL:   54608710  ACCURACY: 0.000175796
 TIMELY PREFETCHES:         96 LATE PREFETCHES: 0 DROPPED PREFETCHES: 0
LLC1 AVERAGE MISS LATENCY: 778.986 cycles

LLC1 Set Associative Eviction Count : 0
LLC1 Priority 0 entries : 12288
LLC1 Inter-Core Interference : 454781
LLC2 TOTAL     ACCESS: 251134  HIT:  6354  MISS: 244780  HIT %: 2.53012  MISS %: 97.4699  AVERAGE MISS PENALTY: 799.951
LLC2 LOAD      ACCESS:  1965  HIT:    37  MISS:  1928  HIT %: 1.88295  MISS %: 98.117  AVERAGE MISS PENALTY: 1156.12
LLC2 RFO       ACCESS: 63376  HIT:   107  MISS: 63269  HIT %: 0.168834  MISS %: 99.8312  AVERAGE MISS PENALTY: 899.368
LLC2 PREFETCH  ACCESS: 121651  HIT:  5667  MISS: 115984  HIT %: 4.65841  MISS %: 95.3416  AVERAGE MISS PENALTY: 1178.45
LLC2 WRITEBACK ACCESS: 64142  HIT:   543  MISS: 63599  HIT %: 0.846559  MISS %: 99.1534  AVERAGE MISS PENALTY: 0
LLC2 PREFETCH  REQUESTED:     0  ISSUED:     0  USEFUL:    92  USELESS:  8529
 USEFUL LOAD PREFETCHES:         92 PREFETCH ISSUED TO LOWER LEVEL:   61291209  ACCURACY: 0.000150103
 TIMELY PREFETCHES:         92 LATE PREFETCHES: 0 DROPPED PREFETCHES: 0
LLC2 AVERAGE MISS LATENCY: 799.951 cycles

LLC2 Set Associative Eviction Count : 0
LLC2 Priority 0 entries : 12288
LLC2 Inter-Core Interference : 454187
LLC3 TOTAL     ACCESS: 251161  HIT:  6222  MISS: 244939  HIT %: 2.4773  MISS %: 97.5227  AVERAGE MISS PENALTY: 807.976
LLC3 LOAD      ACCESS:  1887  HIT:    26  MISS:  1861  HIT %: 1.37785  MISS %: 98.6222  AVERAGE MISS PENALTY: 1176.26
LLC3 RFO       ACCESS: 63380  HIT:   114  MISS: 63266  HIT %: 0.179867  MISS %: 99.8201  AVERAGE MISS PENALTY: 908.28
LLC3 PREFETCH  ACCESS: 121747  HIT:  5545  MISS: 116202  HIT %: 4.55453  MISS %: 95.4455  AVERAGE MISS PENALTY: 1189.76
LLC3 WRITEBACK ACCESS: 64147  HIT:   537  MISS: 63610  HIT %: 0.83714  MISS %: 99.1629  AVERAGE MISS PENALTY: 0
LLC3 PREFETCH  REQUESTED:     0  ISSUED:     0  USEFUL:    83  USELESS:  8532
 USEFUL LOAD PREFETCHES:         83 PREFETCH ISSUED TO LOWER LEVEL:   61600780  ACCURACY: 0.000134739
 TIMELY PREFETCHES:         83 LATE PREFETCHES: 0 DROPPED PREFETCHES: 0
LLC3 AVERAGE MISS LATENCY: 807.976 cycles

LLC3 Set Associative Eviction Count : 0
LLC3 Priority 0 entries : 12288
LLC3 Inter-Core Interference : 454879
LLC4 TOTAL     ACCESS: 251238  HIT:  6258  MISS: 244980  HIT %: 2.49087  MISS %: 97.5091  AVERAGE MISS PENALTY: 811.726
LLC4 LOAD      ACCESS:  1915  HIT:    27  MISS:  1888  HIT %: 1.40992  MISS %: 98.5901  AVERAGE MISS PENALTY: 1251.67
LLC4 RFO       ACCESS: 63373  HIT:    93  MISS: 63280  HIT %: 0.14675  MISS %: 99.8532  AVERAGE MISS PENALTY: 880.926
LLC4 PREFETCH  ACCESS: 121824  HIT:  5606  MISS: 116218  HIT %: 4.60172  MISS %: 95.3983  AVERAGE MISS PENALTY: 1211.07
LLC4 WRITEBACK ACCESS: 64126  HIT:   532  MISS: 63594  HIT %: 0.829617  MISS %: 99.1704  AVERAGE MISS PENALTY: 0
LLC4 PREFETCH  REQUESTED:     0  ISSUED:     0  USEFUL:    76  USELESS:  8486
 USEFUL LOAD PREFETCHES:         76 PREFETCH ISSUED TO LOWER LEVEL:   70647035  ACCURACY: 0.000107577
 TIMELY PREFETCHES:         76 LATE PREFETCHES: 0 DROPPED PREFETCHES: 0
LLC4 AVERAGE MISS LATENCY: 811.726 cycles

LLC4 Set Associative Eviction Count : 0
LLC4 Priority 0 entries : 12287
LLC4 Inter-Core Interference : 454436
LLC5 TOTAL     ACCESS: 251186  HIT:  6285  MISS: 244901  HIT %: 2.50213  MISS %: 97.4979  AVERAGE MISS PENALTY: 803.763
LLC5 LOAD      ACCESS:  1884  HIT:    29  MISS:  1855  HIT %: 1.53928  MISS %: 98.4607  AVERAGE MISS PENALTY: 1181.91
LLC5 RFO       ACCESS: 63373  HIT:   106  MISS: 63267  HIT %: 0.167264  MISS %: 99.8327  AVERAGE MISS PENALTY: 884.121
LLC5 PREFETCH  ACCESS: 121815  HIT:  5622  MISS: 116193  HIT %: 4.6152  MISS %: 95.3848  AVERAGE MISS PENALTY: 1193.83
LLC5 WRITEBACK ACCESS: 64114  HIT:   528  MISS: 63586  HIT %: 0.823533  MISS %: 99.1765  AVERAGE MISS PENALTY: 0
LLC5 PREFETCH  REQUESTED:     0  ISSUED:     0  USEFUL:    80  USELESS:  8575
 USEFUL LOAD PREFETCHES:         80 PREFETCH ISSUED TO LOWER LEVEL:   66068396  ACCURACY: 0.000121087
 TIMELY PREFETCHES:         80 LATE PREFETCHES: 0 DROPPED PREFETCHES: 0
LLC5 AVERAGE MISS LATENCY: 803.763 cycles

LLC5 Set Associative Eviction Count : 0
LLC5 Priority 0 entries : 12288
LLC5 Inter-Core Interference : 454316
LLC6 TOTAL     ACCESS: 251191  HIT:  6388  MISS: 244803  HIT %: 2.54308  MISS %: 97.4569  AVERAGE MISS PENALTY: 831.333
LLC6 LOAD      ACCESS:  1988  HIT:    34  MISS:  1954  HIT %: 1.71026  MISS %: 98.2897  AVERAGE MISS PENALTY: 1273.97
LLC6 RFO       ACCESS: 63375  HIT:   102  MISS: 63273  HIT %: 0.160947  MISS %: 99.8391  AVERAGE MISS PENALTY: 945.263
LLC6 PREFETCH  ACCESS: 121701  HIT:  5717  MISS: 115984  HIT %: 4.69758  MISS %: 95.3024  AVERAGE MISS PENALTY: 1217.53
LLC6 WRITEBACK ACCESS: 64127  HIT:   535  MISS: 63592  HIT %: 0.834282  MISS %: 99.1657  AVERAGE MISS PENALTY: 0
LLC6 PREFETCH  REQUESTED:     0  ISSUED:     0  USEFUL:    76  USELESS:  8574
 USEFUL LOAD PREFETCHES:         76 PREFETCH ISSUED TO LOWER LEVEL:   83600385  ACCURACY: 9.09087e-05
 TIMELY PREFETCHES:         76 LATE PREFETCHES: 0 DROPPED PREFETCHES: 0
LLC6 AVERAGE MISS LATENCY: 831.333 cycles

LLC6 Set Associative Eviction Count : 0
LLC6 Priority 0 entries : 12288
LLC6 Inter-Core Interference : 454352
LLC7 TOTAL     ACCESS: 251156  HIT:  6249  MISS: 244907  HIT %: 2.4881  MISS %: 97.5119  AVERAGE MISS PENALTY: 823.615
LLC7 LOAD      ACCESS:  1936  HIT:    28  MISS:  1908  HIT %: 1.44628  MISS %: 98.5537  AVERAGE MISS PENALTY: 1243.66
LLC7 RFO       ACCESS: 63371  HIT:   104  MISS: 63267  HIT %: 0.164113  MISS %: 99.8359  AVERAGE MISS PENALTY: 930.403
LLC7 PREFETCH  ACCESS: 121715  HIT:  5589  MISS: 116126  HIT %: 4.59187  MISS %: 95.4081  AVERAGE MISS PENALTY: 1209.65
LLC7 WRITEBACK ACCESS: 64134  HIT:   528  MISS: 63606  HIT %: 0.823276  MISS %: 99.1767  AVERAGE MISS PENALTY: 0
LLC7 PREFETCH  REQUESTED:     0  ISSUED:     0  USEFUL:    79  USELESS:  8574
 USEFUL LOAD PREFETCHES:         79 PREFETCH ISSUED TO LOWER LEVEL:   81070052  ACCURACY: 9.74466e-05
 TIMELY PREFETCHES:         79 LATE PREFETCHES: 0 DROPPED PREFETCHES: 0
LLC7 AVERAGE MISS LATENCY: 823.615 cycles

LLC7 Set Associative Eviction Count : 0
LLC7 Priority 0 entries : 12288
LLC7 Inter-Core Interference : 454259
ROI Average ROB Stall Cycles:	6.80215
ROI Total ROB Stalls Cycles:	387575869
ROI TOTAL ROB counter      :	56978469
ROI Average Load ROB Stall Cycles:	16.825
ROI Total Load ROB Stalls Cycle  :	176973956
ROI Total Load ROB stalls Counter:	10518538
Major fault: 0 Minor fault: 27201








Interconnect Stats 
LINK 0 BW : 0LINK 1 BW : 0LINK 2 BW : 0LINK 3 BW : 0LINK 4 BW : 0LINK 5 BW : 0LINK 6 BW : 0LINK 7 BW : 0
DRAM Statistics
 CHANNEL 0
 RQ ROW_BUFFER_HIT: 2838803  ROW_BUFFER_MISS: 2959154
 DBUS_CONGESTED: 6887188
 WQ ROW_BUFFER_HIT: 134094  ROW_BUFFER_MISS: 1909084  FULL:   735

 CHANNEL 1
 RQ ROW_BUFFER_HIT: 2837906  ROW_BUFFER_MISS: 2961787
 DBUS_CONGESTED: 6887188
 WQ ROW_BUFFER_HIT: 135072  ROW_BUFFER_MISS: 1908148  FULL:   600

 AVG_CONGESTED_CYCLE: 6
DRAM PAGES: 2097152
Allocated PAGES: 217603
L2C destructor called
L1D destructor called
L1I destructor called
STLB destructor called
DTLB destructor called
ITLB destructor called
L2C destructor called
L1D destructor called
L1I destructor called
STLB destructor called
DTLB destructor called
ITLB destructor called
L2C destructor called
L1D destructor called
L1I destructor called
STLB destructor called
DTLB destructor called
ITLB destructor called
L2C destructor called
L1D destructor called
L1I destructor called
STLB destructor called
DTLB destructor called
ITLB destructor called
L2C destructor called
L1D destructor called
L1I destructor called
STLB destructor called
DTLB destructor called
ITLB destructor called
L2C destructor called
L1D destructor called
L1I destructor called
STLB destructor called
DTLB destructor called
ITLB destructor called
L2C destructor called
L1D destructor called
L1I destructor called
STLB destructor called
DTLB destructor called
ITLB destructor called
L2C destructor called
L1D destructor called
L1I destructor called
STLB destructor called
DTLB destructor called
ITLB destructor called
