
*** ChampSim Multicore Out-of-Order Simulator ***

Warmup Instructions: 200000000
Simulation Instructions: 200000000
Number of CPUs: 8
threads:1

L1I Configuration:
L1I_SET:64
L1I_WAY:8
L1I_RQ_SIZE:64
L1I_WQ_SIZE:64
L1I_PQ_SIZE:8
L1I_MSHR_SIZE:8

L1D Configuration:
L1D_SET:64
L1D_WAY:12
L1D_RQ_SIZE:64
L1D_WQ_SIZE:64
L1D_PQ_SIZE:8
L1D_MSHR_SIZE:16

L2C Configuration:
L2C_SET:1024
L2C_WAY:8
L2C_RQ_SIZE:32
L2C_WQ_SIZE:32
L2C_PQ_SIZE:16
L2C_MSHR_SIZE:32

LLC Configuration:
LLC_SET:2048
LLC_WAY:16
LLC SLICES:8
LLC_RQ_SIZE:64
LLC_WQ_SIZE:64
LLC_PQ_SIZE:32
LLC_MSHR_SIZE:64

Interconnect OFF
Attacker deprioritize is: OFF
Off-chip DRAM Size: 8192 MB Channels: 2 Width: 64-bit Data Rate: 3200 MT/s
PAGE SIZE in KB: 4.000000 
PAGE SIZE in MB: 0.003906 
PAGE offset in bits: 12 
CEASER-S_LLC:0
MIRAGE : 1
CEASER_LATENCY:3
REMAP : OFF
Partitions : 1
Multi-Step : OFF
BFS : OFF

CPU 0 runs /home/anubhav/gap/bc-0.trace.gz
CPU 1 runs /home/anubhav/gap/bc-0.trace.gz
CPU 2 runs /home/anubhav/gap/bc-0.trace.gz
CPU 3 runs /home/anubhav/gap/bc-0.trace.gz
CPU 4 runs /home/anubhav/gap/bc-0.trace.gz
CPU 5 runs /home/anubhav/gap/bc-0.trace.gz
CPU 6 runs /home/anubhav/gap/bc-0.trace.gz
CPU 7 runs /home/anubhav/gap/bc-0.trace.gz
CPU 0 Bimodal branch predictor
Initialize Hawkeye state
Initialize Hawkeye state
Initialize Hawkeye state
Initialize Hawkeye state
Initialize Hawkeye state
Initialize Hawkeye state
Initialize Hawkeye state
Initialize Hawkeye state
CPU 1 Bimodal branch predictor
Initialize Hawkeye state
Initialize Hawkeye state
Initialize Hawkeye state
Initialize Hawkeye state
Initialize Hawkeye state
Initialize Hawkeye state
Initialize Hawkeye state
Initialize Hawkeye state
CPU 2 Bimodal branch predictor
Initialize Hawkeye state
Initialize Hawkeye state
Initialize Hawkeye state
Initialize Hawkeye state
Initialize Hawkeye state
Initialize Hawkeye state
Initialize Hawkeye state
Initialize Hawkeye state
CPU 3 Bimodal branch predictor
Initialize Hawkeye state
Initialize Hawkeye state
Initialize Hawkeye state
Initialize Hawkeye state
Initialize Hawkeye state
Initialize Hawkeye state
Initialize Hawkeye state
Initialize Hawkeye state
CPU 4 Bimodal branch predictor
Initialize Hawkeye state
Initialize Hawkeye state
Initialize Hawkeye state
Initialize Hawkeye state
Initialize Hawkeye state
Initialize Hawkeye state
Initialize Hawkeye state
Initialize Hawkeye state
CPU 5 Bimodal branch predictor
Initialize Hawkeye state
Initialize Hawkeye state
Initialize Hawkeye state
Initialize Hawkeye state
Initialize Hawkeye state
Initialize Hawkeye state
Initialize Hawkeye state
Initialize Hawkeye state
CPU 6 Bimodal branch predictor
Initialize Hawkeye state
Initialize Hawkeye state
Initialize Hawkeye state
Initialize Hawkeye state
Initialize Hawkeye state
Initialize Hawkeye state
Initialize Hawkeye state
Initialize Hawkeye state
CPU 7 Bimodal branch predictor
Initialize Hawkeye state
Initialize Hawkeye state
Initialize Hawkeye state
Initialize Hawkeye state
Initialize Hawkeye state
Initialize Hawkeye state
Initialize Hawkeye state
Initialize Hawkeye state
Heartbeat CPU 0 instructions: 10000002 cycles: 10591584 heartbeat IPC: 0.944146 cumulative IPC: 0.944146 (Simulation time: 0 hr 31 min 8 sec) 
 Total Blocks : 262144 Invalid Blocks : 0
Heartbeat CPU 1 instructions: 10000002 cycles: 10591680 heartbeat IPC: 0.944137 cumulative IPC: 0.944137 (Simulation time: 0 hr 31 min 8 sec) 
 Total Blocks : 262144 Invalid Blocks : 0
Heartbeat CPU 2 instructions: 10000002 cycles: 10592403 heartbeat IPC: 0.944073 cumulative IPC: 0.944073 (Simulation time: 0 hr 31 min 8 sec) 
 Total Blocks : 262144 Invalid Blocks : 0
Heartbeat CPU 3 instructions: 10000002 cycles: 10593558 heartbeat IPC: 0.94397 cumulative IPC: 0.94397 (Simulation time: 0 hr 31 min 9 sec) 
 Total Blocks : 262144 Invalid Blocks : 0
Heartbeat CPU 4 instructions: 10000002 cycles: 10594378 heartbeat IPC: 0.943897 cumulative IPC: 0.943897 (Simulation time: 0 hr 31 min 9 sec) 
 Total Blocks : 262144 Invalid Blocks : 0
Heartbeat CPU 5 instructions: 10000002 cycles: 10594908 heartbeat IPC: 0.94385 cumulative IPC: 0.94385 (Simulation time: 0 hr 31 min 9 sec) 
 Total Blocks : 262144 Invalid Blocks : 0
Heartbeat CPU 6 instructions: 10000002 cycles: 10595679 heartbeat IPC: 0.943781 cumulative IPC: 0.943781 (Simulation time: 0 hr 31 min 9 sec) 
 Total Blocks : 262144 Invalid Blocks : 0
Heartbeat CPU 7 instructions: 10000002 cycles: 10595857 heartbeat IPC: 0.943765 cumulative IPC: 0.943765 (Simulation time: 0 hr 31 min 9 sec) 
 Total Blocks : 262144 Invalid Blocks : 0
Heartbeat CPU 0 instructions: 20000001 cycles: 23890554 heartbeat IPC: 0.751938 cumulative IPC: 0.837151 (Simulation time: 1 hr 3 min 13 sec) 
 Total Blocks : 262144 Invalid Blocks : 0
Heartbeat CPU 1 instructions: 20000001 cycles: 23892574 heartbeat IPC: 0.751829 cumulative IPC: 0.83708 (Simulation time: 1 hr 3 min 13 sec) 
 Total Blocks : 262144 Invalid Blocks : 0
Heartbeat CPU 2 instructions: 20000001 cycles: 23895256 heartbeat IPC: 0.751718 cumulative IPC: 0.836986 (Simulation time: 1 hr 3 min 14 sec) 
 Total Blocks : 262144 Invalid Blocks : 0
Heartbeat CPU 3 instructions: 20000001 cycles: 23898470 heartbeat IPC: 0.751602 cumulative IPC: 0.836874 (Simulation time: 1 hr 3 min 14 sec) 
 Total Blocks : 262144 Invalid Blocks : 0
Heartbeat CPU 4 instructions: 20000001 cycles: 23902587 heartbeat IPC: 0.751416 cumulative IPC: 0.83673 (Simulation time: 1 hr 3 min 14 sec) 
 Total Blocks : 262144 Invalid Blocks : 0
Heartbeat CPU 5 instructions: 20000001 cycles: 23904586 heartbeat IPC: 0.751333 cumulative IPC: 0.83666 (Simulation time: 1 hr 3 min 15 sec) 
 Total Blocks : 262144 Invalid Blocks : 0
Heartbeat CPU 6 instructions: 20000001 cycles: 23906987 heartbeat IPC: 0.751241 cumulative IPC: 0.836576 (Simulation time: 1 hr 3 min 15 sec) 
 Total Blocks : 262144 Invalid Blocks : 0
Heartbeat CPU 7 instructions: 20000001 cycles: 23909667 heartbeat IPC: 0.7511 cumulative IPC: 0.836482 (Simulation time: 1 hr 3 min 16 sec) 
 Total Blocks : 262144 Invalid Blocks : 0
Heartbeat CPU 0 instructions: 30000000 cycles: 36618431 heartbeat IPC: 0.785677 cumulative IPC: 0.81926 (Simulation time: 1 hr 37 min 51 sec) 
 Total Blocks : 262144 Invalid Blocks : 0
Heartbeat CPU 1 instructions: 30000000 cycles: 36622979 heartbeat IPC: 0.785521 cumulative IPC: 0.819158 (Simulation time: 1 hr 37 min 52 sec) 
 Total Blocks : 262144 Invalid Blocks : 0
Heartbeat CPU 2 instructions: 30000000 cycles: 36628018 heartbeat IPC: 0.785375 cumulative IPC: 0.819045 (Simulation time: 1 hr 37 min 54 sec) 
 Total Blocks : 262144 Invalid Blocks : 0
Heartbeat CPU 3 instructions: 30000000 cycles: 36633546 heartbeat IPC: 0.785233 cumulative IPC: 0.818922 (Simulation time: 1 hr 37 min 56 sec) 
 Total Blocks : 262144 Invalid Blocks : 0
Heartbeat CPU 4 instructions: 30000000 cycles: 36641707 heartbeat IPC: 0.784984 cumulative IPC: 0.818739 (Simulation time: 1 hr 37 min 58 sec) 
 Total Blocks : 262144 Invalid Blocks : 0
Heartbeat CPU 5 instructions: 30000000 cycles: 36645234 heartbeat IPC: 0.784889 cumulative IPC: 0.81866 (Simulation time: 1 hr 37 min 58 sec) 
 Total Blocks : 262144 Invalid Blocks : 0
Heartbeat CPU 6 instructions: 30000000 cycles: 36650252 heartbeat IPC: 0.784728 cumulative IPC: 0.818548 (Simulation time: 1 hr 37 min 59 sec) 
 Total Blocks : 262144 Invalid Blocks : 0
Heartbeat CPU 7 instructions: 30000000 cycles: 36654600 heartbeat IPC: 0.784625 cumulative IPC: 0.818451 (Simulation time: 1 hr 38 min 0 sec) 
 Total Blocks : 262144 Invalid Blocks : 0
Heartbeat CPU 0 instructions: 40000001 cycles: 49119295 heartbeat IPC: 0.799945 cumulative IPC: 0.814344 (Simulation time: 2 hr 11 min 54 sec) 
 Total Blocks : 262144 Invalid Blocks : 0
Heartbeat CPU 1 instructions: 40000001 cycles: 49125917 heartbeat IPC: 0.799812 cumulative IPC: 0.814234 (Simulation time: 2 hr 11 min 56 sec) 
 Total Blocks : 262144 Invalid Blocks : 0
Heartbeat CPU 2 instructions: 40000001 cycles: 49133325 heartbeat IPC: 0.799661 cumulative IPC: 0.814111 (Simulation time: 2 hr 11 min 57 sec) 
 Total Blocks : 262144 Invalid Blocks : 0
Heartbeat CPU 3 instructions: 40000001 cycles: 49141232 heartbeat IPC: 0.799508 cumulative IPC: 0.81398 (Simulation time: 2 hr 11 min 59 sec) 
 Total Blocks : 262144 Invalid Blocks : 0
Heartbeat CPU 4 instructions: 40000001 cycles: 49152576 heartbeat IPC: 0.799305 cumulative IPC: 0.813793 (Simulation time: 2 hr 12 min 0 sec) 
 Total Blocks : 262144 Invalid Blocks : 0
Heartbeat CPU 5 instructions: 40000001 cycles: 49157903 heartbeat IPC: 0.79919 cumulative IPC: 0.813704 (Simulation time: 2 hr 12 min 2 sec) 
 Total Blocks : 262144 Invalid Blocks : 0
Heartbeat CPU 6 instructions: 40000001 cycles: 49164770 heartbeat IPC: 0.799072 cumulative IPC: 0.813591 (Simulation time: 2 hr 12 min 4 sec) 
 Total Blocks : 262144 Invalid Blocks : 0
Heartbeat CPU 7 instructions: 40000001 cycles: 49171635 heartbeat IPC: 0.798911 cumulative IPC: 0.813477 (Simulation time: 2 hr 12 min 5 sec) 
 Total Blocks : 262144 Invalid Blocks : 0
Heartbeat CPU 0 instructions: 50000000 cycles: 61492964 heartbeat IPC: 0.808168 cumulative IPC: 0.813101 (Simulation time: 2 hr 46 min 36 sec) 
 Total Blocks : 262144 Invalid Blocks : 0
Heartbeat CPU 1 instructions: 50000000 cycles: 61501972 heartbeat IPC: 0.808012 cumulative IPC: 0.812982 (Simulation time: 2 hr 46 min 38 sec) 
 Total Blocks : 262144 Invalid Blocks : 0
Heartbeat CPU 2 instructions: 50000000 cycles: 61511553 heartbeat IPC: 0.80787 cumulative IPC: 0.812855 (Simulation time: 2 hr 46 min 40 sec) 
 Total Blocks : 262144 Invalid Blocks : 0
Heartbeat CPU 3 instructions: 50000000 cycles: 61521921 heartbeat IPC: 0.807709 cumulative IPC: 0.812718 (Simulation time: 2 hr 46 min 43 sec) 
 Total Blocks : 262144 Invalid Blocks : 0
Heartbeat CPU 4 instructions: 50000000 cycles: 61536220 heartbeat IPC: 0.807517 cumulative IPC: 0.81253 (Simulation time: 2 hr 46 min 46 sec) 
 Total Blocks : 262144 Invalid Blocks : 0
Heartbeat CPU 5 instructions: 50000000 cycles: 61543127 heartbeat IPC: 0.807414 cumulative IPC: 0.812438 (Simulation time: 2 hr 46 min 48 sec) 
 Total Blocks : 262144 Invalid Blocks : 0
Heartbeat CPU 6 instructions: 50000000 cycles: 61553082 heartbeat IPC: 0.807212 cumulative IPC: 0.812307 (Simulation time: 2 hr 46 min 50 sec) 
 Total Blocks : 262144 Invalid Blocks : 0
Heartbeat CPU 7 instructions: 50000000 cycles: 61560843 heartbeat IPC: 0.807154 cumulative IPC: 0.812205 (Simulation time: 2 hr 46 min 52 sec) 
 Total Blocks : 262144 Invalid Blocks : 0
Heartbeat CPU 0 instructions: 60000000 cycles: 73765412 heartbeat IPC: 0.814833 cumulative IPC: 0.813389 (Simulation time: 3 hr 22 min 48 sec) 
 Total Blocks : 262144 Invalid Blocks : 0
Heartbeat CPU 1 instructions: 60000000 cycles: 73776709 heartbeat IPC: 0.814681 cumulative IPC: 0.813265 (Simulation time: 3 hr 22 min 50 sec) 
 Total Blocks : 262144 Invalid Blocks : 0
Heartbeat CPU 2 instructions: 60000000 cycles: 73788595 heartbeat IPC: 0.814528 cumulative IPC: 0.813134 (Simulation time: 3 hr 22 min 53 sec) 
 Total Blocks : 262144 Invalid Blocks : 0
Heartbeat CPU 3 instructions: 60000000 cycles: 73801451 heartbeat IPC: 0.814363 cumulative IPC: 0.812992 (Simulation time: 3 hr 22 min 55 sec) 
 Total Blocks : 262144 Invalid Blocks : 0
Heartbeat CPU 4 instructions: 60000000 cycles: 73818750 heartbeat IPC: 0.814165 cumulative IPC: 0.812802 (Simulation time: 3 hr 22 min 58 sec) 
 Total Blocks : 262144 Invalid Blocks : 0
Heartbeat CPU 5 instructions: 60000000 cycles: 73827893 heartbeat IPC: 0.814016 cumulative IPC: 0.812701 (Simulation time: 3 hr 22 min 59 sec) 
 Total Blocks : 262144 Invalid Blocks : 0
Heartbeat CPU 6 instructions: 60000000 cycles: 73840208 heartbeat IPC: 0.81386 cumulative IPC: 0.812565 (Simulation time: 3 hr 23 min 1 sec) 
 Total Blocks : 262144 Invalid Blocks : 0
Heartbeat CPU 7 instructions: 60000000 cycles: 73849604 heartbeat IPC: 0.813752 cumulative IPC: 0.812462 (Simulation time: 3 hr 23 min 2 sec) 
 Total Blocks : 262144 Invalid Blocks : 0
Heartbeat CPU 0 instructions: 70000000 cycles: 85978360 heartbeat IPC: 0.818803 cumulative IPC: 0.814158 (Simulation time: 3 hr 59 min 57 sec) 
 Total Blocks : 262144 Invalid Blocks : 0
Heartbeat CPU 1 instructions: 70000000 cycles: 85992635 heartbeat IPC: 0.818604 cumulative IPC: 0.814023 (Simulation time: 3 hr 59 min 59 sec) 
 Total Blocks : 262144 Invalid Blocks : 0
Heartbeat CPU 2 instructions: 70000000 cycles: 86006609 heartbeat IPC: 0.818464 cumulative IPC: 0.813891 (Simulation time: 4 hr 0 min 1 sec) 
 Total Blocks : 262144 Invalid Blocks : 0
Heartbeat CPU 3 instructions: 70000000 cycles: 86021936 heartbeat IPC: 0.818298 cumulative IPC: 0.813746 (Simulation time: 4 hr 0 min 3 sec) 
 Total Blocks : 262144 Invalid Blocks : 0
Heartbeat CPU 4 instructions: 70000000 cycles: 86042086 heartbeat IPC: 0.818107 cumulative IPC: 0.813555 (Simulation time: 4 hr 0 min 6 sec) 
 Total Blocks : 262144 Invalid Blocks : 0
Heartbeat CPU 5 instructions: 70000000 cycles: 86053261 heartbeat IPC: 0.817971 cumulative IPC: 0.81345 (Simulation time: 4 hr 0 min 7 sec) 
 Total Blocks : 262144 Invalid Blocks : 0
Heartbeat CPU 6 instructions: 70000000 cycles: 86067518 heartbeat IPC: 0.817841 cumulative IPC: 0.813315 (Simulation time: 4 hr 0 min 9 sec) 
 Total Blocks : 262144 Invalid Blocks : 0
Heartbeat CPU 7 instructions: 70000000 cycles: 86079050 heartbeat IPC: 0.817699 cumulative IPC: 0.813206 (Simulation time: 4 hr 0 min 11 sec) 
 Total Blocks : 262144 Invalid Blocks : 0
Heartbeat CPU 0 instructions: 80000000 cycles: 98048005 heartbeat IPC: 0.828525 cumulative IPC: 0.815927 (Simulation time: 4 hr 40 min 56 sec) 
 Total Blocks : 262144 Invalid Blocks : 0
Heartbeat CPU 1 instructions: 80000000 cycles: 98065314 heartbeat IPC: 0.828317 cumulative IPC: 0.815783 (Simulation time: 4 hr 41 min 2 sec) 
 Total Blocks : 262144 Invalid Blocks : 0
Heartbeat CPU 2 instructions: 80000000 cycles: 98081886 heartbeat IPC: 0.828138 cumulative IPC: 0.815645 (Simulation time: 4 hr 41 min 7 sec) 
 Total Blocks : 262144 Invalid Blocks : 0
Heartbeat CPU 3 instructions: 80000000 cycles: 98099058 heartbeat IPC: 0.828012 cumulative IPC: 0.815502 (Simulation time: 4 hr 41 min 12 sec) 
 Total Blocks : 262144 Invalid Blocks : 0
Heartbeat CPU 4 instructions: 80000000 cycles: 98123075 heartbeat IPC: 0.827747 cumulative IPC: 0.815303 (Simulation time: 4 hr 41 min 17 sec) 
 Total Blocks : 262144 Invalid Blocks : 0
Heartbeat CPU 5 instructions: 80000000 cycles: 98136168 heartbeat IPC: 0.827615 cumulative IPC: 0.815194 (Simulation time: 4 hr 41 min 20 sec) 
 Total Blocks : 262144 Invalid Blocks : 0
Heartbeat CPU 6 instructions: 80000000 cycles: 98152981 heartbeat IPC: 0.82744 cumulative IPC: 0.815054 (Simulation time: 4 hr 41 min 24 sec) 
 Total Blocks : 262144 Invalid Blocks : 0
Heartbeat CPU 7 instructions: 80000000 cycles: 98166476 heartbeat IPC: 0.827306 cumulative IPC: 0.814942 (Simulation time: 4 hr 41 min 27 sec) 
 Total Blocks : 262144 Invalid Blocks : 0
Heartbeat CPU 0 instructions: 90000001 cycles: 110176830 heartbeat IPC: 0.824482 cumulative IPC: 0.816869 (Simulation time: 5 hr 20 min 8 sec) 
 Total Blocks : 262144 Invalid Blocks : 0
Heartbeat CPU 1 instructions: 90000001 cycles: 110196191 heartbeat IPC: 0.824343 cumulative IPC: 0.816725 (Simulation time: 5 hr 20 min 13 sec) 
 Total Blocks : 262144 Invalid Blocks : 0
Heartbeat CPU 2 instructions: 90000001 cycles: 110215343 heartbeat IPC: 0.824167 cumulative IPC: 0.816583 (Simulation time: 5 hr 20 min 17 sec) 
 Total Blocks : 262144 Invalid Blocks : 0
Heartbeat CPU 3 instructions: 90000001 cycles: 110235263 heartbeat IPC: 0.823981 cumulative IPC: 0.816436 (Simulation time: 5 hr 20 min 21 sec) 
 Total Blocks : 262144 Invalid Blocks : 0
Heartbeat CPU 4 instructions: 90000001 cycles: 110262220 heartbeat IPC: 0.823781 cumulative IPC: 0.816236 (Simulation time: 5 hr 20 min 27 sec) 
 Total Blocks : 262144 Invalid Blocks : 0
Heartbeat CPU 5 instructions: 90000001 cycles: 110277485 heartbeat IPC: 0.823634 cumulative IPC: 0.816123 (Simulation time: 5 hr 20 min 30 sec) 
 Total Blocks : 262144 Invalid Blocks : 0
Heartbeat CPU 6 instructions: 90000001 cycles: 110296947 heartbeat IPC: 0.823454 cumulative IPC: 0.815979 (Simulation time: 5 hr 20 min 34 sec) 
 Total Blocks : 262144 Invalid Blocks : 0
Heartbeat CPU 7 instructions: 90000001 cycles: 110312700 heartbeat IPC: 0.823301 cumulative IPC: 0.815863 (Simulation time: 5 hr 20 min 37 sec) 
 Total Blocks : 262144 Invalid Blocks : 0
Heartbeat CPU 0 instructions: 100000000 cycles: 122171283 heartbeat IPC: 0.833719 cumulative IPC: 0.818523 (Simulation time: 6 hr 0 min 40 sec) 
 Total Blocks : 262144 Invalid Blocks : 0
Heartbeat CPU 1 instructions: 100000000 cycles: 122193614 heartbeat IPC: 0.833512 cumulative IPC: 0.818373 (Simulation time: 6 hr 0 min 44 sec) 
 Total Blocks : 262144 Invalid Blocks : 0
Heartbeat CPU 2 instructions: 100000000 cycles: 122215069 heartbeat IPC: 0.833352 cumulative IPC: 0.81823 (Simulation time: 6 hr 0 min 47 sec) 
 Total Blocks : 262144 Invalid Blocks : 0
Heartbeat CPU 3 instructions: 100000000 cycles: 122237709 heartbeat IPC: 0.833163 cumulative IPC: 0.818078 (Simulation time: 6 hr 0 min 51 sec) 
 Total Blocks : 262144 Invalid Blocks : 0
Heartbeat CPU 4 instructions: 100000000 cycles: 122267792 heartbeat IPC: 0.832946 cumulative IPC: 0.817877 (Simulation time: 6 hr 0 min 55 sec) 
 Total Blocks : 262144 Invalid Blocks : 0
Heartbeat CPU 5 instructions: 100000000 cycles: 122285544 heartbeat IPC: 0.832774 cumulative IPC: 0.817758 (Simulation time: 6 hr 0 min 58 sec) 
 Total Blocks : 262144 Invalid Blocks : 0
Heartbeat CPU 6 instructions: 100000000 cycles: 122308087 heartbeat IPC: 0.83256 cumulative IPC: 0.817607 (Simulation time: 6 hr 1 min 1 sec) 
 Total Blocks : 262144 Invalid Blocks : 0
Heartbeat CPU 7 instructions: 100000000 cycles: 122325622 heartbeat IPC: 0.832437 cumulative IPC: 0.81749 (Simulation time: 6 hr 1 min 4 sec) 
 Total Blocks : 262144 Invalid Blocks : 0
Heartbeat CPU 0 instructions: 110000000 cycles: 134105946 heartbeat IPC: 0.837895 cumulative IPC: 0.820247 (Simulation time: 6 hr 44 min 6 sec) 
 Total Blocks : 262144 Invalid Blocks : 0
Heartbeat CPU 1 instructions: 110000000 cycles: 134131255 heartbeat IPC: 0.837686 cumulative IPC: 0.820092 (Simulation time: 6 hr 44 min 11 sec) 
 Total Blocks : 262144 Invalid Blocks : 0
Heartbeat CPU 2 instructions: 110000000 cycles: 134155216 heartbeat IPC: 0.837511 cumulative IPC: 0.819946 (Simulation time: 6 hr 44 min 16 sec) 
 Total Blocks : 262144 Invalid Blocks : 0
Heartbeat CPU 3 instructions: 110000000 cycles: 134181232 heartbeat IPC: 0.837274 cumulative IPC: 0.819787 (Simulation time: 6 hr 44 min 22 sec) 
 Total Blocks : 262144 Invalid Blocks : 0
Heartbeat CPU 4 instructions: 110000000 cycles: 134215023 heartbeat IPC: 0.837014 cumulative IPC: 0.81958 (Simulation time: 6 hr 44 min 29 sec) 
 Total Blocks : 262144 Invalid Blocks : 0
Heartbeat CPU 5 instructions: 110000000 cycles: 134235308 heartbeat IPC: 0.836837 cumulative IPC: 0.819457 (Simulation time: 6 hr 44 min 33 sec) 
 Total Blocks : 262144 Invalid Blocks : 0
Heartbeat CPU 6 instructions: 110000000 cycles: 134260716 heartbeat IPC: 0.836636 cumulative IPC: 0.819301 (Simulation time: 6 hr 44 min 39 sec) 
 Total Blocks : 262144 Invalid Blocks : 0
Heartbeat CPU 7 instructions: 110000000 cycles: 134280231 heartbeat IPC: 0.836497 cumulative IPC: 0.819182 (Simulation time: 6 hr 44 min 43 sec) 
 Total Blocks : 262144 Invalid Blocks : 0
Heartbeat CPU 0 instructions: 120000000 cycles: 145902495 heartbeat IPC: 0.847706 cumulative IPC: 0.822467 (Simulation time: 7 hr 31 min 22 sec) 
 Total Blocks : 262144 Invalid Blocks : 0
Heartbeat CPU 1 instructions: 120000000 cycles: 145931301 heartbeat IPC: 0.847454 cumulative IPC: 0.822305 (Simulation time: 7 hr 31 min 29 sec) 
 Total Blocks : 262144 Invalid Blocks : 0
Heartbeat CPU 2 instructions: 120000000 cycles: 145957502 heartbeat IPC: 0.847293 cumulative IPC: 0.822157 (Simulation time: 7 hr 31 min 37 sec) 
 Total Blocks : 262144 Invalid Blocks : 0
Heartbeat CPU 3 instructions: 120000000 cycles: 145987130 heartbeat IPC: 0.847034 cumulative IPC: 0.82199 (Simulation time: 7 hr 31 min 46 sec) 
 Total Blocks : 262144 Invalid Blocks : 0
Heartbeat CPU 4 instructions: 120000000 cycles: 146025218 heartbeat IPC: 0.846726 cumulative IPC: 0.821776 (Simulation time: 7 hr 31 min 56 sec) 
 Total Blocks : 262144 Invalid Blocks : 0
Heartbeat CPU 5 instructions: 120000000 cycles: 146047380 heartbeat IPC: 0.846592 cumulative IPC: 0.821651 (Simulation time: 7 hr 32 min 3 sec) 
 Total Blocks : 262144 Invalid Blocks : 0
Heartbeat CPU 6 instructions: 120000000 cycles: 146076177 heartbeat IPC: 0.846349 cumulative IPC: 0.821489 (Simulation time: 7 hr 32 min 10 sec) 
 Total Blocks : 262144 Invalid Blocks : 0
Heartbeat CPU 7 instructions: 120000000 cycles: 146098709 heartbeat IPC: 0.846133 cumulative IPC: 0.821362 (Simulation time: 7 hr 32 min 15 sec) 
 Total Blocks : 262144 Invalid Blocks : 0
Heartbeat CPU 0 instructions: 130000001 cycles: 157709127 heartbeat IPC: 0.846982 cumulative IPC: 0.824302 (Simulation time: 8 hr 18 min 10 sec) 
 Total Blocks : 262144 Invalid Blocks : 0
Heartbeat CPU 1 instructions: 130000001 cycles: 157740959 heartbeat IPC: 0.846765 cumulative IPC: 0.824136 (Simulation time: 8 hr 18 min 18 sec) 
 Total Blocks : 262144 Invalid Blocks : 0
Heartbeat CPU 2 instructions: 130000001 cycles: 157770070 heartbeat IPC: 0.846556 cumulative IPC: 0.823984 (Simulation time: 8 hr 18 min 25 sec) 
 Total Blocks : 262144 Invalid Blocks : 0
Heartbeat CPU 3 instructions: 130000001 cycles: 157802595 heartbeat IPC: 0.846348 cumulative IPC: 0.823814 (Simulation time: 8 hr 18 min 31 sec) 
 Total Blocks : 262144 Invalid Blocks : 0
Heartbeat CPU 4 instructions: 130000001 cycles: 157844679 heartbeat IPC: 0.846062 cumulative IPC: 0.823594 (Simulation time: 8 hr 18 min 39 sec) 
 Total Blocks : 262144 Invalid Blocks : 0
Heartbeat CPU 5 instructions: 130000001 cycles: 157869451 heartbeat IPC: 0.845876 cumulative IPC: 0.823465 (Simulation time: 8 hr 18 min 44 sec) 
 Total Blocks : 262144 Invalid Blocks : 0
Heartbeat CPU 6 instructions: 130000001 cycles: 157901577 heartbeat IPC: 0.845637 cumulative IPC: 0.823298 (Simulation time: 8 hr 18 min 50 sec) 
 Total Blocks : 262144 Invalid Blocks : 0
Heartbeat CPU 7 instructions: 130000001 cycles: 157926384 heartbeat IPC: 0.845475 cumulative IPC: 0.823168 (Simulation time: 8 hr 18 min 57 sec) 
 Total Blocks : 262144 Invalid Blocks : 0
Heartbeat CPU 0 instructions: 140000000 cycles: 169507928 heartbeat IPC: 0.847544 cumulative IPC: 0.82592 (Simulation time: 9 hr 6 min 21 sec) 
 Total Blocks : 262144 Invalid Blocks : 0
Heartbeat CPU 1 instructions: 140000000 cycles: 169542581 heartbeat IPC: 0.847341 cumulative IPC: 0.825751 (Simulation time: 9 hr 6 min 30 sec) 
 Total Blocks : 262144 Invalid Blocks : 0
Heartbeat CPU 2 instructions: 140000000 cycles: 169574612 heartbeat IPC: 0.847131 cumulative IPC: 0.825595 (Simulation time: 9 hr 6 min 36 sec) 
 Total Blocks : 262144 Invalid Blocks : 0
Heartbeat CPU 3 instructions: 140000000 cycles: 169609966 heartbeat IPC: 0.846928 cumulative IPC: 0.825423 (Simulation time: 9 hr 6 min 44 sec) 
 Total Blocks : 262144 Invalid Blocks : 0
Heartbeat CPU 4 instructions: 140000000 cycles: 169656010 heartbeat IPC: 0.846645 cumulative IPC: 0.825199 (Simulation time: 9 hr 6 min 55 sec) 
 Total Blocks : 262144 Invalid Blocks : 0
Heartbeat CPU 5 instructions: 140000000 cycles: 169683481 heartbeat IPC: 0.846451 cumulative IPC: 0.825066 (Simulation time: 9 hr 7 min 1 sec) 
 Total Blocks : 262144 Invalid Blocks : 0
Heartbeat CPU 6 instructions: 140000000 cycles: 169718181 heartbeat IPC: 0.846267 cumulative IPC: 0.824897 (Simulation time: 9 hr 7 min 8 sec) 
 Total Blocks : 262144 Invalid Blocks : 0
Heartbeat CPU 7 instructions: 140000000 cycles: 169745713 heartbeat IPC: 0.846072 cumulative IPC: 0.824763 (Simulation time: 9 hr 7 min 14 sec) 
 Total Blocks : 262144 Invalid Blocks : 0
Heartbeat CPU 0 instructions: 150000003 cycles: 181293044 heartbeat IPC: 0.848528 cumulative IPC: 0.82739 (Simulation time: 9 hr 57 min 9 sec) 
 Total Blocks : 262144 Invalid Blocks : 0
Heartbeat CPU 1 instructions: 150000003 cycles: 181330741 heartbeat IPC: 0.848309 cumulative IPC: 0.827218 (Simulation time: 9 hr 57 min 20 sec) 
 Total Blocks : 262144 Invalid Blocks : 0
Heartbeat CPU 2 instructions: 150000003 cycles: 181366506 heartbeat IPC: 0.84804 cumulative IPC: 0.827055 (Simulation time: 9 hr 57 min 29 sec) 
 Total Blocks : 262144 Invalid Blocks : 0
Heartbeat CPU 3 instructions: 150000003 cycles: 181404883 heartbeat IPC: 0.847823 cumulative IPC: 0.82688 (Simulation time: 9 hr 57 min 37 sec) 
 Total Blocks : 262144 Invalid Blocks : 0
Heartbeat CPU 4 instructions: 150000003 cycles: 181454093 heartbeat IPC: 0.847596 cumulative IPC: 0.826655 (Simulation time: 9 hr 57 min 49 sec) 
 Total Blocks : 262144 Invalid Blocks : 0
Heartbeat CPU 5 instructions: 150000003 cycles: 181484337 heartbeat IPC: 0.847396 cumulative IPC: 0.826518 (Simulation time: 9 hr 57 min 57 sec) 
 Total Blocks : 262144 Invalid Blocks : 0
Heartbeat CPU 6 instructions: 150000003 cycles: 181522498 heartbeat IPC: 0.847148 cumulative IPC: 0.826344 (Simulation time: 9 hr 58 min 8 sec) 
 Total Blocks : 262144 Invalid Blocks : 0
Heartbeat CPU 7 instructions: 150000003 cycles: 181551575 heartbeat IPC: 0.847037 cumulative IPC: 0.826212 (Simulation time: 9 hr 58 min 16 sec) 
 Total Blocks : 262144 Invalid Blocks : 0
Heartbeat CPU 0 instructions: 160000000 cycles: 192897731 heartbeat IPC: 0.861721 cumulative IPC: 0.829455 (Simulation time: 10 hr 48 min 36 sec) 
 Total Blocks : 262144 Invalid Blocks : 0
Heartbeat CPU 1 instructions: 160000000 cycles: 192938103 heartbeat IPC: 0.861522 cumulative IPC: 0.829282 (Simulation time: 10 hr 48 min 47 sec) 
 Total Blocks : 262144 Invalid Blocks : 0
Heartbeat CPU 2 instructions: 160000000 cycles: 192976616 heartbeat IPC: 0.861318 cumulative IPC: 0.829116 (Simulation time: 10 hr 48 min 58 sec) 
 Total Blocks : 262144 Invalid Blocks : 0
Heartbeat CPU 3 instructions: 160000000 cycles: 193018693 heartbeat IPC: 0.861044 cumulative IPC: 0.828935 (Simulation time: 10 hr 49 min 9 sec) 
 Total Blocks : 262144 Invalid Blocks : 0
Heartbeat CPU 4 instructions: 160000000 cycles: 193071488 heartbeat IPC: 0.860778 cumulative IPC: 0.828709 (Simulation time: 10 hr 49 min 24 sec) 
 Total Blocks : 262144 Invalid Blocks : 0
Heartbeat CPU 5 instructions: 160000000 cycles: 193104184 heartbeat IPC: 0.860596 cumulative IPC: 0.828568 (Simulation time: 10 hr 49 min 32 sec) 
 Total Blocks : 262144 Invalid Blocks : 0
Heartbeat CPU 6 instructions: 160000000 cycles: 193145719 heartbeat IPC: 0.860346 cumulative IPC: 0.82839 (Simulation time: 10 hr 49 min 44 sec) 
 Total Blocks : 262144 Invalid Blocks : 0
Heartbeat CPU 7 instructions: 160000000 cycles: 193176656 heartbeat IPC: 0.860209 cumulative IPC: 0.828257 (Simulation time: 10 hr 49 min 51 sec) 
 Total Blocks : 262144 Invalid Blocks : 0
Heartbeat CPU 0 instructions: 170000000 cycles: 204525125 heartbeat IPC: 0.860038 cumulative IPC: 0.831194 (Simulation time: 11 hr 40 min 2 sec) 
 Total Blocks : 262144 Invalid Blocks : 0
Heartbeat CPU 1 instructions: 170000000 cycles: 204568629 heartbeat IPC: 0.859806 cumulative IPC: 0.831017 (Simulation time: 11 hr 40 min 14 sec) 
 Total Blocks : 262144 Invalid Blocks : 0
Heartbeat CPU 2 instructions: 170000000 cycles: 204610356 heartbeat IPC: 0.859569 cumulative IPC: 0.830848 (Simulation time: 11 hr 40 min 23 sec) 
 Total Blocks : 262144 Invalid Blocks : 0
Heartbeat CPU 3 instructions: 170000000 cycles: 204655563 heartbeat IPC: 0.859338 cumulative IPC: 0.830664 (Simulation time: 11 hr 40 min 31 sec) 
 Total Blocks : 262144 Invalid Blocks : 0
Heartbeat CPU 4 instructions: 170000000 cycles: 204711861 heartbeat IPC: 0.859079 cumulative IPC: 0.830436 (Simulation time: 11 hr 40 min 43 sec) 
 Total Blocks : 262144 Invalid Blocks : 0
Heartbeat CPU 5 instructions: 170000000 cycles: 204746595 heartbeat IPC: 0.858929 cumulative IPC: 0.830295 (Simulation time: 11 hr 40 min 51 sec) 
 Total Blocks : 262144 Invalid Blocks : 0
Heartbeat CPU 6 instructions: 170000000 cycles: 204792316 heartbeat IPC: 0.85862 cumulative IPC: 0.830109 (Simulation time: 11 hr 41 min 2 sec) 
 Total Blocks : 262144 Invalid Blocks : 0
Heartbeat CPU 7 instructions: 170000000 cycles: 204824947 heartbeat IPC: 0.858495 cumulative IPC: 0.829977 (Simulation time: 11 hr 41 min 11 sec) 
 Total Blocks : 262144 Invalid Blocks : 0
Heartbeat CPU 0 instructions: 180000000 cycles: 216146198 heartbeat IPC: 0.860506 cumulative IPC: 0.83277 (Simulation time: 12 hr 33 min 41 sec) 
 Total Blocks : 262144 Invalid Blocks : 0
Heartbeat CPU 1 instructions: 180000000 cycles: 216193112 heartbeat IPC: 0.860253 cumulative IPC: 0.832589 (Simulation time: 12 hr 33 min 53 sec) 
 Total Blocks : 262144 Invalid Blocks : 0
Heartbeat CPU 2 instructions: 180000000 cycles: 216238125 heartbeat IPC: 0.86001 cumulative IPC: 0.832416 (Simulation time: 12 hr 34 min 3 sec) 
 Total Blocks : 262144 Invalid Blocks : 0
Heartbeat CPU 3 instructions: 180000000 cycles: 216286301 heartbeat IPC: 0.859791 cumulative IPC: 0.83223 (Simulation time: 12 hr 34 min 19 sec) 
 Total Blocks : 262144 Invalid Blocks : 0
Heartbeat CPU 4 instructions: 180000000 cycles: 216346218 heartbeat IPC: 0.859523 cumulative IPC: 0.832 (Simulation time: 12 hr 34 min 36 sec) 
 Total Blocks : 262144 Invalid Blocks : 0
Heartbeat CPU 5 instructions: 180000000 cycles: 216383444 heartbeat IPC: 0.859339 cumulative IPC: 0.831857 (Simulation time: 12 hr 34 min 47 sec) 
 Total Blocks : 262144 Invalid Blocks : 0
Heartbeat CPU 6 instructions: 180000000 cycles: 216432644 heartbeat IPC: 0.859082 cumulative IPC: 0.831668 (Simulation time: 12 hr 35 min 0 sec) 
 Total Blocks : 262144 Invalid Blocks : 0
Heartbeat CPU 7 instructions: 180000000 cycles: 216467037 heartbeat IPC: 0.858952 cumulative IPC: 0.831535 (Simulation time: 12 hr 35 min 10 sec) 
 Total Blocks : 262144 Invalid Blocks : 0
Heartbeat CPU 0 instructions: 190000003 cycles: 227757906 heartbeat IPC: 0.8612 cumulative IPC: 0.834219 (Simulation time: 13 hr 29 min 50 sec) 
 Total Blocks : 262144 Invalid Blocks : 0
Heartbeat CPU 1 instructions: 190000003 cycles: 227808278 heartbeat IPC: 0.860944 cumulative IPC: 0.834035 (Simulation time: 13 hr 30 min 5 sec) 
 Total Blocks : 262144 Invalid Blocks : 0
Heartbeat CPU 2 instructions: 190000003 cycles: 227855972 heartbeat IPC: 0.860745 cumulative IPC: 0.83386 (Simulation time: 13 hr 30 min 18 sec) 
 Total Blocks : 262144 Invalid Blocks : 0
Heartbeat CPU 3 instructions: 190000003 cycles: 227907522 heartbeat IPC: 0.860495 cumulative IPC: 0.833672 (Simulation time: 13 hr 30 min 34 sec) 
 Total Blocks : 262144 Invalid Blocks : 0
Heartbeat CPU 4 instructions: 190000003 cycles: 227971310 heartbeat IPC: 0.860209 cumulative IPC: 0.833438 (Simulation time: 13 hr 30 min 53 sec) 
 Total Blocks : 262144 Invalid Blocks : 0
Heartbeat CPU 5 instructions: 190000003 cycles: 228011218 heartbeat IPC: 0.86001 cumulative IPC: 0.833292 (Simulation time: 13 hr 31 min 7 sec) 
 Total Blocks : 262144 Invalid Blocks : 0
Heartbeat CPU 6 instructions: 190000003 cycles: 228063633 heartbeat IPC: 0.859772 cumulative IPC: 0.833101 (Simulation time: 13 hr 31 min 24 sec) 
 Total Blocks : 262144 Invalid Blocks : 0
Heartbeat CPU 7 instructions: 190000003 cycles: 228100101 heartbeat IPC: 0.859619 cumulative IPC: 0.832968 (Simulation time: 13 hr 31 min 34 sec) 
 Total Blocks : 262144 Invalid Blocks : 0
Heartbeat CPU 0 instructions: 200000002 cycles: 239398724 heartbeat IPC: 0.859046 cumulative IPC: 0.835426 (Simulation time: 14 hr 25 min 55 sec) 
 Total Blocks : 262144 Invalid Blocks : 0
Heartbeat CPU 1 instructions: 200000002 cycles: 239452441 heartbeat IPC: 0.858799 cumulative IPC: 0.835239 (Simulation time: 14 hr 26 min 11 sec) 
 Total Blocks : 262144 Invalid Blocks : 0
Heartbeat CPU 2 instructions: 200000002 cycles: 239502920 heartbeat IPC: 0.858594 cumulative IPC: 0.835063 (Simulation time: 14 hr 26 min 28 sec) 
 Total Blocks : 262144 Invalid Blocks : 0
Heartbeat CPU 3 instructions: 200000002 cycles: 239557183 heartbeat IPC: 0.858394 cumulative IPC: 0.834874 (Simulation time: 14 hr 26 min 45 sec) 
 Total Blocks : 262144 Invalid Blocks : 0
Heartbeat CPU 4 instructions: 200000002 cycles: 239624911 heartbeat IPC: 0.858104 cumulative IPC: 0.834638 (Simulation time: 14 hr 27 min 7 sec) 
 Total Blocks : 262144 Invalid Blocks : 0
Heartbeat CPU 5 instructions: 200000002 cycles: 239668023 heartbeat IPC: 0.857868 cumulative IPC: 0.834488 (Simulation time: 14 hr 27 min 21 sec) 
 Total Blocks : 262144 Invalid Blocks : 0
Heartbeat CPU 6 instructions: 200000002 cycles: 239722658 heartbeat IPC: 0.857705 cumulative IPC: 0.834297 (Simulation time: 14 hr 27 min 40 sec) 
 Total Blocks : 262144 Invalid Blocks : 0
Heartbeat CPU 7 instructions: 200000002 cycles: 239761553 heartbeat IPC: 0.857526 cumulative IPC: 0.834162 (Simulation time: 14 hr 27 min 53 sec) 
 Total Blocks : 262144 Invalid Blocks : 0

Warmup complete CPU 0 instructions: 200321154 cycles: 239761553 (Simulation time: 14 hr 27 min 53 sec) 
Warmup complete CPU 1 instructions: 200272567 cycles: 239761553 (Simulation time: 14 hr 27 min 53 sec) 
Warmup complete CPU 2 instructions: 200227896 cycles: 239761553 (Simulation time: 14 hr 27 min 53 sec) 
Warmup complete CPU 3 instructions: 200179457 cycles: 239761553 (Simulation time: 14 hr 27 min 53 sec) 
Warmup complete CPU 4 instructions: 200121128 cycles: 239761553 (Simulation time: 14 hr 27 min 53 sec) 
Warmup complete CPU 5 instructions: 200082524 cycles: 239761553 (Simulation time: 14 hr 27 min 53 sec) 
Warmup complete CPU 6 instructions: 200034709 cycles: 239761553 (Simulation time: 14 hr 27 min 53 sec) 
Warmup complete CPU 7 instructions: 200000002 cycles: 239761553 (Simulation time: 14 hr 27 min 53 sec) 

Heartbeat CPU 0 instructions: 210000001 cycles: 459265874 heartbeat IPC: 0.045482 cumulative IPC: 0.0440941 (Simulation time: 16 hr 52 min 20 sec) 
 Total Blocks : 262144 Invalid Blocks : 0
Heartbeat CPU 1 instructions: 210000001 cycles: 460082813 heartbeat IPC: 0.0453247 cumulative IPC: 0.0441511 (Simulation time: 16 hr 52 min 55 sec) 
 Total Blocks : 262144 Invalid Blocks : 0
Heartbeat CPU 2 instructions: 210000001 cycles: 461193980 heartbeat IPC: 0.0451078 cumulative IPC: 0.0441313 (Simulation time: 16 hr 53 min 43 sec) 
 Total Blocks : 262144 Invalid Blocks : 0
Heartbeat CPU 3 instructions: 210000001 cycles: 461870755 heartbeat IPC: 0.0449815 cumulative IPC: 0.0442149 (Simulation time: 16 hr 54 min 13 sec) 
 Total Blocks : 262144 Invalid Blocks : 0
Heartbeat CPU 4 instructions: 210000001 cycles: 463428056 heartbeat IPC: 0.0446821 cumulative IPC: 0.0441679 (Simulation time: 16 hr 55 min 18 sec) 
 Total Blocks : 262144 Invalid Blocks : 0
Heartbeat CPU 5 instructions: 210000001 cycles: 464560199 heartbeat IPC: 0.0444658 cumulative IPC: 0.0441172 (Simulation time: 16 hr 56 min 4 sec) 
 Total Blocks : 262144 Invalid Blocks : 0
Heartbeat CPU 6 instructions: 210000001 cycles: 465422386 heartbeat IPC: 0.0443067 cumulative IPC: 0.0441605 (Simulation time: 16 hr 56 min 41 sec) 
 Total Blocks : 262144 Invalid Blocks : 0
Heartbeat CPU 7 instructions: 210000001 cycles: 465968727 heartbeat IPC: 0.0442073 cumulative IPC: 0.0442073 (Simulation time: 16 hr 57 min 3 sec) 
 Total Blocks : 262144 Invalid Blocks : 0
Heartbeat CPU 1 instructions: 220000000 cycles: 683755638 heartbeat IPC: 0.0447082 cumulative IPC: 0.0444317 (Simulation time: 19 hr 15 min 15 sec) 
 Total Blocks : 262144 Invalid Blocks : 0
Heartbeat CPU 0 instructions: 220000000 cycles: 683887710 heartbeat IPC: 0.0445193 cumulative IPC: 0.0443091 (Simulation time: 19 hr 15 min 19 sec) 
 Total Blocks : 262144 Invalid Blocks : 0
Heartbeat CPU 2 instructions: 220000000 cycles: 685771679 heartbeat IPC: 0.044528 cumulative IPC: 0.0443311 (Simulation time: 19 hr 16 min 34 sec) 
 Total Blocks : 262144 Invalid Blocks : 0
Heartbeat CPU 3 instructions: 220000000 cycles: 686585609 heartbeat IPC: 0.0445008 cumulative IPC: 0.0443587 (Simulation time: 19 hr 17 min 5 sec) 
 Total Blocks : 262144 Invalid Blocks : 0
Heartbeat CPU 4 instructions: 220000000 cycles: 688354292 heartbeat IPC: 0.044459 cumulative IPC: 0.0443139 (Simulation time: 19 hr 18 min 12 sec) 
 Total Blocks : 262144 Invalid Blocks : 0
Heartbeat CPU 5 instructions: 220000000 cycles: 689515973 heartbeat IPC: 0.0444532 cumulative IPC: 0.0442852 (Simulation time: 19 hr 18 min 57 sec) 
 Total Blocks : 262144 Invalid Blocks : 0
Heartbeat CPU 6 instructions: 220000000 cycles: 690509426 heartbeat IPC: 0.0444273 cumulative IPC: 0.0442937 (Simulation time: 19 hr 19 min 36 sec) 
 Total Blocks : 262144 Invalid Blocks : 0
Heartbeat CPU 7 instructions: 220000000 cycles: 690561276 heartbeat IPC: 0.0445251 cumulative IPC: 0.0443656 (Simulation time: 19 hr 19 min 38 sec) 
 Total Blocks : 262144 Invalid Blocks : 0
Heartbeat CPU 1 instructions: 230000000 cycles: 906888263 heartbeat IPC: 0.0448164 cumulative IPC: 0.0445604 (Simulation time: 21 hr 32 min 5 sec) 
 Total Blocks : 262144 Invalid Blocks : 0
Heartbeat CPU 0 instructions: 230000001 cycles: 907309389 heartbeat IPC: 0.0447584 cumulative IPC: 0.0444595 (Simulation time: 21 hr 32 min 22 sec) 
 Total Blocks : 262144 Invalid Blocks : 0
Heartbeat CPU 2 instructions: 230000000 cycles: 908530807 heartbeat IPC: 0.0448915 cumulative IPC: 0.0445178 (Simulation time: 21 hr 33 min 8 sec) 
 Total Blocks : 262144 Invalid Blocks : 0
Heartbeat CPU 3 instructions: 230000001 cycles: 909748882 heartbeat IPC: 0.0448102 cumulative IPC: 0.0445091 (Simulation time: 21 hr 33 min 52 sec) 
 Total Blocks : 262144 Invalid Blocks : 0
Heartbeat CPU 4 instructions: 230000001 cycles: 911952263 heartbeat IPC: 0.0447231 cumulative IPC: 0.04445 (Simulation time: 21 hr 34 min 45 sec) 
 Total Blocks : 262144 Invalid Blocks : 0
Heartbeat CPU 5 instructions: 230000001 cycles: 912493705 heartbeat IPC: 0.0448475 cumulative IPC: 0.0444716 (Simulation time: 21 hr 35 min 2 sec) 
 Total Blocks : 262144 Invalid Blocks : 0
Heartbeat CPU 6 instructions: 230000000 cycles: 913656947 heartbeat IPC: 0.0448134 cumulative IPC: 0.0444658 (Simulation time: 21 hr 35 min 44 sec) 
 Total Blocks : 262144 Invalid Blocks : 0
Heartbeat CPU 7 instructions: 230000000 cycles: 913810718 heartbeat IPC: 0.0447929 cumulative IPC: 0.0445071 (Simulation time: 21 hr 35 min 51 sec) 
 Total Blocks : 262144 Invalid Blocks : 0
Heartbeat CPU 1 instructions: 240000001 cycles: 1129366518 heartbeat IPC: 0.0449482 cumulative IPC: 0.0446574 (Simulation time: 23 hr 43 min 5 sec) 
 Total Blocks : 262144 Invalid Blocks : 0
Heartbeat CPU 0 instructions: 240000001 cycles: 1129772201 heartbeat IPC: 0.0449513 cumulative IPC: 0.0445824 (Simulation time: 23 hr 43 min 18 sec) 
 Total Blocks : 262144 Invalid Blocks : 0
Heartbeat CPU 2 instructions: 240000002 cycles: 1130487738 heartbeat IPC: 0.0450538 cumulative IPC: 0.0446513 (Simulation time: 23 hr 43 min 45 sec) 
 Total Blocks : 262144 Invalid Blocks : 0
Heartbeat CPU 3 instructions: 240000002 cycles: 1132016177 heartbeat IPC: 0.0449909 cumulative IPC: 0.0446291 (Simulation time: 23 hr 44 min 47 sec) 
 Total Blocks : 262144 Invalid Blocks : 0
Heartbeat CPU 5 instructions: 240000001 cycles: 1134656250 heartbeat IPC: 0.0450121 cumulative IPC: 0.0446058 (Simulation time: 23 hr 45 min 58 sec) 
 Total Blocks : 262144 Invalid Blocks : 0
Heartbeat CPU 4 instructions: 240000001 cycles: 1134945068 heartbeat IPC: 0.0448445 cumulative IPC: 0.0445483 (Simulation time: 23 hr 46 min 6 sec) 
 Total Blocks : 262144 Invalid Blocks : 0
Heartbeat CPU 7 instructions: 240000002 cycles: 1136269106 heartbeat IPC: 0.0449522 cumulative IPC: 0.0446176 (Simulation time: 23 hr 46 min 45 sec) 
 Total Blocks : 262144 Invalid Blocks : 0
Heartbeat CPU 6 instructions: 240000001 cycles: 1136351639 heartbeat IPC: 0.0449045 cumulative IPC: 0.0445748 (Simulation time: 23 hr 46 min 48 sec) 
 Total Blocks : 262144 Invalid Blocks : 0
Heartbeat CPU 2 instructions: 250000002 cycles: 1351256908 heartbeat IPC: 0.0452962 cumulative IPC: 0.0447794 (Simulation time: 25 hr 57 min 10 sec) 
 Total Blocks : 262144 Invalid Blocks : 0
Heartbeat CPU 1 instructions: 250000002 cycles: 1351348613 heartbeat IPC: 0.0450487 cumulative IPC: 0.0447355 (Simulation time: 25 hr 57 min 14 sec) 
 Total Blocks : 262144 Invalid Blocks : 0
Heartbeat CPU 0 instructions: 250000002 cycles: 1352092303 heartbeat IPC: 0.0449802 cumulative IPC: 0.0446619 (Simulation time: 25 hr 57 min 41 sec) 
 Total Blocks : 262144 Invalid Blocks : 0
Heartbeat CPU 3 instructions: 250000001 cycles: 1354244239 heartbeat IPC: 0.0449988 cumulative IPC: 0.0447028 (Simulation time: 25 hr 58 min 58 sec) 
 Total Blocks : 262144 Invalid Blocks : 0
Heartbeat CPU 5 instructions: 250000003 cycles: 1356769422 heartbeat IPC: 0.0450221 cumulative IPC: 0.0446886 (Simulation time: 26 hr 0 min 31 sec) 
 Total Blocks : 262144 Invalid Blocks : 0
Heartbeat CPU 4 instructions: 250000003 cycles: 1356769486 heartbeat IPC: 0.0450807 cumulative IPC: 0.044654 (Simulation time: 26 hr 0 min 31 sec) 
 Total Blocks : 262144 Invalid Blocks : 0
Heartbeat CPU 7 instructions: 250000002 cycles: 1357647621 heartbeat IPC: 0.0451715 cumulative IPC: 0.0447273 (Simulation time: 26 hr 1 min 4 sec) 
 Total Blocks : 262144 Invalid Blocks : 0
Heartbeat CPU 6 instructions: 250000002 cycles: 1358320436 heartbeat IPC: 0.0450514 cumulative IPC: 0.0446693 (Simulation time: 26 hr 1 min 30 sec) 
 Total Blocks : 262144 Invalid Blocks : 0
Heartbeat CPU 2 instructions: 260000000 cycles: 1572684168 heartbeat IPC: 0.0451615 cumulative IPC: 0.0448429 (Simulation time: 28 hr 13 min 47 sec) 
 Total Blocks : 262144 Invalid Blocks : 0
Heartbeat CPU 1 instructions: 260000002 cycles: 1573365835 heartbeat IPC: 0.0450415 cumulative IPC: 0.0447865 (Simulation time: 28 hr 14 min 2 sec) 
 Total Blocks : 262144 Invalid Blocks : 0
Heartbeat CPU 0 instructions: 260000000 cycles: 1573711083 heartbeat IPC: 0.0451225 cumulative IPC: 0.0447385 (Simulation time: 28 hr 14 min 11 sec) 
 Total Blocks : 262144 Invalid Blocks : 0
Heartbeat CPU 3 instructions: 260000000 cycles: 1575324547 heartbeat IPC: 0.0452324 cumulative IPC: 0.0447905 (Simulation time: 28 hr 14 min 51 sec) 
 Total Blocks : 262144 Invalid Blocks : 0
Heartbeat CPU 4 instructions: 260000000 cycles: 1578740227 heartbeat IPC: 0.045051 cumulative IPC: 0.0447198 (Simulation time: 28 hr 16 min 14 sec) 
 Total Blocks : 262144 Invalid Blocks : 0
Heartbeat CPU 5 instructions: 260000000 cycles: 1578778301 heartbeat IPC: 0.0450432 cumulative IPC: 0.0447474 (Simulation time: 28 hr 16 min 14 sec) 
 Total Blocks : 262144 Invalid Blocks : 0
Heartbeat CPU 7 instructions: 260000000 cycles: 1579741017 heartbeat IPC: 0.0450261 cumulative IPC: 0.0447768 (Simulation time: 28 hr 16 min 49 sec) 
 Total Blocks : 262144 Invalid Blocks : 0
Heartbeat CPU 6 instructions: 260000000 cycles: 1580320764 heartbeat IPC: 0.045045 cumulative IPC: 0.0447315 (Simulation time: 28 hr 17 min 11 sec) 
 Total Blocks : 262144 Invalid Blocks : 0
Heartbeat CPU 2 instructions: 270000001 cycles: 1793388410 heartbeat IPC: 0.0453095 cumulative IPC: 0.0449092 (Simulation time: 30 hr 13 min 47 sec) 
 Total Blocks : 262144 Invalid Blocks : 0
Heartbeat CPU 1 instructions: 270000001 cycles: 1794752637 heartbeat IPC: 0.0451698 cumulative IPC: 0.0448411 (Simulation time: 30 hr 14 min 33 sec) 
 Total Blocks : 262144 Invalid Blocks : 0
Heartbeat CPU 0 instructions: 270000001 cycles: 1794943326 heartbeat IPC: 0.0452014 cumulative IPC: 0.0448043 (Simulation time: 30 hr 14 min 40 sec) 
 Total Blocks : 262144 Invalid Blocks : 0
Heartbeat CPU 3 instructions: 270000001 cycles: 1795879224 heartbeat IPC: 0.0453402 cumulative IPC: 0.0448684 (Simulation time: 30 hr 15 min 10 sec) 
 Total Blocks : 262144 Invalid Blocks : 0
Heartbeat CPU 5 instructions: 270000001 cycles: 1799957500 heartbeat IPC: 0.0452122 cumulative IPC: 0.0448133 (Simulation time: 30 hr 17 min 26 sec) 
 Total Blocks : 262144 Invalid Blocks : 0
Heartbeat CPU 4 instructions: 270000000 cycles: 1800094986 heartbeat IPC: 0.0451763 cumulative IPC: 0.0447846 (Simulation time: 30 hr 17 min 30 sec) 
 Total Blocks : 262144 Invalid Blocks : 0
Heartbeat CPU 7 instructions: 270000001 cycles: 1800208707 heartbeat IPC: 0.0453581 cumulative IPC: 0.0448589 (Simulation time: 30 hr 17 min 33 sec) 
 Total Blocks : 262144 Invalid Blocks : 0
Heartbeat CPU 6 instructions: 270000001 cycles: 1801499360 heartbeat IPC: 0.0452123 cumulative IPC: 0.0447996 (Simulation time: 30 hr 18 min 15 sec) 
 Total Blocks : 262144 Invalid Blocks : 0
Heartbeat CPU 2 instructions: 280000002 cycles: 2013674972 heartbeat IPC: 0.0453954 cumulative IPC: 0.0449696 (Simulation time: 32 hr 14 min 23 sec) 
 Total Blocks : 262144 Invalid Blocks : 0
Heartbeat CPU 1 instructions: 280000001 cycles: 2015353893 heartbeat IPC: 0.0453307 cumulative IPC: 0.0449019 (Simulation time: 32 hr 15 min 1 sec) 
 Total Blocks : 262144 Invalid Blocks : 0
Heartbeat CPU 0 instructions: 280000001 cycles: 2015372189 heartbeat IPC: 0.0453661 cumulative IPC: 0.0448741 (Simulation time: 32 hr 15 min 1 sec) 
 Total Blocks : 262144 Invalid Blocks : 0
Heartbeat CPU 3 instructions: 280000002 cycles: 2016174069 heartbeat IPC: 0.0453937 cumulative IPC: 0.0449336 (Simulation time: 32 hr 15 min 18 sec) 
 Total Blocks : 262144 Invalid Blocks : 0
Heartbeat CPU 4 instructions: 280000001 cycles: 2020178329 heartbeat IPC: 0.0454373 cumulative IPC: 0.0448653 (Simulation time: 32 hr 16 min 43 sec) 
 Total Blocks : 262144 Invalid Blocks : 0
Heartbeat CPU 7 instructions: 280000001 cycles: 2020308441 heartbeat IPC: 0.0454339 cumulative IPC: 0.04493 (Simulation time: 32 hr 16 min 46 sec) 
 Total Blocks : 262144 Invalid Blocks : 0
Heartbeat CPU 5 instructions: 280000001 cycles: 2020504758 heartbeat IPC: 0.0453418 cumulative IPC: 0.0448787 (Simulation time: 32 hr 16 min 50 sec) 
 Total Blocks : 262144 Invalid Blocks : 0
Heartbeat CPU 6 instructions: 280000001 cycles: 2022098781 heartbeat IPC: 0.045331 cumulative IPC: 0.0448654 (Simulation time: 32 hr 17 min 24 sec) 
 Total Blocks : 262144 Invalid Blocks : 0
Heartbeat CPU 2 instructions: 290000003 cycles: 2234019523 heartbeat IPC: 0.0453835 cumulative IPC: 0.0450153 (Simulation time: 34 hr 10 min 54 sec) 
 Total Blocks : 262144 Invalid Blocks : 0
Heartbeat CPU 0 instructions: 290000000 cycles: 2235573163 heartbeat IPC: 0.0454131 cumulative IPC: 0.0449335 (Simulation time: 34 hr 11 min 47 sec) 
 Total Blocks : 262144 Invalid Blocks : 0
Heartbeat CPU 1 instructions: 290000003 cycles: 2235950669 heartbeat IPC: 0.0453316 cumulative IPC: 0.0449494 (Simulation time: 34 hr 11 min 59 sec) 
 Total Blocks : 262144 Invalid Blocks : 0
Heartbeat CPU 3 instructions: 290000003 cycles: 2236575134 heartbeat IPC: 0.0453718 cumulative IPC: 0.0449819 (Simulation time: 34 hr 12 min 19 sec) 
 Total Blocks : 262144 Invalid Blocks : 0
Heartbeat CPU 7 instructions: 290000000 cycles: 2240481749 heartbeat IPC: 0.0454188 cumulative IPC: 0.0449838 (Simulation time: 34 hr 14 min 33 sec) 
 Total Blocks : 262144 Invalid Blocks : 0
Heartbeat CPU 5 instructions: 290000003 cycles: 2241027749 heartbeat IPC: 0.0453468 cumulative IPC: 0.0449303 (Simulation time: 34 hr 14 min 50 sec) 
 Total Blocks : 262144 Invalid Blocks : 0
Heartbeat CPU 4 instructions: 290000000 cycles: 2241169211 heartbeat IPC: 0.0452507 cumulative IPC: 0.0449078 (Simulation time: 34 hr 14 min 55 sec) 
 Total Blocks : 262144 Invalid Blocks : 0
Heartbeat CPU 6 instructions: 290000000 cycles: 2242221254 heartbeat IPC: 0.0454293 cumulative IPC: 0.0449274 (Simulation time: 34 hr 15 min 29 sec) 
 Total Blocks : 262144 Invalid Blocks : 0
Heartbeat CPU 2 instructions: 300000003 cycles: 2454979929 heartbeat IPC: 0.045257 cumulative IPC: 0.0450394 (Simulation time: 36 hr 15 min 3 sec) 
 Total Blocks : 262144 Invalid Blocks : 0
Heartbeat CPU 1 instructions: 300000003 cycles: 2456196225 heartbeat IPC: 0.0454039 cumulative IPC: 0.0449945 (Simulation time: 36 hr 15 min 45 sec) 
 Total Blocks : 262144 Invalid Blocks : 0
Heartbeat CPU 0 instructions: 300000003 cycles: 2456222096 heartbeat IPC: 0.0453209 cumulative IPC: 0.0449721 (Simulation time: 36 hr 15 min 45 sec) 
 Total Blocks : 262144 Invalid Blocks : 0
Heartbeat CPU 3 instructions: 300000003 cycles: 2456501519 heartbeat IPC: 0.0454698 cumulative IPC: 0.0450303 (Simulation time: 36 hr 15 min 55 sec) 
 Total Blocks : 262144 Invalid Blocks : 0
Heartbeat CPU 7 instructions: 300000003 cycles: 2460454480 heartbeat IPC: 0.0454602 cumulative IPC: 0.045031 (Simulation time: 36 hr 18 min 9 sec) 
 Total Blocks : 262144 Invalid Blocks : 0
Heartbeat CPU 5 instructions: 300000003 cycles: 2461072648 heartbeat IPC: 0.0454453 cumulative IPC: 0.0449813 (Simulation time: 36 hr 18 min 32 sec) 
 Total Blocks : 262144 Invalid Blocks : 0
Heartbeat CPU 4 instructions: 300000003 cycles: 2462101595 heartbeat IPC: 0.0452627 cumulative IPC: 0.0449431 (Simulation time: 36 hr 19 min 10 sec) 
 Total Blocks : 262144 Invalid Blocks : 0
Heartbeat CPU 6 instructions: 300000003 cycles: 2462432266 heartbeat IPC: 0.045411 cumulative IPC: 0.0449753 (Simulation time: 36 hr 19 min 24 sec) 
 Total Blocks : 262144 Invalid Blocks : 0
Heartbeat CPU 2 instructions: 310000003 cycles: 2674834033 heartbeat IPC: 0.0454847 cumulative IPC: 0.0450796 (Simulation time: 38 hr 19 min 35 sec) 
 Total Blocks : 262144 Invalid Blocks : 0
Heartbeat CPU 3 instructions: 310000002 cycles: 2676295778 heartbeat IPC: 0.0454971 cumulative IPC: 0.0450724 (Simulation time: 38 hr 20 min 25 sec) 
 Total Blocks : 262144 Invalid Blocks : 0
Heartbeat CPU 1 instructions: 310000003 cycles: 2676628295 heartbeat IPC: 0.0453654 cumulative IPC: 0.0450281 (Simulation time: 38 hr 20 min 36 sec) 
 Total Blocks : 262144 Invalid Blocks : 0
Heartbeat CPU 0 instructions: 310000000 cycles: 2676765146 heartbeat IPC: 0.0453426 cumulative IPC: 0.0450056 (Simulation time: 38 hr 20 min 40 sec) 
 Total Blocks : 262144 Invalid Blocks : 0
Heartbeat CPU 7 instructions: 310000003 cycles: 2680724075 heartbeat IPC: 0.0453989 cumulative IPC: 0.0450642 (Simulation time: 38 hr 22 min 52 sec) 
 Total Blocks : 262144 Invalid Blocks : 0
Heartbeat CPU 5 instructions: 310000003 cycles: 2681322224 heartbeat IPC: 0.045403 cumulative IPC: 0.0450194 (Simulation time: 38 hr 23 min 11 sec) 
 Total Blocks : 262144 Invalid Blocks : 0
Heartbeat CPU 4 instructions: 310000003 cycles: 2682529061 heartbeat IPC: 0.0453664 cumulative IPC: 0.0449813 (Simulation time: 38 hr 23 min 53 sec) 
 Total Blocks : 262144 Invalid Blocks : 0
Heartbeat CPU 6 instructions: 310000000 cycles: 2682847895 heartbeat IPC: 0.0453688 cumulative IPC: 0.0450108 (Simulation time: 38 hr 24 min 4 sec) 
 Total Blocks : 262144 Invalid Blocks : 0
Heartbeat CPU 2 instructions: 320000000 cycles: 2895981669 heartbeat IPC: 0.0452186 cumulative IPC: 0.0450912 (Simulation time: 40 hr 20 min 40 sec) 
 Total Blocks : 262144 Invalid Blocks : 0
Heartbeat CPU 3 instructions: 320000000 cycles: 2897781630 heartbeat IPC: 0.0451496 cumulative IPC: 0.0450789 (Simulation time: 40 hr 21 min 34 sec) 
 Total Blocks : 262144 Invalid Blocks : 0
Heartbeat CPU 1 instructions: 320000000 cycles: 2897867626 heartbeat IPC: 0.0451999 cumulative IPC: 0.0450424 (Simulation time: 40 hr 21 min 37 sec) 
 Total Blocks : 262144 Invalid Blocks : 0
Heartbeat CPU 0 instructions: 320000000 cycles: 2898505707 heartbeat IPC: 0.0450977 cumulative IPC: 0.0450133 (Simulation time: 40 hr 21 min 54 sec) 
 Total Blocks : 262144 Invalid Blocks : 0
Heartbeat CPU 7 instructions: 320000000 cycles: 2902106866 heartbeat IPC: 0.0451706 cumulative IPC: 0.045073 (Simulation time: 40 hr 23 min 43 sec) 
 Total Blocks : 262144 Invalid Blocks : 0
Heartbeat CPU 5 instructions: 320000000 cycles: 2902329210 heartbeat IPC: 0.0452474 cumulative IPC: 0.0450383 (Simulation time: 40 hr 23 min 50 sec) 
 Total Blocks : 262144 Invalid Blocks : 0
Heartbeat CPU 4 instructions: 320000000 cycles: 2903816367 heartbeat IPC: 0.0451901 cumulative IPC: 0.0449986 (Simulation time: 40 hr 24 min 34 sec) 
 Total Blocks : 262144 Invalid Blocks : 0
Heartbeat CPU 6 instructions: 320000002 cycles: 2903879046 heartbeat IPC: 0.0452425 cumulative IPC: 0.04503 (Simulation time: 40 hr 24 min 36 sec) 
 Total Blocks : 262144 Invalid Blocks : 0
Heartbeat CPU 2 instructions: 330000000 cycles: 3117896191 heartbeat IPC: 0.0450624 cumulative IPC: 0.045089 (Simulation time: 42 hr 11 min 49 sec) 
 Total Blocks : 262144 Invalid Blocks : 0
Heartbeat CPU 3 instructions: 330000000 cycles: 3120003772 heartbeat IPC: 0.045 cumulative IPC: 0.0450728 (Simulation time: 42 hr 12 min 50 sec) 
 Total Blocks : 262144 Invalid Blocks : 0
Heartbeat CPU 0 instructions: 330000000 cycles: 3120408284 heartbeat IPC: 0.0450648 cumulative IPC: 0.0450173 (Simulation time: 42 hr 13 min 2 sec) 
 Total Blocks : 262144 Invalid Blocks : 0
Heartbeat CPU 1 instructions: 330000000 cycles: 3120447524 heartbeat IPC: 0.0449277 cumulative IPC: 0.0450335 (Simulation time: 42 hr 13 min 3 sec) 
 Total Blocks : 262144 Invalid Blocks : 0
Heartbeat CPU 7 instructions: 330000000 cycles: 3124310081 heartbeat IPC: 0.0450039 cumulative IPC: 0.0450677 (Simulation time: 42 hr 14 min 57 sec) 
 Total Blocks : 262144 Invalid Blocks : 0
Heartbeat CPU 5 instructions: 330000000 cycles: 3124551213 heartbeat IPC: 0.045 cumulative IPC: 0.0450353 (Simulation time: 42 hr 15 min 5 sec) 
 Total Blocks : 262144 Invalid Blocks : 0
Heartbeat CPU 6 instructions: 330000000 cycles: 3126375224 heartbeat IPC: 0.0449446 cumulative IPC: 0.0450234 (Simulation time: 42 hr 15 min 58 sec) 
 Total Blocks : 262144 Invalid Blocks : 0
Heartbeat CPU 4 instructions: 330000000 cycles: 3126565771 heartbeat IPC: 0.0448935 cumulative IPC: 0.0449905 (Simulation time: 42 hr 16 min 4 sec) 
 Total Blocks : 262144 Invalid Blocks : 0
Heartbeat CPU 2 instructions: 340000002 cycles: 3339813192 heartbeat IPC: 0.0450619 cumulative IPC: 0.045087 (Simulation time: 43 hr 59 min 16 sec) 
 Total Blocks : 262144 Invalid Blocks : 0
Heartbeat CPU 3 instructions: 340000002 cycles: 3342311409 heartbeat IPC: 0.0449827 cumulative IPC: 0.0450663 (Simulation time: 44 hr 0 min 45 sec) 
 Total Blocks : 262144 Invalid Blocks : 0
Heartbeat CPU 0 instructions: 340000002 cycles: 3342878627 heartbeat IPC: 0.0449498 cumulative IPC: 0.0450124 (Simulation time: 44 hr 1 min 17 sec) 
 Total Blocks : 262144 Invalid Blocks : 0
Heartbeat CPU 1 instructions: 340000002 cycles: 3343112486 heartbeat IPC: 0.0449105 cumulative IPC: 0.0450247 (Simulation time: 44 hr 1 min 29 sec) 
 Total Blocks : 262144 Invalid Blocks : 0
Heartbeat CPU 5 instructions: 340000002 cycles: 3347034130 heartbeat IPC: 0.0449473 cumulative IPC: 0.045029 (Simulation time: 44 hr 5 min 22 sec) 
 Total Blocks : 262144 Invalid Blocks : 0
Heartbeat CPU 7 instructions: 340000002 cycles: 3347089430 heartbeat IPC: 0.0448875 cumulative IPC: 0.0450548 (Simulation time: 44 hr 5 min 28 sec) 
 Total Blocks : 262144 Invalid Blocks : 0
Heartbeat CPU 6 instructions: 340000002 cycles: 3349540514 heartbeat IPC: 0.0448098 cumulative IPC: 0.0450081 (Simulation time: 44 hr 8 min 39 sec) 
 Total Blocks : 262144 Invalid Blocks : 0
Heartbeat CPU 4 instructions: 340000002 cycles: 3350508976 heartbeat IPC: 0.0446542 cumulative IPC: 0.0449663 (Simulation time: 44 hr 10 min 26 sec) 
 Total Blocks : 262144 Invalid Blocks : 0
Heartbeat CPU 2 instructions: 350000002 cycles: 3472420180 heartbeat IPC: 0.0754108 cumulative IPC: 0.0463309 (Simulation time: 47 hr 28 min 59 sec) 
 Total Blocks : 262144 Invalid Blocks : 0
Heartbeat CPU 3 instructions: 350000002 cycles: 3475684214 heartbeat IPC: 0.0749778 cumulative IPC: 0.0462992 (Simulation time: 47 hr 34 min 23 sec) 
 Total Blocks : 262144 Invalid Blocks : 0
Heartbeat CPU 0 instructions: 350000002 cycles: 3476065472 heartbeat IPC: 0.0750825 cumulative IPC: 0.0462499 (Simulation time: 47 hr 34 min 57 sec) 
 Total Blocks : 262144 Invalid Blocks : 0
Heartbeat CPU 1 instructions: 350000002 cycles: 3476097222 heartbeat IPC: 0.0751966 cumulative IPC: 0.0462645 (Simulation time: 47 hr 35 min 0 sec) 
 Total Blocks : 262144 Invalid Blocks : 0
Heartbeat CPU 5 instructions: 350000002 cycles: 3480354276 heartbeat IPC: 0.0750074 cumulative IPC: 0.0462624 (Simulation time: 47 hr 41 min 35 sec) 
 Total Blocks : 262144 Invalid Blocks : 0
Heartbeat CPU 7 instructions: 350000002 cycles: 3480936137 heartbeat IPC: 0.0747123 cumulative IPC: 0.0462795 (Simulation time: 47 hr 42 min 31 sec) 
 Total Blocks : 262144 Invalid Blocks : 0
Heartbeat CPU 6 instructions: 350000002 cycles: 3482741836 heartbeat IPC: 0.0750743 cumulative IPC: 0.046243 (Simulation time: 47 hr 45 min 13 sec) 
 Total Blocks : 262144 Invalid Blocks : 0
Heartbeat CPU 4 instructions: 350000002 cycles: 3483923962 heartbeat IPC: 0.0749541 cumulative IPC: 0.0461996 (Simulation time: 47 hr 47 min 7 sec) 
 Total Blocks : 262144 Invalid Blocks : 0
Heartbeat CPU 2 instructions: 360000001 cycles: 3606625111 heartbeat IPC: 0.0745129 cumulative IPC: 0.0474543 (Simulation time: 50 hr 44 min 20 sec) 
 Total Blocks : 262144 Invalid Blocks : 0
Heartbeat CPU 3 instructions: 360000001 cycles: 3610277354 heartbeat IPC: 0.074298 cumulative IPC: 0.0474172 (Simulation time: 50 hr 49 min 2 sec) 
 Total Blocks : 262144 Invalid Blocks : 0
Heartbeat CPU 0 instructions: 360000001 cycles: 3610546106 heartbeat IPC: 0.0743601 cumulative IPC: 0.0473714 (Simulation time: 50 hr 49 min 23 sec) 
 Total Blocks : 262144 Invalid Blocks : 0
Heartbeat CPU 1 instructions: 360000001 cycles: 3610600901 heartbeat IPC: 0.0743474 cumulative IPC: 0.0473851 (Simulation time: 50 hr 49 min 28 sec) 
 Total Blocks : 262144 Invalid Blocks : 0
Heartbeat CPU 5 instructions: 360000001 cycles: 3614528121 heartbeat IPC: 0.0745302 cumulative IPC: 0.0473862 (Simulation time: 50 hr 54 min 42 sec) 
 Total Blocks : 262144 Invalid Blocks : 0
Heartbeat CPU 7 instructions: 360000001 cycles: 3615028976 heartbeat IPC: 0.0745752 cumulative IPC: 0.0474037 (Simulation time: 50 hr 55 min 21 sec) 
 Total Blocks : 262144 Invalid Blocks : 0
Heartbeat CPU 6 instructions: 360000001 cycles: 3617000724 heartbeat IPC: 0.074483 cumulative IPC: 0.0473657 (Simulation time: 50 hr 57 min 56 sec) 
 Total Blocks : 262144 Invalid Blocks : 0
Heartbeat CPU 4 instructions: 360000001 cycles: 3618240389 heartbeat IPC: 0.0744511 cumulative IPC: 0.0473227 (Simulation time: 50 hr 59 min 41 sec) 
 Total Blocks : 262144 Invalid Blocks : 0
Heartbeat CPU 2 instructions: 370000001 cycles: 3742403490 heartbeat IPC: 0.0736494 cumulative IPC: 0.0484697 (Simulation time: 53 hr 45 min 14 sec) 
 Total Blocks : 262144 Invalid Blocks : 0
Heartbeat CPU 3 instructions: 370000001 cycles: 3746309429 heartbeat IPC: 0.0735121 cumulative IPC: 0.0484296 (Simulation time: 53 hr 49 min 50 sec) 
 Total Blocks : 262144 Invalid Blocks : 0
Heartbeat CPU 1 instructions: 370000001 cycles: 3746309480 heartbeat IPC: 0.0736873 cumulative IPC: 0.048403 (Simulation time: 53 hr 49 min 50 sec) 
 Total Blocks : 262144 Invalid Blocks : 0
Heartbeat CPU 0 instructions: 370000001 cycles: 3746472081 heartbeat IPC: 0.0735695 cumulative IPC: 0.0483869 (Simulation time: 53 hr 50 min 3 sec) 
 Total Blocks : 262144 Invalid Blocks : 0
Heartbeat CPU 5 instructions: 370000001 cycles: 3750343230 heartbeat IPC: 0.0736295 cumulative IPC: 0.0484015 (Simulation time: 53 hr 54 min 46 sec) 
 Total Blocks : 262144 Invalid Blocks : 0
Heartbeat CPU 7 instructions: 370000001 cycles: 3750697966 heartbeat IPC: 0.0737088 cumulative IPC: 0.0484201 (Simulation time: 53 hr 55 min 11 sec) 
 Total Blocks : 262144 Invalid Blocks : 0
Heartbeat CPU 6 instructions: 370000001 cycles: 3753043925 heartbeat IPC: 0.0735061 cumulative IPC: 0.0483779 (Simulation time: 53 hr 58 min 10 sec) 
 Total Blocks : 262144 Invalid Blocks : 0
Heartbeat CPU 4 instructions: 370000001 cycles: 3754537846 heartbeat IPC: 0.0733689 cumulative IPC: 0.0483328 (Simulation time: 54 hr 0 min 4 sec) 
 Total Blocks : 262144 Invalid Blocks : 0
Heartbeat CPU 2 instructions: 380000003 cycles: 3879193337 heartbeat IPC: 0.0731049 cumulative IPC: 0.0493957 (Simulation time: 56 hr 17 min 2 sec) 
 Total Blocks : 262144 Invalid Blocks : 0
Heartbeat CPU 1 instructions: 380000003 cycles: 3883166680 heartbeat IPC: 0.0730689 cumulative IPC: 0.0493295 (Simulation time: 56 hr 20 min 6 sec) 
 Total Blocks : 262144 Invalid Blocks : 0
Heartbeat CPU 3 instructions: 380000003 cycles: 3883365966 heartbeat IPC: 0.0729626 cumulative IPC: 0.0493524 (Simulation time: 56 hr 20 min 15 sec) 
 Total Blocks : 262144 Invalid Blocks : 0
Heartbeat CPU 0 instructions: 380000003 cycles: 3883721967 heartbeat IPC: 0.0728598 cumulative IPC: 0.0493087 (Simulation time: 56 hr 20 min 30 sec) 
 Total Blocks : 262144 Invalid Blocks : 0
Heartbeat CPU 5 instructions: 380000003 cycles: 3887290536 heartbeat IPC: 0.0730208 cumulative IPC: 0.0493259 (Simulation time: 56 hr 23 min 7 sec) 
 Total Blocks : 262144 Invalid Blocks : 0
Heartbeat CPU 7 instructions: 380000003 cycles: 3888172367 heartbeat IPC: 0.0727408 cumulative IPC: 0.0493365 (Simulation time: 56 hr 23 min 47 sec) 
 Total Blocks : 262144 Invalid Blocks : 0
Heartbeat CPU 6 instructions: 380000003 cycles: 3890205470 heartbeat IPC: 0.0729067 cumulative IPC: 0.0492996 (Simulation time: 56 hr 25 min 23 sec) 
 Total Blocks : 262144 Invalid Blocks : 0
Heartbeat CPU 4 instructions: 380000003 cycles: 3892068456 heartbeat IPC: 0.0727111 cumulative IPC: 0.0492508 (Simulation time: 56 hr 26 min 46 sec) 
 Total Blocks : 262144 Invalid Blocks : 0
Heartbeat CPU 2 instructions: 390000001 cycles: 4016928838 heartbeat IPC: 0.0726029 cumulative IPC: 0.0502419 (Simulation time: 58 hr 1 min 3 sec) 
 Total Blocks : 262144 Invalid Blocks : 0
Heartbeat CPU 1 instructions: 390000001 cycles: 4020072016 heartbeat IPC: 0.0730432 cumulative IPC: 0.0501883 (Simulation time: 58 hr 2 min 51 sec) 
 Total Blocks : 262144 Invalid Blocks : 0
Heartbeat CPU 3 instructions: 390000001 cycles: 4020595756 heartbeat IPC: 0.0728705 cumulative IPC: 0.050206 (Simulation time: 58 hr 3 min 9 sec) 
 Total Blocks : 262144 Invalid Blocks : 0
Heartbeat CPU 0 instructions: 390000001 cycles: 4021250090 heartbeat IPC: 0.0727124 cumulative IPC: 0.0501598 (Simulation time: 58 hr 3 min 31 sec) 
 Total Blocks : 262144 Invalid Blocks : 0
Heartbeat CPU 5 instructions: 390000001 cycles: 4024457858 heartbeat IPC: 0.0729036 cumulative IPC: 0.0501804 (Simulation time: 58 hr 5 min 19 sec) 
 Total Blocks : 262144 Invalid Blocks : 0
Heartbeat CPU 7 instructions: 390000001 cycles: 4025582464 heartbeat IPC: 0.0727748 cumulative IPC: 0.0501873 (Simulation time: 58 hr 5 min 56 sec) 
 Total Blocks : 262144 Invalid Blocks : 0
Heartbeat CPU 6 instructions: 390000001 cycles: 4026833927 heartbeat IPC: 0.0731912 cumulative IPC: 0.0501615 (Simulation time: 58 hr 6 min 39 sec) 
 Total Blocks : 262144 Invalid Blocks : 0
Heartbeat CPU 4 instructions: 390000001 cycles: 4028662630 heartbeat IPC: 0.0732095 cumulative IPC: 0.0501145 (Simulation time: 58 hr 7 min 45 sec) 
 Total Blocks : 262144 Invalid Blocks : 0
Heartbeat CPU 2 instructions: 400000000 cycles: 4159629746 heartbeat IPC: 0.0700766 cumulative IPC: 0.050964 (Simulation time: 59 hr 21 min 1 sec) 
 Total Blocks : 262144 Invalid Blocks : 0
Heartbeat CPU 1 instructions: 400000000 cycles: 4162799420 heartbeat IPC: 0.0700636 cumulative IPC: 0.0509114 (Simulation time: 59 hr 22 min 39 sec) 
 Total Blocks : 262144 Invalid Blocks : 0
Finished CPU 2 instructions: 200000003 cycles: 3923153981 cumulative IPC: 0.0509794 (Simulation time: 59 hr 22 min 43 sec) 
Heartbeat CPU 3 instructions: 400000000 cycles: 4163724853 heartbeat IPC: 0.069867 cumulative IPC: 0.0509231 (Simulation time: 59 hr 23 min 7 sec) 
 Total Blocks : 262144 Invalid Blocks : 0
Heartbeat CPU 0 instructions: 400000000 cycles: 4164407544 heartbeat IPC: 0.0698531 cumulative IPC: 0.0508782 (Simulation time: 59 hr 23 min 28 sec) 
 Total Blocks : 262144 Invalid Blocks : 0
Finished CPU 3 instructions: 200000001 cycles: 3926550386 cumulative IPC: 0.0509353 (Simulation time: 59 hr 24 min 27 sec) 
Finished CPU 1 instructions: 200000000 cycles: 3926902824 cumulative IPC: 0.0509307 (Simulation time: 59 hr 24 min 39 sec) 
Heartbeat CPU 5 instructions: 400000000 cycles: 4167317144 heartbeat IPC: 0.0699989 cumulative IPC: 0.0509012 (Simulation time: 59 hr 24 min 59 sec) 
 Total Blocks : 262144 Invalid Blocks : 0
Heartbeat CPU 7 instructions: 400000000 cycles: 4168262410 heartbeat IPC: 0.0700869 cumulative IPC: 0.05091 (Simulation time: 59 hr 25 min 29 sec) 
 Total Blocks : 262144 Invalid Blocks : 0
Finished CPU 7 instructions: 200000002 cycles: 3928500859 cumulative IPC: 0.05091 (Simulation time: 59 hr 25 min 29 sec) 
Finished CPU 5 instructions: 200000001 cycles: 3928728567 cumulative IPC: 0.0509071 (Simulation time: 59 hr 25 min 37 sec) 
Finished CPU 0 instructions: 200000001 cycles: 3929212604 cumulative IPC: 0.0509008 (Simulation time: 59 hr 25 min 51 sec) 
Heartbeat CPU 6 instructions: 400000000 cycles: 4169240764 heartbeat IPC: 0.0702213 cumulative IPC: 0.0508885 (Simulation time: 59 hr 26 min 1 sec) 
 Total Blocks : 262144 Invalid Blocks : 0
Finished CPU 6 instructions: 200000000 cycles: 3929995966 cumulative IPC: 0.0508906 (Simulation time: 59 hr 26 min 16 sec) 
Heartbeat CPU 4 instructions: 400000000 cycles: 4171336415 heartbeat IPC: 0.07009 cumulative IPC: 0.0508394 (Simulation time: 59 hr 27 min 5 sec) 
 Total Blocks : 262144 Invalid Blocks : 0
Finished CPU 4 instructions: 200000000 cycles: 3933351881 cumulative IPC: 0.0508472 (Simulation time: 59 hr 28 min 0 sec) 

CPU 0 Branch Prediction Accuracy: 91.7137% MPKI: 18.2514 Average ROB Occupancy at Mispredict: 59.3682

CPU 1 Branch Prediction Accuracy: 91.7173% MPKI: 18.2494 Average ROB Occupancy at Mispredict: 59.2905

CPU 2 Branch Prediction Accuracy: 91.7255% MPKI: 18.2392 Average ROB Occupancy at Mispredict: 59.2959

CPU 3 Branch Prediction Accuracy: 91.713% MPKI: 18.2656 Average ROB Occupancy at Mispredict: 59.3523

CPU 4 Branch Prediction Accuracy: 91.6888% MPKI: 18.3133 Average ROB Occupancy at Mispredict: 59.3269

CPU 5 Branch Prediction Accuracy: 91.7007% MPKI: 18.296 Average ROB Occupancy at Mispredict: 59.2435

CPU 6 Branch Prediction Accuracy: 91.6938% MPKI: 18.3124 Average ROB Occupancy at Mispredict: 59.3078

CPU 7 Branch Prediction Accuracy: 91.6962% MPKI: 18.3114 Average ROB Occupancy at Mispredict: 59.2399

ChampSim completed all CPUs

Total Simulation Statistics (not including warmup)

CPU 0 cumulative IPC: 0.0509205 instructions: 200288436 cycles: 3933351881
ITLB TOTAL     ACCESS: 32170860  HIT: 32170860  MISS:     0  HIT %:   100  MISS %:     0  AVERAGE MISS PENALTY: 0
ITLB LOAD      ACCESS: 32170860  HIT: 32170860  MISS:     0  HIT %:   100  MISS %:     0  AVERAGE MISS PENALTY: 0
ITLB RFO       ACCESS:     0  HIT:     0  MISS:     0  HIT %:     0  MISS %:     0  AVERAGE MISS PENALTY: 0
ITLB PREFETCH  ACCESS:     0  HIT:     0  MISS:     0  HIT %:     0  MISS %:     0  AVERAGE MISS PENALTY: 0
ITLB WRITEBACK ACCESS:     0  HIT:     0  MISS:     0  HIT %:     0  MISS %:     0  AVERAGE MISS PENALTY: 0

DTLB TOTAL     ACCESS: 44262423  HIT: 29699965  MISS: 14562458  HIT %: 67.0997  MISS %: 32.9003  AVERAGE MISS PENALTY: 53.9536
DTLB LOAD      ACCESS: 38577267  HIT: 26467895  MISS: 12109372  HIT %: 68.6101  MISS %: 31.3899  AVERAGE MISS PENALTY: 49.9618
DTLB RFO       ACCESS: 5685156  HIT: 3232070  MISS: 2453086  HIT %: 56.851  MISS %: 43.149  AVERAGE MISS PENALTY: 73.6587
DTLB PREFETCH  ACCESS:     0  HIT:     0  MISS:     0  HIT %:     0  MISS %:     0  AVERAGE MISS PENALTY: 0
DTLB WRITEBACK ACCESS:     0  HIT:     0  MISS:     0  HIT %:     0  MISS %:     0  AVERAGE MISS PENALTY: 0

STLB TOTAL     ACCESS: 14562457  HIT: 12338965  MISS: 2223492  HIT %: 84.7313  MISS %: 15.2687  AVERAGE MISS PENALTY: 100
STLB LOAD      ACCESS: 12109371  HIT: 11068889  MISS: 1040482  HIT %: 91.4076  MISS %: 8.59237  AVERAGE MISS PENALTY: 100
STLB RFO       ACCESS: 2453086  HIT: 1270076  MISS: 1183010  HIT %: 51.7746  MISS %: 48.2254  AVERAGE MISS PENALTY: 100
STLB PREFETCH  ACCESS:     0  HIT:     0  MISS:     0  HIT %:     0  MISS %:     0  AVERAGE MISS PENALTY: 0
STLB WRITEBACK ACCESS:     0  HIT:     0  MISS:     0  HIT %:     0  MISS %:     0  AVERAGE MISS PENALTY: 0

L1D TOTAL     ACCESS: 89023520  HIT: 30437142  MISS: 58586378  HIT %: 34.19  MISS %: 65.81  AVERAGE MISS PENALTY: 1.52441e+06
L1D LOAD      ACCESS: 40411570  HIT: 22839896  MISS: 17571674  HIT %: 56.5182  MISS %: 43.4818  AVERAGE MISS PENALTY: 5.08125e+06
L1D RFO       ACCESS: 6037444  HIT: 5997876  MISS: 39568  HIT %: 99.3446  MISS %: 0.655377  AVERAGE MISS PENALTY: 84730.3
L1D PREFETCH  ACCESS: 42574506  HIT: 1599370  MISS: 40975136  HIT %: 3.75664  MISS %: 96.2434  AVERAGE MISS PENALTY: 500.352
L1D WRITEBACK ACCESS:     0  HIT:     0  MISS:     0  HIT %:     0  MISS %:     0  AVERAGE MISS PENALTY: 0

L1I TOTAL     ACCESS: 47978264  HIT: 47978264  MISS:     0  HIT %:   100  MISS %:     0  AVERAGE MISS PENALTY: 0
L1I LOAD      ACCESS: 47978264  HIT: 47978264  MISS:     0  HIT %:   100  MISS %:     0  AVERAGE MISS PENALTY: 0
L1I RFO       ACCESS:     0  HIT:     0  MISS:     0  HIT %:     0  MISS %:     0  AVERAGE MISS PENALTY: 0
L1I PREFETCH  ACCESS:     0  HIT:     0  MISS:     0  HIT %:     0  MISS %:     0  AVERAGE MISS PENALTY: 0
L1I WRITEBACK ACCESS:     0  HIT:     0  MISS:     0  HIT %:     0  MISS %:     0  AVERAGE MISS PENALTY: 0

L2C TOTAL     ACCESS: 95618081  HIT: 5679465  MISS: 89938616  HIT %: 5.93974  MISS %: 94.0603  AVERAGE MISS PENALTY: 872311
L2C LOAD      ACCESS: 17570687  HIT: 200807  MISS: 17369880  HIT %: 1.14285  MISS %: 98.8571  AVERAGE MISS PENALTY: 4.51483e+06
L2C RFO       ACCESS: 39557  HIT: 17050  MISS: 22507  HIT %: 43.1024  MISS %: 56.8976  AVERAGE MISS PENALTY: 428.719
L2C PREFETCH  ACCESS: 74934911  HIT: 4527667  MISS: 70407244  HIT %: 6.04213  MISS %: 93.9579  AVERAGE MISS PENALTY: 459.517
L2C WRITEBACK ACCESS: 3072926  HIT: 933941  MISS: 2138985  HIT %: 30.3926  MISS %: 69.6074  AVERAGE MISS PENALTY: 0


LLC0 TOTAL     ACCESS: 11550047  HIT: 5393018  MISS: 6157029  HIT %: 46.6926  MISS %: 53.3074  AVERAGE MISS PENALTY: 784.325
LLC0 LOAD      ACCESS: 2168635  HIT: 942594  MISS: 1226041  HIT %: 43.4649  MISS %: 56.5351  AVERAGE MISS PENALTY: 768.845
LLC0 RFO       ACCESS:  2909  HIT:  1340  MISS:  1569  HIT %: 46.0639  MISS %: 53.9361  AVERAGE MISS PENALTY: 728.642
LLC0 PREFETCH  ACCESS: 8995643  HIT: 4079949  MISS: 4915694  HIT %: 45.3547  MISS %: 54.6453  AVERAGE MISS PENALTY: 790.393
LLC0 WRITEBACK ACCESS: 382860  HIT: 369135  MISS: 13725  HIT %: 96.4151  MISS %: 3.58486  AVERAGE MISS PENALTY: 0

LLC1 TOTAL     ACCESS: 11734320  HIT: 5416574  MISS: 6317746  HIT %: 46.1601  MISS %: 53.8399  AVERAGE MISS PENALTY: 785.457
LLC1 LOAD      ACCESS: 2106540  HIT: 895390  MISS: 1211150  HIT %: 42.5052  MISS %: 57.4948  AVERAGE MISS PENALTY: 771.562
LLC1 RFO       ACCESS:  2861  HIT:  1286  MISS:  1575  HIT %: 44.9493  MISS %: 55.0507  AVERAGE MISS PENALTY: 745.54
LLC1 PREFETCH  ACCESS: 9238864  HIT: 4147924  MISS: 5090940  HIT %: 44.8965  MISS %: 55.1035  AVERAGE MISS PENALTY: 790.948
LLC1 WRITEBACK ACCESS: 386055  HIT: 371974  MISS: 14081  HIT %: 96.3526  MISS %: 3.64741  AVERAGE MISS PENALTY: 0

LLC2 TOTAL     ACCESS: 11738007  HIT: 5396575  MISS: 6341432  HIT %: 45.9752  MISS %: 54.0248  AVERAGE MISS PENALTY: 772.862
LLC2 LOAD      ACCESS: 2274905  HIT: 1025602  MISS: 1249303  HIT %: 45.0833  MISS %: 54.9167  AVERAGE MISS PENALTY: 768.286
LLC2 RFO       ACCESS:  2881  HIT:  1298  MISS:  1583  HIT %: 45.0538  MISS %: 54.9462  AVERAGE MISS PENALTY: 715.543
LLC2 PREFETCH  ACCESS: 9076176  HIT: 3999682  MISS: 5076494  HIT %: 44.0679  MISS %: 55.9321  AVERAGE MISS PENALTY: 776.145
LLC2 WRITEBACK ACCESS: 384045  HIT: 369993  MISS: 14052  HIT %: 96.3411  MISS %: 3.65895  AVERAGE MISS PENALTY: 0

LLC3 TOTAL     ACCESS: 11419985  HIT: 5222042  MISS: 6197943  HIT %: 45.7272  MISS %: 54.2728  AVERAGE MISS PENALTY: 777.457
LLC3 LOAD      ACCESS: 2135501  HIT: 904896  MISS: 1230605  HIT %: 42.3739  MISS %: 57.6261  AVERAGE MISS PENALTY: 771.719
LLC3 RFO       ACCESS:  2832  HIT:  1261  MISS:  1571  HIT %: 44.5268  MISS %: 55.4732  AVERAGE MISS PENALTY: 739.996
LLC3 PREFETCH  ACCESS: 8898788  HIT: 3946859  MISS: 4951929  HIT %: 44.3528  MISS %: 55.6472  AVERAGE MISS PENALTY: 781.068
LLC3 WRITEBACK ACCESS: 382864  HIT: 369026  MISS: 13838  HIT %: 96.3857  MISS %: 3.61434  AVERAGE MISS PENALTY: 0

LLC4 TOTAL     ACCESS: 11360678  HIT: 5236006  MISS: 6124672  HIT %: 46.0889  MISS %: 53.9111  AVERAGE MISS PENALTY: 716.014
LLC4 LOAD      ACCESS: 2155753  HIT: 917806  MISS: 1237947  HIT %: 42.5747  MISS %: 57.4253  AVERAGE MISS PENALTY: 698.075
LLC4 RFO       ACCESS:  2823  HIT:  1256  MISS:  1567  HIT %: 44.4917  MISS %: 55.5083  AVERAGE MISS PENALTY: 668.054
LLC4 PREFETCH  ACCESS: 8817870  HIT: 3946717  MISS: 4871153  HIT %: 44.7582  MISS %: 55.2418  AVERAGE MISS PENALTY: 722.647
LLC4 WRITEBACK ACCESS: 384232  HIT: 370227  MISS: 14005  HIT %: 96.3551  MISS %: 3.64493  AVERAGE MISS PENALTY: 0

LLC5 TOTAL     ACCESS: 11215424  HIT: 5208045  MISS: 6007379  HIT %: 46.4365  MISS %: 53.5635  AVERAGE MISS PENALTY: 682.71
LLC5 LOAD      ACCESS: 2160849  HIT: 941828  MISS: 1219021  HIT %: 43.586  MISS %: 56.414  AVERAGE MISS PENALTY: 659.848
LLC5 RFO       ACCESS:  2744  HIT:  1179  MISS:  1565  HIT %: 42.9665  MISS %: 57.0335  AVERAGE MISS PENALTY: 652.24
LLC5 PREFETCH  ACCESS: 8678245  HIT: 3905078  MISS: 4773167  HIT %: 44.9985  MISS %: 55.0015  AVERAGE MISS PENALTY: 690.508
LLC5 WRITEBACK ACCESS: 373586  HIT: 359960  MISS: 13626  HIT %: 96.3526  MISS %: 3.64735  AVERAGE MISS PENALTY: 0

LLC6 TOTAL     ACCESS: 11006511  HIT: 5153643  MISS: 5852868  HIT %: 46.8236  MISS %: 53.1764  AVERAGE MISS PENALTY: 708.185
LLC6 LOAD      ACCESS: 2127810  HIT: 910376  MISS: 1217434  HIT %: 42.7846  MISS %: 57.2154  AVERAGE MISS PENALTY: 693.974
LLC6 RFO       ACCESS:  2703  HIT:  1139  MISS:  1564  HIT %: 42.1384  MISS %: 57.8616  AVERAGE MISS PENALTY: 657.996
LLC6 PREFETCH  ACCESS: 8497665  HIT: 3878125  MISS: 4619540  HIT %: 45.6375  MISS %: 54.3625  AVERAGE MISS PENALTY: 714.144
LLC6 WRITEBACK ACCESS: 378333  HIT: 364003  MISS: 14330  HIT %: 96.2123  MISS %: 3.78767  AVERAGE MISS PENALTY: 0

LLC7 TOTAL     ACCESS: 10828348  HIT: 5146232  MISS: 5682116  HIT %: 47.5256  MISS %: 52.4744  AVERAGE MISS PENALTY: 679.206
LLC7 LOAD      ACCESS: 2198729  HIT: 969470  MISS: 1229259  HIT %: 44.0923  MISS %: 55.9077  AVERAGE MISS PENALTY: 653.74
LLC7 RFO       ACCESS:  2746  HIT:  1176  MISS:  1570  HIT %: 42.8259  MISS %: 57.1741  AVERAGE MISS PENALTY: 629.109
LLC7 PREFETCH  ACCESS: 8245147  HIT: 3808572  MISS: 4436575  HIT %: 46.1917  MISS %: 53.8083  AVERAGE MISS PENALTY: 688.532
LLC7 WRITEBACK ACCESS: 381726  HIT: 367014  MISS: 14712  HIT %: 96.1459  MISS %: 3.85407  AVERAGE MISS PENALTY: 0

Total Rob stall cycles : 	3862535761
Total Load Rob Stall cycles : 	3130258860
Average Rob Stall cycles : 	 70
Average Load Rob Stall cycles : 	 470

CPU 1 cumulative IPC: 0.0509598 instructions: 200442778 cycles: 3933351881
ITLB TOTAL     ACCESS: 32203845  HIT: 32203845  MISS:     0  HIT %:   100  MISS %:     0  AVERAGE MISS PENALTY: 0
ITLB LOAD      ACCESS: 32203845  HIT: 32203845  MISS:     0  HIT %:   100  MISS %:     0  AVERAGE MISS PENALTY: 0
ITLB RFO       ACCESS:     0  HIT:     0  MISS:     0  HIT %:     0  MISS %:     0  AVERAGE MISS PENALTY: 0
ITLB PREFETCH  ACCESS:     0  HIT:     0  MISS:     0  HIT %:     0  MISS %:     0  AVERAGE MISS PENALTY: 0
ITLB WRITEBACK ACCESS:     0  HIT:     0  MISS:     0  HIT %:     0  MISS %:     0  AVERAGE MISS PENALTY: 0

DTLB TOTAL     ACCESS: 44293144  HIT: 29718217  MISS: 14574927  HIT %: 67.0944  MISS %: 32.9056  AVERAGE MISS PENALTY: 37.4811
DTLB LOAD      ACCESS: 38605199  HIT: 26484522  MISS: 12120677  HIT %: 68.6035  MISS %: 31.3965  AVERAGE MISS PENALTY: 30.1571
DTLB RFO       ACCESS: 5687945  HIT: 3233695  MISS: 2454250  HIT %: 56.8517  MISS %: 43.1483  AVERAGE MISS PENALTY: 73.6516
DTLB PREFETCH  ACCESS:     0  HIT:     0  MISS:     0  HIT %:     0  MISS %:     0  AVERAGE MISS PENALTY: 0
DTLB WRITEBACK ACCESS:     0  HIT:     0  MISS:     0  HIT %:     0  MISS %:     0  AVERAGE MISS PENALTY: 0

STLB TOTAL     ACCESS: 14574927  HIT: 12350275  MISS: 2224652  HIT %: 84.7364  MISS %: 15.2636  AVERAGE MISS PENALTY: 100
STLB LOAD      ACCESS: 12120677  HIT: 11079550  MISS: 1041127  HIT %: 91.4103  MISS %: 8.58968  AVERAGE MISS PENALTY: 100
STLB RFO       ACCESS: 2454250  HIT: 1270725  MISS: 1183525  HIT %: 51.7765  MISS %: 48.2235  AVERAGE MISS PENALTY: 100
STLB PREFETCH  ACCESS:     0  HIT:     0  MISS:     0  HIT %:     0  MISS %:     0  AVERAGE MISS PENALTY: 0
STLB WRITEBACK ACCESS:     0  HIT:     0  MISS:     0  HIT %:     0  MISS %:     0  AVERAGE MISS PENALTY: 0

L1D TOTAL     ACCESS: 89087474  HIT: 30455864  MISS: 58631610  HIT %: 34.1865  MISS %: 65.8135  AVERAGE MISS PENALTY: 1.51585e+06
L1D LOAD      ACCESS: 40440121  HIT: 22855049  MISS: 17585072  HIT %: 56.5158  MISS %: 43.4842  AVERAGE MISS PENALTY: 5.05309e+06
L1D RFO       ACCESS: 6039837  HIT: 6000276  MISS: 39561  HIT %: 99.345  MISS %: 0.655001  AVERAGE MISS PENALTY: 248.434
L1D PREFETCH  ACCESS: 42607516  HIT: 1600539  MISS: 41006977  HIT %: 3.75647  MISS %: 96.2435  AVERAGE MISS PENALTY: 435.456
L1D WRITEBACK ACCESS:     0  HIT:     0  MISS:     0  HIT %:     0  MISS %:     0  AVERAGE MISS PENALTY: 0

L1I TOTAL     ACCESS: 48027661  HIT: 48027661  MISS:     0  HIT %:   100  MISS %:     0  AVERAGE MISS PENALTY: 0
L1I LOAD      ACCESS: 48027661  HIT: 48027661  MISS:     0  HIT %:   100  MISS %:     0  AVERAGE MISS PENALTY: 0
L1I RFO       ACCESS:     0  HIT:     0  MISS:     0  HIT %:     0  MISS %:     0  AVERAGE MISS PENALTY: 0
L1I PREFETCH  ACCESS:     0  HIT:     0  MISS:     0  HIT %:     0  MISS %:     0  AVERAGE MISS PENALTY: 0
L1I WRITEBACK ACCESS:     0  HIT:     0  MISS:     0  HIT %:     0  MISS %:     0  AVERAGE MISS PENALTY: 0

L2C TOTAL     ACCESS: 95693580  HIT: 7971963  MISS: 87721617  HIT %: 8.33072  MISS %: 91.6693  AVERAGE MISS PENALTY: 895394
L2C LOAD      ACCESS: 17584155  HIT: 260494  MISS: 17323661  HIT %: 1.48141  MISS %: 98.5186  AVERAGE MISS PENALTY: 4.53215e+06
L2C RFO       ACCESS: 39553  HIT: 25284  MISS: 14269  HIT %: 63.9244  MISS %: 36.0756  AVERAGE MISS PENALTY: 640.145
L2C PREFETCH  ACCESS: 74995837  HIT: 4670480  MISS: 70325357  HIT %: 6.22765  MISS %: 93.7723  AVERAGE MISS PENALTY: 453.02
L2C WRITEBACK ACCESS: 3074035  HIT: 3015705  MISS: 58330  HIT %: 98.1025  MISS %: 1.89751  AVERAGE MISS PENALTY: 0


LLC0 TOTAL     ACCESS: 11530741  HIT: 5326494  MISS: 6204247  HIT %: 46.1939  MISS %: 53.8061  AVERAGE MISS PENALTY: 777.514
LLC0 LOAD      ACCESS: 2161868  HIT: 939294  MISS: 1222574  HIT %: 43.4483  MISS %: 56.5517  AVERAGE MISS PENALTY: 768.49
LLC0 RFO       ACCESS:  1785  HIT:   230  MISS:  1555  HIT %: 12.8852  MISS %: 87.1148  AVERAGE MISS PENALTY: 727.669
LLC0 PREFETCH  ACCESS: 8989380  HIT: 4073545  MISS: 4915835  HIT %: 45.3151  MISS %: 54.6849  AVERAGE MISS PENALTY: 789.941
LLC0 WRITEBACK ACCESS: 377708  HIT: 313425  MISS: 64283  HIT %: 82.9808  MISS %: 17.0192  AVERAGE MISS PENALTY: 0

LLC1 TOTAL     ACCESS: 11713223  HIT: 5353957  MISS: 6359266  HIT %: 45.7087  MISS %: 54.2913  AVERAGE MISS PENALTY: 779.555
LLC1 LOAD      ACCESS: 2100495  HIT: 891132  MISS: 1209363  HIT %: 42.4249  MISS %: 57.5751  AVERAGE MISS PENALTY: 772.295
LLC1 RFO       ACCESS:  1806  HIT:   252  MISS:  1554  HIT %: 13.9535  MISS %: 86.0465  AVERAGE MISS PENALTY: 748.55
LLC1 PREFETCH  ACCESS: 9229413  HIT: 4140936  MISS: 5088477  HIT %: 44.8667  MISS %: 55.1333  AVERAGE MISS PENALTY: 790.462
LLC1 WRITEBACK ACCESS: 381509  HIT: 321637  MISS: 59872  HIT %: 84.3065  MISS %: 15.6935  AVERAGE MISS PENALTY: 0

LLC2 TOTAL     ACCESS: 11717230  HIT: 5337329  MISS: 6379901  HIT %: 45.5511  MISS %: 54.4489  AVERAGE MISS PENALTY: 767.791
LLC2 LOAD      ACCESS: 2270847  HIT: 1024083  MISS: 1246764  HIT %: 45.097  MISS %: 54.903  AVERAGE MISS PENALTY: 767.823
LLC2 RFO       ACCESS:  1798  HIT:   237  MISS:  1561  HIT %: 13.1813  MISS %: 86.8187  AVERAGE MISS PENALTY: 730.949
[...]
LLC2 RFO       ACCESS:  2656  HIT:  1083  MISS:  1573  HIT %: 40.7756  MISS %: 59.2244  AVERAGE MISS PENALTY: 728.025
LLC2 PREFETCH  ACCESS: 9060425  HIT: 3990090  MISS: 5070335  HIT %: 44.0387  MISS %: 55.9613  AVERAGE MISS PENALTY: 824.06
LLC2 WRITEBACK ACCESS: 384274  HIT: 361762  MISS: 22512  HIT %: 94.1417  MISS %: 5.85832  AVERAGE MISS PENALTY: 0
LLC2 PREFETCH  REQUESTED:     0  ISSUED:     0  USEFUL: 3052479  USELESS: 37545396
 USEFUL LOAD PREFETCHES:    3052479 PREFETCH ISSUED TO LOWER LEVEL:  389506152  ACCURACY: 0.783679
 TIMELY PREFETCHES:    3052479 LATE PREFETCHES: 0 DROPPED PREFETCHES: 0
LLC2 AVERAGE MISS LATENCY: 772.3 cycles
LLC3 TOTAL     ACCESS: 11399174  HIT: 5197775  MISS: 6201399  HIT %: 45.5978  MISS %: 54.4022  AVERAGE MISS PENALTY: 776.141
LLC3 LOAD      ACCESS: 2130367  HIT: 900557  MISS: 1229810  HIT %: 42.2724  MISS %: 57.7276  AVERAGE MISS PENALTY: 771.01
LLC3 RFO       ACCESS:  2624  HIT:  1058  MISS:  1566  HIT %: 40.3201  MISS %: 59.6799  AVERAGE MISS PENALTY: 727.226
LLC3 PREFETCH  ACCESS: 8883094  HIT: 3935106  MISS: 4947988  HIT %: 44.2988  MISS %: 55.7012  AVERAGE MISS PENALTY: 780.888
LLC3 WRITEBACK ACCESS: 383089  HIT: 361054  MISS: 22035  HIT %: 94.2481  MISS %: 5.75193  AVERAGE MISS PENALTY: 0
LLC3 PREFETCH  REQUESTED:     0  ISSUED:     0  USEFUL: 3030736  USELESS: 36579671
 USEFUL LOAD PREFETCHES:    3030736 PREFETCH ISSUED TO LOWER LEVEL:  293526500  ACCURACY: 1.03253
 TIMELY PREFETCHES:    3030736 LATE PREFETCHES: 0 DROPPED PREFETCHES: 0
LLC3 AVERAGE MISS LATENCY: 776.141 cycles
LLC4 TOTAL     ACCESS: 11340576  HIT: 5212348  MISS: 6128228  HIT %: 45.9619  MISS %: 54.0381  AVERAGE MISS PENALTY: 715.023
LLC4 LOAD      ACCESS: 2150660  HIT: 912978  MISS: 1237682  HIT %: 42.4511  MISS %: 57.5489  AVERAGE MISS PENALTY: 697.138
LLC4 RFO       ACCESS:  2629  HIT:  1057  MISS:  1572  HIT %: 40.2054  MISS %: 59.7946  AVERAGE MISS PENALTY: 652.302
LLC4 PREFETCH  ACCESS: 8802996  HIT: 3936543  MISS: 4866453  HIT %: 44.7182  MISS %: 55.2818  AVERAGE MISS PENALTY: 722.901
LLC4 WRITEBACK ACCESS: 384291  HIT: 361770  MISS: 22521  HIT %: 94.1396  MISS %: 5.8604  AVERAGE MISS PENALTY: 0
LLC4 PREFETCH  REQUESTED:     0  ISSUED:     0  USEFUL: 3009982  USELESS: 35953635
 USEFUL LOAD PREFETCHES:    3009982 PREFETCH ISSUED TO LOWER LEVEL:  558530253  ACCURACY: 0.538911
 TIMELY PREFETCHES:    3009982 LATE PREFETCHES: 0 DROPPED PREFETCHES: 0
LLC4 AVERAGE MISS LATENCY: 715.023 cycles
LLC5 TOTAL     ACCESS: 11194922  HIT: 5184740  MISS: 6010182  HIT %: 46.3133  MISS %: 53.6867  AVERAGE MISS PENALTY: 681.619
LLC5 LOAD      ACCESS: 2155609  HIT: 937665  MISS: 1217944  HIT %: 43.4988  MISS %: 56.5012  AVERAGE MISS PENALTY: 659.601
LLC5 RFO       ACCESS:  2535  HIT:   973  MISS:  1562  HIT %: 38.3826  MISS %: 61.6174  AVERAGE MISS PENALTY: 633.734
LLC5 PREFETCH  ACCESS: 8662982  HIT: 3894395  MISS: 4768587  HIT %: 44.9544  MISS %: 55.0456  AVERAGE MISS PENALTY: 690.416
LLC5 WRITEBACK ACCESS: 373796  HIT: 351707  MISS: 22089  HIT %: 94.0906  MISS %: 5.90937  AVERAGE MISS PENALTY: 0
LLC5 PREFETCH  REQUESTED:     0  ISSUED:     0  USEFUL: 2974065  USELESS: 35207840
 USEFUL LOAD PREFETCHES:    2974065 PREFETCH ISSUED TO LOWER LEVEL:  407198246  ACCURACY: 0.730373
 TIMELY PREFETCHES:    2974065 LATE PREFETCHES: 0 DROPPED PREFETCHES: 0
LLC5 AVERAGE MISS LATENCY: 681.619 cycles
LLC6 TOTAL     ACCESS: 10987813  HIT: 5131797  MISS: 5856016  HIT %: 46.7044  MISS %: 53.2956  AVERAGE MISS PENALTY: 707.341
LLC6 LOAD      ACCESS: 2122303  HIT: 907179  MISS: 1215124  HIT %: 42.745  MISS %: 57.255  AVERAGE MISS PENALTY: 694.611
LLC6 RFO       ACCESS:  2533  HIT:   974  MISS:  1559  HIT %: 38.4524  MISS %: 61.5476  AVERAGE MISS PENALTY: 652.724
LLC6 PREFETCH  ACCESS: 8484577  HIT: 3867948  MISS: 4616629  HIT %: 45.588  MISS %: 54.412  AVERAGE MISS PENALTY: 714.188
LLC6 WRITEBACK ACCESS: 378400  HIT: 355696  MISS: 22704  HIT %:    94  MISS %:     6  AVERAGE MISS PENALTY: 0
LLC6 PREFETCH  REQUESTED:     0  ISSUED:     0  USEFUL: 2913501  USELESS: 34040414
 USEFUL LOAD PREFETCHES:    2913501 PREFETCH ISSUED TO LOWER LEVEL:  779512794  ACCURACY: 0.373759
 TIMELY PREFETCHES:    2913501 LATE PREFETCHES: 0 DROPPED PREFETCHES: 0
LLC6 AVERAGE MISS LATENCY: 707.341 cycles
LLC7 TOTAL     ACCESS: 10811587  HIT: 5123281  MISS: 5688306  HIT %: 47.3869  MISS %: 52.6131  AVERAGE MISS PENALTY: 678.117
LLC7 LOAD      ACCESS: 2193267  HIT: 964197  MISS: 1229070  HIT %: 43.9617  MISS %: 56.0383  AVERAGE MISS PENALTY: 654.032
LLC7 RFO       ACCESS:  2548  HIT:   981  MISS:  1567  HIT %: 38.5008  MISS %: 61.4992  AVERAGE MISS PENALTY: 635.885
LLC7 PREFETCH  ACCESS: 8233926  HIT: 3799745  MISS: 4434181  HIT %: 46.1474  MISS %: 53.8526  AVERAGE MISS PENALTY: 688.4
LLC7 WRITEBACK ACCESS: 381846  HIT: 358358  MISS: 23488  HIT %: 93.8488  MISS %: 6.15117  AVERAGE MISS PENALTY: 0
LLC7 PREFETCH  REQUESTED:     0  ISSUED:     0  USEFUL: 2851783  USELESS: 32640002
 USEFUL LOAD PREFETCHES:    2851783 PREFETCH ISSUED TO LOWER LEVEL:  547084665  ACCURACY: 0.521269
 TIMELY PREFETCHES:    2851783 LATE PREFETCHES: 0 DROPPED PREFETCHES: 0
LLC7 AVERAGE MISS LATENCY: 678.117 cycles
ROI Average ROB Stall Cycles:	70.7896
ROI Total ROB Stalls Cycles:	3859157830
ROI TOTAL ROB counter      :	54515881
ROI Average Load ROB Stall Cycles:	470.968
ROI Total Load ROB Stalls Cycle  :	3129904225
ROI Total Load ROB stalls Counter:	6645687
Major fault: 0 Minor fault: 37417

CPU 7 cumulative IPC: 0.05091 instructions: 200000002 cycles: 3928500859
ITLB TOTAL     ACCESS: 32084239  HIT: 32084239  MISS:     0  HIT %:   100  MISS %:     0  AVERAGE MISS PENALTY: 0
ITLB LOAD      ACCESS: 32084239  HIT: 32084239  MISS:     0  HIT %:   100  MISS %:     0  AVERAGE MISS PENALTY: 0
ITLB RFO       ACCESS:     0  HIT:     0  MISS:     0  HIT %:     0  MISS %:     0  AVERAGE MISS PENALTY: 0
ITLB PREFETCH  ACCESS:     0  HIT:     0  MISS:     0  HIT %:     0  MISS %:     0  AVERAGE MISS PENALTY: 0
ITLB WRITEBACK ACCESS:     0  HIT:     0  MISS:     0  HIT %:     0  MISS %:     0  AVERAGE MISS PENALTY: 0
ITLB PREFETCH  REQUESTED:     0  ISSUED:     0  USEFUL:     0  USELESS:     0
 USEFUL LOAD PREFETCHES:          0 PREFETCH ISSUED TO LOWER LEVEL:          0  ACCURACY: -nan
 TIMELY PREFETCHES:          0 LATE PREFETCHES: 0 DROPPED PREFETCHES: 0
ITLB AVERAGE MISS LATENCY: -nan cycles
DTLB TOTAL     ACCESS: 44231282  HIT: 29699510  MISS: 14531772  HIT %: 67.1459  MISS %: 32.8541  AVERAGE MISS PENALTY: 37.5806
DTLB LOAD      ACCESS: 38535765  HIT: 26462062  MISS: 12073703  HIT %: 68.6688  MISS %: 31.3312  AVERAGE MISS PENALTY: 30.239
DTLB RFO       ACCESS: 5695517  HIT: 3237448  MISS: 2458069  HIT %: 56.842  MISS %: 43.158  AVERAGE MISS PENALTY: 73.6415
DTLB PREFETCH  ACCESS:     0  HIT:     0  MISS:     0  HIT %:     0  MISS %:     0  AVERAGE MISS PENALTY: 0
DTLB WRITEBACK ACCESS:     0  HIT:     0  MISS:     0  HIT %:     0  MISS %:     0  AVERAGE MISS PENALTY: 0
DTLB PREFETCH  REQUESTED:     0  ISSUED:     0  USEFUL:     0  USELESS:     0
 USEFUL LOAD PREFETCHES:          0 PREFETCH ISSUED TO LOWER LEVEL:          0  ACCURACY: -nan
 TIMELY PREFETCHES:          0 LATE PREFETCHES: 0 DROPPED PREFETCHES: 0
DTLB AVERAGE MISS LATENCY: 37.5806 cycles
STLB TOTAL     ACCESS: 14531772  HIT: 12306710  MISS: 2225062  HIT %: 84.6883  MISS %: 15.3117  AVERAGE MISS PENALTY: 100
STLB LOAD      ACCESS: 12073703  HIT: 11033884  MISS: 1039819  HIT %: 91.3877  MISS %: 8.61226  AVERAGE MISS PENALTY: 100
STLB RFO       ACCESS: 2458069  HIT: 1272826  MISS: 1185243  HIT %: 51.7815  MISS %: 48.2185  AVERAGE MISS PENALTY: 100
STLB PREFETCH  ACCESS:     0  HIT:     0  MISS:     0  HIT %:     0  MISS %:     0  AVERAGE MISS PENALTY: 0
STLB WRITEBACK ACCESS:     0  HIT:     0  MISS:     0  HIT %:     0  MISS %:     0  AVERAGE MISS PENALTY: 0
STLB PREFETCH  REQUESTED:     0  ISSUED:     0  USEFUL:     0  USELESS:     0
 USEFUL LOAD PREFETCHES:          0 PREFETCH ISSUED TO LOWER LEVEL:          0  ACCURACY: -nan
 TIMELY PREFETCHES:          0 LATE PREFETCHES: 0 DROPPED PREFETCHES: 0
STLB AVERAGE MISS LATENCY: 100 cycles
L1D TOTAL     ACCESS: 88973875  HIT: 30451272  MISS: 58522603  HIT %: 34.225  MISS %: 65.775  AVERAGE MISS PENALTY: 1.51371e+06
L1D LOAD      ACCESS: 40393168  HIT: 22849015  MISS: 17544153  HIT %: 56.5665  MISS %: 43.4335  AVERAGE MISS PENALTY: 5.04832e+06
L1D RFO       ACCESS: 6048362  HIT: 6008848  MISS: 39514  HIT %: 99.3467  MISS %: 0.653301  AVERAGE MISS PENALTY: 258.072
L1D PREFETCH  ACCESS: 42532345  HIT: 1593409  MISS: 40938936  HIT %: 3.74635  MISS %: 96.2537  AVERAGE MISS PENALTY: 435.843
L1D WRITEBACK ACCESS:     0  HIT:     0  MISS:     0  HIT %:     0  MISS %:     0  AVERAGE MISS PENALTY: 0
L1D PREFETCH  REQUESTED: 60185746  ISSUED: 42814293  USEFUL: 915731  USELESS: 40023306
 USEFUL LOAD PREFETCHES:     915731 PREFETCH ISSUED TO LOWER LEVEL:  539247378  ACCURACY: 0.169816
 TIMELY PREFETCHES:     915731 LATE PREFETCHES: 117986 DROPPED PREFETCHES: 17371453
L1D AVERAGE MISS LATENCY: 444.642 cycles
L1I TOTAL     ACCESS: 47835543  HIT: 47835543  MISS:     0  HIT %:   100  MISS %:     0  AVERAGE MISS PENALTY: 0
L1I LOAD      ACCESS: 47835543  HIT: 47835543  MISS:     0  HIT %:   100  MISS %:     0  AVERAGE MISS PENALTY: 0
L1I RFO       ACCESS:     0  HIT:     0  MISS:     0  HIT %:     0  MISS %:     0  AVERAGE MISS PENALTY: 0
L1I PREFETCH  ACCESS:     0  HIT:     0  MISS:     0  HIT %:     0  MISS %:     0  AVERAGE MISS PENALTY: 0
L1I WRITEBACK ACCESS:     0  HIT:     0  MISS:     0  HIT %:     0  MISS %:     0  AVERAGE MISS PENALTY: 0
L1I PREFETCH  REQUESTED:     0  ISSUED:     0  USEFUL:     0  USELESS:     0
 USEFUL LOAD PREFETCHES:          0 PREFETCH ISSUED TO LOWER LEVEL:          0  ACCURACY: -nan
 TIMELY PREFETCHES:          0 LATE PREFETCHES: 0 DROPPED PREFETCHES: 0
L1I AVERAGE MISS LATENCY: -nan cycles
L2C TOTAL     ACCESS: 95501172  HIT: 7855233  MISS: 87645939  HIT %: 8.22527  MISS %: 91.7747  AVERAGE MISS PENALTY: 888652
L2C LOAD      ACCESS: 17543229  HIT: 256751  MISS: 17286478  HIT %: 1.46353  MISS %: 98.5365  AVERAGE MISS PENALTY: 4.50381e+06
L2C RFO       ACCESS: 39503  HIT: 19391  MISS: 20112  HIT %: 49.0874  MISS %: 50.9126  AVERAGE MISS PENALTY: 469.652
L2C PREFETCH  ACCESS: 74839600  HIT: 4630520  MISS: 70209080  HIT %: 6.18726  MISS %: 93.8127  AVERAGE MISS PENALTY: 453.3
L2C WRITEBACK ACCESS: 3078840  HIT: 2948571  MISS: 130269  HIT %: 95.7689  MISS %: 4.23111  AVERAGE MISS PENALTY: 0
L2C PREFETCH  REQUESTED: 96971687  ISSUED: 96407129  USEFUL: 120867  USELESS: 70089661
 USEFUL LOAD PREFETCHES:     120867 PREFETCH ISSUED TO LOWER LEVEL:   93275737  ACCURACY: 0.12958
 TIMELY PREFETCHES:     120867 LATE PREFETCHES: 268488 DROPPED PREFETCHES: 564558
L2C AVERAGE MISS LATENCY: 452.276 cycles
LLC0 TOTAL     ACCESS: 11513291  HIT: 5319480  MISS: 6193811  HIT %: 46.2029  MISS %: 53.7971  AVERAGE MISS PENALTY: 777.733
LLC0 LOAD      ACCESS: 2158150  HIT: 936592  MISS: 1221558  HIT %: 43.3979  MISS %: 56.6021  AVERAGE MISS PENALTY: 768.644
LLC0 RFO       ACCESS:  2558  HIT:   994  MISS:  1564  HIT %: 38.8585  MISS %: 61.1415  AVERAGE MISS PENALTY: 745.918
LLC0 PREFETCH  ACCESS: 8972901  HIT: 4065370  MISS: 4907531  HIT %: 45.3072  MISS %: 54.6928  AVERAGE MISS PENALTY: 790.015
LLC0 WRITEBACK ACCESS: 379682  HIT: 316524  MISS: 63158  HIT %: 83.3656  MISS %: 16.6344  AVERAGE MISS PENALTY: 0
LLC0 PREFETCH  REQUESTED:     0  ISSUED:     0  USEFUL: 3027442  USELESS: 36294437
 USEFUL LOAD PREFETCHES:    3027442 PREFETCH ISSUED TO LOWER LEVEL:  265436472  ACCURACY: 1.14055
 TIMELY PREFETCHES:    3027442 LATE PREFETCHES: 0 DROPPED PREFETCHES: 0
LLC0 AVERAGE MISS LATENCY: 777.733 cycles
Deadblocks : 8844157 Deadblock percentage : 724.006

LLC1 TOTAL     ACCESS: 11696205  HIT: 5346857  MISS: 6349348  HIT %: 45.7145  MISS %: 54.2855  AVERAGE MISS PENALTY: 780.154
LLC1 LOAD      ACCESS: 2096451  HIT: 889777  MISS: 1206674  HIT %: 42.4421  MISS %: 57.5579  AVERAGE MISS PENALTY: 772.143
LLC1 RFO       ACCESS:  2570  HIT:  1008  MISS:  1562  HIT %: 39.2218  MISS %: 60.7782  AVERAGE MISS PENALTY: 737.942
LLC1 PREFETCH  ACCESS: 9213677  HIT: 4131173  MISS: 5082504  HIT %: 44.8374  MISS %: 55.1626  AVERAGE MISS PENALTY: 791.065
LLC1 WRITEBACK ACCESS: 383507  HIT: 324899  MISS: 58608  HIT %: 84.7179  MISS %: 15.2821  AVERAGE MISS PENALTY: 0
LLC1 PREFETCH  REQUESTED:     0  ISSUED:     0  USEFUL: 3044874  USELESS: 37669655
 USEFUL LOAD PREFETCHES:    3044874 PREFETCH ISSUED TO LOWER LEVEL:  214933572  ACCURACY: 1.41666
 TIMELY PREFETCHES:    3044874 LATE PREFETCHES: 0 DROPPED PREFETCHES: 0
LLC1 AVERAGE MISS LATENCY: 780.154 cycles
LLC2 TOTAL     ACCESS: 11698699  HIT: 5328634  MISS: 6370065  HIT %: 45.5489  MISS %: 54.4511  AVERAGE MISS PENALTY: 768.002
LLC2 LOAD      ACCESS: 2264155  HIT: 1019877  MISS: 1244278  HIT %: 45.0445  MISS %: 54.9555  AVERAGE MISS PENALTY: 768.361
LLC2 RFO       ACCESS:  2550  HIT:   987  MISS:  1563  HIT %: 38.7059  MISS %: 61.2941  AVERAGE MISS PENALTY: 733.149
LLC2 PREFETCH  ACCESS: 9050112  HIT: 3982718  MISS: 5067394  HIT %: 44.0074  MISS %: 55.9926  AVERAGE MISS PENALTY: 776.537
LLC2 WRITEBACK ACCESS: 381882  HIT: 325052  MISS: 56830  HIT %: 85.1184  MISS %: 14.8816  AVERAGE MISS PENALTY: 0
LLC2 PREFETCH  REQUESTED:     0  ISSUED:     0  USEFUL: 3052479  USELESS: 37545396
 USEFUL LOAD PREFETCHES:    3052479 PREFETCH ISSUED TO LOWER LEVEL:  389506152  ACCURACY: 0.783679
 TIMELY PREFETCHES:    3052479 LATE PREFETCHES: 0 DROPPED PREFETCHES: 0
LLC2 AVERAGE MISS LATENCY: 768.002 cycles
LLC3 TOTAL     ACCESS: 11382307  HIT: 5155382  MISS: 6226925  HIT %: 45.2929  MISS %: 54.7071  AVERAGE MISS PENALTY: 772.472
LLC3 LOAD      ACCESS: 2125882  HIT: 899803  MISS: 1226079  HIT %: 42.3261  MISS %: 57.6739  AVERAGE MISS PENALTY: 770.799
LLC3 RFO       ACCESS:  2550  HIT:   994  MISS:  1556  HIT %: 38.9804  MISS %: 61.0196  AVERAGE MISS PENALTY: 729.931
LLC3 PREFETCH  ACCESS: 8873249  HIT: 3929422  MISS: 4943827  HIT %: 44.2839  MISS %: 55.7161  AVERAGE MISS PENALTY: 781.566
LLC3 WRITEBACK ACCESS: 380626  HIT: 325163  MISS: 55463  HIT %: 85.4285  MISS %: 14.5715  AVERAGE MISS PENALTY: 0
LLC3 PREFETCH  REQUESTED:     0  ISSUED:     0  USEFUL: 3030736  USELESS: 36579671
 USEFUL LOAD PREFETCHES:    3030736 PREFETCH ISSUED TO LOWER LEVEL:  293526500  ACCURACY: 1.03253
 TIMELY PREFETCHES:    3030736 LATE PREFETCHES: 0 DROPPED PREFETCHES: 0
LLC3 AVERAGE MISS LATENCY: 772.472 cycles
LLC4 TOTAL     ACCESS: 11323301  HIT: 5167771  MISS: 6155530  HIT %: 45.6384  MISS %: 54.3616  AVERAGE MISS PENALTY: 711.219
LLC4 LOAD      ACCESS: 2145615  HIT: 911109  MISS: 1234506  HIT %: 42.4638  MISS %: 57.5362  AVERAGE MISS PENALTY: 697.301
LLC4 RFO       ACCESS:  2535  HIT:   976  MISS:  1559  HIT %: 38.501  MISS %: 61.499  AVERAGE MISS PENALTY: 666.513
LLC4 PREFETCH  ACCESS: 8793499  HIT: 3929188  MISS: 4864311  HIT %: 44.6829  MISS %: 55.3171  AVERAGE MISS PENALTY: 722.829
LLC4 WRITEBACK ACCESS: 381652  HIT: 326498  MISS: 55154  HIT %: 85.5486  MISS %: 14.4514  AVERAGE MISS PENALTY: 0
LLC4 PREFETCH  REQUESTED:     0  ISSUED:     0  USEFUL: 3009982  USELESS: 35953635
 USEFUL LOAD PREFETCHES:    3009982 PREFETCH ISSUED TO LOWER LEVEL:  558530253  ACCURACY: 0.538911
 TIMELY PREFETCHES:    3009982 LATE PREFETCHES: 0 DROPPED PREFETCHES: 0
LLC4 AVERAGE MISS LATENCY: 711.219 cycles
LLC5 TOTAL     ACCESS: 11176439  HIT: 5139217  MISS: 6037222  HIT %: 45.9826  MISS %: 54.0174  AVERAGE MISS PENALTY: 678.424
LLC5 LOAD      ACCESS: 2150882  HIT: 935577  MISS: 1215305  HIT %: 43.4974  MISS %: 56.5026  AVERAGE MISS PENALTY: 660.322
LLC5 RFO       ACCESS:  2442  HIT:   888  MISS:  1554  HIT %: 36.3636  MISS %: 63.6364  AVERAGE MISS PENALTY: 630.824
LLC5 PREFETCH  ACCESS: 8651577  HIT: 3884430  MISS: 4767147  HIT %: 44.8985  MISS %: 55.1015  AVERAGE MISS PENALTY: 690.627
LLC5 WRITEBACK ACCESS: 371538  HIT: 318322  MISS: 53216  HIT %: 85.6768  MISS %: 14.3232  AVERAGE MISS PENALTY: 0
LLC5 PREFETCH  REQUESTED:     0  ISSUED:     0  USEFUL: 2974065  USELESS: 35207840
 USEFUL LOAD PREFETCHES:    2974065 PREFETCH ISSUED TO LOWER LEVEL:  407198246  ACCURACY: 0.730373
 TIMELY PREFETCHES:    2974065 LATE PREFETCHES: 0 DROPPED PREFETCHES: 0
LLC5 AVERAGE MISS LATENCY: 678.424 cycles
LLC6 TOTAL     ACCESS: 10968370  HIT: 5088956  MISS: 5879414  HIT %: 46.3966  MISS %: 53.6034  AVERAGE MISS PENALTY: 703.771
LLC6 LOAD      ACCESS: 2117374  HIT: 904311  MISS: 1213063  HIT %: 42.7091  MISS %: 57.2909  AVERAGE MISS PENALTY: 694.73
LLC6 RFO       ACCESS:  2455  HIT:   895  MISS:  1560  HIT %: 36.4562  MISS %: 63.5438  AVERAGE MISS PENALTY: 650.159
LLC6 PREFETCH  ACCESS: 8472571  HIT: 3860754  MISS: 4611817  HIT %: 45.5677  MISS %: 54.4323  AVERAGE MISS PENALTY: 714.251
LLC6 WRITEBACK ACCESS: 375970  HIT: 322996  MISS: 52974  HIT %: 85.91  MISS %: 14.09  AVERAGE MISS PENALTY: 0
LLC6 PREFETCH  REQUESTED:     0  ISSUED:     0  USEFUL: 2913501  USELESS: 34040414
 USEFUL LOAD PREFETCHES:    2913501 PREFETCH ISSUED TO LOWER LEVEL:  779512794  ACCURACY: 0.373759
 TIMELY PREFETCHES:    2913501 LATE PREFETCHES: 0 DROPPED PREFETCHES: 0
LLC6 AVERAGE MISS LATENCY: 703.771 cycles
LLC7 TOTAL     ACCESS: 10791371  HIT: 5081040  MISS: 5710331  HIT %: 47.0843  MISS %: 52.9157  AVERAGE MISS PENALTY: 674.534
LLC7 LOAD      ACCESS: 2186979  HIT: 961764  MISS: 1225215  HIT %: 43.9768  MISS %: 56.0232  AVERAGE MISS PENALTY: 653.83
LLC7 RFO       ACCESS:  2448  HIT:   886  MISS:  1562  HIT %: 36.1928  MISS %: 63.8072  AVERAGE MISS PENALTY: 616.955
LLC7 PREFETCH  ACCESS: 8222483  HIT: 3791236  MISS: 4431247  HIT %: 46.1082  MISS %: 53.8918  AVERAGE MISS PENALTY: 688.241
LLC7 WRITEBACK ACCESS: 379461  HIT: 327154  MISS: 52307  HIT %: 86.2154  MISS %: 13.7846  AVERAGE MISS PENALTY: 0
LLC7 PREFETCH  REQUESTED:     0  ISSUED:     0  USEFUL: 2851783  USELESS: 32640002
 USEFUL LOAD PREFETCHES:    2851783 PREFETCH ISSUED TO LOWER LEVEL:  547084665  ACCURACY: 0.521269
 TIMELY PREFETCHES:    2851783 LATE PREFETCHES: 0 DROPPED PREFETCHES: 0
LLC7 AVERAGE MISS LATENCY: 674.534 cycles
ROI Average ROB Stall Cycles:	70.5802
ROI Total ROB Stalls Cycles:	3857505529
ROI TOTAL ROB counter      :	54654194
ROI Average Load ROB Stall Cycles:	469.507
ROI Total Load ROB Stalls Cycle  :	3127553034
ROI Total Load ROB stalls Counter:	6661351
Major fault: 0 Minor fault: 37417








Interconnect Stats 
LINK 0 BW : 0LINK 1 BW : 0LINK 2 BW : 0LINK 3 BW : 0LINK 4 BW : 0LINK 5 BW : 0LINK 6 BW : 0LINK 7 BW : 0
DRAM Statistics
 CHANNEL 0
 RQ ROW_BUFFER_HIT: 53915909  ROW_BUFFER_MISS: 141365867
 DBUS_CONGESTED: 111066686
 WQ ROW_BUFFER_HIT: 481452  ROW_BUFFER_MISS: 11058171  FULL:     0

 CHANNEL 1
 RQ ROW_BUFFER_HIT: 52751154  ROW_BUFFER_MISS: 140367905
 DBUS_CONGESTED: 111066686
 WQ ROW_BUFFER_HIT: 479123  ROW_BUFFER_MISS: 11019775  FULL:     0

 AVG_CONGESTED_CYCLE: 5
DRAM PAGES: 2097152
Allocated PAGES: 299336
L2C destructor called
L1D destructor called
L1I destructor called
STLB destructor called
DTLB destructor called
ITLB destructor called
L2C destructor called
L1D destructor called
L1I destructor called
STLB destructor called
DTLB destructor called
ITLB destructor called
L2C destructor called
L1D destructor called
L1I destructor called
STLB destructor called
DTLB destructor called
ITLB destructor called
L2C destructor called
L1D destructor called
L1I destructor called
STLB destructor called
DTLB destructor called
ITLB destructor called
L2C destructor called
L1D destructor called
L1I destructor called
STLB destructor called
DTLB destructor called
ITLB destructor called
L2C destructor called
L1D destructor called
L1I destructor called
STLB destructor called
DTLB destructor called
ITLB destructor called
L2C destructor called
L1D destructor called
L1I destructor called
STLB destructor called
DTLB destructor called
ITLB destructor called
L2C destructor called
L1D destructor called
L1I destructor called
STLB destructor called
DTLB destructor called
ITLB destructor called
