
*** ChampSim Multicore Out-of-Order Simulator ***

Warmup Instructions: 200000000
Simulation Instructions: 200000000
Number of CPUs: 8
threads:1

L1I Configuration:
L1I_SET:64
L1I_WAY:8
L1I_RQ_SIZE:64
L1I_WQ_SIZE:64
L1I_PQ_SIZE:8
L1I_MSHR_SIZE:8

L1D Configuration:
L1D_SET:64
L1D_WAY:12
L1D_RQ_SIZE:64
L1D_WQ_SIZE:64
L1D_PQ_SIZE:8
L1D_MSHR_SIZE:16

L2C Configuration:
L2C_SET:1024
L2C_WAY:8
L2C_RQ_SIZE:32
L2C_WQ_SIZE:32
L2C_PQ_SIZE:16
L2C_MSHR_SIZE:32

LLC Configuration:
LLC_SET:2048
LLC_WAY:16
LLC SLICES:8
LLC_RQ_SIZE:64
LLC_WQ_SIZE:64
LLC_PQ_SIZE:32
LLC_MSHR_SIZE:64

Interconnect OFF
Attacker deprioritize is: OFF
Off-chip DRAM Size: 8192 MB Channels: 2 Width: 64-bit Data Rate: 3200 MT/s
PAGE SIZE in KB: 4.000000 
PAGE SIZE in MB: 0.003906 
PAGE offset in bits: 12 
CEASER-S_LLC:0
MIRAGE : 1
CEASER_LATENCY:3
REMAP : OFF
Partitions : 1
Multi-Step : OFF
BFS : OFF

CPU 0 runs /home/anubhav/gap/bfs-14.trace.gz
CPU 1 runs /home/anubhav/gap/bfs-14.trace.gz
CPU 2 runs /home/anubhav/gap/bfs-14.trace.gz
CPU 3 runs /home/anubhav/gap/bfs-14.trace.gz
CPU 4 runs /home/anubhav/gap/bfs-14.trace.gz
CPU 5 runs /home/anubhav/gap/bfs-14.trace.gz
CPU 6 runs /home/anubhav/gap/bfs-14.trace.gz
CPU 7 runs /home/anubhav/gap/bfs-14.trace.gz
CPU 0 Bimodal branch predictor
Initialize Hawkeye state
Initialize Hawkeye state
Initialize Hawkeye state
Initialize Hawkeye state
Initialize Hawkeye state
Initialize Hawkeye state
Initialize Hawkeye state
Initialize Hawkeye state
CPU 1 Bimodal branch predictor
Initialize Hawkeye state
Initialize Hawkeye state
Initialize Hawkeye state
Initialize Hawkeye state
Initialize Hawkeye state
Initialize Hawkeye state
Initialize Hawkeye state
Initialize Hawkeye state
CPU 2 Bimodal branch predictor
Initialize Hawkeye state
Initialize Hawkeye state
Initialize Hawkeye state
Initialize Hawkeye state
Initialize Hawkeye state
Initialize Hawkeye state
Initialize Hawkeye state
Initialize Hawkeye state
CPU 3 Bimodal branch predictor
Initialize Hawkeye state
Initialize Hawkeye state
Initialize Hawkeye state
Initialize Hawkeye state
Initialize Hawkeye state
Initialize Hawkeye state
Initialize Hawkeye state
Initialize Hawkeye state
CPU 4 Bimodal branch predictor
Initialize Hawkeye state
Initialize Hawkeye state
Initialize Hawkeye state
Initialize Hawkeye state
Initialize Hawkeye state
Initialize Hawkeye state
Initialize Hawkeye state
Initialize Hawkeye state
CPU 5 Bimodal branch predictor
Initialize Hawkeye state
Initialize Hawkeye state
Initialize Hawkeye state
Initialize Hawkeye state
Initialize Hawkeye state
Initialize Hawkeye state
Initialize Hawkeye state
Initialize Hawkeye state
CPU 6 Bimodal branch predictor
Initialize Hawkeye state
Initialize Hawkeye state
Initialize Hawkeye state
Initialize Hawkeye state
Initialize Hawkeye state
Initialize Hawkeye state
Initialize Hawkeye state
Initialize Hawkeye state
CPU 7 Bimodal branch predictor
Initialize Hawkeye state
Initialize Hawkeye state
Initialize Hawkeye state
Initialize Hawkeye state
Initialize Hawkeye state
Initialize Hawkeye state
Initialize Hawkeye state
Initialize Hawkeye state
Heartbeat CPU 0 instructions: 10000003 cycles: 14730375 heartbeat IPC: 0.67887 cumulative IPC: 0.67887 (Simulation time: 0 hr 12 min 59 sec) 
 Total Blocks : 262144 Invalid Blocks : 718
Heartbeat CPU 1 instructions: 10000003 cycles: 14730381 heartbeat IPC: 0.678869 cumulative IPC: 0.678869 (Simulation time: 0 hr 12 min 59 sec) 
 Total Blocks : 262144 Invalid Blocks : 718
Heartbeat CPU 2 instructions: 10000003 cycles: 14730385 heartbeat IPC: 0.678869 cumulative IPC: 0.678869 (Simulation time: 0 hr 12 min 59 sec) 
 Total Blocks : 262144 Invalid Blocks : 718
Heartbeat CPU 3 instructions: 10000003 cycles: 14730388 heartbeat IPC: 0.678869 cumulative IPC: 0.678869 (Simulation time: 0 hr 12 min 59 sec) 
 Total Blocks : 262144 Invalid Blocks : 718
Heartbeat CPU 4 instructions: 10000003 cycles: 14730391 heartbeat IPC: 0.678869 cumulative IPC: 0.678869 (Simulation time: 0 hr 12 min 59 sec) 
 Total Blocks : 262144 Invalid Blocks : 718
Heartbeat CPU 5 instructions: 10000003 cycles: 14730394 heartbeat IPC: 0.678869 cumulative IPC: 0.678869 (Simulation time: 0 hr 12 min 59 sec) 
 Total Blocks : 262144 Invalid Blocks : 718
Heartbeat CPU 6 instructions: 10000003 cycles: 14730397 heartbeat IPC: 0.678869 cumulative IPC: 0.678869 (Simulation time: 0 hr 12 min 59 sec) 
 Total Blocks : 262144 Invalid Blocks : 718
Heartbeat CPU 7 instructions: 10000003 cycles: 14730400 heartbeat IPC: 0.678868 cumulative IPC: 0.678868 (Simulation time: 0 hr 12 min 59 sec) 
 Total Blocks : 262144 Invalid Blocks : 718
Heartbeat CPU 7 instructions: 20000001 cycles: 29414324 heartbeat IPC: 0.681017 cumulative IPC: 0.679941 (Simulation time: 1 hr 21 min 1 sec) 
 Total Blocks : 262144 Invalid Blocks : 0
Heartbeat CPU 5 instructions: 20000001 cycles: 29414994 heartbeat IPC: 0.680985 cumulative IPC: 0.679925 (Simulation time: 1 hr 21 min 1 sec) 
 Total Blocks : 262144 Invalid Blocks : 0
Heartbeat CPU 6 instructions: 20000001 cycles: 29436485 heartbeat IPC: 0.67999 cumulative IPC: 0.679429 (Simulation time: 1 hr 21 min 11 sec) 
 Total Blocks : 262144 Invalid Blocks : 0
Heartbeat CPU 4 instructions: 20000001 cycles: 29442346 heartbeat IPC: 0.679719 cumulative IPC: 0.679294 (Simulation time: 1 hr 21 min 14 sec) 
 Total Blocks : 262144 Invalid Blocks : 0
Heartbeat CPU 3 instructions: 20000001 cycles: 29442560 heartbeat IPC: 0.679709 cumulative IPC: 0.679289 (Simulation time: 1 hr 21 min 14 sec) 
 Total Blocks : 262144 Invalid Blocks : 0
Heartbeat CPU 1 instructions: 20000001 cycles: 29442880 heartbeat IPC: 0.679694 cumulative IPC: 0.679281 (Simulation time: 1 hr 21 min 14 sec) 
 Total Blocks : 262144 Invalid Blocks : 0
Heartbeat CPU 0 instructions: 20000001 cycles: 29442910 heartbeat IPC: 0.679692 cumulative IPC: 0.679281 (Simulation time: 1 hr 21 min 14 sec) 
 Total Blocks : 262144 Invalid Blocks : 0
Heartbeat CPU 2 instructions: 20000001 cycles: 29442944 heartbeat IPC: 0.679691 cumulative IPC: 0.67928 (Simulation time: 1 hr 21 min 14 sec) 
 Total Blocks : 262144 Invalid Blocks : 0
Heartbeat CPU 7 instructions: 30000003 cycles: 44717810 heartbeat IPC: 0.653446 cumulative IPC: 0.670874 (Simulation time: 3 hr 49 min 13 sec) 
 Total Blocks : 262144 Invalid Blocks : 0
Heartbeat CPU 5 instructions: 30000003 cycles: 44718889 heartbeat IPC: 0.653429 cumulative IPC: 0.670858 (Simulation time: 3 hr 49 min 14 sec) 
 Total Blocks : 262144 Invalid Blocks : 0
Heartbeat CPU 6 instructions: 30000003 cycles: 44763384 heartbeat IPC: 0.652448 cumulative IPC: 0.670191 (Simulation time: 3 hr 49 min 49 sec) 
 Total Blocks : 262144 Invalid Blocks : 0
Heartbeat CPU 4 instructions: 30000003 cycles: 44776536 heartbeat IPC: 0.652138 cumulative IPC: 0.669994 (Simulation time: 3 hr 50 min 0 sec) 
 Total Blocks : 262144 Invalid Blocks : 0
Heartbeat CPU 3 instructions: 30000003 cycles: 44776968 heartbeat IPC: 0.652128 cumulative IPC: 0.669987 (Simulation time: 3 hr 50 min 0 sec) 
 Total Blocks : 262144 Invalid Blocks : 0
Heartbeat CPU 0 instructions: 30000003 cycles: 44776980 heartbeat IPC: 0.652143 cumulative IPC: 0.669987 (Simulation time: 3 hr 50 min 0 sec) 
 Total Blocks : 262144 Invalid Blocks : 0
Heartbeat CPU 1 instructions: 30000003 cycles: 44777208 heartbeat IPC: 0.652132 cumulative IPC: 0.669984 (Simulation time: 3 hr 50 min 1 sec) 
 Total Blocks : 262144 Invalid Blocks : 0
Heartbeat CPU 2 instructions: 30000003 cycles: 44777288 heartbeat IPC: 0.652131 cumulative IPC: 0.669983 (Simulation time: 3 hr 50 min 1 sec) 
 Total Blocks : 262144 Invalid Blocks : 0
Heartbeat CPU 7 instructions: 40000000 cycles: 60583982 heartbeat IPC: 0.630272 cumulative IPC: 0.660241 (Simulation time: 6 hr 43 min 25 sec) 
 Total Blocks : 262144 Invalid Blocks : 0
Heartbeat CPU 5 instructions: 40000000 cycles: 60588753 heartbeat IPC: 0.630125 cumulative IPC: 0.660189 (Simulation time: 6 hr 43 min 25 sec) 
 Total Blocks : 262144 Invalid Blocks : 0
Heartbeat CPU 6 instructions: 40000000 cycles: 60648842 heartbeat IPC: 0.629506 cumulative IPC: 0.659534 (Simulation time: 6 hr 43 min 27 sec) 
 Total Blocks : 262144 Invalid Blocks : 0
Heartbeat CPU 4 instructions: 40000000 cycles: 60671174 heartbeat IPC: 0.629143 cumulative IPC: 0.659292 (Simulation time: 6 hr 43 min 28 sec) 
 Total Blocks : 262144 Invalid Blocks : 0
Heartbeat CPU 0 instructions: 40000000 cycles: 60671974 heartbeat IPC: 0.629129 cumulative IPC: 0.659283 (Simulation time: 6 hr 43 min 28 sec) 
 Total Blocks : 262144 Invalid Blocks : 0
Heartbeat CPU 1 instructions: 40000000 cycles: 60672138 heartbeat IPC: 0.629131 cumulative IPC: 0.659281 (Simulation time: 6 hr 43 min 28 sec) 
 Total Blocks : 262144 Invalid Blocks : 0
Heartbeat CPU 2 instructions: 40000000 cycles: 60672241 heartbeat IPC: 0.62913 cumulative IPC: 0.65928 (Simulation time: 6 hr 43 min 28 sec) 
 Total Blocks : 262144 Invalid Blocks : 0
Heartbeat CPU 3 instructions: 40000000 cycles: 60672333 heartbeat IPC: 0.629114 cumulative IPC: 0.659279 (Simulation time: 6 hr 43 min 28 sec) 
 Total Blocks : 262144 Invalid Blocks : 0
Heartbeat CPU 7 instructions: 50000001 cycles: 78758035 heartbeat IPC: 0.550235 cumulative IPC: 0.634856 (Simulation time: 6 hr 53 min 23 sec) 
 Total Blocks : 262144 Invalid Blocks : 0
Heartbeat CPU 5 instructions: 50000001 cycles: 78782625 heartbeat IPC: 0.549636 cumulative IPC: 0.634658 (Simulation time: 6 hr 53 min 24 sec) 
 Total Blocks : 262144 Invalid Blocks : 0
Heartbeat CPU 6 instructions: 50000001 cycles: 78823223 heartbeat IPC: 0.550225 cumulative IPC: 0.634331 (Simulation time: 6 hr 53 min 26 sec) 
 Total Blocks : 262144 Invalid Blocks : 0
Heartbeat CPU 4 instructions: 50000001 cycles: 78865478 heartbeat IPC: 0.549623 cumulative IPC: 0.633991 (Simulation time: 6 hr 53 min 27 sec) 
 Total Blocks : 262144 Invalid Blocks : 0
Heartbeat CPU 0 instructions: 50000001 cycles: 78866015 heartbeat IPC: 0.549631 cumulative IPC: 0.633987 (Simulation time: 6 hr 53 min 27 sec) 
 Total Blocks : 262144 Invalid Blocks : 0
Heartbeat CPU 1 instructions: 50000001 cycles: 78866155 heartbeat IPC: 0.549631 cumulative IPC: 0.633986 (Simulation time: 6 hr 53 min 27 sec) 
 Total Blocks : 262144 Invalid Blocks : 0
Heartbeat CPU 3 instructions: 50000001 cycles: 78866519 heartbeat IPC: 0.549626 cumulative IPC: 0.633983 (Simulation time: 6 hr 53 min 27 sec) 
 Total Blocks : 262144 Invalid Blocks : 0
Heartbeat CPU 2 instructions: 50000001 cycles: 78866543 heartbeat IPC: 0.549623 cumulative IPC: 0.633982 (Simulation time: 6 hr 53 min 27 sec) 
 Total Blocks : 262144 Invalid Blocks : 0
Heartbeat CPU 7 instructions: 60000000 cycles: 94383288 heartbeat IPC: 0.63999 cumulative IPC: 0.635706 (Simulation time: 7 hr 2 min 2 sec) 
 Total Blocks : 262144 Invalid Blocks : 0
Heartbeat CPU 5 instructions: 60000000 cycles: 94407893 heartbeat IPC: 0.639989 cumulative IPC: 0.63554 (Simulation time: 7 hr 2 min 6 sec) 
 Total Blocks : 262144 Invalid Blocks : 0
Heartbeat CPU 6 instructions: 60000000 cycles: 94448920 heartbeat IPC: 0.639971 cumulative IPC: 0.635264 (Simulation time: 7 hr 2 min 13 sec) 
 Total Blocks : 262144 Invalid Blocks : 0
Heartbeat CPU 4 instructions: 60000000 cycles: 94491158 heartbeat IPC: 0.639972 cumulative IPC: 0.63498 (Simulation time: 7 hr 2 min 19 sec) 
 Total Blocks : 262144 Invalid Blocks : 0
Heartbeat CPU 0 instructions: 60000000 cycles: 94491717 heartbeat IPC: 0.639971 cumulative IPC: 0.634976 (Simulation time: 7 hr 2 min 19 sec) 
 Total Blocks : 262144 Invalid Blocks : 0
Heartbeat CPU 1 instructions: 60000000 cycles: 94491852 heartbeat IPC: 0.639971 cumulative IPC: 0.634975 (Simulation time: 7 hr 2 min 19 sec) 
 Total Blocks : 262144 Invalid Blocks : 0
Heartbeat CPU 3 instructions: 60000000 cycles: 94492208 heartbeat IPC: 0.639972 cumulative IPC: 0.634973 (Simulation time: 7 hr 2 min 20 sec) 
 Total Blocks : 262144 Invalid Blocks : 0
Heartbeat CPU 2 instructions: 60000000 cycles: 94492234 heartbeat IPC: 0.639972 cumulative IPC: 0.634973 (Simulation time: 7 hr 2 min 20 sec) 
 Total Blocks : 262144 Invalid Blocks : 0
Heartbeat CPU 7 instructions: 70000000 cycles: 97509869 heartbeat IPC: 3.19838 cumulative IPC: 0.717876 (Simulation time: 7 hr 10 min 56 sec) 
 Total Blocks : 262144 Invalid Blocks : 0
Heartbeat CPU 5 instructions: 70000000 cycles: 97534572 heartbeat IPC: 3.19828 cumulative IPC: 0.717694 (Simulation time: 7 hr 11 min 1 sec) 
 Total Blocks : 262144 Invalid Blocks : 0
Heartbeat CPU 6 instructions: 70000000 cycles: 97575513 heartbeat IPC: 3.19837 cumulative IPC: 0.717393 (Simulation time: 7 hr 11 min 8 sec) 
 Total Blocks : 262144 Invalid Blocks : 0
Heartbeat CPU 4 instructions: 70000000 cycles: 97617846 heartbeat IPC: 3.19827 cumulative IPC: 0.717082 (Simulation time: 7 hr 11 min 15 sec) 
 Total Blocks : 262144 Invalid Blocks : 0
Heartbeat CPU 0 instructions: 70000000 cycles: 97618419 heartbeat IPC: 3.19826 cumulative IPC: 0.717078 (Simulation time: 7 hr 11 min 15 sec) 
 Total Blocks : 262144 Invalid Blocks : 0
Heartbeat CPU 1 instructions: 70000000 cycles: 97618540 heartbeat IPC: 3.19827 cumulative IPC: 0.717077 (Simulation time: 7 hr 11 min 15 sec) 
 Total Blocks : 262144 Invalid Blocks : 0
Heartbeat CPU 3 instructions: 70000000 cycles: 97618896 heartbeat IPC: 3.19827 cumulative IPC: 0.717074 (Simulation time: 7 hr 11 min 15 sec) 
 Total Blocks : 262144 Invalid Blocks : 0
Heartbeat CPU 2 instructions: 70000000 cycles: 97618922 heartbeat IPC: 3.19827 cumulative IPC: 0.717074 (Simulation time: 7 hr 11 min 15 sec) 
 Total Blocks : 262144 Invalid Blocks : 0
Heartbeat CPU 7 instructions: 80000000 cycles: 105807409 heartbeat IPC: 1.20518 cumulative IPC: 0.756091 (Simulation time: 7 hr 24 min 1 sec) 
 Total Blocks : 262144 Invalid Blocks : 0
Heartbeat CPU 5 instructions: 80000000 cycles: 105832139 heartbeat IPC: 1.20517 cumulative IPC: 0.755914 (Simulation time: 7 hr 24 min 2 sec) 
 Total Blocks : 262144 Invalid Blocks : 0
Heartbeat CPU 6 instructions: 80000000 cycles: 105873038 heartbeat IPC: 1.20518 cumulative IPC: 0.755622 (Simulation time: 7 hr 24 min 4 sec) 
 Total Blocks : 262144 Invalid Blocks : 0
Heartbeat CPU 4 instructions: 80000000 cycles: 105915468 heartbeat IPC: 1.20516 cumulative IPC: 0.755319 (Simulation time: 7 hr 24 min 5 sec) 
 Total Blocks : 262144 Invalid Blocks : 0
Heartbeat CPU 0 instructions: 80000000 cycles: 105915982 heartbeat IPC: 1.20517 cumulative IPC: 0.755316 (Simulation time: 7 hr 24 min 5 sec) 
 Total Blocks : 262144 Invalid Blocks : 0
Heartbeat CPU 1 instructions: 80000000 cycles: 105916126 heartbeat IPC: 1.20517 cumulative IPC: 0.755315 (Simulation time: 7 hr 24 min 5 sec) 
 Total Blocks : 262144 Invalid Blocks : 0
Heartbeat CPU 3 instructions: 80000000 cycles: 105916486 heartbeat IPC: 1.20517 cumulative IPC: 0.755312 (Simulation time: 7 hr 24 min 5 sec) 
 Total Blocks : 262144 Invalid Blocks : 0
Heartbeat CPU 2 instructions: 80000000 cycles: 105916509 heartbeat IPC: 1.20517 cumulative IPC: 0.755312 (Simulation time: 7 hr 24 min 5 sec) 
 Total Blocks : 262144 Invalid Blocks : 0
Heartbeat CPU 7 instructions: 90000003 cycles: 119381698 heartbeat IPC: 0.736687 cumulative IPC: 0.753884 (Simulation time: 7 hr 34 min 57 sec) 
 Total Blocks : 262144 Invalid Blocks : 0
Heartbeat CPU 5 instructions: 90000003 cycles: 119405986 heartbeat IPC: 0.736711 cumulative IPC: 0.753731 (Simulation time: 7 hr 34 min 58 sec) 
 Total Blocks : 262144 Invalid Blocks : 0
Heartbeat CPU 6 instructions: 90000003 cycles: 119453694 heartbeat IPC: 0.736342 cumulative IPC: 0.75343 (Simulation time: 7 hr 35 min 1 sec) 
 Total Blocks : 262144 Invalid Blocks : 0
Heartbeat CPU 4 instructions: 90000003 cycles: 119497139 heartbeat IPC: 0.736287 cumulative IPC: 0.753156 (Simulation time: 7 hr 35 min 3 sec) 
 Total Blocks : 262144 Invalid Blocks : 0
Heartbeat CPU 0 instructions: 90000003 cycles: 119497998 heartbeat IPC: 0.736268 cumulative IPC: 0.753151 (Simulation time: 7 hr 35 min 3 sec) 
 Total Blocks : 262144 Invalid Blocks : 0
Heartbeat CPU 1 instructions: 90000003 cycles: 119498007 heartbeat IPC: 0.736275 cumulative IPC: 0.753151 (Simulation time: 7 hr 35 min 3 sec) 
 Total Blocks : 262144 Invalid Blocks : 0
Heartbeat CPU 3 instructions: 90000003 cycles: 119498371 heartbeat IPC: 0.736275 cumulative IPC: 0.753148 (Simulation time: 7 hr 35 min 3 sec) 
 Total Blocks : 262144 Invalid Blocks : 0
Heartbeat CPU 2 instructions: 90000003 cycles: 119498689 heartbeat IPC: 0.736259 cumulative IPC: 0.753146 (Simulation time: 7 hr 35 min 3 sec) 
 Total Blocks : 262144 Invalid Blocks : 0
Heartbeat CPU 7 instructions: 100000002 cycles: 133884814 heartbeat IPC: 0.689507 cumulative IPC: 0.746911 (Simulation time: 7 hr 45 min 32 sec) 
 Total Blocks : 262144 Invalid Blocks : 0
Heartbeat CPU 5 instructions: 100000002 cycles: 133910608 heartbeat IPC: 0.689435 cumulative IPC: 0.746767 (Simulation time: 7 hr 45 min 33 sec) 
 Total Blocks : 262144 Invalid Blocks : 0
Heartbeat CPU 6 instructions: 100000002 cycles: 133980423 heartbeat IPC: 0.688386 cumulative IPC: 0.746378 (Simulation time: 7 hr 45 min 36 sec) 
 Total Blocks : 262144 Invalid Blocks : 0
Heartbeat CPU 4 instructions: 100000002 cycles: 134030246 heartbeat IPC: 0.688084 cumulative IPC: 0.7461 (Simulation time: 7 hr 45 min 38 sec) 
 Total Blocks : 262144 Invalid Blocks : 0
Heartbeat CPU 1 instructions: 100000002 cycles: 134031572 heartbeat IPC: 0.688062 cumulative IPC: 0.746093 (Simulation time: 7 hr 45 min 38 sec) 
 Total Blocks : 262144 Invalid Blocks : 0
Heartbeat CPU 0 instructions: 100000002 cycles: 134031667 heartbeat IPC: 0.688057 cumulative IPC: 0.746092 (Simulation time: 7 hr 45 min 38 sec) 
 Total Blocks : 262144 Invalid Blocks : 0
Heartbeat CPU 3 instructions: 100000002 cycles: 134032003 heartbeat IPC: 0.688059 cumulative IPC: 0.74609 (Simulation time: 7 hr 45 min 38 sec) 
 Total Blocks : 262144 Invalid Blocks : 0
Heartbeat CPU 2 instructions: 100000002 cycles: 134032307 heartbeat IPC: 0.68806 cumulative IPC: 0.746089 (Simulation time: 7 hr 45 min 39 sec) 
 Total Blocks : 262144 Invalid Blocks : 0
Heartbeat CPU 7 instructions: 110000000 cycles: 148377944 heartbeat IPC: 0.689982 cumulative IPC: 0.74135 (Simulation time: 7 hr 56 min 5 sec) 
 Total Blocks : 262144 Invalid Blocks : 0
Heartbeat CPU 5 instructions: 110000000 cycles: 148404127 heartbeat IPC: 0.689963 cumulative IPC: 0.741219 (Simulation time: 7 hr 56 min 6 sec) 
 Total Blocks : 262144 Invalid Blocks : 0
Heartbeat CPU 6 instructions: 110000000 cycles: 148497404 heartbeat IPC: 0.688848 cumulative IPC: 0.740754 (Simulation time: 7 hr 56 min 10 sec) 
 Total Blocks : 262144 Invalid Blocks : 0
Heartbeat CPU 4 instructions: 110000000 cycles: 148554065 heartbeat IPC: 0.688524 cumulative IPC: 0.740471 (Simulation time: 7 hr 56 min 13 sec) 
 Total Blocks : 262144 Invalid Blocks : 0
Heartbeat CPU 1 instructions: 110000000 cycles: 148554882 heartbeat IPC: 0.688548 cumulative IPC: 0.740467 (Simulation time: 7 hr 56 min 13 sec) 
 Total Blocks : 262144 Invalid Blocks : 0
Heartbeat CPU 0 instructions: 110000000 cycles: 148555147 heartbeat IPC: 0.68854 cumulative IPC: 0.740466 (Simulation time: 7 hr 56 min 13 sec) 
 Total Blocks : 262144 Invalid Blocks : 0
Heartbeat CPU 2 instructions: 110000000 cycles: 148555494 heartbeat IPC: 0.688554 cumulative IPC: 0.740464 (Simulation time: 7 hr 56 min 13 sec) 
 Total Blocks : 262144 Invalid Blocks : 0
Heartbeat CPU 3 instructions: 110000000 cycles: 148555697 heartbeat IPC: 0.68853 cumulative IPC: 0.740463 (Simulation time: 7 hr 56 min 13 sec) 
 Total Blocks : 262144 Invalid Blocks : 0
Heartbeat CPU 7 instructions: 120000002 cycles: 165431893 heartbeat IPC: 0.586375 cumulative IPC: 0.725374 (Simulation time: 8 hr 6 min 10 sec) 
 Total Blocks : 262144 Invalid Blocks : 0
Heartbeat CPU 5 instructions: 120000002 cycles: 165471323 heartbeat IPC: 0.585919 cumulative IPC: 0.725201 (Simulation time: 8 hr 6 min 12 sec) 
 Total Blocks : 262144 Invalid Blocks : 0
Heartbeat CPU 6 instructions: 120000002 cycles: 165557684 heartbeat IPC: 0.586157 cumulative IPC: 0.724823 (Simulation time: 8 hr 6 min 14 sec) 
 Total Blocks : 262144 Invalid Blocks : 0
Heartbeat CPU 4 instructions: 120000002 cycles: 165628787 heartbeat IPC: 0.585661 cumulative IPC: 0.724512 (Simulation time: 8 hr 6 min 16 sec) 
 Total Blocks : 262144 Invalid Blocks : 0
Heartbeat CPU 0 instructions: 120000002 cycles: 165629829 heartbeat IPC: 0.585663 cumulative IPC: 0.724507 (Simulation time: 8 hr 6 min 16 sec) 
 Total Blocks : 262144 Invalid Blocks : 0
Heartbeat CPU 1 instructions: 120000002 cycles: 165629870 heartbeat IPC: 0.585652 cumulative IPC: 0.724507 (Simulation time: 8 hr 6 min 16 sec) 
 Total Blocks : 262144 Invalid Blocks : 0
Heartbeat CPU 2 instructions: 120000002 cycles: 165630329 heartbeat IPC: 0.585657 cumulative IPC: 0.724505 (Simulation time: 8 hr 6 min 16 sec) 
 Total Blocks : 262144 Invalid Blocks : 0
Heartbeat CPU 3 instructions: 120000002 cycles: 165630526 heartbeat IPC: 0.585658 cumulative IPC: 0.724504 (Simulation time: 8 hr 6 min 16 sec) 
 Total Blocks : 262144 Invalid Blocks : 0
Heartbeat CPU 7 instructions: 130000000 cycles: 182602775 heartbeat IPC: 0.582381 cumulative IPC: 0.711928 (Simulation time: 8 hr 15 min 5 sec) 
 Total Blocks : 262144 Invalid Blocks : 0
Heartbeat CPU 5 instructions: 130000000 cycles: 182648423 heartbeat IPC: 0.58217 cumulative IPC: 0.71175 (Simulation time: 8 hr 15 min 7 sec) 
 Total Blocks : 262144 Invalid Blocks : 0
Heartbeat CPU 6 instructions: 130000000 cycles: 182728854 heartbeat IPC: 0.582371 cumulative IPC: 0.711437 (Simulation time: 8 hr 15 min 9 sec) 
 Total Blocks : 262144 Invalid Blocks : 0
Heartbeat CPU 4 instructions: 130000000 cycles: 182806063 heartbeat IPC: 0.582164 cumulative IPC: 0.711136 (Simulation time: 8 hr 15 min 12 sec) 
 Total Blocks : 262144 Invalid Blocks : 0
Heartbeat CPU 0 instructions: 130000000 cycles: 182807149 heartbeat IPC: 0.582163 cumulative IPC: 0.711132 (Simulation time: 8 hr 15 min 12 sec) 
 Total Blocks : 262144 Invalid Blocks : 0
Heartbeat CPU 1 instructions: 130000000 cycles: 182807214 heartbeat IPC: 0.582162 cumulative IPC: 0.711132 (Simulation time: 8 hr 15 min 12 sec) 
 Total Blocks : 262144 Invalid Blocks : 0
Heartbeat CPU 2 instructions: 130000000 cycles: 182807664 heartbeat IPC: 0.582162 cumulative IPC: 0.71113 (Simulation time: 8 hr 15 min 12 sec) 
 Total Blocks : 262144 Invalid Blocks : 0
Heartbeat CPU 3 instructions: 130000000 cycles: 182807991 heartbeat IPC: 0.582158 cumulative IPC: 0.711129 (Simulation time: 8 hr 15 min 12 sec) 
 Total Blocks : 262144 Invalid Blocks : 0
Heartbeat CPU 7 instructions: 140000001 cycles: 189736708 heartbeat IPC: 1.40175 cumulative IPC: 0.737865 (Simulation time: 8 hr 23 min 28 sec) 
 Total Blocks : 262144 Invalid Blocks : 0
Heartbeat CPU 5 instructions: 140000001 cycles: 189782307 heartbeat IPC: 1.40176 cumulative IPC: 0.737687 (Simulation time: 8 hr 23 min 36 sec) 
 Total Blocks : 262144 Invalid Blocks : 0
Heartbeat CPU 6 instructions: 140000001 cycles: 189862885 heartbeat IPC: 1.40173 cumulative IPC: 0.737374 (Simulation time: 8 hr 23 min 49 sec) 
 Total Blocks : 262144 Invalid Blocks : 0
Heartbeat CPU 4 instructions: 140000001 cycles: 189940099 heartbeat IPC: 1.40173 cumulative IPC: 0.737074 (Simulation time: 8 hr 24 min 2 sec) 
 Total Blocks : 262144 Invalid Blocks : 0
Heartbeat CPU 0 instructions: 140000001 cycles: 189941169 heartbeat IPC: 1.40173 cumulative IPC: 0.73707 (Simulation time: 8 hr 24 min 3 sec) 
 Total Blocks : 262144 Invalid Blocks : 0
Heartbeat CPU 1 instructions: 140000001 cycles: 189941228 heartbeat IPC: 1.40174 cumulative IPC: 0.73707 (Simulation time: 8 hr 24 min 3 sec) 
 Total Blocks : 262144 Invalid Blocks : 0
Heartbeat CPU 2 instructions: 140000001 cycles: 189941689 heartbeat IPC: 1.40173 cumulative IPC: 0.737068 (Simulation time: 8 hr 24 min 3 sec) 
 Total Blocks : 262144 Invalid Blocks : 0
Heartbeat CPU 3 instructions: 140000001 cycles: 189942016 heartbeat IPC: 1.40173 cumulative IPC: 0.737067 (Simulation time: 8 hr 24 min 3 sec) 
 Total Blocks : 262144 Invalid Blocks : 0
Heartbeat CPU 7 instructions: 150000000 cycles: 193662322 heartbeat IPC: 2.54737 cumulative IPC: 0.774544 (Simulation time: 8 hr 36 min 47 sec) 
 Total Blocks : 262144 Invalid Blocks : 0
Heartbeat CPU 5 instructions: 150000000 cycles: 193707919 heartbeat IPC: 2.54737 cumulative IPC: 0.774362 (Simulation time: 8 hr 36 min 49 sec) 
 Total Blocks : 262144 Invalid Blocks : 0
Heartbeat CPU 6 instructions: 150000000 cycles: 193788521 heartbeat IPC: 2.54736 cumulative IPC: 0.77404 (Simulation time: 8 hr 36 min 51 sec) 
 Total Blocks : 262144 Invalid Blocks : 0
Heartbeat CPU 4 instructions: 150000000 cycles: 193865707 heartbeat IPC: 2.54738 cumulative IPC: 0.773731 (Simulation time: 8 hr 36 min 54 sec) 
 Total Blocks : 262144 Invalid Blocks : 0
Heartbeat CPU 0 instructions: 150000000 cycles: 193866755 heartbeat IPC: 2.54739 cumulative IPC: 0.773727 (Simulation time: 8 hr 36 min 54 sec) 
 Total Blocks : 262144 Invalid Blocks : 0
Heartbeat CPU 1 instructions: 150000000 cycles: 193866828 heartbeat IPC: 2.54738 cumulative IPC: 0.773727 (Simulation time: 8 hr 36 min 54 sec) 
 Total Blocks : 262144 Invalid Blocks : 0
Heartbeat CPU 2 instructions: 150000000 cycles: 193867291 heartbeat IPC: 2.54738 cumulative IPC: 0.773725 (Simulation time: 8 hr 36 min 54 sec) 
 Total Blocks : 262144 Invalid Blocks : 0
Heartbeat CPU 3 instructions: 150000000 cycles: 193867631 heartbeat IPC: 2.54737 cumulative IPC: 0.773724 (Simulation time: 8 hr 36 min 54 sec) 
 Total Blocks : 262144 Invalid Blocks : 0
Heartbeat CPU 7 instructions: 160000003 cycles: 208393910 heartbeat IPC: 0.678814 cumulative IPC: 0.767777 (Simulation time: 8 hr 45 min 3 sec) 
 Total Blocks : 262144 Invalid Blocks : 0
Heartbeat CPU 5 instructions: 160000003 cycles: 208439488 heartbeat IPC: 0.678815 cumulative IPC: 0.767609 (Simulation time: 8 hr 45 min 5 sec) 
 Total Blocks : 262144 Invalid Blocks : 0
Heartbeat CPU 6 instructions: 160000003 cycles: 208520118 heartbeat IPC: 0.678813 cumulative IPC: 0.767312 (Simulation time: 8 hr 45 min 9 sec) 
 Total Blocks : 262144 Invalid Blocks : 0
Heartbeat CPU 4 instructions: 160000003 cycles: 208597275 heartbeat IPC: 0.678815 cumulative IPC: 0.767028 (Simulation time: 8 hr 45 min 20 sec) 
 Total Blocks : 262144 Invalid Blocks : 0
Heartbeat CPU 0 instructions: 160000003 cycles: 208598314 heartbeat IPC: 0.678815 cumulative IPC: 0.767024 (Simulation time: 8 hr 45 min 20 sec) 
 Total Blocks : 262144 Invalid Blocks : 0
Heartbeat CPU 1 instructions: 160000003 cycles: 208598405 heartbeat IPC: 0.678814 cumulative IPC: 0.767024 (Simulation time: 8 hr 45 min 20 sec) 
 Total Blocks : 262144 Invalid Blocks : 0
Heartbeat CPU 2 instructions: 160000003 cycles: 208598862 heartbeat IPC: 0.678814 cumulative IPC: 0.767022 (Simulation time: 8 hr 45 min 20 sec) 
 Total Blocks : 262144 Invalid Blocks : 0
Heartbeat CPU 3 instructions: 160000003 cycles: 208599190 heartbeat IPC: 0.678815 cumulative IPC: 0.767021 (Simulation time: 8 hr 45 min 21 sec) 
 Total Blocks : 262144 Invalid Blocks : 0
Heartbeat CPU 7 instructions: 170000003 cycles: 222318998 heartbeat IPC: 0.718128 cumulative IPC: 0.764667 (Simulation time: 8 hr 57 min 13 sec) 
 Total Blocks : 262144 Invalid Blocks : 0
Heartbeat CPU 5 instructions: 170000003 cycles: 222364881 heartbeat IPC: 0.718113 cumulative IPC: 0.764509 (Simulation time: 8 hr 57 min 15 sec) 
 Total Blocks : 262144 Invalid Blocks : 0
Heartbeat CPU 6 instructions: 170000003 cycles: 222466638 heartbeat IPC: 0.717025 cumulative IPC: 0.76416 (Simulation time: 8 hr 57 min 19 sec) 
 Total Blocks : 262144 Invalid Blocks : 0
Heartbeat CPU 4 instructions: 170000003 cycles: 222548896 heartbeat IPC: 0.716763 cumulative IPC: 0.763877 (Simulation time: 8 hr 57 min 23 sec) 
 Total Blocks : 262144 Invalid Blocks : 0
Heartbeat CPU 0 instructions: 170000003 cycles: 222549948 heartbeat IPC: 0.716762 cumulative IPC: 0.763873 (Simulation time: 8 hr 57 min 23 sec) 
 Total Blocks : 262144 Invalid Blocks : 0
Heartbeat CPU 1 instructions: 170000003 cycles: 222550184 heartbeat IPC: 0.716754 cumulative IPC: 0.763873 (Simulation time: 8 hr 57 min 23 sec) 
 Total Blocks : 262144 Invalid Blocks : 0
Heartbeat CPU 3 instructions: 170000003 cycles: 222550862 heartbeat IPC: 0.71676 cumulative IPC: 0.76387 (Simulation time: 8 hr 57 min 23 sec) 
 Total Blocks : 262144 Invalid Blocks : 0
Heartbeat CPU 2 instructions: 170000003 cycles: 222550977 heartbeat IPC: 0.716737 cumulative IPC: 0.76387 (Simulation time: 8 hr 57 min 23 sec) 
 Total Blocks : 262144 Invalid Blocks : 0
Heartbeat CPU 7 instructions: 180000001 cycles: 237111583 heartbeat IPC: 0.676014 cumulative IPC: 0.759136 (Simulation time: 9 hr 7 min 46 sec) 
 Total Blocks : 262144 Invalid Blocks : 0
Heartbeat CPU 5 instructions: 180000001 cycles: 237158080 heartbeat IPC: 0.675986 cumulative IPC: 0.758987 (Simulation time: 9 hr 7 min 48 sec) 
 Total Blocks : 262144 Invalid Blocks : 0
Heartbeat CPU 6 instructions: 180000001 cycles: 237282935 heartbeat IPC: 0.674932 cumulative IPC: 0.758588 (Simulation time: 9 hr 7 min 53 sec) 
 Total Blocks : 262144 Invalid Blocks : 0
Heartbeat CPU 4 instructions: 180000001 cycles: 237372022 heartbeat IPC: 0.674621 cumulative IPC: 0.758303 (Simulation time: 9 hr 7 min 57 sec) 
 Total Blocks : 262144 Invalid Blocks : 0
Heartbeat CPU 0 instructions: 180000001 cycles: 237372897 heartbeat IPC: 0.674629 cumulative IPC: 0.758301 (Simulation time: 9 hr 7 min 57 sec) 
 Total Blocks : 262144 Invalid Blocks : 0
Heartbeat CPU 1 instructions: 180000001 cycles: 237372920 heartbeat IPC: 0.674639 cumulative IPC: 0.7583 (Simulation time: 9 hr 7 min 57 sec) 
 Total Blocks : 262144 Invalid Blocks : 0
Heartbeat CPU 2 instructions: 180000001 cycles: 237373947 heartbeat IPC: 0.674628 cumulative IPC: 0.758297 (Simulation time: 9 hr 7 min 57 sec) 
 Total Blocks : 262144 Invalid Blocks : 0
Heartbeat CPU 3 instructions: 180000001 cycles: 237374078 heartbeat IPC: 0.674617 cumulative IPC: 0.758297 (Simulation time: 9 hr 7 min 57 sec) 
 Total Blocks : 262144 Invalid Blocks : 0
Heartbeat CPU 7 instructions: 190000002 cycles: 252921040 heartbeat IPC: 0.632533 cumulative IPC: 0.751223 (Simulation time: 9 hr 18 min 12 sec) 
 Total Blocks : 262144 Invalid Blocks : 0
Heartbeat CPU 5 instructions: 190000002 cycles: 252973357 heartbeat IPC: 0.6323 cumulative IPC: 0.751067 (Simulation time: 9 hr 18 min 14 sec) 
 Total Blocks : 262144 Invalid Blocks : 0
Heartbeat CPU 6 instructions: 190000002 cycles: 253108643 heartbeat IPC: 0.631883 cumulative IPC: 0.750666 (Simulation time: 9 hr 18 min 18 sec) 
 Total Blocks : 262144 Invalid Blocks : 0
Heartbeat CPU 4 instructions: 190000002 cycles: 253207683 heartbeat IPC: 0.631486 cumulative IPC: 0.750372 (Simulation time: 9 hr 18 min 22 sec) 
 Total Blocks : 262144 Invalid Blocks : 0
Heartbeat CPU 0 instructions: 190000002 cycles: 253208705 heartbeat IPC: 0.63148 cumulative IPC: 0.750369 (Simulation time: 9 hr 18 min 22 sec) 
 Total Blocks : 262144 Invalid Blocks : 0
Heartbeat CPU 1 instructions: 190000002 cycles: 253208821 heartbeat IPC: 0.631477 cumulative IPC: 0.750369 (Simulation time: 9 hr 18 min 22 sec) 
 Total Blocks : 262144 Invalid Blocks : 0
Heartbeat CPU 2 instructions: 190000002 cycles: 253209693 heartbeat IPC: 0.631483 cumulative IPC: 0.750366 (Simulation time: 9 hr 18 min 22 sec) 
 Total Blocks : 262144 Invalid Blocks : 0
Heartbeat CPU 3 instructions: 190000002 cycles: 253209896 heartbeat IPC: 0.63148 cumulative IPC: 0.750366 (Simulation time: 9 hr 18 min 22 sec) 
 Total Blocks : 262144 Invalid Blocks : 0
Heartbeat CPU 7 instructions: 200000001 cycles: 270665671 heartbeat IPC: 0.563551 cumulative IPC: 0.738919 (Simulation time: 9 hr 27 min 39 sec) 
 Total Blocks : 262144 Invalid Blocks : 0
Heartbeat CPU 5 instructions: 200000001 cycles: 270732319 heartbeat IPC: 0.563096 cumulative IPC: 0.738737 (Simulation time: 9 hr 27 min 42 sec) 
 Total Blocks : 262144 Invalid Blocks : 0
Heartbeat CPU 6 instructions: 200000001 cycles: 270853605 heartbeat IPC: 0.56354 cumulative IPC: 0.738406 (Simulation time: 9 hr 27 min 46 sec) 
 Total Blocks : 262144 Invalid Blocks : 0
Heartbeat CPU 4 instructions: 200000001 cycles: 270966617 heartbeat IPC: 0.563097 cumulative IPC: 0.738098 (Simulation time: 9 hr 27 min 49 sec) 
 Total Blocks : 262144 Invalid Blocks : 0
Heartbeat CPU 0 instructions: 200000001 cycles: 270967561 heartbeat IPC: 0.563099 cumulative IPC: 0.738096 (Simulation time: 9 hr 27 min 49 sec) 
 Total Blocks : 262144 Invalid Blocks : 0
Heartbeat CPU 1 instructions: 200000001 cycles: 270967710 heartbeat IPC: 0.563098 cumulative IPC: 0.738095 (Simulation time: 9 hr 27 min 49 sec) 
 Total Blocks : 262144 Invalid Blocks : 0
Heartbeat CPU 2 instructions: 200000001 cycles: 270968774 heartbeat IPC: 0.563092 cumulative IPC: 0.738092 (Simulation time: 9 hr 27 min 49 sec) 
 Total Blocks : 262144 Invalid Blocks : 0
Heartbeat CPU 3 instructions: 200000001 cycles: 270968819 heartbeat IPC: 0.563097 cumulative IPC: 0.738092 (Simulation time: 9 hr 27 min 49 sec) 
 Total Blocks : 262144 Invalid Blocks : 0

Warmup complete CPU 0 instructions: 200000758 cycles: 270968819 (Simulation time: 9 hr 27 min 49 sec) 
Warmup complete CPU 1 instructions: 200000682 cycles: 270968819 (Simulation time: 9 hr 27 min 49 sec) 
Warmup complete CPU 2 instructions: 200000035 cycles: 270968819 (Simulation time: 9 hr 27 min 49 sec) 
Warmup complete CPU 3 instructions: 200000001 cycles: 270968819 (Simulation time: 9 hr 27 min 49 sec) 
Warmup complete CPU 4 instructions: 200001384 cycles: 270968818 (Simulation time: 9 hr 27 min 49 sec) 
Warmup complete CPU 5 instructions: 200141669 cycles: 270968818 (Simulation time: 9 hr 27 min 49 sec) 
Warmup complete CPU 6 instructions: 200069361 cycles: 270968818 (Simulation time: 9 hr 27 min 49 sec) 
Warmup complete CPU 7 instructions: 200181096 cycles: 270968818 (Simulation time: 9 hr 27 min 49 sec) 

Heartbeat CPU 7 instructions: 210000000 cycles: 296282945 heartbeat IPC: 0.390362 cumulative IPC: 0.387882 (Simulation time: 9 hr 43 min 52 sec) 
 Total Blocks : 262144 Invalid Blocks : 0
Heartbeat CPU 5 instructions: 210000000 cycles: 296411860 heartbeat IPC: 0.389415 cumulative IPC: 0.387467 (Simulation time: 9 hr 44 min 15 sec) 
 Total Blocks : 262144 Invalid Blocks : 0
Heartbeat CPU 6 instructions: 210000000 cycles: 296683028 heartbeat IPC: 0.387155 cumulative IPC: 0.386193 (Simulation time: 9 hr 45 min 5 sec) 
 Total Blocks : 262144 Invalid Blocks : 0
Heartbeat CPU 0 instructions: 210000000 cycles: 296842147 heartbeat IPC: 0.38648 cumulative IPC: 0.386469 (Simulation time: 9 hr 45 min 35 sec) 
 Total Blocks : 262144 Invalid Blocks : 0
Heartbeat CPU 3 instructions: 210000000 cycles: 296842249 heartbeat IPC: 0.386497 cumulative IPC: 0.386497 (Simulation time: 9 hr 45 min 35 sec) 
 Total Blocks : 262144 Invalid Blocks : 0
Heartbeat CPU 1 instructions: 210000000 cycles: 296844874 heartbeat IPC: 0.386441 cumulative IPC: 0.386431 (Simulation time: 9 hr 45 min 36 sec) 
 Total Blocks : 262144 Invalid Blocks : 0
Heartbeat CPU 2 instructions: 210000000 cycles: 296844976 heartbeat IPC: 0.386455 cumulative IPC: 0.386455 (Simulation time: 9 hr 45 min 36 sec) 
 Total Blocks : 262144 Invalid Blocks : 0
Heartbeat CPU 4 instructions: 210000000 cycles: 296845178 heartbeat IPC: 0.38642 cumulative IPC: 0.3864 (Simulation time: 9 hr 45 min 36 sec) 
 Total Blocks : 262144 Invalid Blocks : 0
Heartbeat CPU 7 instructions: 220000000 cycles: 302743599 heartbeat IPC: 1.54783 cumulative IPC: 0.623731 (Simulation time: 10 hr 2 min 29 sec) 
 Total Blocks : 262144 Invalid Blocks : 0
Heartbeat CPU 5 instructions: 220000000 cycles: 302884985 heartbeat IPC: 1.54485 cumulative IPC: 0.622203 (Simulation time: 10 hr 2 min 49 sec) 
 Total Blocks : 262144 Invalid Blocks : 0
Heartbeat CPU 6 instructions: 220000000 cycles: 303162131 heartbeat IPC: 1.54342 cumulative IPC: 0.619093 (Simulation time: 10 hr 3 min 27 sec) 
 Total Blocks : 262144 Invalid Blocks : 0
Heartbeat CPU 3 instructions: 220000000 cycles: 303300841 heartbeat IPC: 1.54833 cumulative IPC: 0.618582 (Simulation time: 10 hr 3 min 46 sec) 
 Total Blocks : 262144 Invalid Blocks : 0
Heartbeat CPU 0 instructions: 220000000 cycles: 303301269 heartbeat IPC: 1.5482 cumulative IPC: 0.61855 (Simulation time: 10 hr 3 min 46 sec) 
 Total Blocks : 262144 Invalid Blocks : 0
Heartbeat CPU 2 instructions: 220000000 cycles: 303302376 heartbeat IPC: 1.54861 cumulative IPC: 0.618551 (Simulation time: 10 hr 3 min 46 sec) 
 Total Blocks : 262144 Invalid Blocks : 0
Heartbeat CPU 4 instructions: 220000000 cycles: 303305718 heartbeat IPC: 1.54786 cumulative IPC: 0.618446 (Simulation time: 10 hr 3 min 47 sec) 
 Total Blocks : 262144 Invalid Blocks : 0
Heartbeat CPU 1 instructions: 220000000 cycles: 303315743 heartbeat IPC: 1.54539 cumulative IPC: 0.618276 (Simulation time: 10 hr 3 min 48 sec) 
 Total Blocks : 262144 Invalid Blocks : 0
Heartbeat CPU 7 instructions: 230000000 cycles: 323819791 heartbeat IPC: 0.474469 cumulative IPC: 0.564207 (Simulation time: 10 hr 23 min 46 sec) 
 Total Blocks : 262144 Invalid Blocks : 0
Heartbeat CPU 5 instructions: 230000000 cycles: 323945430 heartbeat IPC: 0.474824 cumulative IPC: 0.563613 (Simulation time: 10 hr 23 min 51 sec) 
 Total Blocks : 262144 Invalid Blocks : 0
Heartbeat CPU 3 instructions: 230000000 cycles: 324072976 heartbeat IPC: 0.481414 cumulative IPC: 0.564928 (Simulation time: 10 hr 23 min 54 sec) 
 Total Blocks : 262144 Invalid Blocks : 0
Heartbeat CPU 2 instructions: 230000000 cycles: 324076356 heartbeat IPC: 0.481371 cumulative IPC: 0.564891 (Simulation time: 10 hr 23 min 54 sec) 
 Total Blocks : 262144 Invalid Blocks : 0
Heartbeat CPU 6 instructions: 230000000 cycles: 324077320 heartbeat IPC: 0.478121 cumulative IPC: 0.563575 (Simulation time: 10 hr 23 min 54 sec) 
 Total Blocks : 262144 Invalid Blocks : 0
Heartbeat CPU 0 instructions: 230000000 cycles: 324080848 heartbeat IPC: 0.481242 cumulative IPC: 0.56483 (Simulation time: 10 hr 23 min 54 sec) 
 Total Blocks : 262144 Invalid Blocks : 0
Heartbeat CPU 4 instructions: 230000000 cycles: 324089065 heartbeat IPC: 0.481154 cumulative IPC: 0.56473 (Simulation time: 10 hr 23 min 55 sec) 
 Total Blocks : 262144 Invalid Blocks : 0
Heartbeat CPU 1 instructions: 230000000 cycles: 324394466 heartbeat IPC: 0.474412 cumulative IPC: 0.561515 (Simulation time: 10 hr 24 min 6 sec) 
 Total Blocks : 262144 Invalid Blocks : 0
Heartbeat CPU 7 instructions: 240000000 cycles: 385342651 heartbeat IPC: 0.162541 cumulative IPC: 0.348147 (Simulation time: 11 hr 14 min 54 sec) 
 Total Blocks : 262144 Invalid Blocks : 0
Heartbeat CPU 4 instructions: 240000000 cycles: 385484147 heartbeat IPC: 0.162879 cumulative IPC: 0.349286 (Simulation time: 11 hr 14 min 58 sec) 
 Total Blocks : 262144 Invalid Blocks : 0
Heartbeat CPU 5 instructions: 240000000 cycles: 385519227 heartbeat IPC: 0.162407 cumulative IPC: 0.347955 (Simulation time: 11 hr 14 min 59 sec) 
 Total Blocks : 262144 Invalid Blocks : 0
Heartbeat CPU 3 instructions: 240000000 cycles: 385561693 heartbeat IPC: 0.162631 cumulative IPC: 0.349062 (Simulation time: 11 hr 15 min 0 sec) 
 Total Blocks : 262144 Invalid Blocks : 0
Heartbeat CPU 6 instructions: 240000000 cycles: 385622737 heartbeat IPC: 0.162482 cumulative IPC: 0.348271 (Simulation time: 11 hr 15 min 2 sec) 
 Total Blocks : 262144 Invalid Blocks : 0
Heartbeat CPU 0 instructions: 240000000 cycles: 385763748 heartbeat IPC: 0.162119 cumulative IPC: 0.348441 (Simulation time: 11 hr 15 min 6 sec) 
 Total Blocks : 262144 Invalid Blocks : 0
Heartbeat CPU 2 instructions: 240000000 cycles: 385821249 heartbeat IPC: 0.161957 cumulative IPC: 0.348273 (Simulation time: 11 hr 15 min 8 sec) 
 Total Blocks : 262144 Invalid Blocks : 0
Heartbeat CPU 1 instructions: 240000000 cycles: 386055880 heartbeat IPC: 0.162176 cumulative IPC: 0.347557 (Simulation time: 11 hr 15 min 15 sec) 
 Total Blocks : 262144 Invalid Blocks : 0
Heartbeat CPU 7 instructions: 250000001 cycles: 437618700 heartbeat IPC: 0.191292 cumulative IPC: 0.298944 (Simulation time: 11 hr 40 min 32 sec) 
 Total Blocks : 262144 Invalid Blocks : 0
Heartbeat CPU 5 instructions: 250000001 cycles: 437866863 heartbeat IPC: 0.191031 cumulative IPC: 0.298735 (Simulation time: 11 hr 40 min 40 sec) 
 Total Blocks : 262144 Invalid Blocks : 0
Heartbeat CPU 6 instructions: 250000001 cycles: 438043278 heartbeat IPC: 0.190765 cumulative IPC: 0.298853 (Simulation time: 11 hr 40 min 45 sec) 
 Total Blocks : 262144 Invalid Blocks : 0
Heartbeat CPU 4 instructions: 250000001 cycles: 438089578 heartbeat IPC: 0.190094 cumulative IPC: 0.299177 (Simulation time: 11 hr 40 min 46 sec) 
 Total Blocks : 262144 Invalid Blocks : 0
Heartbeat CPU 3 instructions: 250000001 cycles: 438246231 heartbeat IPC: 0.189809 cumulative IPC: 0.298905 (Simulation time: 11 hr 40 min 51 sec) 
 Total Blocks : 262144 Invalid Blocks : 0
Heartbeat CPU 0 instructions: 250000001 cycles: 438405943 heartbeat IPC: 0.189962 cumulative IPC: 0.298615 (Simulation time: 11 hr 40 min 56 sec) 
 Total Blocks : 262144 Invalid Blocks : 0
Heartbeat CPU 2 instructions: 250000001 cycles: 438437318 heartbeat IPC: 0.190056 cumulative IPC: 0.298563 (Simulation time: 11 hr 40 min 57 sec) 
 Total Blocks : 262144 Invalid Blocks : 0
Heartbeat CPU 1 instructions: 250000001 cycles: 438790837 heartbeat IPC: 0.189628 cumulative IPC: 0.297931 (Simulation time: 11 hr 41 min 8 sec) 
 Total Blocks : 262144 Invalid Blocks : 0
Heartbeat CPU 7 instructions: 260000002 cycles: 489817494 heartbeat IPC: 0.191575 cumulative IPC: 0.273335 (Simulation time: 12 hr 6 min 37 sec) 
 Total Blocks : 262144 Invalid Blocks : 0
Heartbeat CPU 5 instructions: 260000002 cycles: 490209486 heartbeat IPC: 0.191049 cumulative IPC: 0.273026 (Simulation time: 12 hr 6 min 49 sec) 
 Total Blocks : 262144 Invalid Blocks : 0
Heartbeat CPU 6 instructions: 260000002 cycles: 490656940 heartbeat IPC: 0.190065 cumulative IPC: 0.272799 (Simulation time: 12 hr 7 min 3 sec) 
 Total Blocks : 262144 Invalid Blocks : 0
Heartbeat CPU 4 instructions: 260000002 cycles: 490727297 heartbeat IPC: 0.189978 cumulative IPC: 0.273021 (Simulation time: 12 hr 7 min 5 sec) 
 Total Blocks : 262144 Invalid Blocks : 0
Heartbeat CPU 3 instructions: 260000002 cycles: 490910652 heartbeat IPC: 0.189882 cumulative IPC: 0.272799 (Simulation time: 12 hr 7 min 10 sec) 
 Total Blocks : 262144 Invalid Blocks : 0
Heartbeat CPU 0 instructions: 260000002 cycles: 491078128 heartbeat IPC: 0.189854 cumulative IPC: 0.272588 (Simulation time: 12 hr 7 min 15 sec) 
 Total Blocks : 262144 Invalid Blocks : 0
Heartbeat CPU 2 instructions: 260000002 cycles: 491088718 heartbeat IPC: 0.189928 cumulative IPC: 0.272579 (Simulation time: 12 hr 7 min 15 sec) 
 Total Blocks : 262144 Invalid Blocks : 0
Heartbeat CPU 1 instructions: 260000002 cycles: 491337842 heartbeat IPC: 0.190306 cumulative IPC: 0.272267 (Simulation time: 12 hr 7 min 23 sec) 
 Total Blocks : 262144 Invalid Blocks : 0
Heartbeat CPU 7 instructions: 270000002 cycles: 541395589 heartbeat IPC: 0.193881 cumulative IPC: 0.25818 (Simulation time: 12 hr 29 min 55 sec) 
 Total Blocks : 262144 Invalid Blocks : 0
Heartbeat CPU 6 instructions: 270000002 cycles: 542194353 heartbeat IPC: 0.194034 cumulative IPC: 0.257832 (Simulation time: 12 hr 30 min 17 sec) 
 Total Blocks : 262144 Invalid Blocks : 0
Heartbeat CPU 5 instructions: 270000002 cycles: 542292787 heartbeat IPC: 0.192 cumulative IPC: 0.257472 (Simulation time: 12 hr 30 min 19 sec) 
 Total Blocks : 262144 Invalid Blocks : 0
Heartbeat CPU 4 instructions: 270000002 cycles: 542852710 heartbeat IPC: 0.191845 cumulative IPC: 0.257458 (Simulation time: 12 hr 30 min 35 sec) 
 Total Blocks : 262144 Invalid Blocks : 0
Heartbeat CPU 3 instructions: 270000002 cycles: 542993363 heartbeat IPC: 0.192002 cumulative IPC: 0.25733 (Simulation time: 12 hr 30 min 39 sec) 
 Total Blocks : 262144 Invalid Blocks : 0
Heartbeat CPU 0 instructions: 270000002 cycles: 543120505 heartbeat IPC: 0.192151 cumulative IPC: 0.257207 (Simulation time: 12 hr 30 min 42 sec) 
 Total Blocks : 262144 Invalid Blocks : 0
Heartbeat CPU 2 instructions: 270000002 cycles: 543185708 heartbeat IPC: 0.19195 cumulative IPC: 0.257148 (Simulation time: 12 hr 30 min 44 sec) 
 Total Blocks : 262144 Invalid Blocks : 0
Heartbeat CPU 1 instructions: 270000002 cycles: 543431744 heartbeat IPC: 0.191961 cumulative IPC: 0.256913 (Simulation time: 12 hr 30 min 51 sec) 
 Total Blocks : 262144 Invalid Blocks : 0
Heartbeat CPU 7 instructions: 280000003 cycles: 551974884 heartbeat IPC: 0.945243 cumulative IPC: 0.284047 (Simulation time: 12 hr 42 min 55 sec) 
 Total Blocks : 262144 Invalid Blocks : 0
Heartbeat CPU 6 instructions: 280000003 cycles: 552737954 heartbeat IPC: 0.948443 cumulative IPC: 0.283674 (Simulation time: 12 hr 44 min 26 sec) 
 Total Blocks : 262144 Invalid Blocks : 0
Heartbeat CPU 5 instructions: 280000003 cycles: 552886161 heartbeat IPC: 0.943986 cumulative IPC: 0.283269 (Simulation time: 12 hr 44 min 48 sec) 
 Total Blocks : 262144 Invalid Blocks : 0
Heartbeat CPU 4 instructions: 280000003 cycles: 553413937 heartbeat IPC: 0.94686 cumulative IPC: 0.283236 (Simulation time: 12 hr 45 min 44 sec) 
 Total Blocks : 262144 Invalid Blocks : 0
Heartbeat CPU 3 instructions: 280000003 cycles: 553555662 heartbeat IPC: 0.946764 cumulative IPC: 0.283099 (Simulation time: 12 hr 45 min 59 sec) 
 Total Blocks : 262144 Invalid Blocks : 0
Heartbeat CPU 0 instructions: 280000003 cycles: 553668088 heartbeat IPC: 0.948085 cumulative IPC: 0.282984 (Simulation time: 12 hr 46 min 11 sec) 
 Total Blocks : 262144 Invalid Blocks : 0
Heartbeat CPU 2 instructions: 280000003 cycles: 553712861 heartbeat IPC: 0.949925 cumulative IPC: 0.282941 (Simulation time: 12 hr 46 min 16 sec) 
 Total Blocks : 262144 Invalid Blocks : 0
Heartbeat CPU 1 instructions: 280000003 cycles: 553952237 heartbeat IPC: 0.950526 cumulative IPC: 0.2827 (Simulation time: 12 hr 46 min 44 sec) 
 Total Blocks : 262144 Invalid Blocks : 0
Heartbeat CPU 7 instructions: 290000000 cycles: 595371469 heartbeat IPC: 0.230433 cumulative IPC: 0.276875 (Simulation time: 13 hr 19 min 41 sec) 
 Total Blocks : 262144 Invalid Blocks : 0
Heartbeat CPU 6 instructions: 290000000 cycles: 596484995 heartbeat IPC: 0.228587 cumulative IPC: 0.276271 (Simulation time: 13 hr 20 min 30 sec) 
 Total Blocks : 262144 Invalid Blocks : 0
Heartbeat CPU 5 instructions: 290000000 cycles: 596574502 heartbeat IPC: 0.228894 cumulative IPC: 0.275973 (Simulation time: 13 hr 20 min 34 sec) 
 Total Blocks : 262144 Invalid Blocks : 0
Heartbeat CPU 3 instructions: 290000000 cycles: 597174897 heartbeat IPC: 0.229257 cumulative IPC: 0.275899 (Simulation time: 13 hr 20 min 56 sec) 
 Total Blocks : 262144 Invalid Blocks : 0
Heartbeat CPU 4 instructions: 290000000 cycles: 597215980 heartbeat IPC: 0.2283 cumulative IPC: 0.27586 (Simulation time: 13 hr 20 min 58 sec) 
 Total Blocks : 262144 Invalid Blocks : 0
Heartbeat CPU 2 instructions: 290000000 cycles: 597330888 heartbeat IPC: 0.229263 cumulative IPC: 0.275767 (Simulation time: 13 hr 21 min 2 sec) 
 Total Blocks : 262144 Invalid Blocks : 0
Heartbeat CPU 0 instructions: 290000000 cycles: 597394687 heartbeat IPC: 0.228694 cumulative IPC: 0.275711 (Simulation time: 13 hr 21 min 5 sec) 
 Total Blocks : 262144 Invalid Blocks : 0
Heartbeat CPU 1 instructions: 290000000 cycles: 597491600 heartbeat IPC: 0.229677 cumulative IPC: 0.27563 (Simulation time: 13 hr 21 min 8 sec) 
 Total Blocks : 262144 Invalid Blocks : 0
Heartbeat CPU 7 instructions: 300000001 cycles: 627331971 heartbeat IPC: 0.312886 cumulative IPC: 0.280104 (Simulation time: 13 hr 46 min 18 sec) 
 Total Blocks : 262144 Invalid Blocks : 0
Heartbeat CPU 6 instructions: 300000001 cycles: 630203544 heartbeat IPC: 0.296573 cumulative IPC: 0.278176 (Simulation time: 13 hr 51 min 56 sec) 
 Total Blocks : 262144 Invalid Blocks : 0
Heartbeat CPU 5 instructions: 300000001 cycles: 630317551 heartbeat IPC: 0.296357 cumulative IPC: 0.277887 (Simulation time: 13 hr 52 min 3 sec) 
 Total Blocks : 262144 Invalid Blocks : 0
Heartbeat CPU 3 instructions: 300000001 cycles: 630997372 heartbeat IPC: 0.295661 cumulative IPC: 0.277756 (Simulation time: 13 hr 52 min 31 sec) 
 Total Blocks : 262144 Invalid Blocks : 0
Heartbeat CPU 4 instructions: 300000001 cycles: 631031865 heartbeat IPC: 0.295719 cumulative IPC: 0.277725 (Simulation time: 13 hr 52 min 32 sec) 
 Total Blocks : 262144 Invalid Blocks : 0
Heartbeat CPU 2 instructions: 300000001 cycles: 631322189 heartbeat IPC: 0.294193 cumulative IPC: 0.277505 (Simulation time: 13 hr 52 min 40 sec) 
 Total Blocks : 262144 Invalid Blocks : 0
Heartbeat CPU 0 instructions: 300000001 cycles: 631340093 heartbeat IPC: 0.294591 cumulative IPC: 0.277489 (Simulation time: 13 hr 52 min 41 sec) 
 Total Blocks : 262144 Invalid Blocks : 0
Heartbeat CPU 1 instructions: 300000001 cycles: 631701181 heartbeat IPC: 0.292316 cumulative IPC: 0.277212 (Simulation time: 13 hr 52 min 53 sec) 
 Total Blocks : 262144 Invalid Blocks : 0
Heartbeat CPU 7 instructions: 310000000 cycles: 685725173 heartbeat IPC: 0.171253 cumulative IPC: 0.264779 (Simulation time: 14 hr 17 min 25 sec) 
 Total Blocks : 262144 Invalid Blocks : 0
Heartbeat CPU 5 instructions: 310000000 cycles: 686974648 heartbeat IPC: 0.1765 cumulative IPC: 0.264079 (Simulation time: 14 hr 18 min 0 sec) 
 Total Blocks : 262144 Invalid Blocks : 0
Heartbeat CPU 6 instructions: 310000000 cycles: 687516262 heartbeat IPC: 0.174481 cumulative IPC: 0.263909 (Simulation time: 14 hr 18 min 15 sec) 
 Total Blocks : 262144 Invalid Blocks : 0
Heartbeat CPU 3 instructions: 310000000 cycles: 687953160 heartbeat IPC: 0.175575 cumulative IPC: 0.263799 (Simulation time: 14 hr 18 min 27 sec) 
 Total Blocks : 262144 Invalid Blocks : 0
Heartbeat CPU 4 instructions: 310000000 cycles: 688013163 heartbeat IPC: 0.175496 cumulative IPC: 0.263758 (Simulation time: 14 hr 18 min 28 sec) 
 Total Blocks : 262144 Invalid Blocks : 0
Heartbeat CPU 2 instructions: 310000000 cycles: 688063827 heartbeat IPC: 0.176237 cumulative IPC: 0.263729 (Simulation time: 14 hr 18 min 30 sec) 
 Total Blocks : 262144 Invalid Blocks : 0
Heartbeat CPU 0 instructions: 310000000 cycles: 688068152 heartbeat IPC: 0.17628 cumulative IPC: 0.263724 (Simulation time: 14 hr 18 min 30 sec) 
 Total Blocks : 262144 Invalid Blocks : 0
Heartbeat CPU 1 instructions: 310000000 cycles: 688228903 heartbeat IPC: 0.176904 cumulative IPC: 0.263623 (Simulation time: 14 hr 18 min 35 sec) 
 Total Blocks : 262144 Invalid Blocks : 0
Heartbeat CPU 7 instructions: 320000002 cycles: 741537474 heartbeat IPC: 0.179172 cumulative IPC: 0.254626 (Simulation time: 14 hr 42 min 53 sec) 
 Total Blocks : 262144 Invalid Blocks : 0
Heartbeat CPU 5 instructions: 320000002 cycles: 742850515 heartbeat IPC: 0.178968 cumulative IPC: 0.254001 (Simulation time: 14 hr 43 min 30 sec) 
 Total Blocks : 262144 Invalid Blocks : 0
Heartbeat CPU 6 instructions: 320000002 cycles: 743995280 heartbeat IPC: 0.177057 cumulative IPC: 0.253539 (Simulation time: 14 hr 43 min 58 sec) 
 Total Blocks : 262144 Invalid Blocks : 0
Heartbeat CPU 3 instructions: 320000002 cycles: 744537325 heartbeat IPC: 0.176728 cumulative IPC: 0.253395 (Simulation time: 14 hr 44 min 12 sec) 
 Total Blocks : 262144 Invalid Blocks : 0
Heartbeat CPU 2 instructions: 320000002 cycles: 744538582 heartbeat IPC: 0.17707 cumulative IPC: 0.253394 (Simulation time: 14 hr 44 min 12 sec) 
 Total Blocks : 262144 Invalid Blocks : 0
Heartbeat CPU 4 instructions: 320000002 cycles: 744623842 heartbeat IPC: 0.176645 cumulative IPC: 0.253346 (Simulation time: 14 hr 44 min 15 sec) 
 Total Blocks : 262144 Invalid Blocks : 0
Heartbeat CPU 0 instructions: 320000002 cycles: 744771313 heartbeat IPC: 0.176357 cumulative IPC: 0.253268 (Simulation time: 14 hr 44 min 19 sec) 
 Total Blocks : 262144 Invalid Blocks : 0
Heartbeat CPU 1 instructions: 320000002 cycles: 744808520 heartbeat IPC: 0.176742 cumulative IPC: 0.253249 (Simulation time: 14 hr 44 min 20 sec) 
 Total Blocks : 262144 Invalid Blocks : 0
Heartbeat CPU 7 instructions: 330000000 cycles: 798594960 heartbeat IPC: 0.175262 cumulative IPC: 0.246043 (Simulation time: 15 hr 8 min 38 sec) 
 Total Blocks : 262144 Invalid Blocks : 0
Heartbeat CPU 5 instructions: 330000000 cycles: 799991509 heartbeat IPC: 0.175006 cumulative IPC: 0.245468 (Simulation time: 15 hr 9 min 13 sec) 
 Total Blocks : 262144 Invalid Blocks : 0
Heartbeat CPU 6 instructions: 330000000 cycles: 801653618 heartbeat IPC: 0.173435 cumulative IPC: 0.244836 (Simulation time: 15 hr 9 min 57 sec) 
 Total Blocks : 262144 Invalid Blocks : 0
Heartbeat CPU 2 instructions: 330000000 cycles: 802579003 heartbeat IPC: 0.172294 cumulative IPC: 0.24454 (Simulation time: 15 hr 10 min 21 sec) 
 Total Blocks : 262144 Invalid Blocks : 0
Heartbeat CPU 3 instructions: 330000000 cycles: 802609819 heartbeat IPC: 0.172199 cumulative IPC: 0.244526 (Simulation time: 15 hr 10 min 22 sec) 
 Total Blocks : 262144 Invalid Blocks : 0
Heartbeat CPU 4 instructions: 330000000 cycles: 802670217 heartbeat IPC: 0.172276 cumulative IPC: 0.244496 (Simulation time: 15 hr 10 min 24 sec) 
 Total Blocks : 262144 Invalid Blocks : 0
Heartbeat CPU 0 instructions: 330000000 cycles: 802805395 heartbeat IPC: 0.172312 cumulative IPC: 0.244435 (Simulation time: 15 hr 10 min 27 sec) 
 Total Blocks : 262144 Invalid Blocks : 0
Heartbeat CPU 1 instructions: 330000000 cycles: 802841275 heartbeat IPC: 0.172316 cumulative IPC: 0.244418 (Simulation time: 15 hr 10 min 28 sec) 
 Total Blocks : 262144 Invalid Blocks : 0
Heartbeat CPU 7 instructions: 340000001 cycles: 857108315 heartbeat IPC: 0.170901 cumulative IPC: 0.238542 (Simulation time: 15 hr 34 min 2 sec) 
 Total Blocks : 262144 Invalid Blocks : 0
Heartbeat CPU 5 instructions: 340000001 cycles: 859218451 heartbeat IPC: 0.168842 cumulative IPC: 0.237753 (Simulation time: 15 hr 34 min 49 sec) 
 Total Blocks : 262144 Invalid Blocks : 0
Heartbeat CPU 6 instructions: 340000001 cycles: 860120241 heartbeat IPC: 0.171038 cumulative IPC: 0.237512 (Simulation time: 15 hr 35 min 17 sec) 
 Total Blocks : 262144 Invalid Blocks : 0
Heartbeat CPU 3 instructions: 340000001 cycles: 861586853 heartbeat IPC: 0.169558 cumulative IPC: 0.23704 (Simulation time: 15 hr 36 min 2 sec) 
 Total Blocks : 262144 Invalid Blocks : 0
Heartbeat CPU 2 instructions: 340000001 cycles: 861686164 heartbeat IPC: 0.169184 cumulative IPC: 0.237 (Simulation time: 15 hr 36 min 5 sec) 
 Total Blocks : 262144 Invalid Blocks : 0
Heartbeat CPU 4 instructions: 340000001 cycles: 861779349 heartbeat IPC: 0.169179 cumulative IPC: 0.23696 (Simulation time: 15 hr 36 min 8 sec) 
 Total Blocks : 262144 Invalid Blocks : 0
Heartbeat CPU 0 instructions: 340000001 cycles: 861911357 heartbeat IPC: 0.169188 cumulative IPC: 0.236908 (Simulation time: 15 hr 36 min 12 sec) 
 Total Blocks : 262144 Invalid Blocks : 0
Heartbeat CPU 1 instructions: 340000001 cycles: 861943952 heartbeat IPC: 0.169197 cumulative IPC: 0.236895 (Simulation time: 15 hr 36 min 13 sec) 
 Total Blocks : 262144 Invalid Blocks : 0
Heartbeat CPU 7 instructions: 350000000 cycles: 887026894 heartbeat IPC: 0.33424 cumulative IPC: 0.24319 (Simulation time: 15 hr 49 min 27 sec) 
 Total Blocks : 262144 Invalid Blocks : 0
Heartbeat CPU 5 instructions: 350000000 cycles: 889114325 heartbeat IPC: 0.334494 cumulative IPC: 0.242432 (Simulation time: 15 hr 51 min 25 sec) 
 Total Blocks : 262144 Invalid Blocks : 0
Heartbeat CPU 6 instructions: 350000000 cycles: 890039222 heartbeat IPC: 0.334236 cumulative IPC: 0.242187 (Simulation time: 15 hr 52 min 38 sec) 
 Total Blocks : 262144 Invalid Blocks : 0
Heartbeat CPU 3 instructions: 350000000 cycles: 891509176 heartbeat IPC: 0.334199 cumulative IPC: 0.241725 (Simulation time: 15 hr 55 min 49 sec) 
 Total Blocks : 262144 Invalid Blocks : 0
Heartbeat CPU 2 instructions: 350000000 cycles: 891582658 heartbeat IPC: 0.334487 cumulative IPC: 0.241696 (Simulation time: 15 hr 56 min 3 sec) 
 Total Blocks : 262144 Invalid Blocks : 0
Heartbeat CPU 4 instructions: 350000000 cycles: 891662294 heartbeat IPC: 0.334639 cumulative IPC: 0.241663 (Simulation time: 15 hr 56 min 19 sec) 
 Total Blocks : 262144 Invalid Blocks : 0
Heartbeat CPU 0 instructions: 350000000 cycles: 891785388 heartbeat IPC: 0.334739 cumulative IPC: 0.241616 (Simulation time: 15 hr 56 min 42 sec) 
 Total Blocks : 262144 Invalid Blocks : 0
Heartbeat CPU 1 instructions: 350000000 cycles: 891822343 heartbeat IPC: 0.33469 cumulative IPC: 0.241602 (Simulation time: 15 hr 56 min 50 sec) 
 Total Blocks : 262144 Invalid Blocks : 0
Heartbeat CPU 7 instructions: 360000000 cycles: 892697621 heartbeat IPC: 1.76344 cumulative IPC: 0.257056 (Simulation time: 15 hr 59 min 39 sec) 
 Total Blocks : 262144 Invalid Blocks : 0
Heartbeat CPU 5 instructions: 360000000 cycles: 894786385 heartbeat IPC: 1.76303 cumulative IPC: 0.256258 (Simulation time: 16 hr 5 min 58 sec) 
 Total Blocks : 262144 Invalid Blocks : 0
Heartbeat CPU 6 instructions: 360000000 cycles: 895709197 heartbeat IPC: 1.76368 cumulative IPC: 0.255995 (Simulation time: 16 hr 8 min 35 sec) 
 Total Blocks : 262144 Invalid Blocks : 0
Heartbeat CPU 3 instructions: 360000000 cycles: 897181013 heartbeat IPC: 1.7631 cumulative IPC: 0.255504 (Simulation time: 16 hr 12 min 40 sec) 
 Total Blocks : 262144 Invalid Blocks : 0
Heartbeat CPU 2 instructions: 360000000 cycles: 897253738 heartbeat IPC: 1.76333 cumulative IPC: 0.255475 (Simulation time: 16 hr 12 min 53 sec) 
 Total Blocks : 262144 Invalid Blocks : 0
Heartbeat CPU 4 instructions: 360000000 cycles: 897334516 heartbeat IPC: 1.76298 cumulative IPC: 0.25544 (Simulation time: 16 hr 13 min 5 sec) 
 Total Blocks : 262144 Invalid Blocks : 0
Heartbeat CPU 0 instructions: 360000000 cycles: 897457504 heartbeat IPC: 1.76301 cumulative IPC: 0.25539 (Simulation time: 16 hr 13 min 20 sec) 
 Total Blocks : 262144 Invalid Blocks : 0
Heartbeat CPU 1 instructions: 360000000 cycles: 897494883 heartbeat IPC: 1.76288 cumulative IPC: 0.255375 (Simulation time: 16 hr 13 min 24 sec) 
 Total Blocks : 262144 Invalid Blocks : 0
Heartbeat CPU 7 instructions: 370000001 cycles: 911316633 heartbeat IPC: 0.537085 cumulative IPC: 0.265198 (Simulation time: 16 hr 29 min 56 sec) 
 Total Blocks : 262144 Invalid Blocks : 0
Heartbeat CPU 5 instructions: 370000001 cycles: 913616889 heartbeat IPC: 0.531053 cumulative IPC: 0.26431 (Simulation time: 16 hr 31 min 23 sec) 
 Total Blocks : 262144 Invalid Blocks : 0
Heartbeat CPU 6 instructions: 370000001 cycles: 914678281 heartbeat IPC: 0.527174 cumulative IPC: 0.263987 (Simulation time: 16 hr 32 min 3 sec) 
 Total Blocks : 262144 Invalid Blocks : 0
Heartbeat CPU 3 instructions: 370000001 cycles: 916311922 heartbeat IPC: 0.522714 cumulative IPC: 0.263426 (Simulation time: 16 hr 33 min 5 sec) 
 Total Blocks : 262144 Invalid Blocks : 0
Heartbeat CPU 2 instructions: 370000001 cycles: 916395319 heartbeat IPC: 0.522423 cumulative IPC: 0.263392 (Simulation time: 16 hr 33 min 8 sec) 
 Total Blocks : 262144 Invalid Blocks : 0
Heartbeat CPU 4 instructions: 370000001 cycles: 916486585 heartbeat IPC: 0.522137 cumulative IPC: 0.263352 (Simulation time: 16 hr 33 min 11 sec) 
 Total Blocks : 262144 Invalid Blocks : 0
Heartbeat CPU 1 instructions: 370000001 cycles: 916560913 heartbeat IPC: 0.524493 cumulative IPC: 0.263323 (Simulation time: 16 hr 33 min 14 sec) 
 Total Blocks : 262144 Invalid Blocks : 0
Heartbeat CPU 0 instructions: 370000001 cycles: 916560964 heartbeat IPC: 0.523465 cumulative IPC: 0.263323 (Simulation time: 16 hr 33 min 14 sec) 
 Total Blocks : 262144 Invalid Blocks : 0
Heartbeat CPU 7 instructions: 380000000 cycles: 945169398 heartbeat IPC: 0.295397 cumulative IPC: 0.266714 (Simulation time: 16 hr 52 min 27 sec) 
 Total Blocks : 262144 Invalid Blocks : 0
Heartbeat CPU 5 instructions: 380000000 cycles: 947072417 heartbeat IPC: 0.298904 cumulative IPC: 0.266022 (Simulation time: 16 hr 53 min 47 sec) 
 Total Blocks : 262144 Invalid Blocks : 0
Heartbeat CPU 6 instructions: 380000000 cycles: 947928699 heartbeat IPC: 0.300748 cumulative IPC: 0.265792 (Simulation time: 16 hr 54 min 23 sec) 
 Total Blocks : 262144 Invalid Blocks : 0
Heartbeat CPU 3 instructions: 380000000 cycles: 949288637 heartbeat IPC: 0.303244 cumulative IPC: 0.265362 (Simulation time: 16 hr 55 min 24 sec) 
 Total Blocks : 262144 Invalid Blocks : 0
Heartbeat CPU 2 instructions: 380000000 cycles: 949305206 heartbeat IPC: 0.30386 cumulative IPC: 0.265355 (Simulation time: 16 hr 55 min 24 sec) 
 Total Blocks : 262144 Invalid Blocks : 0
Heartbeat CPU 4 instructions: 380000000 cycles: 949379701 heartbeat IPC: 0.304015 cumulative IPC: 0.265324 (Simulation time: 16 hr 55 min 27 sec) 
 Total Blocks : 262144 Invalid Blocks : 0
Heartbeat CPU 1 instructions: 380000000 cycles: 949391885 heartbeat IPC: 0.30459 cumulative IPC: 0.26532 (Simulation time: 16 hr 55 min 28 sec) 
 Total Blocks : 262144 Invalid Blocks : 0
Heartbeat CPU 0 instructions: 380000000 cycles: 949541409 heartbeat IPC: 0.30321 cumulative IPC: 0.265262 (Simulation time: 16 hr 55 min 34 sec) 
 Total Blocks : 262144 Invalid Blocks : 0
Heartbeat CPU 7 instructions: 390000000 cycles: 981269960 heartbeat IPC: 0.277004 cumulative IPC: 0.267237 (Simulation time: 17 hr 17 min 16 sec) 
 Total Blocks : 262144 Invalid Blocks : 0
Heartbeat CPU 5 instructions: 390000000 cycles: 983192287 heartbeat IPC: 0.276856 cumulative IPC: 0.266571 (Simulation time: 17 hr 18 min 39 sec) 
 Total Blocks : 262144 Invalid Blocks : 0
Heartbeat CPU 6 instructions: 390000000 cycles: 984062037 heartbeat IPC: 0.276753 cumulative IPC: 0.266348 (Simulation time: 17 hr 19 min 11 sec) 
 Total Blocks : 262144 Invalid Blocks : 0
Heartbeat CPU 2 instructions: 390000000 cycles: 985459189 heartbeat IPC: 0.276595 cumulative IPC: 0.265924 (Simulation time: 17 hr 20 min 1 sec) 
 Total Blocks : 262144 Invalid Blocks : 0
Heartbeat CPU 3 instructions: 390000000 cycles: 985481596 heartbeat IPC: 0.276297 cumulative IPC: 0.265915 (Simulation time: 17 hr 20 min 2 sec) 
 Total Blocks : 262144 Invalid Blocks : 0
Heartbeat CPU 4 instructions: 390000000 cycles: 985596778 heartbeat IPC: 0.276113 cumulative IPC: 0.265871 (Simulation time: 17 hr 20 min 7 sec) 
 Total Blocks : 262144 Invalid Blocks : 0
Heartbeat CPU 1 instructions: 390000000 cycles: 985629499 heartbeat IPC: 0.275956 cumulative IPC: 0.265859 (Simulation time: 17 hr 20 min 8 sec) 
 Total Blocks : 262144 Invalid Blocks : 0
Heartbeat CPU 0 instructions: 390000000 cycles: 985864673 heartbeat IPC: 0.275306 cumulative IPC: 0.265772 (Simulation time: 17 hr 20 min 18 sec) 
 Total Blocks : 262144 Invalid Blocks : 0
Heartbeat CPU 7 instructions: 400000000 cycles: 1017429430 heartbeat IPC: 0.276553 cumulative IPC: 0.267688 (Simulation time: 17 hr 42 min 9 sec) 
 Total Blocks : 262144 Invalid Blocks : 0
Finished CPU 7 instructions: 200000001 cycles: 747108238 cumulative IPC: 0.267699 (Simulation time: 17 hr 42 min 37 sec) 
Heartbeat CPU 5 instructions: 400000000 cycles: 1019396325 heartbeat IPC: 0.276212 cumulative IPC: 0.267038 (Simulation time: 17 hr 43 min 34 sec) 
 Total Blocks : 262144 Invalid Blocks : 0
Finished CPU 5 instructions: 200000000 cycles: 748942322 cumulative IPC: 0.267043 (Simulation time: 17 hr 43 min 56 sec) 
Heartbeat CPU 6 instructions: 400000000 cycles: 1020356116 heartbeat IPC: 0.275527 cumulative IPC: 0.266792 (Simulation time: 17 hr 44 min 15 sec) 
 Total Blocks : 262144 Invalid Blocks : 0
Finished CPU 6 instructions: 200000000 cycles: 749642911 cumulative IPC: 0.266794 (Simulation time: 17 hr 44 min 26 sec) 
Heartbeat CPU 2 instructions: 400000000 cycles: 1021791743 heartbeat IPC: 0.275235 cumulative IPC: 0.266374 (Simulation time: 17 hr 45 min 18 sec) 
 Total Blocks : 262144 Invalid Blocks : 0
Finished CPU 2 instructions: 200000000 cycles: 750823003 cumulative IPC: 0.266374 (Simulation time: 17 hr 45 min 18 sec) 
Heartbeat CPU 3 instructions: 400000000 cycles: 1021807174 heartbeat IPC: 0.275288 cumulative IPC: 0.266369 (Simulation time: 17 hr 45 min 19 sec) 
 Total Blocks : 262144 Invalid Blocks : 0
Finished CPU 3 instructions: 200000000 cycles: 750838356 cumulative IPC: 0.266369 (Simulation time: 17 hr 45 min 19 sec) 
Heartbeat CPU 4 instructions: 400000000 cycles: 1021838551 heartbeat IPC: 0.275925 cumulative IPC: 0.266356 (Simulation time: 17 hr 45 min 20 sec) 
 Total Blocks : 262144 Invalid Blocks : 0
Finished CPU 4 instructions: 200000002 cycles: 750874368 cumulative IPC: 0.266356 (Simulation time: 17 hr 45 min 21 sec) 
Heartbeat CPU 1 instructions: 400000000 cycles: 1021971644 heartbeat IPC: 0.275163 cumulative IPC: 0.26631 (Simulation time: 17 hr 45 min 26 sec) 
 Total Blocks : 262144 Invalid Blocks : 0
Finished CPU 1 instructions: 200000000 cycles: 751005001 cumulative IPC: 0.26631 (Simulation time: 17 hr 45 min 26 sec) 
Heartbeat CPU 0 instructions: 400000000 cycles: 1022306159 heartbeat IPC: 0.274413 cumulative IPC: 0.266191 (Simulation time: 17 hr 45 min 39 sec) 
 Total Blocks : 262144 Invalid Blocks : 0
Finished CPU 0 instructions: 200000000 cycles: 751339778 cumulative IPC: 0.266191 (Simulation time: 17 hr 45 min 39 sec) 

CPU 0 Branch Prediction Accuracy: 85.6276% MPKI: 31.1393 Average ROB Occupancy at Mispredict: 24.9844

CPU 1 Branch Prediction Accuracy: 85.6281% MPKI: 31.1374 Average ROB Occupancy at Mispredict: 24.9886

CPU 2 Branch Prediction Accuracy: 85.6284% MPKI: 31.1366 Average ROB Occupancy at Mispredict: 24.9902

CPU 3 Branch Prediction Accuracy: 85.6283% MPKI: 31.1367 Average ROB Occupancy at Mispredict: 24.9905

CPU 4 Branch Prediction Accuracy: 85.6282% MPKI: 31.1367 Average ROB Occupancy at Mispredict: 24.9901

CPU 5 Branch Prediction Accuracy: 85.6362% MPKI: 31.0875 Average ROB Occupancy at Mispredict: 25.0275

CPU 6 Branch Prediction Accuracy: 85.6324% MPKI: 31.1116 Average ROB Occupancy at Mispredict: 25.0087

CPU 7 Branch Prediction Accuracy: 85.6409% MPKI: 31.066 Average ROB Occupancy at Mispredict: 25.0534

ChampSim completed all CPUs

Total Simulation Statistics (not including warmup)

CPU 0 cumulative IPC: 0.266191 instructions: 200000000 cycles: 751339778
ITLB TOTAL     ACCESS: 30051710  HIT: 30051710  MISS:     0  HIT %:   100  MISS %:     0  AVERAGE MISS PENALTY: 0
ITLB LOAD      ACCESS: 30051710  HIT: 30051710  MISS:     0  HIT %:   100  MISS %:     0  AVERAGE MISS PENALTY: 0
ITLB RFO       ACCESS:     0  HIT:     0  MISS:     0  HIT %:     0  MISS %:     0  AVERAGE MISS PENALTY: 0
ITLB PREFETCH  ACCESS:     0  HIT:     0  MISS:     0  HIT %:     0  MISS %:     0  AVERAGE MISS PENALTY: 0
ITLB WRITEBACK ACCESS:     0  HIT:     0  MISS:     0  HIT %:     0  MISS %:     0  AVERAGE MISS PENALTY: 0

DTLB TOTAL     ACCESS: 39389289  HIT: 39128682  MISS: 260607  HIT %: 99.3384  MISS %: 0.661619  AVERAGE MISS PENALTY: 74.5106
DTLB LOAD      ACCESS: 33278827  HIT: 33026189  MISS: 252638  HIT %: 99.2408  MISS %: 0.759155  AVERAGE MISS PENALTY: 75.287
DTLB RFO       ACCESS: 6110462  HIT: 6102493  MISS:  7969  HIT %: 99.8696  MISS %: 0.130416  AVERAGE MISS PENALTY: 49.8966
DTLB PREFETCH  ACCESS:     0  HIT:     0  MISS:     0  HIT %:     0  MISS %:     0  AVERAGE MISS PENALTY: 0
DTLB WRITEBACK ACCESS:     0  HIT:     0  MISS:     0  HIT %:     0  MISS %:     0  AVERAGE MISS PENALTY: 0

STLB TOTAL     ACCESS: 260607  HIT: 95655  MISS: 164952  HIT %: 36.7047  MISS %: 63.2953  AVERAGE MISS PENALTY: 100
STLB LOAD      ACCESS: 252638  HIT: 90873  MISS: 161765  HIT %: 35.9696  MISS %: 64.0304  AVERAGE MISS PENALTY: 100
STLB RFO       ACCESS:  7969  HIT:  4782  MISS:  3187  HIT %: 60.0075  MISS %: 39.9925  AVERAGE MISS PENALTY: 100
STLB PREFETCH  ACCESS:     0  HIT:     0  MISS:     0  HIT %:     0  MISS %:     0  AVERAGE MISS PENALTY: 0
STLB WRITEBACK ACCESS:     0  HIT:     0  MISS:     0  HIT %:     0  MISS %:     0  AVERAGE MISS PENALTY: 0

L1D TOTAL     ACCESS: 49501485  HIT: 40661259  MISS: 8840226  HIT %: 82.1415  MISS %: 17.8585  AVERAGE MISS PENALTY: 7.00599e+06
L1D LOAD      ACCESS: 32779912  HIT: 29793907  MISS: 2986005  HIT %: 90.8907  MISS %: 9.10925  AVERAGE MISS PENALTY: 2.07393e+07
L1D RFO       ACCESS: 4195711  HIT: 3960205  MISS: 235506  HIT %: 94.387  MISS %: 5.61302  AVERAGE MISS PENALTY: 25777.1
L1D PREFETCH  ACCESS: 12525862  HIT: 6907147  MISS: 5618715  HIT %: 55.1431  MISS %: 44.8569  AVERAGE MISS PENALTY: 129.561
L1D WRITEBACK ACCESS:     0  HIT:     0  MISS:     0  HIT %:     0  MISS %:     0  AVERAGE MISS PENALTY: 0

L1I TOTAL     ACCESS: 47699349  HIT: 47699347  MISS:     2  HIT %:   100  MISS %: 4.19293e-06  AVERAGE MISS PENALTY: 1122.5
L1I LOAD      ACCESS: 47699349  HIT: 47699347  MISS:     2  HIT %:   100  MISS %: 4.19293e-06  AVERAGE MISS PENALTY: 1122.5
L1I RFO       ACCESS:     0  HIT:     0  MISS:     0  HIT %:     0  MISS %:     0  AVERAGE MISS PENALTY: 0
L1I PREFETCH  ACCESS:     0  HIT:     0  MISS:     0  HIT %:     0  MISS %:     0  AVERAGE MISS PENALTY: 0
L1I WRITEBACK ACCESS:     0  HIT:     0  MISS:     0  HIT %:     0  MISS %:     0  AVERAGE MISS PENALTY: 0

L2C TOTAL     ACCESS: 15791144  HIT: 6065857  MISS: 9725287  HIT %: 38.413  MISS %: 61.587  AVERAGE MISS PENALTY: 6.95669e+06
L2C LOAD      ACCESS: 2976402  HIT: 786078  MISS: 2190324  HIT %: 26.4103  MISS %: 73.5897  AVERAGE MISS PENALTY: 3.08877e+07
L2C RFO       ACCESS: 235496  HIT:  1167  MISS: 234329  HIT %: 0.49555  MISS %: 99.5045  AVERAGE MISS PENALTY: 446.77
L2C PREFETCH  ACCESS: 11981284  HIT: 4794806  MISS: 7186478  HIT %: 40.0191  MISS %: 59.9809  AVERAGE MISS PENALTY: 221.32
L2C WRITEBACK ACCESS: 597962  HIT: 483806  MISS: 114156  HIT %: 80.9092  MISS %: 19.0908  AVERAGE MISS PENALTY: 0


LLC0 TOTAL     ACCESS: 1270155  HIT: 673307  MISS: 596848  HIT %: 53.0098  MISS %: 46.9902  AVERAGE MISS PENALTY: 352.377
LLC0 LOAD      ACCESS: 293614  HIT: 171686  MISS: 121928  HIT %: 58.4734  MISS %: 41.5266  AVERAGE MISS PENALTY: 334.697
LLC0 RFO       ACCESS: 29282  HIT:  2139  MISS: 27143  HIT %: 7.30483  MISS %: 92.6952  AVERAGE MISS PENALTY: 435.433
LLC0 PREFETCH  ACCESS: 872640  HIT: 427489  MISS: 445151  HIT %: 48.988  MISS %: 51.012  AVERAGE MISS PENALTY: 354.235
LLC0 WRITEBACK ACCESS: 74619  HIT: 71993  MISS:  2626  HIT %: 96.4808  MISS %: 3.51921  AVERAGE MISS PENALTY: 0

LLC1 TOTAL     ACCESS: 1287818  HIT: 682662  MISS: 605156  HIT %: 53.0092  MISS %: 46.9908  AVERAGE MISS PENALTY: 355.587
LLC1 LOAD      ACCESS: 269089  HIT: 181479  MISS: 87610  HIT %: 67.442  MISS %: 32.558  AVERAGE MISS PENALTY: 370.213
LLC1 RFO       ACCESS: 29299  HIT:  2166  MISS: 27133  HIT %: 7.39274  MISS %: 92.6073  AVERAGE MISS PENALTY: 438.532
LLC1 PREFETCH  ACCESS: 914731  HIT: 426899  MISS: 487832  HIT %: 46.6693  MISS %: 53.3307  AVERAGE MISS PENALTY: 350.228
LLC1 WRITEBACK ACCESS: 74699  HIT: 72118  MISS:  2581  HIT %: 96.5448  MISS %: 3.4552  AVERAGE MISS PENALTY: 0

LLC2 TOTAL     ACCESS: 1288779  HIT: 677990  MISS: 610789  HIT %: 52.6072  MISS %: 47.3928  AVERAGE MISS PENALTY: 356.252
LLC2 LOAD      ACCESS: 258826  HIT: 174047  MISS: 84779  HIT %: 67.2448  MISS %: 32.7552  AVERAGE MISS PENALTY: 370.076
LLC2 RFO       ACCESS: 29289  HIT:  2149  MISS: 27140  HIT %: 7.33723  MISS %: 92.6628  AVERAGE MISS PENALTY: 438.939
LLC2 PREFETCH  ACCESS: 926050  HIT: 429854  MISS: 496196  HIT %: 46.418  MISS %: 53.582  AVERAGE MISS PENALTY: 351.288
LLC2 WRITEBACK ACCESS: 74614  HIT: 71940  MISS:  2674  HIT %: 96.4162  MISS %: 3.58378  AVERAGE MISS PENALTY: 0

LLC3 TOTAL     ACCESS: 1284035  HIT: 673304  MISS: 610731  HIT %: 52.4366  MISS %: 47.5634  AVERAGE MISS PENALTY: 356.318
LLC3 LOAD      ACCESS: 254294  HIT: 170278  MISS: 84016  HIT %: 66.9611  MISS %: 33.0389  AVERAGE MISS PENALTY: 376.533
LLC3 RFO       ACCESS: 29293  HIT:  2117  MISS: 27176  HIT %: 7.22698  MISS %: 92.773  AVERAGE MISS PENALTY: 444.379
LLC3 PREFETCH  ACCESS: 925805  HIT: 428988  MISS: 496817  HIT %: 46.3368  MISS %: 53.6632  AVERAGE MISS PENALTY: 350.035
LLC3 WRITEBACK ACCESS: 74643  HIT: 71921  MISS:  2722  HIT %: 96.3533  MISS %: 3.64669  AVERAGE MISS PENALTY: 0

LLC4 TOTAL     ACCESS: 1280169  HIT: 669111  MISS: 611058  HIT %: 52.2674  MISS %: 47.7326  AVERAGE MISS PENALTY: 348.34
LLC4 LOAD      ACCESS: 253156  HIT: 169948  MISS: 83208  HIT %: 67.1317  MISS %: 32.8683  AVERAGE MISS PENALTY: 369.035
LLC4 RFO       ACCESS: 29302  HIT:  2146  MISS: 27156  HIT %: 7.32373  MISS %: 92.6763  AVERAGE MISS PENALTY: 442.218
LLC4 PREFETCH  ACCESS: 923191  HIT: 425145  MISS: 498046  HIT %: 46.0517  MISS %: 53.9483  AVERAGE MISS PENALTY: 341.616
LLC4 WRITEBACK ACCESS: 74520  HIT: 71872  MISS:  2648  HIT %: 96.4466  MISS %: 3.55341  AVERAGE MISS PENALTY: 0

LLC5 TOTAL     ACCESS: 1274244  HIT: 665344  MISS: 608900  HIT %: 52.2148  MISS %: 47.7852  AVERAGE MISS PENALTY: 343.413
LLC5 LOAD      ACCESS: 251731  HIT: 168585  MISS: 83146  HIT %: 66.9703  MISS %: 33.0297  AVERAGE MISS PENALTY: 363.804
LLC5 RFO       ACCESS: 29301  HIT:  2115  MISS: 27186  HIT %: 7.21818  MISS %: 92.7818  AVERAGE MISS PENALTY: 427.167
LLC5 PREFETCH  ACCESS: 918690  HIT: 422720  MISS: 495970  HIT %: 46.0133  MISS %: 53.9867  AVERAGE MISS PENALTY: 337.203
LLC5 WRITEBACK ACCESS: 74522  HIT: 71924  MISS:  2598  HIT %: 96.5138  MISS %: 3.48622  AVERAGE MISS PENALTY: 0

LLC6 TOTAL     ACCESS: 1266927  HIT: 659269  MISS: 607658  HIT %: 52.0369  MISS %: 47.9631  AVERAGE MISS PENALTY: 348.896
LLC6 LOAD      ACCESS: 258942  HIT: 174988  MISS: 83954  HIT %: 67.5781  MISS %: 32.4219  AVERAGE MISS PENALTY: 366.477
LLC6 RFO       ACCESS: 29272  HIT:  2075  MISS: 27197  HIT %: 7.08869  MISS %: 92.9113  AVERAGE MISS PENALTY: 442.087
LLC6 PREFETCH  ACCESS: 904431  HIT: 410637  MISS: 493794  HIT %: 45.4028  MISS %: 54.5972  AVERAGE MISS PENALTY: 342.691
LLC6 WRITEBACK ACCESS: 74282  HIT: 71569  MISS:  2713  HIT %: 96.3477  MISS %: 3.6523  AVERAGE MISS PENALTY: 0

LLC7 TOTAL     ACCESS: 1255595  HIT: 649068  MISS: 606527  HIT %: 51.6941  MISS %: 48.3059  AVERAGE MISS PENALTY: 344.011
LLC7 LOAD      ACCESS: 256458  HIT: 172322  MISS: 84136  HIT %: 67.1931  MISS %: 32.8069  AVERAGE MISS PENALTY: 364.124
LLC7 RFO       ACCESS: 29291  HIT:  2126  MISS: 27165  HIT %: 7.2582  MISS %: 92.7418  AVERAGE MISS PENALTY: 438.077
LLC7 PREFETCH  ACCESS: 895134  HIT: 402581  MISS: 492553  HIT %: 44.9744  MISS %: 55.0256  AVERAGE MISS PENALTY: 337.254
LLC7 WRITEBACK ACCESS: 74712  HIT: 72039  MISS:  2673  HIT %: 96.4223  MISS %: 3.57774  AVERAGE MISS PENALTY: 0

Total Rob stall cycles : 	598280214
Total Load Rob Stall cycles : 	194028769
Average Rob Stall cycles : 	 8
Average Load Rob Stall cycles : 	 21

CPU 1 cumulative IPC: 0.266312 instructions: 200091092 cycles: 751339778
ITLB TOTAL     ACCESS: 30063660  HIT: 30063660  MISS:     0  HIT %:   100  MISS %:     0  AVERAGE MISS PENALTY: 0
ITLB LOAD      ACCESS: 30063660  HIT: 30063660  MISS:     0  HIT %:   100  MISS %:     0  AVERAGE MISS PENALTY: 0
ITLB RFO       ACCESS:     0  HIT:     0  MISS:     0  HIT %:     0  MISS %:     0  AVERAGE MISS PENALTY: 0
ITLB PREFETCH  ACCESS:     0  HIT:     0  MISS:     0  HIT %:     0  MISS %:     0  AVERAGE MISS PENALTY: 0
ITLB WRITEBACK ACCESS:     0  HIT:     0  MISS:     0  HIT %:     0  MISS %:     0  AVERAGE MISS PENALTY: 0

DTLB TOTAL     ACCESS: 39409444  HIT: 39148771  MISS: 260673  HIT %: 99.3386  MISS %: 0.661448  AVERAGE MISS PENALTY: 74.5604
DTLB LOAD      ACCESS: 33297691  HIT: 33044973  MISS: 252718  HIT %: 99.241  MISS %: 0.758966  AVERAGE MISS PENALTY: 75.3389
DTLB RFO       ACCESS: 6111753  HIT: 6103798  MISS:  7955  HIT %: 99.8698  MISS %: 0.130159  AVERAGE MISS PENALTY: 49.8297
DTLB PREFETCH  ACCESS:     0  HIT:     0  MISS:     0  HIT %:     0  MISS %:     0  AVERAGE MISS PENALTY: 0
DTLB WRITEBACK ACCESS:     0  HIT:     0  MISS:     0  HIT %:     0  MISS %:     0  AVERAGE MISS PENALTY: 0

STLB TOTAL     ACCESS: 260673  HIT: 95664  MISS: 165009  HIT %: 36.6989  MISS %: 63.3011  AVERAGE MISS PENALTY: 100
STLB LOAD      ACCESS: 252718  HIT: 90884  MISS: 161834  HIT %: 35.9626  MISS %: 64.0374  AVERAGE MISS PENALTY: 100
STLB RFO       ACCESS:  7955  HIT:  4780  MISS:  3175  HIT %: 60.088  MISS %: 39.912  AVERAGE MISS PENALTY: 100
STLB PREFETCH  ACCESS:     0  HIT:     0  MISS:     0  HIT %:     0  MISS %:     0  AVERAGE MISS PENALTY: 0
STLB WRITEBACK ACCESS:     0  HIT:     0  MISS:     0  HIT %:     0  MISS %:     0  AVERAGE MISS PENALTY: 0

L1D TOTAL     ACCESS: 49464068  HIT: 40594970  MISS: 8869098  HIT %: 82.0696  MISS %: 17.9304  AVERAGE MISS PENALTY: 7.06492e+06
L1D LOAD      ACCESS: 32792068  HIT: 29803172  MISS: 2988896  HIT %: 90.8853  MISS %: 9.11469  AVERAGE MISS PENALTY: 2.09615e+07
L1D RFO       ACCESS: 4126825  HIT: 3891312  MISS: 235513  HIT %: 94.2931  MISS %: 5.70688  AVERAGE MISS PENALTY: 29908.1
L1D PREFETCH  ACCESS: 12545175  HIT: 6900486  MISS: 5644689  HIT %: 55.0051  MISS %: 44.9949  AVERAGE MISS PENALTY: 129.371
L1D WRITEBACK ACCESS:     0  HIT:     0  MISS:     0  HIT %:     0  MISS %:     0  AVERAGE MISS PENALTY: 0

L1I TOTAL     ACCESS: 47718754  HIT: 47718752  MISS:     2  HIT %:   100  MISS %: 4.19122e-06  AVERAGE MISS PENALTY: 883.5
L1I LOAD      ACCESS: 47718754  HIT: 47718752  MISS:     2  HIT %:   100  MISS %: 4.19122e-06  AVERAGE MISS PENALTY: 883.5
L1I RFO       ACCESS:     0  HIT:     0  MISS:     0  HIT %:     0  MISS %:     0  AVERAGE MISS PENALTY: 0
L1I PREFETCH  ACCESS:     0  HIT:     0  MISS:     0  HIT %:     0  MISS %:     0  AVERAGE MISS PENALTY: 0
L1I WRITEBACK ACCESS:     0  HIT:     0  MISS:     0  HIT %:     0  MISS %:     0  AVERAGE MISS PENALTY: 0

L2C TOTAL     ACCESS: 15819751  HIT: 6066142  MISS: 9753609  HIT %: 38.3454  MISS %: 61.6546  AVERAGE MISS PENALTY: 6.97446e+06
L2C LOAD      ACCESS: 2979180  HIT: 788089  MISS: 2191091  HIT %: 26.4532  MISS %: 73.5468  AVERAGE MISS PENALTY: 3.10459e+07
L2C RFO       ACCESS: 235501  HIT:  2706  MISS: 232795  HIT %: 1.14904  MISS %: 98.851  AVERAGE MISS PENALTY: 472.424
L2C PREFETCH  ACCESS: 12006966  HIT: 4789057  MISS: 7217909  HIT %: 39.8857  MISS %: 60.1143  AVERAGE MISS PENALTY: 220.645
L2C WRITEBACK ACCESS: 598104  HIT: 486290  MISS: 111814  HIT %: 81.3053  MISS %: 18.6947  AVERAGE MISS PENALTY: 0


LLC0 TOTAL     ACCESS: 1273471  HIT: 676774  MISS: 596697  HIT %: 53.144  MISS %: 46.856  AVERAGE MISS PENALTY: 354.044
LLC0 LOAD      ACCESS: 293301  HIT: 171690  MISS: 121611  HIT %: 58.5371  MISS %: 41.4629  AVERAGE MISS PENALTY: 333.203
LLC0 RFO       ACCESS: 29106  HIT:  2066  MISS: 27040  HIT %: 7.09819  MISS %: 92.9018  AVERAGE MISS PENALTY: 465.838
LLC0 PREFETCH  ACCESS: 876525  HIT: 431101  MISS: 445424  HIT %: 49.183  MISS %: 50.817  AVERAGE MISS PENALTY: 355.032
LLC0 WRITEBACK ACCESS: 74539  HIT: 71917  MISS:  2622  HIT %: 96.4824  MISS %: 3.51762  AVERAGE MISS PENALTY: 0

LLC1 TOTAL     ACCESS: 1291709  HIT: 686374  MISS: 605335  HIT %: 53.1369  MISS %: 46.8631  AVERAGE MISS PENALTY: 357.792
LLC1 LOAD      ACCESS: 268975  HIT: 181762  MISS: 87213  HIT %: 67.5758  MISS %: 32.4242  AVERAGE MISS PENALTY: 370.053
LLC1 RFO       ACCESS: 29097  HIT:  2037  MISS: 27060  HIT %: 7.00072  MISS %: 92.9993  AVERAGE MISS PENALTY: 458.419
LLC1 PREFETCH  ACCESS: 919029  HIT: 430652  MISS: 488377  HIT %: 46.8595  MISS %: 53.1405  AVERAGE MISS PENALTY: 351.994
LLC1 WRITEBACK ACCESS: 74608  HIT: 71923  MISS:  2685  HIT %: 96.4012  MISS %: 3.59881  AVERAGE MISS PENALTY: 0

LLC2 TOTAL     ACCESS: 1292594  HIT: 681460  MISS: 611134  HIT %: 52.7203  MISS %: 47.2797  AVERAGE MISS PENALTY: 358.324
LLC2 LOAD      ACCESS: 258331  HIT: 173746  MISS: 84585  HIT %: 67.2571  MISS %: 32.7429  AVERAGE MISS PENALTY: 368.45
LLC2 RFO       ACCESS: 29093  HIT:  2023  MISS: 27070  HIT %: 6.95356  MISS %: 93.0464  AVERAGE MISS PENALTY: 467.976
LLC2 PREFETCH  ACCESS: 930627  HIT: 433873  MISS: 496754  HIT %: 46.6216  MISS %: 53.3784  AVERAGE MISS PENALTY: 352.59
LLC2 WRITEBACK ACCESS: 74543  HIT: 71818  MISS:  2725  HIT %: 96.3444  MISS %: 3.65561  AVERAGE MISS PENALTY: 0

LLC3 TOTAL     ACCESS: 1288177  HIT: 677382  MISS: 610795  HIT %: 52.5845  MISS %: 47.4155  AVERAGE MISS PENALTY: 358.534
LLC3 LOAD      ACCESS: 253983  HIT: 170370  MISS: 83613  HIT %: 67.0793  MISS %: 32.9207  AVERAGE MISS PENALTY: 373.926
LLC3 RFO       ACCESS: 29106  HIT:  1983  MISS: 27123  HIT %: 6.81303  MISS %: 93.187  AVERAGE MISS PENALTY: 457.734
[...]
LLC1 AVERAGE MISS LATENCY: 359.004 cycles
LLC2 TOTAL     ACCESS: 1240738  HIT: 629446  MISS: 611292  HIT %: 50.7316  MISS %: 49.2684  AVERAGE MISS PENALTY: 359.249
LLC2 LOAD      ACCESS: 245680  HIT: 160507  MISS: 85173  HIT %: 65.3317  MISS %: 34.6683  AVERAGE MISS PENALTY: 373.322
LLC2 RFO       ACCESS: 28971  HIT:  1922  MISS: 27049  HIT %: 6.63422  MISS %: 93.3658  AVERAGE MISS PENALTY: 406.583
LLC2 PREFETCH  ACCESS: 891648  HIT: 396112  MISS: 495536  HIT %: 44.4247  MISS %: 55.5753  AVERAGE MISS PENALTY: 356.808
LLC2 WRITEBACK ACCESS: 74439  HIT: 70905  MISS:  3534  HIT %: 95.2525  MISS %: 4.74751  AVERAGE MISS PENALTY: 0
LLC2 PREFETCH  REQUESTED:     0  ISSUED:     0  USEFUL: 105464  USELESS: 3869653
 USEFUL LOAD PREFETCHES:     105464 PREFETCH ISSUED TO LOWER LEVEL:   18217932  ACCURACY: 0.578902
 TIMELY PREFETCHES:     105464 LATE PREFETCHES: 0 DROPPED PREFETCHES: 0
LLC2 AVERAGE MISS LATENCY: 359.249 cycles
LLC3 TOTAL     ACCESS: 1234252  HIT: 623394  MISS: 610858  HIT %: 50.5078  MISS %: 49.4922  AVERAGE MISS PENALTY: 358.62
LLC3 LOAD      ACCESS: 241432  HIT: 157191  MISS: 84241  HIT %: 65.1078  MISS %: 34.8922  AVERAGE MISS PENALTY: 376.995
LLC3 RFO       ACCESS: 28971  HIT:  1889  MISS: 27082  HIT %: 6.52031  MISS %: 93.4797  AVERAGE MISS PENALTY: 411.687
LLC3 PREFETCH  ACCESS: 889438  HIT: 393441  MISS: 495997  HIT %: 44.2348  MISS %: 55.7652  AVERAGE MISS PENALTY: 355.16
LLC3 WRITEBACK ACCESS: 74411  HIT: 70873  MISS:  3538  HIT %: 95.2453  MISS %: 4.75467  AVERAGE MISS PENALTY: 0
LLC3 PREFETCH  REQUESTED:     0  ISSUED:     0  USEFUL: 105797  USELESS: 3873067
 USEFUL LOAD PREFETCHES:     105797 PREFETCH ISSUED TO LOWER LEVEL:   18378167  ACCURACY: 0.575667
 TIMELY PREFETCHES:     105797 LATE PREFETCHES: 0 DROPPED PREFETCHES: 0
LLC3 AVERAGE MISS LATENCY: 358.62 cycles
LLC4 TOTAL     ACCESS: 1229396  HIT: 618632  MISS: 610764  HIT %: 50.32  MISS %: 49.68  AVERAGE MISS PENALTY: 351.361
LLC4 LOAD      ACCESS: 239342  HIT: 155843  MISS: 83499  HIT %: 65.1131  MISS %: 34.8869  AVERAGE MISS PENALTY: 368.309
LLC4 RFO       ACCESS: 28969  HIT:  1945  MISS: 27024  HIT %: 6.71407  MISS %: 93.2859  AVERAGE MISS PENALTY: 413.1
LLC4 PREFETCH  ACCESS: 886794  HIT: 390130  MISS: 496664  HIT %: 43.9933  MISS %: 56.0067  AVERAGE MISS PENALTY: 347.682
LLC4 WRITEBACK ACCESS: 74291  HIT: 70714  MISS:  3577  HIT %: 95.1852  MISS %: 4.81485  AVERAGE MISS PENALTY: 0
LLC4 PREFETCH  REQUESTED:     0  ISSUED:     0  USEFUL: 104542  USELESS: 3879372
 USEFUL LOAD PREFETCHES:     104542 PREFETCH ISSUED TO LOWER LEVEL:   21140900  ACCURACY: 0.494501
 TIMELY PREFETCHES:     104542 LATE PREFETCHES: 0 DROPPED PREFETCHES: 0
LLC4 AVERAGE MISS LATENCY: 351.361 cycles
LLC5 TOTAL     ACCESS: 1224383  HIT: 615679  MISS: 608704  HIT %: 50.2848  MISS %: 49.7152  AVERAGE MISS PENALTY: 346.536
LLC5 LOAD      ACCESS: 238635  HIT: 155522  MISS: 83113  HIT %: 65.1715  MISS %: 34.8285  AVERAGE MISS PENALTY: 363.085
LLC5 RFO       ACCESS: 28973  HIT:  1877  MISS: 27096  HIT %: 6.47845  MISS %: 93.5216  AVERAGE MISS PENALTY: 402.15
LLC5 PREFETCH  ACCESS: 882491  HIT: 387632  MISS: 494859  HIT %: 43.9248  MISS %: 56.0752  AVERAGE MISS PENALTY: 343.258
LLC5 WRITEBACK ACCESS: 74284  HIT: 70648  MISS:  3636  HIT %: 95.1053  MISS %: 4.89473  AVERAGE MISS PENALTY: 0
LLC5 PREFETCH  REQUESTED:     0  ISSUED:     0  USEFUL: 105058  USELESS: 3865536
 USEFUL LOAD PREFETCHES:     105058 PREFETCH ISSUED TO LOWER LEVEL:   21357134  ACCURACY: 0.491911
 TIMELY PREFETCHES:     105058 LATE PREFETCHES: 0 DROPPED PREFETCHES: 0
LLC5 AVERAGE MISS LATENCY: 346.536 cycles
LLC6 TOTAL     ACCESS: 1217852  HIT: 609966  MISS: 607886  HIT %: 50.0854  MISS %: 49.9146  AVERAGE MISS PENALTY: 351.457
LLC6 LOAD      ACCESS: 245570  HIT: 161371  MISS: 84199  HIT %: 65.7128  MISS %: 34.2872  AVERAGE MISS PENALTY: 366.518
LLC6 RFO       ACCESS: 28955  HIT:  1849  MISS: 27106  HIT %: 6.38577  MISS %: 93.6142  AVERAGE MISS PENALTY: 414.235
LLC6 PREFETCH  ACCESS: 869274  HIT: 376232  MISS: 493042  HIT %: 43.2812  MISS %: 56.7188  AVERAGE MISS PENALTY: 347.956
LLC6 WRITEBACK ACCESS: 74053  HIT: 70514  MISS:  3539  HIT %: 95.221  MISS %: 4.77901  AVERAGE MISS PENALTY: 0
LLC6 PREFETCH  REQUESTED:     0  ISSUED:     0  USEFUL: 103224  USELESS: 3849300
 USEFUL LOAD PREFETCHES:     103224 PREFETCH ISSUED TO LOWER LEVEL:   25539345  ACCURACY: 0.404176
 TIMELY PREFETCHES:     103224 LATE PREFETCHES: 0 DROPPED PREFETCHES: 0
LLC6 AVERAGE MISS LATENCY: 351.457 cycles
LLC7 TOTAL     ACCESS: 1209273  HIT: 602757  MISS: 606516  HIT %: 49.8446  MISS %: 50.1554  AVERAGE MISS PENALTY: 346.419
LLC7 LOAD      ACCESS: 244507  HIT: 160219  MISS: 84288  HIT %: 65.5274  MISS %: 34.4726  AVERAGE MISS PENALTY: 362.26
LLC7 RFO       ACCESS: 28972  HIT:  1906  MISS: 27066  HIT %: 6.57877  MISS %: 93.4212  AVERAGE MISS PENALTY: 408.448
LLC7 PREFETCH  ACCESS: 861314  HIT: 369767  MISS: 491547  HIT %: 42.9306  MISS %: 57.0694  AVERAGE MISS PENALTY: 342.835
LLC7 WRITEBACK ACCESS: 74480  HIT: 70865  MISS:  3615  HIT %: 95.1463  MISS %: 4.85365  AVERAGE MISS PENALTY: 0
LLC7 PREFETCH  REQUESTED:     0  ISSUED:     0  USEFUL: 102862  USELESS: 3840713
 USEFUL LOAD PREFETCHES:     102862 PREFETCH ISSUED TO LOWER LEVEL:   25437139  ACCURACY: 0.404377
 TIMELY PREFETCHES:     102862 LATE PREFETCHES: 0 DROPPED PREFETCHES: 0
LLC7 AVERAGE MISS LATENCY: 346.419 cycles
ROI Average ROB Stall Cycles:	8.14769
ROI Total ROB Stalls Cycles:	596929938
ROI TOTAL ROB counter      :	73263667
ROI Average Load ROB Stall Cycles:	21.6887
ROI Total Load ROB Stalls Cycle  :	195058254
ROI Total Load ROB stalls Counter:	8993556
Major fault: 0 Minor fault: 27222

CPU 7 cumulative IPC: 0.267699 instructions: 200000001 cycles: 747108238
ITLB TOTAL     ACCESS: 30045105  HIT: 30045105  MISS:     0  HIT %:   100  MISS %:     0  AVERAGE MISS PENALTY: 0
ITLB LOAD      ACCESS: 30045105  HIT: 30045105  MISS:     0  HIT %:   100  MISS %:     0  AVERAGE MISS PENALTY: 0
ITLB RFO       ACCESS:     0  HIT:     0  MISS:     0  HIT %:     0  MISS %:     0  AVERAGE MISS PENALTY: 0
ITLB PREFETCH  ACCESS:     0  HIT:     0  MISS:     0  HIT %:     0  MISS %:     0  AVERAGE MISS PENALTY: 0
ITLB WRITEBACK ACCESS:     0  HIT:     0  MISS:     0  HIT %:     0  MISS %:     0  AVERAGE MISS PENALTY: 0
ITLB PREFETCH  REQUESTED:     0  ISSUED:     0  USEFUL:     0  USELESS:     0
 USEFUL LOAD PREFETCHES:          0 PREFETCH ISSUED TO LOWER LEVEL:          0  ACCURACY: -nan
 TIMELY PREFETCHES:          0 LATE PREFETCHES: 0 DROPPED PREFETCHES: 0
ITLB AVERAGE MISS LATENCY: -nan cycles
DTLB TOTAL     ACCESS: 39394391  HIT: 39133770  MISS: 260621  HIT %: 99.3384  MISS %: 0.661569  AVERAGE MISS PENALTY: 74.7258
DTLB LOAD      ACCESS: 33283127  HIT: 33030454  MISS: 252673  HIT %: 99.2408  MISS %: 0.759162  AVERAGE MISS PENALTY: 75.5094
DTLB RFO       ACCESS: 6111264  HIT: 6103316  MISS:  7948  HIT %: 99.8699  MISS %: 0.130055  AVERAGE MISS PENALTY: 49.8158
DTLB PREFETCH  ACCESS:     0  HIT:     0  MISS:     0  HIT %:     0  MISS %:     0  AVERAGE MISS PENALTY: 0
DTLB WRITEBACK ACCESS:     0  HIT:     0  MISS:     0  HIT %:     0  MISS %:     0  AVERAGE MISS PENALTY: 0
DTLB PREFETCH  REQUESTED:     0  ISSUED:     0  USEFUL:     0  USELESS:     0
 USEFUL LOAD PREFETCHES:          0 PREFETCH ISSUED TO LOWER LEVEL:          0  ACCURACY: -nan
 TIMELY PREFETCHES:          0 LATE PREFETCHES: 0 DROPPED PREFETCHES: 0
DTLB AVERAGE MISS LATENCY: 74.7258 cycles
STLB TOTAL     ACCESS: 260621  HIT: 95635  MISS: 164986  HIT %: 36.695  MISS %: 63.305  AVERAGE MISS PENALTY: 100
STLB LOAD      ACCESS: 252673  HIT: 90859  MISS: 161814  HIT %: 35.9591  MISS %: 64.0409  AVERAGE MISS PENALTY: 100
STLB RFO       ACCESS:  7948  HIT:  4776  MISS:  3172  HIT %: 60.0906  MISS %: 39.9094  AVERAGE MISS PENALTY: 100
STLB PREFETCH  ACCESS:     0  HIT:     0  MISS:     0  HIT %:     0  MISS %:     0  AVERAGE MISS PENALTY: 0
STLB WRITEBACK ACCESS:     0  HIT:     0  MISS:     0  HIT %:     0  MISS %:     0  AVERAGE MISS PENALTY: 0
STLB PREFETCH  REQUESTED:     0  ISSUED:     0  USEFUL:     0  USELESS:     0
 USEFUL LOAD PREFETCHES:          0 PREFETCH ISSUED TO LOWER LEVEL:          0  ACCURACY: -nan
 TIMELY PREFETCHES:          0 LATE PREFETCHES: 0 DROPPED PREFETCHES: 0
STLB AVERAGE MISS LATENCY: 100 cycles
L1D TOTAL     ACCESS: 49325112  HIT: 40520332  MISS: 8804780  HIT %: 82.1495  MISS %: 17.8505  AVERAGE MISS PENALTY: 6.75238e+06
L1D LOAD      ACCESS: 32789362  HIT: 29780464  MISS: 3008898  HIT %: 90.8236  MISS %: 9.17645  AVERAGE MISS PENALTY: 1.97581e+07
L1D RFO       ACCESS: 4141025  HIT: 3905496  MISS: 235529  HIT %: 94.3123  MISS %: 5.6877  AVERAGE MISS PENALTY: 9871.45
L1D PREFETCH  ACCESS: 12394725  HIT: 6834372  MISS: 5560353  HIT %: 55.1394  MISS %: 44.8606  AVERAGE MISS PENALTY: 128.456
L1D WRITEBACK ACCESS:     0  HIT:     0  MISS:     0  HIT %:     0  MISS %:     0  AVERAGE MISS PENALTY: 0
L1D PREFETCH  REQUESTED: 16346369  ISSUED: 14121618  USEFUL: 2494328  USELESS: 3065637
 USEFUL LOAD PREFETCHES:    2494328 PREFETCH ISSUED TO LOWER LEVEL:   15846505  ACCURACY: 15.7406
 TIMELY PREFETCHES:    2494328 LATE PREFETCHES: 147766 DROPPED PREFETCHES: 2224751
L1D AVERAGE MISS LATENCY: 389.824 cycles
L1I TOTAL     ACCESS: 47687631  HIT: 47687629  MISS:     2  HIT %:   100  MISS %: 4.19396e-06  AVERAGE MISS PENALTY: 476.5
L1I LOAD      ACCESS: 47687631  HIT: 47687629  MISS:     2  HIT %:   100  MISS %: 4.19396e-06  AVERAGE MISS PENALTY: 476.5
L1I RFO       ACCESS:     0  HIT:     0  MISS:     0  HIT %:     0  MISS %:     0  AVERAGE MISS PENALTY: 0
L1I PREFETCH  ACCESS:     0  HIT:     0  MISS:     0  HIT %:     0  MISS %:     0  AVERAGE MISS PENALTY: 0
L1I WRITEBACK ACCESS:     0  HIT:     0  MISS:     0  HIT %:     0  MISS %:     0  AVERAGE MISS PENALTY: 0
L1I PREFETCH  REQUESTED:     0  ISSUED:     0  USEFUL:     0  USELESS:     0
 USEFUL LOAD PREFETCHES:          0 PREFETCH ISSUED TO LOWER LEVEL:          0  ACCURACY: -nan
 TIMELY PREFETCHES:          0 LATE PREFETCHES: 0 DROPPED PREFETCHES: 0
L1I AVERAGE MISS LATENCY: 476.5 cycles
L2C TOTAL     ACCESS: 15646813  HIT: 6718693  MISS: 8928120  HIT %: 42.9397  MISS %: 57.0603  AVERAGE MISS PENALTY: 7.38952e+06
L2C LOAD      ACCESS: 2999633  HIT: 1084277  MISS: 1915356  HIT %: 36.147  MISS %: 63.853  AVERAGE MISS PENALTY: 3.44442e+07
L2C RFO       ACCESS: 235525  HIT:  5052  MISS: 230473  HIT %: 2.145  MISS %: 97.855  AVERAGE MISS PENALTY: 427.102
L2C PREFETCH  ACCESS: 11813425  HIT: 5084984  MISS: 6728441  HIT %: 43.0441  MISS %: 56.9559  AVERAGE MISS PENALTY: 234.989
L2C WRITEBACK ACCESS: 598230  HIT: 544380  MISS: 53850  HIT %: 90.9984  MISS %: 9.00155  AVERAGE MISS PENALTY: 0
L2C PREFETCH  REQUESTED: 12441118  ISSUED: 12277205  USEFUL: 515416  USELESS: 6209923
 USEFUL LOAD PREFETCHES:     515416 PREFETCH ISSUED TO LOWER LEVEL:    7816808  ACCURACY: 6.59369
 TIMELY PREFETCHES:     515416 LATE PREFETCHES: 173545 DROPPED PREFETCHES: 163913
L2C AVERAGE MISS LATENCY: 227.031 cycles
LLC0 TOTAL     ACCESS: 1181940  HIT: 585675  MISS: 596265  HIT %: 49.552  MISS %: 50.448  AVERAGE MISS PENALTY: 351.976
LLC0 LOAD      ACCESS: 258882  HIT: 137029  MISS: 121853  HIT %: 52.9311  MISS %: 47.0689  AVERAGE MISS PENALTY: 333.196
LLC0 RFO       ACCESS: 28809  HIT:  1925  MISS: 26884  HIT %: 6.68194  MISS %: 93.3181  AVERAGE MISS PENALTY: 407.619
LLC0 PREFETCH  ACCESS: 820002  HIT: 378168  MISS: 441834  HIT %: 46.1179  MISS %: 53.8821  AVERAGE MISS PENALTY: 358.306
LLC0 WRITEBACK ACCESS: 74247  HIT: 68553  MISS:  5694  HIT %: 92.331  MISS %: 7.669  AVERAGE MISS PENALTY: 0
LLC0 PREFETCH  REQUESTED:     0  ISSUED:     0  USEFUL: 99345  USELESS: 3462754
 USEFUL LOAD PREFETCHES:      99345 PREFETCH ISSUED TO LOWER LEVEL:   15658571  ACCURACY: 0.634445
 TIMELY PREFETCHES:      99345 LATE PREFETCHES: 0 DROPPED PREFETCHES: 0
LLC0 AVERAGE MISS LATENCY: 351.976 cycles
Deadblocks : 932968 Deadblock percentage : 765.65

LLC1 TOTAL     ACCESS: 1198443  HIT: 593472  MISS: 604971  HIT %: 49.5203  MISS %: 50.4797  AVERAGE MISS PENALTY: 356.034
LLC1 LOAD      ACCESS: 233885  HIT: 145844  MISS: 88041  HIT %: 62.3571  MISS %: 37.6429  AVERAGE MISS PENALTY: 366.569
LLC1 RFO       ACCESS: 28818  HIT:  1928  MISS: 26890  HIT %: 6.69026  MISS %: 93.3097  AVERAGE MISS PENALTY: 412.713
LLC1 PREFETCH  ACCESS: 861420  HIT: 376951  MISS: 484469  HIT %: 43.7593  MISS %: 56.2407  AVERAGE MISS PENALTY: 355.068
LLC1 WRITEBACK ACCESS: 74320  HIT: 68749  MISS:  5571  HIT %: 92.504  MISS %: 7.49596  AVERAGE MISS PENALTY: 0
LLC1 PREFETCH  REQUESTED:     0  ISSUED:     0  USEFUL: 102339  USELESS: 3804966
 USEFUL LOAD PREFETCHES:     102339 PREFETCH ISSUED TO LOWER LEVEL:   16359646  ACCURACY: 0.625558
 TIMELY PREFETCHES:     102339 LATE PREFETCHES: 0 DROPPED PREFETCHES: 0
LLC1 AVERAGE MISS LATENCY: 356.034 cycles
LLC2 TOTAL     ACCESS: 1195516  HIT: 584877  MISS: 610639  HIT %: 48.9226  MISS %: 51.0774  AVERAGE MISS PENALTY: 356.505
LLC2 LOAD      ACCESS: 224153  HIT: 138931  MISS: 85222  HIT %: 61.9804  MISS %: 38.0196  AVERAGE MISS PENALTY: 366.546
LLC2 RFO       ACCESS: 28827  HIT:  1907  MISS: 26920  HIT %: 6.61533  MISS %: 93.3847  AVERAGE MISS PENALTY: 419.533
LLC2 PREFETCH  ACCESS: 868240  HIT: 375383  MISS: 492857  HIT %: 43.2349  MISS %: 56.7651  AVERAGE MISS PENALTY: 355.406
LLC2 WRITEBACK ACCESS: 74296  HIT: 68656  MISS:  5640  HIT %: 92.4087  MISS %: 7.59126  AVERAGE MISS PENALTY: 0
LLC2 PREFETCH  REQUESTED:     0  ISSUED:     0  USEFUL: 105464  USELESS: 3869653
 USEFUL LOAD PREFETCHES:     105464 PREFETCH ISSUED TO LOWER LEVEL:   18217932  ACCURACY: 0.578902
 TIMELY PREFETCHES:     105464 LATE PREFETCHES: 0 DROPPED PREFETCHES: 0
LLC2 AVERAGE MISS LATENCY: 356.505 cycles
LLC3 TOTAL     ACCESS: 1189524  HIT: 579053  MISS: 610471  HIT %: 48.6794  MISS %: 51.3206  AVERAGE MISS PENALTY: 357.357
LLC3 LOAD      ACCESS: 220251  HIT: 135926  MISS: 84325  HIT %: 61.7141  MISS %: 38.2859  AVERAGE MISS PENALTY: 371.512
LLC3 RFO       ACCESS: 28810  HIT:  1863  MISS: 26947  HIT %: 6.4665  MISS %: 93.5335  AVERAGE MISS PENALTY: 420.973
LLC3 PREFETCH  ACCESS: 866185  HIT: 372659  MISS: 493526  HIT %: 43.023  MISS %: 56.977  AVERAGE MISS PENALTY: 355.572
LLC3 WRITEBACK ACCESS: 74278  HIT: 68605  MISS:  5673  HIT %: 92.3625  MISS %: 7.63752  AVERAGE MISS PENALTY: 0
LLC3 PREFETCH  REQUESTED:     0  ISSUED:     0  USEFUL: 105797  USELESS: 3873067
 USEFUL LOAD PREFETCHES:     105797 PREFETCH ISSUED TO LOWER LEVEL:   18378167  ACCURACY: 0.575667
 TIMELY PREFETCHES:     105797 LATE PREFETCHES: 0 DROPPED PREFETCHES: 0
LLC3 AVERAGE MISS LATENCY: 357.356 cycles
LLC4 TOTAL     ACCESS: 1185043  HIT: 574880  MISS: 610163  HIT %: 48.5113  MISS %: 51.4887  AVERAGE MISS PENALTY: 348.68
LLC4 LOAD      ACCESS: 218948  HIT: 135197  MISS: 83751  HIT %: 61.7485  MISS %: 38.2515  AVERAGE MISS PENALTY: 362.861
LLC4 RFO       ACCESS: 28806  HIT:  1895  MISS: 26911  HIT %: 6.57849  MISS %: 93.4215  AVERAGE MISS PENALTY: 417.259
LLC4 PREFETCH  ACCESS: 863141  HIT: 369274  MISS: 493867  HIT %: 42.7826  MISS %: 57.2174  AVERAGE MISS PENALTY: 346.515
LLC4 WRITEBACK ACCESS: 74148  HIT: 68514  MISS:  5634  HIT %: 92.4017  MISS %: 7.59832  AVERAGE MISS PENALTY: 0
LLC4 PREFETCH  REQUESTED:     0  ISSUED:     0  USEFUL: 104542  USELESS: 3879372
 USEFUL LOAD PREFETCHES:     104542 PREFETCH ISSUED TO LOWER LEVEL:   21140900  ACCURACY: 0.494501
 TIMELY PREFETCHES:     104542 LATE PREFETCHES: 0 DROPPED PREFETCHES: 0
LLC4 AVERAGE MISS LATENCY: 348.679 cycles
LLC5 TOTAL     ACCESS: 1180094  HIT: 571870  MISS: 608224  HIT %: 48.4597  MISS %: 51.5403  AVERAGE MISS PENALTY: 344.696
LLC5 LOAD      ACCESS: 218042  HIT: 134704  MISS: 83338  HIT %: 61.7789  MISS %: 38.2211  AVERAGE MISS PENALTY: 356.949
LLC5 RFO       ACCESS: 28803  HIT:  1880  MISS: 26923  HIT %: 6.5271  MISS %: 93.4729  AVERAGE MISS PENALTY: 406.817
LLC5 PREFETCH  ACCESS: 859088  HIT: 366745  MISS: 492343  HIT %: 42.69  MISS %: 57.31  AVERAGE MISS PENALTY: 343.16
LLC5 WRITEBACK ACCESS: 74161  HIT: 68541  MISS:  5620  HIT %: 92.4219  MISS %: 7.57811  AVERAGE MISS PENALTY: 0
LLC5 PREFETCH  REQUESTED:     0  ISSUED:     0  USEFUL: 105058  USELESS: 3865536
 USEFUL LOAD PREFETCHES:     105058 PREFETCH ISSUED TO LOWER LEVEL:   21357134  ACCURACY: 0.491911
 TIMELY PREFETCHES:     105058 LATE PREFETCHES: 0 DROPPED PREFETCHES: 0
LLC5 AVERAGE MISS LATENCY: 344.696 cycles
LLC6 TOTAL     ACCESS: 1173452  HIT: 566292  MISS: 607160  HIT %: 48.2586  MISS %: 51.7414  AVERAGE MISS PENALTY: 349.958
LLC6 LOAD      ACCESS: 223992  HIT: 139357  MISS: 84635  HIT %: 62.2152  MISS %: 37.7848  AVERAGE MISS PENALTY: 361.701
LLC6 RFO       ACCESS: 28798  HIT:  1900  MISS: 26898  HIT %: 6.59768  MISS %: 93.4023  AVERAGE MISS PENALTY: 419.515
LLC6 PREFETCH  ACCESS: 846720  HIT: 356615  MISS: 490105  HIT %: 42.1172  MISS %: 57.8828  AVERAGE MISS PENALTY: 348.055
LLC6 WRITEBACK ACCESS: 73942  HIT: 68420  MISS:  5522  HIT %: 92.532  MISS %: 7.46802  AVERAGE MISS PENALTY: 0
LLC6 PREFETCH  REQUESTED:     0  ISSUED:     0  USEFUL: 103224  USELESS: 3849300
 USEFUL LOAD PREFETCHES:     103224 PREFETCH ISSUED TO LOWER LEVEL:   25539345  ACCURACY: 0.404176
 TIMELY PREFETCHES:     103224 LATE PREFETCHES: 0 DROPPED PREFETCHES: 0
LLC6 AVERAGE MISS LATENCY: 349.958 cycles
LLC7 TOTAL     ACCESS: 1163991  HIT: 557223  MISS: 606768  HIT %: 47.8718  MISS %: 52.1282  AVERAGE MISS PENALTY: 345.207
LLC7 LOAD      ACCESS: 222094  HIT: 137193  MISS: 84901  HIT %: 61.7725  MISS %: 38.2275  AVERAGE MISS PENALTY: 358.204
LLC7 RFO       ACCESS: 28802  HIT:  1892  MISS: 26910  HIT %: 6.56899  MISS %: 93.431  AVERAGE MISS PENALTY: 414.217
LLC7 PREFETCH  ACCESS: 838734  HIT: 349438  MISS: 489296  HIT %: 41.6626  MISS %: 58.3374  AVERAGE MISS PENALTY: 343.151
LLC7 WRITEBACK ACCESS: 74361  HIT: 68700  MISS:  5661  HIT %: 92.3871  MISS %: 7.61286  AVERAGE MISS PENALTY: 0
LLC7 PREFETCH  REQUESTED:     0  ISSUED:     0  USEFUL: 102862  USELESS: 3840713
 USEFUL LOAD PREFETCHES:     102862 PREFETCH ISSUED TO LOWER LEVEL:   25437139  ACCURACY: 0.404377
 TIMELY PREFETCHES:     102862 LATE PREFETCHES: 0 DROPPED PREFETCHES: 0
LLC7 AVERAGE MISS LATENCY: 345.207 cycles
ROI Average ROB Stall Cycles:	8.11295
ROI Total ROB Stalls Cycles:	594485870
ROI TOTAL ROB counter      :	73276190
ROI Average Load ROB Stall Cycles:	21.8129
ROI Total Load ROB Stalls Cycle  :	196418045
ROI Total Load ROB stalls Counter:	9004663
Major fault: 0 Minor fault: 27223








Interconnect Stats 
LINK 0 BW : 0LINK 1 BW : 0LINK 2 BW : 0LINK 3 BW : 0LINK 4 BW : 0LINK 5 BW : 0LINK 6 BW : 0LINK 7 BW : 0
DRAM Statistics
 CHANNEL 0
 RQ ROW_BUFFER_HIT: 4475671  ROW_BUFFER_MISS: 14849526
 DBUS_CONGESTED: 11860386
 WQ ROW_BUFFER_HIT: 155234  ROW_BUFFER_MISS: 2086631  FULL:     0

 CHANNEL 1
 RQ ROW_BUFFER_HIT: 4451518  ROW_BUFFER_MISS: 14917535
 DBUS_CONGESTED: 11860386
 WQ ROW_BUFFER_HIT: 153970  ROW_BUFFER_MISS: 2091089  FULL:     0

 AVG_CONGESTED_CYCLE: 5
DRAM PAGES: 2097152
Allocated PAGES: 217772
L2C destructor called
L1D destructor called
L1I destructor called
STLB destructor called
DTLB destructor called
ITLB destructor called
L2C destructor called
L1D destructor called
L1I destructor called
STLB destructor called
DTLB destructor called
ITLB destructor called
L2C destructor called
L1D destructor called
L1I destructor called
STLB destructor called
DTLB destructor called
ITLB destructor called
L2C destructor called
L1D destructor called
L1I destructor called
STLB destructor called
DTLB destructor called
ITLB destructor called
L2C destructor called
L1D destructor called
L1I destructor called
STLB destructor called
DTLB destructor called
ITLB destructor called
L2C destructor called
L1D destructor called
L1I destructor called
STLB destructor called
DTLB destructor called
ITLB destructor called
L2C destructor called
L1D destructor called
L1I destructor called
STLB destructor called
DTLB destructor called
ITLB destructor called
L2C destructor called
L1D destructor called
L1I destructor called
STLB destructor called
DTLB destructor called
ITLB destructor called
