
*** ChampSim Multicore Out-of-Order Simulator ***

Warmup Instructions: 200000000
Simulation Instructions: 200000000
Number of CPUs: 8
threads:1

L1I Configuration:
L1I_SET:64
L1I_WAY:8
L1I_RQ_SIZE:64
L1I_WQ_SIZE:64
L1I_PQ_SIZE:8
L1I_MSHR_SIZE:8

L1D Configuration:
L1D_SET:64
L1D_WAY:12
L1D_RQ_SIZE:64
L1D_WQ_SIZE:64
L1D_PQ_SIZE:8
L1D_MSHR_SIZE:16

L2C Configuration:
L2C_SET:1024
L2C_WAY:8
L2C_RQ_SIZE:32
L2C_WQ_SIZE:32
L2C_PQ_SIZE:16
L2C_MSHR_SIZE:32

LLC Configuration:
LLC_SET:2048
LLC_WAY:16
LLC SLICES:8
LLC_RQ_SIZE:64
LLC_WQ_SIZE:64
LLC_PQ_SIZE:32
LLC_MSHR_SIZE:64

Interconnect OFF
Attacker deprioritize is: OFF
Off-chip DRAM Size: 8192 MB Channels: 2 Width: 64-bit Data Rate: 3200 MT/s
PAGE SIZE in KB: 4.000000 
PAGE SIZE in MB: 0.003906 
PAGE offset in bits: 12 
CEASER-S_LLC:0
MIRAGE : 1
CEASER_LATENCY:3
REMAP : OFF
Partitions : 1
Multi-Step : OFF
BFS : OFF

CPU 0 runs /home/anubhav/gap/bfs-8.trace.gz
CPU 1 runs /home/anubhav/gap/bfs-8.trace.gz
CPU 2 runs /home/anubhav/gap/bfs-8.trace.gz
CPU 3 runs /home/anubhav/gap/bfs-8.trace.gz
CPU 4 runs /home/anubhav/gap/bfs-8.trace.gz
CPU 5 runs /home/anubhav/gap/bfs-8.trace.gz
CPU 6 runs /home/anubhav/gap/bfs-8.trace.gz
CPU 7 runs /home/anubhav/gap/bfs-8.trace.gz
CPU 0 Bimodal branch predictor
Initialize Hawkeye state
Initialize Hawkeye state
Initialize Hawkeye state
Initialize Hawkeye state
Initialize Hawkeye state
Initialize Hawkeye state
Initialize Hawkeye state
Initialize Hawkeye state
CPU 1 Bimodal branch predictor
Initialize Hawkeye state
Initialize Hawkeye state
Initialize Hawkeye state
Initialize Hawkeye state
Initialize Hawkeye state
Initialize Hawkeye state
Initialize Hawkeye state
Initialize Hawkeye state
CPU 2 Bimodal branch predictor
Initialize Hawkeye state
Initialize Hawkeye state
Initialize Hawkeye state
Initialize Hawkeye state
Initialize Hawkeye state
Initialize Hawkeye state
Initialize Hawkeye state
Initialize Hawkeye state
CPU 3 Bimodal branch predictor
Initialize Hawkeye state
Initialize Hawkeye state
Initialize Hawkeye state
Initialize Hawkeye state
Initialize Hawkeye state
Initialize Hawkeye state
Initialize Hawkeye state
Initialize Hawkeye state
CPU 4 Bimodal branch predictor
Initialize Hawkeye state
Initialize Hawkeye state
Initialize Hawkeye state
Initialize Hawkeye state
Initialize Hawkeye state
Initialize Hawkeye state
Initialize Hawkeye state
Initialize Hawkeye state
CPU 5 Bimodal branch predictor
Initialize Hawkeye state
Initialize Hawkeye state
Initialize Hawkeye state
Initialize Hawkeye state
Initialize Hawkeye state
Initialize Hawkeye state
Initialize Hawkeye state
Initialize Hawkeye state
CPU 6 Bimodal branch predictor
Initialize Hawkeye state
Initialize Hawkeye state
Initialize Hawkeye state
Initialize Hawkeye state
Initialize Hawkeye state
Initialize Hawkeye state
Initialize Hawkeye state
Initialize Hawkeye state
CPU 7 Bimodal branch predictor
Initialize Hawkeye state
Initialize Hawkeye state
Initialize Hawkeye state
Initialize Hawkeye state
Initialize Hawkeye state
Initialize Hawkeye state
Initialize Hawkeye state
Initialize Hawkeye state
Heartbeat CPU 0 instructions: 10000001 cycles: 14705102 heartbeat IPC: 0.680036 cumulative IPC: 0.680036 (Simulation time: 0 hr 13 min 10 sec) 
 Total Blocks : 262144 Invalid Blocks : 707
Heartbeat CPU 1 instructions: 10000001 cycles: 14705106 heartbeat IPC: 0.680036 cumulative IPC: 0.680036 (Simulation time: 0 hr 13 min 10 sec) 
 Total Blocks : 262144 Invalid Blocks : 707
Heartbeat CPU 2 instructions: 10000001 cycles: 14705114 heartbeat IPC: 0.680036 cumulative IPC: 0.680036 (Simulation time: 0 hr 13 min 10 sec) 
 Total Blocks : 262144 Invalid Blocks : 707
Heartbeat CPU 3 instructions: 10000001 cycles: 14705117 heartbeat IPC: 0.680035 cumulative IPC: 0.680035 (Simulation time: 0 hr 13 min 10 sec) 
 Total Blocks : 262144 Invalid Blocks : 707
Heartbeat CPU 4 instructions: 10000001 cycles: 14705120 heartbeat IPC: 0.680035 cumulative IPC: 0.680035 (Simulation time: 0 hr 13 min 10 sec) 
 Total Blocks : 262144 Invalid Blocks : 707
Heartbeat CPU 5 instructions: 10000001 cycles: 14705124 heartbeat IPC: 0.680035 cumulative IPC: 0.680035 (Simulation time: 0 hr 13 min 10 sec) 
 Total Blocks : 262144 Invalid Blocks : 707
Heartbeat CPU 6 instructions: 10000001 cycles: 14705127 heartbeat IPC: 0.680035 cumulative IPC: 0.680035 (Simulation time: 0 hr 13 min 10 sec) 
 Total Blocks : 262144 Invalid Blocks : 707
Heartbeat CPU 7 instructions: 10000001 cycles: 14705130 heartbeat IPC: 0.680035 cumulative IPC: 0.680035 (Simulation time: 0 hr 13 min 10 sec) 
 Total Blocks : 262144 Invalid Blocks : 707
Heartbeat CPU 4 instructions: 20000001 cycles: 26565132 heartbeat IPC: 0.843169 cumulative IPC: 0.752867 (Simulation time: 1 hr 14 min 45 sec) 
 Total Blocks : 262144 Invalid Blocks : 0
Heartbeat CPU 5 instructions: 20000001 cycles: 26565303 heartbeat IPC: 0.843158 cumulative IPC: 0.752862 (Simulation time: 1 hr 14 min 45 sec) 
 Total Blocks : 262144 Invalid Blocks : 0
Heartbeat CPU 6 instructions: 20000001 cycles: 26565630 heartbeat IPC: 0.843135 cumulative IPC: 0.752852 (Simulation time: 1 hr 14 min 45 sec) 
 Total Blocks : 262144 Invalid Blocks : 0
Heartbeat CPU 7 instructions: 20000001 cycles: 26567534 heartbeat IPC: 0.842999 cumulative IPC: 0.752799 (Simulation time: 1 hr 14 min 46 sec) 
 Total Blocks : 262144 Invalid Blocks : 0
Heartbeat CPU 2 instructions: 20000001 cycles: 26583708 heartbeat IPC: 0.84185 cumulative IPC: 0.752341 (Simulation time: 1 hr 14 min 55 sec) 
 Total Blocks : 262144 Invalid Blocks : 0
Heartbeat CPU 1 instructions: 20000001 cycles: 26584877 heartbeat IPC: 0.841767 cumulative IPC: 0.752307 (Simulation time: 1 hr 14 min 56 sec) 
 Total Blocks : 262144 Invalid Blocks : 0
Heartbeat CPU 3 instructions: 20000001 cycles: 26584894 heartbeat IPC: 0.841767 cumulative IPC: 0.752307 (Simulation time: 1 hr 14 min 56 sec) 
 Total Blocks : 262144 Invalid Blocks : 0
Heartbeat CPU 0 instructions: 20000001 cycles: 26584971 heartbeat IPC: 0.84176 cumulative IPC: 0.752305 (Simulation time: 1 hr 14 min 56 sec) 
 Total Blocks : 262144 Invalid Blocks : 0
Heartbeat CPU 4 instructions: 30000002 cycles: 39469750 heartbeat IPC: 0.774916 cumulative IPC: 0.760076 (Simulation time: 4 hr 2 min 37 sec) 
 Total Blocks : 262144 Invalid Blocks : 0
Heartbeat CPU 5 instructions: 30000002 cycles: 39470035 heartbeat IPC: 0.77491 cumulative IPC: 0.76007 (Simulation time: 4 hr 2 min 38 sec) 
 Total Blocks : 262144 Invalid Blocks : 0
Heartbeat CPU 6 instructions: 30000002 cycles: 39470928 heartbeat IPC: 0.774876 cumulative IPC: 0.760053 (Simulation time: 4 hr 2 min 39 sec) 
 Total Blocks : 262144 Invalid Blocks : 0
Heartbeat CPU 7 instructions: 30000002 cycles: 39472346 heartbeat IPC: 0.774905 cumulative IPC: 0.760026 (Simulation time: 4 hr 2 min 40 sec) 
 Total Blocks : 262144 Invalid Blocks : 0
Heartbeat CPU 2 instructions: 30000002 cycles: 39516570 heartbeat IPC: 0.773224 cumulative IPC: 0.759175 (Simulation time: 4 hr 3 min 22 sec) 
 Total Blocks : 262144 Invalid Blocks : 0
Heartbeat CPU 1 instructions: 30000002 cycles: 39517039 heartbeat IPC: 0.773266 cumulative IPC: 0.759166 (Simulation time: 4 hr 3 min 23 sec) 
 Total Blocks : 262144 Invalid Blocks : 0
Heartbeat CPU 0 instructions: 30000002 cycles: 39517259 heartbeat IPC: 0.773258 cumulative IPC: 0.759162 (Simulation time: 4 hr 3 min 23 sec) 
 Total Blocks : 262144 Invalid Blocks : 0
Heartbeat CPU 3 instructions: 30000002 cycles: 39517310 heartbeat IPC: 0.773251 cumulative IPC: 0.759161 (Simulation time: 4 hr 3 min 23 sec) 
 Total Blocks : 262144 Invalid Blocks : 0
Heartbeat CPU 6 instructions: 40000000 cycles: 54076509 heartbeat IPC: 0.68467 cumulative IPC: 0.739693 (Simulation time: 6 hr 43 min 17 sec) 
 Total Blocks : 262144 Invalid Blocks : 0
Heartbeat CPU 7 instructions: 40000000 cycles: 54076853 heartbeat IPC: 0.68472 cumulative IPC: 0.739688 (Simulation time: 6 hr 43 min 17 sec) 
 Total Blocks : 262144 Invalid Blocks : 0
Heartbeat CPU 4 instructions: 40000000 cycles: 54079330 heartbeat IPC: 0.684482 cumulative IPC: 0.739654 (Simulation time: 6 hr 43 min 17 sec) 
 Total Blocks : 262144 Invalid Blocks : 0
Heartbeat CPU 5 instructions: 40000000 cycles: 54079410 heartbeat IPC: 0.684492 cumulative IPC: 0.739653 (Simulation time: 6 hr 43 min 17 sec) 
 Total Blocks : 262144 Invalid Blocks : 0
Heartbeat CPU 2 instructions: 40000000 cycles: 54143225 heartbeat IPC: 0.683683 cumulative IPC: 0.738781 (Simulation time: 6 hr 43 min 19 sec) 
 Total Blocks : 262144 Invalid Blocks : 0
Heartbeat CPU 0 instructions: 40000000 cycles: 54143613 heartbeat IPC: 0.683697 cumulative IPC: 0.738776 (Simulation time: 6 hr 43 min 19 sec) 
 Total Blocks : 262144 Invalid Blocks : 0
Heartbeat CPU 1 instructions: 40000000 cycles: 54143633 heartbeat IPC: 0.683686 cumulative IPC: 0.738776 (Simulation time: 6 hr 43 min 19 sec) 
 Total Blocks : 262144 Invalid Blocks : 0
Heartbeat CPU 3 instructions: 40000000 cycles: 54144029 heartbeat IPC: 0.68368 cumulative IPC: 0.73877 (Simulation time: 6 hr 43 min 19 sec) 
 Total Blocks : 262144 Invalid Blocks : 0
Heartbeat CPU 6 instructions: 50000000 cycles: 66760871 heartbeat IPC: 0.788372 cumulative IPC: 0.748942 (Simulation time: 6 hr 51 min 37 sec) 
 Total Blocks : 262144 Invalid Blocks : 0
Heartbeat CPU 7 instructions: 50000000 cycles: 66761234 heartbeat IPC: 0.788371 cumulative IPC: 0.748938 (Simulation time: 6 hr 51 min 37 sec) 
 Total Blocks : 262144 Invalid Blocks : 0
Heartbeat CPU 4 instructions: 50000000 cycles: 66769914 heartbeat IPC: 0.787986 cumulative IPC: 0.74884 (Simulation time: 6 hr 51 min 38 sec) 
 Total Blocks : 262144 Invalid Blocks : 0
Heartbeat CPU 5 instructions: 50000000 cycles: 66769984 heartbeat IPC: 0.787986 cumulative IPC: 0.748839 (Simulation time: 6 hr 51 min 38 sec) 
 Total Blocks : 262144 Invalid Blocks : 0
Heartbeat CPU 2 instructions: 50000000 cycles: 66833775 heartbeat IPC: 0.787988 cumulative IPC: 0.748125 (Simulation time: 6 hr 51 min 44 sec) 
 Total Blocks : 262144 Invalid Blocks : 0
Heartbeat CPU 0 instructions: 50000000 cycles: 66834146 heartbeat IPC: 0.787989 cumulative IPC: 0.748121 (Simulation time: 6 hr 51 min 45 sec) 
 Total Blocks : 262144 Invalid Blocks : 0
Heartbeat CPU 1 instructions: 50000000 cycles: 66834147 heartbeat IPC: 0.78799 cumulative IPC: 0.748121 (Simulation time: 6 hr 51 min 45 sec) 
 Total Blocks : 262144 Invalid Blocks : 0
Heartbeat CPU 3 instructions: 50000000 cycles: 66834606 heartbeat IPC: 0.787986 cumulative IPC: 0.748115 (Simulation time: 6 hr 51 min 45 sec) 
 Total Blocks : 262144 Invalid Blocks : 0
Heartbeat CPU 6 instructions: 60000001 cycles: 70782030 heartbeat IPC: 2.48685 cumulative IPC: 0.847673 (Simulation time: 7 hr 1 min 29 sec) 
 Total Blocks : 262144 Invalid Blocks : 0
Heartbeat CPU 7 instructions: 60000001 cycles: 70782671 heartbeat IPC: 2.48667 cumulative IPC: 0.847665 (Simulation time: 7 hr 1 min 30 sec) 
 Total Blocks : 262144 Invalid Blocks : 0
Heartbeat CPU 4 instructions: 60000001 cycles: 70789921 heartbeat IPC: 2.48756 cumulative IPC: 0.847578 (Simulation time: 7 hr 1 min 31 sec) 
 Total Blocks : 262144 Invalid Blocks : 0
Heartbeat CPU 5 instructions: 60000001 cycles: 70790457 heartbeat IPC: 2.48727 cumulative IPC: 0.847572 (Simulation time: 7 hr 1 min 31 sec) 
 Total Blocks : 262144 Invalid Blocks : 0
Heartbeat CPU 0 instructions: 60000001 cycles: 70852579 heartbeat IPC: 2.48853 cumulative IPC: 0.846829 (Simulation time: 7 hr 1 min 47 sec) 
 Total Blocks : 262144 Invalid Blocks : 0
Heartbeat CPU 1 instructions: 60000001 cycles: 70852993 heartbeat IPC: 2.48828 cumulative IPC: 0.846824 (Simulation time: 7 hr 1 min 47 sec) 
 Total Blocks : 262144 Invalid Blocks : 0
Heartbeat CPU 2 instructions: 60000001 cycles: 70853187 heartbeat IPC: 2.48793 cumulative IPC: 0.846821 (Simulation time: 7 hr 1 min 47 sec) 
 Total Blocks : 262144 Invalid Blocks : 0
Heartbeat CPU 3 instructions: 60000001 cycles: 70854580 heartbeat IPC: 2.48758 cumulative IPC: 0.846805 (Simulation time: 7 hr 1 min 48 sec) 
 Total Blocks : 262144 Invalid Blocks : 0
Heartbeat CPU 6 instructions: 70000000 cycles: 80385618 heartbeat IPC: 1.04128 cumulative IPC: 0.870803 (Simulation time: 7 hr 14 min 2 sec) 
 Total Blocks : 262144 Invalid Blocks : 0
Heartbeat CPU 7 instructions: 70000000 cycles: 80386318 heartbeat IPC: 1.04127 cumulative IPC: 0.870795 (Simulation time: 7 hr 14 min 2 sec) 
 Total Blocks : 262144 Invalid Blocks : 0
Heartbeat CPU 4 instructions: 70000000 cycles: 80393546 heartbeat IPC: 1.04127 cumulative IPC: 0.870717 (Simulation time: 7 hr 14 min 2 sec) 
 Total Blocks : 262144 Invalid Blocks : 0
Heartbeat CPU 5 instructions: 70000000 cycles: 80394064 heartbeat IPC: 1.04128 cumulative IPC: 0.870711 (Simulation time: 7 hr 14 min 2 sec) 
 Total Blocks : 262144 Invalid Blocks : 0
Heartbeat CPU 0 instructions: 70000000 cycles: 80456155 heartbeat IPC: 1.04128 cumulative IPC: 0.870039 (Simulation time: 7 hr 14 min 4 sec) 
 Total Blocks : 262144 Invalid Blocks : 0
Heartbeat CPU 1 instructions: 70000000 cycles: 80456581 heartbeat IPC: 1.04128 cumulative IPC: 0.870034 (Simulation time: 7 hr 14 min 4 sec) 
 Total Blocks : 262144 Invalid Blocks : 0
Heartbeat CPU 2 instructions: 70000000 cycles: 80456799 heartbeat IPC: 1.04127 cumulative IPC: 0.870032 (Simulation time: 7 hr 14 min 4 sec) 
 Total Blocks : 262144 Invalid Blocks : 0
Heartbeat CPU 3 instructions: 70000000 cycles: 80458185 heartbeat IPC: 1.04128 cumulative IPC: 0.870017 (Simulation time: 7 hr 14 min 4 sec) 
 Total Blocks : 262144 Invalid Blocks : 0
Heartbeat CPU 6 instructions: 80000001 cycles: 93748408 heartbeat IPC: 0.748347 cumulative IPC: 0.853348 (Simulation time: 7 hr 25 min 35 sec) 
 Total Blocks : 262144 Invalid Blocks : 0
Heartbeat CPU 7 instructions: 80000001 cycles: 93750590 heartbeat IPC: 0.748264 cumulative IPC: 0.853328 (Simulation time: 7 hr 25 min 35 sec) 
 Total Blocks : 262144 Invalid Blocks : 0
Heartbeat CPU 4 instructions: 80000001 cycles: 93755965 heartbeat IPC: 0.748368 cumulative IPC: 0.853279 (Simulation time: 7 hr 25 min 35 sec) 
 Total Blocks : 262144 Invalid Blocks : 0
Heartbeat CPU 5 instructions: 80000001 cycles: 93756280 heartbeat IPC: 0.748379 cumulative IPC: 0.853276 (Simulation time: 7 hr 25 min 35 sec) 
 Total Blocks : 262144 Invalid Blocks : 0
Heartbeat CPU 2 instructions: 80000001 cycles: 93830373 heartbeat IPC: 0.747743 cumulative IPC: 0.852602 (Simulation time: 7 hr 25 min 38 sec) 
 Total Blocks : 262144 Invalid Blocks : 0
Heartbeat CPU 0 instructions: 80000001 cycles: 93830486 heartbeat IPC: 0.747701 cumulative IPC: 0.852601 (Simulation time: 7 hr 25 min 38 sec) 
 Total Blocks : 262144 Invalid Blocks : 0
Heartbeat CPU 1 instructions: 80000001 cycles: 93830868 heartbeat IPC: 0.747703 cumulative IPC: 0.852598 (Simulation time: 7 hr 25 min 38 sec) 
 Total Blocks : 262144 Invalid Blocks : 0
Heartbeat CPU 3 instructions: 80000001 cycles: 93832376 heartbeat IPC: 0.747709 cumulative IPC: 0.852584 (Simulation time: 7 hr 25 min 38 sec) 
 Total Blocks : 262144 Invalid Blocks : 0
Heartbeat CPU 6 instructions: 90000001 cycles: 108013874 heartbeat IPC: 0.700994 cumulative IPC: 0.833226 (Simulation time: 7 hr 37 min 3 sec) 
 Total Blocks : 262144 Invalid Blocks : 0
Heartbeat CPU 7 instructions: 90000001 cycles: 108016750 heartbeat IPC: 0.700959 cumulative IPC: 0.833204 (Simulation time: 7 hr 37 min 3 sec) 
 Total Blocks : 262144 Invalid Blocks : 0
Heartbeat CPU 4 instructions: 90000001 cycles: 108020733 heartbeat IPC: 0.701028 cumulative IPC: 0.833173 (Simulation time: 7 hr 37 min 3 sec) 
 Total Blocks : 262144 Invalid Blocks : 0
Heartbeat CPU 5 instructions: 90000001 cycles: 108021156 heartbeat IPC: 0.701023 cumulative IPC: 0.83317 (Simulation time: 7 hr 37 min 3 sec) 
 Total Blocks : 262144 Invalid Blocks : 0
Heartbeat CPU 2 instructions: 90000001 cycles: 108126901 heartbeat IPC: 0.699471 cumulative IPC: 0.832355 (Simulation time: 7 hr 37 min 8 sec) 
 Total Blocks : 262144 Invalid Blocks : 0
Heartbeat CPU 1 instructions: 90000001 cycles: 108127712 heartbeat IPC: 0.699455 cumulative IPC: 0.832349 (Simulation time: 7 hr 37 min 8 sec) 
 Total Blocks : 262144 Invalid Blocks : 0
Heartbeat CPU 0 instructions: 90000001 cycles: 108127782 heartbeat IPC: 0.699433 cumulative IPC: 0.832349 (Simulation time: 7 hr 37 min 8 sec) 
 Total Blocks : 262144 Invalid Blocks : 0
Heartbeat CPU 3 instructions: 90000001 cycles: 108128995 heartbeat IPC: 0.699466 cumulative IPC: 0.832339 (Simulation time: 7 hr 37 min 8 sec) 
 Total Blocks : 262144 Invalid Blocks : 0
Heartbeat CPU 6 instructions: 100000000 cycles: 122309703 heartbeat IPC: 0.699505 cumulative IPC: 0.817597 (Simulation time: 7 hr 48 min 16 sec) 
 Total Blocks : 262144 Invalid Blocks : 0
Heartbeat CPU 7 instructions: 100000000 cycles: 122311493 heartbeat IPC: 0.699558 cumulative IPC: 0.817585 (Simulation time: 7 hr 48 min 16 sec) 
 Total Blocks : 262144 Invalid Blocks : 0
Heartbeat CPU 4 instructions: 100000000 cycles: 122316412 heartbeat IPC: 0.699512 cumulative IPC: 0.817552 (Simulation time: 7 hr 48 min 16 sec) 
 Total Blocks : 262144 Invalid Blocks : 0
Heartbeat CPU 5 instructions: 100000000 cycles: 122316986 heartbeat IPC: 0.699505 cumulative IPC: 0.817548 (Simulation time: 7 hr 48 min 16 sec) 
 Total Blocks : 262144 Invalid Blocks : 0
Heartbeat CPU 0 instructions: 100000000 cycles: 122454599 heartbeat IPC: 0.697992 cumulative IPC: 0.816629 (Simulation time: 7 hr 48 min 23 sec) 
 Total Blocks : 262144 Invalid Blocks : 0
Heartbeat CPU 2 instructions: 100000000 cycles: 122454696 heartbeat IPC: 0.697944 cumulative IPC: 0.816629 (Simulation time: 7 hr 48 min 23 sec) 
 Total Blocks : 262144 Invalid Blocks : 0
Heartbeat CPU 1 instructions: 100000000 cycles: 122454743 heartbeat IPC: 0.697981 cumulative IPC: 0.816628 (Simulation time: 7 hr 48 min 23 sec) 
 Total Blocks : 262144 Invalid Blocks : 0
Heartbeat CPU 3 instructions: 100000000 cycles: 122455727 heartbeat IPC: 0.697996 cumulative IPC: 0.816622 (Simulation time: 7 hr 48 min 23 sec) 
 Total Blocks : 262144 Invalid Blocks : 0
Heartbeat CPU 6 instructions: 110000000 cycles: 139672267 heartbeat IPC: 0.575952 cumulative IPC: 0.787558 (Simulation time: 7 hr 57 min 59 sec) 
 Total Blocks : 262144 Invalid Blocks : 0
Heartbeat CPU 7 instructions: 110000000 cycles: 139673906 heartbeat IPC: 0.575957 cumulative IPC: 0.787549 (Simulation time: 7 hr 57 min 59 sec) 
 Total Blocks : 262144 Invalid Blocks : 0
Heartbeat CPU 4 instructions: 110000000 cycles: 139692982 heartbeat IPC: 0.575488 cumulative IPC: 0.787441 (Simulation time: 7 hr 58 min 0 sec) 
 Total Blocks : 262144 Invalid Blocks : 0
Heartbeat CPU 5 instructions: 110000000 cycles: 139693708 heartbeat IPC: 0.575483 cumulative IPC: 0.787437 (Simulation time: 7 hr 58 min 0 sec) 
 Total Blocks : 262144 Invalid Blocks : 0
Heartbeat CPU 0 instructions: 110000000 cycles: 139835902 heartbeat IPC: 0.575331 cumulative IPC: 0.786636 (Simulation time: 7 hr 58 min 5 sec) 
 Total Blocks : 262144 Invalid Blocks : 0
Heartbeat CPU 1 instructions: 110000000 cycles: 139836098 heartbeat IPC: 0.575329 cumulative IPC: 0.786635 (Simulation time: 7 hr 58 min 5 sec) 
 Total Blocks : 262144 Invalid Blocks : 0
Heartbeat CPU 2 instructions: 110000000 cycles: 139836120 heartbeat IPC: 0.575327 cumulative IPC: 0.786635 (Simulation time: 7 hr 58 min 5 sec) 
 Total Blocks : 262144 Invalid Blocks : 0
Heartbeat CPU 3 instructions: 110000000 cycles: 139837297 heartbeat IPC: 0.575322 cumulative IPC: 0.786628 (Simulation time: 7 hr 58 min 5 sec) 
 Total Blocks : 262144 Invalid Blocks : 0
Heartbeat CPU 6 instructions: 120000001 cycles: 156648829 heartbeat IPC: 0.589047 cumulative IPC: 0.766045 (Simulation time: 8 hr 6 min 59 sec) 
 Total Blocks : 262144 Invalid Blocks : 0
Heartbeat CPU 7 instructions: 120000001 cycles: 156650364 heartbeat IPC: 0.589051 cumulative IPC: 0.766037 (Simulation time: 8 hr 6 min 59 sec) 
 Total Blocks : 262144 Invalid Blocks : 0
Heartbeat CPU 4 instructions: 120000001 cycles: 156673448 heartbeat IPC: 0.588912 cumulative IPC: 0.765924 (Simulation time: 8 hr 7 min 0 sec) 
 Total Blocks : 262144 Invalid Blocks : 0
Heartbeat CPU 5 instructions: 120000001 cycles: 156674219 heartbeat IPC: 0.58891 cumulative IPC: 0.765921 (Simulation time: 8 hr 7 min 0 sec) 
 Total Blocks : 262144 Invalid Blocks : 0
Heartbeat CPU 0 instructions: 120000001 cycles: 156816745 heartbeat IPC: 0.588899 cumulative IPC: 0.765224 (Simulation time: 8 hr 7 min 4 sec) 
 Total Blocks : 262144 Invalid Blocks : 0
Heartbeat CPU 1 instructions: 120000001 cycles: 156816947 heartbeat IPC: 0.588899 cumulative IPC: 0.765223 (Simulation time: 8 hr 7 min 4 sec) 
 Total Blocks : 262144 Invalid Blocks : 0
Heartbeat CPU 2 instructions: 120000001 cycles: 156816957 heartbeat IPC: 0.588899 cumulative IPC: 0.765223 (Simulation time: 8 hr 7 min 4 sec) 
 Total Blocks : 262144 Invalid Blocks : 0
Heartbeat CPU 3 instructions: 120000001 cycles: 156818085 heartbeat IPC: 0.588901 cumulative IPC: 0.765218 (Simulation time: 8 hr 7 min 4 sec) 
 Total Blocks : 262144 Invalid Blocks : 0
Heartbeat CPU 6 instructions: 130000000 cycles: 161950056 heartbeat IPC: 1.88636 cumulative IPC: 0.802717 (Simulation time: 8 hr 15 min 35 sec) 
 Total Blocks : 262144 Invalid Blocks : 0
Heartbeat CPU 7 instructions: 130000000 cycles: 161951580 heartbeat IPC: 1.88636 cumulative IPC: 0.802709 (Simulation time: 8 hr 15 min 36 sec) 
 Total Blocks : 262144 Invalid Blocks : 0
Heartbeat CPU 4 instructions: 130000000 cycles: 161974542 heartbeat IPC: 1.8864 cumulative IPC: 0.802595 (Simulation time: 8 hr 15 min 40 sec) 
 Total Blocks : 262144 Invalid Blocks : 0
Heartbeat CPU 5 instructions: 130000000 cycles: 161975326 heartbeat IPC: 1.8864 cumulative IPC: 0.802591 (Simulation time: 8 hr 15 min 40 sec) 
 Total Blocks : 262144 Invalid Blocks : 0
Heartbeat CPU 0 instructions: 130000000 cycles: 162117912 heartbeat IPC: 1.88638 cumulative IPC: 0.801885 (Simulation time: 8 hr 16 min 5 sec) 
 Total Blocks : 262144 Invalid Blocks : 0
Heartbeat CPU 1 instructions: 130000000 cycles: 162118125 heartbeat IPC: 1.88637 cumulative IPC: 0.801884 (Simulation time: 8 hr 16 min 5 sec) 
 Total Blocks : 262144 Invalid Blocks : 0
Heartbeat CPU 2 instructions: 130000000 cycles: 162118130 heartbeat IPC: 1.88637 cumulative IPC: 0.801884 (Simulation time: 8 hr 16 min 5 sec) 
 Total Blocks : 262144 Invalid Blocks : 0
Heartbeat CPU 3 instructions: 130000000 cycles: 162119268 heartbeat IPC: 1.88637 cumulative IPC: 0.801879 (Simulation time: 8 hr 16 min 6 sec) 
 Total Blocks : 262144 Invalid Blocks : 0
Heartbeat CPU 6 instructions: 140000000 cycles: 167437587 heartbeat IPC: 1.82231 cumulative IPC: 0.836132 (Simulation time: 8 hr 28 min 41 sec) 
 Total Blocks : 262144 Invalid Blocks : 0
Heartbeat CPU 7 instructions: 140000000 cycles: 167438725 heartbeat IPC: 1.82244 cumulative IPC: 0.836127 (Simulation time: 8 hr 28 min 41 sec) 
 Total Blocks : 262144 Invalid Blocks : 0
Heartbeat CPU 4 instructions: 140000000 cycles: 167462209 heartbeat IPC: 1.82227 cumulative IPC: 0.83601 (Simulation time: 8 hr 28 min 42 sec) 
 Total Blocks : 262144 Invalid Blocks : 0
Heartbeat CPU 5 instructions: 140000000 cycles: 167463022 heartbeat IPC: 1.82226 cumulative IPC: 0.836005 (Simulation time: 8 hr 28 min 42 sec) 
 Total Blocks : 262144 Invalid Blocks : 0
Heartbeat CPU 0 instructions: 140000000 cycles: 167605590 heartbeat IPC: 1.82226 cumulative IPC: 0.835294 (Simulation time: 8 hr 28 min 47 sec) 
 Total Blocks : 262144 Invalid Blocks : 0
Heartbeat CPU 1 instructions: 140000000 cycles: 167605767 heartbeat IPC: 1.82228 cumulative IPC: 0.835293 (Simulation time: 8 hr 28 min 47 sec) 
 Total Blocks : 262144 Invalid Blocks : 0
Heartbeat CPU 2 instructions: 140000000 cycles: 167605794 heartbeat IPC: 1.82227 cumulative IPC: 0.835293 (Simulation time: 8 hr 28 min 47 sec) 
 Total Blocks : 262144 Invalid Blocks : 0
Heartbeat CPU 3 instructions: 140000000 cycles: 167606914 heartbeat IPC: 1.82227 cumulative IPC: 0.835288 (Simulation time: 8 hr 28 min 47 sec) 
 Total Blocks : 262144 Invalid Blocks : 0
Heartbeat CPU 6 instructions: 150000000 cycles: 181840731 heartbeat IPC: 0.694293 cumulative IPC: 0.824898 (Simulation time: 8 hr 37 min 52 sec) 
 Total Blocks : 262144 Invalid Blocks : 0
Heartbeat CPU 7 instructions: 150000000 cycles: 181843152 heartbeat IPC: 0.694231 cumulative IPC: 0.824887 (Simulation time: 8 hr 37 min 52 sec) 
 Total Blocks : 262144 Invalid Blocks : 0
Heartbeat CPU 4 instructions: 150000000 cycles: 181864686 heartbeat IPC: 0.694325 cumulative IPC: 0.824789 (Simulation time: 8 hr 37 min 53 sec) 
 Total Blocks : 262144 Invalid Blocks : 0
Heartbeat CPU 5 instructions: 150000000 cycles: 181865457 heartbeat IPC: 0.694327 cumulative IPC: 0.824786 (Simulation time: 8 hr 37 min 53 sec) 
 Total Blocks : 262144 Invalid Blocks : 0
Heartbeat CPU 0 instructions: 150000000 cycles: 182010334 heartbeat IPC: 0.694216 cumulative IPC: 0.824129 (Simulation time: 8 hr 37 min 59 sec) 
 Total Blocks : 262144 Invalid Blocks : 0
Heartbeat CPU 1 instructions: 150000000 cycles: 182010596 heartbeat IPC: 0.694212 cumulative IPC: 0.824128 (Simulation time: 8 hr 37 min 59 sec) 
 Total Blocks : 262144 Invalid Blocks : 0
Heartbeat CPU 2 instructions: 150000000 cycles: 182010744 heartbeat IPC: 0.694206 cumulative IPC: 0.824127 (Simulation time: 8 hr 37 min 59 sec) 
 Total Blocks : 262144 Invalid Blocks : 0
Heartbeat CPU 3 instructions: 150000000 cycles: 182011931 heartbeat IPC: 0.694203 cumulative IPC: 0.824122 (Simulation time: 8 hr 37 min 59 sec) 
 Total Blocks : 262144 Invalid Blocks : 0
Heartbeat CPU 6 instructions: 160000000 cycles: 196510946 heartbeat IPC: 0.681653 cumulative IPC: 0.814204 (Simulation time: 8 hr 49 min 15 sec) 
 Total Blocks : 262144 Invalid Blocks : 0
Heartbeat CPU 7 instructions: 160000000 cycles: 196514012 heartbeat IPC: 0.681623 cumulative IPC: 0.814191 (Simulation time: 8 hr 49 min 15 sec) 
 Total Blocks : 262144 Invalid Blocks : 0
Heartbeat CPU 4 instructions: 160000000 cycles: 196534166 heartbeat IPC: 0.681687 cumulative IPC: 0.814108 (Simulation time: 8 hr 49 min 16 sec) 
 Total Blocks : 262144 Invalid Blocks : 0
Heartbeat CPU 5 instructions: 160000000 cycles: 196535197 heartbeat IPC: 0.681675 cumulative IPC: 0.814104 (Simulation time: 8 hr 49 min 16 sec) 
 Total Blocks : 262144 Invalid Blocks : 0
Heartbeat CPU 2 instructions: 160000000 cycles: 196708574 heartbeat IPC: 0.680373 cumulative IPC: 0.813386 (Simulation time: 8 hr 49 min 25 sec) 
 Total Blocks : 262144 Invalid Blocks : 0
Heartbeat CPU 1 instructions: 160000000 cycles: 196709973 heartbeat IPC: 0.680301 cumulative IPC: 0.81338 (Simulation time: 8 hr 49 min 25 sec) 
 Total Blocks : 262144 Invalid Blocks : 0
Heartbeat CPU 0 instructions: 160000000 cycles: 196710003 heartbeat IPC: 0.680287 cumulative IPC: 0.81338 (Simulation time: 8 hr 49 min 25 sec) 
 Total Blocks : 262144 Invalid Blocks : 0
Heartbeat CPU 3 instructions: 160000000 cycles: 196710828 heartbeat IPC: 0.680323 cumulative IPC: 0.813377 (Simulation time: 8 hr 49 min 25 sec) 
 Total Blocks : 262144 Invalid Blocks : 0
Heartbeat CPU 6 instructions: 170000001 cycles: 211185367 heartbeat IPC: 0.681458 cumulative IPC: 0.80498 (Simulation time: 9 hr 1 min 16 sec) 
 Total Blocks : 262144 Invalid Blocks : 0
Heartbeat CPU 7 instructions: 170000001 cycles: 211188256 heartbeat IPC: 0.681466 cumulative IPC: 0.804969 (Simulation time: 9 hr 1 min 17 sec) 
 Total Blocks : 262144 Invalid Blocks : 0
Heartbeat CPU 4 instructions: 170000001 cycles: 211207869 heartbeat IPC: 0.681491 cumulative IPC: 0.804894 (Simulation time: 9 hr 1 min 17 sec) 
 Total Blocks : 262144 Invalid Blocks : 0
Heartbeat CPU 5 instructions: 170000001 cycles: 211209308 heartbeat IPC: 0.681472 cumulative IPC: 0.804889 (Simulation time: 9 hr 1 min 17 sec) 
 Total Blocks : 262144 Invalid Blocks : 0
Heartbeat CPU 2 instructions: 170000001 cycles: 211411339 heartbeat IPC: 0.680144 cumulative IPC: 0.80412 (Simulation time: 9 hr 1 min 26 sec) 
 Total Blocks : 262144 Invalid Blocks : 0
Heartbeat CPU 1 instructions: 170000001 cycles: 211412042 heartbeat IPC: 0.680176 cumulative IPC: 0.804117 (Simulation time: 9 hr 1 min 27 sec) 
 Total Blocks : 262144 Invalid Blocks : 0
Heartbeat CPU 0 instructions: 170000001 cycles: 211412529 heartbeat IPC: 0.680155 cumulative IPC: 0.804115 (Simulation time: 9 hr 1 min 27 sec) 
 Total Blocks : 262144 Invalid Blocks : 0
Heartbeat CPU 3 instructions: 170000001 cycles: 211412630 heartbeat IPC: 0.680189 cumulative IPC: 0.804115 (Simulation time: 9 hr 1 min 27 sec) 
 Total Blocks : 262144 Invalid Blocks : 0
Heartbeat CPU 6 instructions: 180000002 cycles: 226043550 heartbeat IPC: 0.67303 cumulative IPC: 0.796307 (Simulation time: 9 hr 13 min 2 sec) 
 Total Blocks : 262144 Invalid Blocks : 0
Heartbeat CPU 7 instructions: 180000002 cycles: 226045602 heartbeat IPC: 0.673068 cumulative IPC: 0.7963 (Simulation time: 9 hr 13 min 2 sec) 
 Total Blocks : 262144 Invalid Blocks : 0
Heartbeat CPU 4 instructions: 180000002 cycles: 226067512 heartbeat IPC: 0.672964 cumulative IPC: 0.796222 (Simulation time: 9 hr 13 min 2 sec) 
 Total Blocks : 262144 Invalid Blocks : 0
Heartbeat CPU 5 instructions: 180000002 cycles: 226069093 heartbeat IPC: 0.672957 cumulative IPC: 0.796217 (Simulation time: 9 hr 13 min 2 sec) 
 Total Blocks : 262144 Invalid Blocks : 0
Heartbeat CPU 1 instructions: 180000002 cycles: 226298219 heartbeat IPC: 0.671764 cumulative IPC: 0.795411 (Simulation time: 9 hr 13 min 10 sec) 
 Total Blocks : 262144 Invalid Blocks : 0
Heartbeat CPU 2 instructions: 180000002 cycles: 226298377 heartbeat IPC: 0.671725 cumulative IPC: 0.79541 (Simulation time: 9 hr 13 min 10 sec) 
 Total Blocks : 262144 Invalid Blocks : 0
Heartbeat CPU 0 instructions: 180000002 cycles: 226298974 heartbeat IPC: 0.671752 cumulative IPC: 0.795408 (Simulation time: 9 hr 13 min 11 sec) 
 Total Blocks : 262144 Invalid Blocks : 0
Heartbeat CPU 3 instructions: 180000002 cycles: 226299030 heartbeat IPC: 0.671754 cumulative IPC: 0.795408 (Simulation time: 9 hr 13 min 11 sec) 
 Total Blocks : 262144 Invalid Blocks : 0
Heartbeat CPU 6 instructions: 190000000 cycles: 244220288 heartbeat IPC: 0.550154 cumulative IPC: 0.777986 (Simulation time: 9 hr 23 min 19 sec) 
 Total Blocks : 262144 Invalid Blocks : 0
Heartbeat CPU 7 instructions: 190000000 cycles: 244221845 heartbeat IPC: 0.550169 cumulative IPC: 0.777981 (Simulation time: 9 hr 23 min 19 sec) 
 Total Blocks : 262144 Invalid Blocks : 0
Heartbeat CPU 4 instructions: 190000000 cycles: 244266750 heartbeat IPC: 0.549473 cumulative IPC: 0.777838 (Simulation time: 9 hr 23 min 20 sec) 
 Total Blocks : 262144 Invalid Blocks : 0
Heartbeat CPU 5 instructions: 190000000 cycles: 244268438 heartbeat IPC: 0.54947 cumulative IPC: 0.777833 (Simulation time: 9 hr 23 min 20 sec) 
 Total Blocks : 262144 Invalid Blocks : 0
Heartbeat CPU 1 instructions: 190000000 cycles: 244497176 heartbeat IPC: 0.549482 cumulative IPC: 0.777105 (Simulation time: 9 hr 23 min 28 sec) 
 Total Blocks : 262144 Invalid Blocks : 0
Heartbeat CPU 2 instructions: 190000000 cycles: 244497281 heartbeat IPC: 0.549484 cumulative IPC: 0.777105 (Simulation time: 9 hr 23 min 28 sec) 
 Total Blocks : 262144 Invalid Blocks : 0
Heartbeat CPU 0 instructions: 190000000 cycles: 244497788 heartbeat IPC: 0.549486 cumulative IPC: 0.777103 (Simulation time: 9 hr 23 min 28 sec) 
 Total Blocks : 262144 Invalid Blocks : 0
Heartbeat CPU 3 instructions: 190000000 cycles: 244498024 heartbeat IPC: 0.549481 cumulative IPC: 0.777102 (Simulation time: 9 hr 23 min 28 sec) 
 Total Blocks : 262144 Invalid Blocks : 0
Heartbeat CPU 6 instructions: 200000000 cycles: 261296933 heartbeat IPC: 0.585595 cumulative IPC: 0.765413 (Simulation time: 9 hr 32 min 20 sec) 
 Total Blocks : 262144 Invalid Blocks : 0
Heartbeat CPU 7 instructions: 200000000 cycles: 261298385 heartbeat IPC: 0.585599 cumulative IPC: 0.765408 (Simulation time: 9 hr 32 min 20 sec) 
 Total Blocks : 262144 Invalid Blocks : 0
Heartbeat CPU 4 instructions: 200000000 cycles: 261349153 heartbeat IPC: 0.585398 cumulative IPC: 0.76526 (Simulation time: 9 hr 32 min 21 sec) 
 Total Blocks : 262144 Invalid Blocks : 0
Heartbeat CPU 5 instructions: 200000000 cycles: 261350843 heartbeat IPC: 0.585398 cumulative IPC: 0.765255 (Simulation time: 9 hr 32 min 21 sec) 
 Total Blocks : 262144 Invalid Blocks : 0
Heartbeat CPU 1 instructions: 200000000 cycles: 261580269 heartbeat IPC: 0.585374 cumulative IPC: 0.764584 (Simulation time: 9 hr 32 min 29 sec) 
 Total Blocks : 262144 Invalid Blocks : 0
Heartbeat CPU 2 instructions: 200000000 cycles: 261580303 heartbeat IPC: 0.585377 cumulative IPC: 0.764584 (Simulation time: 9 hr 32 min 29 sec) 
 Total Blocks : 262144 Invalid Blocks : 0
Heartbeat CPU 0 instructions: 200000000 cycles: 261580637 heartbeat IPC: 0.585382 cumulative IPC: 0.764583 (Simulation time: 9 hr 32 min 29 sec) 
 Total Blocks : 262144 Invalid Blocks : 0
Heartbeat CPU 3 instructions: 200000000 cycles: 261581077 heartbeat IPC: 0.585375 cumulative IPC: 0.764581 (Simulation time: 9 hr 32 min 29 sec) 
 Total Blocks : 262144 Invalid Blocks : 0

Warmup complete CPU 0 instructions: 200000267 cycles: 261581078 (Simulation time: 9 hr 32 min 29 sec) 
Warmup complete CPU 1 instructions: 200000505 cycles: 261581078 (Simulation time: 9 hr 32 min 29 sec) 
Warmup complete CPU 2 instructions: 200000492 cycles: 261581078 (Simulation time: 9 hr 32 min 29 sec) 
Warmup complete CPU 3 instructions: 200000003 cycles: 261581078 (Simulation time: 9 hr 32 min 29 sec) 
Warmup complete CPU 4 instructions: 200138895 cycles: 261581077 (Simulation time: 9 hr 32 min 29 sec) 
Warmup complete CPU 5 instructions: 200137803 cycles: 261581077 (Simulation time: 9 hr 32 min 29 sec) 
Warmup complete CPU 6 instructions: 200170577 cycles: 261581077 (Simulation time: 9 hr 32 min 29 sec) 
Warmup complete CPU 7 instructions: 200169772 cycles: 261581077 (Simulation time: 9 hr 32 min 29 sec) 

Heartbeat CPU 6 instructions: 210000002 cycles: 271521692 heartbeat IPC: 0.978018 cumulative IPC: 0.988815 (Simulation time: 9 hr 48 min 57 sec) 
 Total Blocks : 262144 Invalid Blocks : 0
Heartbeat CPU 7 instructions: 210000002 cycles: 271521794 heartbeat IPC: 0.978148 cumulative IPC: 0.988885 (Simulation time: 9 hr 48 min 57 sec) 
 Total Blocks : 262144 Invalid Blocks : 0
Heartbeat CPU 4 instructions: 210000002 cycles: 271618743 heartbeat IPC: 0.973749 cumulative IPC: 0.98241 (Simulation time: 9 hr 49 min 16 sec) 
 Total Blocks : 262144 Invalid Blocks : 0
Heartbeat CPU 5 instructions: 210000002 cycles: 271626193 heartbeat IPC: 0.973203 cumulative IPC: 0.98179 (Simulation time: 9 hr 49 min 17 sec) 
 Total Blocks : 262144 Invalid Blocks : 0
Heartbeat CPU 2 instructions: 210000002 cycles: 272094748 heartbeat IPC: 0.951073 cumulative IPC: 0.951096 (Simulation time: 9 hr 50 min 38 sec) 
 Total Blocks : 262144 Invalid Blocks : 0
Heartbeat CPU 0 instructions: 210000002 cycles: 272094850 heartbeat IPC: 0.951094 cumulative IPC: 0.951108 (Simulation time: 9 hr 50 min 38 sec) 
 Total Blocks : 262144 Invalid Blocks : 0
Heartbeat CPU 3 instructions: 210000002 cycles: 272094952 heartbeat IPC: 0.951124 cumulative IPC: 0.951124 (Simulation time: 9 hr 50 min 38 sec) 
 Total Blocks : 262144 Invalid Blocks : 0
Heartbeat CPU 1 instructions: 210000002 cycles: 272096653 heartbeat IPC: 0.950897 cumulative IPC: 0.950922 (Simulation time: 9 hr 50 min 38 sec) 
 Total Blocks : 262144 Invalid Blocks : 0
Heartbeat CPU 6 instructions: 220000000 cycles: 283557676 heartbeat IPC: 0.830842 cumulative IPC: 0.902297 (Simulation time: 10 hr 11 min 31 sec) 
 Total Blocks : 262144 Invalid Blocks : 0
Heartbeat CPU 7 instructions: 220000000 cycles: 283559677 heartbeat IPC: 0.830711 cumulative IPC: 0.902252 (Simulation time: 10 hr 11 min 31 sec) 
 Total Blocks : 262144 Invalid Blocks : 0
Heartbeat CPU 4 instructions: 220000000 cycles: 283680936 heartbeat IPC: 0.829036 cumulative IPC: 0.898698 (Simulation time: 10 hr 11 min 35 sec) 
 Total Blocks : 262144 Invalid Blocks : 0
Heartbeat CPU 5 instructions: 220000000 cycles: 283698862 heartbeat IPC: 0.828317 cumulative IPC: 0.898019 (Simulation time: 10 hr 11 min 36 sec) 
 Total Blocks : 262144 Invalid Blocks : 0
Heartbeat CPU 0 instructions: 220000000 cycles: 284052202 heartbeat IPC: 0.836305 cumulative IPC: 0.890019 (Simulation time: 10 hr 11 min 50 sec) 
 Total Blocks : 262144 Invalid Blocks : 0
Heartbeat CPU 3 instructions: 220000000 cycles: 284063214 heartbeat IPC: 0.835543 cumulative IPC: 0.889595 (Simulation time: 10 hr 11 min 50 sec) 
 Total Blocks : 262144 Invalid Blocks : 0
Heartbeat CPU 1 instructions: 220000000 cycles: 284064560 heartbeat IPC: 0.835568 cumulative IPC: 0.889519 (Simulation time: 10 hr 11 min 50 sec) 
 Total Blocks : 262144 Invalid Blocks : 0
Heartbeat CPU 2 instructions: 220000000 cycles: 284137239 heartbeat IPC: 0.830393 cumulative IPC: 0.886654 (Simulation time: 10 hr 11 min 53 sec) 
 Total Blocks : 262144 Invalid Blocks : 0
Heartbeat CPU 6 instructions: 230000003 cycles: 331721148 heartbeat IPC: 0.207626 cumulative IPC: 0.425284 (Simulation time: 10 hr 56 min 42 sec) 
 Total Blocks : 262144 Invalid Blocks : 0
Heartbeat CPU 5 instructions: 230000003 cycles: 331759030 heartbeat IPC: 0.208073 cumulative IPC: 0.425521 (Simulation time: 10 hr 56 min 43 sec) 
 Total Blocks : 262144 Invalid Blocks : 0
Heartbeat CPU 7 instructions: 230000003 cycles: 331780198 heartbeat IPC: 0.207381 cumulative IPC: 0.424937 (Simulation time: 10 hr 56 min 44 sec) 
 Total Blocks : 262144 Invalid Blocks : 0
Heartbeat CPU 4 instructions: 230000003 cycles: 331909086 heartbeat IPC: 0.207348 cumulative IPC: 0.424598 (Simulation time: 10 hr 56 min 47 sec) 
 Total Blocks : 262144 Invalid Blocks : 0
Heartbeat CPU 1 instructions: 230000003 cycles: 332067916 heartbeat IPC: 0.208319 cumulative IPC: 0.425604 (Simulation time: 10 hr 56 min 52 sec) 
 Total Blocks : 262144 Invalid Blocks : 0
Heartbeat CPU 0 instructions: 230000003 cycles: 332146171 heartbeat IPC: 0.207926 cumulative IPC: 0.425136 (Simulation time: 10 hr 56 min 54 sec) 
 Total Blocks : 262144 Invalid Blocks : 0
Heartbeat CPU 3 instructions: 230000003 cycles: 332287359 heartbeat IPC: 0.207365 cumulative IPC: 0.42429 (Simulation time: 10 hr 56 min 58 sec) 
 Total Blocks : 262144 Invalid Blocks : 0
Heartbeat CPU 2 instructions: 230000003 cycles: 332367632 heartbeat IPC: 0.207338 cumulative IPC: 0.423802 (Simulation time: 10 hr 57 min 0 sec) 
 Total Blocks : 262144 Invalid Blocks : 0
Heartbeat CPU 7 instructions: 240000000 cycles: 387612851 heartbeat IPC: 0.179107 cumulative IPC: 0.316033 (Simulation time: 11 hr 25 min 9 sec) 
 Total Blocks : 262144 Invalid Blocks : 0
Heartbeat CPU 5 instructions: 240000000 cycles: 387614016 heartbeat IPC: 0.179035 cumulative IPC: 0.316284 (Simulation time: 11 hr 25 min 9 sec) 
 Total Blocks : 262144 Invalid Blocks : 0
Heartbeat CPU 6 instructions: 240000000 cycles: 387625985 heartbeat IPC: 0.178875 cumulative IPC: 0.315994 (Simulation time: 11 hr 25 min 9 sec) 
 Total Blocks : 262144 Invalid Blocks : 0
Heartbeat CPU 4 instructions: 240000000 cycles: 387648052 heartbeat IPC: 0.179408 cumulative IPC: 0.31619 (Simulation time: 11 hr 25 min 10 sec) 
 Total Blocks : 262144 Invalid Blocks : 0
Heartbeat CPU 0 instructions: 240000000 cycles: 388084659 heartbeat IPC: 0.178768 cumulative IPC: 0.316194 (Simulation time: 11 hr 25 min 23 sec) 
 Total Blocks : 262144 Invalid Blocks : 0
Heartbeat CPU 1 instructions: 240000000 cycles: 388191939 heartbeat IPC: 0.178177 cumulative IPC: 0.315925 (Simulation time: 11 hr 25 min 26 sec) 
 Total Blocks : 262144 Invalid Blocks : 0
Heartbeat CPU 2 instructions: 240000000 cycles: 388403186 heartbeat IPC: 0.178458 cumulative IPC: 0.315399 (Simulation time: 11 hr 25 min 32 sec) 
 Total Blocks : 262144 Invalid Blocks : 0
Heartbeat CPU 3 instructions: 240000000 cycles: 388441994 heartbeat IPC: 0.17808 cumulative IPC: 0.315306 (Simulation time: 11 hr 25 min 33 sec) 
 Total Blocks : 262144 Invalid Blocks : 0
Heartbeat CPU 4 instructions: 250000001 cycles: 439484192 heartbeat IPC: 0.192916 cumulative IPC: 0.280271 (Simulation time: 11 hr 50 min 44 sec) 
 Total Blocks : 262144 Invalid Blocks : 0
Heartbeat CPU 7 instructions: 250000001 cycles: 439527755 heartbeat IPC: 0.192623 cumulative IPC: 0.280029 (Simulation time: 11 hr 50 min 46 sec) 
 Total Blocks : 262144 Invalid Blocks : 0
Heartbeat CPU 5 instructions: 250000001 cycles: 439530345 heartbeat IPC: 0.192618 cumulative IPC: 0.280205 (Simulation time: 11 hr 50 min 46 sec) 
 Total Blocks : 262144 Invalid Blocks : 0
Heartbeat CPU 6 instructions: 250000001 cycles: 439746028 heartbeat IPC: 0.191865 cumulative IPC: 0.279681 (Simulation time: 11 hr 50 min 52 sec) 
 Total Blocks : 262144 Invalid Blocks : 0
Heartbeat CPU 0 instructions: 250000001 cycles: 440667750 heartbeat IPC: 0.190175 cumulative IPC: 0.279193 (Simulation time: 11 hr 51 min 21 sec) 
 Total Blocks : 262144 Invalid Blocks : 0
Heartbeat CPU 1 instructions: 250000001 cycles: 440747005 heartbeat IPC: 0.190277 cumulative IPC: 0.279068 (Simulation time: 11 hr 51 min 23 sec) 
 Total Blocks : 262144 Invalid Blocks : 0
Heartbeat CPU 3 instructions: 250000001 cycles: 440875288 heartbeat IPC: 0.190719 cumulative IPC: 0.278871 (Simulation time: 11 hr 51 min 27 sec) 
 Total Blocks : 262144 Invalid Blocks : 0
Heartbeat CPU 2 instructions: 250000001 cycles: 440959175 heartbeat IPC: 0.190273 cumulative IPC: 0.278738 (Simulation time: 11 hr 51 min 29 sec) 
 Total Blocks : 262144 Invalid Blocks : 0
Heartbeat CPU 7 instructions: 260000002 cycles: 490970619 heartbeat IPC: 0.19439 cumulative IPC: 0.260824 (Simulation time: 12 hr 15 min 25 sec) 
 Total Blocks : 262144 Invalid Blocks : 0
Heartbeat CPU 4 instructions: 260000002 cycles: 491131679 heartbeat IPC: 0.19362 cumulative IPC: 0.260775 (Simulation time: 12 hr 15 min 30 sec) 
 Total Blocks : 262144 Invalid Blocks : 0
Heartbeat CPU 5 instructions: 260000002 cycles: 491138327 heartbeat IPC: 0.193769 cumulative IPC: 0.260772 (Simulation time: 12 hr 15 min 30 sec) 
 Total Blocks : 262144 Invalid Blocks : 0
Heartbeat CPU 6 instructions: 260000002 cycles: 491364783 heartbeat IPC: 0.193728 cumulative IPC: 0.260373 (Simulation time: 12 hr 15 min 36 sec) 
 Total Blocks : 262144 Invalid Blocks : 0
Heartbeat CPU 0 instructions: 260000002 cycles: 492751691 heartbeat IPC: 0.191998 cumulative IPC: 0.259547 (Simulation time: 12 hr 16 min 15 sec) 
 Total Blocks : 262144 Invalid Blocks : 0
Heartbeat CPU 1 instructions: 260000002 cycles: 492800962 heartbeat IPC: 0.192108 cumulative IPC: 0.259491 (Simulation time: 12 hr 16 min 16 sec) 
 Total Blocks : 262144 Invalid Blocks : 0
Heartbeat CPU 2 instructions: 260000002 cycles: 492827827 heartbeat IPC: 0.192795 cumulative IPC: 0.259461 (Simulation time: 12 hr 16 min 17 sec) 
 Total Blocks : 262144 Invalid Blocks : 0
Heartbeat CPU 3 instructions: 260000002 cycles: 492853935 heartbeat IPC: 0.192387 cumulative IPC: 0.259434 (Simulation time: 12 hr 16 min 18 sec) 
 Total Blocks : 262144 Invalid Blocks : 0
Heartbeat CPU 7 instructions: 270000002 cycles: 521151780 heartbeat IPC: 0.331333 cumulative IPC: 0.269022 (Simulation time: 12 hr 32 min 22 sec) 
 Total Blocks : 262144 Invalid Blocks : 0
Heartbeat CPU 4 instructions: 270000002 cycles: 521487796 heartbeat IPC: 0.329423 cumulative IPC: 0.268793 (Simulation time: 12 hr 33 min 0 sec) 
 Total Blocks : 262144 Invalid Blocks : 0
Heartbeat CPU 6 instructions: 270000002 cycles: 521507164 heartbeat IPC: 0.331759 cumulative IPC: 0.268651 (Simulation time: 12 hr 33 min 2 sec) 
 Total Blocks : 262144 Invalid Blocks : 0
Heartbeat CPU 5 instructions: 270000002 cycles: 521556149 heartbeat IPC: 0.328755 cumulative IPC: 0.268727 (Simulation time: 12 hr 33 min 8 sec) 
 Total Blocks : 262144 Invalid Blocks : 0
Heartbeat CPU 1 instructions: 270000002 cycles: 523053244 heartbeat IPC: 0.330554 cumulative IPC: 0.267713 (Simulation time: 12 hr 35 min 54 sec) 
 Total Blocks : 262144 Invalid Blocks : 0
Heartbeat CPU 0 instructions: 270000002 cycles: 523073044 heartbeat IPC: 0.329801 cumulative IPC: 0.267694 (Simulation time: 12 hr 35 min 57 sec) 
 Total Blocks : 262144 Invalid Blocks : 0
Heartbeat CPU 2 instructions: 270000002 cycles: 523098907 heartbeat IPC: 0.330348 cumulative IPC: 0.267666 (Simulation time: 12 hr 35 min 59 sec) 
 Total Blocks : 262144 Invalid Blocks : 0
Heartbeat CPU 3 instructions: 270000002 cycles: 523161087 heartbeat IPC: 0.329955 cumulative IPC: 0.267605 (Simulation time: 12 hr 36 min 7 sec) 
 Total Blocks : 262144 Invalid Blocks : 0
Heartbeat CPU 7 instructions: 280000002 cycles: 560792992 heartbeat IPC: 0.252263 cumulative IPC: 0.266802 (Simulation time: 13 hr 3 min 26 sec) 
 Total Blocks : 262144 Invalid Blocks : 0
Heartbeat CPU 4 instructions: 280000002 cycles: 561138087 heartbeat IPC: 0.252205 cumulative IPC: 0.266597 (Simulation time: 13 hr 4 min 1 sec) 
 Total Blocks : 262144 Invalid Blocks : 0
Heartbeat CPU 6 instructions: 280000002 cycles: 561220239 heartbeat IPC: 0.251806 cumulative IPC: 0.266419 (Simulation time: 13 hr 4 min 12 sec) 
 Total Blocks : 262144 Invalid Blocks : 0
Heartbeat CPU 5 instructions: 280000002 cycles: 561303561 heartbeat IPC: 0.251589 cumulative IPC: 0.266454 (Simulation time: 13 hr 4 min 24 sec) 
 Total Blocks : 262144 Invalid Blocks : 0
Heartbeat CPU 1 instructions: 280000002 cycles: 562449452 heartbeat IPC: 0.253832 cumulative IPC: 0.265895 (Simulation time: 13 hr 7 min 14 sec) 
 Total Blocks : 262144 Invalid Blocks : 0
Heartbeat CPU 0 instructions: 280000002 cycles: 562461380 heartbeat IPC: 0.253882 cumulative IPC: 0.265886 (Simulation time: 13 hr 7 min 16 sec) 
 Total Blocks : 262144 Invalid Blocks : 0
Heartbeat CPU 2 instructions: 280000002 cycles: 562632609 heartbeat IPC: 0.252949 cumulative IPC: 0.265734 (Simulation time: 13 hr 7 min 42 sec) 
 Total Blocks : 262144 Invalid Blocks : 0
Heartbeat CPU 3 instructions: 280000002 cycles: 562689369 heartbeat IPC: 0.252983 cumulative IPC: 0.265685 (Simulation time: 13 hr 7 min 50 sec) 
 Total Blocks : 262144 Invalid Blocks : 0
Heartbeat CPU 7 instructions: 290000000 cycles: 582217163 heartbeat IPC: 0.466762 cumulative IPC: 0.280163 (Simulation time: 13 hr 25 min 10 sec) 
 Total Blocks : 262144 Invalid Blocks : 0
Heartbeat CPU 4 instructions: 290000000 cycles: 582574321 heartbeat IPC: 0.4665 cumulative IPC: 0.279947 (Simulation time: 13 hr 25 min 19 sec) 
 Total Blocks : 262144 Invalid Blocks : 0
Heartbeat CPU 6 instructions: 290000000 cycles: 582633316 heartbeat IPC: 0.467004 cumulative IPC: 0.279797 (Simulation time: 13 hr 25 min 21 sec) 
 Total Blocks : 262144 Invalid Blocks : 0
Heartbeat CPU 5 instructions: 290000000 cycles: 582696688 heartbeat IPC: 0.46744 cumulative IPC: 0.279844 (Simulation time: 13 hr 25 min 23 sec) 
 Total Blocks : 262144 Invalid Blocks : 0
Heartbeat CPU 0 instructions: 290000000 cycles: 583835154 heartbeat IPC: 0.467863 cumulative IPC: 0.279282 (Simulation time: 13 hr 26 min 6 sec) 
 Total Blocks : 262144 Invalid Blocks : 0
Heartbeat CPU 1 instructions: 290000000 cycles: 583840782 heartbeat IPC: 0.467479 cumulative IPC: 0.279276 (Simulation time: 13 hr 26 min 7 sec) 
 Total Blocks : 262144 Invalid Blocks : 0
Heartbeat CPU 2 instructions: 290000000 cycles: 584095588 heartbeat IPC: 0.465918 cumulative IPC: 0.279056 (Simulation time: 13 hr 26 min 14 sec) 
 Total Blocks : 262144 Invalid Blocks : 0
Heartbeat CPU 3 instructions: 290000000 cycles: 584133061 heartbeat IPC: 0.466338 cumulative IPC: 0.279025 (Simulation time: 13 hr 26 min 16 sec) 
 Total Blocks : 262144 Invalid Blocks : 0
Heartbeat CPU 7 instructions: 300000002 cycles: 632273176 heartbeat IPC: 0.199776 cumulative IPC: 0.269308 (Simulation time: 13 hr 57 min 34 sec) 
 Total Blocks : 262144 Invalid Blocks : 0
Heartbeat CPU 6 instructions: 300000002 cycles: 632443655 heartbeat IPC: 0.200762 cumulative IPC: 0.269182 (Simulation time: 13 hr 57 min 38 sec) 
 Total Blocks : 262144 Invalid Blocks : 0
Heartbeat CPU 4 instructions: 300000002 cycles: 632512372 heartbeat IPC: 0.200248 cumulative IPC: 0.269217 (Simulation time: 13 hr 57 min 40 sec) 
 Total Blocks : 262144 Invalid Blocks : 0
Heartbeat CPU 5 instructions: 300000002 cycles: 632724811 heartbeat IPC: 0.199888 cumulative IPC: 0.269066 (Simulation time: 13 hr 57 min 46 sec) 
 Total Blocks : 262144 Invalid Blocks : 0
Heartbeat CPU 1 instructions: 300000002 cycles: 633776939 heartbeat IPC: 0.200256 cumulative IPC: 0.268674 (Simulation time: 13 hr 58 min 14 sec) 
 Total Blocks : 262144 Invalid Blocks : 0
Heartbeat CPU 3 instructions: 300000002 cycles: 633851843 heartbeat IPC: 0.201131 cumulative IPC: 0.268622 (Simulation time: 13 hr 58 min 16 sec) 
 Total Blocks : 262144 Invalid Blocks : 0
Heartbeat CPU 0 instructions: 300000002 cycles: 633869278 heartbeat IPC: 0.199864 cumulative IPC: 0.268608 (Simulation time: 13 hr 58 min 16 sec) 
 Total Blocks : 262144 Invalid Blocks : 0
Heartbeat CPU 2 instructions: 300000002 cycles: 633936526 heartbeat IPC: 0.200638 cumulative IPC: 0.268559 (Simulation time: 13 hr 58 min 18 sec) 
 Total Blocks : 262144 Invalid Blocks : 0
Heartbeat CPU 6 instructions: 310000001 cycles: 687381677 heartbeat IPC: 0.182023 cumulative IPC: 0.257936 (Simulation time: 14 hr 22 min 0 sec) 
 Total Blocks : 262144 Invalid Blocks : 0
Heartbeat CPU 7 instructions: 310000001 cycles: 687400588 heartbeat IPC: 0.181398 cumulative IPC: 0.257927 (Simulation time: 14 hr 22 min 0 sec) 
 Total Blocks : 262144 Invalid Blocks : 0
Heartbeat CPU 4 instructions: 310000001 cycles: 687420196 heartbeat IPC: 0.182123 cumulative IPC: 0.257987 (Simulation time: 14 hr 22 min 1 sec) 
 Total Blocks : 262144 Invalid Blocks : 0
Heartbeat CPU 5 instructions: 310000001 cycles: 687891321 heartbeat IPC: 0.181269 cumulative IPC: 0.257705 (Simulation time: 14 hr 22 min 14 sec) 
 Total Blocks : 262144 Invalid Blocks : 0
Heartbeat CPU 0 instructions: 310000001 cycles: 689922328 heartbeat IPC: 0.178402 cumulative IPC: 0.256804 (Simulation time: 14 hr 23 min 10 sec) 
 Total Blocks : 262144 Invalid Blocks : 0
Heartbeat CPU 3 instructions: 310000001 cycles: 689925547 heartbeat IPC: 0.178337 cumulative IPC: 0.256803 (Simulation time: 14 hr 23 min 10 sec) 
 Total Blocks : 262144 Invalid Blocks : 0
Heartbeat CPU 1 instructions: 310000001 cycles: 689950027 heartbeat IPC: 0.178021 cumulative IPC: 0.256787 (Simulation time: 14 hr 23 min 11 sec) 
 Total Blocks : 262144 Invalid Blocks : 0
Heartbeat CPU 2 instructions: 310000001 cycles: 690052509 heartbeat IPC: 0.178202 cumulative IPC: 0.256725 (Simulation time: 14 hr 23 min 14 sec) 
 Total Blocks : 262144 Invalid Blocks : 0
Heartbeat CPU 7 instructions: 320000002 cycles: 742494153 heartbeat IPC: 0.181509 cumulative IPC: 0.249172 (Simulation time: 14 hr 46 min 17 sec) 
 Total Blocks : 262144 Invalid Blocks : 0
Heartbeat CPU 6 instructions: 320000002 cycles: 742546534 heartbeat IPC: 0.181275 cumulative IPC: 0.249144 (Simulation time: 14 hr 46 min 18 sec) 
 Total Blocks : 262144 Invalid Blocks : 0
Heartbeat CPU 4 instructions: 320000002 cycles: 742736411 heartbeat IPC: 0.180779 cumulative IPC: 0.249111 (Simulation time: 14 hr 46 min 24 sec) 
 Total Blocks : 262144 Invalid Blocks : 0
Heartbeat CPU 5 instructions: 320000002 cycles: 743142556 heartbeat IPC: 0.180991 cumulative IPC: 0.248903 (Simulation time: 14 hr 46 min 31 sec) 
 Total Blocks : 262144 Invalid Blocks : 0
Heartbeat CPU 3 instructions: 320000002 cycles: 746110320 heartbeat IPC: 0.177984 cumulative IPC: 0.247663 (Simulation time: 14 hr 47 min 49 sec) 
 Total Blocks : 262144 Invalid Blocks : 0
Heartbeat CPU 0 instructions: 320000002 cycles: 746166484 heartbeat IPC: 0.177796 cumulative IPC: 0.247634 (Simulation time: 14 hr 47 min 50 sec) 
 Total Blocks : 262144 Invalid Blocks : 0
Heartbeat CPU 1 instructions: 320000002 cycles: 746280377 heartbeat IPC: 0.177524 cumulative IPC: 0.247575 (Simulation time: 14 hr 47 min 54 sec) 
 Total Blocks : 262144 Invalid Blocks : 0
Heartbeat CPU 2 instructions: 320000002 cycles: 746455082 heartbeat IPC: 0.177297 cumulative IPC: 0.247486 (Simulation time: 14 hr 47 min 58 sec) 
 Total Blocks : 262144 Invalid Blocks : 0
Heartbeat CPU 7 instructions: 330000000 cycles: 802113426 heartbeat IPC: 0.167731 cumulative IPC: 0.24019 (Simulation time: 15 hr 12 min 33 sec) 
 Total Blocks : 262144 Invalid Blocks : 0
Heartbeat CPU 6 instructions: 330000000 cycles: 802152158 heartbeat IPC: 0.167769 cumulative IPC: 0.240171 (Simulation time: 15 hr 12 min 34 sec) 
 Total Blocks : 262144 Invalid Blocks : 0
Heartbeat CPU 4 instructions: 330000000 cycles: 802823954 heartbeat IPC: 0.166424 cumulative IPC: 0.239931 (Simulation time: 15 hr 12 min 52 sec) 
 Total Blocks : 262144 Invalid Blocks : 0
Heartbeat CPU 5 instructions: 330000000 cycles: 803404042 heartbeat IPC: 0.165943 cumulative IPC: 0.239676 (Simulation time: 15 hr 13 min 6 sec) 
 Total Blocks : 262144 Invalid Blocks : 0
Heartbeat CPU 0 instructions: 330000000 cycles: 806642357 heartbeat IPC: 0.165355 cumulative IPC: 0.238505 (Simulation time: 15 hr 14 min 19 sec) 
 Total Blocks : 262144 Invalid Blocks : 0
Heartbeat CPU 3 instructions: 330000000 cycles: 806695413 heartbeat IPC: 0.165057 cumulative IPC: 0.238482 (Simulation time: 15 hr 14 min 20 sec) 
 Total Blocks : 262144 Invalid Blocks : 0
Heartbeat CPU 1 instructions: 330000000 cycles: 807019653 heartbeat IPC: 0.164638 cumulative IPC: 0.238339 (Simulation time: 15 hr 14 min 29 sec) 
 Total Blocks : 262144 Invalid Blocks : 0
Heartbeat CPU 2 instructions: 330000000 cycles: 807145300 heartbeat IPC: 0.164771 cumulative IPC: 0.238285 (Simulation time: 15 hr 14 min 32 sec) 
 Total Blocks : 262144 Invalid Blocks : 0
Heartbeat CPU 7 instructions: 340000000 cycles: 847952824 heartbeat IPC: 0.218153 cumulative IPC: 0.238467 (Simulation time: 15 hr 34 min 7 sec) 
 Total Blocks : 262144 Invalid Blocks : 0
Heartbeat CPU 6 instructions: 340000000 cycles: 847970177 heartbeat IPC: 0.218255 cumulative IPC: 0.238458 (Simulation time: 15 hr 34 min 8 sec) 
 Total Blocks : 262144 Invalid Blocks : 0
Heartbeat CPU 4 instructions: 340000000 cycles: 849053142 heartbeat IPC: 0.216314 cumulative IPC: 0.238073 (Simulation time: 15 hr 34 min 40 sec) 
 Total Blocks : 262144 Invalid Blocks : 0
Heartbeat CPU 5 instructions: 340000000 cycles: 849552987 heartbeat IPC: 0.21669 cumulative IPC: 0.237872 (Simulation time: 15 hr 34 min 56 sec) 
 Total Blocks : 262144 Invalid Blocks : 0
Heartbeat CPU 0 instructions: 340000000 cycles: 852821752 heartbeat IPC: 0.216547 cumulative IPC: 0.23679 (Simulation time: 15 hr 36 min 35 sec) 
 Total Blocks : 262144 Invalid Blocks : 0
Heartbeat CPU 3 instructions: 340000000 cycles: 852928980 heartbeat IPC: 0.216293 cumulative IPC: 0.236747 (Simulation time: 15 hr 36 min 39 sec) 
 Total Blocks : 262144 Invalid Blocks : 0
Heartbeat CPU 1 instructions: 340000000 cycles: 853171095 heartbeat IPC: 0.216678 cumulative IPC: 0.23665 (Simulation time: 15 hr 36 min 47 sec) 
 Total Blocks : 262144 Invalid Blocks : 0
Heartbeat CPU 2 instructions: 340000000 cycles: 853284483 heartbeat IPC: 0.216736 cumulative IPC: 0.236604 (Simulation time: 15 hr 36 min 50 sec) 
 Total Blocks : 262144 Invalid Blocks : 0
Heartbeat CPU 7 instructions: 350000000 cycles: 864221530 heartbeat IPC: 0.614677 cumulative IPC: 0.248623 (Simulation time: 15 hr 45 min 57 sec) 
 Total Blocks : 262144 Invalid Blocks : 0
Heartbeat CPU 6 instructions: 350000000 cycles: 864232060 heartbeat IPC: 0.614935 cumulative IPC: 0.248617 (Simulation time: 15 hr 45 min 58 sec) 
 Total Blocks : 262144 Invalid Blocks : 0
Heartbeat CPU 4 instructions: 350000000 cycles: 865331853 heartbeat IPC: 0.614299 cumulative IPC: 0.248217 (Simulation time: 15 hr 47 min 56 sec) 
 Total Blocks : 262144 Invalid Blocks : 0
Heartbeat CPU 5 instructions: 350000000 cycles: 865830224 heartbeat IPC: 0.614355 cumulative IPC: 0.248014 (Simulation time: 15 hr 48 min 59 sec) 
 Total Blocks : 262144 Invalid Blocks : 0
Heartbeat CPU 0 instructions: 350000000 cycles: 869103466 heartbeat IPC: 0.614186 cumulative IPC: 0.246904 (Simulation time: 15 hr 58 min 29 sec) 
 Total Blocks : 262144 Invalid Blocks : 0
Heartbeat CPU 3 instructions: 350000000 cycles: 869211927 heartbeat IPC: 0.614139 cumulative IPC: 0.24686 (Simulation time: 15 hr 58 min 47 sec) 
 Total Blocks : 262144 Invalid Blocks : 0
Heartbeat CPU 1 instructions: 350000000 cycles: 869438593 heartbeat IPC: 0.614723 cumulative IPC: 0.246768 (Simulation time: 15 hr 59 min 25 sec) 
 Total Blocks : 262144 Invalid Blocks : 0
Heartbeat CPU 2 instructions: 350000000 cycles: 869552396 heartbeat IPC: 0.614707 cumulative IPC: 0.246721 (Simulation time: 15 hr 59 min 43 sec) 
 Total Blocks : 262144 Invalid Blocks : 0
Heartbeat CPU 7 instructions: 360000002 cycles: 872430736 heartbeat IPC: 1.21814 cumulative IPC: 0.261652 (Simulation time: 16 hr 7 min 29 sec) 
 Total Blocks : 262144 Invalid Blocks : 0
Heartbeat CPU 6 instructions: 360000002 cycles: 872435872 heartbeat IPC: 1.21895 cumulative IPC: 0.261649 (Simulation time: 16 hr 7 min 30 sec) 
 Total Blocks : 262144 Invalid Blocks : 0
Heartbeat CPU 4 instructions: 360000002 cycles: 873620138 heartbeat IPC: 1.20652 cumulative IPC: 0.261194 (Simulation time: 16 hr 9 min 56 sec) 
 Total Blocks : 262144 Invalid Blocks : 0
Heartbeat CPU 5 instructions: 360000002 cycles: 874142826 heartbeat IPC: 1.20299 cumulative IPC: 0.260973 (Simulation time: 16 hr 10 min 57 sec) 
 Total Blocks : 262144 Invalid Blocks : 0
Heartbeat CPU 0 instructions: 360000002 cycles: 877695701 heartbeat IPC: 1.16384 cumulative IPC: 0.259692 (Simulation time: 16 hr 16 min 4 sec) 
 Total Blocks : 262144 Invalid Blocks : 0
Heartbeat CPU 3 instructions: 360000002 cycles: 877837276 heartbeat IPC: 1.15937 cumulative IPC: 0.259632 (Simulation time: 16 hr 16 min 16 sec) 
 Total Blocks : 262144 Invalid Blocks : 0
Heartbeat CPU 1 instructions: 360000002 cycles: 878076823 heartbeat IPC: 1.15764 cumulative IPC: 0.259531 (Simulation time: 16 hr 16 min 36 sec) 
 Total Blocks : 262144 Invalid Blocks : 0
Heartbeat CPU 2 instructions: 360000002 cycles: 878203249 heartbeat IPC: 1.15596 cumulative IPC: 0.259477 (Simulation time: 16 hr 16 min 47 sec) 
 Total Blocks : 262144 Invalid Blocks : 0
Heartbeat CPU 6 instructions: 370000000 cycles: 899469168 heartbeat IPC: 0.369914 cumulative IPC: 0.266237 (Simulation time: 16 hr 30 min 11 sec) 
 Total Blocks : 262144 Invalid Blocks : 0
Heartbeat CPU 7 instructions: 370000000 cycles: 899484282 heartbeat IPC: 0.369637 cumulative IPC: 0.266232 (Simulation time: 16 hr 30 min 12 sec) 
 Total Blocks : 262144 Invalid Blocks : 0
Heartbeat CPU 4 instructions: 370000000 cycles: 900900860 heartbeat IPC: 0.366559 cumulative IPC: 0.26569 (Simulation time: 16 hr 31 min 6 sec) 
 Total Blocks : 262144 Invalid Blocks : 0
Heartbeat CPU 5 instructions: 370000000 cycles: 901362668 heartbeat IPC: 0.367379 cumulative IPC: 0.2655 (Simulation time: 16 hr 31 min 23 sec) 
 Total Blocks : 262144 Invalid Blocks : 0
Heartbeat CPU 0 instructions: 370000000 cycles: 906429987 heartbeat IPC: 0.348016 cumulative IPC: 0.263627 (Simulation time: 16 hr 34 min 45 sec) 
 Total Blocks : 262144 Invalid Blocks : 0
Heartbeat CPU 3 instructions: 370000000 cycles: 906621185 heartbeat IPC: 0.347416 cumulative IPC: 0.26355 (Simulation time: 16 hr 34 min 53 sec) 
 Total Blocks : 262144 Invalid Blocks : 0
Heartbeat CPU 1 instructions: 370000000 cycles: 906845716 heartbeat IPC: 0.347598 cumulative IPC: 0.263457 (Simulation time: 16 hr 35 min 2 sec) 
 Total Blocks : 262144 Invalid Blocks : 0
Heartbeat CPU 2 instructions: 370000000 cycles: 907104748 heartbeat IPC: 0.346003 cumulative IPC: 0.263351 (Simulation time: 16 hr 35 min 14 sec) 
 Total Blocks : 262144 Invalid Blocks : 0
Heartbeat CPU 6 instructions: 380000001 cycles: 967703854 heartbeat IPC: 0.146553 cumulative IPC: 0.254672 (Simulation time: 17 hr 11 min 36 sec) 
 Total Blocks : 262144 Invalid Blocks : 0
Heartbeat CPU 7 instructions: 380000001 cycles: 967808659 heartbeat IPC: 0.146361 cumulative IPC: 0.254635 (Simulation time: 17 hr 11 min 39 sec) 
 Total Blocks : 262144 Invalid Blocks : 0
Heartbeat CPU 4 instructions: 380000001 cycles: 968959100 heartbeat IPC: 0.146933 cumulative IPC: 0.254264 (Simulation time: 17 hr 12 min 15 sec) 
 Total Blocks : 262144 Invalid Blocks : 0
Heartbeat CPU 5 instructions: 380000001 cycles: 969333391 heartbeat IPC: 0.147122 cumulative IPC: 0.254132 (Simulation time: 17 hr 12 min 27 sec) 
 Total Blocks : 262144 Invalid Blocks : 0
Heartbeat CPU 3 instructions: 380000001 cycles: 971753500 heartbeat IPC: 0.153534 cumulative IPC: 0.25346 (Simulation time: 17 hr 13 min 40 sec) 
 Total Blocks : 262144 Invalid Blocks : 0
Heartbeat CPU 1 instructions: 380000001 cycles: 971787151 heartbeat IPC: 0.153985 cumulative IPC: 0.253447 (Simulation time: 17 hr 13 min 41 sec) 
 Total Blocks : 262144 Invalid Blocks : 0
Heartbeat CPU 0 instructions: 380000001 cycles: 971848442 heartbeat IPC: 0.152862 cumulative IPC: 0.253425 (Simulation time: 17 hr 13 min 43 sec) 
 Total Blocks : 262144 Invalid Blocks : 0
Heartbeat CPU 2 instructions: 380000001 cycles: 972122920 heartbeat IPC: 0.153803 cumulative IPC: 0.253327 (Simulation time: 17 hr 13 min 52 sec) 
 Total Blocks : 262144 Invalid Blocks : 0
Heartbeat CPU 6 instructions: 390000000 cycles: 1019501205 heartbeat IPC: 0.19306 cumulative IPC: 0.250461 (Simulation time: 17 hr 38 min 1 sec) 
 Total Blocks : 262144 Invalid Blocks : 0
Heartbeat CPU 7 instructions: 390000000 cycles: 1019582239 heartbeat IPC: 0.193149 cumulative IPC: 0.250435 (Simulation time: 17 hr 38 min 3 sec) 
 Total Blocks : 262144 Invalid Blocks : 0
Heartbeat CPU 4 instructions: 390000000 cycles: 1020884545 heartbeat IPC: 0.192584 cumulative IPC: 0.250046 (Simulation time: 17 hr 38 min 43 sec) 
 Total Blocks : 262144 Invalid Blocks : 0
Heartbeat CPU 5 instructions: 390000000 cycles: 1021128402 heartbeat IPC: 0.193069 cumulative IPC: 0.249968 (Simulation time: 17 hr 38 min 51 sec) 
 Total Blocks : 262144 Invalid Blocks : 0
Heartbeat CPU 3 instructions: 390000000 cycles: 1023981910 heartbeat IPC: 0.191467 cumulative IPC: 0.249213 (Simulation time: 17 hr 40 min 18 sec) 
 Total Blocks : 262144 Invalid Blocks : 0
Heartbeat CPU 1 instructions: 390000000 cycles: 1023987211 heartbeat IPC: 0.191571 cumulative IPC: 0.24921 (Simulation time: 17 hr 40 min 18 sec) 
 Total Blocks : 262144 Invalid Blocks : 0
Heartbeat CPU 0 instructions: 390000000 cycles: 1024126207 heartbeat IPC: 0.191286 cumulative IPC: 0.249165 (Simulation time: 17 hr 40 min 22 sec) 
 Total Blocks : 262144 Invalid Blocks : 0
Heartbeat CPU 2 instructions: 390000000 cycles: 1024367435 heartbeat IPC: 0.191408 cumulative IPC: 0.249086 (Simulation time: 17 hr 40 min 30 sec) 
 Total Blocks : 262144 Invalid Blocks : 0
Heartbeat CPU 6 instructions: 400000000 cycles: 1070661592 heartbeat IPC: 0.195464 cumulative IPC: 0.246983 (Simulation time: 18 hr 3 min 13 sec) 
 Total Blocks : 262144 Invalid Blocks : 0
Heartbeat CPU 7 instructions: 400000000 cycles: 1070672276 heartbeat IPC: 0.195733 cumulative IPC: 0.246981 (Simulation time: 18 hr 3 min 13 sec) 
 Total Blocks : 262144 Invalid Blocks : 0
Finished CPU 6 instructions: 200000000 cycles: 809915047 cumulative IPC: 0.246939 (Simulation time: 18 hr 3 min 36 sec) 
Finished CPU 7 instructions: 200000000 cycles: 809928209 cumulative IPC: 0.246935 (Simulation time: 18 hr 3 min 37 sec) 
Heartbeat CPU 4 instructions: 400000000 cycles: 1072157629 heartbeat IPC: 0.195034 cumulative IPC: 0.246567 (Simulation time: 18 hr 3 min 55 sec) 
 Total Blocks : 262144 Invalid Blocks : 0
Heartbeat CPU 5 instructions: 400000000 cycles: 1072507969 heartbeat IPC: 0.19463 cumulative IPC: 0.246461 (Simulation time: 18 hr 4 min 5 sec) 
 Total Blocks : 262144 Invalid Blocks : 0
Finished CPU 4 instructions: 200000002 cycles: 811271800 cumulative IPC: 0.246526 (Simulation time: 18 hr 4 min 15 sec) 
Finished CPU 5 instructions: 200000000 cycles: 811613014 cumulative IPC: 0.246423 (Simulation time: 18 hr 4 min 24 sec) 
Heartbeat CPU 3 instructions: 400000000 cycles: 1075610333 heartbeat IPC: 0.193692 cumulative IPC: 0.245691 (Simulation time: 18 hr 5 min 31 sec) 
 Total Blocks : 262144 Invalid Blocks : 0
Finished CPU 3 instructions: 200000000 cycles: 814029256 cumulative IPC: 0.245691 (Simulation time: 18 hr 5 min 31 sec) 
Heartbeat CPU 1 instructions: 400000000 cycles: 1075658277 heartbeat IPC: 0.193532 cumulative IPC: 0.245676 (Simulation time: 18 hr 5 min 32 sec) 
 Total Blocks : 262144 Invalid Blocks : 0
Finished CPU 1 instructions: 200000003 cycles: 814079585 cumulative IPC: 0.245676 (Simulation time: 18 hr 5 min 32 sec) 
Heartbeat CPU 0 instructions: 400000000 cycles: 1075732675 heartbeat IPC: 0.193774 cumulative IPC: 0.245654 (Simulation time: 18 hr 5 min 34 sec) 
 Total Blocks : 262144 Invalid Blocks : 0
Finished CPU 0 instructions: 200000003 cycles: 814152526 cumulative IPC: 0.245654 (Simulation time: 18 hr 5 min 34 sec) 
Heartbeat CPU 2 instructions: 400000000 cycles: 1076056222 heartbeat IPC: 0.193466 cumulative IPC: 0.245556 (Simulation time: 18 hr 5 min 43 sec) 
 Total Blocks : 262144 Invalid Blocks : 0
Finished CPU 2 instructions: 200000000 cycles: 814477747 cumulative IPC: 0.245556 (Simulation time: 18 hr 5 min 43 sec) 

CPU 0 Branch Prediction Accuracy: 84.9663% MPKI: 31.6964 Average ROB Occupancy at Mispredict: 24.4854

CPU 1 Branch Prediction Accuracy: 84.9656% MPKI: 31.6983 Average ROB Occupancy at Mispredict: 24.4846

CPU 2 Branch Prediction Accuracy: 84.9687% MPKI: 31.6894 Average ROB Occupancy at Mispredict: 24.4882

CPU 3 Branch Prediction Accuracy: 84.9653% MPKI: 31.6993 Average ROB Occupancy at Mispredict: 24.484

CPU 4 Branch Prediction Accuracy: 84.9435% MPKI: 31.7394 Average ROB Occupancy at Mispredict: 24.4567

CPU 5 Branch Prediction Accuracy: 84.9461% MPKI: 31.7318 Average ROB Occupancy at Mispredict: 24.4598

CPU 6 Branch Prediction Accuracy: 84.933% MPKI: 31.7651 Average ROB Occupancy at Mispredict: 24.4422

CPU 7 Branch Prediction Accuracy: 84.933% MPKI: 31.7651 Average ROB Occupancy at Mispredict: 24.442

ChampSim completed all CPUs

Total Simulation Statistics (not including warmup)

CPU 0 cumulative IPC: 0.245635 instructions: 200063900 cycles: 814477747
ITLB TOTAL     ACCESS: 29966169  HIT: 29966169  MISS:     0  HIT %:   100  MISS %:     0  AVERAGE MISS PENALTY: 0
ITLB LOAD      ACCESS: 29966169  HIT: 29966169  MISS:     0  HIT %:   100  MISS %:     0  AVERAGE MISS PENALTY: 0
ITLB RFO       ACCESS:     0  HIT:     0  MISS:     0  HIT %:     0  MISS %:     0  AVERAGE MISS PENALTY: 0
ITLB PREFETCH  ACCESS:     0  HIT:     0  MISS:     0  HIT %:     0  MISS %:     0  AVERAGE MISS PENALTY: 0
ITLB WRITEBACK ACCESS:     0  HIT:     0  MISS:     0  HIT %:     0  MISS %:     0  AVERAGE MISS PENALTY: 0

DTLB TOTAL     ACCESS: 39751047  HIT: 39446655  MISS: 304392  HIT %: 99.2343  MISS %: 0.765746  AVERAGE MISS PENALTY: 71.3789
DTLB LOAD      ACCESS: 32758704  HIT: 32465476  MISS: 293228  HIT %: 99.1049  MISS %: 0.895115  AVERAGE MISS PENALTY: 72.5713
DTLB RFO       ACCESS: 6992343  HIT: 6981179  MISS: 11164  HIT %: 99.8403  MISS %: 0.15966  AVERAGE MISS PENALTY: 40.0588
DTLB PREFETCH  ACCESS:     0  HIT:     0  MISS:     0  HIT %:     0  MISS %:     0  AVERAGE MISS PENALTY: 0
DTLB WRITEBACK ACCESS:     0  HIT:     0  MISS:     0  HIT %:     0  MISS %:     0  AVERAGE MISS PENALTY: 0

STLB TOTAL     ACCESS: 304392  HIT: 121153  MISS: 183239  HIT %: 39.8016  MISS %: 60.1984  AVERAGE MISS PENALTY: 100
STLB LOAD      ACCESS: 293228  HIT: 113351  MISS: 179877  HIT %: 38.6563  MISS %: 61.3437  AVERAGE MISS PENALTY: 100
STLB RFO       ACCESS: 11164  HIT:  7802  MISS:  3362  HIT %: 69.8853  MISS %: 30.1147  AVERAGE MISS PENALTY: 100
STLB PREFETCH  ACCESS:     0  HIT:     0  MISS:     0  HIT %:     0  MISS %:     0  AVERAGE MISS PENALTY: 0
STLB WRITEBACK ACCESS:     0  HIT:     0  MISS:     0  HIT %:     0  MISS %:     0  AVERAGE MISS PENALTY: 0

L1D TOTAL     ACCESS: 46117347  HIT: 39085197  MISS: 7032150  HIT %: 84.7516  MISS %: 15.2484  AVERAGE MISS PENALTY: 1.23252e+07
L1D LOAD      ACCESS: 32272763  HIT: 29487130  MISS: 2785633  HIT %: 91.3685  MISS %: 8.63153  AVERAGE MISS PENALTY: 3.11125e+07
L1D RFO       ACCESS: 5139353  HIT: 4894191  MISS: 245162  HIT %: 95.2297  MISS %: 4.77029  AVERAGE MISS PENALTY: 16560.2
L1D PREFETCH  ACCESS: 8705231  HIT: 4703876  MISS: 4001355  HIT %: 54.0351  MISS %: 45.9649  AVERAGE MISS PENALTY: 197.828
L1D WRITEBACK ACCESS:     0  HIT:     0  MISS:     0  HIT %:     0  MISS %:     0  AVERAGE MISS PENALTY: 0

L1I TOTAL     ACCESS: 47185091  HIT: 47185091  MISS:     0  HIT %:   100  MISS %:     0  AVERAGE MISS PENALTY: 0
L1I LOAD      ACCESS: 47185091  HIT: 47185091  MISS:     0  HIT %:   100  MISS %:     0  AVERAGE MISS PENALTY: 0
L1I RFO       ACCESS:     0  HIT:     0  MISS:     0  HIT %:     0  MISS %:     0  AVERAGE MISS PENALTY: 0
L1I PREFETCH  ACCESS:     0  HIT:     0  MISS:     0  HIT %:     0  MISS %:     0  AVERAGE MISS PENALTY: 0
L1I WRITEBACK ACCESS:     0  HIT:     0  MISS:     0  HIT %:     0  MISS %:     0  AVERAGE MISS PENALTY: 0

L2C TOTAL     ACCESS: 12190450  HIT: 4426205  MISS: 7764245  HIT %: 36.3088  MISS %: 63.6912  AVERAGE MISS PENALTY: 1.23255e+07
L2C LOAD      ACCESS: 2775029  HIT: 642333  MISS: 2132696  HIT %: 23.1469  MISS %: 76.8531  AVERAGE MISS PENALTY: 4.48712e+07
L2C RFO       ACCESS: 245155  HIT:  3691  MISS: 241464  HIT %: 1.50558  MISS %: 98.4944  AVERAGE MISS PENALTY: 483.239
L2C PREFETCH  ACCESS: 8441211  HIT: 3178127  MISS: 5263084  HIT %: 37.6501  MISS %: 62.3499  AVERAGE MISS PENALTY: 333.557
L2C WRITEBACK ACCESS: 729055  HIT: 602054  MISS: 127001  HIT %: 82.5801  MISS %: 17.4199  AVERAGE MISS PENALTY: 0


LLC0 TOTAL     ACCESS: 1026832  HIT: 364287  MISS: 662545  HIT %: 35.4768  MISS %: 64.5232  AVERAGE MISS PENALTY: 379.358
LLC0 LOAD      ACCESS: 285070  HIT: 144561  MISS: 140509  HIT %: 50.7107  MISS %: 49.2893  AVERAGE MISS PENALTY: 347.037
LLC0 RFO       ACCESS: 30179  HIT:  2064  MISS: 28115  HIT %: 6.83919  MISS %: 93.1608  AVERAGE MISS PENALTY: 480.211
LLC0 PREFETCH  ACCESS: 620911  HIT: 130230  MISS: 490681  HIT %: 20.974  MISS %: 79.026  AVERAGE MISS PENALTY: 385.34
LLC0 WRITEBACK ACCESS: 90672  HIT: 87432  MISS:  3240  HIT %: 96.4267  MISS %: 3.57332  AVERAGE MISS PENALTY: 0

LLC1 TOTAL     ACCESS: 1038801  HIT: 365132  MISS: 673669  HIT %: 35.1494  MISS %: 64.8506  AVERAGE MISS PENALTY: 379.737
LLC1 LOAD      ACCESS: 247970  HIT: 140492  MISS: 107478  HIT %: 56.6569  MISS %: 43.3431  AVERAGE MISS PENALTY: 371.636
LLC1 RFO       ACCESS: 30201  HIT:  2072  MISS: 28129  HIT %: 6.8607  MISS %: 93.1393  AVERAGE MISS PENALTY: 475.913
LLC1 PREFETCH  ACCESS: 670107  HIT: 135283  MISS: 534824  HIT %: 20.1883  MISS %: 79.8117  AVERAGE MISS PENALTY: 378.606
LLC1 WRITEBACK ACCESS: 90523  HIT: 87285  MISS:  3238  HIT %: 96.423  MISS %: 3.57699  AVERAGE MISS PENALTY: 0

LLC2 TOTAL     ACCESS: 1050532  HIT: 369879  MISS: 680653  HIT %: 35.2087  MISS %: 64.7913  AVERAGE MISS PENALTY: 382.913
LLC2 LOAD      ACCESS: 244789  HIT: 140863  MISS: 103926  HIT %: 57.5447  MISS %: 42.4553  AVERAGE MISS PENALTY: 376.684
LLC2 RFO       ACCESS: 30203  HIT:  2062  MISS: 28141  HIT %: 6.82714  MISS %: 93.1729  AVERAGE MISS PENALTY: 479.114
LLC2 PREFETCH  ACCESS: 684983  HIT: 139677  MISS: 545306  HIT %: 20.3913  MISS %: 79.6087  AVERAGE MISS PENALTY: 381.439
LLC2 WRITEBACK ACCESS: 90557  HIT: 87277  MISS:  3280  HIT %: 96.378  MISS %: 3.62203  AVERAGE MISS PENALTY: 0

LLC3 TOTAL     ACCESS: 1048751  HIT: 368916  MISS: 679835  HIT %: 35.1767  MISS %: 64.8233  AVERAGE MISS PENALTY: 379.492
LLC3 LOAD      ACCESS: 245048  HIT: 141980  MISS: 103068  HIT %: 57.9397  MISS %: 42.0603  AVERAGE MISS PENALTY: 378.705
LLC3 RFO       ACCESS: 30177  HIT:  2143  MISS: 28034  HIT %: 7.10143  MISS %: 92.8986  AVERAGE MISS PENALTY: 469.145
LLC3 PREFETCH  ACCESS: 682837  HIT: 137432  MISS: 545405  HIT %: 20.1266  MISS %: 79.8734  AVERAGE MISS PENALTY: 377.348
LLC3 WRITEBACK ACCESS: 90689  HIT: 87361  MISS:  3328  HIT %: 96.3303  MISS %: 3.66968  AVERAGE MISS PENALTY: 0

LLC4 TOTAL     ACCESS: 1051580  HIT: 372736  MISS: 678844  HIT %: 35.4453  MISS %: 64.5547  AVERAGE MISS PENALTY: 373.846
LLC4 LOAD      ACCESS: 247418  HIT: 145520  MISS: 101898  HIT %: 58.8154  MISS %: 41.1846  AVERAGE MISS PENALTY: 373.312
LLC4 RFO       ACCESS: 30187  HIT:  2103  MISS: 28084  HIT %: 6.96658  MISS %: 93.0334  AVERAGE MISS PENALTY: 482.667
LLC4 PREFETCH  ACCESS: 683404  HIT: 137877  MISS: 545527  HIT %: 20.175  MISS %: 79.825  AVERAGE MISS PENALTY: 370.629
LLC4 WRITEBACK ACCESS: 90571  HIT: 87236  MISS:  3335  HIT %: 96.3178  MISS %: 3.68219  AVERAGE MISS PENALTY: 0

LLC5 TOTAL     ACCESS: 1049960  HIT: 372519  MISS: 677441  HIT %: 35.4794  MISS %: 64.5206  AVERAGE MISS PENALTY: 367.343
LLC5 LOAD      ACCESS: 246731  HIT: 144219  MISS: 102512  HIT %: 58.4519  MISS %: 41.5481  AVERAGE MISS PENALTY: 365.445
LLC5 RFO       ACCESS: 30177  HIT:  2147  MISS: 28030  HIT %: 7.11469  MISS %: 92.8853  AVERAGE MISS PENALTY: 465.652
LLC5 PREFETCH  ACCESS: 682569  HIT: 138991  MISS: 543578  HIT %: 20.3629  MISS %: 79.6371  AVERAGE MISS PENALTY: 364.876
LLC5 WRITEBACK ACCESS: 90483  HIT: 87162  MISS:  3321  HIT %: 96.3297  MISS %: 3.6703  AVERAGE MISS PENALTY: 0

LLC6 TOTAL     ACCESS: 1051057  HIT: 374021  MISS: 677036  HIT %: 35.5852  MISS %: 64.4148  AVERAGE MISS PENALTY: 374.592
LLC6 LOAD      ACCESS: 249571  HIT: 146402  MISS: 103169  HIT %: 58.6615  MISS %: 41.3385  AVERAGE MISS PENALTY: 373.058
LLC6 RFO       ACCESS: 30162  HIT:  2101  MISS: 28061  HIT %: 6.96572  MISS %: 93.0343  AVERAGE MISS PENALTY: 486.954
LLC6 PREFETCH  ACCESS: 680456  HIT: 137933  MISS: 542523  HIT %: 20.2707  MISS %: 79.7293  AVERAGE MISS PENALTY: 371.339
LLC6 WRITEBACK ACCESS: 90868  HIT: 87585  MISS:  3283  HIT %: 96.3871  MISS %: 3.61293  AVERAGE MISS PENALTY: 0

LLC7 TOTAL     ACCESS: 1044897  HIT: 369956  MISS: 674941  HIT %: 35.406  MISS %: 64.594  AVERAGE MISS PENALTY: 368.371
LLC7 LOAD      ACCESS: 244628  HIT: 142282  MISS: 102346  HIT %: 58.1626  MISS %: 41.8374  AVERAGE MISS PENALTY: 366.205
LLC7 RFO       ACCESS: 30178  HIT:  2085  MISS: 28093  HIT %: 6.90901  MISS %: 93.091  AVERAGE MISS PENALTY: 467.914
LLC7 PREFETCH  ACCESS: 679265  HIT: 137992  MISS: 541273  HIT %: 20.3149  MISS %: 79.6851  AVERAGE MISS PENALTY: 365.811
LLC7 WRITEBACK ACCESS: 90826  HIT: 87597  MISS:  3229  HIT %: 96.4449  MISS %: 3.55515  AVERAGE MISS PENALTY: 0

Total Rob stall cycles : 	657939693
Total Load Rob Stall cycles : 	221404763
Average Rob Stall cycles : 	 9
Average Load Rob Stall cycles : 	 26

CPU 1 cumulative IPC: 0.245655 instructions: 200080598 cycles: 814477747
ITLB TOTAL     ACCESS: 29969620  HIT: 29969620  MISS:     0  HIT %:   100  MISS %:     0  AVERAGE MISS PENALTY: 0
ITLB LOAD      ACCESS: 29969620  HIT: 29969620  MISS:     0  HIT %:   100  MISS %:     0  AVERAGE MISS PENALTY: 0
ITLB RFO       ACCESS:     0  HIT:     0  MISS:     0  HIT %:     0  MISS %:     0  AVERAGE MISS PENALTY: 0
ITLB PREFETCH  ACCESS:     0  HIT:     0  MISS:     0  HIT %:     0  MISS %:     0  AVERAGE MISS PENALTY: 0
ITLB WRITEBACK ACCESS:     0  HIT:     0  MISS:     0  HIT %:     0  MISS %:     0  AVERAGE MISS PENALTY: 0

DTLB TOTAL     ACCESS: 39754517  HIT: 39450115  MISS: 304402  HIT %: 99.2343  MISS %: 0.765704  AVERAGE MISS PENALTY: 71.2944
DTLB LOAD      ACCESS: 32762472  HIT: 32469218  MISS: 293254  HIT %: 99.1049  MISS %: 0.895091  AVERAGE MISS PENALTY: 72.4822
DTLB RFO       ACCESS: 6992045  HIT: 6980897  MISS: 11148  HIT %: 99.8406  MISS %: 0.159438  AVERAGE MISS PENALTY: 40.0486
DTLB PREFETCH  ACCESS:     0  HIT:     0  MISS:     0  HIT %:     0  MISS %:     0  AVERAGE MISS PENALTY: 0
DTLB WRITEBACK ACCESS:     0  HIT:     0  MISS:     0  HIT %:     0  MISS %:     0  AVERAGE MISS PENALTY: 0

STLB TOTAL     ACCESS: 304402  HIT: 121139  MISS: 183263  HIT %: 39.7957  MISS %: 60.2043  AVERAGE MISS PENALTY: 100
STLB LOAD      ACCESS: 293254  HIT: 113346  MISS: 179908  HIT %: 38.6511  MISS %: 61.3489  AVERAGE MISS PENALTY: 100
STLB RFO       ACCESS: 11148  HIT:  7793  MISS:  3355  HIT %: 69.9049  MISS %: 30.0951  AVERAGE MISS PENALTY: 100
STLB PREFETCH  ACCESS:     0  HIT:     0  MISS:     0  HIT %:     0  MISS %:     0  AVERAGE MISS PENALTY: 0
STLB WRITEBACK ACCESS:     0  HIT:     0  MISS:     0  HIT %:     0  MISS %:     0  AVERAGE MISS PENALTY: 0

L1D TOTAL     ACCESS: 46098900  HIT: 39069199  MISS: 7029701  HIT %: 84.7508  MISS %: 15.2492  AVERAGE MISS PENALTY: 1.2362e+07
L1D LOAD      ACCESS: 32273800  HIT: 29485415  MISS: 2788385  HIT %: 91.3602  MISS %: 8.63978  AVERAGE MISS PENALTY: 3.11638e+07
L1D RFO       ACCESS: 5130999  HIT: 4885832  MISS: 245167  HIT %: 95.2218  MISS %: 4.77815  AVERAGE MISS PENALTY: 15314
L1D PREFETCH  ACCESS: 8694101  HIT: 4697952  MISS: 3996149  HIT %: 54.0361  MISS %: 45.9639  AVERAGE MISS PENALTY: 197.822
L1D WRITEBACK ACCESS:     0  HIT:     0  MISS:     0  HIT %:     0  MISS %:     0  AVERAGE MISS PENALTY: 0

L1I TOTAL     ACCESS: 47190153  HIT: 47190153  MISS:     0  HIT %:   100  MISS %:     0  AVERAGE MISS PENALTY: 0
L1I LOAD      ACCESS: 47190153  HIT: 47190153  MISS:     0  HIT %:   100  MISS %:     0  AVERAGE MISS PENALTY: 0
L1I RFO       ACCESS:     0  HIT:     0  MISS:     0  HIT %:     0  MISS %:     0  AVERAGE MISS PENALTY: 0
L1I PREFETCH  ACCESS:     0  HIT:     0  MISS:     0  HIT %:     0  MISS %:     0  AVERAGE MISS PENALTY: 0
L1I WRITEBACK ACCESS:     0  HIT:     0  MISS:     0  HIT %:     0  MISS %:     0  AVERAGE MISS PENALTY: 0

L2C TOTAL     ACCESS: 12188210  HIT: 4444973  MISS: 7743237  HIT %: 36.4694  MISS %: 63.5306  AVERAGE MISS PENALTY: 1.24379e+07
L2C LOAD      ACCESS: 2777712  HIT: 648290  MISS: 2129422  HIT %: 23.339  MISS %: 76.661  AVERAGE MISS PENALTY: 4.52268e+07
L2C RFO       ACCESS: 245161  HIT:  3637  MISS: 241524  HIT %: 1.48351  MISS %: 98.5165  AVERAGE MISS PENALTY: 4259.53
L2C PREFETCH  ACCESS: 8436245  HIT: 3179514  MISS: 5256731  HIT %: 37.6887  MISS %: 62.3113  AVERAGE MISS PENALTY: 333.55
L2C WRITEBACK ACCESS: 729092  HIT: 613532  MISS: 115560  HIT %: 84.1501  MISS %: 15.8499  AVERAGE MISS PENALTY: 0


LLC0 TOTAL     ACCESS: 1025991  HIT: 362590  MISS: 663401  HIT %: 35.3405  MISS %: 64.6595  AVERAGE MISS PENALTY: 378.733
LLC0 LOAD      ACCESS: 284611  HIT: 144012  MISS: 140599  HIT %: 50.5996  MISS %: 49.4004  AVERAGE MISS PENALTY: 345.483
LLC0 RFO       ACCESS: 30204  HIT:  2165  MISS: 28039  HIT %: 7.16792  MISS %: 92.8321  AVERAGE MISS PENALTY: 489.332
LLC0 PREFETCH  ACCESS: 620411  HIT: 129527  MISS: 490884  HIT %: 20.8776  MISS %: 79.1224  AVERAGE MISS PENALTY: 384.932
LLC0 WRITEBACK ACCESS: 90765  HIT: 86886  MISS:  3879  HIT %: 95.7263  MISS %: 4.27367  AVERAGE MISS PENALTY: 0

LLC1 TOTAL     ACCESS: 1038115  HIT: 364444  MISS: 673671  HIT %: 35.1063  MISS %: 64.8937  AVERAGE MISS PENALTY: 379.283
LLC1 LOAD      ACCESS: 247559  HIT: 140523  MISS: 107036  HIT %: 56.7634  MISS %: 43.2366  AVERAGE MISS PENALTY: 371.528
LLC1 RFO       ACCESS: 30210  HIT:  2161  MISS: 28049  HIT %: 7.15326  MISS %: 92.8467  AVERAGE MISS PENALTY: 480.518
LLC1 PREFETCH  ACCESS: 669734  HIT: 134945  MISS: 534789  HIT %: 20.149  MISS %: 79.851  AVERAGE MISS PENALTY: 378.218
LLC1 WRITEBACK ACCESS: 90612  HIT: 86815  MISS:  3797  HIT %: 95.8096  MISS %: 4.19039  AVERAGE MISS PENALTY: 0

LLC2 TOTAL     ACCESS: 1049125  HIT: 368050  MISS: 681075  HIT %: 35.0816  MISS %: 64.9184  AVERAGE MISS PENALTY: 382.998
LLC2 LOAD      ACCESS: 244648  HIT: 140972  MISS: 103676  HIT %: 57.6224  MISS %: 42.3776  AVERAGE MISS PENALTY: 374.913
LLC2 RFO       ACCESS: 30191  HIT:  2127  MISS: 28064  HIT %: 7.04515  MISS %: 92.9549  AVERAGE MISS PENALTY: 492.874
LLC2 PREFETCH  ACCESS: 683639  HIT: 138096  MISS: 545543  HIT %: 20.2001  MISS %: 79.7999  AVERAGE MISS PENALTY: 381.544
LLC2 WRITEBACK ACCESS: 90647  HIT: 86855  MISS:  3792  HIT %: 95.8167  MISS %: 4.18326  AVERAGE MISS PENALTY: 0

LLC3 TOTAL     ACCESS: 1047428  HIT: 367644  MISS: 679784  HIT %: 35.0997  MISS %: 64.9003  AVERAGE MISS PENALTY: 379.771
LLC3 LOAD      ACCESS: 244368  HIT: 141570  MISS: 102798  HIT %: 57.9331  MISS %: 42.0669  AVERAGE MISS PENALTY: 376.999
LLC3 RFO       ACCESS: 30185  HIT:  2186  MISS: 27999  HIT %: 7.24201  MISS %: 92.758  AVERAGE MISS PENALTY: 482.053
[...]
LLC1 AVERAGE MISS LATENCY: 378.866 cycles
LLC2 TOTAL     ACCESS: 965252  HIT: 283167  MISS: 682085  HIT %: 29.3361  MISS %: 70.6639  AVERAGE MISS PENALTY: 381.791
LLC2 LOAD      ACCESS: 203512  HIT: 97756  MISS: 105756  HIT %: 48.0345  MISS %: 51.9655  AVERAGE MISS PENALTY: 377.459
LLC2 RFO       ACCESS: 29733  HIT:  1980  MISS: 27753  HIT %: 6.65927  MISS %: 93.3407  AVERAGE MISS PENALTY: 418.566
LLC2 PREFETCH  ACCESS: 641942  HIT: 100337  MISS: 541605  HIT %: 15.6302  MISS %: 84.3698  AVERAGE MISS PENALTY: 385.666
LLC2 WRITEBACK ACCESS: 90065  HIT: 83094  MISS:  6971  HIT %: 92.26  MISS %: 7.73997  AVERAGE MISS PENALTY: 0
LLC2 PREFETCH  REQUESTED:     0  ISSUED:     0  USEFUL: 105755  USELESS: 4257844
 USEFUL LOAD PREFETCHES:     105755 PREFETCH ISSUED TO LOWER LEVEL:   21721038  ACCURACY: 0.486878
 TIMELY PREFETCHES:     105755 LATE PREFETCHES: 0 DROPPED PREFETCHES: 0
LLC2 AVERAGE MISS LATENCY: 381.791 cycles
LLC3 TOTAL     ACCESS: 964125  HIT: 283514  MISS: 680611  HIT %: 29.4064  MISS %: 70.5936  AVERAGE MISS PENALTY: 379.907
LLC3 LOAD      ACCESS: 203486  HIT: 99171  MISS: 104315  HIT %: 48.736  MISS %: 51.264  AVERAGE MISS PENALTY: 379.291
LLC3 RFO       ACCESS: 29738  HIT:  1931  MISS: 27807  HIT %: 6.49338  MISS %: 93.5066  AVERAGE MISS PENALTY: 423.074
LLC3 PREFETCH  ACCESS: 640701  HIT: 99141  MISS: 541560  HIT %: 15.4738  MISS %: 84.5262  AVERAGE MISS PENALTY: 382.669
LLC3 WRITEBACK ACCESS: 90200  HIT: 83271  MISS:  6929  HIT %: 92.3182  MISS %: 7.68182  AVERAGE MISS PENALTY: 0
LLC3 PREFETCH  REQUESTED:     0  ISSUED:     0  USEFUL: 105817  USELESS: 4256977
 USEFUL LOAD PREFETCHES:     105817 PREFETCH ISSUED TO LOWER LEVEL:   16712501  ACCURACY: 0.633161
 TIMELY PREFETCHES:     105817 LATE PREFETCHES: 0 DROPPED PREFETCHES: 0
LLC3 AVERAGE MISS LATENCY: 379.907 cycles
LLC4 TOTAL     ACCESS: 963986  HIT: 284002  MISS: 679984  HIT %: 29.4612  MISS %: 70.5388  AVERAGE MISS PENALTY: 373.51
LLC4 LOAD      ACCESS: 203363  HIT: 99979  MISS: 103384  HIT %: 49.1628  MISS %: 50.8372  AVERAGE MISS PENALTY: 374.986
LLC4 RFO       ACCESS: 29736  HIT:  1942  MISS: 27794  HIT %: 6.5308  MISS %: 93.4692  AVERAGE MISS PENALTY: 420.239
LLC4 PREFETCH  ACCESS: 640800  HIT: 98881  MISS: 541919  HIT %: 15.4309  MISS %: 84.5691  AVERAGE MISS PENALTY: 375.579
LLC4 WRITEBACK ACCESS: 90087  HIT: 83200  MISS:  6887  HIT %: 92.3552  MISS %: 7.64483  AVERAGE MISS PENALTY: 0
LLC4 PREFETCH  REQUESTED:     0  ISSUED:     0  USEFUL: 105147  USELESS: 4258232
 USEFUL LOAD PREFETCHES:     105147 PREFETCH ISSUED TO LOWER LEVEL:   25455067  ACCURACY: 0.413069
 TIMELY PREFETCHES:     105147 LATE PREFETCHES: 0 DROPPED PREFETCHES: 0
LLC4 AVERAGE MISS LATENCY: 373.51 cycles
LLC5 TOTAL     ACCESS: 961537  HIT: 282349  MISS: 679188  HIT %: 29.3643  MISS %: 70.6357  AVERAGE MISS PENALTY: 366.544
LLC5 LOAD      ACCESS: 202652  HIT: 98255  MISS: 104397  HIT %: 48.4846  MISS %: 51.5154  AVERAGE MISS PENALTY: 368.664
LLC5 RFO       ACCESS: 29716  HIT:  1931  MISS: 27785  HIT %: 6.49818  MISS %: 93.5018  AVERAGE MISS PENALTY: 410.779
LLC5 PREFETCH  ACCESS: 639176  HIT: 99142  MISS: 540034  HIT %: 15.5109  MISS %: 84.4891  AVERAGE MISS PENALTY: 368.59
LLC5 WRITEBACK ACCESS: 89993  HIT: 83021  MISS:  6972  HIT %: 92.2527  MISS %: 7.74727  AVERAGE MISS PENALTY: 0
LLC5 PREFETCH  REQUESTED:     0  ISSUED:     0  USEFUL: 105052  USELESS: 4244044
 USEFUL LOAD PREFETCHES:     105052 PREFETCH ISSUED TO LOWER LEVEL:   19397548  ACCURACY: 0.541574
 TIMELY PREFETCHES:     105052 LATE PREFETCHES: 0 DROPPED PREFETCHES: 0
LLC5 AVERAGE MISS LATENCY: 366.544 cycles
LLC6 TOTAL     ACCESS: 962937  HIT: 285116  MISS: 677821  HIT %: 29.609  MISS %: 70.391  AVERAGE MISS PENALTY: 373.765
LLC6 LOAD      ACCESS: 206047  HIT: 101239  MISS: 104808  HIT %: 49.1339  MISS %: 50.8661  AVERAGE MISS PENALTY: 375.59
LLC6 RFO       ACCESS: 29718  HIT:  1957  MISS: 27761  HIT %: 6.58523  MISS %: 93.4148  AVERAGE MISS PENALTY: 425.107
LLC6 PREFETCH  ACCESS: 636781  HIT: 98443  MISS: 538338  HIT %: 15.4595  MISS %: 84.5405  AVERAGE MISS PENALTY: 375.562
LLC6 WRITEBACK ACCESS: 90391  HIT: 83477  MISS:  6914  HIT %: 92.351  MISS %: 7.64899  AVERAGE MISS PENALTY: 0
LLC6 PREFETCH  REQUESTED:     0  ISSUED:     0  USEFUL: 104642  USELESS: 4233341
 USEFUL LOAD PREFETCHES:     104642 PREFETCH ISSUED TO LOWER LEVEL:   30918070  ACCURACY: 0.338449
 TIMELY PREFETCHES:     104642 LATE PREFETCHES: 0 DROPPED PREFETCHES: 0
LLC6 AVERAGE MISS LATENCY: 373.765 cycles
LLC7 TOTAL     ACCESS: 957499  HIT: 281701  MISS: 675798  HIT %: 29.4205  MISS %: 70.5795  AVERAGE MISS PENALTY: 367.922
LLC7 LOAD      ACCESS: 201481  HIT: 97688  MISS: 103793  HIT %: 48.485  MISS %: 51.515  AVERAGE MISS PENALTY: 369.027
LLC7 RFO       ACCESS: 29710  HIT:  1908  MISS: 27802  HIT %: 6.42208  MISS %: 93.5779  AVERAGE MISS PENALTY: 416.607
LLC7 PREFETCH  ACCESS: 635995  HIT: 98619  MISS: 537376  HIT %: 15.5063  MISS %: 84.4937  AVERAGE MISS PENALTY: 369.864
LLC7 WRITEBACK ACCESS: 90313  HIT: 83486  MISS:  6827  HIT %: 92.4407  MISS %: 7.55927  AVERAGE MISS PENALTY: 0
LLC7 PREFETCH  REQUESTED:     0  ISSUED:     0  USEFUL: 104156  USELESS: 4225609
 USEFUL LOAD PREFETCHES:     104156 PREFETCH ISSUED TO LOWER LEVEL:   22881212  ACCURACY: 0.455203
 TIMELY PREFETCHES:     104156 LATE PREFETCHES: 0 DROPPED PREFETCHES: 0
LLC7 AVERAGE MISS LATENCY: 367.922 cycles
ROI Average ROB Stall Cycles:	9.21142
ROI Total ROB Stalls Cycles:	653721666
ROI TOTAL ROB counter      :	70968646
ROI Average Load ROB Stall Cycles:	26.4978
ROI Total Load ROB Stalls Cycle  :	223235433
ROI Total Load ROB stalls Counter:	8424678
Major fault: 0 Minor fault: 27397

CPU 7 cumulative IPC: 0.246935 instructions: 200000000 cycles: 809928209
ITLB TOTAL     ACCESS: 29956377  HIT: 29956377  MISS:     0  HIT %:   100  MISS %:     0  AVERAGE MISS PENALTY: 0
ITLB LOAD      ACCESS: 29956377  HIT: 29956377  MISS:     0  HIT %:   100  MISS %:     0  AVERAGE MISS PENALTY: 0
ITLB RFO       ACCESS:     0  HIT:     0  MISS:     0  HIT %:     0  MISS %:     0  AVERAGE MISS PENALTY: 0
ITLB PREFETCH  ACCESS:     0  HIT:     0  MISS:     0  HIT %:     0  MISS %:     0  AVERAGE MISS PENALTY: 0
ITLB WRITEBACK ACCESS:     0  HIT:     0  MISS:     0  HIT %:     0  MISS %:     0  AVERAGE MISS PENALTY: 0
ITLB PREFETCH  REQUESTED:     0  ISSUED:     0  USEFUL:     0  USELESS:     0
 USEFUL LOAD PREFETCHES:          0 PREFETCH ISSUED TO LOWER LEVEL:          0  ACCURACY: -nan
 TIMELY PREFETCHES:          0 LATE PREFETCHES: 0 DROPPED PREFETCHES: 0
ITLB AVERAGE MISS LATENCY: -nan cycles
DTLB TOTAL     ACCESS: 39738858  HIT: 39434326  MISS: 304532  HIT %: 99.2337  MISS %: 0.766333  AVERAGE MISS PENALTY: 71.5073
DTLB LOAD      ACCESS: 32747718  HIT: 32454294  MISS: 293424  HIT %: 99.104  MISS %: 0.896014  AVERAGE MISS PENALTY: 72.6957
DTLB RFO       ACCESS: 6991140  HIT: 6980032  MISS: 11108  HIT %: 99.8411  MISS %: 0.158887  AVERAGE MISS PENALTY: 40.1155
DTLB PREFETCH  ACCESS:     0  HIT:     0  MISS:     0  HIT %:     0  MISS %:     0  AVERAGE MISS PENALTY: 0
DTLB WRITEBACK ACCESS:     0  HIT:     0  MISS:     0  HIT %:     0  MISS %:     0  AVERAGE MISS PENALTY: 0
DTLB PREFETCH  REQUESTED:     0  ISSUED:     0  USEFUL:     0  USELESS:     0
 USEFUL LOAD PREFETCHES:          0 PREFETCH ISSUED TO LOWER LEVEL:          0  ACCURACY: -nan
 TIMELY PREFETCHES:          0 LATE PREFETCHES: 0 DROPPED PREFETCHES: 0
DTLB AVERAGE MISS LATENCY: 71.5073 cycles
STLB TOTAL     ACCESS: 304532  HIT: 121182  MISS: 183350  HIT %: 39.7929  MISS %: 60.2071  AVERAGE MISS PENALTY: 100
STLB LOAD      ACCESS: 293424  HIT: 113425  MISS: 179999  HIT %: 38.6557  MISS %: 61.3443  AVERAGE MISS PENALTY: 100
STLB RFO       ACCESS: 11108  HIT:  7757  MISS:  3351  HIT %: 69.8326  MISS %: 30.1674  AVERAGE MISS PENALTY: 100
STLB PREFETCH  ACCESS:     0  HIT:     0  MISS:     0  HIT %:     0  MISS %:     0  AVERAGE MISS PENALTY: 0
STLB WRITEBACK ACCESS:     0  HIT:     0  MISS:     0  HIT %:     0  MISS %:     0  AVERAGE MISS PENALTY: 0
STLB PREFETCH  REQUESTED:     0  ISSUED:     0  USEFUL:     0  USELESS:     0
 USEFUL LOAD PREFETCHES:          0 PREFETCH ISSUED TO LOWER LEVEL:          0  ACCURACY: -nan
 TIMELY PREFETCHES:          0 LATE PREFETCHES: 0 DROPPED PREFETCHES: 0
STLB AVERAGE MISS LATENCY: 100 cycles
L1D TOTAL     ACCESS: 45905265  HIT: 38982289  MISS: 6922976  HIT %: 84.919  MISS %: 15.081  AVERAGE MISS PENALTY: 1.14129e+07
L1D LOAD      ACCESS: 32277871  HIT: 29466075  MISS: 2811796  HIT %: 91.2888  MISS %: 8.71122  AVERAGE MISS PENALTY: 2.80983e+07
L1D RFO       ACCESS: 5150429  HIT: 4905231  MISS: 245198  HIT %: 95.2393  MISS %: 4.76073  AVERAGE MISS PENALTY: 15154.8
L1D PREFETCH  ACCESS: 8476965  HIT: 4610983  MISS: 3865982  HIT %: 54.3943  MISS %: 45.6057  AVERAGE MISS PENALTY: 202.327
L1D WRITEBACK ACCESS:     0  HIT:     0  MISS:     0  HIT %:     0  MISS %:     0  AVERAGE MISS PENALTY: 0
L1D PREFETCH  REQUESTED: 10422055  ISSUED: 10260702  USEFUL: 2215610  USELESS: 1650232
 USEFUL LOAD PREFETCHES:    2215610 PREFETCH ISSUED TO LOWER LEVEL:   15530301  ACCURACY: 14.2664
 TIMELY PREFETCHES:    2215610 LATE PREFETCHES: 185752 DROPPED PREFETCHES: 161353
L1D AVERAGE MISS LATENCY: 715.994 cycles
L1I TOTAL     ACCESS: 47167477  HIT: 47167477  MISS:     0  HIT %:   100  MISS %:     0  AVERAGE MISS PENALTY: 0
L1I LOAD      ACCESS: 47167477  HIT: 47167477  MISS:     0  HIT %:   100  MISS %:     0  AVERAGE MISS PENALTY: 0
L1I RFO       ACCESS:     0  HIT:     0  MISS:     0  HIT %:     0  MISS %:     0  AVERAGE MISS PENALTY: 0
L1I PREFETCH  ACCESS:     0  HIT:     0  MISS:     0  HIT %:     0  MISS %:     0  AVERAGE MISS PENALTY: 0
L1I WRITEBACK ACCESS:     0  HIT:     0  MISS:     0  HIT %:     0  MISS %:     0  AVERAGE MISS PENALTY: 0
L1I PREFETCH  REQUESTED:     0  ISSUED:     0  USEFUL:     0  USELESS:     0
 USEFUL LOAD PREFETCHES:          0 PREFETCH ISSUED TO LOWER LEVEL:          0  ACCURACY: -nan
 TIMELY PREFETCHES:          0 LATE PREFETCHES: 0 DROPPED PREFETCHES: 0
L1I AVERAGE MISS LATENCY: -nan cycles
L2C TOTAL     ACCESS: 11953687  HIT: 4912225  MISS: 7041462  HIT %: 41.0938  MISS %: 58.9062  AVERAGE MISS PENALTY: 1.2807e+07
L2C LOAD      ACCESS: 2801403  HIT: 1016439  MISS: 1784964  HIT %: 36.2832  MISS %: 63.7168  AVERAGE MISS PENALTY: 5.0521e+07
L2C RFO       ACCESS: 245192  HIT:  6952  MISS: 238240  HIT %: 2.83533  MISS %: 97.1647  AVERAGE MISS PENALTY: 430.116
L2C PREFETCH  ACCESS: 8177756  HIT: 3240241  MISS: 4937515  HIT %: 39.6226  MISS %: 60.3774  AVERAGE MISS PENALTY: 355.314
L2C WRITEBACK ACCESS: 729336  HIT: 648593  MISS: 80743  HIT %: 88.9292  MISS %: 11.0708  AVERAGE MISS PENALTY: 0
L2C PREFETCH  REQUESTED: 7724038  ISSUED: 7701463  USEFUL: 312992  USELESS: 4623421
 USEFUL LOAD PREFETCHES:     312992 PREFETCH ISSUED TO LOWER LEVEL:    6243854  ACCURACY: 5.0128
 TIMELY PREFETCHES:     312992 LATE PREFETCHES: 219330 DROPPED PREFETCHES: 22575
L2C AVERAGE MISS LATENCY: 322.804 cycles
LLC0 TOTAL     ACCESS: 945957  HIT: 281983  MISS: 663974  HIT %: 29.8093  MISS %: 70.1907  AVERAGE MISS PENALTY: 378.104
LLC0 LOAD      ACCESS: 241567  HIT: 99735  MISS: 141832  HIT %: 41.2867  MISS %: 58.7133  AVERAGE MISS PENALTY: 348.108
LLC0 RFO       ACCESS: 29795  HIT:  1899  MISS: 27896  HIT %: 6.37355  MISS %: 93.6264  AVERAGE MISS PENALTY: 413.695
LLC0 PREFETCH  ACCESS: 584335  HIT: 96561  MISS: 487774  HIT %: 16.5249  MISS %: 83.4751  AVERAGE MISS PENALTY: 389.807
LLC0 WRITEBACK ACCESS: 90260  HIT: 83788  MISS:  6472  HIT %: 92.8296  MISS %: 7.1704  AVERAGE MISS PENALTY: 0
LLC0 PREFETCH  REQUESTED:     0  ISSUED:     0  USEFUL: 98785  USELESS: 3828601
 USEFUL LOAD PREFETCHES:      98785 PREFETCH ISSUED TO LOWER LEVEL:   18514031  ACCURACY: 0.533568
 TIMELY PREFETCHES:      98785 LATE PREFETCHES: 0 DROPPED PREFETCHES: 0
LLC0 AVERAGE MISS LATENCY: 378.104 cycles
Deadblocks : 1081699 Deadblock percentage : 762.662

LLC1 TOTAL     ACCESS: 956544  HIT: 281586  MISS: 674958  HIT %: 29.4379  MISS %: 70.5621  AVERAGE MISS PENALTY: 377.874
LLC1 LOAD      ACCESS: 206172  HIT: 97471  MISS: 108701  HIT %: 47.2765  MISS %: 52.7235  AVERAGE MISS PENALTY: 371.996
LLC1 RFO       ACCESS: 29763  HIT:  1844  MISS: 27919  HIT %: 6.19561  MISS %: 93.8044  AVERAGE MISS PENALTY: 412.821
LLC1 PREFETCH  ACCESS: 630524  HIT: 98790  MISS: 531734  HIT %: 15.6679  MISS %: 84.3321  AVERAGE MISS PENALTY: 381.934
LLC1 WRITEBACK ACCESS: 90085  HIT: 83481  MISS:  6604  HIT %: 92.6691  MISS %: 7.33085  AVERAGE MISS PENALTY: 0
LLC1 PREFETCH  REQUESTED:     0  ISSUED:     0  USEFUL: 105319  USELESS: 4174387
 USEFUL LOAD PREFETCHES:     105319 PREFETCH ISSUED TO LOWER LEVEL:   15054268  ACCURACY: 0.699596
 TIMELY PREFETCHES:     105319 LATE PREFETCHES: 0 DROPPED PREFETCHES: 0
LLC1 AVERAGE MISS LATENCY: 377.874 cycles
LLC2 TOTAL     ACCESS: 966224  HIT: 284815  MISS: 681409  HIT %: 29.4771  MISS %: 70.5229  AVERAGE MISS PENALTY: 381.747
LLC2 LOAD      ACCESS: 203366  HIT: 98034  MISS: 105332  HIT %: 48.2057  MISS %: 51.7943  AVERAGE MISS PENALTY: 376.825
LLC2 RFO       ACCESS: 29779  HIT:  1876  MISS: 27903  HIT %: 6.29974  MISS %: 93.7003  AVERAGE MISS PENALTY: 417.254
LLC2 PREFETCH  ACCESS: 642950  HIT: 101346  MISS: 541604  HIT %: 15.7627  MISS %: 84.2373  AVERAGE MISS PENALTY: 385.506
LLC2 WRITEBACK ACCESS: 90129  HIT: 83559  MISS:  6570  HIT %: 92.7104  MISS %: 7.28955  AVERAGE MISS PENALTY: 0
LLC2 PREFETCH  REQUESTED:     0  ISSUED:     0  USEFUL: 105755  USELESS: 4257844
 USEFUL LOAD PREFETCHES:     105755 PREFETCH ISSUED TO LOWER LEVEL:   21721038  ACCURACY: 0.486878
 TIMELY PREFETCHES:     105755 LATE PREFETCHES: 0 DROPPED PREFETCHES: 0
LLC2 AVERAGE MISS LATENCY: 381.747 cycles
LLC3 TOTAL     ACCESS: 964895  HIT: 284865  MISS: 680030  HIT %: 29.5229  MISS %: 70.4771  AVERAGE MISS PENALTY: 378.777
LLC3 LOAD      ACCESS: 203570  HIT: 99080  MISS: 104490  HIT %: 48.6712  MISS %: 51.3288  AVERAGE MISS PENALTY: 379.165
LLC3 RFO       ACCESS: 29798  HIT:  1902  MISS: 27896  HIT %: 6.38298  MISS %: 93.617  AVERAGE MISS PENALTY: 423.235
LLC3 PREFETCH  ACCESS: 641241  HIT: 99947  MISS: 541294  HIT %: 15.5865  MISS %: 84.4135  AVERAGE MISS PENALTY: 380.854
LLC3 WRITEBACK ACCESS: 90286  HIT: 83936  MISS:  6350  HIT %: 92.9668  MISS %: 7.03321  AVERAGE MISS PENALTY: 0
LLC3 PREFETCH  REQUESTED:     0  ISSUED:     0  USEFUL: 105817  USELESS: 4256977
 USEFUL LOAD PREFETCHES:     105817 PREFETCH ISSUED TO LOWER LEVEL:   16712501  ACCURACY: 0.633161
 TIMELY PREFETCHES:     105817 LATE PREFETCHES: 0 DROPPED PREFETCHES: 0
LLC3 AVERAGE MISS LATENCY: 378.777 cycles
LLC4 TOTAL     ACCESS: 964687  HIT: 285367  MISS: 679320  HIT %: 29.5813  MISS %: 70.4187  AVERAGE MISS PENALTY: 372.802
LLC4 LOAD      ACCESS: 203222  HIT: 99766  MISS: 103456  HIT %: 49.0921  MISS %: 50.9079  AVERAGE MISS PENALTY: 373.333
LLC4 RFO       ACCESS: 29789  HIT:  1861  MISS: 27928  HIT %: 6.24727  MISS %: 93.7527  AVERAGE MISS PENALTY: 421.259
LLC4 PREFETCH  ACCESS: 641488  HIT: 100033  MISS: 541455  HIT %: 15.5939  MISS %: 84.4061  AVERAGE MISS PENALTY: 374.664
LLC4 WRITEBACK ACCESS: 90188  HIT: 83707  MISS:  6481  HIT %: 92.8139  MISS %: 7.1861  AVERAGE MISS PENALTY: 0
LLC4 PREFETCH  REQUESTED:     0  ISSUED:     0  USEFUL: 105147  USELESS: 4258232
 USEFUL LOAD PREFETCHES:     105147 PREFETCH ISSUED TO LOWER LEVEL:   25455067  ACCURACY: 0.413069
 TIMELY PREFETCHES:     105147 LATE PREFETCHES: 0 DROPPED PREFETCHES: 0
LLC4 AVERAGE MISS LATENCY: 372.802 cycles
LLC5 TOTAL     ACCESS: 962189  HIT: 283584  MISS: 678605  HIT %: 29.4728  MISS %: 70.5272  AVERAGE MISS PENALTY: 366.478
LLC5 LOAD      ACCESS: 202667  HIT: 98196  MISS: 104471  HIT %: 48.4519  MISS %: 51.5481  AVERAGE MISS PENALTY: 367.358
LLC5 RFO       ACCESS: 29774  HIT:  1901  MISS: 27873  HIT %: 6.38477  MISS %: 93.6152  AVERAGE MISS PENALTY: 408.81
LLC5 PREFETCH  ACCESS: 639664  HIT: 99842  MISS: 539822  HIT %: 15.6085  MISS %: 84.3915  AVERAGE MISS PENALTY: 368.494
LLC5 WRITEBACK ACCESS: 90084  HIT: 83645  MISS:  6439  HIT %: 92.8522  MISS %: 7.14777  AVERAGE MISS PENALTY: 0
LLC5 PREFETCH  REQUESTED:     0  ISSUED:     0  USEFUL: 105052  USELESS: 4244044
 USEFUL LOAD PREFETCHES:     105052 PREFETCH ISSUED TO LOWER LEVEL:   19397548  ACCURACY: 0.541574
 TIMELY PREFETCHES:     105052 LATE PREFETCHES: 0 DROPPED PREFETCHES: 0
LLC5 AVERAGE MISS LATENCY: 366.478 cycles
LLC6 TOTAL     ACCESS: 963770  HIT: 286175  MISS: 677595  HIT %: 29.6933  MISS %: 70.3067  AVERAGE MISS PENALTY: 372.819
LLC6 LOAD      ACCESS: 205954  HIT: 101375  MISS: 104579  HIT %: 49.2222  MISS %: 50.7778  AVERAGE MISS PENALTY: 373.427
LLC6 RFO       ACCESS: 29775  HIT:  1890  MISS: 27885  HIT %: 6.34761  MISS %: 93.6524  AVERAGE MISS PENALTY: 424.327
LLC6 PREFETCH  ACCESS: 637568  HIT: 99017  MISS: 538551  HIT %: 15.5304  MISS %: 84.4696  AVERAGE MISS PENALTY: 374.589
LLC6 WRITEBACK ACCESS: 90473  HIT: 83893  MISS:  6580  HIT %: 92.7271  MISS %: 7.27289  AVERAGE MISS PENALTY: 0
LLC6 PREFETCH  REQUESTED:     0  ISSUED:     0  USEFUL: 104642  USELESS: 4233341
 USEFUL LOAD PREFETCHES:     104642 PREFETCH ISSUED TO LOWER LEVEL:   30918070  ACCURACY: 0.338449
 TIMELY PREFETCHES:     104642 LATE PREFETCHES: 0 DROPPED PREFETCHES: 0
LLC6 AVERAGE MISS LATENCY: 372.819 cycles
LLC7 TOTAL     ACCESS: 958328  HIT: 282388  MISS: 675940  HIT %: 29.4667  MISS %: 70.5333  AVERAGE MISS PENALTY: 367.794
LLC7 LOAD      ACCESS: 201358  HIT: 97448  MISS: 103910  HIT %: 48.3954  MISS %: 51.6046  AVERAGE MISS PENALTY: 368.31
LLC7 RFO       ACCESS: 29767  HIT:  1876  MISS: 27891  HIT %: 6.30228  MISS %: 93.6977  AVERAGE MISS PENALTY: 417.578
LLC7 PREFETCH  ACCESS: 636800  HIT: 99144  MISS: 537656  HIT %: 15.5691  MISS %: 84.4309  AVERAGE MISS PENALTY: 369.547
LLC7 WRITEBACK ACCESS: 90403  HIT: 83920  MISS:  6483  HIT %: 92.8288  MISS %: 7.17122  AVERAGE MISS PENALTY: 0
LLC7 PREFETCH  REQUESTED:     0  ISSUED:     0  USEFUL: 104156  USELESS: 4225609
 USEFUL LOAD PREFETCHES:     104156 PREFETCH ISSUED TO LOWER LEVEL:   22881212  ACCURACY: 0.455203
 TIMELY PREFETCHES:     104156 LATE PREFETCHES: 0 DROPPED PREFETCHES: 0
LLC7 AVERAGE MISS LATENCY: 367.794 cycles
ROI Average ROB Stall Cycles:	9.21167
ROI Total ROB Stalls Cycles:	653757152
ROI TOTAL ROB counter      :	70970558
ROI Average Load ROB Stall Cycles:	26.5166
ROI Total Load ROB Stalls Cycle  :	223411725
ROI Total Load ROB stalls Counter:	8425356
Major fault: 0 Minor fault: 27397








Interconnect Stats 
LINK 0 BW : 0LINK 1 BW : 0LINK 2 BW : 0LINK 3 BW : 0LINK 4 BW : 0LINK 5 BW : 0LINK 6 BW : 0LINK 7 BW : 0
DRAM Statistics
 CHANNEL 0
 RQ ROW_BUFFER_HIT: 4914259  ROW_BUFFER_MISS: 16582015
 DBUS_CONGESTED: 13905556
 WQ ROW_BUFFER_HIT: 167365  ROW_BUFFER_MISS: 2500123  FULL:     0

 CHANNEL 1
 RQ ROW_BUFFER_HIT: 4900621  ROW_BUFFER_MISS: 16645824
 DBUS_CONGESTED: 13905556
 WQ ROW_BUFFER_HIT: 167126  ROW_BUFFER_MISS: 2499242  FULL:     0

 AVG_CONGESTED_CYCLE: 5
DRAM PAGES: 2097152
Allocated PAGES: 219176
L2C destructor called
L1D destructor called
L1I destructor called
STLB destructor called
DTLB destructor called
ITLB destructor called
L2C destructor called
L1D destructor called
L1I destructor called
STLB destructor called
DTLB destructor called
ITLB destructor called
L2C destructor called
L1D destructor called
L1I destructor called
STLB destructor called
DTLB destructor called
ITLB destructor called
L2C destructor called
L1D destructor called
L1I destructor called
STLB destructor called
DTLB destructor called
ITLB destructor called
L2C destructor called
L1D destructor called
L1I destructor called
STLB destructor called
DTLB destructor called
ITLB destructor called
L2C destructor called
L1D destructor called
L1I destructor called
STLB destructor called
DTLB destructor called
ITLB destructor called
L2C destructor called
L1D destructor called
L1I destructor called
STLB destructor called
DTLB destructor called
ITLB destructor called
L2C destructor called
L1D destructor called
L1I destructor called
STLB destructor called
DTLB destructor called
ITLB destructor called
