
*** ChampSim Multicore Out-of-Order Simulator ***

Warmup Instructions: 200000000
Simulation Instructions: 200000000
Number of CPUs: 8
threads:1

L1I Configuration:
L1I_SET:64
L1I_WAY:8
L1I_RQ_SIZE:64
L1I_WQ_SIZE:64
L1I_PQ_SIZE:8
L1I_MSHR_SIZE:8

L1D Configuration:
L1D_SET:64
L1D_WAY:12
L1D_RQ_SIZE:64
L1D_WQ_SIZE:64
L1D_PQ_SIZE:8
L1D_MSHR_SIZE:16

L2C Configuration:
L2C_SET:1024
L2C_WAY:8
L2C_RQ_SIZE:32
L2C_WQ_SIZE:32
L2C_PQ_SIZE:16
L2C_MSHR_SIZE:32

LLC Configuration:
LLC_SET:2048
LLC_WAY:16
LLC SLICES:8
LLC_RQ_SIZE:64
LLC_WQ_SIZE:64
LLC_PQ_SIZE:32
LLC_MSHR_SIZE:64

Interconnect OFF
Attacker deprioritize is: OFF
Off-chip DRAM Size: 8192 MB Channels: 2 Width: 64-bit Data Rate: 3200 MT/s
PAGE SIZE in KB: 4.000000 
PAGE SIZE in MB: 0.003906 
PAGE offset in bits: 12 
CEASER-S_LLC:0
MIRAGE : 1
CEASER_LATENCY:3
REMAP : OFF
Partitions : 1
Multi-Step : OFF
BFS : OFF

CPU 0 runs /home/anubhav/gap/cc-14.trace.gz
CPU 1 runs /home/anubhav/gap/cc-14.trace.gz
CPU 2 runs /home/anubhav/gap/cc-14.trace.gz
CPU 3 runs /home/anubhav/gap/cc-14.trace.gz
CPU 4 runs /home/anubhav/gap/cc-14.trace.gz
CPU 5 runs /home/anubhav/gap/cc-14.trace.gz
CPU 6 runs /home/anubhav/gap/cc-14.trace.gz
CPU 7 runs /home/anubhav/gap/cc-14.trace.gz
CPU 0 Bimodal branch predictor
Initialize Hawkeye state
Initialize Hawkeye state
Initialize Hawkeye state
Initialize Hawkeye state
Initialize Hawkeye state
Initialize Hawkeye state
Initialize Hawkeye state
Initialize Hawkeye state
CPU 1 Bimodal branch predictor
Initialize Hawkeye state
Initialize Hawkeye state
Initialize Hawkeye state
Initialize Hawkeye state
Initialize Hawkeye state
Initialize Hawkeye state
Initialize Hawkeye state
Initialize Hawkeye state
CPU 2 Bimodal branch predictor
Initialize Hawkeye state
Initialize Hawkeye state
Initialize Hawkeye state
Initialize Hawkeye state
Initialize Hawkeye state
Initialize Hawkeye state
Initialize Hawkeye state
Initialize Hawkeye state
CPU 3 Bimodal branch predictor
Initialize Hawkeye state
Initialize Hawkeye state
Initialize Hawkeye state
Initialize Hawkeye state
Initialize Hawkeye state
Initialize Hawkeye state
Initialize Hawkeye state
Initialize Hawkeye state
CPU 4 Bimodal branch predictor
Initialize Hawkeye state
Initialize Hawkeye state
Initialize Hawkeye state
Initialize Hawkeye state
Initialize Hawkeye state
Initialize Hawkeye state
Initialize Hawkeye state
Initialize Hawkeye state
CPU 5 Bimodal branch predictor
Initialize Hawkeye state
Initialize Hawkeye state
Initialize Hawkeye state
Initialize Hawkeye state
Initialize Hawkeye state
Initialize Hawkeye state
Initialize Hawkeye state
Initialize Hawkeye state
CPU 6 Bimodal branch predictor
Initialize Hawkeye state
Initialize Hawkeye state
Initialize Hawkeye state
Initialize Hawkeye state
Initialize Hawkeye state
Initialize Hawkeye state
Initialize Hawkeye state
Initialize Hawkeye state
CPU 7 Bimodal branch predictor
Initialize Hawkeye state
Initialize Hawkeye state
Initialize Hawkeye state
Initialize Hawkeye state
Initialize Hawkeye state
Initialize Hawkeye state
Initialize Hawkeye state
Initialize Hawkeye state
Heartbeat CPU 0 instructions: 10000000 cycles: 10876696 heartbeat IPC: 0.919397 cumulative IPC: 0.919397 (Simulation time: 0 hr 14 min 32 sec) 
 Total Blocks : 262144 Invalid Blocks : 20
Heartbeat CPU 1 instructions: 10000000 cycles: 10877284 heartbeat IPC: 0.919347 cumulative IPC: 0.919347 (Simulation time: 0 hr 14 min 32 sec) 
 Total Blocks : 262144 Invalid Blocks : 20
Heartbeat CPU 2 instructions: 10000000 cycles: 10877325 heartbeat IPC: 0.919344 cumulative IPC: 0.919344 (Simulation time: 0 hr 14 min 32 sec) 
 Total Blocks : 262144 Invalid Blocks : 20
Heartbeat CPU 4 instructions: 10000000 cycles: 10877569 heartbeat IPC: 0.919323 cumulative IPC: 0.919323 (Simulation time: 0 hr 14 min 32 sec) 
 Total Blocks : 262144 Invalid Blocks : 20
Heartbeat CPU 3 instructions: 10000000 cycles: 10877654 heartbeat IPC: 0.919316 cumulative IPC: 0.919316 (Simulation time: 0 hr 14 min 32 sec) 
 Total Blocks : 262144 Invalid Blocks : 20
Heartbeat CPU 5 instructions: 10000000 cycles: 10878104 heartbeat IPC: 0.919278 cumulative IPC: 0.919278 (Simulation time: 0 hr 14 min 32 sec) 
 Total Blocks : 262144 Invalid Blocks : 20
Heartbeat CPU 6 instructions: 10000000 cycles: 10878201 heartbeat IPC: 0.91927 cumulative IPC: 0.91927 (Simulation time: 0 hr 14 min 32 sec) 
 Total Blocks : 262144 Invalid Blocks : 20
Heartbeat CPU 7 instructions: 10000000 cycles: 10878720 heartbeat IPC: 0.919226 cumulative IPC: 0.919226 (Simulation time: 0 hr 14 min 32 sec) 
 Total Blocks : 262144 Invalid Blocks : 20
Heartbeat CPU 0 instructions: 20000000 cycles: 21608580 heartbeat IPC: 0.931803 cumulative IPC: 0.925558 (Simulation time: 0 hr 29 min 10 sec) 
 Total Blocks : 262144 Invalid Blocks : 0
Heartbeat CPU 1 instructions: 20000000 cycles: 21609259 heartbeat IPC: 0.931795 cumulative IPC: 0.925529 (Simulation time: 0 hr 29 min 10 sec) 
 Total Blocks : 262144 Invalid Blocks : 0
Heartbeat CPU 2 instructions: 20000000 cycles: 21609757 heartbeat IPC: 0.931755 cumulative IPC: 0.925508 (Simulation time: 0 hr 29 min 10 sec) 
 Total Blocks : 262144 Invalid Blocks : 0
Heartbeat CPU 4 instructions: 20000000 cycles: 21610278 heartbeat IPC: 0.931731 cumulative IPC: 0.925486 (Simulation time: 0 hr 29 min 10 sec) 
 Total Blocks : 262144 Invalid Blocks : 0
Heartbeat CPU 3 instructions: 20000000 cycles: 21610394 heartbeat IPC: 0.931729 cumulative IPC: 0.925481 (Simulation time: 0 hr 29 min 10 sec) 
 Total Blocks : 262144 Invalid Blocks : 0
Heartbeat CPU 5 instructions: 20000000 cycles: 21611834 heartbeat IPC: 0.931643 cumulative IPC: 0.925419 (Simulation time: 0 hr 29 min 10 sec) 
 Total Blocks : 262144 Invalid Blocks : 0
Heartbeat CPU 6 instructions: 20000000 cycles: 21611854 heartbeat IPC: 0.931649 cumulative IPC: 0.925418 (Simulation time: 0 hr 29 min 10 sec) 
 Total Blocks : 262144 Invalid Blocks : 0
Heartbeat CPU 7 instructions: 20000000 cycles: 21612763 heartbeat IPC: 0.931615 cumulative IPC: 0.925379 (Simulation time: 0 hr 29 min 11 sec) 
 Total Blocks : 262144 Invalid Blocks : 0
Heartbeat CPU 0 instructions: 30000000 cycles: 31537455 heartbeat IPC: 1.00716 cumulative IPC: 0.95125 (Simulation time: 0 hr 44 min 22 sec) 
 Total Blocks : 262144 Invalid Blocks : 0
Heartbeat CPU 1 instructions: 30000000 cycles: 31538078 heartbeat IPC: 1.00717 cumulative IPC: 0.951231 (Simulation time: 0 hr 44 min 22 sec) 
 Total Blocks : 262144 Invalid Blocks : 0
Heartbeat CPU 2 instructions: 30000000 cycles: 31539261 heartbeat IPC: 1.0071 cumulative IPC: 0.951195 (Simulation time: 0 hr 44 min 22 sec) 
 Total Blocks : 262144 Invalid Blocks : 0
Heartbeat CPU 4 instructions: 30000000 cycles: 31539733 heartbeat IPC: 1.0071 cumulative IPC: 0.951181 (Simulation time: 0 hr 44 min 23 sec) 
 Total Blocks : 262144 Invalid Blocks : 0
Heartbeat CPU 3 instructions: 30000000 cycles: 31540011 heartbeat IPC: 1.00709 cumulative IPC: 0.951173 (Simulation time: 0 hr 44 min 23 sec) 
 Total Blocks : 262144 Invalid Blocks : 0
Heartbeat CPU 5 instructions: 30000000 cycles: 31541871 heartbeat IPC: 1.00705 cumulative IPC: 0.951117 (Simulation time: 0 hr 44 min 23 sec) 
 Total Blocks : 262144 Invalid Blocks : 0
Heartbeat CPU 6 instructions: 30000000 cycles: 31542066 heartbeat IPC: 1.00703 cumulative IPC: 0.951111 (Simulation time: 0 hr 44 min 23 sec) 
 Total Blocks : 262144 Invalid Blocks : 0
Heartbeat CPU 7 instructions: 30000000 cycles: 31543310 heartbeat IPC: 1.00699 cumulative IPC: 0.951073 (Simulation time: 0 hr 44 min 23 sec) 
 Total Blocks : 262144 Invalid Blocks : 0
Heartbeat CPU 0 instructions: 40000002 cycles: 41090770 heartbeat IPC: 1.04676 cumulative IPC: 0.973455 (Simulation time: 1 hr 0 min 23 sec) 
 Total Blocks : 262144 Invalid Blocks : 0
Heartbeat CPU 1 instructions: 40000002 cycles: 41091490 heartbeat IPC: 1.04675 cumulative IPC: 0.973438 (Simulation time: 1 hr 0 min 23 sec) 
 Total Blocks : 262144 Invalid Blocks : 0
Heartbeat CPU 2 instructions: 40000002 cycles: 41093370 heartbeat IPC: 1.04667 cumulative IPC: 0.973393 (Simulation time: 1 hr 0 min 23 sec) 
 Total Blocks : 262144 Invalid Blocks : 0
Heartbeat CPU 3 instructions: 40000002 cycles: 41093884 heartbeat IPC: 1.0467 cumulative IPC: 0.973381 (Simulation time: 1 hr 0 min 24 sec) 
 Total Blocks : 262144 Invalid Blocks : 0
Heartbeat CPU 4 instructions: 40000002 cycles: 41093891 heartbeat IPC: 1.04666 cumulative IPC: 0.973381 (Simulation time: 1 hr 0 min 24 sec) 
 Total Blocks : 262144 Invalid Blocks : 0
Heartbeat CPU 5 instructions: 40000002 cycles: 41097121 heartbeat IPC: 1.04655 cumulative IPC: 0.973304 (Simulation time: 1 hr 0 min 24 sec) 
 Total Blocks : 262144 Invalid Blocks : 0
Heartbeat CPU 6 instructions: 40000002 cycles: 41097651 heartbeat IPC: 1.04651 cumulative IPC: 0.973292 (Simulation time: 1 hr 0 min 24 sec) 
 Total Blocks : 262144 Invalid Blocks : 0
Heartbeat CPU 7 instructions: 40000002 cycles: 41098847 heartbeat IPC: 1.04651 cumulative IPC: 0.973263 (Simulation time: 1 hr 0 min 24 sec) 
 Total Blocks : 262144 Invalid Blocks : 0
Heartbeat CPU 0 instructions: 50000001 cycles: 50565601 heartbeat IPC: 1.05543 cumulative IPC: 0.988815 (Simulation time: 1 hr 17 min 6 sec) 
 Total Blocks : 262144 Invalid Blocks : 0
Heartbeat CPU 1 instructions: 50000001 cycles: 50567016 heartbeat IPC: 1.05535 cumulative IPC: 0.988787 (Simulation time: 1 hr 17 min 7 sec) 
 Total Blocks : 262144 Invalid Blocks : 0
Heartbeat CPU 2 instructions: 50000001 cycles: 50568918 heartbeat IPC: 1.05535 cumulative IPC: 0.98875 (Simulation time: 1 hr 17 min 7 sec) 
 Total Blocks : 262144 Invalid Blocks : 0
Heartbeat CPU 3 instructions: 50000001 cycles: 50569959 heartbeat IPC: 1.05529 cumulative IPC: 0.988729 (Simulation time: 1 hr 17 min 7 sec) 
 Total Blocks : 262144 Invalid Blocks : 0
Heartbeat CPU 4 instructions: 50000001 cycles: 50570029 heartbeat IPC: 1.05528 cumulative IPC: 0.988728 (Simulation time: 1 hr 17 min 7 sec) 
 Total Blocks : 262144 Invalid Blocks : 0
Heartbeat CPU 5 instructions: 50000001 cycles: 50573605 heartbeat IPC: 1.05524 cumulative IPC: 0.988658 (Simulation time: 1 hr 17 min 7 sec) 
 Total Blocks : 262144 Invalid Blocks : 0
Heartbeat CPU 6 instructions: 50000002 cycles: 50574185 heartbeat IPC: 1.05524 cumulative IPC: 0.988647 (Simulation time: 1 hr 17 min 7 sec) 
 Total Blocks : 262144 Invalid Blocks : 0
Heartbeat CPU 7 instructions: 50000001 cycles: 50575777 heartbeat IPC: 1.05519 cumulative IPC: 0.988616 (Simulation time: 1 hr 17 min 8 sec) 
 Total Blocks : 262144 Invalid Blocks : 0
Heartbeat CPU 0 instructions: 60000002 cycles: 59926959 heartbeat IPC: 1.06822 cumulative IPC: 1.00122 (Simulation time: 1 hr 44 min 37 sec) 
 Total Blocks : 262144 Invalid Blocks : 0
Heartbeat CPU 1 instructions: 60000002 cycles: 59931280 heartbeat IPC: 1.06789 cumulative IPC: 1.00115 (Simulation time: 1 hr 44 min 38 sec) 
 Total Blocks : 262144 Invalid Blocks : 0
Heartbeat CPU 2 instructions: 60000002 cycles: 59936165 heartbeat IPC: 1.06755 cumulative IPC: 1.00107 (Simulation time: 1 hr 44 min 39 sec) 
 Total Blocks : 262144 Invalid Blocks : 0
Heartbeat CPU 3 instructions: 60000002 cycles: 59939566 heartbeat IPC: 1.06728 cumulative IPC: 1.00101 (Simulation time: 1 hr 44 min 40 sec) 
 Total Blocks : 262144 Invalid Blocks : 0
Heartbeat CPU 4 instructions: 60000002 cycles: 59941767 heartbeat IPC: 1.06704 cumulative IPC: 1.00097 (Simulation time: 1 hr 44 min 41 sec) 
 Total Blocks : 262144 Invalid Blocks : 0
Heartbeat CPU 5 instructions: 60000002 cycles: 59946408 heartbeat IPC: 1.06692 cumulative IPC: 1.00089 (Simulation time: 1 hr 44 min 42 sec) 
 Total Blocks : 262144 Invalid Blocks : 0
Heartbeat CPU 6 instructions: 60000002 cycles: 59949086 heartbeat IPC: 1.06668 cumulative IPC: 1.00085 (Simulation time: 1 hr 44 min 42 sec) 
 Total Blocks : 262144 Invalid Blocks : 0
Heartbeat CPU 7 instructions: 60000002 cycles: 59951877 heartbeat IPC: 1.06654 cumulative IPC: 1.0008 (Simulation time: 1 hr 44 min 43 sec) 
 Total Blocks : 262144 Invalid Blocks : 0
Heartbeat CPU 0 instructions: 70000001 cycles: 69243455 heartbeat IPC: 1.07336 cumulative IPC: 1.01093 (Simulation time: 2 hr 14 min 15 sec) 
 Total Blocks : 262144 Invalid Blocks : 0
Heartbeat CPU 1 instructions: 70000000 cycles: 69251799 heartbeat IPC: 1.0729 cumulative IPC: 1.0108 (Simulation time: 2 hr 14 min 16 sec) 
 Total Blocks : 262144 Invalid Blocks : 0
Heartbeat CPU 2 instructions: 70000000 cycles: 69258914 heartbeat IPC: 1.07264 cumulative IPC: 1.0107 (Simulation time: 2 hr 14 min 18 sec) 
 Total Blocks : 262144 Invalid Blocks : 0
Heartbeat CPU 3 instructions: 70000000 cycles: 69264701 heartbeat IPC: 1.07237 cumulative IPC: 1.01062 (Simulation time: 2 hr 14 min 19 sec) 
 Total Blocks : 262144 Invalid Blocks : 0
Heartbeat CPU 4 instructions: 70000000 cycles: 69269435 heartbeat IPC: 1.07208 cumulative IPC: 1.01055 (Simulation time: 2 hr 14 min 20 sec) 
 Total Blocks : 262144 Invalid Blocks : 0
Heartbeat CPU 5 instructions: 70000000 cycles: 69276173 heartbeat IPC: 1.07184 cumulative IPC: 1.01045 (Simulation time: 2 hr 14 min 22 sec) 
 Total Blocks : 262144 Invalid Blocks : 0
Heartbeat CPU 6 instructions: 70000000 cycles: 69280406 heartbeat IPC: 1.07166 cumulative IPC: 1.01039 (Simulation time: 2 hr 14 min 23 sec) 
 Total Blocks : 262144 Invalid Blocks : 0
Heartbeat CPU 7 instructions: 70000002 cycles: 69285553 heartbeat IPC: 1.07139 cumulative IPC: 1.01031 (Simulation time: 2 hr 14 min 24 sec) 
 Total Blocks : 262144 Invalid Blocks : 0
Heartbeat CPU 0 instructions: 80000000 cycles: 78807934 heartbeat IPC: 1.04554 cumulative IPC: 1.01513 (Simulation time: 2 hr 45 min 3 sec) 
 Total Blocks : 262144 Invalid Blocks : 0
Heartbeat CPU 1 instructions: 80000000 cycles: 78820441 heartbeat IPC: 1.04508 cumulative IPC: 1.01497 (Simulation time: 2 hr 45 min 5 sec) 
 Total Blocks : 262144 Invalid Blocks : 0
Heartbeat CPU 2 instructions: 80000000 cycles: 78830433 heartbeat IPC: 1.04477 cumulative IPC: 1.01484 (Simulation time: 2 hr 45 min 7 sec) 
 Total Blocks : 262144 Invalid Blocks : 0
Heartbeat CPU 3 instructions: 80000000 cycles: 78838862 heartbeat IPC: 1.04448 cumulative IPC: 1.01473 (Simulation time: 2 hr 45 min 8 sec) 
 Total Blocks : 262144 Invalid Blocks : 0
Heartbeat CPU 4 instructions: 80000000 cycles: 78845452 heartbeat IPC: 1.04428 cumulative IPC: 1.01464 (Simulation time: 2 hr 45 min 9 sec) 
 Total Blocks : 262144 Invalid Blocks : 0
Heartbeat CPU 5 instructions: 80000000 cycles: 78854197 heartbeat IPC: 1.04406 cumulative IPC: 1.01453 (Simulation time: 2 hr 45 min 11 sec) 
 Total Blocks : 262144 Invalid Blocks : 0
Heartbeat CPU 6 instructions: 80000000 cycles: 78860563 heartbeat IPC: 1.04382 cumulative IPC: 1.01445 (Simulation time: 2 hr 45 min 12 sec) 
 Total Blocks : 262144 Invalid Blocks : 0
Heartbeat CPU 7 instructions: 80000000 cycles: 78867360 heartbeat IPC: 1.04364 cumulative IPC: 1.01436 (Simulation time: 2 hr 45 min 13 sec) 
 Total Blocks : 262144 Invalid Blocks : 0
Heartbeat CPU 0 instructions: 90000000 cycles: 87915361 heartbeat IPC: 1.098 cumulative IPC: 1.02371 (Simulation time: 3 hr 16 min 14 sec) 
 Total Blocks : 262144 Invalid Blocks : 0
Heartbeat CPU 1 instructions: 90000000 cycles: 87930548 heartbeat IPC: 1.09768 cumulative IPC: 1.02354 (Simulation time: 3 hr 16 min 17 sec) 
 Total Blocks : 262144 Invalid Blocks : 0
Heartbeat CPU 2 instructions: 90000000 cycles: 87943772 heartbeat IPC: 1.09729 cumulative IPC: 1.02338 (Simulation time: 3 hr 16 min 19 sec) 
 Total Blocks : 262144 Invalid Blocks : 0
Heartbeat CPU 3 instructions: 90000000 cycles: 87954849 heartbeat IPC: 1.09697 cumulative IPC: 1.02325 (Simulation time: 3 hr 16 min 21 sec) 
 Total Blocks : 262144 Invalid Blocks : 0
Heartbeat CPU 4 instructions: 90000000 cycles: 87963090 heartbeat IPC: 1.09678 cumulative IPC: 1.02316 (Simulation time: 3 hr 16 min 23 sec) 
 Total Blocks : 262144 Invalid Blocks : 0
Heartbeat CPU 5 instructions: 90000000 cycles: 87973598 heartbeat IPC: 1.09656 cumulative IPC: 1.02303 (Simulation time: 3 hr 16 min 25 sec) 
 Total Blocks : 262144 Invalid Blocks : 0
Heartbeat CPU 6 instructions: 90000000 cycles: 87982713 heartbeat IPC: 1.09623 cumulative IPC: 1.02293 (Simulation time: 3 hr 16 min 27 sec) 
 Total Blocks : 262144 Invalid Blocks : 0
Heartbeat CPU 7 instructions: 90000000 cycles: 87990821 heartbeat IPC: 1.09608 cumulative IPC: 1.02283 (Simulation time: 3 hr 16 min 28 sec) 
 Total Blocks : 262144 Invalid Blocks : 0
Heartbeat CPU 0 instructions: 100000002 cycles: 97072765 heartbeat IPC: 1.09201 cumulative IPC: 1.03016 (Simulation time: 3 hr 47 min 40 sec) 
 Total Blocks : 262144 Invalid Blocks : 0
Heartbeat CPU 1 instructions: 100000002 cycles: 97091256 heartbeat IPC: 1.09162 cumulative IPC: 1.02996 (Simulation time: 3 hr 47 min 43 sec) 
 Total Blocks : 262144 Invalid Blocks : 0
Heartbeat CPU 2 instructions: 100000002 cycles: 97107328 heartbeat IPC: 1.09128 cumulative IPC: 1.02979 (Simulation time: 3 hr 47 min 47 sec) 
 Total Blocks : 262144 Invalid Blocks : 0
Heartbeat CPU 3 instructions: 100000002 cycles: 97120354 heartbeat IPC: 1.09105 cumulative IPC: 1.02965 (Simulation time: 3 hr 47 min 50 sec) 
 Total Blocks : 262144 Invalid Blocks : 0
Heartbeat CPU 4 instructions: 100000002 cycles: 97130074 heartbeat IPC: 1.09087 cumulative IPC: 1.02955 (Simulation time: 3 hr 47 min 51 sec) 
 Total Blocks : 262144 Invalid Blocks : 0
Heartbeat CPU 5 instructions: 100000002 cycles: 97143435 heartbeat IPC: 1.09053 cumulative IPC: 1.02941 (Simulation time: 3 hr 47 min 53 sec) 
 Total Blocks : 262144 Invalid Blocks : 0
Heartbeat CPU 6 instructions: 100000002 cycles: 97153835 heartbeat IPC: 1.09038 cumulative IPC: 1.0293 (Simulation time: 3 hr 47 min 55 sec) 
 Total Blocks : 262144 Invalid Blocks : 0
Heartbeat CPU 7 instructions: 100000002 cycles: 97163844 heartbeat IPC: 1.09015 cumulative IPC: 1.02919 (Simulation time: 3 hr 47 min 57 sec) 
 Total Blocks : 262144 Invalid Blocks : 0
Heartbeat CPU 0 instructions: 110000000 cycles: 106440589 heartbeat IPC: 1.06748 cumulative IPC: 1.03344 (Simulation time: 4 hr 19 min 25 sec) 
 Total Blocks : 262144 Invalid Blocks : 0
Heartbeat CPU 1 instructions: 110000000 cycles: 106462609 heartbeat IPC: 1.06708 cumulative IPC: 1.03323 (Simulation time: 4 hr 19 min 29 sec) 
 Total Blocks : 262144 Invalid Blocks : 0
Heartbeat CPU 2 instructions: 110000000 cycles: 106480492 heartbeat IPC: 1.06688 cumulative IPC: 1.03305 (Simulation time: 4 hr 19 min 31 sec) 
 Total Blocks : 262144 Invalid Blocks : 0
Heartbeat CPU 3 instructions: 110000000 cycles: 106496948 heartbeat IPC: 1.06649 cumulative IPC: 1.03289 (Simulation time: 4 hr 19 min 34 sec) 
 Total Blocks : 262144 Invalid Blocks : 0
Heartbeat CPU 4 instructions: 110000000 cycles: 106508260 heartbeat IPC: 1.0663 cumulative IPC: 1.03278 (Simulation time: 4 hr 19 min 35 sec) 
 Total Blocks : 262144 Invalid Blocks : 0
Heartbeat CPU 5 instructions: 110000000 cycles: 106523685 heartbeat IPC: 1.06607 cumulative IPC: 1.03263 (Simulation time: 4 hr 19 min 38 sec) 
 Total Blocks : 262144 Invalid Blocks : 0
Heartbeat CPU 6 instructions: 110000000 cycles: 106536547 heartbeat IPC: 1.06579 cumulative IPC: 1.03251 (Simulation time: 4 hr 19 min 40 sec) 
 Total Blocks : 262144 Invalid Blocks : 0
Heartbeat CPU 7 instructions: 110000000 cycles: 106548629 heartbeat IPC: 1.06555 cumulative IPC: 1.03239 (Simulation time: 4 hr 19 min 42 sec) 
 Total Blocks : 262144 Invalid Blocks : 0
Heartbeat CPU 0 instructions: 120000000 cycles: 115940360 heartbeat IPC: 1.05266 cumulative IPC: 1.03501 (Simulation time: 4 hr 51 min 4 sec) 
 Total Blocks : 262144 Invalid Blocks : 0
Heartbeat CPU 1 instructions: 120000000 cycles: 115966588 heartbeat IPC: 1.05219 cumulative IPC: 1.03478 (Simulation time: 4 hr 51 min 8 sec) 
 Total Blocks : 262144 Invalid Blocks : 0
Heartbeat CPU 2 instructions: 120000000 cycles: 115987056 heartbeat IPC: 1.0519 cumulative IPC: 1.0346 (Simulation time: 4 hr 51 min 11 sec) 
 Total Blocks : 262144 Invalid Blocks : 0
Heartbeat CPU 3 instructions: 120000000 cycles: 116005739 heartbeat IPC: 1.05166 cumulative IPC: 1.03443 (Simulation time: 4 hr 51 min 15 sec) 
 Total Blocks : 262144 Invalid Blocks : 0
Heartbeat CPU 4 instructions: 120000000 cycles: 116019179 heartbeat IPC: 1.05142 cumulative IPC: 1.03431 (Simulation time: 4 hr 51 min 17 sec) 
 Total Blocks : 262144 Invalid Blocks : 0
Heartbeat CPU 5 instructions: 120000000 cycles: 116036826 heartbeat IPC: 1.05118 cumulative IPC: 1.03415 (Simulation time: 4 hr 51 min 21 sec) 
 Total Blocks : 262144 Invalid Blocks : 0
Heartbeat CPU 6 instructions: 120000000 cycles: 116052025 heartbeat IPC: 1.05092 cumulative IPC: 1.03402 (Simulation time: 4 hr 51 min 24 sec) 
 Total Blocks : 262144 Invalid Blocks : 0
Heartbeat CPU 7 instructions: 120000000 cycles: 116065914 heartbeat IPC: 1.05072 cumulative IPC: 1.0339 (Simulation time: 4 hr 51 min 27 sec) 
 Total Blocks : 262144 Invalid Blocks : 0
Heartbeat CPU 0 instructions: 130000001 cycles: 125635609 heartbeat IPC: 1.03143 cumulative IPC: 1.03474 (Simulation time: 5 hr 22 min 35 sec) 
 Total Blocks : 262144 Invalid Blocks : 0
Heartbeat CPU 1 instructions: 130000002 cycles: 125665910 heartbeat IPC: 1.031 cumulative IPC: 1.03449 (Simulation time: 5 hr 22 min 42 sec) 
 Total Blocks : 262144 Invalid Blocks : 0
Heartbeat CPU 2 instructions: 130000003 cycles: 125689410 heartbeat IPC: 1.03068 cumulative IPC: 1.0343 (Simulation time: 5 hr 22 min 48 sec) 
 Total Blocks : 262144 Invalid Blocks : 0
Heartbeat CPU 3 instructions: 130000001 cycles: 125710393 heartbeat IPC: 1.03043 cumulative IPC: 1.03412 (Simulation time: 5 hr 22 min 52 sec) 
 Total Blocks : 262144 Invalid Blocks : 0
Heartbeat CPU 4 instructions: 130000001 cycles: 125726183 heartbeat IPC: 1.03018 cumulative IPC: 1.03399 (Simulation time: 5 hr 22 min 56 sec) 
 Total Blocks : 262144 Invalid Blocks : 0
Heartbeat CPU 5 instructions: 130000001 cycles: 125746298 heartbeat IPC: 1.02992 cumulative IPC: 1.03383 (Simulation time: 5 hr 23 min 1 sec) 
 Total Blocks : 262144 Invalid Blocks : 0
Heartbeat CPU 6 instructions: 130000001 cycles: 125763583 heartbeat IPC: 1.0297 cumulative IPC: 1.03369 (Simulation time: 5 hr 23 min 4 sec) 
 Total Blocks : 262144 Invalid Blocks : 0
Heartbeat CPU 7 instructions: 130000001 cycles: 125779646 heartbeat IPC: 1.02947 cumulative IPC: 1.03355 (Simulation time: 5 hr 23 min 7 sec) 
 Total Blocks : 262144 Invalid Blocks : 0
Heartbeat CPU 0 instructions: 140000000 cycles: 134956104 heartbeat IPC: 1.0729 cumulative IPC: 1.03737 (Simulation time: 5 hr 54 min 34 sec) 
 Total Blocks : 262144 Invalid Blocks : 0
Heartbeat CPU 1 instructions: 140000000 cycles: 134989823 heartbeat IPC: 1.07251 cumulative IPC: 1.03712 (Simulation time: 5 hr 54 min 41 sec) 
 Total Blocks : 262144 Invalid Blocks : 0
Heartbeat CPU 2 instructions: 140000000 cycles: 135016042 heartbeat IPC: 1.0722 cumulative IPC: 1.03691 (Simulation time: 5 hr 54 min 47 sec) 
 Total Blocks : 262144 Invalid Blocks : 0
Heartbeat CPU 3 instructions: 140000000 cycles: 135038743 heartbeat IPC: 1.072 cumulative IPC: 1.03674 (Simulation time: 5 hr 54 min 52 sec) 
 Total Blocks : 262144 Invalid Blocks : 0
Heartbeat CPU 4 instructions: 140000000 cycles: 135057530 heartbeat IPC: 1.07166 cumulative IPC: 1.0366 (Simulation time: 5 hr 54 min 56 sec) 
 Total Blocks : 262144 Invalid Blocks : 0
Heartbeat CPU 5 instructions: 140000000 cycles: 135079313 heartbeat IPC: 1.07147 cumulative IPC: 1.03643 (Simulation time: 5 hr 55 min 0 sec) 
 Total Blocks : 262144 Invalid Blocks : 0
Heartbeat CPU 6 instructions: 140000000 cycles: 135098852 heartbeat IPC: 1.07121 cumulative IPC: 1.03628 (Simulation time: 5 hr 55 min 4 sec) 
 Total Blocks : 262144 Invalid Blocks : 0
Heartbeat CPU 7 instructions: 140000000 cycles: 135117140 heartbeat IPC: 1.07095 cumulative IPC: 1.03614 (Simulation time: 5 hr 55 min 8 sec) 
 Total Blocks : 262144 Invalid Blocks : 0
Heartbeat CPU 0 instructions: 150000000 cycles: 144034231 heartbeat IPC: 1.10155 cumulative IPC: 1.04142 (Simulation time: 6 hr 26 min 55 sec) 
 Total Blocks : 262144 Invalid Blocks : 0
Heartbeat CPU 1 instructions: 150000000 cycles: 144071741 heartbeat IPC: 1.10109 cumulative IPC: 1.04115 (Simulation time: 6 hr 27 min 2 sec) 
 Total Blocks : 262144 Invalid Blocks : 0
Heartbeat CPU 2 instructions: 150000000 cycles: 144100624 heartbeat IPC: 1.10077 cumulative IPC: 1.04094 (Simulation time: 6 hr 27 min 7 sec) 
 Total Blocks : 262144 Invalid Blocks : 0
Heartbeat CPU 3 instructions: 150000000 cycles: 144125811 heartbeat IPC: 1.10046 cumulative IPC: 1.04076 (Simulation time: 6 hr 27 min 11 sec) 
 Total Blocks : 262144 Invalid Blocks : 0
Heartbeat CPU 4 instructions: 150000000 cycles: 144146076 heartbeat IPC: 1.10029 cumulative IPC: 1.04061 (Simulation time: 6 hr 27 min 15 sec) 
 Total Blocks : 262144 Invalid Blocks : 0
Heartbeat CPU 5 instructions: 150000000 cycles: 144170241 heartbeat IPC: 1.1 cumulative IPC: 1.04044 (Simulation time: 6 hr 27 min 20 sec) 
 Total Blocks : 262144 Invalid Blocks : 0
Heartbeat CPU 6 instructions: 150000000 cycles: 144191582 heartbeat IPC: 1.09978 cumulative IPC: 1.04028 (Simulation time: 6 hr 27 min 25 sec) 
 Total Blocks : 262144 Invalid Blocks : 0
Heartbeat CPU 7 instructions: 150000000 cycles: 144212585 heartbeat IPC: 1.09945 cumulative IPC: 1.04013 (Simulation time: 6 hr 27 min 29 sec) 
 Total Blocks : 262144 Invalid Blocks : 0
Heartbeat CPU 0 instructions: 160000002 cycles: 153289117 heartbeat IPC: 1.08051 cumulative IPC: 1.04378 (Simulation time: 6 hr 59 min 23 sec) 
 Total Blocks : 262144 Invalid Blocks : 0
Heartbeat CPU 1 instructions: 160000002 cycles: 153329776 heartbeat IPC: 1.08014 cumulative IPC: 1.0435 (Simulation time: 6 hr 59 min 33 sec) 
 Total Blocks : 262144 Invalid Blocks : 0
Heartbeat CPU 2 instructions: 160000003 cycles: 153361545 heartbeat IPC: 1.07981 cumulative IPC: 1.04329 (Simulation time: 6 hr 59 min 40 sec) 
 Total Blocks : 262144 Invalid Blocks : 0
Heartbeat CPU 3 instructions: 160000002 cycles: 153388937 heartbeat IPC: 1.07955 cumulative IPC: 1.0431 (Simulation time: 6 hr 59 min 46 sec) 
 Total Blocks : 262144 Invalid Blocks : 0
Heartbeat CPU 4 instructions: 160000003 cycles: 153411963 heartbeat IPC: 1.07923 cumulative IPC: 1.04294 (Simulation time: 6 hr 59 min 52 sec) 
 Total Blocks : 262144 Invalid Blocks : 0
Heartbeat CPU 5 instructions: 160000002 cycles: 153437776 heartbeat IPC: 1.07904 cumulative IPC: 1.04277 (Simulation time: 6 hr 59 min 57 sec) 
 Total Blocks : 262144 Invalid Blocks : 0
Heartbeat CPU 6 instructions: 160000002 cycles: 153462098 heartbeat IPC: 1.07869 cumulative IPC: 1.0426 (Simulation time: 7 hr 0 min 2 sec) 
 Total Blocks : 262144 Invalid Blocks : 0
Heartbeat CPU 7 instructions: 160000002 cycles: 153484095 heartbeat IPC: 1.07857 cumulative IPC: 1.04245 (Simulation time: 7 hr 0 min 6 sec) 
 Total Blocks : 262144 Invalid Blocks : 0
Heartbeat CPU 0 instructions: 170000003 cycles: 162934521 heartbeat IPC: 1.03676 cumulative IPC: 1.04336 (Simulation time: 7 hr 32 min 13 sec) 
 Total Blocks : 262144 Invalid Blocks : 0
Heartbeat CPU 1 instructions: 170000001 cycles: 162978947 heartbeat IPC: 1.03636 cumulative IPC: 1.04308 (Simulation time: 7 hr 32 min 24 sec) 
 Total Blocks : 262144 Invalid Blocks : 0
Heartbeat CPU 2 instructions: 170000003 cycles: 163013681 heartbeat IPC: 1.03604 cumulative IPC: 1.04286 (Simulation time: 7 hr 32 min 33 sec) 
 Total Blocks : 262144 Invalid Blocks : 0
Heartbeat CPU 3 instructions: 170000003 cycles: 163042342 heartbeat IPC: 1.0359 cumulative IPC: 1.04267 (Simulation time: 7 hr 32 min 40 sec) 
 Total Blocks : 262144 Invalid Blocks : 0
Heartbeat CPU 4 instructions: 170000001 cycles: 163068730 heartbeat IPC: 1.03554 cumulative IPC: 1.04251 (Simulation time: 7 hr 32 min 46 sec) 
 Total Blocks : 262144 Invalid Blocks : 0
Heartbeat CPU 5 instructions: 170000001 cycles: 163096286 heartbeat IPC: 1.03536 cumulative IPC: 1.04233 (Simulation time: 7 hr 32 min 53 sec) 
 Total Blocks : 262144 Invalid Blocks : 0
Heartbeat CPU 6 instructions: 170000003 cycles: 163122998 heartbeat IPC: 1.0351 cumulative IPC: 1.04216 (Simulation time: 7 hr 32 min 59 sec) 
 Total Blocks : 262144 Invalid Blocks : 0
Heartbeat CPU 7 instructions: 170000003 cycles: 163147261 heartbeat IPC: 1.03486 cumulative IPC: 1.042 (Simulation time: 7 hr 33 min 4 sec) 
 Total Blocks : 262144 Invalid Blocks : 0
Heartbeat CPU 0 instructions: 180000002 cycles: 172243901 heartbeat IPC: 1.07419 cumulative IPC: 1.04503 (Simulation time: 8 hr 5 min 2 sec) 
 Total Blocks : 262144 Invalid Blocks : 0
Heartbeat CPU 1 instructions: 180000001 cycles: 172291403 heartbeat IPC: 1.07383 cumulative IPC: 1.04474 (Simulation time: 8 hr 5 min 15 sec) 
 Total Blocks : 262144 Invalid Blocks : 0
Heartbeat CPU 2 instructions: 180000001 cycles: 172328650 heartbeat IPC: 1.07354 cumulative IPC: 1.04452 (Simulation time: 8 hr 5 min 26 sec) 
 Total Blocks : 262144 Invalid Blocks : 0
Heartbeat CPU 3 instructions: 180000001 cycles: 172360036 heartbeat IPC: 1.07323 cumulative IPC: 1.04433 (Simulation time: 8 hr 5 min 36 sec) 
 Total Blocks : 262144 Invalid Blocks : 0
Heartbeat CPU 4 instructions: 180000000 cycles: 172388306 heartbeat IPC: 1.07301 cumulative IPC: 1.04415 (Simulation time: 8 hr 5 min 44 sec) 
 Total Blocks : 262144 Invalid Blocks : 0
Heartbeat CPU 5 instructions: 180000000 cycles: 172418485 heartbeat IPC: 1.07271 cumulative IPC: 1.04397 (Simulation time: 8 hr 5 min 53 sec) 
 Total Blocks : 262144 Invalid Blocks : 0
Heartbeat CPU 6 instructions: 180000001 cycles: 172446795 heartbeat IPC: 1.07252 cumulative IPC: 1.0438 (Simulation time: 8 hr 6 min 2 sec) 
 Total Blocks : 262144 Invalid Blocks : 0
Heartbeat CPU 7 instructions: 180000001 cycles: 172473005 heartbeat IPC: 1.0723 cumulative IPC: 1.04364 (Simulation time: 8 hr 6 min 10 sec) 
 Total Blocks : 262144 Invalid Blocks : 0
Heartbeat CPU 0 instructions: 190000003 cycles: 181341629 heartbeat IPC: 1.09918 cumulative IPC: 1.04775 (Simulation time: 8 hr 39 min 0 sec) 
 Total Blocks : 262144 Invalid Blocks : 0
Heartbeat CPU 1 instructions: 190000003 cycles: 181392085 heartbeat IPC: 1.09882 cumulative IPC: 1.04745 (Simulation time: 8 hr 39 min 11 sec) 
 Total Blocks : 262144 Invalid Blocks : 0
Heartbeat CPU 2 instructions: 190000003 cycles: 181432495 heartbeat IPC: 1.09844 cumulative IPC: 1.04722 (Simulation time: 8 hr 39 min 18 sec) 
 Total Blocks : 262144 Invalid Blocks : 0
Heartbeat CPU 3 instructions: 190000003 cycles: 181465588 heartbeat IPC: 1.09823 cumulative IPC: 1.04703 (Simulation time: 8 hr 39 min 24 sec) 
 Total Blocks : 262144 Invalid Blocks : 0
Heartbeat CPU 4 instructions: 190000003 cycles: 181496583 heartbeat IPC: 1.0979 cumulative IPC: 1.04685 (Simulation time: 8 hr 39 min 30 sec) 
 Total Blocks : 262144 Invalid Blocks : 0
Heartbeat CPU 5 instructions: 190000003 cycles: 181528493 heartbeat IPC: 1.09769 cumulative IPC: 1.04667 (Simulation time: 8 hr 39 min 36 sec) 
 Total Blocks : 262144 Invalid Blocks : 0
Heartbeat CPU 6 instructions: 190000001 cycles: 181558793 heartbeat IPC: 1.09745 cumulative IPC: 1.04649 (Simulation time: 8 hr 39 min 42 sec) 
 Total Blocks : 262144 Invalid Blocks : 0
Heartbeat CPU 7 instructions: 190000001 cycles: 181587198 heartbeat IPC: 1.09719 cumulative IPC: 1.04633 (Simulation time: 8 hr 39 min 48 sec) 
 Total Blocks : 262144 Invalid Blocks : 0
Heartbeat CPU 0 instructions: 200000000 cycles: 190767392 heartbeat IPC: 1.06092 cumulative IPC: 1.0484 (Simulation time: 9 hr 13 min 32 sec) 
 Total Blocks : 262144 Invalid Blocks : 0
Heartbeat CPU 1 instructions: 200000000 cycles: 190821364 heartbeat IPC: 1.06053 cumulative IPC: 1.0481 (Simulation time: 9 hr 13 min 44 sec) 
 Total Blocks : 262144 Invalid Blocks : 0
Heartbeat CPU 2 instructions: 200000000 cycles: 190864196 heartbeat IPC: 1.06025 cumulative IPC: 1.04787 (Simulation time: 9 hr 13 min 53 sec) 
 Total Blocks : 262144 Invalid Blocks : 0
Heartbeat CPU 3 instructions: 200000000 cycles: 190899747 heartbeat IPC: 1.05998 cumulative IPC: 1.04767 (Simulation time: 9 hr 14 min 1 sec) 
 Total Blocks : 262144 Invalid Blocks : 0
Heartbeat CPU 4 instructions: 200000000 cycles: 190933234 heartbeat IPC: 1.0597 cumulative IPC: 1.04749 (Simulation time: 9 hr 14 min 8 sec) 
 Total Blocks : 262144 Invalid Blocks : 0
Heartbeat CPU 5 instructions: 200000000 cycles: 190967348 heartbeat IPC: 1.05945 cumulative IPC: 1.0473 (Simulation time: 9 hr 14 min 14 sec) 
 Total Blocks : 262144 Invalid Blocks : 0
Heartbeat CPU 6 instructions: 200000000 cycles: 190999524 heartbeat IPC: 1.05924 cumulative IPC: 1.04712 (Simulation time: 9 hr 14 min 21 sec) 
 Total Blocks : 262144 Invalid Blocks : 0
Heartbeat CPU 7 instructions: 200000000 cycles: 191029444 heartbeat IPC: 1.05907 cumulative IPC: 1.04696 (Simulation time: 9 hr 14 min 27 sec) 
 Total Blocks : 262144 Invalid Blocks : 0

Warmup complete CPU 0 instructions: 200233987 cycles: 191029445 (Simulation time: 9 hr 14 min 27 sec) 
Warmup complete CPU 1 instructions: 200172732 cycles: 191029445 (Simulation time: 9 hr 14 min 27 sec) 
Warmup complete CPU 2 instructions: 200140061 cycles: 191029445 (Simulation time: 9 hr 14 min 27 sec) 
Warmup complete CPU 3 instructions: 200106516 cycles: 191029445 (Simulation time: 9 hr 14 min 27 sec) 
Warmup complete CPU 4 instructions: 200073763 cycles: 191029445 (Simulation time: 9 hr 14 min 27 sec) 
Warmup complete CPU 5 instructions: 200051269 cycles: 191029445 (Simulation time: 9 hr 14 min 27 sec) 
Warmup complete CPU 6 instructions: 200029671 cycles: 191029445 (Simulation time: 9 hr 14 min 27 sec) 
Warmup complete CPU 7 instructions: 200000001 cycles: 191029445 (Simulation time: 9 hr 14 min 27 sec) 

Heartbeat CPU 0 instructions: 210000000 cycles: 316550019 heartbeat IPC: 0.0795022 cumulative IPC: 0.0778041 (Simulation time: 10 hr 37 min 2 sec) 
 Total Blocks : 262144 Invalid Blocks : 0
Heartbeat CPU 1 instructions: 210000000 cycles: 317790031 heartbeat IPC: 0.0787596 cumulative IPC: 0.0775262 (Simulation time: 10 hr 37 min 48 sec) 
 Total Blocks : 262144 Invalid Blocks : 0
Heartbeat CPU 2 instructions: 210000000 cycles: 318061979 heartbeat IPC: 0.0786177 cumulative IPC: 0.0776174 (Simulation time: 10 hr 37 min 56 sec) 
 Total Blocks : 262144 Invalid Blocks : 0
Heartbeat CPU 3 instructions: 210000000 cycles: 318570935 heartbeat IPC: 0.0783262 cumulative IPC: 0.0775707 (Simulation time: 10 hr 38 min 15 sec) 
 Total Blocks : 262144 Invalid Blocks : 0
Heartbeat CPU 4 instructions: 210000000 cycles: 318734560 heartbeat IPC: 0.0782465 cumulative IPC: 0.0777278 (Simulation time: 10 hr 38 min 19 sec) 
 Total Blocks : 262144 Invalid Blocks : 0
Heartbeat CPU 5 instructions: 210000000 cycles: 319286159 heartbeat IPC: 0.0779309 cumulative IPC: 0.0775689 (Simulation time: 10 hr 38 min 37 sec) 
 Total Blocks : 262144 Invalid Blocks : 0
Heartbeat CPU 6 instructions: 210000000 cycles: 319535541 heartbeat IPC: 0.0777992 cumulative IPC: 0.0775864 (Simulation time: 10 hr 38 min 46 sec) 
 Total Blocks : 262144 Invalid Blocks : 0
Heartbeat CPU 7 instructions: 210000000 cycles: 320329486 heartbeat IPC: 0.0773395 cumulative IPC: 0.0773395 (Simulation time: 10 hr 39 min 13 sec) 
 Total Blocks : 262144 Invalid Blocks : 0
Heartbeat CPU 0 instructions: 220000000 cycles: 443614412 heartbeat IPC: 0.0787003 cumulative IPC: 0.0782549 (Simulation time: 12 hr 2 min 24 sec) 
 Total Blocks : 262144 Invalid Blocks : 0
Heartbeat CPU 1 instructions: 220000000 cycles: 445067204 heartbeat IPC: 0.0785687 cumulative IPC: 0.0780485 (Simulation time: 12 hr 3 min 24 sec) 
 Total Blocks : 262144 Invalid Blocks : 0
Heartbeat CPU 2 instructions: 220000000 cycles: 445416131 heartbeat IPC: 0.0785212 cumulative IPC: 0.0780699 (Simulation time: 12 hr 3 min 39 sec) 
 Total Blocks : 262144 Invalid Blocks : 0
Heartbeat CPU 3 instructions: 220000000 cycles: 445852833 heartbeat IPC: 0.0785658 cumulative IPC: 0.0780677 (Simulation time: 12 hr 4 min 0 sec) 
 Total Blocks : 262144 Invalid Blocks : 0
Heartbeat CPU 4 instructions: 220000000 cycles: 446014495 heartbeat IPC: 0.078567 cumulative IPC: 0.0781467 (Simulation time: 12 hr 4 min 7 sec) 
 Total Blocks : 262144 Invalid Blocks : 0
Heartbeat CPU 5 instructions: 220000000 cycles: 446516081 heartbeat IPC: 0.0785979 cumulative IPC: 0.0780813 (Simulation time: 12 hr 4 min 31 sec) 
 Total Blocks : 262144 Invalid Blocks : 0
Heartbeat CPU 6 instructions: 220000000 cycles: 446873542 heartbeat IPC: 0.0785312 cumulative IPC: 0.0780566 (Simulation time: 12 hr 4 min 49 sec) 
 Total Blocks : 262144 Invalid Blocks : 0
Heartbeat CPU 7 instructions: 220000000 cycles: 447455634 heartbeat IPC: 0.078662 cumulative IPC: 0.0779952 (Simulation time: 12 hr 5 min 17 sec) 
 Total Blocks : 262144 Invalid Blocks : 0
Heartbeat CPU 0 instructions: 230000002 cycles: 574447446 heartbeat IPC: 0.0764333 cumulative IPC: 0.0776333 (Simulation time: 13 hr 29 min 21 sec) 
 Total Blocks : 262144 Invalid Blocks : 0
Heartbeat CPU 1 instructions: 230000002 cycles: 575894735 heartbeat IPC: 0.0764365 cumulative IPC: 0.0775005 (Simulation time: 13 hr 30 min 19 sec) 
 Total Blocks : 262144 Invalid Blocks : 0
Heartbeat CPU 3 instructions: 230000002 cycles: 576517368 heartbeat IPC: 0.0765319 cumulative IPC: 0.0775471 (Simulation time: 13 hr 30 min 44 sec) 
 Total Blocks : 262144 Invalid Blocks : 0
Heartbeat CPU 2 instructions: 230000002 cycles: 576551317 heartbeat IPC: 0.0762572 cumulative IPC: 0.0774533 (Simulation time: 13 hr 30 min 45 sec) 
 Total Blocks : 262144 Invalid Blocks : 0
Heartbeat CPU 4 instructions: 230000002 cycles: 576709205 heartbeat IPC: 0.0765142 cumulative IPC: 0.0775935 (Simulation time: 13 hr 30 min 52 sec) 
 Total Blocks : 262144 Invalid Blocks : 0
Heartbeat CPU 5 instructions: 230000002 cycles: 577039373 heartbeat IPC: 0.0766147 cumulative IPC: 0.0775854 (Simulation time: 13 hr 31 min 5 sec) 
 Total Blocks : 262144 Invalid Blocks : 0
Heartbeat CPU 6 instructions: 230000002 cycles: 577911131 heartbeat IPC: 0.076314 cumulative IPC: 0.0774664 (Simulation time: 13 hr 31 min 41 sec) 
 Total Blocks : 262144 Invalid Blocks : 0
Heartbeat CPU 7 instructions: 230000002 cycles: 578623419 heartbeat IPC: 0.0762382 cumulative IPC: 0.0774006 (Simulation time: 13 hr 32 min 10 sec) 
 Total Blocks : 262144 Invalid Blocks : 0
Heartbeat CPU 0 instructions: 240000002 cycles: 702937242 heartbeat IPC: 0.0778272 cumulative IPC: 0.077682 (Simulation time: 14 hr 58 min 17 sec) 
 Total Blocks : 262144 Invalid Blocks : 0
Heartbeat CPU 1 instructions: 240000002 cycles: 704966353 heartbeat IPC: 0.0774764 cumulative IPC: 0.0774945 (Simulation time: 14 hr 59 min 35 sec) 
 Total Blocks : 262144 Invalid Blocks : 0
Heartbeat CPU 3 instructions: 240000002 cycles: 704976700 heartbeat IPC: 0.0778456 cumulative IPC: 0.0776218 (Simulation time: 14 hr 59 min 35 sec) 
 Total Blocks : 262144 Invalid Blocks : 0
Heartbeat CPU 2 instructions: 240000002 cycles: 705157193 heartbeat IPC: 0.0777569 cumulative IPC: 0.0775293 (Simulation time: 14 hr 59 min 41 sec) 
 Total Blocks : 262144 Invalid Blocks : 0
Heartbeat CPU 4 instructions: 240000001 cycles: 705581725 heartbeat IPC: 0.0775961 cumulative IPC: 0.0775941 (Simulation time: 15 hr 0 min 1 sec) 
 Total Blocks : 262144 Invalid Blocks : 0
Heartbeat CPU 5 instructions: 240000002 cycles: 705809667 heartbeat IPC: 0.0776577 cumulative IPC: 0.0776035 (Simulation time: 15 hr 0 min 15 sec) 
 Total Blocks : 262144 Invalid Blocks : 0
Heartbeat CPU 6 instructions: 240000002 cycles: 706424100 heartbeat IPC: 0.0778132 cumulative IPC: 0.0775529 (Simulation time: 15 hr 0 min 42 sec) 
 Total Blocks : 262144 Invalid Blocks : 0
Heartbeat CPU 7 instructions: 240000001 cycles: 707544245 heartbeat IPC: 0.077567 cumulative IPC: 0.0774421 (Simulation time: 15 hr 1 min 35 sec) 
 Total Blocks : 262144 Invalid Blocks : 0
Heartbeat CPU 0 instructions: 250000001 cycles: 832727578 heartbeat IPC: 0.0770473 cumulative IPC: 0.0775536 (Simulation time: 16 hr 27 min 40 sec) 
 Total Blocks : 262144 Invalid Blocks : 0
Heartbeat CPU 1 instructions: 250000001 cycles: 834734121 heartbeat IPC: 0.0770607 cumulative IPC: 0.077407 (Simulation time: 16 hr 29 min 3 sec) 
 Total Blocks : 262144 Invalid Blocks : 0
Heartbeat CPU 3 instructions: 250000001 cycles: 834801929 heartbeat IPC: 0.0770266 cumulative IPC: 0.0775017 (Simulation time: 16 hr 29 min 5 sec) 
 Total Blocks : 262144 Invalid Blocks : 0
Heartbeat CPU 2 instructions: 250000001 cycles: 835192051 heartbeat IPC: 0.0769024 cumulative IPC: 0.0774027 (Simulation time: 16 hr 29 min 21 sec) 
 Total Blocks : 262144 Invalid Blocks : 0
Heartbeat CPU 4 instructions: 250000001 cycles: 835218070 heartbeat IPC: 0.0771389 cumulative IPC: 0.0775025 (Simulation time: 16 hr 29 min 22 sec) 
 Total Blocks : 262144 Invalid Blocks : 0
Heartbeat CPU 5 instructions: 250000001 cycles: 835410239 heartbeat IPC: 0.0771601 cumulative IPC: 0.0775143 (Simulation time: 16 hr 29 min 30 sec) 
 Total Blocks : 262144 Invalid Blocks : 0
Heartbeat CPU 6 instructions: 250000001 cycles: 835650857 heartbeat IPC: 0.0773833 cumulative IPC: 0.0775189 (Simulation time: 16 hr 29 min 39 sec) 
 Total Blocks : 262144 Invalid Blocks : 0
Heartbeat CPU 7 instructions: 250000001 cycles: 836629672 heartbeat IPC: 0.0774681 cumulative IPC: 0.0774473 (Simulation time: 16 hr 30 min 23 sec) 
 Total Blocks : 262144 Invalid Blocks : 0
Heartbeat CPU 0 instructions: 260000000 cycles: 963165235 heartbeat IPC: 0.076665 cumulative IPC: 0.0774035 (Simulation time: 17 hr 56 min 52 sec) 
 Total Blocks : 262144 Invalid Blocks : 0
Heartbeat CPU 2 instructions: 260000000 cycles: 965308104 heartbeat IPC: 0.0768545 cumulative IPC: 0.0773106 (Simulation time: 17 hr 58 min 30 sec) 
 Total Blocks : 262144 Invalid Blocks : 0
Heartbeat CPU 3 instructions: 260000000 cycles: 965549335 heartbeat IPC: 0.0764833 cumulative IPC: 0.0773298 (Simulation time: 17 hr 58 min 40 sec) 
 Total Blocks : 262144 Invalid Blocks : 0
Heartbeat CPU 1 instructions: 260000000 cycles: 965751229 heartbeat IPC: 0.0763259 cumulative IPC: 0.0772242 (Simulation time: 17 hr 58 min 48 sec) 
 Total Blocks : 262144 Invalid Blocks : 0
Heartbeat CPU 5 instructions: 260000000 cycles: 966087949 heartbeat IPC: 0.0765241 cumulative IPC: 0.0773474 (Simulation time: 17 hr 59 min 3 sec) 
 Total Blocks : 262144 Invalid Blocks : 0
Heartbeat CPU 6 instructions: 260000000 cycles: 966230181 heartbeat IPC: 0.0765818 cumulative IPC: 0.077361 (Simulation time: 17 hr 59 min 8 sec) 
 Total Blocks : 262144 Invalid Blocks : 0
Heartbeat CPU 4 instructions: 260000000 cycles: 966315714 heartbeat IPC: 0.076279 cumulative IPC: 0.0772956 (Simulation time: 17 hr 59 min 12 sec) 
 Total Blocks : 262144 Invalid Blocks : 0
Heartbeat CPU 7 instructions: 260000000 cycles: 967205873 heartbeat IPC: 0.0765836 cumulative IPC: 0.077302 (Simulation time: 17 hr 59 min 48 sec) 
 Total Blocks : 262144 Invalid Blocks : 0
Heartbeat CPU 0 instructions: 270000001 cycles: 1091380175 heartbeat IPC: 0.077994 cumulative IPC: 0.0774876 (Simulation time: 19 hr 24 min 53 sec) 
 Total Blocks : 262144 Invalid Blocks : 0
Heartbeat CPU 2 instructions: 270000001 cycles: 1093466834 heartbeat IPC: 0.0780282 cumulative IPC: 0.0774125 (Simulation time: 19 hr 26 min 35 sec) 
 Total Blocks : 262144 Invalid Blocks : 0
Heartbeat CPU 3 instructions: 270000001 cycles: 1093981586 heartbeat IPC: 0.0778621 cumulative IPC: 0.0774055 (Simulation time: 19 hr 27 min 2 sec) 
 Total Blocks : 262144 Invalid Blocks : 0
Heartbeat CPU 1 instructions: 270000001 cycles: 1094150476 heartbeat IPC: 0.0778821 cumulative IPC: 0.0773177 (Simulation time: 19 hr 27 min 11 sec) 
 Total Blocks : 262144 Invalid Blocks : 0
Heartbeat CPU 4 instructions: 270000001 cycles: 1094160435 heartbeat IPC: 0.0782199 cumulative IPC: 0.0774265 (Simulation time: 19 hr 27 min 12 sec) 
 Total Blocks : 262144 Invalid Blocks : 0
Heartbeat CPU 5 instructions: 270000001 cycles: 1094282874 heartbeat IPC: 0.0780062 cumulative IPC: 0.0774409 (Simulation time: 19 hr 27 min 18 sec) 
 Total Blocks : 262144 Invalid Blocks : 0
Heartbeat CPU 6 instructions: 270000001 cycles: 1094468281 heartbeat IPC: 0.07798 cumulative IPC: 0.0774489 (Simulation time: 19 hr 27 min 28 sec) 
 Total Blocks : 262144 Invalid Blocks : 0
Heartbeat CPU 7 instructions: 270000001 cycles: 1094797545 heartbeat IPC: 0.078375 cumulative IPC: 0.0774535 (Simulation time: 19 hr 27 min 44 sec) 
 Total Blocks : 262144 Invalid Blocks : 0
Heartbeat CPU 0 instructions: 280000001 cycles: 1219750236 heartbeat IPC: 0.0778998 cumulative IPC: 0.077539 (Simulation time: 20 hr 50 min 50 sec) 
 Total Blocks : 262144 Invalid Blocks : 0
Heartbeat CPU 2 instructions: 280000001 cycles: 1222125132 heartbeat IPC: 0.0777253 cumulative IPC: 0.0774515 (Simulation time: 20 hr 52 min 47 sec) 
 Total Blocks : 262144 Invalid Blocks : 0
Heartbeat CPU 3 instructions: 280000001 cycles: 1222489755 heartbeat IPC: 0.0778161 cumulative IPC: 0.0774567 (Simulation time: 20 hr 53 min 5 sec) 
 Total Blocks : 262144 Invalid Blocks : 0
Heartbeat CPU 4 instructions: 280000001 cycles: 1222539281 heartbeat IPC: 0.0778945 cumulative IPC: 0.0774847 (Simulation time: 20 hr 53 min 7 sec) 
 Total Blocks : 262144 Invalid Blocks : 0
Heartbeat CPU 1 instructions: 280000001 cycles: 1222543649 heartbeat IPC: 0.0778858 cumulative IPC: 0.0773884 (Simulation time: 20 hr 53 min 8 sec) 
 Total Blocks : 262144 Invalid Blocks : 0
Heartbeat CPU 5 instructions: 280000001 cycles: 1222747157 heartbeat IPC: 0.0778426 cumulative IPC: 0.0774909 (Simulation time: 20 hr 53 min 17 sec) 
 Total Blocks : 262144 Invalid Blocks : 0
Heartbeat CPU 7 instructions: 280000001 cycles: 1223009540 heartbeat IPC: 0.0779958 cumulative IPC: 0.0775209 (Simulation time: 20 hr 53 min 28 sec) 
 Total Blocks : 262144 Invalid Blocks : 0
Heartbeat CPU 6 instructions: 280000001 cycles: 1223162195 heartbeat IPC: 0.0777038 cumulative IPC: 0.0774807 (Simulation time: 20 hr 53 min 34 sec) 
 Total Blocks : 262144 Invalid Blocks : 0
Heartbeat CPU 0 instructions: 290000002 cycles: 1352549633 heartbeat IPC: 0.0753016 cumulative IPC: 0.0772832 (Simulation time: 22 hr 16 min 52 sec) 
 Total Blocks : 262144 Invalid Blocks : 0
Heartbeat CPU 1 instructions: 290000002 cycles: 1354575284 heartbeat IPC: 0.0757394 cumulative IPC: 0.0772013 (Simulation time: 22 hr 18 min 12 sec) 
 Total Blocks : 262144 Invalid Blocks : 0
Heartbeat CPU 2 instructions: 290000002 cycles: 1354618930 heartbeat IPC: 0.0754752 cumulative IPC: 0.0772265 (Simulation time: 22 hr 18 min 14 sec) 
 Total Blocks : 262144 Invalid Blocks : 0
Heartbeat CPU 4 instructions: 290000002 cycles: 1355076149 heartbeat IPC: 0.0754507 cumulative IPC: 0.0772531 (Simulation time: 22 hr 18 min 40 sec) 
 Total Blocks : 262144 Invalid Blocks : 0
Heartbeat CPU 6 instructions: 290000002 cycles: 1355403732 heartbeat IPC: 0.0756192 cumulative IPC: 0.0772693 (Simulation time: 22 hr 18 min 58 sec) 
 Total Blocks : 262144 Invalid Blocks : 0
Heartbeat CPU 3 instructions: 290000000 cycles: 1355618414 heartbeat IPC: 0.0751153 cumulative IPC: 0.077189 (Simulation time: 22 hr 19 min 10 sec) 
 Total Blocks : 262144 Invalid Blocks : 0
Heartbeat CPU 7 instructions: 290000000 cycles: 1355657137 heartbeat IPC: 0.0753877 cumulative IPC: 0.0772779 (Simulation time: 22 hr 19 min 12 sec) 
 Total Blocks : 262144 Invalid Blocks : 0
Heartbeat CPU 5 instructions: 290000002 cycles: 1355726878 heartbeat IPC: 0.0751994 cumulative IPC: 0.0772293 (Simulation time: 22 hr 19 min 15 sec) 
 Total Blocks : 262144 Invalid Blocks : 0
Heartbeat CPU 0 instructions: 300000002 cycles: 1480279789 heartbeat IPC: 0.07829 cumulative IPC: 0.077383 (Simulation time: 23 hr 41 min 52 sec) 
 Total Blocks : 262144 Invalid Blocks : 0
Heartbeat CPU 2 instructions: 300000002 cycles: 1482290911 heartbeat IPC: 0.0783257 cumulative IPC: 0.0773352 (Simulation time: 23 hr 43 min 21 sec) 
 Total Blocks : 262144 Invalid Blocks : 0
Heartbeat CPU 1 instructions: 300000002 cycles: 1482403980 heartbeat IPC: 0.0782297 cumulative IPC: 0.0773031 (Simulation time: 23 hr 43 min 25 sec) 
 Total Blocks : 262144 Invalid Blocks : 0
Heartbeat CPU 4 instructions: 300000002 cycles: 1482665984 heartbeat IPC: 0.0783762 cumulative IPC: 0.0773641 (Simulation time: 23 hr 43 min 37 sec) 
 Total Blocks : 262144 Invalid Blocks : 0
Heartbeat CPU 5 instructions: 300000002 cycles: 1483364355 heartbeat IPC: 0.0783469 cumulative IPC: 0.0773396 (Simulation time: 23 hr 44 min 7 sec) 
 Total Blocks : 262144 Invalid Blocks : 0
Heartbeat CPU 3 instructions: 300000002 cycles: 1483428433 heartbeat IPC: 0.0782411 cumulative IPC: 0.0772931 (Simulation time: 23 hr 44 min 9 sec) 
 Total Blocks : 262144 Invalid Blocks : 0
Heartbeat CPU 6 instructions: 300000002 cycles: 1483428664 heartbeat IPC: 0.0781098 cumulative IPC: 0.0773525 (Simulation time: 23 hr 44 min 9 sec) 
 Total Blocks : 262144 Invalid Blocks : 0
Heartbeat CPU 7 instructions: 300000002 cycles: 1483468786 heartbeat IPC: 0.0782401 cumulative IPC: 0.0773731 (Simulation time: 23 hr 44 min 11 sec) 
 Total Blocks : 262144 Invalid Blocks : 0
Heartbeat CPU 0 instructions: 310000001 cycles: 1600098719 heartbeat IPC: 0.0834593 cumulative IPC: 0.0778997 (Simulation time: 25 hr 0 min 16 sec) 
 Total Blocks : 262144 Invalid Blocks : 0
Heartbeat CPU 1 instructions: 310000001 cycles: 1601700133 heartbeat IPC: 0.083825 cumulative IPC: 0.0778546 (Simulation time: 25 hr 1 min 2 sec) 
 Total Blocks : 262144 Invalid Blocks : 0
Heartbeat CPU 2 instructions: 310000001 cycles: 1601708732 heartbeat IPC: 0.0837396 cumulative IPC: 0.0778773 (Simulation time: 25 hr 1 min 2 sec) 
 Total Blocks : 262144 Invalid Blocks : 0
Heartbeat CPU 4 instructions: 310000001 cycles: 1602107847 heartbeat IPC: 0.0837227 cumulative IPC: 0.0779023 (Simulation time: 25 hr 1 min 13 sec) 
 Total Blocks : 262144 Invalid Blocks : 0
Heartbeat CPU 6 instructions: 310000001 cycles: 1602470852 heartbeat IPC: 0.0840038 cumulative IPC: 0.0779135 (Simulation time: 25 hr 1 min 23 sec) 
 Total Blocks : 262144 Invalid Blocks : 0
Heartbeat CPU 5 instructions: 310000001 cycles: 1602547093 heartbeat IPC: 0.0839048 cumulative IPC: 0.077894 (Simulation time: 25 hr 1 min 25 sec) 
 Total Blocks : 262144 Invalid Blocks : 0
Heartbeat CPU 7 instructions: 310000001 cycles: 1602665241 heartbeat IPC: 0.0838951 cumulative IPC: 0.0779238 (Simulation time: 25 hr 1 min 28 sec) 
 Total Blocks : 262144 Invalid Blocks : 0
Heartbeat CPU 3 instructions: 310000001 cycles: 1602672136 heartbeat IPC: 0.0838619 cumulative IPC: 0.077848 (Simulation time: 25 hr 1 min 28 sec) 
 Total Blocks : 262144 Invalid Blocks : 0
Heartbeat CPU 0 instructions: 320000001 cycles: 1728879381 heartbeat IPC: 0.0776514 cumulative IPC: 0.0778789 (Simulation time: 26 hr 18 min 41 sec) 
 Total Blocks : 262144 Invalid Blocks : 0
Heartbeat CPU 2 instructions: 320000001 cycles: 1730569995 heartbeat IPC: 0.0776028 cumulative IPC: 0.0778544 (Simulation time: 26 hr 19 min 52 sec) 
 Total Blocks : 262144 Invalid Blocks : 0
Heartbeat CPU 1 instructions: 320000001 cycles: 1730845335 heartbeat IPC: 0.0774322 cumulative IPC: 0.0778192 (Simulation time: 26 hr 20 min 3 sec) 
 Total Blocks : 262144 Invalid Blocks : 0
Heartbeat CPU 6 instructions: 320000001 cycles: 1730965186 heartbeat IPC: 0.0778244 cumulative IPC: 0.0779061 (Simulation time: 26 hr 20 min 8 sec) 
 Total Blocks : 262144 Invalid Blocks : 0
Heartbeat CPU 4 instructions: 320000001 cycles: 1731027192 heartbeat IPC: 0.0775679 cumulative IPC: 0.0778743 (Simulation time: 26 hr 20 min 11 sec) 
 Total Blocks : 262144 Invalid Blocks : 0
Heartbeat CPU 5 instructions: 320000001 cycles: 1731195845 heartbeat IPC: 0.077731 cumulative IPC: 0.0778804 (Simulation time: 26 hr 20 min 18 sec) 
 Total Blocks : 262144 Invalid Blocks : 0
Heartbeat CPU 7 instructions: 320000001 cycles: 1731320331 heartbeat IPC: 0.0777272 cumulative IPC: 0.0779074 (Simulation time: 26 hr 20 min 24 sec) 
 Total Blocks : 262144 Invalid Blocks : 0
Heartbeat CPU 3 instructions: 320000001 cycles: 1731701935 heartbeat IPC: 0.0775015 cumulative IPC: 0.0778189 (Simulation time: 26 hr 20 min 38 sec) 
 Total Blocks : 262144 Invalid Blocks : 0
Heartbeat CPU 0 instructions: 330000000 cycles: 1859202160 heartbeat IPC: 0.0767325 cumulative IPC: 0.0777893 (Simulation time: 27 hr 54 min 37 sec) 
 Total Blocks : 262144 Invalid Blocks : 0
Heartbeat CPU 2 instructions: 330000000 cycles: 1860630407 heartbeat IPC: 0.0768873 cumulative IPC: 0.077779 (Simulation time: 27 hr 55 min 34 sec) 
 Total Blocks : 262144 Invalid Blocks : 0
Heartbeat CPU 1 instructions: 330000000 cycles: 1860834224 heartbeat IPC: 0.0769296 cumulative IPC: 0.07775 (Simulation time: 27 hr 55 min 42 sec) 
 Total Blocks : 262144 Invalid Blocks : 0
Heartbeat CPU 7 instructions: 330000000 cycles: 1860921286 heartbeat IPC: 0.0771599 cumulative IPC: 0.0778494 (Simulation time: 27 hr 55 min 45 sec) 
 Total Blocks : 262144 Invalid Blocks : 0
Heartbeat CPU 6 instructions: 330000000 cycles: 1860998343 heartbeat IPC: 0.0769035 cumulative IPC: 0.077828 (Simulation time: 27 hr 55 min 48 sec) 
 Total Blocks : 262144 Invalid Blocks : 0
Heartbeat CPU 4 instructions: 330000000 cycles: 1861114896 heartbeat IPC: 0.0768712 cumulative IPC: 0.0777962 (Simulation time: 27 hr 55 min 51 sec) 
 Total Blocks : 262144 Invalid Blocks : 0
Heartbeat CPU 5 instructions: 330000000 cycles: 1861174622 heartbeat IPC: 0.0769356 cumulative IPC: 0.0778068 (Simulation time: 27 hr 55 min 54 sec) 
 Total Blocks : 262144 Invalid Blocks : 0
Heartbeat CPU 3 instructions: 330000000 cycles: 1861311859 heartbeat IPC: 0.0771546 cumulative IPC: 0.0777674 (Simulation time: 27 hr 55 min 58 sec) 
 Total Blocks : 262144 Invalid Blocks : 0
Heartbeat CPU 0 instructions: 340000000 cycles: 1986065242 heartbeat IPC: 0.0788251 cumulative IPC: 0.0778625 (Simulation time: 29 hr 12 min 51 sec) 
 Total Blocks : 262144 Invalid Blocks : 0
Heartbeat CPU 1 instructions: 340000000 cycles: 1987937153 heartbeat IPC: 0.0786764 cumulative IPC: 0.0778155 (Simulation time: 29 hr 13 min 55 sec) 
 Total Blocks : 262144 Invalid Blocks : 0
Heartbeat CPU 2 instructions: 340000000 cycles: 1988088656 heartbeat IPC: 0.0784571 cumulative IPC: 0.0778271 (Simulation time: 29 hr 14 min 0 sec) 
 Total Blocks : 262144 Invalid Blocks : 0
Heartbeat CPU 7 instructions: 340000000 cycles: 1988198113 heartbeat IPC: 0.0785689 cumulative IPC: 0.0779003 (Simulation time: 29 hr 14 min 4 sec) 
 Total Blocks : 262144 Invalid Blocks : 0
Heartbeat CPU 5 instructions: 340000000 cycles: 1988203371 heartbeat IPC: 0.0787223 cumulative IPC: 0.0778716 (Simulation time: 29 hr 14 min 4 sec) 
 Total Blocks : 262144 Invalid Blocks : 0
Heartbeat CPU 6 instructions: 340000000 cycles: 1988283767 heartbeat IPC: 0.0785636 cumulative IPC: 0.0778801 (Simulation time: 29 hr 14 min 6 sec) 
 Total Blocks : 262144 Invalid Blocks : 0
Heartbeat CPU 4 instructions: 340000000 cycles: 1988382916 heartbeat IPC: 0.0785743 cumulative IPC: 0.0778513 (Simulation time: 29 hr 14 min 10 sec) 
 Total Blocks : 262144 Invalid Blocks : 0
Heartbeat CPU 3 instructions: 340000000 cycles: 1988851412 heartbeat IPC: 0.078407 cumulative IPC: 0.0778128 (Simulation time: 29 hr 14 min 25 sec) 
 Total Blocks : 262144 Invalid Blocks : 0
Heartbeat CPU 0 instructions: 350000001 cycles: 2115745008 heartbeat IPC: 0.077113 cumulative IPC: 0.077812 (Simulation time: 30 hr 46 min 51 sec) 
 Total Blocks : 262144 Invalid Blocks : 0
Heartbeat CPU 7 instructions: 350000001 cycles: 2117413546 heartbeat IPC: 0.0773901 cumulative IPC: 0.0778661 (Simulation time: 30 hr 48 min 20 sec) 
 Total Blocks : 262144 Invalid Blocks : 0
Heartbeat CPU 6 instructions: 350000001 cycles: 2117649034 heartbeat IPC: 0.0773005 cumulative IPC: 0.0778412 (Simulation time: 30 hr 48 min 30 sec) 
 Total Blocks : 262144 Invalid Blocks : 0
Heartbeat CPU 5 instructions: 350000001 cycles: 2117662788 heartbeat IPC: 0.0772443 cumulative IPC: 0.0778294 (Simulation time: 30 hr 48 min 31 sec) 
 Total Blocks : 262144 Invalid Blocks : 0
Heartbeat CPU 1 instructions: 350000001 cycles: 2117871241 heartbeat IPC: 0.0769621 cumulative IPC: 0.0777579 (Simulation time: 30 hr 48 min 41 sec) 
 Total Blocks : 262144 Invalid Blocks : 0
Heartbeat CPU 2 instructions: 350000001 cycles: 2118061858 heartbeat IPC: 0.0769389 cumulative IPC: 0.0777672 (Simulation time: 30 hr 48 min 50 sec) 
 Total Blocks : 262144 Invalid Blocks : 0
Heartbeat CPU 4 instructions: 350000001 cycles: 2118065070 heartbeat IPC: 0.0771116 cumulative IPC: 0.0778015 (Simulation time: 30 hr 48 min 50 sec) 
 Total Blocks : 262144 Invalid Blocks : 0
Heartbeat CPU 3 instructions: 350000001 cycles: 2118651287 heartbeat IPC: 0.0770417 cumulative IPC: 0.0777608 (Simulation time: 30 hr 49 min 19 sec) 
 Total Blocks : 262144 Invalid Blocks : 0
Heartbeat CPU 0 instructions: 360000000 cycles: 2244900797 heartbeat IPC: 0.0774259 cumulative IPC: 0.0777877 (Simulation time: 32 hr 24 min 3 sec) 
 Total Blocks : 262144 Invalid Blocks : 0
Heartbeat CPU 4 instructions: 360000000 cycles: 2246653611 heartbeat IPC: 0.0777674 cumulative IPC: 0.0777994 (Simulation time: 32 hr 25 min 37 sec) 
 Total Blocks : 262144 Invalid Blocks : 0
Heartbeat CPU 6 instructions: 360000000 cycles: 2246657472 heartbeat IPC: 0.0775143 cumulative IPC: 0.0778207 (Simulation time: 32 hr 25 min 37 sec) 
 Total Blocks : 262144 Invalid Blocks : 0
Heartbeat CPU 7 instructions: 360000000 cycles: 2246775819 heartbeat IPC: 0.0773023 cumulative IPC: 0.0778306 (Simulation time: 32 hr 25 min 42 sec) 
 Total Blocks : 262144 Invalid Blocks : 0
Heartbeat CPU 5 instructions: 360000000 cycles: 2247044254 heartbeat IPC: 0.0772908 cumulative IPC: 0.0777955 (Simulation time: 32 hr 25 min 55 sec) 
 Total Blocks : 262144 Invalid Blocks : 0
Heartbeat CPU 1 instructions: 360000000 cycles: 2247190318 heartbeat IPC: 0.0773281 cumulative IPC: 0.0777309 (Simulation time: 32 hr 26 min 2 sec) 
 Total Blocks : 262144 Invalid Blocks : 0
Heartbeat CPU 2 instructions: 360000000 cycles: 2247401060 heartbeat IPC: 0.0773161 cumulative IPC: 0.0777388 (Simulation time: 32 hr 26 min 11 sec) 
 Total Blocks : 262144 Invalid Blocks : 0
Heartbeat CPU 3 instructions: 360000000 cycles: 2247532057 heartbeat IPC: 0.0775911 cumulative IPC: 0.0777502 (Simulation time: 32 hr 26 min 17 sec) 
 Total Blocks : 262144 Invalid Blocks : 0
Heartbeat CPU 0 instructions: 370000002 cycles: 2372523251 heartbeat IPC: 0.0783561 cumulative IPC: 0.077821 (Simulation time: 34 hr 2 min 4 sec) 
 Total Blocks : 262144 Invalid Blocks : 0
Heartbeat CPU 7 instructions: 370000002 cycles: 2374047499 heartbeat IPC: 0.0785721 cumulative IPC: 0.0778738 (Simulation time: 34 hr 3 min 10 sec) 
 Total Blocks : 262144 Invalid Blocks : 0
Heartbeat CPU 4 instructions: 370000002 cycles: 2374109718 heartbeat IPC: 0.0784584 cumulative IPC: 0.0778378 (Simulation time: 34 hr 3 min 13 sec) 
 Total Blocks : 262144 Invalid Blocks : 0
Heartbeat CPU 6 instructions: 370000002 cycles: 2374195075 heartbeat IPC: 0.0784083 cumulative IPC: 0.077855 (Simulation time: 34 hr 3 min 16 sec) 
 Total Blocks : 262144 Invalid Blocks : 0
Heartbeat CPU 5 instructions: 370000002 cycles: 2374383976 heartbeat IPC: 0.0785301 cumulative IPC: 0.0778384 (Simulation time: 34 hr 3 min 24 sec) 
 Total Blocks : 262144 Invalid Blocks : 0
Heartbeat CPU 1 instructions: 370000002 cycles: 2374777236 heartbeat IPC: 0.078378 cumulative IPC: 0.0777687 (Simulation time: 34 hr 3 min 40 sec) 
 Total Blocks : 262144 Invalid Blocks : 0
Heartbeat CPU 2 instructions: 370000002 cycles: 2374839261 heartbeat IPC: 0.0784694 cumulative IPC: 0.0777815 (Simulation time: 34 hr 3 min 43 sec) 
 Total Blocks : 262144 Invalid Blocks : 0
Heartbeat CPU 3 instructions: 370000002 cycles: 2375214422 heartbeat IPC: 0.0783194 cumulative IPC: 0.0777835 (Simulation time: 34 hr 4 min 0 sec) 
 Total Blocks : 262144 Invalid Blocks : 0
Heartbeat CPU 0 instructions: 380000002 cycles: 2498139338 heartbeat IPC: 0.0796076 cumulative IPC: 0.0779183 (Simulation time: 35 hr 23 min 10 sec) 
 Total Blocks : 262144 Invalid Blocks : 0
Heartbeat CPU 5 instructions: 380000001 cycles: 2499718579 heartbeat IPC: 0.0797864 cumulative IPC: 0.0779441 (Simulation time: 35 hr 23 min 58 sec) 
 Total Blocks : 262144 Invalid Blocks : 0
Heartbeat CPU 6 instructions: 380000001 cycles: 2499737082 heartbeat IPC: 0.0796546 cumulative IPC: 0.0779528 (Simulation time: 35 hr 23 min 59 sec) 
 Total Blocks : 262144 Invalid Blocks : 0
Heartbeat CPU 7 instructions: 380000001 cycles: 2500093451 heartbeat IPC: 0.0793361 cumulative IPC: 0.0779537 (Simulation time: 35 hr 24 min 8 sec) 
 Total Blocks : 262144 Invalid Blocks : 0
Heartbeat CPU 4 instructions: 380000001 cycles: 2500198331 heartbeat IPC: 0.0793093 cumulative IPC: 0.0779182 (Simulation time: 35 hr 24 min 11 sec) 
 Total Blocks : 262144 Invalid Blocks : 0
Heartbeat CPU 1 instructions: 380000002 cycles: 2500398373 heartbeat IPC: 0.0796044 cumulative IPC: 0.0778686 (Simulation time: 35 hr 24 min 17 sec) 
 Total Blocks : 262144 Invalid Blocks : 0
Heartbeat CPU 2 instructions: 380000001 cycles: 2500791858 heartbeat IPC: 0.0793949 cumulative IPC: 0.0778695 (Simulation time: 35 hr 24 min 27 sec) 
 Total Blocks : 262144 Invalid Blocks : 0
Heartbeat CPU 3 instructions: 380000001 cycles: 2501037681 heartbeat IPC: 0.0794766 cumulative IPC: 0.0778757 (Simulation time: 35 hr 24 min 35 sec) 
 Total Blocks : 262144 Invalid Blocks : 0
Heartbeat CPU 0 instructions: 390000002 cycles: 2626796223 heartbeat IPC: 0.0777261 cumulative IPC: 0.0779081 (Simulation time: 36 hr 26 min 25 sec) 
 Total Blocks : 262144 Invalid Blocks : 0
Heartbeat CPU 5 instructions: 390000003 cycles: 2628613293 heartbeat IPC: 0.0775827 cumulative IPC: 0.077925 (Simulation time: 36 hr 27 min 21 sec) 
 Total Blocks : 262144 Invalid Blocks : 0
Heartbeat CPU 6 instructions: 390000003 cycles: 2628667927 heartbeat IPC: 0.077561 cumulative IPC: 0.0779321 (Simulation time: 36 hr 27 min 22 sec) 
 Total Blocks : 262144 Invalid Blocks : 0
Heartbeat CPU 4 instructions: 390000003 cycles: 2628930737 heartbeat IPC: 0.0776805 cumulative IPC: 0.0779056 (Simulation time: 36 hr 27 min 30 sec) 
 Total Blocks : 262144 Invalid Blocks : 0
Heartbeat CPU 7 instructions: 390000003 cycles: 2629092824 heartbeat IPC: 0.0775198 cumulative IPC: 0.0779307 (Simulation time: 36 hr 27 min 35 sec) 
 Total Blocks : 262144 Invalid Blocks : 0
Heartbeat CPU 1 instructions: 390000003 cycles: 2629242122 heartbeat IPC: 0.0776134 cumulative IPC: 0.0778551 (Simulation time: 36 hr 27 min 39 sec) 
 Total Blocks : 262144 Invalid Blocks : 0
Heartbeat CPU 2 instructions: 390000002 cycles: 2629536457 heartbeat IPC: 0.0776732 cumulative IPC: 0.0778591 (Simulation time: 36 hr 27 min 48 sec) 
 Total Blocks : 262144 Invalid Blocks : 0
Heartbeat CPU 3 instructions: 390000003 cycles: 2630106218 heartbeat IPC: 0.0774782 cumulative IPC: 0.0778547 (Simulation time: 36 hr 28 min 7 sec) 
 Total Blocks : 262144 Invalid Blocks : 0
Heartbeat CPU 0 instructions: 400000000 cycles: 2752178897 heartbeat IPC: 0.0797558 cumulative IPC: 0.0779986 (Simulation time: 37 hr 30 min 20 sec) 
 Total Blocks : 262144 Invalid Blocks : 0
Heartbeat CPU 6 instructions: 400000000 cycles: 2753873822 heartbeat IPC: 0.0798684 cumulative IPC: 0.0780267 (Simulation time: 37 hr 31 min 8 sec) 
 Total Blocks : 262144 Invalid Blocks : 0
Heartbeat CPU 5 instructions: 400000000 cycles: 2754117154 heartbeat IPC: 0.0796788 cumulative IPC: 0.0780109 (Simulation time: 37 hr 31 min 15 sec) 
 Total Blocks : 262144 Invalid Blocks : 0
Finished CPU 6 instructions: 200000003 cycles: 2563192017 cumulative IPC: 0.0780277 (Simulation time: 37 hr 31 min 18 sec) 
Heartbeat CPU 4 instructions: 400000001 cycles: 2754336563 heartbeat IPC: 0.0797411 cumulative IPC: 0.0779954 (Simulation time: 37 hr 31 min 22 sec) 
 Total Blocks : 262144 Invalid Blocks : 0
Heartbeat CPU 1 instructions: 400000000 cycles: 2754423707 heartbeat IPC: 0.0798839 cumulative IPC: 0.0779542 (Simulation time: 37 hr 31 min 24 sec) 
 Total Blocks : 262144 Invalid Blocks : 0
Heartbeat CPU 7 instructions: 400000000 cycles: 2754523366 heartbeat IPC: 0.0797254 cumulative IPC: 0.0780185 (Simulation time: 37 hr 31 min 27 sec) 
 Total Blocks : 262144 Invalid Blocks : 0
Finished CPU 7 instructions: 200000000 cycles: 2563493923 cumulative IPC: 0.0780185 (Simulation time: 37 hr 31 min 27 sec) 
Finished CPU 5 instructions: 200000000 cycles: 2563625576 cumulative IPC: 0.0780145 (Simulation time: 37 hr 31 min 31 sec) 
Finished CPU 0 instructions: 200000001 cycles: 2563676438 cumulative IPC: 0.078013 (Simulation time: 37 hr 31 min 33 sec) 
Heartbeat CPU 2 instructions: 400000001 cycles: 2754934260 heartbeat IPC: 0.0797462 cumulative IPC: 0.0779514 (Simulation time: 37 hr 31 min 41 sec) 
 Total Blocks : 262144 Invalid Blocks : 0
Finished CPU 4 instructions: 200000001 cycles: 2564095669 cumulative IPC: 0.0780002 (Simulation time: 37 hr 31 min 47 sec) 
Heartbeat CPU 3 instructions: 400000000 cycles: 2755197670 heartbeat IPC: 0.0799415 cumulative IPC: 0.0779565 (Simulation time: 37 hr 31 min 49 sec) 
 Total Blocks : 262144 Invalid Blocks : 0
Finished CPU 1 instructions: 200000002 cycles: 2565280832 cumulative IPC: 0.0779642 (Simulation time: 37 hr 32 min 26 sec) 
Finished CPU 3 instructions: 200000001 cycles: 2565298348 cumulative IPC: 0.0779636 (Simulation time: 37 hr 32 min 26 sec) 
Finished CPU 2 instructions: 200000002 cycles: 2565429693 cumulative IPC: 0.0779596 (Simulation time: 37 hr 32 min 30 sec) 

CPU 0 Branch Prediction Accuracy: 90.7126% MPKI: 18.8905 Average ROB Occupancy at Mispredict: 42.5091

CPU 1 Branch Prediction Accuracy: 90.7157% MPKI: 18.8898 Average ROB Occupancy at Mispredict: 42.5207

CPU 2 Branch Prediction Accuracy: 90.7146% MPKI: 18.8951 Average ROB Occupancy at Mispredict: 42.5163

CPU 3 Branch Prediction Accuracy: 90.7138% MPKI: 18.8998 Average ROB Occupancy at Mispredict: 42.5132

CPU 4 Branch Prediction Accuracy: 90.7142% MPKI: 18.9022 Average ROB Occupancy at Mispredict: 42.5159

CPU 5 Branch Prediction Accuracy: 90.7129% MPKI: 18.9071 Average ROB Occupancy at Mispredict: 42.5107

CPU 6 Branch Prediction Accuracy: 90.7119% MPKI: 18.9111 Average ROB Occupancy at Mispredict: 42.5075

CPU 7 Branch Prediction Accuracy: 90.7121% MPKI: 18.9135 Average ROB Occupancy at Mispredict: 42.5091

ChampSim completed all CPUs

Total Simulation Statistics (not including warmup)

CPU 0 cumulative IPC: 0.0779981 instructions: 200098627 cycles: 2565429693
ITLB TOTAL     ACCESS: 30003659  HIT: 30003659  MISS:     0  HIT %:   100  MISS %:     0  AVERAGE MISS PENALTY: 0
ITLB LOAD      ACCESS: 30003659  HIT: 30003659  MISS:     0  HIT %:   100  MISS %:     0  AVERAGE MISS PENALTY: 0
ITLB RFO       ACCESS:     0  HIT:     0  MISS:     0  HIT %:     0  MISS %:     0  AVERAGE MISS PENALTY: 0
ITLB PREFETCH  ACCESS:     0  HIT:     0  MISS:     0  HIT %:     0  MISS %:     0  AVERAGE MISS PENALTY: 0
ITLB WRITEBACK ACCESS:     0  HIT:     0  MISS:     0  HIT %:     0  MISS %:     0  AVERAGE MISS PENALTY: 0

DTLB TOTAL     ACCESS: 46634709  HIT: 36816714  MISS: 9817995  HIT %: 78.947  MISS %: 21.053  AVERAGE MISS PENALTY: 9.4533
DTLB LOAD      ACCESS: 46570148  HIT: 36752153  MISS: 9817995  HIT %: 78.9178  MISS %: 21.0822  AVERAGE MISS PENALTY: 9.4533
DTLB RFO       ACCESS: 64561  HIT: 64561  MISS:     0  HIT %:   100  MISS %:     0  AVERAGE MISS PENALTY: 0
DTLB PREFETCH  ACCESS:     0  HIT:     0  MISS:     0  HIT %:     0  MISS %:     0  AVERAGE MISS PENALTY: 0
DTLB WRITEBACK ACCESS:     0  HIT:     0  MISS:     0  HIT %:     0  MISS %:     0  AVERAGE MISS PENALTY: 0

STLB TOTAL     ACCESS: 9817995  HIT: 9803228  MISS: 14767  HIT %: 99.8496  MISS %: 0.150407  AVERAGE MISS PENALTY: 100
STLB LOAD      ACCESS: 9817995  HIT: 9803228  MISS: 14767  HIT %: 99.8496  MISS %: 0.150407  AVERAGE MISS PENALTY: 100
STLB RFO       ACCESS:     0  HIT:     0  MISS:     0  HIT %:     0  MISS %:     0  AVERAGE MISS PENALTY: 0
STLB PREFETCH  ACCESS:     0  HIT:     0  MISS:     0  HIT %:     0  MISS %:     0  AVERAGE MISS PENALTY: 0
STLB WRITEBACK ACCESS:     0  HIT:     0  MISS:     0  HIT %:     0  MISS %:     0  AVERAGE MISS PENALTY: 0

L1D TOTAL     ACCESS: 87048902  HIT: 32810081  MISS: 54238821  HIT %: 37.6916  MISS %: 62.3084  AVERAGE MISS PENALTY: 5.00427e+06
L1D LOAD      ACCESS: 43943417  HIT: 29311634  MISS: 14631783  HIT %: 66.7031  MISS %: 33.2969  AVERAGE MISS PENALTY: 1.85496e+07
L1D RFO       ACCESS: 64567  HIT: 64567  MISS:     0  HIT %:   100  MISS %:     0  AVERAGE MISS PENALTY: 0
L1D PREFETCH  ACCESS: 43040918  HIT: 3433880  MISS: 39607038  HIT %: 7.97818  MISS %: 92.0218  AVERAGE MISS PENALTY: 300.706
L1D WRITEBACK ACCESS:     0  HIT:     0  MISS:     0  HIT %:     0  MISS %:     0  AVERAGE MISS PENALTY: 0

L1I TOTAL     ACCESS: 42117509  HIT: 42117509  MISS:     0  HIT %:   100  MISS %:     0  AVERAGE MISS PENALTY: 0
L1I LOAD      ACCESS: 42117509  HIT: 42117509  MISS:     0  HIT %:   100  MISS %:     0  AVERAGE MISS PENALTY: 0
L1I RFO       ACCESS:     0  HIT:     0  MISS:     0  HIT %:     0  MISS %:     0  AVERAGE MISS PENALTY: 0
L1I PREFETCH  ACCESS:     0  HIT:     0  MISS:     0  HIT %:     0  MISS %:     0  AVERAGE MISS PENALTY: 0
L1I WRITEBACK ACCESS:     0  HIT:     0  MISS:     0  HIT %:     0  MISS %:     0  AVERAGE MISS PENALTY: 0

L2C TOTAL     ACCESS: 84229815  HIT: 4801805  MISS: 79428010  HIT %: 5.70084  MISS %: 94.2992  AVERAGE MISS PENALTY: 3.75376e+06
L2C LOAD      ACCESS: 14627018  HIT: 209920  MISS: 14417098  HIT %: 1.43515  MISS %: 98.5648  AVERAGE MISS PENALTY: 2.06792e+07
L2C RFO       ACCESS:     0  HIT:     0  MISS:     0  HIT %:     0  MISS %:     0  AVERAGE MISS PENALTY: 0
L2C PREFETCH  ACCESS: 69548383  HIT: 4576788  MISS: 64971595  HIT %: 6.58073  MISS %: 93.4193  AVERAGE MISS PENALTY: 308.675
L2C WRITEBACK ACCESS: 54414  HIT: 15097  MISS: 39317  HIT %: 27.7447  MISS %: 72.2553  AVERAGE MISS PENALTY: 0


LLC0 TOTAL     ACCESS: 10181951  HIT: 5419862  MISS: 4762089  HIT %: 53.2301  MISS %: 46.7699  AVERAGE MISS PENALTY: 616.889
LLC0 LOAD      ACCESS: 1796038  HIT: 1008870  MISS: 787168  HIT %: 56.172  MISS %: 43.828  AVERAGE MISS PENALTY: 607.886
LLC0 RFO       ACCESS:     0  HIT:     0  MISS:     0  HIT %:     0  MISS %:     0  AVERAGE MISS PENALTY: 0
LLC0 PREFETCH  ACCESS: 8379055  HIT: 4404401  MISS: 3974654  HIT %: 52.5644  MISS %: 47.4356  AVERAGE MISS PENALTY: 618.714
LLC0 WRITEBACK ACCESS:  6858  HIT:  6591  MISS:   267  HIT %: 96.1067  MISS %: 3.89326  AVERAGE MISS PENALTY: 0

LLC1 TOTAL     ACCESS: 10283250  HIT: 5467176  MISS: 4816074  HIT %: 53.1658  MISS %: 46.8342  AVERAGE MISS PENALTY: 611.951
LLC1 LOAD      ACCESS: 1826440  HIT: 1050061  MISS: 776379  HIT %: 57.4922  MISS %: 42.5078  AVERAGE MISS PENALTY: 604.341
LLC1 RFO       ACCESS:     0  HIT:     0  MISS:     0  HIT %:     0  MISS %:     0  AVERAGE MISS PENALTY: 0
LLC1 PREFETCH  ACCESS: 8449941  HIT: 4410531  MISS: 4039410  HIT %: 52.196  MISS %: 47.804  AVERAGE MISS PENALTY: 613.457
LLC1 WRITEBACK ACCESS:  6869  HIT:  6584  MISS:   285  HIT %: 95.8509  MISS %: 4.14908  AVERAGE MISS PENALTY: 0

LLC2 TOTAL     ACCESS: 10202767  HIT: 5426750  MISS: 4776017  HIT %: 53.189  MISS %: 46.811  AVERAGE MISS PENALTY: 609.834
LLC2 LOAD      ACCESS: 1803066  HIT: 1036875  MISS: 766191  HIT %: 57.5062  MISS %: 42.4938  AVERAGE MISS PENALTY: 607.432
LLC2 RFO       ACCESS:     0  HIT:     0  MISS:     0  HIT %:     0  MISS %:     0  AVERAGE MISS PENALTY: 0
LLC2 PREFETCH  ACCESS: 8392830  HIT: 4383288  MISS: 4009542  HIT %: 52.2266  MISS %: 47.7734  AVERAGE MISS PENALTY: 610.336
LLC2 WRITEBACK ACCESS:  6871  HIT:  6587  MISS:   284  HIT %: 95.8667  MISS %: 4.13331  AVERAGE MISS PENALTY: 0

LLC3 TOTAL     ACCESS: 10029393  HIT: 5336976  MISS: 4692417  HIT %: 53.2134  MISS %: 46.7866  AVERAGE MISS PENALTY: 605.681
LLC3 LOAD      ACCESS: 1747108  HIT: 975222  MISS: 771886  HIT %: 55.8192  MISS %: 44.1808  AVERAGE MISS PENALTY: 604.786
LLC3 RFO       ACCESS:     0  HIT:     0  MISS:     0  HIT %:     0  MISS %:     0  AVERAGE MISS PENALTY: 0
LLC3 PREFETCH  ACCESS: 8275497  HIT: 4355239  MISS: 3920258  HIT %: 52.6281  MISS %: 47.3719  AVERAGE MISS PENALTY: 605.9
LLC3 WRITEBACK ACCESS:  6788  HIT:  6515  MISS:   273  HIT %: 95.9782  MISS %: 4.0218  AVERAGE MISS PENALTY: 0

LLC4 TOTAL     ACCESS: 9887692  HIT: 5284698  MISS: 4602994  HIT %: 53.4472  MISS %: 46.5528  AVERAGE MISS PENALTY: 543.064
LLC4 LOAD      ACCESS: 1760139  HIT: 1000471  MISS: 759668  HIT %: 56.8405  MISS %: 43.1595  AVERAGE MISS PENALTY: 532.149
LLC4 RFO       ACCESS:     0  HIT:     0  MISS:     0  HIT %:     0  MISS %:     0  AVERAGE MISS PENALTY: 0
LLC4 PREFETCH  ACCESS: 8120847  HIT: 4277798  MISS: 3843049  HIT %: 52.6767  MISS %: 47.3233  AVERAGE MISS PENALTY: 545.261
LLC4 WRITEBACK ACCESS:  6706  HIT:  6429  MISS:   277  HIT %: 95.8694  MISS %: 4.13063  AVERAGE MISS PENALTY: 0

LLC5 TOTAL     ACCESS: 9775160  HIT: 5244193  MISS: 4530967  HIT %: 53.6482  MISS %: 46.3518  AVERAGE MISS PENALTY: 521.537
LLC5 LOAD      ACCESS: 1806621  HIT: 1041587  MISS: 765034  HIT %: 57.6539  MISS %: 42.3461  AVERAGE MISS PENALTY: 506.778
LLC5 RFO       ACCESS:     0  HIT:     0  MISS:     0  HIT %:     0  MISS %:     0  AVERAGE MISS PENALTY: 0
LLC5 PREFETCH  ACCESS: 7961788  HIT: 4196125  MISS: 3765663  HIT %: 52.7033  MISS %: 47.2967  AVERAGE MISS PENALTY: 524.572
LLC5 WRITEBACK ACCESS:  6751  HIT:  6481  MISS:   270  HIT %: 96.0006  MISS %: 3.99941  AVERAGE MISS PENALTY: 0

LLC6 TOTAL     ACCESS: 9609916  HIT: 5201994  MISS: 4407922  HIT %: 54.1315  MISS %: 45.8685  AVERAGE MISS PENALTY: 539.768
LLC6 LOAD      ACCESS: 1769946  HIT: 1010143  MISS: 759803  HIT %: 57.072  MISS %: 42.928  AVERAGE MISS PENALTY: 529.571
LLC6 RFO       ACCESS:     0  HIT:     0  MISS:     0  HIT %:     0  MISS %:     0  AVERAGE MISS PENALTY: 0
LLC6 PREFETCH  ACCESS: 7833325  HIT: 4185482  MISS: 3647843  HIT %: 53.4317  MISS %: 46.5683  AVERAGE MISS PENALTY: 541.933
LLC6 WRITEBACK ACCESS:  6645  HIT:  6369  MISS:   276  HIT %: 95.8465  MISS %: 4.1535  AVERAGE MISS PENALTY: 0

LLC7 TOTAL     ACCESS: 9472979  HIT: 5214286  MISS: 4258693  HIT %: 55.0438  MISS %: 44.9562  AVERAGE MISS PENALTY: 519.783
LLC7 LOAD      ACCESS: 1783243  HIT: 1027619  MISS: 755624  HIT %: 57.6264  MISS %: 42.3736  AVERAGE MISS PENALTY: 506.329
LLC7 RFO       ACCESS:     0  HIT:     0  MISS:     0  HIT %:     0  MISS %:     0  AVERAGE MISS PENALTY: 0
LLC7 PREFETCH  ACCESS: 7682809  HIT: 4180026  MISS: 3502783  HIT %: 54.4075  MISS %: 45.5925  AVERAGE MISS PENALTY: 522.728
LLC7 WRITEBACK ACCESS:  6927  HIT:  6641  MISS:   286  HIT %: 95.8712  MISS %: 4.12877  AVERAGE MISS PENALTY: 0

Total Rob stall cycles : 	2471348538
Total Load Rob Stall cycles : 	1449374020
Average Rob Stall cycles : 	 28
Average Load Rob Stall cycles : 	 194

CPU 1 cumulative IPC: 0.0779636 instructions: 200010218 cycles: 2565429693
ITLB TOTAL     ACCESS: 30002314  HIT: 30002314  MISS:     0  HIT %:   100  MISS %:     0  AVERAGE MISS PENALTY: 0
ITLB LOAD      ACCESS: 30002314  HIT: 30002314  MISS:     0  HIT %:   100  MISS %:     0  AVERAGE MISS PENALTY: 0
ITLB RFO       ACCESS:     0  HIT:     0  MISS:     0  HIT %:     0  MISS %:     0  AVERAGE MISS PENALTY: 0
ITLB PREFETCH  ACCESS:     0  HIT:     0  MISS:     0  HIT %:     0  MISS %:     0  AVERAGE MISS PENALTY: 0
ITLB WRITEBACK ACCESS:     0  HIT:     0  MISS:     0  HIT %:     0  MISS %:     0  AVERAGE MISS PENALTY: 0

DTLB TOTAL     ACCESS: 46619157  HIT: 36805399  MISS: 9813758  HIT %: 78.9491  MISS %: 21.0509  AVERAGE MISS PENALTY: 9.45284
DTLB LOAD      ACCESS: 46554547  HIT: 36740789  MISS: 9813758  HIT %: 78.9199  MISS %: 21.0801  AVERAGE MISS PENALTY: 9.45284
DTLB RFO       ACCESS: 64610  HIT: 64610  MISS:     0  HIT %:   100  MISS %:     0  AVERAGE MISS PENALTY: 0
DTLB PREFETCH  ACCESS:     0  HIT:     0  MISS:     0  HIT %:     0  MISS %:     0  AVERAGE MISS PENALTY: 0
DTLB WRITEBACK ACCESS:     0  HIT:     0  MISS:     0  HIT %:     0  MISS %:     0  AVERAGE MISS PENALTY: 0

STLB TOTAL     ACCESS: 9813758  HIT: 9798998  MISS: 14760  HIT %: 99.8496  MISS %: 0.150401  AVERAGE MISS PENALTY: 100
STLB LOAD      ACCESS: 9813758  HIT: 9798998  MISS: 14760  HIT %: 99.8496  MISS %: 0.150401  AVERAGE MISS PENALTY: 100
STLB RFO       ACCESS:     0  HIT:     0  MISS:     0  HIT %:     0  MISS %:     0  AVERAGE MISS PENALTY: 0
STLB PREFETCH  ACCESS:     0  HIT:     0  MISS:     0  HIT %:     0  MISS %:     0  AVERAGE MISS PENALTY: 0
STLB WRITEBACK ACCESS:     0  HIT:     0  MISS:     0  HIT %:     0  MISS %:     0  AVERAGE MISS PENALTY: 0

L1D TOTAL     ACCESS: 86958591  HIT: 32769112  MISS: 54189479  HIT %: 37.6836  MISS %: 62.3164  AVERAGE MISS PENALTY: 4.99634e+06
L1D LOAD      ACCESS: 43926124  HIT: 29300444  MISS: 14625680  HIT %: 66.7039  MISS %: 33.2961  AVERAGE MISS PENALTY: 1.85109e+07
L1D RFO       ACCESS: 64613  HIT: 64613  MISS:     0  HIT %:   100  MISS %:     0  AVERAGE MISS PENALTY: 0
L1D PREFETCH  ACCESS: 42967854  HIT: 3404055  MISS: 39563799  HIT %: 7.92233  MISS %: 92.0777  AVERAGE MISS PENALTY: 364.755
L1D WRITEBACK ACCESS:     0  HIT:     0  MISS:     0  HIT %:     0  MISS %:     0  AVERAGE MISS PENALTY: 0

L1I TOTAL     ACCESS: 42109510  HIT: 42109510  MISS:     0  HIT %:   100  MISS %:     0  AVERAGE MISS PENALTY: 0
L1I LOAD      ACCESS: 42109510  HIT: 42109510  MISS:     0  HIT %:   100  MISS %:     0  AVERAGE MISS PENALTY: 0
L1I RFO       ACCESS:     0  HIT:     0  MISS:     0  HIT %:     0  MISS %:     0  AVERAGE MISS PENALTY: 0
L1I PREFETCH  ACCESS:     0  HIT:     0  MISS:     0  HIT %:     0  MISS %:     0  AVERAGE MISS PENALTY: 0
L1I WRITEBACK ACCESS:     0  HIT:     0  MISS:     0  HIT %:     0  MISS %:     0  AVERAGE MISS PENALTY: 0

L2C TOTAL     ACCESS: 84171279  HIT: 4788468  MISS: 79382811  HIT %: 5.68896  MISS %: 94.311  AVERAGE MISS PENALTY: 3.78706e+06
L2C LOAD      ACCESS: 14620888  HIT: 197525  MISS: 14423363  HIT %: 1.35098  MISS %: 98.649  AVERAGE MISS PENALTY: 2.08417e+07
L2C RFO       ACCESS:     0  HIT:     0  MISS:     0  HIT %:     0  MISS %:     0  AVERAGE MISS PENALTY: 0
L2C PREFETCH  ACCESS: 69495948  HIT: 4575897  MISS: 64920051  HIT %: 6.58441  MISS %: 93.4156  AVERAGE MISS PENALTY: 316.239
L2C WRITEBACK ACCESS: 54443  HIT: 15046  MISS: 39397  HIT %: 27.6362  MISS %: 72.3638  AVERAGE MISS PENALTY: 0


LLC0 TOTAL     ACCESS: 10174505  HIT: 5402167  MISS: 4772338  HIT %: 53.0951  MISS %: 46.9049  AVERAGE MISS PENALTY: 659.447
LLC0 LOAD      ACCESS: 1795066  HIT: 1005613  MISS: 789453  HIT %: 56.0209  MISS %: 43.9791  AVERAGE MISS PENALTY: 611.791
LLC0 RFO       ACCESS:     0  HIT:     0  MISS:     0  HIT %:     0  MISS %:     0  AVERAGE MISS PENALTY: 0
LLC0 PREFETCH  ACCESS: 8372579  HIT: 4389954  MISS: 3982625  HIT %: 52.4325  MISS %: 47.5675  AVERAGE MISS PENALTY: 668.937
LLC0 WRITEBACK ACCESS:  6860  HIT:  6600  MISS:   260  HIT %: 96.2099  MISS %: 3.79009  AVERAGE MISS PENALTY: 0

LLC1 TOTAL     ACCESS: 10275812  HIT: 5451726  MISS: 4824086  HIT %: 53.054  MISS %: 46.946  AVERAGE MISS PENALTY: 614.043
LLC1 LOAD      ACCESS: 1825616  HIT: 1045775  MISS: 779841  HIT %: 57.2834  MISS %: 42.7166  AVERAGE MISS PENALTY: 608.603
LLC1 RFO       ACCESS:     0  HIT:     0  MISS:     0  HIT %:     0  MISS %:     0  AVERAGE MISS PENALTY: 0
LLC1 PREFETCH  ACCESS: 8443323  HIT: 4399376  MISS: 4043947  HIT %: 52.1048  MISS %: 47.8952  AVERAGE MISS PENALTY: 615.137
LLC1 WRITEBACK ACCESS:  6873  HIT:  6575  MISS:   298  HIT %: 95.6642  MISS %: 4.33581  AVERAGE MISS PENALTY: 0

LLC2 TOTAL     ACCESS: 10193865  HIT: 5409222  MISS: 4784643  HIT %: 53.0635  MISS %: 46.9365  AVERAGE MISS PENALTY: 612.627
LLC2 LOAD      ACCESS: 1801678  HIT: 1034114  MISS: 767564  HIT %: 57.3973  MISS %: 42.6027  AVERAGE MISS PENALTY: 613.056
LLC2 RFO       ACCESS:     0  HIT:     0  MISS:     0  HIT %:     0  MISS %:     0  AVERAGE MISS PENALTY: 0
LLC2 PREFETCH  ACCESS: 8385312  HIT: 4368520  MISS: 4016792  HIT %: 52.0973  MISS %: 47.9027  AVERAGE MISS PENALTY: 612.589
LLC2 WRITEBACK ACCESS:  6875  HIT:  6588  MISS:   287  HIT %: 95.8255  MISS %: 4.17455  AVERAGE MISS PENALTY: 0

LLC3 TOTAL     ACCESS: 10020190  HIT: 5319987  MISS: 4700203  HIT %: 53.0927  MISS %: 46.9073  AVERAGE MISS PENALTY: 607.876
LLC3 LOAD      ACCESS: 1746013  HIT: 972109  MISS: 773904  HIT %: 55.6759  MISS %: 44.3241  AVERAGE MISS PENALTY: 607.834
LLC3 RFO       ACCESS:     0  HIT:     0  MISS:     0  HIT %:     0  MISS %:     0  AVERAGE MISS PENALTY: 0
[...]
LLC1 AVERAGE MISS LATENCY: 614.413 cycles
LLC2 TOTAL     ACCESS: 10191905  HIT: 5408509  MISS: 4783396  HIT %: 53.0667  MISS %: 46.9333  AVERAGE MISS PENALTY: 612.616
LLC2 LOAD      ACCESS: 1801833  HIT: 1034020  MISS: 767813  HIT %: 57.3871  MISS %: 42.6129  AVERAGE MISS PENALTY: 613.12
LLC2 RFO       ACCESS:     0  HIT:     0  MISS:     0  HIT %:     0  MISS %:     0  AVERAGE MISS PENALTY: 0
LLC2 PREFETCH  ACCESS: 8383187  HIT: 4367881  MISS: 4015306  HIT %: 52.1029  MISS %: 47.8971  AVERAGE MISS PENALTY: 612.561
LLC2 WRITEBACK ACCESS:  6885  HIT:  6608  MISS:   277  HIT %: 95.9768  MISS %: 4.02324  AVERAGE MISS PENALTY: 0
LLC2 PREFETCH  REQUESTED:     0  ISSUED:     0  USEFUL: 3175488  USELESS: 28945428
 USEFUL LOAD PREFETCHES:    3175488 PREFETCH ISSUED TO LOWER LEVEL:   69248644  ACCURACY: 4.58563
 TIMELY PREFETCHES:    3175488 LATE PREFETCHES: 0 DROPPED PREFETCHES: 0
LLC2 AVERAGE MISS LATENCY: 612.615 cycles
LLC3 TOTAL     ACCESS: 10019822  HIT: 5323075  MISS: 4696747  HIT %: 53.1254  MISS %: 46.8746  AVERAGE MISS PENALTY: 608.166
LLC3 LOAD      ACCESS: 1746156  HIT: 971769  MISS: 774387  HIT %: 55.6519  MISS %: 44.3481  AVERAGE MISS PENALTY: 608.033
LLC3 RFO       ACCESS:     0  HIT:     0  MISS:     0  HIT %:     0  MISS %:     0  AVERAGE MISS PENALTY: 0
LLC3 PREFETCH  ACCESS: 8266857  HIT: 4344774  MISS: 3922083  HIT %: 52.5565  MISS %: 47.4435  AVERAGE MISS PENALTY: 608.235
LLC3 WRITEBACK ACCESS:  6809  HIT:  6532  MISS:   277  HIT %: 95.9319  MISS %: 4.06815  AVERAGE MISS PENALTY: 0
LLC3 PREFETCH  REQUESTED:     0  ISSUED:     0  USEFUL: 3189638  USELESS: 28210730
 USEFUL LOAD PREFETCHES:    3189638 PREFETCH ISSUED TO LOWER LEVEL:   59525414  ACCURACY: 5.35845
 TIMELY PREFETCHES:    3189638 LATE PREFETCHES: 0 DROPPED PREFETCHES: 0
LLC3 AVERAGE MISS LATENCY: 608.166 cycles
LLC4 TOTAL     ACCESS: 9878879  HIT: 5271098  MISS: 4607781  HIT %: 53.3572  MISS %: 46.6428  AVERAGE MISS PENALTY: 545.814
LLC4 LOAD      ACCESS: 1759360  HIT: 998055  MISS: 761305  HIT %: 56.7283  MISS %: 43.2717  AVERAGE MISS PENALTY: 535.999
LLC4 RFO       ACCESS:     0  HIT:     0  MISS:     0  HIT %:     0  MISS %:     0  AVERAGE MISS PENALTY: 0
LLC4 PREFETCH  ACCESS: 8112797  HIT: 4266579  MISS: 3846218  HIT %: 52.5907  MISS %: 47.4093  AVERAGE MISS PENALTY: 547.793
LLC4 WRITEBACK ACCESS:  6722  HIT:  6464  MISS:   258  HIT %: 96.1619  MISS %: 3.83814  AVERAGE MISS PENALTY: 0
LLC4 PREFETCH  REQUESTED:     0  ISSUED:     0  USEFUL: 3113778  USELESS: 27665668
 USEFUL LOAD PREFETCHES:    3113778 PREFETCH ISSUED TO LOWER LEVEL:   89182764  ACCURACY: 3.49146
 TIMELY PREFETCHES:    3113778 LATE PREFETCHES: 0 DROPPED PREFETCHES: 0
LLC4 AVERAGE MISS LATENCY: 545.814 cycles
LLC5 TOTAL     ACCESS: 9767340  HIT: 5228969  MISS: 4538371  HIT %: 53.5352  MISS %: 46.4648  AVERAGE MISS PENALTY: 524.188
LLC5 LOAD      ACCESS: 1806061  HIT: 1038166  MISS: 767895  HIT %: 57.4823  MISS %: 42.5177  AVERAGE MISS PENALTY: 510.302
LLC5 RFO       ACCESS:     0  HIT:     0  MISS:     0  HIT %:     0  MISS %:     0  AVERAGE MISS PENALTY: 0
LLC5 PREFETCH  ACCESS: 7954513  HIT: 4184321  MISS: 3770192  HIT %: 52.6031  MISS %: 47.3969  AVERAGE MISS PENALTY: 527.055
LLC5 WRITEBACK ACCESS:  6766  HIT:  6482  MISS:   284  HIT %: 95.8025  MISS %: 4.19746  AVERAGE MISS PENALTY: 0
LLC5 PREFETCH  REQUESTED:     0  ISSUED:     0  USEFUL: 3126955  USELESS: 27045649
 USEFUL LOAD PREFETCHES:    3126955 PREFETCH ISSUED TO LOWER LEVEL:   74527750  ACCURACY: 4.19569
 TIMELY PREFETCHES:    3126955 LATE PREFETCHES: 0 DROPPED PREFETCHES: 0
LLC5 AVERAGE MISS LATENCY: 524.188 cycles
LLC6 TOTAL     ACCESS: 9613905  HIT: 5201541  MISS: 4412364  HIT %: 54.1044  MISS %: 45.8956  AVERAGE MISS PENALTY: 542.54
LLC6 LOAD      ACCESS: 1781758  HIT: 1019231  MISS: 762527  HIT %: 57.2037  MISS %: 42.7963  AVERAGE MISS PENALTY: 533.589
LLC6 RFO       ACCESS:     0  HIT:     0  MISS:     0  HIT %:     0  MISS %:     0  AVERAGE MISS PENALTY: 0
LLC6 PREFETCH  ACCESS: 7825494  HIT: 4175932  MISS: 3649562  HIT %: 53.3632  MISS %: 46.6368  AVERAGE MISS PENALTY: 544.451
LLC6 WRITEBACK ACCESS:  6653  HIT:  6378  MISS:   275  HIT %: 95.8665  MISS %: 4.13347  AVERAGE MISS PENALTY: 0
LLC6 PREFETCH  REQUESTED:     0  ISSUED:     0  USEFUL: 3079346  USELESS: 26133140
 USEFUL LOAD PREFETCHES:    3079346 PREFETCH ISSUED TO LOWER LEVEL:  115962504  ACCURACY: 2.65547
 TIMELY PREFETCHES:    3079346 LATE PREFETCHES: 0 DROPPED PREFETCHES: 0
LLC6 AVERAGE MISS LATENCY: 542.54 cycles
LLC7 TOTAL     ACCESS: 9469597  HIT: 5203779  MISS: 4265818  HIT %: 54.9525  MISS %: 45.0475  AVERAGE MISS PENALTY: 523.036
LLC7 LOAD      ACCESS: 1782267  HIT: 1025116  MISS: 757151  HIT %: 57.5175  MISS %: 42.4825  AVERAGE MISS PENALTY: 509.652
LLC7 RFO       ACCESS:     0  HIT:     0  MISS:     0  HIT %:     0  MISS %:     0  AVERAGE MISS PENALTY: 0
LLC7 PREFETCH  ACCESS: 7680389  HIT: 4172014  MISS: 3508375  HIT %: 54.3203  MISS %: 45.6797  AVERAGE MISS PENALTY: 525.968
LLC7 WRITEBACK ACCESS:  6941  HIT:  6649  MISS:   292  HIT %: 95.7931  MISS %: 4.20689  AVERAGE MISS PENALTY: 0
LLC7 PREFETCH  REQUESTED:     0  ISSUED:     0  USEFUL: 3042613  USELESS: 25027310
 USEFUL LOAD PREFETCHES:    3042613 PREFETCH ISSUED TO LOWER LEVEL:   93361266  ACCURACY: 3.25897
 TIMELY PREFETCHES:    3042613 LATE PREFETCHES: 0 DROPPED PREFETCHES: 0
LLC7 AVERAGE MISS LATENCY: 523.036 cycles
ROI Average ROB Stall Cycles:	28.8006
ROI Total ROB Stalls Cycles:	2469138266
ROI TOTAL ROB counter      :	85732212
ROI Average Load ROB Stall Cycles:	194.793
ROI Total Load ROB Stalls Cycle  :	1453738016
ROI Total Load ROB stalls Counter:	7462990
Major fault: 0 Minor fault: 30199

CPU 7 cumulative IPC: 0.0780185 instructions: 200000000 cycles: 2563493923
ITLB TOTAL     ACCESS: 29992990  HIT: 29992990  MISS:     0  HIT %:   100  MISS %:     0  AVERAGE MISS PENALTY: 0
ITLB LOAD      ACCESS: 29992990  HIT: 29992990  MISS:     0  HIT %:   100  MISS %:     0  AVERAGE MISS PENALTY: 0
ITLB RFO       ACCESS:     0  HIT:     0  MISS:     0  HIT %:     0  MISS %:     0  AVERAGE MISS PENALTY: 0
ITLB PREFETCH  ACCESS:     0  HIT:     0  MISS:     0  HIT %:     0  MISS %:     0  AVERAGE MISS PENALTY: 0
ITLB WRITEBACK ACCESS:     0  HIT:     0  MISS:     0  HIT %:     0  MISS %:     0  AVERAGE MISS PENALTY: 0
ITLB PREFETCH  REQUESTED:     0  ISSUED:     0  USEFUL:     0  USELESS:     0
 USEFUL LOAD PREFETCHES:          0 PREFETCH ISSUED TO LOWER LEVEL:          0  ACCURACY: -nan
 TIMELY PREFETCHES:          0 LATE PREFETCHES: 0 DROPPED PREFETCHES: 0
ITLB AVERAGE MISS LATENCY: -nan cycles
DTLB TOTAL     ACCESS: 46618157  HIT: 36805011  MISS: 9813146  HIT %: 78.9499  MISS %: 21.0501  AVERAGE MISS PENALTY: 9.45298
DTLB LOAD      ACCESS: 46553422  HIT: 36740276  MISS: 9813146  HIT %: 78.9207  MISS %: 21.0793  AVERAGE MISS PENALTY: 9.45298
DTLB RFO       ACCESS: 64735  HIT: 64735  MISS:     0  HIT %:   100  MISS %:     0  AVERAGE MISS PENALTY: 0
DTLB PREFETCH  ACCESS:     0  HIT:     0  MISS:     0  HIT %:     0  MISS %:     0  AVERAGE MISS PENALTY: 0
DTLB WRITEBACK ACCESS:     0  HIT:     0  MISS:     0  HIT %:     0  MISS %:     0  AVERAGE MISS PENALTY: 0
DTLB PREFETCH  REQUESTED:     0  ISSUED:     0  USEFUL:     0  USELESS:     0
 USEFUL LOAD PREFETCHES:          0 PREFETCH ISSUED TO LOWER LEVEL:          0  ACCURACY: -nan
 TIMELY PREFETCHES:          0 LATE PREFETCHES: 0 DROPPED PREFETCHES: 0
DTLB AVERAGE MISS LATENCY: 9.45298 cycles
STLB TOTAL     ACCESS: 9813146  HIT: 9798385  MISS: 14761  HIT %: 99.8496  MISS %: 0.150421  AVERAGE MISS PENALTY: 100
STLB LOAD      ACCESS: 9813146  HIT: 9798385  MISS: 14761  HIT %: 99.8496  MISS %: 0.150421  AVERAGE MISS PENALTY: 100
STLB RFO       ACCESS:     0  HIT:     0  MISS:     0  HIT %:     0  MISS %:     0  AVERAGE MISS PENALTY: 0
STLB PREFETCH  ACCESS:     0  HIT:     0  MISS:     0  HIT %:     0  MISS %:     0  AVERAGE MISS PENALTY: 0
STLB WRITEBACK ACCESS:     0  HIT:     0  MISS:     0  HIT %:     0  MISS %:     0  AVERAGE MISS PENALTY: 0
STLB PREFETCH  REQUESTED:     0  ISSUED:     0  USEFUL:     0  USELESS:     0
 USEFUL LOAD PREFETCHES:          0 PREFETCH ISSUED TO LOWER LEVEL:          0  ACCURACY: -nan
 TIMELY PREFETCHES:          0 LATE PREFETCHES: 0 DROPPED PREFETCHES: 0
STLB AVERAGE MISS LATENCY: 100 cycles
L1D TOTAL     ACCESS: 86937819  HIT: 32744037  MISS: 54193782  HIT %: 37.6637  MISS %: 62.3363  AVERAGE MISS PENALTY: 4.99734e+06
L1D LOAD      ACCESS: 43926571  HIT: 29300022  MISS: 14626549  HIT %: 66.7023  MISS %: 33.2977  AVERAGE MISS PENALTY: 1.85152e+07
L1D RFO       ACCESS: 64741  HIT: 64741  MISS:     0  HIT %:   100  MISS %:     0  AVERAGE MISS PENALTY: 0
L1D PREFETCH  ACCESS: 42946507  HIT: 3379274  MISS: 39567233  HIT %: 7.86857  MISS %: 92.1314  AVERAGE MISS PENALTY: 301.646
L1D WRITEBACK ACCESS:     0  HIT:     0  MISS:     0  HIT %:     0  MISS %:     0  AVERAGE MISS PENALTY: 0
L1D PREFETCH  REQUESTED: 56999569  ISSUED: 44087402  USEFUL: 1182503  USELESS: 38384732
 USEFUL LOAD PREFETCHES:    1182503 PREFETCH ISSUED TO LOWER LEVEL:  394049576  ACCURACY: 0.30009
 TIMELY PREFETCHES:    1182503 LATE PREFETCHES: 448852 DROPPED PREFETCHES: 12912167
L1D AVERAGE MISS LATENCY: 299.575 cycles
L1I TOTAL     ACCESS: 42102439  HIT: 42102439  MISS:     0  HIT %:   100  MISS %:     0  AVERAGE MISS PENALTY: 0
L1I LOAD      ACCESS: 42102439  HIT: 42102439  MISS:     0  HIT %:   100  MISS %:     0  AVERAGE MISS PENALTY: 0
L1I RFO       ACCESS:     0  HIT:     0  MISS:     0  HIT %:     0  MISS %:     0  AVERAGE MISS PENALTY: 0
L1I PREFETCH  ACCESS:     0  HIT:     0  MISS:     0  HIT %:     0  MISS %:     0  AVERAGE MISS PENALTY: 0
L1I WRITEBACK ACCESS:     0  HIT:     0  MISS:     0  HIT %:     0  MISS %:     0  AVERAGE MISS PENALTY: 0
L1I PREFETCH  REQUESTED:     0  ISSUED:     0  USEFUL:     0  USELESS:     0
 USEFUL LOAD PREFETCHES:          0 PREFETCH ISSUED TO LOWER LEVEL:          0  ACCURACY: -nan
 TIMELY PREFETCHES:          0 LATE PREFETCHES: 0 DROPPED PREFETCHES: 0
L1I AVERAGE MISS LATENCY: -nan cycles
L2C TOTAL     ACCESS: 84170835  HIT: 4784505  MISS: 79386330  HIT %: 5.68428  MISS %: 94.3157  AVERAGE MISS PENALTY: 3.78675e+06
L2C LOAD      ACCESS: 14621796  HIT: 197146  MISS: 14424650  HIT %: 1.3483  MISS %: 98.6517  AVERAGE MISS PENALTY: 2.08391e+07
L2C RFO       ACCESS:     0  HIT:     0  MISS:     0  HIT %:     0  MISS %:     0  AVERAGE MISS PENALTY: 0
L2C PREFETCH  ACCESS: 69494502  HIT: 4572178  MISS: 64922324  HIT %: 6.57919  MISS %: 93.4208  AVERAGE MISS PENALTY: 309.966
L2C WRITEBACK ACCESS: 54537  HIT: 15181  MISS: 39356  HIT %: 27.8361  MISS %: 72.1639  AVERAGE MISS PENALTY: 0
L2C PREFETCH  REQUESTED: 93348050  ISSUED: 92968929  USEFUL: 163638  USELESS: 64758646
 USEFUL LOAD PREFETCHES:     163638 PREFETCH ISSUED TO LOWER LEVEL:   75056756  ACCURACY: 0.218019
 TIMELY PREFETCHES:     163638 LATE PREFETCHES: 784581 DROPPED PREFETCHES: 379121
L2C AVERAGE MISS LATENCY: 304.872 cycles
LLC0 TOTAL     ACCESS: 10174170  HIT: 5407658  MISS: 4766512  HIT %: 53.1509  MISS %: 46.8491  AVERAGE MISS PENALTY: 618.937
LLC0 LOAD      ACCESS: 1795106  HIT: 1007034  MISS: 788072  HIT %: 56.0989  MISS %: 43.9011  AVERAGE MISS PENALTY: 610.854
LLC0 RFO       ACCESS:     0  HIT:     0  MISS:     0  HIT %:     0  MISS %:     0  AVERAGE MISS PENALTY: 0
LLC0 PREFETCH  ACCESS: 8372195  HIT: 4394023  MISS: 3978172  HIT %: 52.4835  MISS %: 47.5165  AVERAGE MISS PENALTY: 620.58
LLC0 WRITEBACK ACCESS:  6869  HIT:  6601  MISS:   268  HIT %: 96.0984  MISS %: 3.90159  AVERAGE MISS PENALTY: 0
LLC0 PREFETCH  REQUESTED:     0  ISSUED:     0  USEFUL: 3175978  USELESS: 28670185
 USEFUL LOAD PREFETCHES:    3175978 PREFETCH ISSUED TO LOWER LEVEL:   52878989  ACCURACY: 6.00612
 TIMELY PREFETCHES:    3175978 LATE PREFETCHES: 0 DROPPED PREFETCHES: 0
LLC0 AVERAGE MISS LATENCY: 618.937 cycles
Deadblocks : 5522465 Deadblock percentage : 700.756

LLC1 TOTAL     ACCESS: 10274809  HIT: 5456646  MISS: 4818163  HIT %: 53.107  MISS %: 46.893  AVERAGE MISS PENALTY: 613.673
LLC1 LOAD      ACCESS: 1825647  HIT: 1047930  MISS: 777717  HIT %: 57.4005  MISS %: 42.5995  AVERAGE MISS PENALTY: 607.812
LLC1 RFO       ACCESS:     0  HIT:     0  MISS:     0  HIT %:     0  MISS %:     0  AVERAGE MISS PENALTY: 0
LLC1 PREFETCH  ACCESS: 8442280  HIT: 4402112  MISS: 4040168  HIT %: 52.1436  MISS %: 47.8564  AVERAGE MISS PENALTY: 614.844
LLC1 WRITEBACK ACCESS:  6882  HIT:  6604  MISS:   278  HIT %: 95.9605  MISS %: 4.03952  AVERAGE MISS PENALTY: 0
LLC1 PREFETCH  REQUESTED:     0  ISSUED:     0  USEFUL: 3209407  USELESS: 29145247
 USEFUL LOAD PREFETCHES:    3209407 PREFETCH ISSUED TO LOWER LEVEL:   48837297  ACCURACY: 6.57163
 TIMELY PREFETCHES:    3209407 LATE PREFETCHES: 0 DROPPED PREFETCHES: 0
LLC1 AVERAGE MISS LATENCY: 613.673 cycles
LLC2 TOTAL     ACCESS: 10194637  HIT: 5415931  MISS: 4778706  HIT %: 53.1253  MISS %: 46.8747  AVERAGE MISS PENALTY: 612.366
LLC2 LOAD      ACCESS: 1801853  HIT: 1034210  MISS: 767643  HIT %: 57.397  MISS %: 42.603  AVERAGE MISS PENALTY: 611.552
LLC2 RFO       ACCESS:     0  HIT:     0  MISS:     0  HIT %:     0  MISS %:     0  AVERAGE MISS PENALTY: 0
LLC2 PREFETCH  ACCESS: 8385897  HIT: 4375093  MISS: 4010804  HIT %: 52.172  MISS %: 47.828  AVERAGE MISS PENALTY: 612.561
LLC2 WRITEBACK ACCESS:  6887  HIT:  6628  MISS:   259  HIT %: 96.2393  MISS %: 3.76071  AVERAGE MISS PENALTY: 0
LLC2 PREFETCH  REQUESTED:     0  ISSUED:     0  USEFUL: 3175488  USELESS: 28945428
 USEFUL LOAD PREFETCHES:    3175488 PREFETCH ISSUED TO LOWER LEVEL:   69248644  ACCURACY: 4.58563
 TIMELY PREFETCHES:    3175488 LATE PREFETCHES: 0 DROPPED PREFETCHES: 0
LLC2 AVERAGE MISS LATENCY: 612.366 cycles
LLC3 TOTAL     ACCESS: 10021571  HIT: 5325114  MISS: 4696457  HIT %: 53.1365  MISS %: 46.8635  AVERAGE MISS PENALTY: 607.742
LLC3 LOAD      ACCESS: 1746182  HIT: 971706  MISS: 774476  HIT %: 55.6475  MISS %: 44.3525  AVERAGE MISS PENALTY: 606.888
LLC3 RFO       ACCESS:     0  HIT:     0  MISS:     0  HIT %:     0  MISS %:     0  AVERAGE MISS PENALTY: 0
LLC3 PREFETCH  ACCESS: 8268580  HIT: 4346866  MISS: 3921714  HIT %: 52.5709  MISS %: 47.4291  AVERAGE MISS PENALTY: 607.952
LLC3 WRITEBACK ACCESS:  6809  HIT:  6542  MISS:   267  HIT %: 96.0787  MISS %: 3.92128  AVERAGE MISS PENALTY: 0
LLC3 PREFETCH  REQUESTED:     0  ISSUED:     0  USEFUL: 3189638  USELESS: 28210730
 USEFUL LOAD PREFETCHES:    3189638 PREFETCH ISSUED TO LOWER LEVEL:   59525414  ACCURACY: 5.35845
 TIMELY PREFETCHES:    3189638 LATE PREFETCHES: 0 DROPPED PREFETCHES: 0
LLC3 AVERAGE MISS LATENCY: 607.742 cycles
LLC4 TOTAL     ACCESS: 9881042  HIT: 5275798  MISS: 4605244  HIT %: 53.3931  MISS %: 46.6069  AVERAGE MISS PENALTY: 545.252
LLC4 LOAD      ACCESS: 1759266  HIT: 997549  MISS: 761717  HIT %: 56.7026  MISS %: 43.2974  AVERAGE MISS PENALTY: 535.116
LLC4 RFO       ACCESS:     0  HIT:     0  MISS:     0  HIT %:     0  MISS %:     0  AVERAGE MISS PENALTY: 0
LLC4 PREFETCH  ACCESS: 8115051  HIT: 4271801  MISS: 3843250  HIT %: 52.6405  MISS %: 47.3595  AVERAGE MISS PENALTY: 547.3
LLC4 WRITEBACK ACCESS:  6725  HIT:  6448  MISS:   277  HIT %: 95.881  MISS %: 4.11896  AVERAGE MISS PENALTY: 0
LLC4 PREFETCH  REQUESTED:     0  ISSUED:     0  USEFUL: 3113778  USELESS: 27665668
 USEFUL LOAD PREFETCHES:    3113778 PREFETCH ISSUED TO LOWER LEVEL:   89182764  ACCURACY: 3.49146
 TIMELY PREFETCHES:    3113778 LATE PREFETCHES: 0 DROPPED PREFETCHES: 0
LLC4 AVERAGE MISS LATENCY: 545.252 cycles
LLC5 TOTAL     ACCESS: 9768309  HIT: 5232593  MISS: 4535716  HIT %: 53.567  MISS %: 46.433  AVERAGE MISS PENALTY: 523.754
LLC5 LOAD      ACCESS: 1805930  HIT: 1038939  MISS: 766991  HIT %: 57.5293  MISS %: 42.4707  AVERAGE MISS PENALTY: 509.873
LLC5 RFO       ACCESS:     0  HIT:     0  MISS:     0  HIT %:     0  MISS %:     0  AVERAGE MISS PENALTY: 0
LLC5 PREFETCH  ACCESS: 7955611  HIT: 4187159  MISS: 3768452  HIT %: 52.6315  MISS %: 47.3685  AVERAGE MISS PENALTY: 526.617
LLC5 WRITEBACK ACCESS:  6768  HIT:  6495  MISS:   273  HIT %: 95.9663  MISS %: 4.03369  AVERAGE MISS PENALTY: 0
LLC5 PREFETCH  REQUESTED:     0  ISSUED:     0  USEFUL: 3126955  USELESS: 27045649
 USEFUL LOAD PREFETCHES:    3126955 PREFETCH ISSUED TO LOWER LEVEL:   74527750  ACCURACY: 4.19569
 TIMELY PREFETCHES:    3126955 LATE PREFETCHES: 0 DROPPED PREFETCHES: 0
LLC5 AVERAGE MISS LATENCY: 523.754 cycles
LLC6 TOTAL     ACCESS: 9615925  HIT: 5204678  MISS: 4411247  HIT %: 54.1256  MISS %: 45.8744  AVERAGE MISS PENALTY: 541.966
LLC6 LOAD      ACCESS: 1781809  HIT: 1019505  MISS: 762304  HIT %: 57.2174  MISS %: 42.7826  AVERAGE MISS PENALTY: 532.714
LLC6 RFO       ACCESS:     0  HIT:     0  MISS:     0  HIT %:     0  MISS %:     0  AVERAGE MISS PENALTY: 0
LLC6 PREFETCH  ACCESS: 7827462  HIT: 4178788  MISS: 3648674  HIT %: 53.3862  MISS %: 46.6138  AVERAGE MISS PENALTY: 543.939
LLC6 WRITEBACK ACCESS:  6654  HIT:  6385  MISS:   269  HIT %: 95.9573  MISS %: 4.04268  AVERAGE MISS PENALTY: 0
LLC6 PREFETCH  REQUESTED:     0  ISSUED:     0  USEFUL: 3079346  USELESS: 26133140
 USEFUL LOAD PREFETCHES:    3079346 PREFETCH ISSUED TO LOWER LEVEL:  115962504  ACCURACY: 2.65547
 TIMELY PREFETCHES:    3079346 LATE PREFETCHES: 0 DROPPED PREFETCHES: 0
LLC6 AVERAGE MISS LATENCY: 541.966 cycles
LLC7 TOTAL     ACCESS: 9471044  HIT: 5207063  MISS: 4263981  HIT %: 54.9788  MISS %: 45.0212  AVERAGE MISS PENALTY: 522.635
LLC7 LOAD      ACCESS: 1782406  HIT: 1024649  MISS: 757757  HIT %: 57.4868  MISS %: 42.5132  AVERAGE MISS PENALTY: 509.416
LLC7 RFO       ACCESS:     0  HIT:     0  MISS:     0  HIT %:     0  MISS %:     0  AVERAGE MISS PENALTY: 0
LLC7 PREFETCH  ACCESS: 7681696  HIT: 4175737  MISS: 3505959  HIT %: 54.3596  MISS %: 45.6404  AVERAGE MISS PENALTY: 525.531
LLC7 WRITEBACK ACCESS:  6942  HIT:  6677  MISS:   265  HIT %: 96.1827  MISS %: 3.81734  AVERAGE MISS PENALTY: 0
LLC7 PREFETCH  REQUESTED:     0  ISSUED:     0  USEFUL: 3042613  USELESS: 25027310
 USEFUL LOAD PREFETCHES:    3042613 PREFETCH ISSUED TO LOWER LEVEL:   93361266  ACCURACY: 3.25897
 TIMELY PREFETCHES:    3042613 LATE PREFETCHES: 0 DROPPED PREFETCHES: 0
LLC7 AVERAGE MISS LATENCY: 522.635 cycles
ROI Average ROB Stall Cycles:	28.8099
ROI Total ROB Stalls Cycles:	2469431765
ROI TOTAL ROB counter      :	85714557
ROI Average Load ROB Stall Cycles:	194.585
ROI Total Load ROB Stalls Cycle  :	1451398917
ROI Total Load ROB stalls Counter:	7458941
Major fault: 0 Minor fault: 30194








Interconnect Stats 
LINK 0 BW : 0LINK 1 BW : 0LINK 2 BW : 0LINK 3 BW : 0LINK 4 BW : 0LINK 5 BW : 0LINK 6 BW : 0LINK 7 BW : 0
DRAM Statistics
 CHANNEL 0
 RQ ROW_BUFFER_HIT: 47642044  ROW_BUFFER_MISS: 100922560
 DBUS_CONGESTED: 68341458
 WQ ROW_BUFFER_HIT: 37304  ROW_BUFFER_MISS: 179562  FULL:     0

 CHANNEL 1
 RQ ROW_BUFFER_HIT: 46626861  ROW_BUFFER_MISS: 99952472
 DBUS_CONGESTED: 68341458
 WQ ROW_BUFFER_HIT: 37178  ROW_BUFFER_MISS: 181821  FULL:     0

 AVG_CONGESTED_CYCLE: 4
DRAM PAGES: 2097152
Allocated PAGES: 241572
L2C destructor called
L1D destructor called
L1I destructor called
STLB destructor called
DTLB destructor called
ITLB destructor called
L2C destructor called
L1D destructor called
L1I destructor called
STLB destructor called
DTLB destructor called
ITLB destructor called
L2C destructor called
L1D destructor called
L1I destructor called
STLB destructor called
DTLB destructor called
ITLB destructor called
L2C destructor called
L1D destructor called
L1I destructor called
STLB destructor called
DTLB destructor called
ITLB destructor called
L2C destructor called
L1D destructor called
L1I destructor called
STLB destructor called
DTLB destructor called
ITLB destructor called
L2C destructor called
L1D destructor called
L1I destructor called
STLB destructor called
DTLB destructor called
ITLB destructor called
L2C destructor called
L1D destructor called
L1I destructor called
STLB destructor called
DTLB destructor called
ITLB destructor called
L2C destructor called
L1D destructor called
L1I destructor called
STLB destructor called
DTLB destructor called
ITLB destructor called
