
*** ChampSim Multicore Out-of-Order Simulator ***

Warmup Instructions: 200000000
Simulation Instructions: 200000000
Number of CPUs: 8
threads:1

L1I Configuration:
L1I_SET:64
L1I_WAY:8
L1I_RQ_SIZE:64
L1I_WQ_SIZE:64
L1I_PQ_SIZE:8
L1I_MSHR_SIZE:8

L1D Configuration:
L1D_SET:64
L1D_WAY:12
L1D_RQ_SIZE:64
L1D_WQ_SIZE:64
L1D_PQ_SIZE:8
L1D_MSHR_SIZE:16

L2C Configuration:
L2C_SET:1024
L2C_WAY:8
L2C_RQ_SIZE:32
L2C_WQ_SIZE:32
L2C_PQ_SIZE:16
L2C_MSHR_SIZE:32

LLC Configuration:
LLC_SET:2048
LLC_WAY:16
LLC SLICES:8
LLC_RQ_SIZE:64
LLC_WQ_SIZE:64
LLC_PQ_SIZE:32
LLC_MSHR_SIZE:64

Interconnect OFF
Attacker deprioritize is: OFF
Off-chip DRAM Size: 8192 MB Channels: 2 Width: 64-bit Data Rate: 3200 MT/s
PAGE SIZE in KB: 4.000000 
PAGE SIZE in MB: 0.003906 
PAGE offset in bits: 12 
CEASER-S_LLC:0
MIRAGE : 1
CEASER_LATENCY:3
REMAP : OFF
Partitions : 1
Multi-Step : OFF
BFS : OFF

CPU 0 runs /home/anubhav/gap/cc-5.trace.gz
CPU 1 runs /home/anubhav/gap/cc-5.trace.gz
CPU 2 runs /home/anubhav/gap/cc-5.trace.gz
CPU 3 runs /home/anubhav/gap/cc-5.trace.gz
CPU 4 runs /home/anubhav/gap/cc-5.trace.gz
CPU 5 runs /home/anubhav/gap/cc-5.trace.gz
CPU 6 runs /home/anubhav/gap/cc-5.trace.gz
CPU 7 runs /home/anubhav/gap/cc-5.trace.gz
CPU 0 Bimodal branch predictor
Initialize Hawkeye state
Initialize Hawkeye state
Initialize Hawkeye state
Initialize Hawkeye state
Initialize Hawkeye state
Initialize Hawkeye state
Initialize Hawkeye state
Initialize Hawkeye state
CPU 1 Bimodal branch predictor
Initialize Hawkeye state
Initialize Hawkeye state
Initialize Hawkeye state
Initialize Hawkeye state
Initialize Hawkeye state
Initialize Hawkeye state
Initialize Hawkeye state
Initialize Hawkeye state
CPU 2 Bimodal branch predictor
Initialize Hawkeye state
Initialize Hawkeye state
Initialize Hawkeye state
Initialize Hawkeye state
Initialize Hawkeye state
Initialize Hawkeye state
Initialize Hawkeye state
Initialize Hawkeye state
CPU 3 Bimodal branch predictor
Initialize Hawkeye state
Initialize Hawkeye state
Initialize Hawkeye state
Initialize Hawkeye state
Initialize Hawkeye state
Initialize Hawkeye state
Initialize Hawkeye state
Initialize Hawkeye state
CPU 4 Bimodal branch predictor
Initialize Hawkeye state
Initialize Hawkeye state
Initialize Hawkeye state
Initialize Hawkeye state
Initialize Hawkeye state
Initialize Hawkeye state
Initialize Hawkeye state
Initialize Hawkeye state
CPU 5 Bimodal branch predictor
Initialize Hawkeye state
Initialize Hawkeye state
Initialize Hawkeye state
Initialize Hawkeye state
Initialize Hawkeye state
Initialize Hawkeye state
Initialize Hawkeye state
Initialize Hawkeye state
CPU 6 Bimodal branch predictor
Initialize Hawkeye state
Initialize Hawkeye state
Initialize Hawkeye state
Initialize Hawkeye state
Initialize Hawkeye state
Initialize Hawkeye state
Initialize Hawkeye state
Initialize Hawkeye state
CPU 7 Bimodal branch predictor
Initialize Hawkeye state
Initialize Hawkeye state
Initialize Hawkeye state
Initialize Hawkeye state
Initialize Hawkeye state
Initialize Hawkeye state
Initialize Hawkeye state
Initialize Hawkeye state
Heartbeat CPU 0 instructions: 10000000 cycles: 10449309 heartbeat IPC: 0.957001 cumulative IPC: 0.957001 (Simulation time: 0 hr 14 min 18 sec) 
 Total Blocks : 262144 Invalid Blocks : 35
Heartbeat CPU 1 instructions: 10000000 cycles: 10449597 heartbeat IPC: 0.956975 cumulative IPC: 0.956975 (Simulation time: 0 hr 14 min 18 sec) 
 Total Blocks : 262144 Invalid Blocks : 35
Heartbeat CPU 3 instructions: 10000000 cycles: 10449667 heartbeat IPC: 0.956968 cumulative IPC: 0.956968 (Simulation time: 0 hr 14 min 18 sec) 
 Total Blocks : 262144 Invalid Blocks : 35
Heartbeat CPU 2 instructions: 10000000 cycles: 10449904 heartbeat IPC: 0.956947 cumulative IPC: 0.956947 (Simulation time: 0 hr 14 min 18 sec) 
 Total Blocks : 262144 Invalid Blocks : 35
Heartbeat CPU 4 instructions: 10000000 cycles: 10449935 heartbeat IPC: 0.956944 cumulative IPC: 0.956944 (Simulation time: 0 hr 14 min 18 sec) 
 Total Blocks : 262144 Invalid Blocks : 35
Heartbeat CPU 5 instructions: 10000003 cycles: 10449997 heartbeat IPC: 0.956938 cumulative IPC: 0.956938 (Simulation time: 0 hr 14 min 18 sec) 
 Total Blocks : 262144 Invalid Blocks : 35
Heartbeat CPU 7 instructions: 10000000 cycles: 10450986 heartbeat IPC: 0.956847 cumulative IPC: 0.956847 (Simulation time: 0 hr 14 min 18 sec) 
 Total Blocks : 262144 Invalid Blocks : 35
Heartbeat CPU 6 instructions: 10000000 cycles: 10451012 heartbeat IPC: 0.956845 cumulative IPC: 0.956845 (Simulation time: 0 hr 14 min 18 sec) 
 Total Blocks : 262144 Invalid Blocks : 35
Heartbeat CPU 0 instructions: 20000000 cycles: 19692510 heartbeat IPC: 1.08188 cumulative IPC: 1.01561 (Simulation time: 0 hr 28 min 48 sec) 
 Total Blocks : 262144 Invalid Blocks : 0
Heartbeat CPU 1 instructions: 20000000 cycles: 19692556 heartbeat IPC: 1.0819 cumulative IPC: 1.01561 (Simulation time: 0 hr 28 min 48 sec) 
 Total Blocks : 262144 Invalid Blocks : 0
Heartbeat CPU 2 instructions: 20000000 cycles: 19693211 heartbeat IPC: 1.08186 cumulative IPC: 1.01558 (Simulation time: 0 hr 28 min 48 sec) 
 Total Blocks : 262144 Invalid Blocks : 0
Heartbeat CPU 3 instructions: 20000000 cycles: 19693485 heartbeat IPC: 1.0818 cumulative IPC: 1.01556 (Simulation time: 0 hr 28 min 48 sec) 
 Total Blocks : 262144 Invalid Blocks : 0
Heartbeat CPU 4 instructions: 20000000 cycles: 19693832 heartbeat IPC: 1.08179 cumulative IPC: 1.01555 (Simulation time: 0 hr 28 min 48 sec) 
 Total Blocks : 262144 Invalid Blocks : 0
Heartbeat CPU 5 instructions: 20000000 cycles: 19694151 heartbeat IPC: 1.08176 cumulative IPC: 1.01553 (Simulation time: 0 hr 28 min 48 sec) 
 Total Blocks : 262144 Invalid Blocks : 0
Heartbeat CPU 6 instructions: 20000000 cycles: 19695440 heartbeat IPC: 1.08173 cumulative IPC: 1.01546 (Simulation time: 0 hr 28 min 48 sec) 
 Total Blocks : 262144 Invalid Blocks : 0
Heartbeat CPU 7 instructions: 20000000 cycles: 19695867 heartbeat IPC: 1.08168 cumulative IPC: 1.01544 (Simulation time: 0 hr 28 min 48 sec) 
 Total Blocks : 262144 Invalid Blocks : 0
Heartbeat CPU 0 instructions: 30000001 cycles: 28249870 heartbeat IPC: 1.16858 cumulative IPC: 1.06195 (Simulation time: 0 hr 44 min 5 sec) 
 Total Blocks : 262144 Invalid Blocks : 0
Heartbeat CPU 1 instructions: 30000001 cycles: 28250809 heartbeat IPC: 1.16846 cumulative IPC: 1.06192 (Simulation time: 0 hr 44 min 5 sec) 
 Total Blocks : 262144 Invalid Blocks : 0
Heartbeat CPU 2 instructions: 30000001 cycles: 28251638 heartbeat IPC: 1.16844 cumulative IPC: 1.06189 (Simulation time: 0 hr 44 min 6 sec) 
 Total Blocks : 262144 Invalid Blocks : 0
Heartbeat CPU 3 instructions: 30000001 cycles: 28252298 heartbeat IPC: 1.16839 cumulative IPC: 1.06186 (Simulation time: 0 hr 44 min 6 sec) 
 Total Blocks : 262144 Invalid Blocks : 0
Heartbeat CPU 4 instructions: 30000001 cycles: 28253125 heartbeat IPC: 1.16832 cumulative IPC: 1.06183 (Simulation time: 0 hr 44 min 6 sec) 
 Total Blocks : 262144 Invalid Blocks : 0
Heartbeat CPU 5 instructions: 30000001 cycles: 28253931 heartbeat IPC: 1.16825 cumulative IPC: 1.0618 (Simulation time: 0 hr 44 min 6 sec) 
 Total Blocks : 262144 Invalid Blocks : 0
Heartbeat CPU 6 instructions: 30000001 cycles: 28255001 heartbeat IPC: 1.16828 cumulative IPC: 1.06176 (Simulation time: 0 hr 44 min 6 sec) 
 Total Blocks : 262144 Invalid Blocks : 0
Heartbeat CPU 7 instructions: 30000001 cycles: 28256233 heartbeat IPC: 1.16817 cumulative IPC: 1.06171 (Simulation time: 0 hr 44 min 6 sec) 
 Total Blocks : 262144 Invalid Blocks : 0
Heartbeat CPU 0 instructions: 40000003 cycles: 36580457 heartbeat IPC: 1.2004 cumulative IPC: 1.09348 (Simulation time: 1 hr 0 min 18 sec) 
 Total Blocks : 262144 Invalid Blocks : 0
Heartbeat CPU 1 instructions: 40000003 cycles: 36582138 heartbeat IPC: 1.20029 cumulative IPC: 1.09343 (Simulation time: 1 hr 0 min 18 sec) 
 Total Blocks : 262144 Invalid Blocks : 0
Heartbeat CPU 2 instructions: 40000003 cycles: 36583062 heartbeat IPC: 1.20028 cumulative IPC: 1.0934 (Simulation time: 1 hr 0 min 18 sec) 
 Total Blocks : 262144 Invalid Blocks : 0
Heartbeat CPU 3 instructions: 40000003 cycles: 36583918 heartbeat IPC: 1.20025 cumulative IPC: 1.09338 (Simulation time: 1 hr 0 min 18 sec) 
 Total Blocks : 262144 Invalid Blocks : 0
Heartbeat CPU 4 instructions: 40000003 cycles: 36584550 heartbeat IPC: 1.20028 cumulative IPC: 1.09336 (Simulation time: 1 hr 0 min 18 sec) 
 Total Blocks : 262144 Invalid Blocks : 0
Heartbeat CPU 5 instructions: 40000003 cycles: 36586109 heartbeat IPC: 1.20017 cumulative IPC: 1.09331 (Simulation time: 1 hr 0 min 19 sec) 
 Total Blocks : 262144 Invalid Blocks : 0
Heartbeat CPU 6 instructions: 40000003 cycles: 36587613 heartbeat IPC: 1.2001 cumulative IPC: 1.09327 (Simulation time: 1 hr 0 min 19 sec) 
 Total Blocks : 262144 Invalid Blocks : 0
Heartbeat CPU 7 instructions: 40000003 cycles: 36589306 heartbeat IPC: 1.20004 cumulative IPC: 1.09322 (Simulation time: 1 hr 0 min 19 sec) 
 Total Blocks : 262144 Invalid Blocks : 0
Heartbeat CPU 0 instructions: 50000001 cycles: 44533781 heartbeat IPC: 1.25734 cumulative IPC: 1.12274 (Simulation time: 1 hr 25 min 1 sec) 
 Total Blocks : 262144 Invalid Blocks : 0
Heartbeat CPU 1 instructions: 50000001 cycles: 44538917 heartbeat IPC: 1.25679 cumulative IPC: 1.12261 (Simulation time: 1 hr 25 min 3 sec) 
 Total Blocks : 262144 Invalid Blocks : 0
Heartbeat CPU 2 instructions: 50000001 cycles: 44541785 heartbeat IPC: 1.25648 cumulative IPC: 1.12254 (Simulation time: 1 hr 25 min 4 sec) 
 Total Blocks : 262144 Invalid Blocks : 0
Heartbeat CPU 3 instructions: 50000001 cycles: 44545365 heartbeat IPC: 1.25605 cumulative IPC: 1.12245 (Simulation time: 1 hr 25 min 5 sec) 
 Total Blocks : 262144 Invalid Blocks : 0
Heartbeat CPU 4 instructions: 50000001 cycles: 44547145 heartbeat IPC: 1.25587 cumulative IPC: 1.12241 (Simulation time: 1 hr 25 min 5 sec) 
 Total Blocks : 262144 Invalid Blocks : 0
Heartbeat CPU 5 instructions: 50000001 cycles: 44550177 heartbeat IPC: 1.25564 cumulative IPC: 1.12233 (Simulation time: 1 hr 25 min 5 sec) 
 Total Blocks : 262144 Invalid Blocks : 0
Heartbeat CPU 6 instructions: 50000001 cycles: 44553813 heartbeat IPC: 1.2553 cumulative IPC: 1.12224 (Simulation time: 1 hr 25 min 6 sec) 
 Total Blocks : 262144 Invalid Blocks : 0
Heartbeat CPU 7 instructions: 50000001 cycles: 44556660 heartbeat IPC: 1.25512 cumulative IPC: 1.12217 (Simulation time: 1 hr 25 min 7 sec) 
 Total Blocks : 262144 Invalid Blocks : 0
Heartbeat CPU 0 instructions: 60000000 cycles: 52981155 heartbeat IPC: 1.1838 cumulative IPC: 1.13248 (Simulation time: 1 hr 54 min 17 sec) 
 Total Blocks : 262144 Invalid Blocks : 0
Heartbeat CPU 1 instructions: 60000000 cycles: 52990764 heartbeat IPC: 1.18317 cumulative IPC: 1.13227 (Simulation time: 1 hr 54 min 19 sec) 
 Total Blocks : 262144 Invalid Blocks : 0
Heartbeat CPU 2 instructions: 60000000 cycles: 52997118 heartbeat IPC: 1.18269 cumulative IPC: 1.13214 (Simulation time: 1 hr 54 min 20 sec) 
 Total Blocks : 262144 Invalid Blocks : 0
Heartbeat CPU 3 instructions: 60000000 cycles: 53003833 heartbeat IPC: 1.18225 cumulative IPC: 1.13199 (Simulation time: 1 hr 54 min 22 sec) 
 Total Blocks : 262144 Invalid Blocks : 0
Heartbeat CPU 4 instructions: 60000000 cycles: 53007955 heartbeat IPC: 1.18192 cumulative IPC: 1.13191 (Simulation time: 1 hr 54 min 23 sec) 
 Total Blocks : 262144 Invalid Blocks : 0
Heartbeat CPU 5 instructions: 60000000 cycles: 53013711 heartbeat IPC: 1.18154 cumulative IPC: 1.13178 (Simulation time: 1 hr 54 min 24 sec) 
 Total Blocks : 262144 Invalid Blocks : 0
Heartbeat CPU 6 instructions: 60000000 cycles: 53019641 heartbeat IPC: 1.18122 cumulative IPC: 1.13166 (Simulation time: 1 hr 54 min 26 sec) 
 Total Blocks : 262144 Invalid Blocks : 0
Heartbeat CPU 7 instructions: 60000000 cycles: 53023912 heartbeat IPC: 1.18102 cumulative IPC: 1.13156 (Simulation time: 1 hr 54 min 27 sec) 
 Total Blocks : 262144 Invalid Blocks : 0
Heartbeat CPU 0 instructions: 70000001 cycles: 60948189 heartbeat IPC: 1.25517 cumulative IPC: 1.14852 (Simulation time: 2 hr 23 min 2 sec) 
 Total Blocks : 262144 Invalid Blocks : 0
Heartbeat CPU 1 instructions: 70000001 cycles: 60961742 heartbeat IPC: 1.25455 cumulative IPC: 1.14826 (Simulation time: 2 hr 23 min 5 sec) 
 Total Blocks : 262144 Invalid Blocks : 0
Heartbeat CPU 2 instructions: 70000001 cycles: 60971022 heartbeat IPC: 1.25409 cumulative IPC: 1.14809 (Simulation time: 2 hr 23 min 7 sec) 
 Total Blocks : 262144 Invalid Blocks : 0
Heartbeat CPU 3 instructions: 70000001 cycles: 60980513 heartbeat IPC: 1.25365 cumulative IPC: 1.14791 (Simulation time: 2 hr 23 min 8 sec) 
 Total Blocks : 262144 Invalid Blocks : 0
Heartbeat CPU 4 instructions: 70000001 cycles: 60987702 heartbeat IPC: 1.25317 cumulative IPC: 1.14777 (Simulation time: 2 hr 23 min 10 sec) 
 Total Blocks : 262144 Invalid Blocks : 0
Heartbeat CPU 5 instructions: 70000001 cycles: 60995189 heartbeat IPC: 1.2529 cumulative IPC: 1.14763 (Simulation time: 2 hr 23 min 11 sec) 
 Total Blocks : 262144 Invalid Blocks : 0
Heartbeat CPU 6 instructions: 70000001 cycles: 61003327 heartbeat IPC: 1.25255 cumulative IPC: 1.14748 (Simulation time: 2 hr 23 min 13 sec) 
 Total Blocks : 262144 Invalid Blocks : 0
Heartbeat CPU 7 instructions: 70000001 cycles: 61009780 heartbeat IPC: 1.25221 cumulative IPC: 1.14736 (Simulation time: 2 hr 23 min 14 sec) 
 Total Blocks : 262144 Invalid Blocks : 0
Heartbeat CPU 0 instructions: 80000000 cycles: 69046098 heartbeat IPC: 1.23489 cumulative IPC: 1.15865 (Simulation time: 2 hr 52 min 23 sec) 
 Total Blocks : 262144 Invalid Blocks : 0
Heartbeat CPU 1 instructions: 80000000 cycles: 69062872 heartbeat IPC: 1.2344 cumulative IPC: 1.15836 (Simulation time: 2 hr 52 min 26 sec) 
 Total Blocks : 262144 Invalid Blocks : 0
Heartbeat CPU 2 instructions: 80000000 cycles: 69075562 heartbeat IPC: 1.23388 cumulative IPC: 1.15815 (Simulation time: 2 hr 52 min 29 sec) 
 Total Blocks : 262144 Invalid Blocks : 0
Heartbeat CPU 3 instructions: 80000000 cycles: 69088270 heartbeat IPC: 1.23339 cumulative IPC: 1.15794 (Simulation time: 2 hr 52 min 32 sec) 
 Total Blocks : 262144 Invalid Blocks : 0
Heartbeat CPU 4 instructions: 80000000 cycles: 69098417 heartbeat IPC: 1.23294 cumulative IPC: 1.15777 (Simulation time: 2 hr 52 min 34 sec) 
 Total Blocks : 262144 Invalid Blocks : 0
Heartbeat CPU 5 instructions: 80000000 cycles: 69108016 heartbeat IPC: 1.23262 cumulative IPC: 1.15761 (Simulation time: 2 hr 52 min 36 sec) 
 Total Blocks : 262144 Invalid Blocks : 0
Heartbeat CPU 6 instructions: 80000000 cycles: 69118904 heartbeat IPC: 1.2322 cumulative IPC: 1.15743 (Simulation time: 2 hr 52 min 38 sec) 
 Total Blocks : 262144 Invalid Blocks : 0
Heartbeat CPU 7 instructions: 80000000 cycles: 69126493 heartbeat IPC: 1.23203 cumulative IPC: 1.1573 (Simulation time: 2 hr 52 min 40 sec) 
 Total Blocks : 262144 Invalid Blocks : 0
Heartbeat CPU 0 instructions: 90000001 cycles: 77325867 heartbeat IPC: 1.20776 cumulative IPC: 1.16391 (Simulation time: 3 hr 22 min 48 sec) 
 Total Blocks : 262144 Invalid Blocks : 0
Heartbeat CPU 1 instructions: 90000001 cycles: 77347168 heartbeat IPC: 1.2071 cumulative IPC: 1.16358 (Simulation time: 3 hr 22 min 53 sec) 
 Total Blocks : 262144 Invalid Blocks : 0
Heartbeat CPU 2 instructions: 90000002 cycles: 77363261 heartbeat IPC: 1.20661 cumulative IPC: 1.16334 (Simulation time: 3 hr 22 min 57 sec) 
 Total Blocks : 262144 Invalid Blocks : 0
Heartbeat CPU 3 instructions: 90000003 cycles: 77378116 heartbeat IPC: 1.2063 cumulative IPC: 1.16312 (Simulation time: 3 hr 23 min 1 sec) 
 Total Blocks : 262144 Invalid Blocks : 0
Heartbeat CPU 4 instructions: 90000001 cycles: 77391377 heartbeat IPC: 1.20584 cumulative IPC: 1.16292 (Simulation time: 3 hr 23 min 4 sec) 
 Total Blocks : 262144 Invalid Blocks : 0
Heartbeat CPU 5 instructions: 90000001 cycles: 77403204 heartbeat IPC: 1.20552 cumulative IPC: 1.16274 (Simulation time: 3 hr 23 min 7 sec) 
 Total Blocks : 262144 Invalid Blocks : 0
Heartbeat CPU 6 instructions: 90000001 cycles: 77416600 heartbeat IPC: 1.20515 cumulative IPC: 1.16254 (Simulation time: 3 hr 23 min 10 sec) 
 Total Blocks : 262144 Invalid Blocks : 0
Heartbeat CPU 7 instructions: 90000001 cycles: 77425811 heartbeat IPC: 1.20492 cumulative IPC: 1.1624 (Simulation time: 3 hr 23 min 12 sec) 
 Total Blocks : 262144 Invalid Blocks : 0
Heartbeat CPU 0 instructions: 100000002 cycles: 85265554 heartbeat IPC: 1.2595 cumulative IPC: 1.17281 (Simulation time: 3 hr 52 min 55 sec) 
 Total Blocks : 262144 Invalid Blocks : 0
Heartbeat CPU 1 instructions: 100000002 cycles: 85290973 heartbeat IPC: 1.25884 cumulative IPC: 1.17246 (Simulation time: 3 hr 53 min 1 sec) 
 Total Blocks : 262144 Invalid Blocks : 0
Heartbeat CPU 2 instructions: 100000002 cycles: 85310103 heartbeat IPC: 1.25836 cumulative IPC: 1.17219 (Simulation time: 3 hr 53 min 6 sec) 
 Total Blocks : 262144 Invalid Blocks : 0
Heartbeat CPU 3 instructions: 100000001 cycles: 85327775 heartbeat IPC: 1.25792 cumulative IPC: 1.17195 (Simulation time: 3 hr 53 min 10 sec) 
 Total Blocks : 262144 Invalid Blocks : 0
Heartbeat CPU 4 instructions: 100000002 cycles: 85342989 heartbeat IPC: 1.25761 cumulative IPC: 1.17174 (Simulation time: 3 hr 53 min 14 sec) 
 Total Blocks : 262144 Invalid Blocks : 0
Heartbeat CPU 5 instructions: 100000001 cycles: 85356791 heartbeat IPC: 1.25729 cumulative IPC: 1.17155 (Simulation time: 3 hr 53 min 17 sec) 
 Total Blocks : 262144 Invalid Blocks : 0
Heartbeat CPU 6 instructions: 100000002 cycles: 85372879 heartbeat IPC: 1.25687 cumulative IPC: 1.17133 (Simulation time: 3 hr 53 min 21 sec) 
 Total Blocks : 262144 Invalid Blocks : 0
Heartbeat CPU 7 instructions: 100000001 cycles: 85383875 heartbeat IPC: 1.25659 cumulative IPC: 1.17118 (Simulation time: 3 hr 53 min 24 sec) 
 Total Blocks : 262144 Invalid Blocks : 0
Heartbeat CPU 0 instructions: 110000000 cycles: 93314009 heartbeat IPC: 1.24247 cumulative IPC: 1.17882 (Simulation time: 4 hr 23 min 46 sec) 
 Total Blocks : 262144 Invalid Blocks : 0
Heartbeat CPU 1 instructions: 110000000 cycles: 93344031 heartbeat IPC: 1.24176 cumulative IPC: 1.17844 (Simulation time: 4 hr 23 min 52 sec) 
 Total Blocks : 262144 Invalid Blocks : 0
Heartbeat CPU 2 instructions: 110000000 cycles: 93366298 heartbeat IPC: 1.24128 cumulative IPC: 1.17816 (Simulation time: 4 hr 23 min 57 sec) 
 Total Blocks : 262144 Invalid Blocks : 0
Heartbeat CPU 3 instructions: 110000000 cycles: 93386192 heartbeat IPC: 1.24094 cumulative IPC: 1.1779 (Simulation time: 4 hr 24 min 2 sec) 
 Total Blocks : 262144 Invalid Blocks : 0
Heartbeat CPU 4 instructions: 110000000 cycles: 93404640 heartbeat IPC: 1.24044 cumulative IPC: 1.17767 (Simulation time: 4 hr 24 min 6 sec) 
 Total Blocks : 262144 Invalid Blocks : 0
Heartbeat CPU 5 instructions: 110000000 cycles: 93420693 heartbeat IPC: 1.24009 cumulative IPC: 1.17747 (Simulation time: 4 hr 24 min 9 sec) 
 Total Blocks : 262144 Invalid Blocks : 0
Heartbeat CPU 6 instructions: 110000000 cycles: 93438473 heartbeat IPC: 1.23983 cumulative IPC: 1.17725 (Simulation time: 4 hr 24 min 13 sec) 
 Total Blocks : 262144 Invalid Blocks : 0
Heartbeat CPU 7 instructions: 110000000 cycles: 93451923 heartbeat IPC: 1.23946 cumulative IPC: 1.17708 (Simulation time: 4 hr 24 min 16 sec) 
 Total Blocks : 262144 Invalid Blocks : 0
Heartbeat CPU 0 instructions: 120000000 cycles: 101340038 heartbeat IPC: 1.24595 cumulative IPC: 1.18413 (Simulation time: 4 hr 53 min 39 sec) 
 Total Blocks : 262144 Invalid Blocks : 0
Heartbeat CPU 1 instructions: 120000000 cycles: 101374219 heartbeat IPC: 1.2453 cumulative IPC: 1.18373 (Simulation time: 4 hr 53 min 47 sec) 
 Total Blocks : 262144 Invalid Blocks : 0
Heartbeat CPU 2 instructions: 120000000 cycles: 101398924 heartbeat IPC: 1.24492 cumulative IPC: 1.18344 (Simulation time: 4 hr 53 min 53 sec) 
 Total Blocks : 262144 Invalid Blocks : 0
Heartbeat CPU 3 instructions: 120000000 cycles: 101421504 heartbeat IPC: 1.24451 cumulative IPC: 1.18318 (Simulation time: 4 hr 53 min 59 sec) 
 Total Blocks : 262144 Invalid Blocks : 0
Heartbeat CPU 4 instructions: 120000000 cycles: 101442413 heartbeat IPC: 1.24413 cumulative IPC: 1.18294 (Simulation time: 4 hr 54 min 5 sec) 
 Total Blocks : 262144 Invalid Blocks : 0
Heartbeat CPU 5 instructions: 120000000 cycles: 101461281 heartbeat IPC: 1.24369 cumulative IPC: 1.18272 (Simulation time: 4 hr 54 min 10 sec) 
 Total Blocks : 262144 Invalid Blocks : 0
Heartbeat CPU 6 instructions: 120000000 cycles: 101481798 heartbeat IPC: 1.24327 cumulative IPC: 1.18248 (Simulation time: 4 hr 54 min 16 sec) 
 Total Blocks : 262144 Invalid Blocks : 0
Heartbeat CPU 7 instructions: 120000000 cycles: 101496415 heartbeat IPC: 1.24309 cumulative IPC: 1.18231 (Simulation time: 4 hr 54 min 19 sec) 
 Total Blocks : 262144 Invalid Blocks : 0
Heartbeat CPU 0 instructions: 130000002 cycles: 108783149 heartbeat IPC: 1.34352 cumulative IPC: 1.19504 (Simulation time: 5 hr 23 min 5 sec) 
 Total Blocks : 262144 Invalid Blocks : 0
Heartbeat CPU 1 instructions: 130000003 cycles: 108820610 heartbeat IPC: 1.34293 cumulative IPC: 1.19463 (Simulation time: 5 hr 23 min 14 sec) 
 Total Blocks : 262144 Invalid Blocks : 0
Heartbeat CPU 2 instructions: 130000002 cycles: 108847738 heartbeat IPC: 1.3425 cumulative IPC: 1.19433 (Simulation time: 5 hr 23 min 20 sec) 
 Total Blocks : 262144 Invalid Blocks : 0
Heartbeat CPU 3 instructions: 130000003 cycles: 108872562 heartbeat IPC: 1.34209 cumulative IPC: 1.19406 (Simulation time: 5 hr 23 min 25 sec) 
 Total Blocks : 262144 Invalid Blocks : 0
Heartbeat CPU 4 instructions: 130000002 cycles: 108895400 heartbeat IPC: 1.34174 cumulative IPC: 1.19381 (Simulation time: 5 hr 23 min 30 sec) 
 Total Blocks : 262144 Invalid Blocks : 0
Heartbeat CPU 5 instructions: 130000003 cycles: 108915670 heartbeat IPC: 1.34149 cumulative IPC: 1.19358 (Simulation time: 5 hr 23 min 35 sec) 
 Total Blocks : 262144 Invalid Blocks : 0
Heartbeat CPU 6 instructions: 130000002 cycles: 108939082 heartbeat IPC: 1.34097 cumulative IPC: 1.19333 (Simulation time: 5 hr 23 min 40 sec) 
 Total Blocks : 262144 Invalid Blocks : 0
Heartbeat CPU 7 instructions: 130000002 cycles: 108954814 heartbeat IPC: 1.34077 cumulative IPC: 1.19316 (Simulation time: 5 hr 23 min 43 sec) 
 Total Blocks : 262144 Invalid Blocks : 0
Heartbeat CPU 0 instructions: 140000003 cycles: 116749719 heartbeat IPC: 1.25525 cumulative IPC: 1.19915 (Simulation time: 5 hr 54 min 11 sec) 
 Total Blocks : 262144 Invalid Blocks : 0
Heartbeat CPU 1 instructions: 140000001 cycles: 116791412 heartbeat IPC: 1.25458 cumulative IPC: 1.19872 (Simulation time: 5 hr 54 min 23 sec) 
 Total Blocks : 262144 Invalid Blocks : 0
Heartbeat CPU 2 instructions: 140000003 cycles: 116820243 heartbeat IPC: 1.25431 cumulative IPC: 1.19842 (Simulation time: 5 hr 54 min 30 sec) 
 Total Blocks : 262144 Invalid Blocks : 0
Heartbeat CPU 3 instructions: 140000003 cycles: 116848013 heartbeat IPC: 1.25385 cumulative IPC: 1.19814 (Simulation time: 5 hr 54 min 37 sec) 
 Total Blocks : 262144 Invalid Blocks : 0
Heartbeat CPU 4 instructions: 140000002 cycles: 116873249 heartbeat IPC: 1.25347 cumulative IPC: 1.19788 (Simulation time: 5 hr 54 min 43 sec) 
 Total Blocks : 262144 Invalid Blocks : 0
Heartbeat CPU 5 instructions: 140000002 cycles: 116895172 heartbeat IPC: 1.25321 cumulative IPC: 1.19765 (Simulation time: 5 hr 54 min 48 sec) 
 Total Blocks : 262144 Invalid Blocks : 0
Heartbeat CPU 6 instructions: 140000003 cycles: 116920610 heartbeat IPC: 1.25289 cumulative IPC: 1.19739 (Simulation time: 5 hr 54 min 54 sec) 
 Total Blocks : 262144 Invalid Blocks : 0
Heartbeat CPU 7 instructions: 140000001 cycles: 116937790 heartbeat IPC: 1.25267 cumulative IPC: 1.19722 (Simulation time: 5 hr 54 min 57 sec) 
 Total Blocks : 262144 Invalid Blocks : 0
Heartbeat CPU 0 instructions: 150000000 cycles: 124633732 heartbeat IPC: 1.26839 cumulative IPC: 1.20353 (Simulation time: 6 hr 25 min 35 sec) 
 Total Blocks : 262144 Invalid Blocks : 0
Heartbeat CPU 1 instructions: 150000000 cycles: 124679208 heartbeat IPC: 1.26778 cumulative IPC: 1.20309 (Simulation time: 6 hr 25 min 44 sec) 
 Total Blocks : 262144 Invalid Blocks : 0
Heartbeat CPU 2 instructions: 150000000 cycles: 124710425 heartbeat IPC: 1.2674 cumulative IPC: 1.20279 (Simulation time: 6 hr 25 min 51 sec) 
 Total Blocks : 262144 Invalid Blocks : 0
Heartbeat CPU 3 instructions: 150000000 cycles: 124740542 heartbeat IPC: 1.26702 cumulative IPC: 1.2025 (Simulation time: 6 hr 25 min 58 sec) 
 Total Blocks : 262144 Invalid Blocks : 0
Heartbeat CPU 4 instructions: 150000000 cycles: 124767987 heartbeat IPC: 1.26667 cumulative IPC: 1.20223 (Simulation time: 6 hr 26 min 4 sec) 
 Total Blocks : 262144 Invalid Blocks : 0
Heartbeat CPU 5 instructions: 150000000 cycles: 124791763 heartbeat IPC: 1.26637 cumulative IPC: 1.202 (Simulation time: 6 hr 26 min 9 sec) 
 Total Blocks : 262144 Invalid Blocks : 0
Heartbeat CPU 6 instructions: 150000000 cycles: 124819028 heartbeat IPC: 1.26608 cumulative IPC: 1.20174 (Simulation time: 6 hr 26 min 14 sec) 
 Total Blocks : 262144 Invalid Blocks : 0
Heartbeat CPU 7 instructions: 150000000 cycles: 124836916 heartbeat IPC: 1.26596 cumulative IPC: 1.20157 (Simulation time: 6 hr 26 min 18 sec) 
 Total Blocks : 262144 Invalid Blocks : 0
Heartbeat CPU 0 instructions: 160000000 cycles: 132616461 heartbeat IPC: 1.2527 cumulative IPC: 1.20649 (Simulation time: 6 hr 56 min 48 sec) 
 Total Blocks : 262144 Invalid Blocks : 0
Heartbeat CPU 1 instructions: 160000000 cycles: 132665659 heartbeat IPC: 1.25212 cumulative IPC: 1.20604 (Simulation time: 6 hr 57 min 0 sec) 
 Total Blocks : 262144 Invalid Blocks : 0
Heartbeat CPU 2 instructions: 160000000 cycles: 132700334 heartbeat IPC: 1.25158 cumulative IPC: 1.20572 (Simulation time: 6 hr 57 min 8 sec) 
 Total Blocks : 262144 Invalid Blocks : 0
Heartbeat CPU 3 instructions: 160000000 cycles: 132732665 heartbeat IPC: 1.25123 cumulative IPC: 1.20543 (Simulation time: 6 hr 57 min 16 sec) 
 Total Blocks : 262144 Invalid Blocks : 0
Heartbeat CPU 4 instructions: 160000000 cycles: 132762133 heartbeat IPC: 1.25092 cumulative IPC: 1.20516 (Simulation time: 6 hr 57 min 23 sec) 
 Total Blocks : 262144 Invalid Blocks : 0
Heartbeat CPU 5 instructions: 160000000 cycles: 132788502 heartbeat IPC: 1.25051 cumulative IPC: 1.20492 (Simulation time: 6 hr 57 min 30 sec) 
 Total Blocks : 262144 Invalid Blocks : 0
Heartbeat CPU 6 instructions: 160000000 cycles: 132817325 heartbeat IPC: 1.25027 cumulative IPC: 1.20466 (Simulation time: 6 hr 57 min 36 sec) 
 Total Blocks : 262144 Invalid Blocks : 0
Heartbeat CPU 7 instructions: 160000000 cycles: 132836867 heartbeat IPC: 1.25001 cumulative IPC: 1.20448 (Simulation time: 6 hr 57 min 41 sec) 
 Total Blocks : 262144 Invalid Blocks : 0
Heartbeat CPU 0 instructions: 170000000 cycles: 140541627 heartbeat IPC: 1.2618 cumulative IPC: 1.20961 (Simulation time: 7 hr 28 min 21 sec) 
 Total Blocks : 262144 Invalid Blocks : 0
Heartbeat CPU 1 instructions: 170000000 cycles: 140593606 heartbeat IPC: 1.26136 cumulative IPC: 1.20916 (Simulation time: 7 hr 28 min 33 sec) 
 Total Blocks : 262144 Invalid Blocks : 0
Heartbeat CPU 2 instructions: 170000000 cycles: 140631128 heartbeat IPC: 1.26091 cumulative IPC: 1.20884 (Simulation time: 7 hr 28 min 42 sec) 
 Total Blocks : 262144 Invalid Blocks : 0
Heartbeat CPU 3 instructions: 170000000 cycles: 140666184 heartbeat IPC: 1.26047 cumulative IPC: 1.20853 (Simulation time: 7 hr 28 min 51 sec) 
 Total Blocks : 262144 Invalid Blocks : 0
Heartbeat CPU 4 instructions: 170000000 cycles: 140697270 heartbeat IPC: 1.26022 cumulative IPC: 1.20827 (Simulation time: 7 hr 28 min 58 sec) 
 Total Blocks : 262144 Invalid Blocks : 0
Heartbeat CPU 5 instructions: 170000000 cycles: 140725560 heartbeat IPC: 1.25991 cumulative IPC: 1.20802 (Simulation time: 7 hr 29 min 4 sec) 
 Total Blocks : 262144 Invalid Blocks : 0
Heartbeat CPU 6 instructions: 170000000 cycles: 140756661 heartbeat IPC: 1.25955 cumulative IPC: 1.20776 (Simulation time: 7 hr 29 min 11 sec) 
 Total Blocks : 262144 Invalid Blocks : 0
Heartbeat CPU 7 instructions: 170000000 cycles: 140777675 heartbeat IPC: 1.25932 cumulative IPC: 1.20758 (Simulation time: 7 hr 29 min 15 sec) 
 Total Blocks : 262144 Invalid Blocks : 0
Heartbeat CPU 0 instructions: 180000001 cycles: 148584467 heartbeat IPC: 1.24334 cumulative IPC: 1.21143 (Simulation time: 8 hr 0 min 58 sec) 
 Total Blocks : 262144 Invalid Blocks : 0
Heartbeat CPU 1 instructions: 180000001 cycles: 148639395 heartbeat IPC: 1.24289 cumulative IPC: 1.21098 (Simulation time: 8 hr 1 min 12 sec) 
 Total Blocks : 262144 Invalid Blocks : 0
Heartbeat CPU 2 instructions: 180000001 cycles: 148680348 heartbeat IPC: 1.24236 cumulative IPC: 1.21065 (Simulation time: 8 hr 1 min 24 sec) 
 Total Blocks : 262144 Invalid Blocks : 0
Heartbeat CPU 3 instructions: 180000001 cycles: 148717701 heartbeat IPC: 1.242 cumulative IPC: 1.21035 (Simulation time: 8 hr 1 min 34 sec) 
 Total Blocks : 262144 Invalid Blocks : 0
Heartbeat CPU 4 instructions: 180000001 cycles: 148750650 heartbeat IPC: 1.24171 cumulative IPC: 1.21008 (Simulation time: 8 hr 1 min 43 sec) 
 Total Blocks : 262144 Invalid Blocks : 0
Heartbeat CPU 5 instructions: 180000000 cycles: 148780873 heartbeat IPC: 1.24142 cumulative IPC: 1.20983 (Simulation time: 8 hr 1 min 50 sec) 
 Total Blocks : 262144 Invalid Blocks : 0
Heartbeat CPU 6 instructions: 180000001 cycles: 148814075 heartbeat IPC: 1.24109 cumulative IPC: 1.20956 (Simulation time: 8 hr 2 min 0 sec) 
 Total Blocks : 262144 Invalid Blocks : 0
Heartbeat CPU 7 instructions: 180000001 cycles: 148836940 heartbeat IPC: 1.24081 cumulative IPC: 1.20938 (Simulation time: 8 hr 2 min 5 sec) 
 Total Blocks : 262144 Invalid Blocks : 0
Heartbeat CPU 0 instructions: 190000002 cycles: 156445014 heartbeat IPC: 1.27218 cumulative IPC: 1.21448 (Simulation time: 8 hr 33 min 50 sec) 
 Total Blocks : 262144 Invalid Blocks : 0
Heartbeat CPU 1 instructions: 190000000 cycles: 156503649 heartbeat IPC: 1.27158 cumulative IPC: 1.21403 (Simulation time: 8 hr 34 min 4 sec) 
 Total Blocks : 262144 Invalid Blocks : 0
Heartbeat CPU 2 instructions: 190000002 cycles: 156547141 heartbeat IPC: 1.27117 cumulative IPC: 1.21369 (Simulation time: 8 hr 34 min 16 sec) 
 Total Blocks : 262144 Invalid Blocks : 0
Heartbeat CPU 3 instructions: 190000000 cycles: 156586559 heartbeat IPC: 1.27083 cumulative IPC: 1.21339 (Simulation time: 8 hr 34 min 26 sec) 
 Total Blocks : 262144 Invalid Blocks : 0
Heartbeat CPU 4 instructions: 190000002 cycles: 156621625 heartbeat IPC: 1.27049 cumulative IPC: 1.21311 (Simulation time: 8 hr 34 min 36 sec) 
 Total Blocks : 262144 Invalid Blocks : 0
Heartbeat CPU 5 instructions: 190000002 cycles: 156653939 heartbeat IPC: 1.27015 cumulative IPC: 1.21286 (Simulation time: 8 hr 34 min 44 sec) 
 Total Blocks : 262144 Invalid Blocks : 0
Heartbeat CPU 6 instructions: 190000003 cycles: 156689513 heartbeat IPC: 1.26977 cumulative IPC: 1.21259 (Simulation time: 8 hr 34 min 53 sec) 
 Total Blocks : 262144 Invalid Blocks : 0
Heartbeat CPU 7 instructions: 190000002 cycles: 156714175 heartbeat IPC: 1.26948 cumulative IPC: 1.2124 (Simulation time: 8 hr 35 min 0 sec) 
 Total Blocks : 262144 Invalid Blocks : 0
Heartbeat CPU 0 instructions: 200000000 cycles: 164313535 heartbeat IPC: 1.27089 cumulative IPC: 1.21719 (Simulation time: 9 hr 7 min 7 sec) 
 Total Blocks : 262144 Invalid Blocks : 0
Heartbeat CPU 1 instructions: 200000002 cycles: 164375203 heartbeat IPC: 1.2704 cumulative IPC: 1.21673 (Simulation time: 9 hr 7 min 22 sec) 
 Total Blocks : 262144 Invalid Blocks : 0
Heartbeat CPU 2 instructions: 200000001 cycles: 164421121 heartbeat IPC: 1.27001 cumulative IPC: 1.21639 (Simulation time: 9 hr 7 min 35 sec) 
 Total Blocks : 262144 Invalid Blocks : 0
Heartbeat CPU 3 instructions: 200000001 cycles: 164463590 heartbeat IPC: 1.26951 cumulative IPC: 1.21607 (Simulation time: 9 hr 7 min 45 sec) 
 Total Blocks : 262144 Invalid Blocks : 0
Heartbeat CPU 4 instructions: 200000000 cycles: 164500488 heartbeat IPC: 1.26922 cumulative IPC: 1.2158 (Simulation time: 9 hr 7 min 53 sec) 
 Total Blocks : 262144 Invalid Blocks : 0
Heartbeat CPU 5 instructions: 200000001 cycles: 164534905 heartbeat IPC: 1.26888 cumulative IPC: 1.21555 (Simulation time: 9 hr 8 min 2 sec) 
 Total Blocks : 262144 Invalid Blocks : 0
Heartbeat CPU 6 instructions: 200000001 cycles: 164572635 heartbeat IPC: 1.26853 cumulative IPC: 1.21527 (Simulation time: 9 hr 8 min 10 sec) 
 Total Blocks : 262144 Invalid Blocks : 0
Heartbeat CPU 7 instructions: 200000002 cycles: 164598639 heartbeat IPC: 1.26832 cumulative IPC: 1.21508 (Simulation time: 9 hr 8 min 17 sec) 
 Total Blocks : 262144 Invalid Blocks : 0

Warmup complete CPU 0 instructions: 200318360 cycles: 164598639 (Simulation time: 9 hr 8 min 17 sec) 
Warmup complete CPU 1 instructions: 200254568 cycles: 164598639 (Simulation time: 9 hr 8 min 17 sec) 
Warmup complete CPU 2 instructions: 200167271 cycles: 164598639 (Simulation time: 9 hr 8 min 17 sec) 
Warmup complete CPU 3 instructions: 200130824 cycles: 164598639 (Simulation time: 9 hr 8 min 17 sec) 
Warmup complete CPU 4 instructions: 200093673 cycles: 164598639 (Simulation time: 9 hr 8 min 17 sec) 
Warmup complete CPU 5 instructions: 200061605 cycles: 164598639 (Simulation time: 9 hr 8 min 17 sec) 
Warmup complete CPU 6 instructions: 200030303 cycles: 164598639 (Simulation time: 9 hr 8 min 17 sec) 
Warmup complete CPU 7 instructions: 200000002 cycles: 164598639 (Simulation time: 9 hr 8 min 17 sec) 

Heartbeat CPU 0 instructions: 210000002 cycles: 280409301 heartbeat IPC: 0.0861358 cumulative IPC: 0.0835989 (Simulation time: 10 hr 35 min 0 sec) 
 Total Blocks : 262144 Invalid Blocks : 0
Heartbeat CPU 1 instructions: 210000002 cycles: 280971285 heartbeat IPC: 0.0857662 cumulative IPC: 0.0837433 (Simulation time: 10 hr 35 min 23 sec) 
 Total Blocks : 262144 Invalid Blocks : 0
Heartbeat CPU 2 instructions: 210000002 cycles: 281871356 heartbeat IPC: 0.0851424 cumulative IPC: 0.083845 (Simulation time: 10 hr 36 min 1 sec) 
 Total Blocks : 262144 Invalid Blocks : 0
Heartbeat CPU 3 instructions: 210000002 cycles: 282308787 heartbeat IPC: 0.0848571 cumulative IPC: 0.0838431 (Simulation time: 10 hr 36 min 20 sec) 
 Total Blocks : 262144 Invalid Blocks : 0
Heartbeat CPU 4 instructions: 210000002 cycles: 282902657 heartbeat IPC: 0.0844579 cumulative IPC: 0.0837362 (Simulation time: 10 hr 36 min 46 sec) 
 Total Blocks : 262144 Invalid Blocks : 0
Heartbeat CPU 5 instructions: 210000002 cycles: 283586118 heartbeat IPC: 0.0839975 cumulative IPC: 0.0835247 (Simulation time: 10 hr 37 min 15 sec) 
 Total Blocks : 262144 Invalid Blocks : 0
Heartbeat CPU 7 instructions: 210000002 cycles: 284279409 heartbeat IPC: 0.0835556 cumulative IPC: 0.0835556 (Simulation time: 10 hr 37 min 44 sec) 
 Total Blocks : 262144 Invalid Blocks : 0
Heartbeat CPU 6 instructions: 210000002 cycles: 284533655 heartbeat IPC: 0.0833604 cumulative IPC: 0.0831258 (Simulation time: 10 hr 37 min 56 sec) 
 Total Blocks : 262144 Invalid Blocks : 0
Heartbeat CPU 0 instructions: 220000000 cycles: 398159658 heartbeat IPC: 0.0849254 cumulative IPC: 0.0842677 (Simulation time: 12 hr 3 min 44 sec) 
 Total Blocks : 262144 Invalid Blocks : 0
Heartbeat CPU 1 instructions: 220000000 cycles: 399317476 heartbeat IPC: 0.0844978 cumulative IPC: 0.0841238 (Simulation time: 12 hr 4 min 39 sec) 
 Total Blocks : 262144 Invalid Blocks : 0
Heartbeat CPU 3 instructions: 220000000 cycles: 399757854 heartbeat IPC: 0.0851433 cumulative IPC: 0.0844924 (Simulation time: 12 hr 5 min 1 sec) 
 Total Blocks : 262144 Invalid Blocks : 0
Heartbeat CPU 2 instructions: 220000000 cycles: 400096806 heartbeat IPC: 0.0845841 cumulative IPC: 0.0842161 (Simulation time: 12 hr 5 min 18 sec) 
 Total Blocks : 262144 Invalid Blocks : 0
Heartbeat CPU 4 instructions: 220000000 cycles: 400914223 heartbeat IPC: 0.0847374 cumulative IPC: 0.0842362 (Simulation time: 12 hr 5 min 58 sec) 
 Total Blocks : 262144 Invalid Blocks : 0
Heartbeat CPU 5 instructions: 220000000 cycles: 401779712 heartbeat IPC: 0.0846069 cumulative IPC: 0.084064 (Simulation time: 12 hr 6 min 39 sec) 
 Total Blocks : 262144 Invalid Blocks : 0
Heartbeat CPU 7 instructions: 220000000 cycles: 402393147 heartbeat IPC: 0.0846641 cumulative IPC: 0.0841062 (Simulation time: 12 hr 7 min 8 sec) 
 Total Blocks : 262144 Invalid Blocks : 0
Heartbeat CPU 6 instructions: 220000000 cycles: 403076193 heartbeat IPC: 0.0843579 cumulative IPC: 0.0837383 (Simulation time: 12 hr 7 min 38 sec) 
 Total Blocks : 262144 Invalid Blocks : 0
Heartbeat CPU 0 instructions: 230000000 cycles: 516624360 heartbeat IPC: 0.0844133 cumulative IPC: 0.0843167 (Simulation time: 13 hr 35 min 27 sec) 
 Total Blocks : 262144 Invalid Blocks : 0
Heartbeat CPU 1 instructions: 230000000 cycles: 517620302 heartbeat IPC: 0.0845288 cumulative IPC: 0.0842595 (Simulation time: 13 hr 36 min 22 sec) 
 Total Blocks : 262144 Invalid Blocks : 0
Heartbeat CPU 3 instructions: 230000000 cycles: 518245475 heartbeat IPC: 0.084397 cumulative IPC: 0.0844605 (Simulation time: 13 hr 36 min 57 sec) 
 Total Blocks : 262144 Invalid Blocks : 0
Heartbeat CPU 2 instructions: 230000000 cycles: 518411537 heartbeat IPC: 0.0845203 cumulative IPC: 0.0843178 (Simulation time: 13 hr 37 min 5 sec) 
 Total Blocks : 262144 Invalid Blocks : 0
Heartbeat CPU 4 instructions: 230000000 cycles: 519204822 heartbeat IPC: 0.0845376 cumulative IPC: 0.0843367 (Simulation time: 13 hr 37 min 50 sec) 
 Total Blocks : 262144 Invalid Blocks : 0
Heartbeat CPU 5 instructions: 230000000 cycles: 520395483 heartbeat IPC: 0.0843058 cumulative IPC: 0.0841446 (Simulation time: 13 hr 38 min 51 sec) 
 Total Blocks : 262144 Invalid Blocks : 0
Heartbeat CPU 7 instructions: 230000000 cycles: 520655438 heartbeat IPC: 0.0845578 cumulative IPC: 0.0842562 (Simulation time: 13 hr 39 min 6 sec) 
 Total Blocks : 262144 Invalid Blocks : 0
Heartbeat CPU 6 instructions: 230000000 cycles: 521714043 heartbeat IPC: 0.0842901 cumulative IPC: 0.0839216 (Simulation time: 13 hr 40 min 3 sec) 
 Total Blocks : 262144 Invalid Blocks : 0
Heartbeat CPU 0 instructions: 240000000 cycles: 635771405 heartbeat IPC: 0.0839299 cumulative IPC: 0.0842189 (Simulation time: 15 hr 10 min 50 sec) 
 Total Blocks : 262144 Invalid Blocks : 0
Heartbeat CPU 1 instructions: 240000000 cycles: 636842276 heartbeat IPC: 0.0838772 cumulative IPC: 0.084163 (Simulation time: 15 hr 11 min 39 sec) 
 Total Blocks : 262144 Invalid Blocks : 0
Heartbeat CPU 2 instructions: 240000001 cycles: 637152295 heartbeat IPC: 0.0842171 cumulative IPC: 0.0842925 (Simulation time: 15 hr 11 min 53 sec) 
 Total Blocks : 262144 Invalid Blocks : 0
Heartbeat CPU 3 instructions: 240000001 cycles: 637321388 heartbeat IPC: 0.08398 cumulative IPC: 0.0843394 (Simulation time: 15 hr 12 min 0 sec) 
 Total Blocks : 262144 Invalid Blocks : 0
Heartbeat CPU 4 instructions: 240000000 cycles: 637699852 heartbeat IPC: 0.0843917 cumulative IPC: 0.0843505 (Simulation time: 15 hr 12 min 16 sec) 
 Total Blocks : 262144 Invalid Blocks : 0
Heartbeat CPU 5 instructions: 240000000 cycles: 638915148 heartbeat IPC: 0.0843742 cumulative IPC: 0.084202 (Simulation time: 15 hr 13 min 1 sec) 
 Total Blocks : 262144 Invalid Blocks : 0
Heartbeat CPU 7 instructions: 240000001 cycles: 639228144 heartbeat IPC: 0.0843365 cumulative IPC: 0.0842763 (Simulation time: 15 hr 13 min 17 sec) 
 Total Blocks : 262144 Invalid Blocks : 0
Heartbeat CPU 6 instructions: 240000001 cycles: 640392221 heartbeat IPC: 0.0842615 cumulative IPC: 0.0840064 (Simulation time: 15 hr 14 min 13 sec) 
 Total Blocks : 262144 Invalid Blocks : 0
Heartbeat CPU 0 instructions: 250000002 cycles: 753762645 heartbeat IPC: 0.0847521 cumulative IPC: 0.0843257 (Simulation time: 16 hr 43 min 39 sec) 
 Total Blocks : 262144 Invalid Blocks : 0
Heartbeat CPU 1 instructions: 250000002 cycles: 755079492 heartbeat IPC: 0.0845758 cumulative IPC: 0.0842456 (Simulation time: 16 hr 44 min 46 sec) 
 Total Blocks : 262144 Invalid Blocks : 0
Heartbeat CPU 2 instructions: 250000002 cycles: 755247330 heartbeat IPC: 0.0846776 cumulative IPC: 0.0843695 (Simulation time: 16 hr 44 min 55 sec) 
 Total Blocks : 262144 Invalid Blocks : 0
Heartbeat CPU 3 instructions: 250000000 cycles: 755748145 heartbeat IPC: 0.0844404 cumulative IPC: 0.0843597 (Simulation time: 16 hr 45 min 20 sec) 
 Total Blocks : 262144 Invalid Blocks : 0
Heartbeat CPU 4 instructions: 250000000 cycles: 756060506 heartbeat IPC: 0.0844875 cumulative IPC: 0.0843779 (Simulation time: 16 hr 45 min 35 sec) 
 Total Blocks : 262144 Invalid Blocks : 0
Heartbeat CPU 5 instructions: 250000002 cycles: 757258122 heartbeat IPC: 0.0845002 cumulative IPC: 0.0842615 (Simulation time: 16 hr 46 min 32 sec) 
 Total Blocks : 262144 Invalid Blocks : 0
Heartbeat CPU 7 instructions: 250000002 cycles: 757527395 heartbeat IPC: 0.0845314 cumulative IPC: 0.0843272 (Simulation time: 16 hr 46 min 45 sec) 
 Total Blocks : 262144 Invalid Blocks : 0
Heartbeat CPU 6 instructions: 250000000 cycles: 758930716 heartbeat IPC: 0.0843608 cumulative IPC: 0.0840771 (Simulation time: 16 hr 47 min 45 sec) 
 Total Blocks : 262144 Invalid Blocks : 0
Heartbeat CPU 0 instructions: 260000000 cycles: 871698796 heartbeat IPC: 0.0847916 cumulative IPC: 0.0844034 (Simulation time: 18 hr 19 min 59 sec) 
 Total Blocks : 262144 Invalid Blocks : 0
Heartbeat CPU 2 instructions: 260000000 cycles: 873356095 heartbeat IPC: 0.0846677 cumulative IPC: 0.0844192 (Simulation time: 18 hr 21 min 26 sec) 
 Total Blocks : 262144 Invalid Blocks : 0
Heartbeat CPU 1 instructions: 260000000 cycles: 873448012 heartbeat IPC: 0.0844819 cumulative IPC: 0.0842851 (Simulation time: 18 hr 21 min 31 sec) 
 Total Blocks : 262144 Invalid Blocks : 0
Heartbeat CPU 3 instructions: 260000000 cycles: 873724512 heartbeat IPC: 0.0847627 cumulative IPC: 0.0844267 (Simulation time: 18 hr 21 min 39 sec) 
 Total Blocks : 262144 Invalid Blocks : 0
Heartbeat CPU 4 instructions: 260000000 cycles: 873827211 heartbeat IPC: 0.0849136 cumulative IPC: 0.0844669 (Simulation time: 18 hr 21 min 43 sec) 
 Total Blocks : 262144 Invalid Blocks : 0
Heartbeat CPU 5 instructions: 260000000 cycles: 875501157 heartbeat IPC: 0.0845716 cumulative IPC: 0.0843131 (Simulation time: 18 hr 22 min 56 sec) 
 Total Blocks : 262144 Invalid Blocks : 0
Heartbeat CPU 7 instructions: 260000000 cycles: 875679734 heartbeat IPC: 0.0846365 cumulative IPC: 0.0843786 (Simulation time: 18 hr 23 min 2 sec) 
 Total Blocks : 262144 Invalid Blocks : 0
Heartbeat CPU 6 instructions: 260000000 cycles: 877068298 heartbeat IPC: 0.0846471 cumulative IPC: 0.0841716 (Simulation time: 18 hr 23 min 54 sec) 
 Total Blocks : 262144 Invalid Blocks : 0
Heartbeat CPU 0 instructions: 270000000 cycles: 990232537 heartbeat IPC: 0.0843642 cumulative IPC: 0.0843977 (Simulation time: 19 hr 53 min 37 sec) 
 Total Blocks : 262144 Invalid Blocks : 0
Heartbeat CPU 1 instructions: 270000000 cycles: 992263650 heartbeat IPC: 0.084164 cumulative IPC: 0.0842677 (Simulation time: 19 hr 54 min 59 sec) 
 Total Blocks : 262144 Invalid Blocks : 0
Heartbeat CPU 3 instructions: 270000000 cycles: 992492854 heartbeat IPC: 0.0841975 cumulative IPC: 0.0843938 (Simulation time: 19 hr 55 min 6 sec) 
 Total Blocks : 262144 Invalid Blocks : 0
Heartbeat CPU 2 instructions: 270000000 cycles: 992516911 heartbeat IPC: 0.0839202 cumulative IPC: 0.0843474 (Simulation time: 19 hr 55 min 7 sec) 
 Total Blocks : 262144 Invalid Blocks : 0
Heartbeat CPU 4 instructions: 270000000 cycles: 992643143 heartbeat IPC: 0.0841638 cumulative IPC: 0.0844234 (Simulation time: 19 hr 55 min 11 sec) 
 Total Blocks : 262144 Invalid Blocks : 0
Heartbeat CPU 5 instructions: 270000000 cycles: 994348736 heartbeat IPC: 0.0841414 cumulative IPC: 0.0842885 (Simulation time: 19 hr 56 min 33 sec) 
 Total Blocks : 262144 Invalid Blocks : 0
Heartbeat CPU 7 instructions: 270000000 cycles: 994681110 heartbeat IPC: 0.0840326 cumulative IPC: 0.084329 (Simulation time: 19 hr 56 min 46 sec) 
 Total Blocks : 262144 Invalid Blocks : 0
Heartbeat CPU 6 instructions: 270000000 cycles: 995780036 heartbeat IPC: 0.0842377 cumulative IPC: 0.084181 (Simulation time: 19 hr 57 min 47 sec) 
 Total Blocks : 262144 Invalid Blocks : 0
Heartbeat CPU 0 instructions: 280000001 cycles: 1111377149 heartbeat IPC: 0.082546 cumulative IPC: 0.0841608 (Simulation time: 21 hr 23 min 34 sec) 
 Total Blocks : 262144 Invalid Blocks : 0
Heartbeat CPU 4 instructions: 280000001 cycles: 1113153916 heartbeat IPC: 0.0829801 cumulative IPC: 0.08424 (Simulation time: 21 hr 24 min 42 sec) 
 Total Blocks : 262144 Invalid Blocks : 0
Heartbeat CPU 2 instructions: 280000001 cycles: 1113202692 heartbeat IPC: 0.0828598 cumulative IPC: 0.0841581 (Simulation time: 21 hr 24 min 43 sec) 
 Total Blocks : 262144 Invalid Blocks : 0
Heartbeat CPU 1 instructions: 280000001 cycles: 1113425286 heartbeat IPC: 0.0825344 cumulative IPC: 0.0840464 (Simulation time: 21 hr 24 min 49 sec) 
 Total Blocks : 262144 Invalid Blocks : 0
Heartbeat CPU 3 instructions: 280000001 cycles: 1113687155 heartbeat IPC: 0.0825121 cumulative IPC: 0.0841536 (Simulation time: 21 hr 24 min 57 sec) 
 Total Blocks : 262144 Invalid Blocks : 0
Heartbeat CPU 5 instructions: 280000001 cycles: 1115205985 heartbeat IPC: 0.0827423 cumulative IPC: 0.0840919 (Simulation time: 21 hr 25 min 41 sec) 
 Total Blocks : 262144 Invalid Blocks : 0
Heartbeat CPU 7 instructions: 280000001 cycles: 1115521867 heartbeat IPC: 0.0827535 cumulative IPC: 0.0841288 (Simulation time: 21 hr 25 min 54 sec) 
 Total Blocks : 262144 Invalid Blocks : 0
Heartbeat CPU 6 instructions: 280000001 cycles: 1116668693 heartbeat IPC: 0.0827208 cumulative IPC: 0.0839956 (Simulation time: 21 hr 26 min 46 sec) 
 Total Blocks : 262144 Invalid Blocks : 0
Heartbeat CPU 0 instructions: 290000002 cycles: 1230553984 heartbeat IPC: 0.0839089 cumulative IPC: 0.0841326 (Simulation time: 22 hr 50 min 6 sec) 
 Total Blocks : 262144 Invalid Blocks : 0
Heartbeat CPU 2 instructions: 290000002 cycles: 1232441010 heartbeat IPC: 0.0838657 cumulative IPC: 0.0841255 (Simulation time: 22 hr 51 min 48 sec) 
 Total Blocks : 262144 Invalid Blocks : 0
Heartbeat CPU 4 instructions: 290000002 cycles: 1232656590 heartbeat IPC: 0.0836801 cumulative IPC: 0.0841774 (Simulation time: 22 hr 52 min 1 sec) 
 Total Blocks : 262144 Invalid Blocks : 0
Heartbeat CPU 3 instructions: 290000002 cycles: 1232873972 heartbeat IPC: 0.0839019 cumulative IPC: 0.0841255 (Simulation time: 22 hr 52 min 12 sec) 
 Total Blocks : 262144 Invalid Blocks : 0
Heartbeat CPU 1 instructions: 290000002 cycles: 1232916874 heartbeat IPC: 0.0836879 cumulative IPC: 0.0840063 (Simulation time: 22 hr 52 min 14 sec) 
 Total Blocks : 262144 Invalid Blocks : 0
Heartbeat CPU 5 instructions: 290000002 cycles: 1234616506 heartbeat IPC: 0.0837447 cumulative IPC: 0.0840532 (Simulation time: 22 hr 53 min 55 sec) 
 Total Blocks : 262144 Invalid Blocks : 0
Heartbeat CPU 7 instructions: 290000002 cycles: 1234773173 heartbeat IPC: 0.0838565 cumulative IPC: 0.0840984 (Simulation time: 22 hr 54 min 5 sec) 
 Total Blocks : 262144 Invalid Blocks : 0
Heartbeat CPU 6 instructions: 290000002 cycles: 1236578493 heartbeat IPC: 0.083396 cumulative IPC: 0.0839285 (Simulation time: 22 hr 55 min 39 sec) 
 Total Blocks : 262144 Invalid Blocks : 0
Heartbeat CPU 0 instructions: 300000002 cycles: 1351048982 heartbeat IPC: 0.082991 cumulative IPC: 0.0840167 (Simulation time: 24 hr 21 min 36 sec) 
 Total Blocks : 262144 Invalid Blocks : 0
Heartbeat CPU 3 instructions: 300000002 cycles: 1353184675 heartbeat IPC: 0.0831181 cumulative IPC: 0.0840235 (Simulation time: 24 hr 23 min 32 sec) 
 Total Blocks : 262144 Invalid Blocks : 0
Heartbeat CPU 2 instructions: 300000002 cycles: 1353235756 heartbeat IPC: 0.0827851 cumulative IPC: 0.0839892 (Simulation time: 24 hr 23 min 35 sec) 
 Total Blocks : 262144 Invalid Blocks : 0
Heartbeat CPU 1 instructions: 300000002 cycles: 1353412014 heartbeat IPC: 0.0829909 cumulative IPC: 0.0839034 (Simulation time: 24 hr 23 min 44 sec) 
 Total Blocks : 262144 Invalid Blocks : 0
Heartbeat CPU 4 instructions: 300000002 cycles: 1353544820 heartbeat IPC: 0.082721 cumulative IPC: 0.0840293 (Simulation time: 24 hr 23 min 50 sec) 
 Total Blocks : 262144 Invalid Blocks : 0
Heartbeat CPU 5 instructions: 300000002 cycles: 1355138774 heartbeat IPC: 0.0829722 cumulative IPC: 0.0839437 (Simulation time: 24 hr 25 min 4 sec) 
 Total Blocks : 262144 Invalid Blocks : 0
Heartbeat CPU 7 instructions: 300000002 cycles: 1355300927 heartbeat IPC: 0.0829684 cumulative IPC: 0.083984 (Simulation time: 24 hr 25 min 12 sec) 
 Total Blocks : 262144 Invalid Blocks : 0
Heartbeat CPU 6 instructions: 300000002 cycles: 1356702121 heartbeat IPC: 0.0832476 cumulative IPC: 0.0838599 (Simulation time: 24 hr 26 min 20 sec) 
 Total Blocks : 262144 Invalid Blocks : 0
Heartbeat CPU 0 instructions: 310000001 cycles: 1471097264 heartbeat IPC: 0.0832998 cumulative IPC: 0.0839508 (Simulation time: 26 hr 0 min 52 sec) 
 Total Blocks : 262144 Invalid Blocks : 0
Heartbeat CPU 3 instructions: 310000001 cycles: 1472737044 heartbeat IPC: 0.0836453 cumulative IPC: 0.083989 (Simulation time: 26 hr 2 min 8 sec) 
 Total Blocks : 262144 Invalid Blocks : 0
Heartbeat CPU 4 instructions: 310000000 cycles: 1472888521 heartbeat IPC: 0.0837916 cumulative IPC: 0.0840076 (Simulation time: 26 hr 2 min 16 sec) 
 Total Blocks : 262144 Invalid Blocks : 0
Heartbeat CPU 2 instructions: 310000000 cycles: 1473102036 heartbeat IPC: 0.0834263 cumulative IPC: 0.0839377 (Simulation time: 26 hr 2 min 28 sec) 
 Total Blocks : 262144 Invalid Blocks : 0
Heartbeat CPU 1 instructions: 310000001 cycles: 1473197951 heartbeat IPC: 0.0834822 cumulative IPC: 0.0838648 (Simulation time: 26 hr 2 min 32 sec) 
 Total Blocks : 262144 Invalid Blocks : 0
Heartbeat CPU 5 instructions: 310000001 cycles: 1474950544 heartbeat IPC: 0.0834642 cumulative IPC: 0.0838999 (Simulation time: 26 hr 4 min 2 sec) 
 Total Blocks : 262144 Invalid Blocks : 0
Heartbeat CPU 7 instructions: 310000001 cycles: 1475023736 heartbeat IPC: 0.0835263 cumulative IPC: 0.0839422 (Simulation time: 26 hr 4 min 6 sec) 
 Total Blocks : 262144 Invalid Blocks : 0
Heartbeat CPU 6 instructions: 310000001 cycles: 1476581263 heartbeat IPC: 0.0834173 cumulative IPC: 0.0838195 (Simulation time: 26 hr 5 min 26 sec) 
 Total Blocks : 262144 Invalid Blocks : 0
Heartbeat CPU 0 instructions: 320000003 cycles: 1589202071 heartbeat IPC: 0.0846706 cumulative IPC: 0.0840105 (Simulation time: 27 hr 36 min 46 sec) 
 Total Blocks : 262144 Invalid Blocks : 0
Heartbeat CPU 2 instructions: 320000002 cycles: 1590845291 heartbeat IPC: 0.0849306 cumulative IPC: 0.0840196 (Simulation time: 27 hr 38 min 8 sec) 
 Total Blocks : 262144 Invalid Blocks : 0
Heartbeat CPU 1 instructions: 320000003 cycles: 1590907294 heartbeat IPC: 0.084955 cumulative IPC: 0.0839548 (Simulation time: 27 hr 38 min 11 sec) 
 Total Blocks : 262144 Invalid Blocks : 0
Heartbeat CPU 4 instructions: 320000003 cycles: 1591079802 heartbeat IPC: 0.0846086 cumulative IPC: 0.0840574 (Simulation time: 27 hr 38 min 19 sec) 
 Total Blocks : 262144 Invalid Blocks : 0
Heartbeat CPU 3 instructions: 320000003 cycles: 1591287351 heartbeat IPC: 0.0843524 cumulative IPC: 0.0840192 (Simulation time: 27 hr 38 min 29 sec) 
 Total Blocks : 262144 Invalid Blocks : 0
Heartbeat CPU 7 instructions: 320000003 cycles: 1592859278 heartbeat IPC: 0.0848641 cumulative IPC: 0.0840183 (Simulation time: 27 hr 39 min 37 sec) 
 Total Blocks : 262144 Invalid Blocks : 0
Heartbeat CPU 5 instructions: 320000003 cycles: 1593276109 heartbeat IPC: 0.0845126 cumulative IPC: 0.0839506 (Simulation time: 27 hr 39 min 54 sec) 
 Total Blocks : 262144 Invalid Blocks : 0
Heartbeat CPU 6 instructions: 320000003 cycles: 1594323588 heartbeat IPC: 0.0849312 cumulative IPC: 0.083911 (Simulation time: 27 hr 40 min 35 sec) 
 Total Blocks : 262144 Invalid Blocks : 0
Heartbeat CPU 0 instructions: 330000000 cycles: 1708477529 heartbeat IPC: 0.0838395 cumulative IPC: 0.0839973 (Simulation time: 29 hr 13 min 44 sec) 
 Total Blocks : 262144 Invalid Blocks : 0
Heartbeat CPU 1 instructions: 330000000 cycles: 1709912100 heartbeat IPC: 0.0840302 cumulative IPC: 0.0839606 (Simulation time: 29 hr 14 min 53 sec) 
 Total Blocks : 262144 Invalid Blocks : 0
Heartbeat CPU 2 instructions: 330000000 cycles: 1709931594 heartbeat IPC: 0.0839727 cumulative IPC: 0.084016 (Simulation time: 29 hr 14 min 54 sec) 
 Total Blocks : 262144 Invalid Blocks : 0
Heartbeat CPU 3 instructions: 330000000 cycles: 1710035967 heartbeat IPC: 0.0842115 cumulative IPC: 0.0840339 (Simulation time: 29 hr 15 min 0 sec) 
 Total Blocks : 262144 Invalid Blocks : 0
Heartbeat CPU 4 instructions: 330000000 cycles: 1710432241 heartbeat IPC: 0.0837854 cumulative IPC: 0.0840364 (Simulation time: 29 hr 15 min 19 sec) 
 Total Blocks : 262144 Invalid Blocks : 0
Heartbeat CPU 7 instructions: 330000000 cycles: 1711985034 heartbeat IPC: 0.0839449 cumulative IPC: 0.0840126 (Simulation time: 29 hr 16 min 36 sec) 
 Total Blocks : 262144 Invalid Blocks : 0
Heartbeat CPU 5 instructions: 330000000 cycles: 1712657108 heartbeat IPC: 0.0837654 cumulative IPC: 0.0839364 (Simulation time: 29 hr 17 min 9 sec) 
 Total Blocks : 262144 Invalid Blocks : 0
Heartbeat CPU 6 instructions: 330000000 cycles: 1713612697 heartbeat IPC: 0.0838299 cumulative IPC: 0.0839048 (Simulation time: 29 hr 17 min 56 sec) 
 Total Blocks : 262144 Invalid Blocks : 0
Heartbeat CPU 0 instructions: 340000001 cycles: 1828004082 heartbeat IPC: 0.0836634 cumulative IPC: 0.0839733 (Simulation time: 30 hr 52 min 46 sec) 
 Total Blocks : 262144 Invalid Blocks : 0
Heartbeat CPU 1 instructions: 340000001 cycles: 1829735108 heartbeat IPC: 0.0834564 cumulative IPC: 0.0839243 (Simulation time: 30 hr 53 min 44 sec) 
 Total Blocks : 262144 Invalid Blocks : 0
Heartbeat CPU 3 instructions: 340000001 cycles: 1829797756 heartbeat IPC: 0.0834991 cumulative IPC: 0.0839955 (Simulation time: 30 hr 53 min 45 sec) 
 Total Blocks : 262144 Invalid Blocks : 0
Heartbeat CPU 2 instructions: 340000001 cycles: 1829906526 heartbeat IPC: 0.0833508 cumulative IPC: 0.0839681 (Simulation time: 30 hr 53 min 48 sec) 
 Total Blocks : 262144 Invalid Blocks : 0
Heartbeat CPU 4 instructions: 340000001 cycles: 1829973712 heartbeat IPC: 0.083653 cumulative IPC: 0.0840089 (Simulation time: 30 hr 53 min 50 sec) 
 Total Blocks : 262144 Invalid Blocks : 0
Heartbeat CPU 7 instructions: 340000001 cycles: 1831885450 heartbeat IPC: 0.0834026 cumulative IPC: 0.0839688 (Simulation time: 30 hr 54 min 53 sec) 
 Total Blocks : 262144 Invalid Blocks : 0
Heartbeat CPU 5 instructions: 340000001 cycles: 1832010951 heartbeat IPC: 0.0837845 cumulative IPC: 0.0839255 (Simulation time: 30 hr 54 min 57 sec) 
 Total Blocks : 262144 Invalid Blocks : 0
Heartbeat CPU 6 instructions: 340000001 cycles: 1832901717 heartbeat IPC: 0.08383 cumulative IPC: 0.0838994 (Simulation time: 30 hr 55 min 27 sec) 
 Total Blocks : 262144 Invalid Blocks : 0
Heartbeat CPU 0 instructions: 350000001 cycles: 1945697813 heartbeat IPC: 0.0849663 cumulative IPC: 0.0840389 (Simulation time: 31 hr 57 min 10 sec) 
 Total Blocks : 262144 Invalid Blocks : 0
Heartbeat CPU 2 instructions: 350000002 cycles: 1946929601 heartbeat IPC: 0.0854532 cumulative IPC: 0.0840656 (Simulation time: 31 hr 57 min 50 sec) 
 Total Blocks : 262144 Invalid Blocks : 0
Heartbeat CPU 3 instructions: 350000001 cycles: 1947025816 heartbeat IPC: 0.0853038 cumulative IPC: 0.0840815 (Simulation time: 31 hr 57 min 54 sec) 
 Total Blocks : 262144 Invalid Blocks : 0
Heartbeat CPU 4 instructions: 350000001 cycles: 1947082579 heartbeat IPC: 0.0853906 cumulative IPC: 0.0840997 (Simulation time: 31 hr 57 min 56 sec) 
 Total Blocks : 262144 Invalid Blocks : 0
Heartbeat CPU 1 instructions: 350000001 cycles: 1947168586 heartbeat IPC: 0.0851546 cumulative IPC: 0.0840054 (Simulation time: 31 hr 57 min 58 sec) 
 Total Blocks : 262144 Invalid Blocks : 0
Heartbeat CPU 7 instructions: 350000001 cycles: 1949161962 heartbeat IPC: 0.0852686 cumulative IPC: 0.0840542 (Simulation time: 31 hr 59 min 4 sec) 
 Total Blocks : 262144 Invalid Blocks : 0
Heartbeat CPU 5 instructions: 350000002 cycles: 1949544945 heartbeat IPC: 0.0850818 cumulative IPC: 0.0840016 (Simulation time: 31 hr 59 min 18 sec) 
 Total Blocks : 262144 Invalid Blocks : 0
Heartbeat CPU 6 instructions: 350000001 cycles: 1950210940 heartbeat IPC: 0.0852448 cumulative IPC: 0.0839878 (Simulation time: 31 hr 59 min 40 sec) 
 Total Blocks : 262144 Invalid Blocks : 0
Heartbeat CPU 0 instructions: 360000001 cycles: 2065342898 heartbeat IPC: 0.0835805 cumulative IPC: 0.0840101 (Simulation time: 33 hr 30 min 42 sec) 
 Total Blocks : 262144 Invalid Blocks : 0
Heartbeat CPU 4 instructions: 360000001 cycles: 2066204119 heartbeat IPC: 0.0839479 cumulative IPC: 0.0840902 (Simulation time: 33 hr 31 min 32 sec) 
 Total Blocks : 262144 Invalid Blocks : 0
Heartbeat CPU 3 instructions: 360000001 cycles: 2066287680 heartbeat IPC: 0.0838491 cumulative IPC: 0.0840669 (Simulation time: 33 hr 31 min 36 sec) 
 Total Blocks : 262144 Invalid Blocks : 0
Heartbeat CPU 2 instructions: 360000001 cycles: 2066326616 heartbeat IPC: 0.0837542 cumulative IPC: 0.0840461 (Simulation time: 33 hr 31 min 38 sec) 
 Total Blocks : 262144 Invalid Blocks : 0
Heartbeat CPU 1 instructions: 360000001 cycles: 2066473271 heartbeat IPC: 0.083819 cumulative IPC: 0.0839937 (Simulation time: 33 hr 31 min 47 sec) 
 Total Blocks : 262144 Invalid Blocks : 0
Heartbeat CPU 7 instructions: 360000001 cycles: 2068479153 heartbeat IPC: 0.0838102 cumulative IPC: 0.0840389 (Simulation time: 33 hr 33 min 22 sec) 
 Total Blocks : 262144 Invalid Blocks : 0
Heartbeat CPU 5 instructions: 360000001 cycles: 2068987344 heartbeat IPC: 0.0837224 cumulative IPC: 0.0839841 (Simulation time: 33 hr 33 min 48 sec) 
 Total Blocks : 262144 Invalid Blocks : 0
Heartbeat CPU 6 instructions: 360000001 cycles: 2069786308 heartbeat IPC: 0.0836293 cumulative IPC: 0.0839653 (Simulation time: 33 hr 34 min 27 sec) 
 Total Blocks : 262144 Invalid Blocks : 0
Heartbeat CPU 0 instructions: 370000000 cycles: 2183139186 heartbeat IPC: 0.0848923 cumulative IPC: 0.0840615 (Simulation time: 35 hr 13 min 24 sec) 
 Total Blocks : 262144 Invalid Blocks : 0
Heartbeat CPU 3 instructions: 370000000 cycles: 2183733990 heartbeat IPC: 0.0851453 cumulative IPC: 0.0841297 (Simulation time: 35 hr 13 min 54 sec) 
 Total Blocks : 262144 Invalid Blocks : 0
Heartbeat CPU 2 instructions: 370000000 cycles: 2183892217 heartbeat IPC: 0.0850589 cumulative IPC: 0.084105 (Simulation time: 35 hr 14 min 3 sec) 
 Total Blocks : 262144 Invalid Blocks : 0
Heartbeat CPU 1 instructions: 370000000 cycles: 2183918744 heartbeat IPC: 0.0851459 cumulative IPC: 0.0840607 (Simulation time: 35 hr 14 min 4 sec) 
 Total Blocks : 262144 Invalid Blocks : 0
Heartbeat CPU 4 instructions: 370000000 cycles: 2184442962 heartbeat IPC: 0.0845746 cumulative IPC: 0.0841185 (Simulation time: 35 hr 14 min 34 sec) 
 Total Blocks : 262144 Invalid Blocks : 0
Heartbeat CPU 7 instructions: 370000000 cycles: 2186346643 heartbeat IPC: 0.084841 cumulative IPC: 0.0840857 (Simulation time: 35 hr 16 min 23 sec) 
 Total Blocks : 262144 Invalid Blocks : 0
Heartbeat CPU 5 instructions: 370000000 cycles: 2186923466 heartbeat IPC: 0.0847917 cumulative IPC: 0.0840312 (Simulation time: 35 hr 16 min 54 sec) 
 Total Blocks : 262144 Invalid Blocks : 0
Heartbeat CPU 6 instructions: 370000000 cycles: 2187826027 heartbeat IPC: 0.0847172 cumulative IPC: 0.0840092 (Simulation time: 35 hr 17 min 39 sec) 
 Total Blocks : 262144 Invalid Blocks : 0
Heartbeat CPU 0 instructions: 380000002 cycles: 2302859153 heartbeat IPC: 0.0835283 cumulative IPC: 0.0840317 (Simulation time: 36 hr 55 min 14 sec) 
 Total Blocks : 262144 Invalid Blocks : 0
Heartbeat CPU 3 instructions: 380000002 cycles: 2303408811 heartbeat IPC: 0.0835598 cumulative IPC: 0.0840978 (Simulation time: 36 hr 55 min 42 sec) 
 Total Blocks : 262144 Invalid Blocks : 0
Heartbeat CPU 2 instructions: 380000001 cycles: 2303824339 heartbeat IPC: 0.0833805 cumulative IPC: 0.0840644 (Simulation time: 36 hr 56 min 4 sec) 
 Total Blocks : 262144 Invalid Blocks : 0
Heartbeat CPU 1 instructions: 380000002 cycles: 2303950675 heartbeat IPC: 0.0833112 cumulative IPC: 0.0840186 (Simulation time: 36 hr 56 min 10 sec) 
 Total Blocks : 262144 Invalid Blocks : 0
Heartbeat CPU 4 instructions: 380000001 cycles: 2304501221 heartbeat IPC: 0.0832929 cumulative IPC: 0.0840722 (Simulation time: 36 hr 56 min 37 sec) 
 Total Blocks : 262144 Invalid Blocks : 0
Heartbeat CPU 7 instructions: 380000002 cycles: 2306288154 heartbeat IPC: 0.083374 cumulative IPC: 0.0840458 (Simulation time: 36 hr 58 min 1 sec) 
 Total Blocks : 262144 Invalid Blocks : 0
Heartbeat CPU 5 instructions: 380000002 cycles: 2306623752 heartbeat IPC: 0.083542 cumulative IPC: 0.0840039 (Simulation time: 36 hr 58 min 17 sec) 
 Total Blocks : 262144 Invalid Blocks : 0
Heartbeat CPU 6 instructions: 380000002 cycles: 2307254666 heartbeat IPC: 0.083732 cumulative IPC: 0.0839937 (Simulation time: 36 hr 58 min 48 sec) 
 Total Blocks : 262144 Invalid Blocks : 0
Heartbeat CPU 0 instructions: 390000003 cycles: 2420212453 heartbeat IPC: 0.0852128 cumulative IPC: 0.0840931 (Simulation time: 38 hr 12 min 53 sec) 
 Total Blocks : 262144 Invalid Blocks : 0
Heartbeat CPU 3 instructions: 390000002 cycles: 2420904495 heartbeat IPC: 0.0851095 cumulative IPC: 0.0841505 (Simulation time: 38 hr 13 min 15 sec) 
 Total Blocks : 262144 Invalid Blocks : 0
Heartbeat CPU 1 instructions: 390000003 cycles: 2421186592 heartbeat IPC: 0.0852981 cumulative IPC: 0.0840851 (Simulation time: 38 hr 13 min 25 sec) 
 Total Blocks : 262144 Invalid Blocks : 0
Heartbeat CPU 2 instructions: 390000003 cycles: 2421535042 heartbeat IPC: 0.0849541 cumulative IPC: 0.0841108 (Simulation time: 38 hr 13 min 37 sec) 
 Total Blocks : 262144 Invalid Blocks : 0
Heartbeat CPU 4 instructions: 390000003 cycles: 2422163547 heartbeat IPC: 0.084989 cumulative IPC: 0.08412 (Simulation time: 38 hr 13 min 58 sec) 
 Total Blocks : 262144 Invalid Blocks : 0
Heartbeat CPU 7 instructions: 390000003 cycles: 2423782490 heartbeat IPC: 0.0851105 cumulative IPC: 0.0841012 (Simulation time: 38 hr 14 min 47 sec) 
 Total Blocks : 262144 Invalid Blocks : 0
Heartbeat CPU 5 instructions: 390000003 cycles: 2424349959 heartbeat IPC: 0.0849429 cumulative IPC: 0.0840528 (Simulation time: 38 hr 15 min 6 sec) 
 Total Blocks : 262144 Invalid Blocks : 0
Heartbeat CPU 6 instructions: 390000003 cycles: 2424742093 heartbeat IPC: 0.0851155 cumulative IPC: 0.0840521 (Simulation time: 38 hr 15 min 18 sec) 
 Total Blocks : 262144 Invalid Blocks : 0
Heartbeat CPU 0 instructions: 400000000 cycles: 2540216288 heartbeat IPC: 0.0833306 cumulative IPC: 0.0840546 (Simulation time: 39 hr 19 min 30 sec) 
 Total Blocks : 262144 Invalid Blocks : 0
Heartbeat CPU 3 instructions: 400000000 cycles: 2540494040 heartbeat IPC: 0.0836193 cumulative IPC: 0.0841237 (Simulation time: 39 hr 19 min 38 sec) 
 Total Blocks : 262144 Invalid Blocks : 0
Heartbeat CPU 1 instructions: 400000000 cycles: 2540701537 heartbeat IPC: 0.0836715 cumulative IPC: 0.0840643 (Simulation time: 39 hr 19 min 45 sec) 
 Total Blocks : 262144 Invalid Blocks : 0
Heartbeat CPU 2 instructions: 400000000 cycles: 2541105806 heartbeat IPC: 0.0836325 cumulative IPC: 0.0840867 (Simulation time: 39 hr 19 min 59 sec) 
 Total Blocks : 262144 Invalid Blocks : 0
Heartbeat CPU 4 instructions: 400000000 cycles: 2541518649 heartbeat IPC: 0.0837836 cumulative IPC: 0.0841031 (Simulation time: 39 hr 20 min 12 sec) 
 Total Blocks : 262144 Invalid Blocks : 0
Finished CPU 3 instructions: 200000000 cycles: 2377623696 cumulative IPC: 0.0841176 (Simulation time: 39 hr 20 min 35 sec) 
Finished CPU 4 instructions: 200000000 cycles: 2378078582 cumulative IPC: 0.0841015 (Simulation time: 39 hr 20 min 50 sec) 
Finished CPU 2 instructions: 200000001 cycles: 2378636905 cumulative IPC: 0.0840818 (Simulation time: 39 hr 21 min 10 sec) 
Heartbeat CPU 7 instructions: 400000000 cycles: 2543721688 heartbeat IPC: 0.0833756 cumulative IPC: 0.0840646 (Simulation time: 39 hr 21 min 28 sec) 
 Total Blocks : 262144 Invalid Blocks : 0
Finished CPU 7 instructions: 200000000 cycles: 2379123065 cumulative IPC: 0.0840646 (Simulation time: 39 hr 21 min 28 sec) 
Finished CPU 1 instructions: 200000003 cycles: 2379339336 cumulative IPC: 0.084057 (Simulation time: 39 hr 21 min 35 sec) 
Heartbeat CPU 5 instructions: 400000000 cycles: 2544003087 heartbeat IPC: 0.0835749 cumulative IPC: 0.0840288 (Simulation time: 39 hr 21 min 37 sec) 
 Total Blocks : 262144 Invalid Blocks : 0
Heartbeat CPU 6 instructions: 400000000 cycles: 2544256544 heartbeat IPC: 0.0836719 cumulative IPC: 0.084033 (Simulation time: 39 hr 21 min 44 sec) 
 Total Blocks : 262144 Invalid Blocks : 0
Finished CPU 0 instructions: 200000001 cycles: 2379729812 cumulative IPC: 0.0840432 (Simulation time: 39 hr 21 min 47 sec) 
Finished CPU 6 instructions: 200000001 cycles: 2380090479 cumulative IPC: 0.0840304 (Simulation time: 39 hr 21 min 59 sec) 
Finished CPU 5 instructions: 200000000 cycles: 2380104206 cumulative IPC: 0.0840299 (Simulation time: 39 hr 21 min 59 sec) 

CPU 0 Branch Prediction Accuracy: 93.0735% MPKI: 13.9685 Average ROB Occupancy at Mispredict: 54.7529

CPU 1 Branch Prediction Accuracy: 93.0722% MPKI: 13.9755 Average ROB Occupancy at Mispredict: 54.746

CPU 2 Branch Prediction Accuracy: 93.0743% MPKI: 13.9774 Average ROB Occupancy at Mispredict: 54.7565

CPU 3 Branch Prediction Accuracy: 93.0729% MPKI: 13.9828 Average ROB Occupancy at Mispredict: 54.747

CPU 4 Branch Prediction Accuracy: 93.0728% MPKI: 13.9856 Average ROB Occupancy at Mispredict: 54.7498

CPU 5 Branch Prediction Accuracy: 93.0728% MPKI: 13.9877 Average ROB Occupancy at Mispredict: 54.7478

CPU 6 Branch Prediction Accuracy: 93.0714% MPKI: 13.9928 Average ROB Occupancy at Mispredict: 54.7412

CPU 7 Branch Prediction Accuracy: 93.0712% MPKI: 13.9954 Average ROB Occupancy at Mispredict: 54.7388

ChampSim completed all CPUs

Total Simulation Statistics (not including warmup)

CPU 0 cumulative IPC: 0.0840449 instructions: 200035732 cycles: 2380104206
ITLB TOTAL     ACCESS: 31157787  HIT: 31157787  MISS:     0  HIT %:   100  MISS %:     0  AVERAGE MISS PENALTY: 0
ITLB LOAD      ACCESS: 31157787  HIT: 31157787  MISS:     0  HIT %:   100  MISS %:     0  AVERAGE MISS PENALTY: 0
ITLB RFO       ACCESS:     0  HIT:     0  MISS:     0  HIT %:     0  MISS %:     0  AVERAGE MISS PENALTY: 0
ITLB PREFETCH  ACCESS:     0  HIT:     0  MISS:     0  HIT %:     0  MISS %:     0  AVERAGE MISS PENALTY: 0
ITLB WRITEBACK ACCESS:     0  HIT:     0  MISS:     0  HIT %:     0  MISS %:     0  AVERAGE MISS PENALTY: 0

DTLB TOTAL     ACCESS: 45873220  HIT: 36341584  MISS: 9531636  HIT %: 79.2218  MISS %: 20.7782  AVERAGE MISS PENALTY: 44.0061
DTLB LOAD      ACCESS: 45806836  HIT: 36275200  MISS: 9531636  HIT %: 79.1917  MISS %: 20.8083  AVERAGE MISS PENALTY: 44.0061
DTLB RFO       ACCESS: 66384  HIT: 66384  MISS:     0  HIT %:   100  MISS %:     0  AVERAGE MISS PENALTY: 0
DTLB PREFETCH  ACCESS:     0  HIT:     0  MISS:     0  HIT %:     0  MISS %:     0  AVERAGE MISS PENALTY: 0
DTLB WRITEBACK ACCESS:     0  HIT:     0  MISS:     0  HIT %:     0  MISS %:     0  AVERAGE MISS PENALTY: 0

STLB TOTAL     ACCESS: 9531635  HIT: 9517279  MISS: 14356  HIT %: 99.8494  MISS %: 0.150614  AVERAGE MISS PENALTY: 100
STLB LOAD      ACCESS: 9531635  HIT: 9517279  MISS: 14356  HIT %: 99.8494  MISS %: 0.150614  AVERAGE MISS PENALTY: 100
STLB RFO       ACCESS:     0  HIT:     0  MISS:     0  HIT %:     0  MISS %:     0  AVERAGE MISS PENALTY: 0
STLB PREFETCH  ACCESS:     0  HIT:     0  MISS:     0  HIT %:     0  MISS %:     0  AVERAGE MISS PENALTY: 0
STLB WRITEBACK ACCESS:     0  HIT:     0  MISS:     0  HIT %:     0  MISS %:     0  AVERAGE MISS PENALTY: 0

L1D TOTAL     ACCESS: 104336031  HIT: 51575684  MISS: 52760347  HIT %: 49.4323  MISS %: 50.5677  AVERAGE MISS PENALTY: 4.36794e+06
L1D LOAD      ACCESS: 43081356  HIT: 28956477  MISS: 14124879  HIT %: 67.2135  MISS %: 32.7865  AVERAGE MISS PENALTY: 1.63145e+07
L1D RFO       ACCESS: 66390  HIT: 66390  MISS:     0  HIT %:   100  MISS %:     0  AVERAGE MISS PENALTY: 0
L1D PREFETCH  ACCESS: 61188285  HIT: 22552817  MISS: 38635468  HIT %: 36.8581  MISS %: 63.1419  AVERAGE MISS PENALTY: 334.613
L1D WRITEBACK ACCESS:     0  HIT:     0  MISS:     0  HIT %:     0  MISS %:     0  AVERAGE MISS PENALTY: 0

L1I TOTAL     ACCESS: 42384949  HIT: 42384949  MISS:     0  HIT %:   100  MISS %:     0  AVERAGE MISS PENALTY: 0
L1I LOAD      ACCESS: 42384949  HIT: 42384949  MISS:     0  HIT %:   100  MISS %:     0  AVERAGE MISS PENALTY: 0
L1I RFO       ACCESS:     0  HIT:     0  MISS:     0  HIT %:     0  MISS %:     0  AVERAGE MISS PENALTY: 0
L1I PREFETCH  ACCESS:     0  HIT:     0  MISS:     0  HIT %:     0  MISS %:     0  AVERAGE MISS PENALTY: 0
L1I WRITEBACK ACCESS:     0  HIT:     0  MISS:     0  HIT %:     0  MISS %:     0  AVERAGE MISS PENALTY: 0

L2C TOTAL     ACCESS: 83605656  HIT: 5928649  MISS: 77677007  HIT %: 7.09121  MISS %: 92.9088  AVERAGE MISS PENALTY: 3.1975e+06
L2C LOAD      ACCESS: 14121096  HIT: 260721  MISS: 13860375  HIT %: 1.84632  MISS %: 98.1537  AVERAGE MISS PENALTY: 1.79181e+07
L2C RFO       ACCESS:     0  HIT:     0  MISS:     0  HIT %:     0  MISS %:     0  AVERAGE MISS PENALTY: 0
L2C PREFETCH  ACCESS: 69429033  HIT: 5651132  MISS: 63777901  HIT %: 8.13944  MISS %: 91.8606  AVERAGE MISS PENALTY: 327.485
L2C WRITEBACK ACCESS: 55527  HIT: 16796  MISS: 38731  HIT %: 30.2483  MISS %: 69.7517  AVERAGE MISS PENALTY: 0


LLC0 TOTAL     ACCESS: 9938893  HIT: 5422670  MISS: 4516223  HIT %: 54.5601  MISS %: 45.4399  AVERAGE MISS PENALTY: 676.999
LLC0 LOAD      ACCESS: 1724652  HIT: 963697  MISS: 760955  HIT %: 55.8778  MISS %: 44.1222  AVERAGE MISS PENALTY: 667.187
LLC0 RFO       ACCESS:     0  HIT:     0  MISS:     0  HIT %:     0  MISS %:     0  AVERAGE MISS PENALTY: 0
LLC0 PREFETCH  ACCESS: 8207263  HIT: 4452272  MISS: 3754991  HIT %: 54.248  MISS %: 45.752  AVERAGE MISS PENALTY: 679.038
LLC0 WRITEBACK ACCESS:  6978  HIT:  6701  MISS:   277  HIT %: 96.0304  MISS %: 3.96962  AVERAGE MISS PENALTY: 0

LLC1 TOTAL     ACCESS: 10025745  HIT: 5466848  MISS: 4558897  HIT %: 54.5281  MISS %: 45.4719  AVERAGE MISS PENALTY: 668.829
LLC1 LOAD      ACCESS: 1721443  HIT: 961381  MISS: 760062  HIT %: 55.8474  MISS %: 44.1526  AVERAGE MISS PENALTY: 661.018
LLC1 RFO       ACCESS:     0  HIT:     0  MISS:     0  HIT %:     0  MISS %:     0  AVERAGE MISS PENALTY: 0
LLC1 PREFETCH  ACCESS: 8297343  HIT: 4498750  MISS: 3798593  HIT %: 54.2192  MISS %: 45.7808  AVERAGE MISS PENALTY: 670.435
LLC1 WRITEBACK ACCESS:  6959  HIT:  6717  MISS:   242  HIT %: 96.5225  MISS %: 3.47751  AVERAGE MISS PENALTY: 0

LLC2 TOTAL     ACCESS: 9963760  HIT: 5430716  MISS: 4533044  HIT %: 54.5047  MISS %: 45.4953  AVERAGE MISS PENALTY: 670.818
LLC2 LOAD      ACCESS: 1687125  HIT: 941998  MISS: 745127  HIT %: 55.8345  MISS %: 44.1655  AVERAGE MISS PENALTY: 669.404
LLC2 RFO       ACCESS:     0  HIT:     0  MISS:     0  HIT %:     0  MISS %:     0  AVERAGE MISS PENALTY: 0
LLC2 PREFETCH  ACCESS: 8269629  HIT: 4481991  MISS: 3787638  HIT %: 54.1982  MISS %: 45.8018  AVERAGE MISS PENALTY: 671.146
LLC2 WRITEBACK ACCESS:  7006  HIT:  6727  MISS:   279  HIT %: 96.0177  MISS %: 3.9823  AVERAGE MISS PENALTY: 0

LLC3 TOTAL     ACCESS: 9844509  HIT: 5391141  MISS: 4453368  HIT %: 54.7629  MISS %: 45.2371  AVERAGE MISS PENALTY: 663.227
LLC3 LOAD      ACCESS: 1673947  HIT: 938241  MISS: 735706  HIT %: 56.0496  MISS %: 43.9504  AVERAGE MISS PENALTY: 661.093
LLC3 RFO       ACCESS:     0  HIT:     0  MISS:     0  HIT %:     0  MISS %:     0  AVERAGE MISS PENALTY: 0
LLC3 PREFETCH  ACCESS: 8163747  HIT: 4446332  MISS: 3717415  HIT %: 54.4644  MISS %: 45.5356  AVERAGE MISS PENALTY: 663.693
LLC3 WRITEBACK ACCESS:  6815  HIT:  6568  MISS:   247  HIT %: 96.3756  MISS %: 3.62436  AVERAGE MISS PENALTY: 0

LLC4 TOTAL     ACCESS: 9745540  HIT: 5351569  MISS: 4393971  HIT %: 54.913  MISS %: 45.087  AVERAGE MISS PENALTY: 591.778
LLC4 LOAD      ACCESS: 1759809  HIT: 1004715  MISS: 755094  HIT %: 57.0923  MISS %: 42.9077  AVERAGE MISS PENALTY: 580.171
LLC4 RFO       ACCESS:     0  HIT:     0  MISS:     0  HIT %:     0  MISS %:     0  AVERAGE MISS PENALTY: 0
LLC4 PREFETCH  ACCESS: 7978759  HIT: 4340127  MISS: 3638632  HIT %: 54.396  MISS %: 45.604  AVERAGE MISS PENALTY: 594.227
LLC4 WRITEBACK ACCESS:  6972  HIT:  6727  MISS:   245  HIT %: 96.4859  MISS %: 3.51406  AVERAGE MISS PENALTY: 0

LLC5 TOTAL     ACCESS: 9569113  HIT: 5263598  MISS: 4305515  HIT %: 55.0061  MISS %: 44.9939  AVERAGE MISS PENALTY: 559.415
LLC5 LOAD      ACCESS: 1740360  HIT: 992286  MISS: 748074  HIT %: 57.0161  MISS %: 42.9839  AVERAGE MISS PENALTY: 546.506
LLC5 RFO       ACCESS:     0  HIT:     0  MISS:     0  HIT %:     0  MISS %:     0  AVERAGE MISS PENALTY: 0
LLC5 PREFETCH  ACCESS: 7821905  HIT: 4264720  MISS: 3557185  HIT %: 54.5228  MISS %: 45.4772  AVERAGE MISS PENALTY: 562.17
LLC5 WRITEBACK ACCESS:  6848  HIT:  6592  MISS:   256  HIT %: 96.2617  MISS %: 3.73832  AVERAGE MISS PENALTY: 0

LLC6 TOTAL     ACCESS: 9395185  HIT: 5211244  MISS: 4183941  HIT %: 55.4672  MISS %: 44.5328  AVERAGE MISS PENALTY: 588.151
LLC6 LOAD      ACCESS: 1723839  HIT: 978068  MISS: 745771  HIT %: 56.7378  MISS %: 43.2622  AVERAGE MISS PENALTY: 574.651
LLC6 RFO       ACCESS:     0  HIT:     0  MISS:     0  HIT %:     0  MISS %:     0  AVERAGE MISS PENALTY: 0
LLC6 PREFETCH  ACCESS: 7664324  HIT: 4226425  MISS: 3437899  HIT %: 55.1441  MISS %: 44.8559  AVERAGE MISS PENALTY: 591.126
LLC6 WRITEBACK ACCESS:  7022  HIT:  6751  MISS:   271  HIT %: 96.1407  MISS %: 3.8593  AVERAGE MISS PENALTY: 0

LLC7 TOTAL     ACCESS: 9211053  HIT: 5180119  MISS: 4030934  HIT %: 56.2381  MISS %: 43.7619  AVERAGE MISS PENALTY: 558.88
LLC7 LOAD      ACCESS: 1725730  HIT: 994490  MISS: 731240  HIT %: 57.6272  MISS %: 42.3728  AVERAGE MISS PENALTY: 542.564
LLC7 RFO       ACCESS:     0  HIT:     0  MISS:     0  HIT %:     0  MISS %:     0  AVERAGE MISS PENALTY: 0
LLC7 PREFETCH  ACCESS: 7478396  HIT: 4178984  MISS: 3299412  HIT %: 55.8808  MISS %: 44.1192  AVERAGE MISS PENALTY: 562.543
LLC7 WRITEBACK ACCESS:  6927  HIT:  6645  MISS:   282  HIT %: 95.929  MISS %: 4.07103  AVERAGE MISS PENALTY: 0

Total Rob stall cycles : 	2305448934
Total Load Rob Stall cycles : 	1431805747
Average Rob Stall cycles : 	 28
Average Load Rob Stall cycles : 	 217

CPU 1 cumulative IPC: 0.0840544 instructions: 200058354 cycles: 2380104206
ITLB TOTAL     ACCESS: 31166288  HIT: 31166288  MISS:     0  HIT %:   100  MISS %:     0  AVERAGE MISS PENALTY: 0
ITLB LOAD      ACCESS: 31166288  HIT: 31166288  MISS:     0  HIT %:   100  MISS %:     0  AVERAGE MISS PENALTY: 0
ITLB RFO       ACCESS:     0  HIT:     0  MISS:     0  HIT %:     0  MISS %:     0  AVERAGE MISS PENALTY: 0
ITLB PREFETCH  ACCESS:     0  HIT:     0  MISS:     0  HIT %:     0  MISS %:     0  AVERAGE MISS PENALTY: 0
ITLB WRITEBACK ACCESS:     0  HIT:     0  MISS:     0  HIT %:     0  MISS %:     0  AVERAGE MISS PENALTY: 0

DTLB TOTAL     ACCESS: 45881228  HIT: 36347954  MISS: 9533274  HIT %: 79.2218  MISS %: 20.7782  AVERAGE MISS PENALTY: 26.7338
DTLB LOAD      ACCESS: 45814789  HIT: 36281515  MISS: 9533274  HIT %: 79.1917  MISS %: 20.8083  AVERAGE MISS PENALTY: 26.7338
DTLB RFO       ACCESS: 66439  HIT: 66439  MISS:     0  HIT %:   100  MISS %:     0  AVERAGE MISS PENALTY: 0
DTLB PREFETCH  ACCESS:     0  HIT:     0  MISS:     0  HIT %:     0  MISS %:     0  AVERAGE MISS PENALTY: 0
DTLB WRITEBACK ACCESS:     0  HIT:     0  MISS:     0  HIT %:     0  MISS %:     0  AVERAGE MISS PENALTY: 0

STLB TOTAL     ACCESS: 9533273  HIT: 9518915  MISS: 14358  HIT %: 99.8494  MISS %: 0.150609  AVERAGE MISS PENALTY: 100
STLB LOAD      ACCESS: 9533273  HIT: 9518915  MISS: 14358  HIT %: 99.8494  MISS %: 0.150609  AVERAGE MISS PENALTY: 100
STLB RFO       ACCESS:     0  HIT:     0  MISS:     0  HIT %:     0  MISS %:     0  AVERAGE MISS PENALTY: 0
STLB PREFETCH  ACCESS:     0  HIT:     0  MISS:     0  HIT %:     0  MISS %:     0  AVERAGE MISS PENALTY: 0
STLB WRITEBACK ACCESS:     0  HIT:     0  MISS:     0  HIT %:     0  MISS %:     0  AVERAGE MISS PENALTY: 0

L1D TOTAL     ACCESS: 104343250  HIT: 51585406  MISS: 52757844  HIT %: 49.4382  MISS %: 50.5618  AVERAGE MISS PENALTY: 4.37349e+06
L1D LOAD      ACCESS: 43089886  HIT: 28962880  MISS: 14127006  HIT %: 67.215  MISS %: 32.785  AVERAGE MISS PENALTY: 1.6332e+07
L1D RFO       ACCESS: 66444  HIT: 66444  MISS:     0  HIT %:   100  MISS %:     0  AVERAGE MISS PENALTY: 0
L1D PREFETCH  ACCESS: 61186920  HIT: 22556082  MISS: 38630838  HIT %: 36.8642  MISS %: 63.1358  AVERAGE MISS PENALTY: 339.286
L1D WRITEBACK ACCESS:     0  HIT:     0  MISS:     0  HIT %:     0  MISS %:     0  AVERAGE MISS PENALTY: 0

L1I TOTAL     ACCESS: 42395380  HIT: 42395380  MISS:     0  HIT %:   100  MISS %:     0  AVERAGE MISS PENALTY: 0
L1I LOAD      ACCESS: 42395380  HIT: 42395380  MISS:     0  HIT %:   100  MISS %:     0  AVERAGE MISS PENALTY: 0
L1I RFO       ACCESS:     0  HIT:     0  MISS:     0  HIT %:     0  MISS %:     0  AVERAGE MISS PENALTY: 0
L1I PREFETCH  ACCESS:     0  HIT:     0  MISS:     0  HIT %:     0  MISS %:     0  AVERAGE MISS PENALTY: 0
L1I WRITEBACK ACCESS:     0  HIT:     0  MISS:     0  HIT %:     0  MISS %:     0  AVERAGE MISS PENALTY: 0

L2C TOTAL     ACCESS: 83607265  HIT: 5915813  MISS: 77691452  HIT %: 7.07572  MISS %: 92.9243  AVERAGE MISS PENALTY: 3.21525e+06
L2C LOAD      ACCESS: 14123135  HIT: 247528  MISS: 13875607  HIT %: 1.75264  MISS %: 98.2474  AVERAGE MISS PENALTY: 1.80011e+07
L2C RFO       ACCESS:     0  HIT:     0  MISS:     0  HIT %:     0  MISS %:     0  AVERAGE MISS PENALTY: 0
L2C PREFETCH  ACCESS: 69428565  HIT: 5651564  MISS: 63777001  HIT %: 8.14011  MISS %: 91.8599  AVERAGE MISS PENALTY: 328.163
L2C WRITEBACK ACCESS: 55565  HIT: 16721  MISS: 38844  HIT %: 30.0927  MISS %: 69.9073  AVERAGE MISS PENALTY: 0


LLC0 TOTAL     ACCESS: 9952632  HIT: 5431545  MISS: 4521087  HIT %: 54.574  MISS %: 45.426  AVERAGE MISS PENALTY: 677.842
LLC0 LOAD      ACCESS: 1737541  HIT: 974201  MISS: 763340  HIT %: 56.0678  MISS %: 43.9322  AVERAGE MISS PENALTY: 668.553
LLC0 RFO       ACCESS:     0  HIT:     0  MISS:     0  HIT %:     0  MISS %:     0  AVERAGE MISS PENALTY: 0
LLC0 PREFETCH  ACCESS: 8208108  HIT: 4450614  MISS: 3757494  HIT %: 54.2222  MISS %: 45.7778  AVERAGE MISS PENALTY: 679.774
LLC0 WRITEBACK ACCESS:  6983  HIT:  6730  MISS:   253  HIT %: 96.3769  MISS %: 3.62308  AVERAGE MISS PENALTY: 0

LLC1 TOTAL     ACCESS: 10028699  HIT: 5463789  MISS: 4564910  HIT %: 54.4815  MISS %: 45.5185  AVERAGE MISS PENALTY: 670.184
LLC1 LOAD      ACCESS: 1721638  HIT: 960203  MISS: 761435  HIT %: 55.7726  MISS %: 44.2274  AVERAGE MISS PENALTY: 662.298
LLC1 RFO       ACCESS:     0  HIT:     0  MISS:     0  HIT %:     0  MISS %:     0  AVERAGE MISS PENALTY: 0
LLC1 PREFETCH  ACCESS: 8300096  HIT: 4496890  MISS: 3803206  HIT %: 54.1788  MISS %: 45.8212  AVERAGE MISS PENALTY: 671.81
LLC1 WRITEBACK ACCESS:  6965  HIT:  6696  MISS:   269  HIT %: 96.1378  MISS %: 3.86217  AVERAGE MISS PENALTY: 0

LLC2 TOTAL     ACCESS: 9961616  HIT: 5427040  MISS: 4534576  HIT %: 54.4795  MISS %: 45.5205  AVERAGE MISS PENALTY: 671.618
LLC2 LOAD      ACCESS: 1687307  HIT: 941157  MISS: 746150  HIT %: 55.7786  MISS %: 44.2214  AVERAGE MISS PENALTY: 670.482
LLC2 RFO       ACCESS:     0  HIT:     0  MISS:     0  HIT %:     0  MISS %:     0  AVERAGE MISS PENALTY: 0
LLC2 PREFETCH  ACCESS: 8267300  HIT: 4479175  MISS: 3788125  HIT %: 54.1794  MISS %: 45.8206  AVERAGE MISS PENALTY: 671.895
LLC2 WRITEBACK ACCESS:  7009  HIT:  6708  MISS:   301  HIT %: 95.7055  MISS %: 4.29448  AVERAGE MISS PENALTY: 0

LLC3 TOTAL     ACCESS: 9844123  HIT: 5387287  MISS: 4456836  HIT %: 54.7259  MISS %: 45.2741  AVERAGE MISS PENALTY: 664.59
LLC3 LOAD      ACCESS: 1673996  HIT: 938041  MISS: 735955  HIT %: 56.036  MISS %: 43.964  AVERAGE MISS PENALTY: 663.2
LLC3 RFO       ACCESS:     0  HIT:     0  MISS:     0  HIT %:     0  MISS %:     0  AVERAGE MISS PENALTY: 0
[...]
 TIMELY PREFETCHES:    3142141 LATE PREFETCHES: 0 DROPPED PREFETCHES: 0
LLC1 AVERAGE MISS LATENCY: 668.988 cycles
LLC2 TOTAL     ACCESS: 9959739  HIT: 5425186  MISS: 4534553  HIT %: 54.4712  MISS %: 45.5288  AVERAGE MISS PENALTY: 670.612
LLC2 LOAD      ACCESS: 1686923  HIT: 940598  MISS: 746325  HIT %: 55.7582  MISS %: 44.2418  AVERAGE MISS PENALTY: 667.424
LLC2 RFO       ACCESS:     0  HIT:     0  MISS:     0  HIT %:     0  MISS %:     0  AVERAGE MISS PENALTY: 0
LLC2 PREFETCH  ACCESS: 8265796  HIT: 4477842  MISS: 3787954  HIT %: 54.1731  MISS %: 45.8269  AVERAGE MISS PENALTY: 671.288
LLC2 WRITEBACK ACCESS:  7020  HIT:  6746  MISS:   274  HIT %: 96.0969  MISS %: 3.90313  AVERAGE MISS PENALTY: 0
LLC2 PREFETCH  REQUESTED:     0  ISSUED:     0  USEFUL: 3090037  USELESS: 27215539
 USEFUL LOAD PREFETCHES:    3090037 PREFETCH ISSUED TO LOWER LEVEL:  109357295  ACCURACY: 2.82563
 TIMELY PREFETCHES:    3090037 LATE PREFETCHES: 0 DROPPED PREFETCHES: 0
LLC2 AVERAGE MISS LATENCY: 670.612 cycles
LLC3 TOTAL     ACCESS: 9841386  HIT: 5387914  MISS: 4453472  HIT %: 54.7475  MISS %: 45.2525  AVERAGE MISS PENALTY: 663.711
LLC3 LOAD      ACCESS: 1673662  HIT: 936626  MISS: 737036  HIT %: 55.9627  MISS %: 44.0373  AVERAGE MISS PENALTY: 662.256
LLC3 RFO       ACCESS:     0  HIT:     0  MISS:     0  HIT %:     0  MISS %:     0  AVERAGE MISS PENALTY: 0
LLC3 PREFETCH  ACCESS: 8160897  HIT: 4444724  MISS: 3716173  HIT %: 54.4637  MISS %: 45.5363  AVERAGE MISS PENALTY: 664.047
LLC3 WRITEBACK ACCESS:  6827  HIT:  6564  MISS:   263  HIT %: 96.1476  MISS %: 3.85235  AVERAGE MISS PENALTY: 0
LLC3 PREFETCH  REQUESTED:     0  ISSUED:     0  USEFUL: 3106847  USELESS: 26646690
 USEFUL LOAD PREFETCHES:    3106847 PREFETCH ISSUED TO LOWER LEVEL:   82945882  ACCURACY: 3.74563
 TIMELY PREFETCHES:    3106847 LATE PREFETCHES: 0 DROPPED PREFETCHES: 0
LLC3 AVERAGE MISS LATENCY: 663.711 cycles
LLC4 TOTAL     ACCESS: 9743719  HIT: 5352652  MISS: 4391067  HIT %: 54.9344  MISS %: 45.0656  AVERAGE MISS PENALTY: 592.144
LLC4 LOAD      ACCESS: 1759433  HIT: 1004678  MISS: 754755  HIT %: 57.1024  MISS %: 42.8976  AVERAGE MISS PENALTY: 581.731
LLC4 RFO       ACCESS:     0  HIT:     0  MISS:     0  HIT %:     0  MISS %:     0  AVERAGE MISS PENALTY: 0
LLC4 PREFETCH  ACCESS: 7977299  HIT: 4341282  MISS: 3636017  HIT %: 54.4204  MISS %: 45.5796  AVERAGE MISS PENALTY: 594.354
LLC4 WRITEBACK ACCESS:  6987  HIT:  6692  MISS:   295  HIT %: 95.7779  MISS %: 4.22213  AVERAGE MISS PENALTY: 0
LLC4 PREFETCH  REQUESTED:     0  ISSUED:     0  USEFUL: 3042271  USELESS: 26074060
 USEFUL LOAD PREFETCHES:    3042271 PREFETCH ISSUED TO LOWER LEVEL:  153755649  ACCURACY: 1.97864
 TIMELY PREFETCHES:    3042271 LATE PREFETCHES: 0 DROPPED PREFETCHES: 0
LLC4 AVERAGE MISS LATENCY: 592.144 cycles
LLC5 TOTAL     ACCESS: 9566948  HIT: 5264169  MISS: 4302779  HIT %: 55.0245  MISS %: 44.9755  AVERAGE MISS PENALTY: 559.136
LLC5 LOAD      ACCESS: 1740054  HIT: 991084  MISS: 748970  HIT %: 56.9571  MISS %: 43.0429  AVERAGE MISS PENALTY: 546.638
LLC5 RFO       ACCESS:     0  HIT:     0  MISS:     0  HIT %:     0  MISS %:     0  AVERAGE MISS PENALTY: 0
LLC5 PREFETCH  ACCESS: 7820022  HIT: 4266498  MISS: 3553524  HIT %: 54.5586  MISS %: 45.4414  AVERAGE MISS PENALTY: 561.815
LLC5 WRITEBACK ACCESS:  6872  HIT:  6587  MISS:   285  HIT %: 95.8527  MISS %: 4.14726  AVERAGE MISS PENALTY: 0
LLC5 PREFETCH  REQUESTED:     0  ISSUED:     0  USEFUL: 3035841  USELESS: 25423309
 USEFUL LOAD PREFETCHES:    3035841 PREFETCH ISSUED TO LOWER LEVEL:  111803916  ACCURACY: 2.71533
 TIMELY PREFETCHES:    3035841 LATE PREFETCHES: 0 DROPPED PREFETCHES: 0
LLC5 AVERAGE MISS LATENCY: 559.136 cycles
LLC6 TOTAL     ACCESS: 9393447  HIT: 5210018  MISS: 4183429  HIT %: 55.4644  MISS %: 44.5356  AVERAGE MISS PENALTY: 588.406
LLC6 LOAD      ACCESS: 1723587  HIT: 977326  MISS: 746261  HIT %: 56.703  MISS %: 43.297  AVERAGE MISS PENALTY: 574.838
LLC6 RFO       ACCESS:     0  HIT:     0  MISS:     0  HIT %:     0  MISS %:     0  AVERAGE MISS PENALTY: 0
LLC6 PREFETCH  ACCESS: 7662821  HIT: 4225920  MISS: 3436901  HIT %: 55.1484  MISS %: 44.8516  AVERAGE MISS PENALTY: 591.398
LLC6 WRITEBACK ACCESS:  7039  HIT:  6772  MISS:   267  HIT %: 96.2068  MISS %: 3.79315  AVERAGE MISS PENALTY: 0
LLC6 PREFETCH  REQUESTED:     0  ISSUED:     0  USEFUL: 2974329  USELESS: 24547034
 USEFUL LOAD PREFETCHES:    2974329 PREFETCH ISSUED TO LOWER LEVEL:  211798381  ACCURACY: 1.40432
 TIMELY PREFETCHES:    2974329 LATE PREFETCHES: 0 DROPPED PREFETCHES: 0
LLC6 AVERAGE MISS LATENCY: 588.406 cycles
LLC7 TOTAL     ACCESS: 9210776  HIT: 5178988  MISS: 4031788  HIT %: 56.2275  MISS %: 43.7725  AVERAGE MISS PENALTY: 558.809
LLC7 LOAD      ACCESS: 1724856  HIT: 993309  MISS: 731547  HIT %: 57.5879  MISS %: 42.4121  AVERAGE MISS PENALTY: 542.605
LLC7 RFO       ACCESS:     0  HIT:     0  MISS:     0  HIT %:     0  MISS %:     0  AVERAGE MISS PENALTY: 0
LLC7 PREFETCH  ACCESS: 7478983  HIT: 4179008  MISS: 3299975  HIT %: 55.8767  MISS %: 44.1233  AVERAGE MISS PENALTY: 562.446
LLC7 WRITEBACK ACCESS:  6937  HIT:  6671  MISS:   266  HIT %: 96.1655  MISS %: 3.83451  AVERAGE MISS PENALTY: 0
LLC7 PREFETCH  REQUESTED:     0  ISSUED:     0  USEFUL: 2896642  USELESS: 23520626
 USEFUL LOAD PREFETCHES:    2896642 PREFETCH ISSUED TO LOWER LEVEL:  148190676  ACCURACY: 1.95467
 TIMELY PREFETCHES:    2896642 LATE PREFETCHES: 0 DROPPED PREFETCHES: 0
LLC7 AVERAGE MISS LATENCY: 558.809 cycles
ROI Average ROB Stall Cycles:	28.7093
ROI Total ROB Stalls Cycles:	2305430201
ROI TOTAL ROB counter      :	80302428
ROI Average Load ROB Stall Cycles:	217.603
ROI Total Load ROB Stalls Cycle  :	1431728911
ROI Total Load ROB stalls Counter:	6579536
Major fault: 0 Minor fault: 29432

CPU 7 cumulative IPC: 0.0840646 instructions: 200000000 cycles: 2379123065
ITLB TOTAL     ACCESS: 31155645  HIT: 31155645  MISS:     0  HIT %:   100  MISS %:     0  AVERAGE MISS PENALTY: 0
ITLB LOAD      ACCESS: 31155645  HIT: 31155645  MISS:     0  HIT %:   100  MISS %:     0  AVERAGE MISS PENALTY: 0
ITLB RFO       ACCESS:     0  HIT:     0  MISS:     0  HIT %:     0  MISS %:     0  AVERAGE MISS PENALTY: 0
ITLB PREFETCH  ACCESS:     0  HIT:     0  MISS:     0  HIT %:     0  MISS %:     0  AVERAGE MISS PENALTY: 0
ITLB WRITEBACK ACCESS:     0  HIT:     0  MISS:     0  HIT %:     0  MISS %:     0  AVERAGE MISS PENALTY: 0
ITLB PREFETCH  REQUESTED:     0  ISSUED:     0  USEFUL:     0  USELESS:     0
 USEFUL LOAD PREFETCHES:          0 PREFETCH ISSUED TO LOWER LEVEL:          0  ACCURACY: -nan
 TIMELY PREFETCHES:          0 LATE PREFETCHES: 0 DROPPED PREFETCHES: 0
ITLB AVERAGE MISS LATENCY: -nan cycles
DTLB TOTAL     ACCESS: 45864612  HIT: 36338939  MISS: 9525673  HIT %: 79.2309  MISS %: 20.7691  AVERAGE MISS PENALTY: 9.46845
DTLB LOAD      ACCESS: 45798048  HIT: 36272375  MISS: 9525673  HIT %: 79.2007  MISS %: 20.7993  AVERAGE MISS PENALTY: 9.46845
DTLB RFO       ACCESS: 66564  HIT: 66564  MISS:     0  HIT %:   100  MISS %:     0  AVERAGE MISS PENALTY: 0
DTLB PREFETCH  ACCESS:     0  HIT:     0  MISS:     0  HIT %:     0  MISS %:     0  AVERAGE MISS PENALTY: 0
DTLB WRITEBACK ACCESS:     0  HIT:     0  MISS:     0  HIT %:     0  MISS %:     0  AVERAGE MISS PENALTY: 0
DTLB PREFETCH  REQUESTED:     0  ISSUED:     0  USEFUL:     0  USELESS:     0
 USEFUL LOAD PREFETCHES:          0 PREFETCH ISSUED TO LOWER LEVEL:          0  ACCURACY: -nan
 TIMELY PREFETCHES:          0 LATE PREFETCHES: 0 DROPPED PREFETCHES: 0
DTLB AVERAGE MISS LATENCY: 9.46845 cycles
STLB TOTAL     ACCESS: 9525673  HIT: 9511320  MISS: 14353  HIT %: 99.8493  MISS %: 0.150677  AVERAGE MISS PENALTY: 100
STLB LOAD      ACCESS: 9525673  HIT: 9511320  MISS: 14353  HIT %: 99.8493  MISS %: 0.150677  AVERAGE MISS PENALTY: 100
STLB RFO       ACCESS:     0  HIT:     0  MISS:     0  HIT %:     0  MISS %:     0  AVERAGE MISS PENALTY: 0
STLB PREFETCH  ACCESS:     0  HIT:     0  MISS:     0  HIT %:     0  MISS %:     0  AVERAGE MISS PENALTY: 0
STLB WRITEBACK ACCESS:     0  HIT:     0  MISS:     0  HIT %:     0  MISS %:     0  AVERAGE MISS PENALTY: 0
STLB PREFETCH  REQUESTED:     0  ISSUED:     0  USEFUL:     0  USELESS:     0
 USEFUL LOAD PREFETCHES:          0 PREFETCH ISSUED TO LOWER LEVEL:          0  ACCURACY: -nan
 TIMELY PREFETCHES:          0 LATE PREFETCHES: 0 DROPPED PREFETCHES: 0
STLB AVERAGE MISS LATENCY: 100 cycles
L1D TOTAL     ACCESS: 104325511  HIT: 51579184  MISS: 52746327  HIT %: 49.4406  MISS %: 50.5594  AVERAGE MISS PENALTY: 4.39436e+06
L1D LOAD      ACCESS: 43075462  HIT: 28952041  MISS: 14123421  HIT %: 67.2124  MISS %: 32.7876  AVERAGE MISS PENALTY: 1.64106e+07
L1D RFO       ACCESS: 66571  HIT: 66571  MISS:     0  HIT %:   100  MISS %:     0  AVERAGE MISS PENALTY: 0
L1D PREFETCH  ACCESS: 61183478  HIT: 22560572  MISS: 38622906  HIT %: 36.8736  MISS %: 63.1264  AVERAGE MISS PENALTY: 343.189
L1D WRITEBACK ACCESS:     0  HIT:     0  MISS:     0  HIT %:     0  MISS %:     0  AVERAGE MISS PENALTY: 0
L1D PREFETCH  REQUESTED: 80811081  ISSUED: 62502218  USEFUL: 1355707  USELESS: 37267198
 USEFUL LOAD PREFETCHES:    1355707 PREFETCH ISSUED TO LOWER LEVEL:  456606165  ACCURACY: 0.296909
 TIMELY PREFETCHES:    1355707 LATE PREFETCHES: 457216 DROPPED PREFETCHES: 18308863
L1D AVERAGE MISS LATENCY: 310.893 cycles
L1I TOTAL     ACCESS: 42381917  HIT: 42381917  MISS:     0  HIT %:   100  MISS %:     0  AVERAGE MISS PENALTY: 0
L1I LOAD      ACCESS: 42381917  HIT: 42381917  MISS:     0  HIT %:   100  MISS %:     0  AVERAGE MISS PENALTY: 0
L1I RFO       ACCESS:     0  HIT:     0  MISS:     0  HIT %:     0  MISS %:     0  AVERAGE MISS PENALTY: 0
L1I PREFETCH  ACCESS:     0  HIT:     0  MISS:     0  HIT %:     0  MISS %:     0  AVERAGE MISS PENALTY: 0
L1I WRITEBACK ACCESS:     0  HIT:     0  MISS:     0  HIT %:     0  MISS %:     0  AVERAGE MISS PENALTY: 0
L1I PREFETCH  REQUESTED:     0  ISSUED:     0  USEFUL:     0  USELESS:     0
 USEFUL LOAD PREFETCHES:          0 PREFETCH ISSUED TO LOWER LEVEL:          0  ACCURACY: -nan
 TIMELY PREFETCHES:          0 LATE PREFETCHES: 0 DROPPED PREFETCHES: 0
L1I AVERAGE MISS LATENCY: -nan cycles
L2C TOTAL     ACCESS: 83582195  HIT: 5910047  MISS: 77672148  HIT %: 7.07094  MISS %: 92.9291  AVERAGE MISS PENALTY: 3.21905e+06
L2C LOAD      ACCESS: 14119588  HIT: 247652  MISS: 13871936  HIT %: 1.75396  MISS %: 98.246  AVERAGE MISS PENALTY: 1.80227e+07
L2C RFO       ACCESS:     0  HIT:     0  MISS:     0  HIT %:     0  MISS %:     0  AVERAGE MISS PENALTY: 0
L2C PREFETCH  ACCESS: 69406931  HIT: 5645640  MISS: 63761291  HIT %: 8.13412  MISS %: 91.8659  AVERAGE MISS PENALTY: 327.713
L2C WRITEBACK ACCESS: 55676  HIT: 16755  MISS: 38921  HIT %: 30.0938  MISS %: 69.9062  AVERAGE MISS PENALTY: 0
L2C PREFETCH  REQUESTED: 91049989  ISSUED: 90628176  USEFUL: 212449  USELESS: 63548682
 USEFUL LOAD PREFETCHES:     212449 PREFETCH ISSUED TO LOWER LEVEL:   76895455  ACCURACY: 0.276283
 TIMELY PREFETCHES:     212449 LATE PREFETCHES: 813214 DROPPED PREFETCHES: 421813
L2C AVERAGE MISS LATENCY: 319.455 cycles
LLC0 TOTAL     ACCESS: 9950116  HIT: 5430723  MISS: 4519393  HIT %: 54.5795  MISS %: 45.4205  AVERAGE MISS PENALTY: 677.342
LLC0 LOAD      ACCESS: 1736877  HIT: 973601  MISS: 763276  HIT %: 56.0547  MISS %: 43.9453  AVERAGE MISS PENALTY: 668.379
LLC0 RFO       ACCESS:     0  HIT:     0  MISS:     0  HIT %:     0  MISS %:     0  AVERAGE MISS PENALTY: 0
LLC0 PREFETCH  ACCESS: 8206238  HIT: 4450393  MISS: 3755845  HIT %: 54.2318  MISS %: 45.7682  AVERAGE MISS PENALTY: 679.213
LLC0 WRITEBACK ACCESS:  7001  HIT:  6729  MISS:   272  HIT %: 96.1148  MISS %: 3.88516  AVERAGE MISS PENALTY: 0
LLC0 PREFETCH  REQUESTED:     0  ISSUED:     0  USEFUL: 3092655  USELESS: 26970401
 USEFUL LOAD PREFETCHES:    3092655 PREFETCH ISSUED TO LOWER LEVEL:   75118647  ACCURACY: 4.11703
 TIMELY PREFETCHES:    3092655 LATE PREFETCHES: 0 DROPPED PREFETCHES: 0
LLC0 AVERAGE MISS LATENCY: 677.342 cycles
Deadblocks : 5320870 Deadblock percentage : 697.11

LLC1 TOTAL     ACCESS: 10026820  HIT: 5466472  MISS: 4560348  HIT %: 54.5185  MISS %: 45.4815  AVERAGE MISS PENALTY: 669.446
LLC1 LOAD      ACCESS: 1721218  HIT: 960805  MISS: 760413  HIT %: 55.8212  MISS %: 44.1788  AVERAGE MISS PENALTY: 661.205
LLC1 RFO       ACCESS:     0  HIT:     0  MISS:     0  HIT %:     0  MISS %:     0  AVERAGE MISS PENALTY: 0
LLC1 PREFETCH  ACCESS: 8298618  HIT: 4498976  MISS: 3799642  HIT %: 54.2136  MISS %: 45.7864  AVERAGE MISS PENALTY: 671.147
LLC1 WRITEBACK ACCESS:  6984  HIT:  6691  MISS:   293  HIT %: 95.8047  MISS %: 4.1953  AVERAGE MISS PENALTY: 0
LLC1 PREFETCH  REQUESTED:     0  ISSUED:     0  USEFUL: 3142141  USELESS: 27274055
 USEFUL LOAD PREFETCHES:    3142141 PREFETCH ISSUED TO LOWER LEVEL:   61607896  ACCURACY: 5.10022
 TIMELY PREFETCHES:    3142141 LATE PREFETCHES: 0 DROPPED PREFETCHES: 0
LLC1 AVERAGE MISS LATENCY: 669.446 cycles
LLC2 TOTAL     ACCESS: 9960530  HIT: 5427547  MISS: 4532983  HIT %: 54.4905  MISS %: 45.5095  AVERAGE MISS PENALTY: 707.295
LLC2 LOAD      ACCESS: 1686939  HIT: 942121  MISS: 744818  HIT %: 55.848  MISS %: 44.152  AVERAGE MISS PENALTY: 889.454
LLC2 RFO       ACCESS:     0  HIT:     0  MISS:     0  HIT %:     0  MISS %:     0  AVERAGE MISS PENALTY: 0
LLC2 PREFETCH  ACCESS: 8266568  HIT: 4478690  MISS: 3787878  HIT %: 54.1783  MISS %: 45.8217  AVERAGE MISS PENALTY: 671.53
LLC2 WRITEBACK ACCESS:  7023  HIT:  6736  MISS:   287  HIT %: 95.9134  MISS %: 4.08657  AVERAGE MISS PENALTY: 0
LLC2 PREFETCH  REQUESTED:     0  ISSUED:     0  USEFUL: 3090037  USELESS: 27215539
 USEFUL LOAD PREFETCHES:    3090037 PREFETCH ISSUED TO LOWER LEVEL:  109357295  ACCURACY: 2.82563
 TIMELY PREFETCHES:    3090037 LATE PREFETCHES: 0 DROPPED PREFETCHES: 0
LLC2 AVERAGE MISS LATENCY: 670.983 cycles
LLC3 TOTAL     ACCESS: 9840948  HIT: 5388016  MISS: 4452932  HIT %: 54.751  MISS %: 45.249  AVERAGE MISS PENALTY: 664.487
LLC3 LOAD      ACCESS: 1673524  HIT: 936928  MISS: 736596  HIT %: 55.9853  MISS %: 44.0147  AVERAGE MISS PENALTY: 663.064
LLC3 RFO       ACCESS:     0  HIT:     0  MISS:     0  HIT %:     0  MISS %:     0  AVERAGE MISS PENALTY: 0
LLC3 PREFETCH  ACCESS: 8160597  HIT: 4444543  MISS: 3716054  HIT %: 54.4635  MISS %: 45.5365  AVERAGE MISS PENALTY: 664.82
LLC3 WRITEBACK ACCESS:  6827  HIT:  6545  MISS:   282  HIT %: 95.8693  MISS %: 4.13066  AVERAGE MISS PENALTY: 0
LLC3 PREFETCH  REQUESTED:     0  ISSUED:     0  USEFUL: 3106847  USELESS: 26646690
 USEFUL LOAD PREFETCHES:    3106847 PREFETCH ISSUED TO LOWER LEVEL:   82945882  ACCURACY: 3.74563
 TIMELY PREFETCHES:    3106847 LATE PREFETCHES: 0 DROPPED PREFETCHES: 0
LLC3 AVERAGE MISS LATENCY: 664.487 cycles
LLC4 TOTAL     ACCESS: 9742238  HIT: 5350120  MISS: 4392118  HIT %: 54.9167  MISS %: 45.0833  AVERAGE MISS PENALTY: 591.837
LLC4 LOAD      ACCESS: 1759476  HIT: 1004558  MISS: 754918  HIT %: 57.0942  MISS %: 42.9058  AVERAGE MISS PENALTY: 580.35
LLC4 RFO       ACCESS:     0  HIT:     0  MISS:     0  HIT %:     0  MISS %:     0  AVERAGE MISS PENALTY: 0
LLC4 PREFETCH  ACCESS: 7975775  HIT: 4338839  MISS: 3636936  HIT %: 54.4002  MISS %: 45.5998  AVERAGE MISS PENALTY: 594.264
LLC4 WRITEBACK ACCESS:  6987  HIT:  6723  MISS:   264  HIT %: 96.2216  MISS %: 3.77845  AVERAGE MISS PENALTY: 0
LLC4 PREFETCH  REQUESTED:     0  ISSUED:     0  USEFUL: 3042271  USELESS: 26074060
 USEFUL LOAD PREFETCHES:    3042271 PREFETCH ISSUED TO LOWER LEVEL:  153755649  ACCURACY: 1.97864
 TIMELY PREFETCHES:    3042271 LATE PREFETCHES: 0 DROPPED PREFETCHES: 0
LLC4 AVERAGE MISS LATENCY: 591.837 cycles
LLC5 TOTAL     ACCESS: 9566888  HIT: 5260333  MISS: 4306555  HIT %: 54.9848  MISS %: 45.0152  AVERAGE MISS PENALTY: 559.505
LLC5 LOAD      ACCESS: 1740133  HIT: 990923  MISS: 749210  HIT %: 56.9452  MISS %: 43.0548  AVERAGE MISS PENALTY: 547.225
LLC5 RFO       ACCESS:     0  HIT:     0  MISS:     0  HIT %:     0  MISS %:     0  AVERAGE MISS PENALTY: 0
LLC5 PREFETCH  ACCESS: 7819882  HIT: 4262809  MISS: 3557073  HIT %: 54.5124  MISS %: 45.4876  AVERAGE MISS PENALTY: 562.134
LLC5 WRITEBACK ACCESS:  6873  HIT:  6601  MISS:   272  HIT %: 96.0425  MISS %: 3.95751  AVERAGE MISS PENALTY: 0
LLC5 PREFETCH  REQUESTED:     0  ISSUED:     0  USEFUL: 3035841  USELESS: 25423309
 USEFUL LOAD PREFETCHES:    3035841 PREFETCH ISSUED TO LOWER LEVEL:  111803916  ACCURACY: 2.71533
 TIMELY PREFETCHES:    3035841 LATE PREFETCHES: 0 DROPPED PREFETCHES: 0
LLC5 AVERAGE MISS LATENCY: 559.505 cycles
LLC6 TOTAL     ACCESS: 9392577  HIT: 5208074  MISS: 4184503  HIT %: 55.4488  MISS %: 44.5512  AVERAGE MISS PENALTY: 588.69
LLC6 LOAD      ACCESS: 1723544  HIT: 976778  MISS: 746766  HIT %: 56.6726  MISS %: 43.3274  AVERAGE MISS PENALTY: 575.41
LLC6 RFO       ACCESS:     0  HIT:     0  MISS:     0  HIT %:     0  MISS %:     0  AVERAGE MISS PENALTY: 0
LLC6 PREFETCH  ACCESS: 7661990  HIT: 4224497  MISS: 3437493  HIT %: 55.1358  MISS %: 44.8642  AVERAGE MISS PENALTY: 591.617
LLC6 WRITEBACK ACCESS:  7043  HIT:  6799  MISS:   244  HIT %: 96.5356  MISS %: 3.46443  AVERAGE MISS PENALTY: 0
LLC6 PREFETCH  REQUESTED:     0  ISSUED:     0  USEFUL: 2974329  USELESS: 24547034
 USEFUL LOAD PREFETCHES:    2974329 PREFETCH ISSUED TO LOWER LEVEL:  211798381  ACCURACY: 1.40432
 TIMELY PREFETCHES:    2974329 LATE PREFETCHES: 0 DROPPED PREFETCHES: 0
LLC6 AVERAGE MISS LATENCY: 588.69 cycles
LLC7 TOTAL     ACCESS: 9208783  HIT: 5176816  MISS: 4031967  HIT %: 56.2161  MISS %: 43.7839  AVERAGE MISS PENALTY: 558.91
LLC7 LOAD      ACCESS: 1725055  HIT: 994547  MISS: 730508  HIT %: 57.6531  MISS %: 42.3469  AVERAGE MISS PENALTY: 542.983
LLC7 RFO       ACCESS:     0  HIT:     0  MISS:     0  HIT %:     0  MISS %:     0  AVERAGE MISS PENALTY: 0
LLC7 PREFETCH  ACCESS: 7476790  HIT: 4175630  MISS: 3301160  HIT %: 55.8479  MISS %: 44.1521  AVERAGE MISS PENALTY: 562.485
LLC7 WRITEBACK ACCESS:  6938  HIT:  6639  MISS:   299  HIT %: 95.6904  MISS %: 4.3096  AVERAGE MISS PENALTY: 0
LLC7 PREFETCH  REQUESTED:     0  ISSUED:     0  USEFUL: 2896642  USELESS: 23520626
 USEFUL LOAD PREFETCHES:    2896642 PREFETCH ISSUED TO LOWER LEVEL:  148190676  ACCURACY: 1.95467
 TIMELY PREFETCHES:    2896642 LATE PREFETCHES: 0 DROPPED PREFETCHES: 0
LLC7 AVERAGE MISS LATENCY: 558.91 cycles
ROI Average ROB Stall Cycles:	28.6919
ROI Total ROB Stalls Cycles:	2304473925
ROI TOTAL ROB counter      :	80317859
ROI Average Load ROB Stall Cycles:	217.583
ROI Total Load ROB Stalls Cycle  :	1431943529
ROI Total Load ROB stalls Counter:	6581143
Major fault: 0 Minor fault: 29436








Interconnect Stats 
LINK 0 BW : 0LINK 1 BW : 0LINK 2 BW : 0LINK 3 BW : 0LINK 4 BW : 0LINK 5 BW : 0LINK 6 BW : 0LINK 7 BW : 0
DRAM Statistics
 CHANNEL 0
 RQ ROW_BUFFER_HIT: 45854072  ROW_BUFFER_MISS: 95191108
 DBUS_CONGESTED: 64448401
 WQ ROW_BUFFER_HIT: 36875  ROW_BUFFER_MISS: 187281  FULL:     0

 CHANNEL 1
 RQ ROW_BUFFER_HIT: 44625197  ROW_BUFFER_MISS: 94195193
 DBUS_CONGESTED: 64448401
 WQ ROW_BUFFER_HIT: 35899  ROW_BUFFER_MISS: 184942  FULL:     0

 AVG_CONGESTED_CYCLE: 4
DRAM PAGES: 2097152
Allocated PAGES: 235568
L2C destructor called
L1D destructor called
L1I destructor called
STLB destructor called
DTLB destructor called
ITLB destructor called
L2C destructor called
L1D destructor called
L1I destructor called
STLB destructor called
DTLB destructor called
ITLB destructor called
L2C destructor called
L1D destructor called
L1I destructor called
STLB destructor called
DTLB destructor called
ITLB destructor called
L2C destructor called
L1D destructor called
L1I destructor called
STLB destructor called
DTLB destructor called
ITLB destructor called
L2C destructor called
L1D destructor called
L1I destructor called
STLB destructor called
DTLB destructor called
ITLB destructor called
L2C destructor called
L1D destructor called
L1I destructor called
STLB destructor called
DTLB destructor called
ITLB destructor called
L2C destructor called
L1D destructor called
L1I destructor called
STLB destructor called
DTLB destructor called
ITLB destructor called
L2C destructor called
L1D destructor called
L1I destructor called
STLB destructor called
DTLB destructor called
ITLB destructor called
