
*** ChampSim Multicore Out-of-Order Simulator ***

Warmup Instructions: 200000000
Simulation Instructions: 200000000
Number of CPUs: 8
threads:1

L1I Configuration:
L1I_SET:64
L1I_WAY:8
L1I_RQ_SIZE:64
L1I_WQ_SIZE:64
L1I_PQ_SIZE:8
L1I_MSHR_SIZE:8

L1D Configuration:
L1D_SET:64
L1D_WAY:12
L1D_RQ_SIZE:64
L1D_WQ_SIZE:64
L1D_PQ_SIZE:8
L1D_MSHR_SIZE:16

L2C Configuration:
L2C_SET:1024
L2C_WAY:8
L2C_RQ_SIZE:32
L2C_WQ_SIZE:32
L2C_PQ_SIZE:16
L2C_MSHR_SIZE:32

LLC Configuration:
LLC_SET:2048
LLC_WAY:16
LLC SLICES:8
LLC_RQ_SIZE:64
LLC_WQ_SIZE:64
LLC_PQ_SIZE:32
LLC_MSHR_SIZE:64

Interconnect OFF
Attacker deprioritize is: OFF
Off-chip DRAM Size: 8192 MB Channels: 2 Width: 64-bit Data Rate: 3200 MT/s
PAGE SIZE in KB: 4.000000 
PAGE SIZE in MB: 0.003906 
PAGE offset in bits: 12 
CEASER-S_LLC:0
MIRAGE : 1
CEASER_LATENCY:3
REMAP : OFF
Partitions : 1
Multi-Step : OFF
BFS : OFF

CPU 0 runs /home/anubhav/gap/cc-6.trace.gz
CPU 1 runs /home/anubhav/gap/cc-6.trace.gz
CPU 2 runs /home/anubhav/gap/cc-6.trace.gz
CPU 3 runs /home/anubhav/gap/cc-6.trace.gz
CPU 4 runs /home/anubhav/gap/cc-6.trace.gz
CPU 5 runs /home/anubhav/gap/cc-6.trace.gz
CPU 6 runs /home/anubhav/gap/cc-6.trace.gz
CPU 7 runs /home/anubhav/gap/cc-6.trace.gz
CPU 0 Bimodal branch predictor
Initialize Hawkeye state
Initialize Hawkeye state
Initialize Hawkeye state
Initialize Hawkeye state
Initialize Hawkeye state
Initialize Hawkeye state
Initialize Hawkeye state
Initialize Hawkeye state
CPU 1 Bimodal branch predictor
Initialize Hawkeye state
Initialize Hawkeye state
Initialize Hawkeye state
Initialize Hawkeye state
Initialize Hawkeye state
Initialize Hawkeye state
Initialize Hawkeye state
Initialize Hawkeye state
CPU 2 Bimodal branch predictor
Initialize Hawkeye state
Initialize Hawkeye state
Initialize Hawkeye state
Initialize Hawkeye state
Initialize Hawkeye state
Initialize Hawkeye state
Initialize Hawkeye state
Initialize Hawkeye state
CPU 3 Bimodal branch predictor
Initialize Hawkeye state
Initialize Hawkeye state
Initialize Hawkeye state
Initialize Hawkeye state
Initialize Hawkeye state
Initialize Hawkeye state
Initialize Hawkeye state
Initialize Hawkeye state
CPU 4 Bimodal branch predictor
Initialize Hawkeye state
Initialize Hawkeye state
Initialize Hawkeye state
Initialize Hawkeye state
Initialize Hawkeye state
Initialize Hawkeye state
Initialize Hawkeye state
Initialize Hawkeye state
CPU 5 Bimodal branch predictor
Initialize Hawkeye state
Initialize Hawkeye state
Initialize Hawkeye state
Initialize Hawkeye state
Initialize Hawkeye state
Initialize Hawkeye state
Initialize Hawkeye state
Initialize Hawkeye state
CPU 6 Bimodal branch predictor
Initialize Hawkeye state
Initialize Hawkeye state
Initialize Hawkeye state
Initialize Hawkeye state
Initialize Hawkeye state
Initialize Hawkeye state
Initialize Hawkeye state
Initialize Hawkeye state
CPU 7 Bimodal branch predictor
Initialize Hawkeye state
Initialize Hawkeye state
Initialize Hawkeye state
Initialize Hawkeye state
Initialize Hawkeye state
Initialize Hawkeye state
Initialize Hawkeye state
Initialize Hawkeye state
Heartbeat CPU 0 instructions: 10000002 cycles: 12180182 heartbeat IPC: 0.821006 cumulative IPC: 0.821006 (Simulation time: 0 hr 15 min 17 sec) 
 Total Blocks : 262144 Invalid Blocks : 16
Heartbeat CPU 2 instructions: 10000002 cycles: 12180382 heartbeat IPC: 0.820992 cumulative IPC: 0.820992 (Simulation time: 0 hr 15 min 17 sec) 
 Total Blocks : 262144 Invalid Blocks : 16
Heartbeat CPU 1 instructions: 10000002 cycles: 12180633 heartbeat IPC: 0.820976 cumulative IPC: 0.820976 (Simulation time: 0 hr 15 min 17 sec) 
 Total Blocks : 262144 Invalid Blocks : 16
Heartbeat CPU 3 instructions: 10000002 cycles: 12180928 heartbeat IPC: 0.820956 cumulative IPC: 0.820956 (Simulation time: 0 hr 15 min 17 sec) 
 Total Blocks : 262144 Invalid Blocks : 16
Heartbeat CPU 4 instructions: 10000002 cycles: 12181331 heartbeat IPC: 0.820929 cumulative IPC: 0.820929 (Simulation time: 0 hr 15 min 17 sec) 
 Total Blocks : 262144 Invalid Blocks : 16
Heartbeat CPU 5 instructions: 10000002 cycles: 12181711 heartbeat IPC: 0.820903 cumulative IPC: 0.820903 (Simulation time: 0 hr 15 min 17 sec) 
 Total Blocks : 262144 Invalid Blocks : 16
Heartbeat CPU 6 instructions: 10000002 cycles: 12181791 heartbeat IPC: 0.820898 cumulative IPC: 0.820898 (Simulation time: 0 hr 15 min 17 sec) 
 Total Blocks : 262144 Invalid Blocks : 16
Heartbeat CPU 7 instructions: 10000002 cycles: 12181793 heartbeat IPC: 0.820897 cumulative IPC: 0.820897 (Simulation time: 0 hr 15 min 17 sec) 
 Total Blocks : 262144 Invalid Blocks : 16
Heartbeat CPU 0 instructions: 20000002 cycles: 25392148 heartbeat IPC: 0.75689 cumulative IPC: 0.787645 (Simulation time: 0 hr 30 min 51 sec) 
 Total Blocks : 262144 Invalid Blocks : 0
Heartbeat CPU 2 instructions: 20000002 cycles: 25392328 heartbeat IPC: 0.756891 cumulative IPC: 0.78764 (Simulation time: 0 hr 30 min 51 sec) 
 Total Blocks : 262144 Invalid Blocks : 0
Heartbeat CPU 1 instructions: 20000002 cycles: 25392671 heartbeat IPC: 0.756886 cumulative IPC: 0.787629 (Simulation time: 0 hr 30 min 51 sec) 
 Total Blocks : 262144 Invalid Blocks : 0
Heartbeat CPU 3 instructions: 20000002 cycles: 25394280 heartbeat IPC: 0.75681 cumulative IPC: 0.787579 (Simulation time: 0 hr 30 min 51 sec) 
 Total Blocks : 262144 Invalid Blocks : 0
Heartbeat CPU 4 instructions: 20000002 cycles: 25395224 heartbeat IPC: 0.756779 cumulative IPC: 0.78755 (Simulation time: 0 hr 30 min 51 sec) 
 Total Blocks : 262144 Invalid Blocks : 0
Heartbeat CPU 5 instructions: 20000002 cycles: 25395364 heartbeat IPC: 0.756793 cumulative IPC: 0.787545 (Simulation time: 0 hr 30 min 51 sec) 
 Total Blocks : 262144 Invalid Blocks : 0
Heartbeat CPU 6 instructions: 20000002 cycles: 25395992 heartbeat IPC: 0.756762 cumulative IPC: 0.787526 (Simulation time: 0 hr 30 min 51 sec) 
 Total Blocks : 262144 Invalid Blocks : 0
Heartbeat CPU 7 instructions: 20000002 cycles: 25396151 heartbeat IPC: 0.756753 cumulative IPC: 0.787521 (Simulation time: 0 hr 30 min 51 sec) 
 Total Blocks : 262144 Invalid Blocks : 0
Heartbeat CPU 0 instructions: 30000000 cycles: 38169326 heartbeat IPC: 0.782645 cumulative IPC: 0.785971 (Simulation time: 0 hr 46 min 56 sec) 
 Total Blocks : 262144 Invalid Blocks : 0
Heartbeat CPU 1 instructions: 30000001 cycles: 38169758 heartbeat IPC: 0.782651 cumulative IPC: 0.785963 (Simulation time: 0 hr 46 min 56 sec) 
 Total Blocks : 262144 Invalid Blocks : 0
Heartbeat CPU 2 instructions: 30000000 cycles: 38170226 heartbeat IPC: 0.782601 cumulative IPC: 0.785953 (Simulation time: 0 hr 46 min 56 sec) 
 Total Blocks : 262144 Invalid Blocks : 0
Heartbeat CPU 3 instructions: 30000000 cycles: 38172292 heartbeat IPC: 0.782594 cumulative IPC: 0.78591 (Simulation time: 0 hr 46 min 57 sec) 
 Total Blocks : 262144 Invalid Blocks : 0
Heartbeat CPU 4 instructions: 30000000 cycles: 38173261 heartbeat IPC: 0.782593 cumulative IPC: 0.78589 (Simulation time: 0 hr 46 min 57 sec) 
 Total Blocks : 262144 Invalid Blocks : 0
Heartbeat CPU 5 instructions: 30000000 cycles: 38174237 heartbeat IPC: 0.782541 cumulative IPC: 0.78587 (Simulation time: 0 hr 46 min 57 sec) 
 Total Blocks : 262144 Invalid Blocks : 0
Heartbeat CPU 7 instructions: 30000000 cycles: 38175398 heartbeat IPC: 0.782519 cumulative IPC: 0.785846 (Simulation time: 0 hr 46 min 57 sec) 
 Total Blocks : 262144 Invalid Blocks : 0
Heartbeat CPU 6 instructions: 30000001 cycles: 38175413 heartbeat IPC: 0.782508 cumulative IPC: 0.785846 (Simulation time: 0 hr 46 min 57 sec) 
 Total Blocks : 262144 Invalid Blocks : 0
Heartbeat CPU 0 instructions: 40000000 cycles: 50265097 heartbeat IPC: 0.826735 cumulative IPC: 0.795781 (Simulation time: 1 hr 3 min 55 sec) 
 Total Blocks : 262144 Invalid Blocks : 0
Heartbeat CPU 1 instructions: 40000000 cycles: 50266384 heartbeat IPC: 0.826677 cumulative IPC: 0.79576 (Simulation time: 1 hr 3 min 55 sec) 
 Total Blocks : 262144 Invalid Blocks : 0
Heartbeat CPU 2 instructions: 40000000 cycles: 50267057 heartbeat IPC: 0.826663 cumulative IPC: 0.79575 (Simulation time: 1 hr 3 min 55 sec) 
 Total Blocks : 262144 Invalid Blocks : 0
Heartbeat CPU 3 instructions: 40000000 cycles: 50269008 heartbeat IPC: 0.826671 cumulative IPC: 0.795719 (Simulation time: 1 hr 3 min 55 sec) 
 Total Blocks : 262144 Invalid Blocks : 0
Heartbeat CPU 4 instructions: 40000000 cycles: 50270586 heartbeat IPC: 0.826629 cumulative IPC: 0.795694 (Simulation time: 1 hr 3 min 55 sec) 
 Total Blocks : 262144 Invalid Blocks : 0
Heartbeat CPU 5 instructions: 40000000 cycles: 50272066 heartbeat IPC: 0.826595 cumulative IPC: 0.795671 (Simulation time: 1 hr 3 min 55 sec) 
 Total Blocks : 262144 Invalid Blocks : 0
Heartbeat CPU 6 instructions: 40000000 cycles: 50273279 heartbeat IPC: 0.826592 cumulative IPC: 0.795651 (Simulation time: 1 hr 3 min 55 sec) 
 Total Blocks : 262144 Invalid Blocks : 0
Heartbeat CPU 7 instructions: 40000000 cycles: 50273450 heartbeat IPC: 0.826579 cumulative IPC: 0.795649 (Simulation time: 1 hr 3 min 55 sec) 
 Total Blocks : 262144 Invalid Blocks : 0
Heartbeat CPU 0 instructions: 50000000 cycles: 62302243 heartbeat IPC: 0.830762 cumulative IPC: 0.802539 (Simulation time: 1 hr 21 min 37 sec) 
 Total Blocks : 262144 Invalid Blocks : 0
Heartbeat CPU 1 instructions: 50000000 cycles: 62303578 heartbeat IPC: 0.830758 cumulative IPC: 0.802522 (Simulation time: 1 hr 21 min 37 sec) 
 Total Blocks : 262144 Invalid Blocks : 0
Heartbeat CPU 2 instructions: 50000000 cycles: 62304532 heartbeat IPC: 0.830739 cumulative IPC: 0.80251 (Simulation time: 1 hr 21 min 37 sec) 
 Total Blocks : 262144 Invalid Blocks : 0
Heartbeat CPU 3 instructions: 50000000 cycles: 62306869 heartbeat IPC: 0.830712 cumulative IPC: 0.80248 (Simulation time: 1 hr 21 min 37 sec) 
 Total Blocks : 262144 Invalid Blocks : 0
Heartbeat CPU 4 instructions: 50000000 cycles: 62308921 heartbeat IPC: 0.83068 cumulative IPC: 0.802453 (Simulation time: 1 hr 21 min 37 sec) 
 Total Blocks : 262144 Invalid Blocks : 0
Heartbeat CPU 5 instructions: 50000000 cycles: 62310632 heartbeat IPC: 0.830664 cumulative IPC: 0.802431 (Simulation time: 1 hr 21 min 37 sec) 
 Total Blocks : 262144 Invalid Blocks : 0
Heartbeat CPU 6 instructions: 50000000 cycles: 62311735 heartbeat IPC: 0.830671 cumulative IPC: 0.802417 (Simulation time: 1 hr 21 min 37 sec) 
 Total Blocks : 262144 Invalid Blocks : 0
Heartbeat CPU 7 instructions: 50000000 cycles: 62312617 heartbeat IPC: 0.830622 cumulative IPC: 0.802406 (Simulation time: 1 hr 21 min 37 sec) 
 Total Blocks : 262144 Invalid Blocks : 0
Heartbeat CPU 0 instructions: 60000000 cycles: 73917647 heartbeat IPC: 0.860926 cumulative IPC: 0.811714 (Simulation time: 1 hr 40 min 17 sec) 
 Total Blocks : 262144 Invalid Blocks : 0
Heartbeat CPU 1 instructions: 60000000 cycles: 73920060 heartbeat IPC: 0.860846 cumulative IPC: 0.811688 (Simulation time: 1 hr 40 min 17 sec) 
 Total Blocks : 262144 Invalid Blocks : 0
Heartbeat CPU 2 instructions: 60000000 cycles: 73920761 heartbeat IPC: 0.860865 cumulative IPC: 0.81168 (Simulation time: 1 hr 40 min 17 sec) 
 Total Blocks : 262144 Invalid Blocks : 0
Heartbeat CPU 3 instructions: 60000000 cycles: 73923065 heartbeat IPC: 0.860867 cumulative IPC: 0.811655 (Simulation time: 1 hr 40 min 17 sec) 
 Total Blocks : 262144 Invalid Blocks : 0
Heartbeat CPU 4 instructions: 60000000 cycles: 73925220 heartbeat IPC: 0.860859 cumulative IPC: 0.811631 (Simulation time: 1 hr 40 min 17 sec) 
 Total Blocks : 262144 Invalid Blocks : 0
Heartbeat CPU 5 instructions: 60000000 cycles: 73927822 heartbeat IPC: 0.860793 cumulative IPC: 0.811602 (Simulation time: 1 hr 40 min 18 sec) 
 Total Blocks : 262144 Invalid Blocks : 0
Heartbeat CPU 6 instructions: 60000000 cycles: 73928661 heartbeat IPC: 0.860813 cumulative IPC: 0.811593 (Simulation time: 1 hr 40 min 18 sec) 
 Total Blocks : 262144 Invalid Blocks : 0
Heartbeat CPU 7 instructions: 60000000 cycles: 73930756 heartbeat IPC: 0.860723 cumulative IPC: 0.81157 (Simulation time: 1 hr 40 min 18 sec) 
 Total Blocks : 262144 Invalid Blocks : 0
Heartbeat CPU 0 instructions: 70000002 cycles: 86121110 heartbeat IPC: 0.81944 cumulative IPC: 0.812809 (Simulation time: 1 hr 59 min 17 sec) 
 Total Blocks : 262144 Invalid Blocks : 0
Heartbeat CPU 1 instructions: 70000002 cycles: 86123836 heartbeat IPC: 0.819419 cumulative IPC: 0.812783 (Simulation time: 1 hr 59 min 17 sec) 
 Total Blocks : 262144 Invalid Blocks : 0
Heartbeat CPU 2 instructions: 70000002 cycles: 86124984 heartbeat IPC: 0.819389 cumulative IPC: 0.812772 (Simulation time: 1 hr 59 min 17 sec) 
 Total Blocks : 262144 Invalid Blocks : 0
Heartbeat CPU 3 instructions: 70000002 cycles: 86127453 heartbeat IPC: 0.819378 cumulative IPC: 0.812749 (Simulation time: 1 hr 59 min 17 sec) 
 Total Blocks : 262144 Invalid Blocks : 0
Heartbeat CPU 4 instructions: 70000002 cycles: 86130330 heartbeat IPC: 0.819329 cumulative IPC: 0.812722 (Simulation time: 1 hr 59 min 17 sec) 
 Total Blocks : 262144 Invalid Blocks : 0
Heartbeat CPU 5 instructions: 70000002 cycles: 86132755 heartbeat IPC: 0.819341 cumulative IPC: 0.812699 (Simulation time: 1 hr 59 min 17 sec) 
 Total Blocks : 262144 Invalid Blocks : 0
Heartbeat CPU 6 instructions: 70000002 cycles: 86133534 heartbeat IPC: 0.819345 cumulative IPC: 0.812692 (Simulation time: 1 hr 59 min 18 sec) 
 Total Blocks : 262144 Invalid Blocks : 0
Heartbeat CPU 7 instructions: 70000002 cycles: 86136046 heartbeat IPC: 0.819317 cumulative IPC: 0.812668 (Simulation time: 1 hr 59 min 18 sec) 
 Total Blocks : 262144 Invalid Blocks : 0
Heartbeat CPU 0 instructions: 80000002 cycles: 98452300 heartbeat IPC: 0.810952 cumulative IPC: 0.812576 (Simulation time: 2 hr 28 min 50 sec) 
 Total Blocks : 262144 Invalid Blocks : 0
Heartbeat CPU 1 instructions: 80000002 cycles: 98457861 heartbeat IPC: 0.810765 cumulative IPC: 0.81253 (Simulation time: 2 hr 28 min 50 sec) 
 Total Blocks : 262144 Invalid Blocks : 0
Heartbeat CPU 2 instructions: 80000002 cycles: 98460991 heartbeat IPC: 0.810635 cumulative IPC: 0.812505 (Simulation time: 2 hr 28 min 51 sec) 
 Total Blocks : 262144 Invalid Blocks : 0
Heartbeat CPU 3 instructions: 80000002 cycles: 98464813 heartbeat IPC: 0.810546 cumulative IPC: 0.812473 (Simulation time: 2 hr 28 min 51 sec) 
 Total Blocks : 262144 Invalid Blocks : 0
Heartbeat CPU 4 instructions: 80000002 cycles: 98468891 heartbeat IPC: 0.810467 cumulative IPC: 0.812439 (Simulation time: 2 hr 28 min 52 sec) 
 Total Blocks : 262144 Invalid Blocks : 0
Heartbeat CPU 5 instructions: 80000002 cycles: 98472877 heartbeat IPC: 0.810365 cumulative IPC: 0.812406 (Simulation time: 2 hr 28 min 53 sec) 
 Total Blocks : 262144 Invalid Blocks : 0
Heartbeat CPU 6 instructions: 80000002 cycles: 98474720 heartbeat IPC: 0.810295 cumulative IPC: 0.812391 (Simulation time: 2 hr 28 min 53 sec) 
 Total Blocks : 262144 Invalid Blocks : 0
Heartbeat CPU 7 instructions: 80000002 cycles: 98478015 heartbeat IPC: 0.810243 cumulative IPC: 0.812364 (Simulation time: 2 hr 28 min 54 sec) 
 Total Blocks : 262144 Invalid Blocks : 0
Heartbeat CPU 0 instructions: 90000002 cycles: 110288943 heartbeat IPC: 0.844834 cumulative IPC: 0.816038 (Simulation time: 3 hr 2 min 8 sec) 
 Total Blocks : 262144 Invalid Blocks : 0
Heartbeat CPU 1 instructions: 90000001 cycles: 110297902 heartbeat IPC: 0.844592 cumulative IPC: 0.815972 (Simulation time: 3 hr 2 min 9 sec) 
 Total Blocks : 262144 Invalid Blocks : 0
Heartbeat CPU 2 instructions: 90000001 cycles: 110303462 heartbeat IPC: 0.844418 cumulative IPC: 0.815931 (Simulation time: 3 hr 2 min 10 sec) 
 Total Blocks : 262144 Invalid Blocks : 0
Heartbeat CPU 3 instructions: 90000001 cycles: 110308913 heartbeat IPC: 0.844302 cumulative IPC: 0.815891 (Simulation time: 3 hr 2 min 11 sec) 
 Total Blocks : 262144 Invalid Blocks : 0
Heartbeat CPU 4 instructions: 90000001 cycles: 110314674 heartbeat IPC: 0.844182 cumulative IPC: 0.815848 (Simulation time: 3 hr 2 min 12 sec) 
 Total Blocks : 262144 Invalid Blocks : 0
Heartbeat CPU 5 instructions: 90000002 cycles: 110320787 heartbeat IPC: 0.844031 cumulative IPC: 0.815803 (Simulation time: 3 hr 2 min 13 sec) 
 Total Blocks : 262144 Invalid Blocks : 0
Heartbeat CPU 6 instructions: 90000001 cycles: 110324183 heartbeat IPC: 0.84392 cumulative IPC: 0.815778 (Simulation time: 3 hr 2 min 13 sec) 
 Total Blocks : 262144 Invalid Blocks : 0
Heartbeat CPU 7 instructions: 90000002 cycles: 110328884 heartbeat IPC: 0.84382 cumulative IPC: 0.815743 (Simulation time: 3 hr 2 min 14 sec) 
 Total Blocks : 262144 Invalid Blocks : 0
Heartbeat CPU 0 instructions: 100000001 cycles: 122050865 heartbeat IPC: 0.850201 cumulative IPC: 0.819331 (Simulation time: 3 hr 36 min 28 sec) 
 Total Blocks : 262144 Invalid Blocks : 0
Heartbeat CPU 1 instructions: 100000001 cycles: 122063756 heartbeat IPC: 0.849917 cumulative IPC: 0.819244 (Simulation time: 3 hr 36 min 30 sec) 
 Total Blocks : 262144 Invalid Blocks : 0
Heartbeat CPU 2 instructions: 100000001 cycles: 122071346 heartbeat IPC: 0.84977 cumulative IPC: 0.819193 (Simulation time: 3 hr 36 min 31 sec) 
 Total Blocks : 262144 Invalid Blocks : 0
Heartbeat CPU 3 instructions: 100000001 cycles: 122078961 heartbeat IPC: 0.849614 cumulative IPC: 0.819142 (Simulation time: 3 hr 36 min 33 sec) 
 Total Blocks : 262144 Invalid Blocks : 0
Heartbeat CPU 4 instructions: 100000001 cycles: 122086942 heartbeat IPC: 0.849454 cumulative IPC: 0.819088 (Simulation time: 3 hr 36 min 34 sec) 
 Total Blocks : 262144 Invalid Blocks : 0
Heartbeat CPU 5 instructions: 100000001 cycles: 122094452 heartbeat IPC: 0.849353 cumulative IPC: 0.819038 (Simulation time: 3 hr 36 min 35 sec) 
 Total Blocks : 262144 Invalid Blocks : 0
Heartbeat CPU 6 instructions: 100000001 cycles: 122099434 heartbeat IPC: 0.849239 cumulative IPC: 0.819005 (Simulation time: 3 hr 36 min 36 sec) 
 Total Blocks : 262144 Invalid Blocks : 0
Heartbeat CPU 7 instructions: 100000001 cycles: 122105283 heartbeat IPC: 0.849156 cumulative IPC: 0.818965 (Simulation time: 3 hr 36 min 37 sec) 
 Total Blocks : 262144 Invalid Blocks : 0
Heartbeat CPU 0 instructions: 110000000 cycles: 133749766 heartbeat IPC: 0.854781 cumulative IPC: 0.822431 (Simulation time: 4 hr 11 min 25 sec) 
 Total Blocks : 262144 Invalid Blocks : 0
Heartbeat CPU 1 instructions: 110000000 cycles: 133766618 heartbeat IPC: 0.854492 cumulative IPC: 0.822328 (Simulation time: 4 hr 11 min 27 sec) 
 Total Blocks : 262144 Invalid Blocks : 0
Heartbeat CPU 2 instructions: 110000000 cycles: 133775930 heartbeat IPC: 0.854366 cumulative IPC: 0.822271 (Simulation time: 4 hr 11 min 28 sec) 
 Total Blocks : 262144 Invalid Blocks : 0
Heartbeat CPU 3 instructions: 110000000 cycles: 133785609 heartbeat IPC: 0.854215 cumulative IPC: 0.822211 (Simulation time: 4 hr 11 min 30 sec) 
 Total Blocks : 262144 Invalid Blocks : 0
Heartbeat CPU 4 instructions: 110000000 cycles: 133795258 heartbeat IPC: 0.854094 cumulative IPC: 0.822152 (Simulation time: 4 hr 11 min 31 sec) 
 Total Blocks : 262144 Invalid Blocks : 0
Heartbeat CPU 5 instructions: 110000000 cycles: 133804680 heartbeat IPC: 0.853954 cumulative IPC: 0.822094 (Simulation time: 4 hr 11 min 32 sec) 
 Total Blocks : 262144 Invalid Blocks : 0
Heartbeat CPU 6 instructions: 110000000 cycles: 133810723 heartbeat IPC: 0.853877 cumulative IPC: 0.822057 (Simulation time: 4 hr 11 min 33 sec) 
 Total Blocks : 262144 Invalid Blocks : 0
Heartbeat CPU 7 instructions: 110000000 cycles: 133818314 heartbeat IPC: 0.85375 cumulative IPC: 0.82201 (Simulation time: 4 hr 11 min 35 sec) 
 Total Blocks : 262144 Invalid Blocks : 0
Heartbeat CPU 0 instructions: 120000000 cycles: 145903726 heartbeat IPC: 0.822777 cumulative IPC: 0.82246 (Simulation time: 4 hr 45 min 51 sec) 
 Total Blocks : 262144 Invalid Blocks : 0
Heartbeat CPU 1 instructions: 120000000 cycles: 145922844 heartbeat IPC: 0.822624 cumulative IPC: 0.822352 (Simulation time: 4 hr 45 min 54 sec) 
 Total Blocks : 262144 Invalid Blocks : 0
Heartbeat CPU 2 instructions: 120000000 cycles: 145934406 heartbeat IPC: 0.822471 cumulative IPC: 0.822287 (Simulation time: 4 hr 45 min 56 sec) 
 Total Blocks : 262144 Invalid Blocks : 0
Heartbeat CPU 3 instructions: 120000000 cycles: 145945786 heartbeat IPC: 0.822356 cumulative IPC: 0.822223 (Simulation time: 4 hr 45 min 58 sec) 
 Total Blocks : 262144 Invalid Blocks : 0
Heartbeat CPU 4 instructions: 120000000 cycles: 145957142 heartbeat IPC: 0.822241 cumulative IPC: 0.822159 (Simulation time: 4 hr 45 min 59 sec) 
 Total Blocks : 262144 Invalid Blocks : 0
Heartbeat CPU 5 instructions: 120000000 cycles: 145968511 heartbeat IPC: 0.822109 cumulative IPC: 0.822095 (Simulation time: 4 hr 46 min 1 sec) 
 Total Blocks : 262144 Invalid Blocks : 0
Heartbeat CPU 6 instructions: 120000000 cycles: 145975879 heartbeat IPC: 0.82202 cumulative IPC: 0.822054 (Simulation time: 4 hr 46 min 2 sec) 
 Total Blocks : 262144 Invalid Blocks : 0
Heartbeat CPU 7 instructions: 120000000 cycles: 145985094 heartbeat IPC: 0.82191 cumulative IPC: 0.822002 (Simulation time: 4 hr 46 min 4 sec) 
 Total Blocks : 262144 Invalid Blocks : 0
Heartbeat CPU 0 instructions: 130000000 cycles: 158352865 heartbeat IPC: 0.803268 cumulative IPC: 0.820951 (Simulation time: 5 hr 19 min 9 sec) 
 Total Blocks : 262144 Invalid Blocks : 0
Heartbeat CPU 1 instructions: 130000000 cycles: 158375049 heartbeat IPC: 0.803071 cumulative IPC: 0.820836 (Simulation time: 5 hr 19 min 13 sec) 
 Total Blocks : 262144 Invalid Blocks : 0
Heartbeat CPU 2 instructions: 130000000 cycles: 158388139 heartbeat IPC: 0.802972 cumulative IPC: 0.820769 (Simulation time: 5 hr 19 min 15 sec) 
 Total Blocks : 262144 Invalid Blocks : 0
Heartbeat CPU 3 instructions: 130000000 cycles: 158401740 heartbeat IPC: 0.802829 cumulative IPC: 0.820698 (Simulation time: 5 hr 19 min 18 sec) 
 Total Blocks : 262144 Invalid Blocks : 0
Heartbeat CPU 4 instructions: 130000000 cycles: 158414971 heartbeat IPC: 0.802708 cumulative IPC: 0.82063 (Simulation time: 5 hr 19 min 20 sec) 
 Total Blocks : 262144 Invalid Blocks : 0
Heartbeat CPU 5 instructions: 130000000 cycles: 158427783 heartbeat IPC: 0.802615 cumulative IPC: 0.820563 (Simulation time: 5 hr 19 min 22 sec) 
 Total Blocks : 262144 Invalid Blocks : 0
Heartbeat CPU 6 instructions: 130000000 cycles: 158436547 heartbeat IPC: 0.802525 cumulative IPC: 0.820518 (Simulation time: 5 hr 19 min 23 sec) 
 Total Blocks : 262144 Invalid Blocks : 0
Heartbeat CPU 7 instructions: 130000000 cycles: 158447170 heartbeat IPC: 0.802435 cumulative IPC: 0.820463 (Simulation time: 5 hr 19 min 24 sec) 
 Total Blocks : 262144 Invalid Blocks : 0
Heartbeat CPU 0 instructions: 140000001 cycles: 170780935 heartbeat IPC: 0.80463 cumulative IPC: 0.819764 (Simulation time: 5 hr 52 min 43 sec) 
 Total Blocks : 262144 Invalid Blocks : 0
Heartbeat CPU 1 instructions: 140000001 cycles: 170806518 heartbeat IPC: 0.80441 cumulative IPC: 0.819641 (Simulation time: 5 hr 52 min 48 sec) 
 Total Blocks : 262144 Invalid Blocks : 0
Heartbeat CPU 2 instructions: 140000001 cycles: 170821440 heartbeat IPC: 0.804292 cumulative IPC: 0.819569 (Simulation time: 5 hr 52 min 50 sec) 
 Total Blocks : 262144 Invalid Blocks : 0
Heartbeat CPU 3 instructions: 140000001 cycles: 170837168 heartbeat IPC: 0.804154 cumulative IPC: 0.819494 (Simulation time: 5 hr 52 min 53 sec) 
 Total Blocks : 262144 Invalid Blocks : 0
Heartbeat CPU 4 instructions: 140000001 cycles: 170851146 heartbeat IPC: 0.804106 cumulative IPC: 0.819427 (Simulation time: 5 hr 52 min 55 sec) 
 Total Blocks : 262144 Invalid Blocks : 0
Heartbeat CPU 5 instructions: 140000001 cycles: 170865963 heartbeat IPC: 0.803976 cumulative IPC: 0.819356 (Simulation time: 5 hr 52 min 57 sec) 
 Total Blocks : 262144 Invalid Blocks : 0
Heartbeat CPU 6 instructions: 140000001 cycles: 170876995 heartbeat IPC: 0.80383 cumulative IPC: 0.819303 (Simulation time: 5 hr 52 min 59 sec) 
 Total Blocks : 262144 Invalid Blocks : 0
Heartbeat CPU 7 instructions: 140000001 cycles: 170889001 heartbeat IPC: 0.80374 cumulative IPC: 0.819245 (Simulation time: 5 hr 53 min 1 sec) 
 Total Blocks : 262144 Invalid Blocks : 0
Heartbeat CPU 0 instructions: 150000001 cycles: 182450281 heartbeat IPC: 0.856946 cumulative IPC: 0.822142 (Simulation time: 6 hr 27 min 21 sec) 
 Total Blocks : 262144 Invalid Blocks : 0
Heartbeat CPU 1 instructions: 150000002 cycles: 182478633 heartbeat IPC: 0.856743 cumulative IPC: 0.822014 (Simulation time: 6 hr 27 min 26 sec) 
 Total Blocks : 262144 Invalid Blocks : 0
Heartbeat CPU 2 instructions: 150000002 cycles: 182496407 heartbeat IPC: 0.856534 cumulative IPC: 0.821934 (Simulation time: 6 hr 27 min 31 sec) 
 Total Blocks : 262144 Invalid Blocks : 0
Heartbeat CPU 3 instructions: 150000002 cycles: 182513280 heartbeat IPC: 0.85645 cumulative IPC: 0.821858 (Simulation time: 6 hr 27 min 35 sec) 
 Total Blocks : 262144 Invalid Blocks : 0
Heartbeat CPU 4 instructions: 150000002 cycles: 182529188 heartbeat IPC: 0.856308 cumulative IPC: 0.821786 (Simulation time: 6 hr 27 min 38 sec) 
 Total Blocks : 262144 Invalid Blocks : 0
Heartbeat CPU 5 instructions: 150000001 cycles: 182546361 heartbeat IPC: 0.856135 cumulative IPC: 0.821709 (Simulation time: 6 hr 27 min 43 sec) 
 Total Blocks : 262144 Invalid Blocks : 0
Heartbeat CPU 6 instructions: 150000002 cycles: 182558753 heartbeat IPC: 0.856036 cumulative IPC: 0.821653 (Simulation time: 6 hr 27 min 46 sec) 
 Total Blocks : 262144 Invalid Blocks : 0
Heartbeat CPU 7 instructions: 150000002 cycles: 182572491 heartbeat IPC: 0.855909 cumulative IPC: 0.821591 (Simulation time: 6 hr 27 min 49 sec) 
 Total Blocks : 262144 Invalid Blocks : 0
Heartbeat CPU 0 instructions: 160000000 cycles: 194706264 heartbeat IPC: 0.815928 cumulative IPC: 0.821751 (Simulation time: 7 hr 2 min 44 sec) 
 Total Blocks : 262144 Invalid Blocks : 0
Heartbeat CPU 1 instructions: 160000000 cycles: 194738070 heartbeat IPC: 0.815698 cumulative IPC: 0.821616 (Simulation time: 7 hr 2 min 49 sec) 
 Total Blocks : 262144 Invalid Blocks : 0
Heartbeat CPU 2 instructions: 160000000 cycles: 194757616 heartbeat IPC: 0.81558 cumulative IPC: 0.821534 (Simulation time: 7 hr 2 min 53 sec) 
 Total Blocks : 262144 Invalid Blocks : 0
Heartbeat CPU 3 instructions: 160000000 cycles: 194776421 heartbeat IPC: 0.815452 cumulative IPC: 0.821455 (Simulation time: 7 hr 2 min 56 sec) 
 Total Blocks : 262144 Invalid Blocks : 0
Heartbeat CPU 4 instructions: 160000000 cycles: 194793820 heartbeat IPC: 0.815352 cumulative IPC: 0.821381 (Simulation time: 7 hr 3 min 0 sec) 
 Total Blocks : 262144 Invalid Blocks : 0
Heartbeat CPU 5 instructions: 160000000 cycles: 194812931 heartbeat IPC: 0.815224 cumulative IPC: 0.821301 (Simulation time: 7 hr 3 min 3 sec) 
 Total Blocks : 262144 Invalid Blocks : 0
Heartbeat CPU 6 instructions: 160000000 cycles: 194827144 heartbeat IPC: 0.815103 cumulative IPC: 0.821241 (Simulation time: 7 hr 3 min 6 sec) 
 Total Blocks : 262144 Invalid Blocks : 0
Heartbeat CPU 7 instructions: 160000000 cycles: 194842520 heartbeat IPC: 0.814994 cumulative IPC: 0.821176 (Simulation time: 7 hr 3 min 9 sec) 
 Total Blocks : 262144 Invalid Blocks : 0
Heartbeat CPU 0 instructions: 170000001 cycles: 206122686 heartbeat IPC: 0.875931 cumulative IPC: 0.824752 (Simulation time: 7 hr 37 min 51 sec) 
 Total Blocks : 262144 Invalid Blocks : 0
Heartbeat CPU 1 instructions: 170000000 cycles: 206157451 heartbeat IPC: 0.875704 cumulative IPC: 0.824612 (Simulation time: 7 hr 37 min 58 sec) 
 Total Blocks : 262144 Invalid Blocks : 0
Heartbeat CPU 2 instructions: 170000001 cycles: 206179606 heartbeat IPC: 0.875504 cumulative IPC: 0.824524 (Simulation time: 7 hr 38 min 2 sec) 
 Total Blocks : 262144 Invalid Blocks : 0
Heartbeat CPU 3 instructions: 170000002 cycles: 206200413 heartbeat IPC: 0.875351 cumulative IPC: 0.824441 (Simulation time: 7 hr 38 min 7 sec) 
 Total Blocks : 262144 Invalid Blocks : 0
Heartbeat CPU 4 instructions: 170000001 cycles: 206219314 heartbeat IPC: 0.875236 cumulative IPC: 0.824365 (Simulation time: 7 hr 38 min 11 sec) 
 Total Blocks : 262144 Invalid Blocks : 0
Heartbeat CPU 5 instructions: 170000001 cycles: 206240384 heartbeat IPC: 0.875086 cumulative IPC: 0.824281 (Simulation time: 7 hr 38 min 16 sec) 
 Total Blocks : 262144 Invalid Blocks : 0
Heartbeat CPU 6 instructions: 170000001 cycles: 206256216 heartbeat IPC: 0.874962 cumulative IPC: 0.824218 (Simulation time: 7 hr 38 min 19 sec) 
 Total Blocks : 262144 Invalid Blocks : 0
Heartbeat CPU 7 instructions: 170000001 cycles: 206272704 heartbeat IPC: 0.874877 cumulative IPC: 0.824152 (Simulation time: 7 hr 38 min 22 sec) 
 Total Blocks : 262144 Invalid Blocks : 0
Heartbeat CPU 0 instructions: 180000003 cycles: 218243338 heartbeat IPC: 0.825038 cumulative IPC: 0.824767 (Simulation time: 8 hr 14 min 12 sec) 
 Total Blocks : 262144 Invalid Blocks : 0
Heartbeat CPU 1 instructions: 180000003 cycles: 218281245 heartbeat IPC: 0.824825 cumulative IPC: 0.824624 (Simulation time: 8 hr 14 min 17 sec) 
 Total Blocks : 262144 Invalid Blocks : 0
Heartbeat CPU 2 instructions: 180000003 cycles: 218305294 heartbeat IPC: 0.824696 cumulative IPC: 0.824533 (Simulation time: 8 hr 14 min 21 sec) 
 Total Blocks : 262144 Invalid Blocks : 0
Heartbeat CPU 3 instructions: 180000003 cycles: 218328241 heartbeat IPC: 0.82455 cumulative IPC: 0.824447 (Simulation time: 8 hr 14 min 24 sec) 
 Total Blocks : 262144 Invalid Blocks : 0
Heartbeat CPU 4 instructions: 180000003 cycles: 218348503 heartbeat IPC: 0.824458 cumulative IPC: 0.82437 (Simulation time: 8 hr 14 min 27 sec) 
 Total Blocks : 262144 Invalid Blocks : 0
Heartbeat CPU 5 instructions: 180000003 cycles: 218371583 heartbeat IPC: 0.824321 cumulative IPC: 0.824283 (Simulation time: 8 hr 14 min 31 sec) 
 Total Blocks : 262144 Invalid Blocks : 0
Heartbeat CPU 6 instructions: 180000003 cycles: 218388818 heartbeat IPC: 0.824226 cumulative IPC: 0.824218 (Simulation time: 8 hr 14 min 33 sec) 
 Total Blocks : 262144 Invalid Blocks : 0
Heartbeat CPU 7 instructions: 180000003 cycles: 218406505 heartbeat IPC: 0.824144 cumulative IPC: 0.824151 (Simulation time: 8 hr 14 min 36 sec) 
 Total Blocks : 262144 Invalid Blocks : 0
Heartbeat CPU 0 instructions: 190000002 cycles: 230527669 heartbeat IPC: 0.814045 cumulative IPC: 0.824196 (Simulation time: 8 hr 50 min 57 sec) 
 Total Blocks : 262144 Invalid Blocks : 0
Heartbeat CPU 1 instructions: 190000002 cycles: 230569140 heartbeat IPC: 0.813809 cumulative IPC: 0.824048 (Simulation time: 8 hr 51 min 5 sec) 
 Total Blocks : 262144 Invalid Blocks : 0
Heartbeat CPU 2 instructions: 190000002 cycles: 230595035 heartbeat IPC: 0.813687 cumulative IPC: 0.823955 (Simulation time: 8 hr 51 min 8 sec) 
 Total Blocks : 262144 Invalid Blocks : 0
Heartbeat CPU 3 instructions: 190000002 cycles: 230619556 heartbeat IPC: 0.813583 cumulative IPC: 0.823868 (Simulation time: 8 hr 51 min 13 sec) 
 Total Blocks : 262144 Invalid Blocks : 0
Heartbeat CPU 4 instructions: 190000002 cycles: 230641484 heartbeat IPC: 0.813472 cumulative IPC: 0.823789 (Simulation time: 8 hr 51 min 17 sec) 
 Total Blocks : 262144 Invalid Blocks : 0
Heartbeat CPU 5 instructions: 190000002 cycles: 230666541 heartbeat IPC: 0.813341 cumulative IPC: 0.8237 (Simulation time: 8 hr 51 min 21 sec) 
 Total Blocks : 262144 Invalid Blocks : 0
Heartbeat CPU 6 instructions: 190000002 cycles: 230685439 heartbeat IPC: 0.813231 cumulative IPC: 0.823632 (Simulation time: 8 hr 51 min 23 sec) 
 Total Blocks : 262144 Invalid Blocks : 0
Heartbeat CPU 7 instructions: 190000002 cycles: 230705109 heartbeat IPC: 0.8131 cumulative IPC: 0.823562 (Simulation time: 8 hr 51 min 27 sec) 
 Total Blocks : 262144 Invalid Blocks : 0
Heartbeat CPU 0 instructions: 200000000 cycles: 242396983 heartbeat IPC: 0.842508 cumulative IPC: 0.825093 (Simulation time: 9 hr 27 min 52 sec) 
 Total Blocks : 262144 Invalid Blocks : 0
Heartbeat CPU 1 instructions: 200000000 cycles: 242441759 heartbeat IPC: 0.842274 cumulative IPC: 0.82494 (Simulation time: 9 hr 28 min 1 sec) 
 Total Blocks : 262144 Invalid Blocks : 0
Heartbeat CPU 2 instructions: 200000000 cycles: 242469498 heartbeat IPC: 0.842143 cumulative IPC: 0.824846 (Simulation time: 9 hr 28 min 6 sec) 
 Total Blocks : 262144 Invalid Blocks : 0
Heartbeat CPU 3 instructions: 200000001 cycles: 242495645 heartbeat IPC: 0.842028 cumulative IPC: 0.824757 (Simulation time: 9 hr 28 min 11 sec) 
 Total Blocks : 262144 Invalid Blocks : 0
Heartbeat CPU 4 instructions: 200000000 cycles: 242519228 heartbeat IPC: 0.841911 cumulative IPC: 0.824677 (Simulation time: 9 hr 28 min 16 sec) 
 Total Blocks : 262144 Invalid Blocks : 0
Heartbeat CPU 5 instructions: 200000001 cycles: 242545843 heartbeat IPC: 0.8418 cumulative IPC: 0.824586 (Simulation time: 9 hr 28 min 20 sec) 
 Total Blocks : 262144 Invalid Blocks : 0
Heartbeat CPU 6 instructions: 200000000 cycles: 242566188 heartbeat IPC: 0.841698 cumulative IPC: 0.824517 (Simulation time: 9 hr 28 min 24 sec) 
 Total Blocks : 262144 Invalid Blocks : 0
Heartbeat CPU 7 instructions: 200000000 cycles: 242587499 heartbeat IPC: 0.841581 cumulative IPC: 0.824445 (Simulation time: 9 hr 28 min 27 sec) 
 Total Blocks : 262144 Invalid Blocks : 0

Warmup complete CPU 0 instructions: 200154910 cycles: 242587500 (Simulation time: 9 hr 28 min 27 sec) 
Warmup complete CPU 1 instructions: 200121316 cycles: 242587500 (Simulation time: 9 hr 28 min 27 sec) 
Warmup complete CPU 2 instructions: 200093251 cycles: 242587500 (Simulation time: 9 hr 28 min 27 sec) 
Warmup complete CPU 3 instructions: 200069083 cycles: 242587500 (Simulation time: 9 hr 28 min 27 sec) 
Warmup complete CPU 4 instructions: 200055224 cycles: 242587500 (Simulation time: 9 hr 28 min 27 sec) 
Warmup complete CPU 5 instructions: 200032102 cycles: 242587500 (Simulation time: 9 hr 28 min 27 sec) 
Warmup complete CPU 6 instructions: 200016251 cycles: 242587500 (Simulation time: 9 hr 28 min 27 sec) 
Warmup complete CPU 7 instructions: 200000004 cycles: 242587500 (Simulation time: 9 hr 28 min 27 sec) 

Heartbeat CPU 0 instructions: 210000001 cycles: 389838780 heartbeat IPC: 0.0678234 cumulative IPC: 0.0668591 (Simulation time: 10 hr 55 min 43 sec) 
 Total Blocks : 262144 Invalid Blocks : 0
Heartbeat CPU 1 instructions: 210000001 cycles: 390819159 heartbeat IPC: 0.0673957 cumulative IPC: 0.0666436 (Simulation time: 10 hr 56 min 18 sec) 
 Total Blocks : 262144 Invalid Blocks : 0
Heartbeat CPU 2 instructions: 210000001 cycles: 391057042 heartbeat IPC: 0.0673004 cumulative IPC: 0.0667258 (Simulation time: 10 hr 56 min 29 sec) 
 Total Blocks : 262144 Invalid Blocks : 0
Heartbeat CPU 3 instructions: 210000001 cycles: 391093724 heartbeat IPC: 0.0672956 cumulative IPC: 0.0668721 (Simulation time: 10 hr 56 min 31 sec) 
 Total Blocks : 262144 Invalid Blocks : 0
Heartbeat CPU 4 instructions: 210000001 cycles: 391529527 heartbeat IPC: 0.0671095 cumulative IPC: 0.0667695 (Simulation time: 10 hr 56 min 48 sec) 
 Total Blocks : 262144 Invalid Blocks : 0
Heartbeat CPU 5 instructions: 210000001 cycles: 392040538 heartbeat IPC: 0.066892 cumulative IPC: 0.0666959 (Simulation time: 10 hr 57 min 7 sec) 
 Total Blocks : 262144 Invalid Blocks : 0
Heartbeat CPU 6 instructions: 210000001 cycles: 392212375 heartbeat IPC: 0.0668243 cumulative IPC: 0.0667252 (Simulation time: 10 hr 57 min 14 sec) 
 Total Blocks : 262144 Invalid Blocks : 0
Heartbeat CPU 7 instructions: 210000001 cycles: 392508908 heartbeat IPC: 0.0667016 cumulative IPC: 0.0667016 (Simulation time: 10 hr 57 min 26 sec) 
 Total Blocks : 262144 Invalid Blocks : 0
Heartbeat CPU 0 instructions: 220000000 cycles: 539780995 heartbeat IPC: 0.0666924 cumulative IPC: 0.066775 (Simulation time: 12 hr 25 min 20 sec) 
 Total Blocks : 262144 Invalid Blocks : 0
Heartbeat CPU 1 instructions: 220000000 cycles: 540526464 heartbeat IPC: 0.066797 cumulative IPC: 0.0667207 (Simulation time: 12 hr 25 min 44 sec) 
 Total Blocks : 262144 Invalid Blocks : 0
Heartbeat CPU 2 instructions: 220000000 cycles: 541129982 heartbeat IPC: 0.0666343 cumulative IPC: 0.0666798 (Simulation time: 12 hr 26 min 5 sec) 
 Total Blocks : 262144 Invalid Blocks : 0
Heartbeat CPU 3 instructions: 220000000 cycles: 541390132 heartbeat IPC: 0.0665352 cumulative IPC: 0.0667026 (Simulation time: 12 hr 26 min 14 sec) 
 Total Blocks : 262144 Invalid Blocks : 0
Heartbeat CPU 5 instructions: 220000000 cycles: 541675010 heartbeat IPC: 0.0668295 cumulative IPC: 0.0667627 (Simulation time: 12 hr 26 min 24 sec) 
 Total Blocks : 262144 Invalid Blocks : 0
Heartbeat CPU 4 instructions: 220000000 cycles: 541729372 heartbeat IPC: 0.066578 cumulative IPC: 0.0666733 (Simulation time: 12 hr 26 min 26 sec) 
 Total Blocks : 262144 Invalid Blocks : 0
Heartbeat CPU 7 instructions: 220000000 cycles: 542136975 heartbeat IPC: 0.0668324 cumulative IPC: 0.0667669 (Simulation time: 12 hr 26 min 40 sec) 
 Total Blocks : 262144 Invalid Blocks : 0
Heartbeat CPU 6 instructions: 220000000 cycles: 542320690 heartbeat IPC: 0.0666186 cumulative IPC: 0.0666718 (Simulation time: 12 hr 26 min 48 sec) 
 Total Blocks : 262144 Invalid Blocks : 0
Heartbeat CPU 0 instructions: 230000000 cycles: 690979448 heartbeat IPC: 0.0661382 cumulative IPC: 0.0665603 (Simulation time: 13 hr 55 min 11 sec) 
 Total Blocks : 262144 Invalid Blocks : 0
Heartbeat CPU 1 instructions: 230000000 cycles: 692039830 heartbeat IPC: 0.0660008 cumulative IPC: 0.066478 (Simulation time: 13 hr 55 min 44 sec) 
 Total Blocks : 262144 Invalid Blocks : 0
Heartbeat CPU 3 instructions: 230000000 cycles: 692658747 heartbeat IPC: 0.0661076 cumulative IPC: 0.0665026 (Simulation time: 13 hr 56 min 7 sec) 
 Total Blocks : 262144 Invalid Blocks : 0
Heartbeat CPU 2 instructions: 230000000 cycles: 692809839 heartbeat IPC: 0.0659283 cumulative IPC: 0.0664266 (Simulation time: 13 hr 56 min 13 sec) 
 Total Blocks : 262144 Invalid Blocks : 0
Heartbeat CPU 5 instructions: 230000000 cycles: 693233165 heartbeat IPC: 0.0659813 cumulative IPC: 0.0664999 (Simulation time: 13 hr 56 min 28 sec) 
 Total Blocks : 262144 Invalid Blocks : 0
Heartbeat CPU 4 instructions: 230000000 cycles: 693268781 heartbeat IPC: 0.0659894 cumulative IPC: 0.0664434 (Simulation time: 13 hr 56 min 30 sec) 
 Total Blocks : 262144 Invalid Blocks : 0
Heartbeat CPU 6 instructions: 230000000 cycles: 693296197 heartbeat IPC: 0.0662359 cumulative IPC: 0.0665258 (Simulation time: 13 hr 56 min 31 sec) 
 Total Blocks : 262144 Invalid Blocks : 0
Heartbeat CPU 7 instructions: 230000000 cycles: 693528697 heartbeat IPC: 0.0660538 cumulative IPC: 0.0665275 (Simulation time: 13 hr 56 min 40 sec) 
 Total Blocks : 262144 Invalid Blocks : 0
Heartbeat CPU 0 instructions: 240000000 cycles: 836497752 heartbeat IPC: 0.0687199 cumulative IPC: 0.0670894 (Simulation time: 15 hr 22 min 16 sec) 
 Total Blocks : 262144 Invalid Blocks : 0
Heartbeat CPU 1 instructions: 240000000 cycles: 838009407 heartbeat IPC: 0.0685074 cumulative IPC: 0.0669755 (Simulation time: 15 hr 23 min 13 sec) 
 Total Blocks : 262144 Invalid Blocks : 0
Heartbeat CPU 2 instructions: 240000000 cycles: 838645809 heartbeat IPC: 0.0685702 cumulative IPC: 0.0669511 (Simulation time: 15 hr 23 min 39 sec) 
 Total Blocks : 262144 Invalid Blocks : 0
Heartbeat CPU 3 instructions: 240000000 cycles: 838926577 heartbeat IPC: 0.0683677 cumulative IPC: 0.0669601 (Simulation time: 15 hr 23 min 49 sec) 
 Total Blocks : 262144 Invalid Blocks : 0
Heartbeat CPU 5 instructions: 240000000 cycles: 839029916 heartbeat IPC: 0.0685886 cumulative IPC: 0.0670105 (Simulation time: 15 hr 23 min 52 sec) 
 Total Blocks : 262144 Invalid Blocks : 0
Heartbeat CPU 4 instructions: 240000000 cycles: 839119944 heartbeat IPC: 0.068563 cumulative IPC: 0.0669616 (Simulation time: 15 hr 23 min 54 sec) 
 Total Blocks : 262144 Invalid Blocks : 0
Heartbeat CPU 6 instructions: 240000000 cycles: 839392288 heartbeat IPC: 0.0684481 cumulative IPC: 0.0669964 (Simulation time: 15 hr 24 min 1 sec) 
 Total Blocks : 262144 Invalid Blocks : 0
Heartbeat CPU 7 instructions: 240000000 cycles: 839641352 heartbeat IPC: 0.0684403 cumulative IPC: 0.0669956 (Simulation time: 15 hr 24 min 7 sec) 
 Total Blocks : 262144 Invalid Blocks : 0
Heartbeat CPU 0 instructions: 250000003 cycles: 983802138 heartbeat IPC: 0.0678867 cumulative IPC: 0.0672479 (Simulation time: 16 hr 48 min 44 sec) 
 Total Blocks : 262144 Invalid Blocks : 0
Heartbeat CPU 1 instructions: 250000003 cycles: 985632572 heartbeat IPC: 0.0677401 cumulative IPC: 0.0671274 (Simulation time: 16 hr 50 min 1 sec) 
 Total Blocks : 262144 Invalid Blocks : 0
Heartbeat CPU 2 instructions: 250000003 cycles: 986036551 heartbeat IPC: 0.0678469 cumulative IPC: 0.0671287 (Simulation time: 16 hr 50 min 16 sec) 
 Total Blocks : 262144 Invalid Blocks : 0
Heartbeat CPU 4 instructions: 250000003 cycles: 986256110 heartbeat IPC: 0.0679643 cumulative IPC: 0.06716 (Simulation time: 16 hr 50 min 25 sec) 
 Total Blocks : 262144 Invalid Blocks : 0
Heartbeat CPU 3 instructions: 250000003 cycles: 986344134 heartbeat IPC: 0.0678345 cumulative IPC: 0.0671334 (Simulation time: 16 hr 50 min 28 sec) 
 Total Blocks : 262144 Invalid Blocks : 0
Heartbeat CPU 6 instructions: 250000003 cycles: 986415368 heartbeat IPC: 0.0680166 cumulative IPC: 0.067198 (Simulation time: 16 hr 50 min 32 sec) 
 Total Blocks : 262144 Invalid Blocks : 0
Heartbeat CPU 5 instructions: 250000003 cycles: 986594983 heartbeat IPC: 0.0677667 cumulative IPC: 0.0671605 (Simulation time: 16 hr 50 min 38 sec) 
 Total Blocks : 262144 Invalid Blocks : 0
Heartbeat CPU 7 instructions: 250000003 cycles: 987480651 heartbeat IPC: 0.067641 cumulative IPC: 0.0671237 (Simulation time: 16 hr 51 min 3 sec) 
 Total Blocks : 262144 Invalid Blocks : 0
Heartbeat CPU 0 instructions: 260000000 cycles: 1138212149 heartbeat IPC: 0.0647626 cumulative IPC: 0.0668194 (Simulation time: 18 hr 19 min 24 sec) 
 Total Blocks : 262144 Invalid Blocks : 0
Heartbeat CPU 1 instructions: 260000000 cycles: 1140161113 heartbeat IPC: 0.0647129 cumulative IPC: 0.0667117 (Simulation time: 18 hr 20 min 31 sec) 
 Total Blocks : 262144 Invalid Blocks : 0
Heartbeat CPU 2 instructions: 260000000 cycles: 1140323596 heartbeat IPC: 0.0648142 cumulative IPC: 0.0667309 (Simulation time: 18 hr 20 min 37 sec) 
 Total Blocks : 262144 Invalid Blocks : 0
Heartbeat CPU 4 instructions: 260000000 cycles: 1140567779 heartbeat IPC: 0.0648039 cumulative IPC: 0.0667551 (Simulation time: 18 hr 20 min 42 sec) 
 Total Blocks : 262144 Invalid Blocks : 0
Heartbeat CPU 3 instructions: 260000000 cycles: 1140581201 heartbeat IPC: 0.0648352 cumulative IPC: 0.0667387 (Simulation time: 18 hr 20 min 42 sec) 
 Total Blocks : 262144 Invalid Blocks : 0
Heartbeat CPU 6 instructions: 260000000 cycles: 1140661551 heartbeat IPC: 0.0648314 cumulative IPC: 0.0667915 (Simulation time: 18 hr 20 min 44 sec) 
 Total Blocks : 262144 Invalid Blocks : 0
Heartbeat CPU 5 instructions: 260000000 cycles: 1140716037 heartbeat IPC: 0.064884 cumulative IPC: 0.0667698 (Simulation time: 18 hr 20 min 45 sec) 
 Total Blocks : 262144 Invalid Blocks : 0
Heartbeat CPU 7 instructions: 260000000 cycles: 1141732368 heartbeat IPC: 0.0648291 cumulative IPC: 0.0667301 (Simulation time: 18 hr 21 min 9 sec) 
 Total Blocks : 262144 Invalid Blocks : 0
Heartbeat CPU 0 instructions: 270000001 cycles: 1289642030 heartbeat IPC: 0.0660372 cumulative IPC: 0.0667063 (Simulation time: 19 hr 50 min 30 sec) 
 Total Blocks : 262144 Invalid Blocks : 0
Heartbeat CPU 3 instructions: 270000001 cycles: 1290957445 heartbeat IPC: 0.0664999 cumulative IPC: 0.0667044 (Simulation time: 19 hr 51 min 18 sec) 
 Total Blocks : 262144 Invalid Blocks : 0
Heartbeat CPU 1 instructions: 270000000 cycles: 1291077409 heartbeat IPC: 0.0662619 cumulative IPC: 0.066647 (Simulation time: 19 hr 51 min 22 sec) 
 Total Blocks : 262144 Invalid Blocks : 0
Heartbeat CPU 2 instructions: 270000001 cycles: 1291195890 heartbeat IPC: 0.0662812 cumulative IPC: 0.0666662 (Simulation time: 19 hr 51 min 27 sec) 
 Total Blocks : 262144 Invalid Blocks : 0
Heartbeat CPU 6 instructions: 270000001 cycles: 1291754973 heartbeat IPC: 0.0661842 cumulative IPC: 0.0667041 (Simulation time: 19 hr 51 min 49 sec) 
 Total Blocks : 262144 Invalid Blocks : 0
Heartbeat CPU 4 instructions: 270000001 cycles: 1291864644 heartbeat IPC: 0.0660952 cumulative IPC: 0.06666 (Simulation time: 19 hr 51 min 53 sec) 
 Total Blocks : 262144 Invalid Blocks : 0
Heartbeat CPU 5 instructions: 270000000 cycles: 1292023260 heartbeat IPC: 0.0660907 cumulative IPC: 0.0666719 (Simulation time: 19 hr 51 min 59 sec) 
 Total Blocks : 262144 Invalid Blocks : 0
Heartbeat CPU 7 instructions: 270000001 cycles: 1292652957 heartbeat IPC: 0.06626 cumulative IPC: 0.0666625 (Simulation time: 19 hr 52 min 24 sec) 
 Total Blocks : 262144 Invalid Blocks : 0
Heartbeat CPU 0 instructions: 280000000 cycles: 1438790311 heartbeat IPC: 0.0670474 cumulative IPC: 0.0667488 (Simulation time: 21 hr 21 min 3 sec) 
 Total Blocks : 262144 Invalid Blocks : 0
Heartbeat CPU 1 instructions: 280000000 cycles: 1439711937 heartbeat IPC: 0.0672791 cumulative IPC: 0.0667255 (Simulation time: 21 hr 21 min 37 sec) 
 Total Blocks : 262144 Invalid Blocks : 0
Heartbeat CPU 3 instructions: 280000000 cycles: 1439722120 heartbeat IPC: 0.0672203 cumulative IPC: 0.0667685 (Simulation time: 21 hr 21 min 38 sec) 
 Total Blocks : 262144 Invalid Blocks : 0
Heartbeat CPU 2 instructions: 280000000 cycles: 1440080281 heartbeat IPC: 0.0671662 cumulative IPC: 0.0667284 (Simulation time: 21 hr 21 min 50 sec) 
 Total Blocks : 262144 Invalid Blocks : 0
Heartbeat CPU 6 instructions: 280000000 cycles: 1440802835 heartbeat IPC: 0.0670925 cumulative IPC: 0.0667524 (Simulation time: 21 hr 22 min 18 sec) 
 Total Blocks : 262144 Invalid Blocks : 0
Heartbeat CPU 5 instructions: 280000000 cycles: 1440879906 heartbeat IPC: 0.0671787 cumulative IPC: 0.0667349 (Simulation time: 21 hr 22 min 21 sec) 
 Total Blocks : 262144 Invalid Blocks : 0
Heartbeat CPU 4 instructions: 280000000 cycles: 1440951572 heartbeat IPC: 0.067075 cumulative IPC: 0.0667116 (Simulation time: 21 hr 22 min 23 sec) 
 Total Blocks : 262144 Invalid Blocks : 0
Heartbeat CPU 7 instructions: 280000000 cycles: 1441885352 heartbeat IPC: 0.0670096 cumulative IPC: 0.0667057 (Simulation time: 21 hr 22 min 59 sec) 
 Total Blocks : 262144 Invalid Blocks : 0
Heartbeat CPU 0 instructions: 290000002 cycles: 1586129057 heartbeat IPC: 0.0678708 cumulative IPC: 0.0668718 (Simulation time: 22 hr 50 min 24 sec) 
 Total Blocks : 262144 Invalid Blocks : 0
Heartbeat CPU 3 instructions: 290000001 cycles: 1587672047 heartbeat IPC: 0.0675904 cumulative IPC: 0.0668589 (Simulation time: 22 hr 51 min 27 sec) 
 Total Blocks : 262144 Invalid Blocks : 0
Heartbeat CPU 1 instructions: 290000002 cycles: 1587862557 heartbeat IPC: 0.0674989 cumulative IPC: 0.0668106 (Simulation time: 22 hr 51 min 34 sec) 
 Total Blocks : 262144 Invalid Blocks : 0
Heartbeat CPU 2 instructions: 290000002 cycles: 1588056366 heartbeat IPC: 0.0675785 cumulative IPC: 0.0668219 (Simulation time: 22 hr 51 min 42 sec) 
 Total Blocks : 262144 Invalid Blocks : 0
Heartbeat CPU 6 instructions: 290000001 cycles: 1588264039 heartbeat IPC: 0.0678145 cumulative IPC: 0.0668688 (Simulation time: 22 hr 51 min 50 sec) 
 Total Blocks : 262144 Invalid Blocks : 0
Heartbeat CPU 4 instructions: 290000001 cycles: 1588782917 heartbeat IPC: 0.0676447 cumulative IPC: 0.0668141 (Simulation time: 22 hr 52 min 12 sec) 
 Total Blocks : 262144 Invalid Blocks : 0
Heartbeat CPU 5 instructions: 290000001 cycles: 1588795044 heartbeat IPC: 0.0676063 cumulative IPC: 0.0668306 (Simulation time: 22 hr 52 min 12 sec) 
 Total Blocks : 262144 Invalid Blocks : 0
Heartbeat CPU 7 instructions: 290000001 cycles: 1589116196 heartbeat IPC: 0.0679206 cumulative IPC: 0.0668385 (Simulation time: 22 hr 52 min 26 sec) 
 Total Blocks : 262144 Invalid Blocks : 0
Heartbeat CPU 0 instructions: 300000001 cycles: 1735853945 heartbeat IPC: 0.0667892 cumulative IPC: 0.0668635 (Simulation time: 24 hr 17 min 22 sec) 
 Total Blocks : 262144 Invalid Blocks : 0
Heartbeat CPU 3 instructions: 300000002 cycles: 1736652082 heartbeat IPC: 0.0671231 cumulative IPC: 0.0668853 (Simulation time: 24 hr 17 min 53 sec) 
 Total Blocks : 262144 Invalid Blocks : 0
Heartbeat CPU 1 instructions: 300000002 cycles: 1736914124 heartbeat IPC: 0.0670909 cumulative IPC: 0.0668386 (Simulation time: 24 hr 18 min 3 sec) 
 Total Blocks : 262144 Invalid Blocks : 0
Heartbeat CPU 2 instructions: 300000002 cycles: 1737208821 heartbeat IPC: 0.0670455 cumulative IPC: 0.0668442 (Simulation time: 24 hr 18 min 14 sec) 
 Total Blocks : 262144 Invalid Blocks : 0
Heartbeat CPU 6 instructions: 300000002 cycles: 1737520769 heartbeat IPC: 0.0669987 cumulative IPC: 0.0668817 (Simulation time: 24 hr 18 min 27 sec) 
 Total Blocks : 262144 Invalid Blocks : 0
Heartbeat CPU 4 instructions: 300000002 cycles: 1737922120 heartbeat IPC: 0.0670515 cumulative IPC: 0.0668377 (Simulation time: 24 hr 18 min 43 sec) 
 Total Blocks : 262144 Invalid Blocks : 0
Heartbeat CPU 7 instructions: 300000002 cycles: 1738178158 heartbeat IPC: 0.0670862 cumulative IPC: 0.0668632 (Simulation time: 24 hr 18 min 53 sec) 
 Total Blocks : 262144 Invalid Blocks : 0
Heartbeat CPU 5 instructions: 300000002 cycles: 1738337135 heartbeat IPC: 0.0668708 cumulative IPC: 0.0668347 (Simulation time: 24 hr 19 min 0 sec) 
 Total Blocks : 262144 Invalid Blocks : 0
Heartbeat CPU 0 instructions: 310000000 cycles: 1883514257 heartbeat IPC: 0.067723 cumulative IPC: 0.0669409 (Simulation time: 25 hr 34 min 23 sec) 
 Total Blocks : 262144 Invalid Blocks : 0
Heartbeat CPU 1 instructions: 310000000 cycles: 1884310254 heartbeat IPC: 0.0678444 cumulative IPC: 0.0669289 (Simulation time: 25 hr 34 min 53 sec) 
 Total Blocks : 262144 Invalid Blocks : 0
Heartbeat CPU 3 instructions: 310000000 cycles: 1884448524 heartbeat IPC: 0.0676606 cumulative IPC: 0.0669551 (Simulation time: 25 hr 34 min 57 sec) 
 Total Blocks : 262144 Invalid Blocks : 0
Heartbeat CPU 6 instructions: 310000000 cycles: 1884577701 heartbeat IPC: 0.0680009 cumulative IPC: 0.066982 (Simulation time: 25 hr 35 min 2 sec) 
 Total Blocks : 262144 Invalid Blocks : 0
Heartbeat CPU 2 instructions: 310000000 cycles: 1884662071 heartbeat IPC: 0.0678181 cumulative IPC: 0.0669316 (Simulation time: 25 hr 35 min 5 sec) 
 Total Blocks : 262144 Invalid Blocks : 0
Heartbeat CPU 4 instructions: 310000000 cycles: 1885605701 heartbeat IPC: 0.0677123 cumulative IPC: 0.0669163 (Simulation time: 25 hr 35 min 41 sec) 
 Total Blocks : 262144 Invalid Blocks : 0
Heartbeat CPU 5 instructions: 310000000 cycles: 1886169861 heartbeat IPC: 0.067644 cumulative IPC: 0.0669074 (Simulation time: 25 hr 36 min 1 sec) 
 Total Blocks : 262144 Invalid Blocks : 0
Heartbeat CPU 7 instructions: 310000000 cycles: 1886308530 heartbeat IPC: 0.0675081 cumulative IPC: 0.0669213 (Simulation time: 25 hr 36 min 6 sec) 
 Total Blocks : 262144 Invalid Blocks : 0
Heartbeat CPU 0 instructions: 320000000 cycles: 2036024461 heartbeat IPC: 0.0655694 cumulative IPC: 0.0668243 (Simulation time: 27 hr 10 min 31 sec) 
 Total Blocks : 262144 Invalid Blocks : 0
Heartbeat CPU 2 instructions: 320000000 cycles: 2036806650 heartbeat IPC: 0.065727 cumulative IPC: 0.0668295 (Simulation time: 27 hr 11 min 2 sec) 
 Total Blocks : 262144 Invalid Blocks : 0
Heartbeat CPU 1 instructions: 320000000 cycles: 2036849570 heartbeat IPC: 0.0655569 cumulative IPC: 0.0668122 (Simulation time: 27 hr 11 min 3 sec) 
 Total Blocks : 262144 Invalid Blocks : 0
Heartbeat CPU 3 instructions: 320000000 cycles: 2037465312 heartbeat IPC: 0.0653523 cumulative IPC: 0.0668184 (Simulation time: 27 hr 11 min 28 sec) 
 Total Blocks : 262144 Invalid Blocks : 0
Heartbeat CPU 6 instructions: 320000000 cycles: 2037605034 heartbeat IPC: 0.0653478 cumulative IPC: 0.0668427 (Simulation time: 27 hr 11 min 33 sec) 
 Total Blocks : 262144 Invalid Blocks : 0
Heartbeat CPU 4 instructions: 320000000 cycles: 2038584264 heartbeat IPC: 0.0653686 cumulative IPC: 0.0667845 (Simulation time: 27 hr 12 min 12 sec) 
 Total Blocks : 262144 Invalid Blocks : 0
Heartbeat CPU 5 instructions: 320000000 cycles: 2039176618 heartbeat IPC: 0.0653566 cumulative IPC: 0.0667754 (Simulation time: 27 hr 12 min 37 sec) 
 Total Blocks : 262144 Invalid Blocks : 0
Heartbeat CPU 7 instructions: 320000000 cycles: 2039188091 heartbeat IPC: 0.065411 cumulative IPC: 0.0667928 (Simulation time: 27 hr 12 min 38 sec) 
 Total Blocks : 262144 Invalid Blocks : 0
Heartbeat CPU 0 instructions: 330000000 cycles: 2189026561 heartbeat IPC: 0.0653586 cumulative IPC: 0.066709 (Simulation time: 28 hr 46 min 55 sec) 
 Total Blocks : 262144 Invalid Blocks : 0
Heartbeat CPU 2 instructions: 330000000 cycles: 2189908454 heartbeat IPC: 0.065316 cumulative IPC: 0.0667105 (Simulation time: 28 hr 47 min 27 sec) 
 Total Blocks : 262144 Invalid Blocks : 0
Heartbeat CPU 1 instructions: 330000000 cycles: 2189913124 heartbeat IPC: 0.0653323 cumulative IPC: 0.0666959 (Simulation time: 28 hr 47 min 27 sec) 
 Total Blocks : 262144 Invalid Blocks : 0
Heartbeat CPU 6 instructions: 330000000 cycles: 2190813232 heartbeat IPC: 0.0652707 cumulative IPC: 0.066719 (Simulation time: 28 hr 48 min 4 sec) 
 Total Blocks : 262144 Invalid Blocks : 0
Heartbeat CPU 3 instructions: 330000000 cycles: 2190902811 heartbeat IPC: 0.0651731 cumulative IPC: 0.0666889 (Simulation time: 28 hr 48 min 8 sec) 
 Total Blocks : 262144 Invalid Blocks : 0
Heartbeat CPU 4 instructions: 330000000 cycles: 2191297118 heartbeat IPC: 0.0654824 cumulative IPC: 0.0666825 (Simulation time: 28 hr 48 min 24 sec) 
 Total Blocks : 262144 Invalid Blocks : 0
Heartbeat CPU 7 instructions: 330000000 cycles: 2192415883 heartbeat IPC: 0.0652623 cumulative IPC: 0.0666725 (Simulation time: 28 hr 49 min 6 sec) 
 Total Blocks : 262144 Invalid Blocks : 0
Heartbeat CPU 5 instructions: 330000000 cycles: 2192628564 heartbeat IPC: 0.065167 cumulative IPC: 0.0666488 (Simulation time: 28 hr 49 min 15 sec) 
 Total Blocks : 262144 Invalid Blocks : 0
Heartbeat CPU 0 instructions: 340000000 cycles: 2339252341 heartbeat IPC: 0.0665665 cumulative IPC: 0.0666988 (Simulation time: 30 hr 21 min 43 sec) 
 Total Blocks : 262144 Invalid Blocks : 0
Heartbeat CPU 2 instructions: 340000000 cycles: 2340056184 heartbeat IPC: 0.0666011 cumulative IPC: 0.0667027 (Simulation time: 30 hr 22 min 14 sec) 
 Total Blocks : 262144 Invalid Blocks : 0
Heartbeat CPU 1 instructions: 340000000 cycles: 2340396592 heartbeat IPC: 0.0664525 cumulative IPC: 0.0666785 (Simulation time: 30 hr 22 min 29 sec) 
 Total Blocks : 262144 Invalid Blocks : 0
Heartbeat CPU 3 instructions: 340000000 cycles: 2340845683 heartbeat IPC: 0.0666921 cumulative IPC: 0.0666891 (Simulation time: 30 hr 22 min 46 sec) 
 Total Blocks : 262144 Invalid Blocks : 0
Heartbeat CPU 6 instructions: 340000000 cycles: 2340928737 heartbeat IPC: 0.0666154 cumulative IPC: 0.0667116 (Simulation time: 30 hr 22 min 49 sec) 
 Total Blocks : 262144 Invalid Blocks : 0
Heartbeat CPU 4 instructions: 340000000 cycles: 2341660173 heartbeat IPC: 0.0665057 cumulative IPC: 0.0666698 (Simulation time: 30 hr 23 min 20 sec) 
 Total Blocks : 262144 Invalid Blocks : 0
Heartbeat CPU 7 instructions: 340000000 cycles: 2341990986 heartbeat IPC: 0.066856 cumulative IPC: 0.0666856 (Simulation time: 30 hr 23 min 33 sec) 
 Total Blocks : 262144 Invalid Blocks : 0
Heartbeat CPU 5 instructions: 340000000 cycles: 2342458524 heartbeat IPC: 0.0667423 cumulative IPC: 0.0666555 (Simulation time: 30 hr 23 min 52 sec) 
 Total Blocks : 262144 Invalid Blocks : 0
Heartbeat CPU 0 instructions: 350000000 cycles: 2490569445 heartbeat IPC: 0.0660864 cumulative IPC: 0.0666576 (Simulation time: 32 hr 0 min 2 sec) 
 Total Blocks : 262144 Invalid Blocks : 0
Heartbeat CPU 2 instructions: 350000000 cycles: 2490954585 heartbeat IPC: 0.0662698 cumulative IPC: 0.0666736 (Simulation time: 32 hr 0 min 18 sec) 
 Total Blocks : 262144 Invalid Blocks : 0
Heartbeat CPU 1 instructions: 350000000 cycles: 2491771676 heartbeat IPC: 0.0660611 cumulative IPC: 0.0666369 (Simulation time: 32 hr 0 min 53 sec) 
 Total Blocks : 262144 Invalid Blocks : 0
Heartbeat CPU 6 instructions: 350000000 cycles: 2491997806 heartbeat IPC: 0.0661949 cumulative IPC: 0.0666769 (Simulation time: 32 hr 1 min 2 sec) 
 Total Blocks : 262144 Invalid Blocks : 0
Heartbeat CPU 3 instructions: 350000000 cycles: 2492252387 heartbeat IPC: 0.0660473 cumulative IPC: 0.0666459 (Simulation time: 32 hr 1 min 13 sec) 
 Total Blocks : 262144 Invalid Blocks : 0
Heartbeat CPU 4 instructions: 350000000 cycles: 2492780630 heartbeat IPC: 0.0661724 cumulative IPC: 0.0666364 (Simulation time: 32 hr 1 min 34 sec) 
 Total Blocks : 262144 Invalid Blocks : 0
Heartbeat CPU 7 instructions: 350000000 cycles: 2493693335 heartbeat IPC: 0.0659186 cumulative IPC: 0.0666339 (Simulation time: 32 hr 2 min 12 sec) 
 Total Blocks : 262144 Invalid Blocks : 0
Heartbeat CPU 5 instructions: 350000000 cycles: 2494060472 heartbeat IPC: 0.0659622 cumulative IPC: 0.0666088 (Simulation time: 32 hr 2 min 27 sec) 
 Total Blocks : 262144 Invalid Blocks : 0
Heartbeat CPU 0 instructions: 360000000 cycles: 2639726097 heartbeat IPC: 0.0670436 cumulative IPC: 0.0666816 (Simulation time: 33 hr 39 min 42 sec) 
 Total Blocks : 262144 Invalid Blocks : 0
Heartbeat CPU 2 instructions: 360000000 cycles: 2640711172 heartbeat IPC: 0.066775 cumulative IPC: 0.0666799 (Simulation time: 33 hr 40 min 19 sec) 
 Total Blocks : 262144 Invalid Blocks : 0
Heartbeat CPU 1 instructions: 360000000 cycles: 2641103963 heartbeat IPC: 0.0669648 cumulative IPC: 0.0666573 (Simulation time: 33 hr 40 min 34 sec) 
 Total Blocks : 262144 Invalid Blocks : 0
Heartbeat CPU 6 instructions: 360000000 cycles: 2641295894 heartbeat IPC: 0.0669801 cumulative IPC: 0.0666958 (Simulation time: 33 hr 40 min 42 sec) 
 Total Blocks : 262144 Invalid Blocks : 0
Heartbeat CPU 3 instructions: 360000000 cycles: 2641505880 heartbeat IPC: 0.0670001 cumulative IPC: 0.0666679 (Simulation time: 33 hr 40 min 51 sec) 
 Total Blocks : 262144 Invalid Blocks : 0
Heartbeat CPU 4 instructions: 360000000 cycles: 2641823042 heartbeat IPC: 0.067095 cumulative IPC: 0.0666649 (Simulation time: 33 hr 41 min 3 sec) 
 Total Blocks : 262144 Invalid Blocks : 0
Heartbeat CPU 7 instructions: 360000000 cycles: 2643042306 heartbeat IPC: 0.0669573 cumulative IPC: 0.066654 (Simulation time: 33 hr 41 min 48 sec) 
 Total Blocks : 262144 Invalid Blocks : 0
Heartbeat CPU 5 instructions: 360000000 cycles: 2643175145 heartbeat IPC: 0.0670625 cumulative IPC: 0.066637 (Simulation time: 33 hr 41 min 54 sec) 
 Total Blocks : 262144 Invalid Blocks : 0
Heartbeat CPU 0 instructions: 370000002 cycles: 2789341736 heartbeat IPC: 0.0668379 cumulative IPC: 0.0666908 (Simulation time: 35 hr 20 min 5 sec) 
 Total Blocks : 262144 Invalid Blocks : 0
Heartbeat CPU 3 instructions: 370000000 cycles: 2790115822 heartbeat IPC: 0.0672902 cumulative IPC: 0.0667042 (Simulation time: 35 hr 20 min 43 sec) 
 Total Blocks : 262144 Invalid Blocks : 0
Heartbeat CPU 1 instructions: 370000000 cycles: 2790138518 heartbeat IPC: 0.0670985 cumulative IPC: 0.0666831 (Simulation time: 35 hr 20 min 44 sec) 
 Total Blocks : 262144 Invalid Blocks : 0
Heartbeat CPU 4 instructions: 370000002 cycles: 2790299945 heartbeat IPC: 0.0673506 cumulative IPC: 0.0667048 (Simulation time: 35 hr 20 min 51 sec) 
 Total Blocks : 262144 Invalid Blocks : 0
Heartbeat CPU 2 instructions: 370000002 cycles: 2790512037 heartbeat IPC: 0.0667553 cumulative IPC: 0.0666844 (Simulation time: 35 hr 21 min 0 sec) 
 Total Blocks : 262144 Invalid Blocks : 0
Heartbeat CPU 6 instructions: 370000000 cycles: 2790814965 heartbeat IPC: 0.0668811 cumulative IPC: 0.0667067 (Simulation time: 35 hr 21 min 15 sec) 
 Total Blocks : 262144 Invalid Blocks : 0
Heartbeat CPU 7 instructions: 370000002 cycles: 2792190829 heartbeat IPC: 0.0670473 cumulative IPC: 0.066677 (Simulation time: 35 hr 22 min 18 sec) 
 Total Blocks : 262144 Invalid Blocks : 0
Heartbeat CPU 5 instructions: 370000002 cycles: 2792897557 heartbeat IPC: 0.0667903 cumulative IPC: 0.066646 (Simulation time: 35 hr 22 min 49 sec) 
 Total Blocks : 262144 Invalid Blocks : 0
Heartbeat CPU 0 instructions: 380000002 cycles: 2939306287 heartbeat IPC: 0.0666824 cumulative IPC: 0.0666903 (Simulation time: 37 hr 1 min 42 sec) 
 Total Blocks : 262144 Invalid Blocks : 0
Heartbeat CPU 3 instructions: 380000003 cycles: 2939926647 heartbeat IPC: 0.0667509 cumulative IPC: 0.0667068 (Simulation time: 37 hr 2 min 9 sec) 
 Total Blocks : 262144 Invalid Blocks : 0
Heartbeat CPU 2 instructions: 380000003 cycles: 2940398544 heartbeat IPC: 0.0667172 cumulative IPC: 0.0666862 (Simulation time: 37 hr 2 min 29 sec) 
 Total Blocks : 262144 Invalid Blocks : 0
Heartbeat CPU 4 instructions: 380000003 cycles: 2940466019 heartbeat IPC: 0.0665929 cumulative IPC: 0.0666986 (Simulation time: 37 hr 2 min 32 sec) 
 Total Blocks : 262144 Invalid Blocks : 0
Heartbeat CPU 1 instructions: 380000003 cycles: 2940943078 heartbeat IPC: 0.066311 cumulative IPC: 0.0666623 (Simulation time: 37 hr 2 min 53 sec) 
 Total Blocks : 262144 Invalid Blocks : 0
Heartbeat CPU 6 instructions: 380000002 cycles: 2940997189 heartbeat IPC: 0.0665858 cumulative IPC: 0.0666999 (Simulation time: 37 hr 2 min 55 sec) 
 Total Blocks : 262144 Invalid Blocks : 0
Heartbeat CPU 7 instructions: 380000003 cycles: 2942411193 heartbeat IPC: 0.0665689 cumulative IPC: 0.066671 (Simulation time: 37 hr 3 min 54 sec) 
 Total Blocks : 262144 Invalid Blocks : 0
Heartbeat CPU 5 instructions: 380000003 cycles: 2943032127 heartbeat IPC: 0.0666069 cumulative IPC: 0.0666438 (Simulation time: 37 hr 4 min 20 sec) 
 Total Blocks : 262144 Invalid Blocks : 0
Heartbeat CPU 0 instructions: 390000001 cycles: 3091036301 heartbeat IPC: 0.0659065 cumulative IPC: 0.0666486 (Simulation time: 38 hr 43 min 52 sec) 
 Total Blocks : 262144 Invalid Blocks : 0
Heartbeat CPU 2 instructions: 390000001 cycles: 3092374033 heartbeat IPC: 0.0658001 cumulative IPC: 0.0666389 (Simulation time: 38 hr 44 min 47 sec) 
 Total Blocks : 262144 Invalid Blocks : 0
Heartbeat CPU 3 instructions: 390000001 cycles: 3092546391 heartbeat IPC: 0.0655223 cumulative IPC: 0.0666434 (Simulation time: 38 hr 44 min 54 sec) 
 Total Blocks : 262144 Invalid Blocks : 0
Heartbeat CPU 4 instructions: 390000001 cycles: 3092661810 heartbeat IPC: 0.0657048 cumulative IPC: 0.0666456 (Simulation time: 38 hr 44 min 59 sec) 
 Total Blocks : 262144 Invalid Blocks : 0
Heartbeat CPU 6 instructions: 390000002 cycles: 3092873896 heartbeat IPC: 0.0658429 cumulative IPC: 0.0666543 (Simulation time: 38 hr 45 min 6 sec) 
 Total Blocks : 262144 Invalid Blocks : 0
Heartbeat CPU 1 instructions: 390000001 cycles: 3092912867 heartbeat IPC: 0.0658025 cumulative IPC: 0.0666165 (Simulation time: 38 hr 45 min 8 sec) 
 Total Blocks : 262144 Invalid Blocks : 0
Heartbeat CPU 7 instructions: 390000001 cycles: 3094655780 heartbeat IPC: 0.0656838 cumulative IPC: 0.0666183 (Simulation time: 38 hr 46 min 19 sec) 
 Total Blocks : 262144 Invalid Blocks : 0
Heartbeat CPU 5 instructions: 390000001 cycles: 3095104083 heartbeat IPC: 0.0657583 cumulative IPC: 0.0665966 (Simulation time: 38 hr 46 min 38 sec) 
 Total Blocks : 262144 Invalid Blocks : 0
Heartbeat CPU 0 instructions: 400000002 cycles: 3242161454 heartbeat IPC: 0.0661703 cumulative IPC: 0.0666245 (Simulation time: 40 hr 27 min 32 sec) 
 Total Blocks : 262144 Invalid Blocks : 0
Heartbeat CPU 2 instructions: 400000002 cycles: 3243636518 heartbeat IPC: 0.0661103 cumulative IPC: 0.0666123 (Simulation time: 40 hr 28 min 28 sec) 
 Total Blocks : 262144 Invalid Blocks : 0
Heartbeat CPU 1 instructions: 400000002 cycles: 3243948054 heartbeat IPC: 0.0662097 cumulative IPC: 0.066596 (Simulation time: 40 hr 28 min 41 sec) 
 Total Blocks : 262144 Invalid Blocks : 0
Heartbeat CPU 6 instructions: 400000002 cycles: 3243994046 heartbeat IPC: 0.0661725 cumulative IPC: 0.06663 (Simulation time: 40 hr 28 min 42 sec) 
 Total Blocks : 262144 Invalid Blocks : 0
Heartbeat CPU 3 instructions: 400000002 cycles: 3244033643 heartbeat IPC: 0.0660122 cumulative IPC: 0.0666115 (Simulation time: 40 hr 28 min 44 sec) 
 Total Blocks : 262144 Invalid Blocks : 0
Heartbeat CPU 4 instructions: 400000002 cycles: 3244054884 heartbeat IPC: 0.0660532 cumulative IPC: 0.0666157 (Simulation time: 40 hr 28 min 45 sec) 
 Total Blocks : 262144 Invalid Blocks : 0
Finished CPU 6 instructions: 200000000 cycles: 3001650872 cumulative IPC: 0.06663 (Simulation time: 40 hr 28 min 53 sec) 
Finished CPU 0 instructions: 200000000 cycles: 3001891530 cumulative IPC: 0.0666247 (Simulation time: 40 hr 29 min 2 sec) 
Finished CPU 4 instructions: 200000000 cycles: 3002294087 cumulative IPC: 0.0666157 (Simulation time: 40 hr 29 min 18 sec) 
Finished CPU 3 instructions: 200000001 cycles: 3002523637 cumulative IPC: 0.0666106 (Simulation time: 40 hr 29 min 27 sec) 
Finished CPU 2 instructions: 200000000 cycles: 3002609402 cumulative IPC: 0.0666087 (Simulation time: 40 hr 29 min 30 sec) 
Heartbeat CPU 7 instructions: 400000001 cycles: 3245775280 heartbeat IPC: 0.0661728 cumulative IPC: 0.0665959 (Simulation time: 40 hr 29 min 55 sec) 
 Total Blocks : 262144 Invalid Blocks : 0
Finished CPU 7 instructions: 200000000 cycles: 3003187798 cumulative IPC: 0.0665959 (Simulation time: 40 hr 29 min 55 sec) 
Finished CPU 1 instructions: 200000002 cycles: 3003225353 cumulative IPC: 0.0665951 (Simulation time: 40 hr 29 min 56 sec) 
Heartbeat CPU 5 instructions: 400000002 cycles: 3245945761 heartbeat IPC: 0.0662947 cumulative IPC: 0.0665814 (Simulation time: 40 hr 30 min 2 sec) 
 Total Blocks : 262144 Invalid Blocks : 0
Finished CPU 5 instructions: 200000002 cycles: 3003876846 cumulative IPC: 0.0665806 (Simulation time: 40 hr 30 min 24 sec) 

CPU 0 Branch Prediction Accuracy: 86.6528% MPKI: 28.0477 Average ROB Occupancy at Mispredict: 29.4833

CPU 1 Branch Prediction Accuracy: 86.6512% MPKI: 28.0559 Average ROB Occupancy at Mispredict: 29.4799

CPU 2 Branch Prediction Accuracy: 86.6517% MPKI: 28.0588 Average ROB Occupancy at Mispredict: 29.4805

CPU 3 Branch Prediction Accuracy: 86.6521% MPKI: 28.0613 Average ROB Occupancy at Mispredict: 29.4816

CPU 4 Branch Prediction Accuracy: 86.6517% MPKI: 28.064 Average ROB Occupancy at Mispredict: 29.4812

CPU 5 Branch Prediction Accuracy: 86.6516% MPKI: 28.0676 Average ROB Occupancy at Mispredict: 29.48

CPU 6 Branch Prediction Accuracy: 86.6514% MPKI: 28.07 Average ROB Occupancy at Mispredict: 29.4807

CPU 7 Branch Prediction Accuracy: 86.6513% MPKI: 28.0726 Average ROB Occupancy at Mispredict: 29.4799

ChampSim completed all CPUs

Total Simulation Statistics (not including warmup)

CPU 0 cumulative IPC: 0.0666282 instructions: 200142757 cycles: 3003876846
ITLB TOTAL     ACCESS: 30584720  HIT: 30584720  MISS:     0  HIT %:   100  MISS %:     0  AVERAGE MISS PENALTY: 0
ITLB LOAD      ACCESS: 30584720  HIT: 30584720  MISS:     0  HIT %:   100  MISS %:     0  AVERAGE MISS PENALTY: 0
ITLB RFO       ACCESS:     0  HIT:     0  MISS:     0  HIT %:     0  MISS %:     0  AVERAGE MISS PENALTY: 0
ITLB PREFETCH  ACCESS:     0  HIT:     0  MISS:     0  HIT %:     0  MISS %:     0  AVERAGE MISS PENALTY: 0
ITLB WRITEBACK ACCESS:     0  HIT:     0  MISS:     0  HIT %:     0  MISS %:     0  AVERAGE MISS PENALTY: 0

DTLB TOTAL     ACCESS: 49151145  HIT: 38324411  MISS: 10826734  HIT %: 77.9726  MISS %: 22.0274  AVERAGE MISS PENALTY: 9.45769
DTLB LOAD      ACCESS: 49096467  HIT: 38269733  MISS: 10826734  HIT %: 77.948  MISS %: 22.052  AVERAGE MISS PENALTY: 9.45769
DTLB RFO       ACCESS: 54678  HIT: 54678  MISS:     0  HIT %:   100  MISS %:     0  AVERAGE MISS PENALTY: 0
DTLB PREFETCH  ACCESS:     0  HIT:     0  MISS:     0  HIT %:     0  MISS %:     0  AVERAGE MISS PENALTY: 0
DTLB WRITEBACK ACCESS:     0  HIT:     0  MISS:     0  HIT %:     0  MISS %:     0  AVERAGE MISS PENALTY: 0

STLB TOTAL     ACCESS: 10826734  HIT: 10810364  MISS: 16370  HIT %: 99.8488  MISS %: 0.1512  AVERAGE MISS PENALTY: 100
STLB LOAD      ACCESS: 10826734  HIT: 10810364  MISS: 16370  HIT %: 99.8488  MISS %: 0.1512  AVERAGE MISS PENALTY: 100
STLB RFO       ACCESS:     0  HIT:     0  MISS:     0  HIT %:     0  MISS %:     0  AVERAGE MISS PENALTY: 0
STLB PREFETCH  ACCESS:     0  HIT:     0  MISS:     0  HIT %:     0  MISS %:     0  AVERAGE MISS PENALTY: 0
STLB WRITEBACK ACCESS:     0  HIT:     0  MISS:     0  HIT %:     0  MISS %:     0  AVERAGE MISS PENALTY: 0

L1D TOTAL     ACCESS: 95279901  HIT: 33619972  MISS: 61659929  HIT %: 35.2855  MISS %: 64.7145  AVERAGE MISS PENALTY: 5.26381e+06
L1D LOAD      ACCESS: 45777377  HIT: 29582676  MISS: 16194701  HIT %: 64.6229  MISS %: 35.3771  AVERAGE MISS PENALTY: 2.00407e+07
L1D RFO       ACCESS: 54683  HIT: 54683  MISS:     0  HIT %:   100  MISS %:     0  AVERAGE MISS PENALTY: 0
L1D PREFETCH  ACCESS: 49447841  HIT: 3982613  MISS: 45465228  HIT %: 8.05417  MISS %: 91.9458  AVERAGE MISS PENALTY: 281.21
L1D WRITEBACK ACCESS:     0  HIT:     0  MISS:     0  HIT %:     0  MISS %:     0  AVERAGE MISS PENALTY: 0

L1I TOTAL     ACCESS: 44515327  HIT: 44515327  MISS:     0  HIT %:   100  MISS %:     0  AVERAGE MISS PENALTY: 0
L1I LOAD      ACCESS: 44515327  HIT: 44515327  MISS:     0  HIT %:   100  MISS %:     0  AVERAGE MISS PENALTY: 0
L1I RFO       ACCESS:     0  HIT:     0  MISS:     0  HIT %:     0  MISS %:     0  AVERAGE MISS PENALTY: 0
L1I PREFETCH  ACCESS:     0  HIT:     0  MISS:     0  HIT %:     0  MISS %:     0  AVERAGE MISS PENALTY: 0
L1I WRITEBACK ACCESS:     0  HIT:     0  MISS:     0  HIT %:     0  MISS %:     0  AVERAGE MISS PENALTY: 0

L2C TOTAL     ACCESS: 95173935  HIT: 5215257  MISS: 89958678  HIT %: 5.47971  MISS %: 94.5203  AVERAGE MISS PENALTY: 4.27955e+06
L2C LOAD      ACCESS: 16189577  HIT: 298517  MISS: 15891060  HIT %: 1.84388  MISS %: 98.1561  AVERAGE MISS PENALTY: 2.4225e+07
L2C RFO       ACCESS:     0  HIT:     0  MISS:     0  HIT %:     0  MISS %:     0  AVERAGE MISS PENALTY: 0
L2C PREFETCH  ACCESS: 78937657  HIT: 4903325  MISS: 74034332  HIT %: 6.21164  MISS %: 93.7884  AVERAGE MISS PENALTY: 286.309
L2C WRITEBACK ACCESS: 46701  HIT: 13415  MISS: 33286  HIT %: 28.7253  MISS %: 71.2747  AVERAGE MISS PENALTY: 0


LLC0 TOTAL     ACCESS: 11505778  HIT: 6095293  MISS: 5410485  HIT %: 52.9759  MISS %: 47.0241  AVERAGE MISS PENALTY: 562.082
LLC0 LOAD      ACCESS: 1994216  HIT: 1126305  MISS: 867911  HIT %: 56.4786  MISS %: 43.5214  AVERAGE MISS PENALTY: 552.966
LLC0 RFO       ACCESS:     0  HIT:     0  MISS:     0  HIT %:     0  MISS %:     0  AVERAGE MISS PENALTY: 0
LLC0 PREFETCH  ACCESS: 9505775  HIT: 4963452  MISS: 4542323  HIT %: 52.2151  MISS %: 47.7849  AVERAGE MISS PENALTY: 563.855
LLC0 WRITEBACK ACCESS:  5787  HIT:  5536  MISS:   251  HIT %: 95.6627  MISS %: 4.33731  AVERAGE MISS PENALTY: 0

LLC1 TOTAL     ACCESS: 11648657  HIT: 6167040  MISS: 5481617  HIT %: 52.9421  MISS %: 47.0579  AVERAGE MISS PENALTY: 552.47
LLC1 LOAD      ACCESS: 1932198  HIT: 1105441  MISS: 826757  HIT %: 57.2116  MISS %: 42.7884  AVERAGE MISS PENALTY: 543.154
LLC1 RFO       ACCESS:     0  HIT:     0  MISS:     0  HIT %:     0  MISS %:     0  AVERAGE MISS PENALTY: 0
LLC1 PREFETCH  ACCESS: 9710625  HIT: 5055967  MISS: 4654658  HIT %: 52.0663  MISS %: 47.9337  AVERAGE MISS PENALTY: 554.148
LLC1 WRITEBACK ACCESS:  5834  HIT:  5632  MISS:   202  HIT %: 96.5375  MISS %: 3.46246  AVERAGE MISS PENALTY: 0

LLC2 TOTAL     ACCESS: 11645468  HIT: 6180958  MISS: 5464510  HIT %: 53.0761  MISS %: 46.9239  AVERAGE MISS PENALTY: 555.192
LLC2 LOAD      ACCESS: 2010292  HIT: 1159915  MISS: 850377  HIT %: 57.6988  MISS %: 42.3012  AVERAGE MISS PENALTY: 553.678
LLC2 RFO       ACCESS:     0  HIT:     0  MISS:     0  HIT %:     0  MISS %:     0  AVERAGE MISS PENALTY: 0
LLC2 PREFETCH  ACCESS: 9629350  HIT: 5015453  MISS: 4613897  HIT %: 52.0851  MISS %: 47.9149  AVERAGE MISS PENALTY: 555.499
LLC2 WRITEBACK ACCESS:  5826  HIT:  5590  MISS:   236  HIT %: 95.9492  MISS %: 4.05081  AVERAGE MISS PENALTY: 0

LLC3 TOTAL     ACCESS: 11333987  HIT: 6002961  MISS: 5331026  HIT %: 52.9642  MISS %: 47.0358  AVERAGE MISS PENALTY: 545.695
LLC3 LOAD      ACCESS: 1859786  HIT: 1039526  MISS: 820260  HIT %: 55.8949  MISS %: 44.1051  AVERAGE MISS PENALTY: 543.535
LLC3 RFO       ACCESS:     0  HIT:     0  MISS:     0  HIT %:     0  MISS %:     0  AVERAGE MISS PENALTY: 0
LLC3 PREFETCH  ACCESS: 9468316  HIT: 4957782  MISS: 4510534  HIT %: 52.3618  MISS %: 47.6382  AVERAGE MISS PENALTY: 546.116
LLC3 WRITEBACK ACCESS:  5885  HIT:  5653  MISS:   232  HIT %: 96.0578  MISS %: 3.94223  AVERAGE MISS PENALTY: 0

LLC4 TOTAL     ACCESS: 11250113  HIT: 5984368  MISS: 5265745  HIT %: 53.1938  MISS %: 46.8062  AVERAGE MISS PENALTY: 500.18
LLC4 LOAD      ACCESS: 1993763  HIT: 1152353  MISS: 841410  HIT %: 57.7979  MISS %: 42.2021  AVERAGE MISS PENALTY: 489.224
LLC4 RFO       ACCESS:     0  HIT:     0  MISS:     0  HIT %:     0  MISS %:     0  AVERAGE MISS PENALTY: 0
LLC4 PREFETCH  ACCESS: 9250459  HIT: 4826334  MISS: 4424125  HIT %: 52.174  MISS %: 47.826  AVERAGE MISS PENALTY: 502.288
LLC4 WRITEBACK ACCESS:  5891  HIT:  5681  MISS:   210  HIT %: 96.4352  MISS %: 3.56476  AVERAGE MISS PENALTY: 0

LLC5 TOTAL     ACCESS: 11072454  HIT: 5904688  MISS: 5167766  HIT %: 53.3277  MISS %: 46.6723  AVERAGE MISS PENALTY: 479.009
LLC5 LOAD      ACCESS: 2007142  HIT: 1161095  MISS: 846047  HIT %: 57.8482  MISS %: 42.1518  AVERAGE MISS PENALTY: 465.041
LLC5 RFO       ACCESS:     0  HIT:     0  MISS:     0  HIT %:     0  MISS %:     0  AVERAGE MISS PENALTY: 0
LLC5 PREFETCH  ACCESS: 9059438  HIT: 4737934  MISS: 4321504  HIT %: 52.2983  MISS %: 47.7017  AVERAGE MISS PENALTY: 481.768
LLC5 WRITEBACK ACCESS:  5874  HIT:  5659  MISS:   215  HIT %: 96.3398  MISS %: 3.6602  AVERAGE MISS PENALTY: 0

LLC6 TOTAL     ACCESS: 10840420  HIT: 5819113  MISS: 5021307  HIT %: 53.6798  MISS %: 46.3202  AVERAGE MISS PENALTY: 495.706
LLC6 LOAD      ACCESS: 1890304  HIT: 1067084  MISS: 823220  HIT %: 56.4504  MISS %: 43.5496  AVERAGE MISS PENALTY: 486.578
LLC6 RFO       ACCESS:     0  HIT:     0  MISS:     0  HIT %:     0  MISS %:     0  AVERAGE MISS PENALTY: 0
LLC6 PREFETCH  ACCESS: 8944270  HIT: 4746445  MISS: 4197825  HIT %: 53.0669  MISS %: 46.9331  AVERAGE MISS PENALTY: 497.527
LLC6 WRITEBACK ACCESS:  5846  HIT:  5584  MISS:   262  HIT %: 95.5183  MISS %: 4.4817  AVERAGE MISS PENALTY: 0

LLC7 TOTAL     ACCESS: 10675218  HIT: 5811742  MISS: 4863476  HIT %: 54.4414  MISS %: 45.5586  AVERAGE MISS PENALTY: 476.607
LLC7 LOAD      ACCESS: 1995519  HIT: 1147728  MISS: 847791  HIT %: 57.5153  MISS %: 42.4847  AVERAGE MISS PENALTY: 462.182
LLC7 RFO       ACCESS:     0  HIT:     0  MISS:     0  HIT %:     0  MISS %:     0  AVERAGE MISS PENALTY: 0
LLC7 PREFETCH  ACCESS: 8673939  HIT: 4658506  MISS: 4015433  HIT %: 53.7069  MISS %: 46.2931  AVERAGE MISS PENALTY: 479.683
LLC7 WRITEBACK ACCESS:  5760  HIT:  5508  MISS:   252  HIT %: 95.625  MISS %: 4.375  AVERAGE MISS PENALTY: 0

Total Rob stall cycles : 	2873794323
Total Load Rob Stall cycles : 	1811805213
Average Rob Stall cycles : 	 30
Average Load Rob Stall cycles : 	 193

CPU 1 cumulative IPC: 0.0665952 instructions: 200043889 cycles: 3003876846
ITLB TOTAL     ACCESS: 30573446  HIT: 30573446  MISS:     0  HIT %:   100  MISS %:     0  AVERAGE MISS PENALTY: 0
ITLB LOAD      ACCESS: 30573446  HIT: 30573446  MISS:     0  HIT %:   100  MISS %:     0  AVERAGE MISS PENALTY: 0
ITLB RFO       ACCESS:     0  HIT:     0  MISS:     0  HIT %:     0  MISS %:     0  AVERAGE MISS PENALTY: 0
ITLB PREFETCH  ACCESS:     0  HIT:     0  MISS:     0  HIT %:     0  MISS %:     0  AVERAGE MISS PENALTY: 0
ITLB WRITEBACK ACCESS:     0  HIT:     0  MISS:     0  HIT %:     0  MISS %:     0  AVERAGE MISS PENALTY: 0

DTLB TOTAL     ACCESS: 49130975  HIT: 38310696  MISS: 10820279  HIT %: 77.9767  MISS %: 22.0233  AVERAGE MISS PENALTY: 9.45769
DTLB LOAD      ACCESS: 49076283  HIT: 38256004  MISS: 10820279  HIT %: 77.9521  MISS %: 22.0479  AVERAGE MISS PENALTY: 9.45769
DTLB RFO       ACCESS: 54692  HIT: 54692  MISS:     0  HIT %:   100  MISS %:     0  AVERAGE MISS PENALTY: 0
DTLB PREFETCH  ACCESS:     0  HIT:     0  MISS:     0  HIT %:     0  MISS %:     0  AVERAGE MISS PENALTY: 0
DTLB WRITEBACK ACCESS:     0  HIT:     0  MISS:     0  HIT %:     0  MISS %:     0  AVERAGE MISS PENALTY: 0

STLB TOTAL     ACCESS: 10820279  HIT: 10803916  MISS: 16363  HIT %: 99.8488  MISS %: 0.151225  AVERAGE MISS PENALTY: 100
STLB LOAD      ACCESS: 10820279  HIT: 10803916  MISS: 16363  HIT %: 99.8488  MISS %: 0.151225  AVERAGE MISS PENALTY: 100
STLB RFO       ACCESS:     0  HIT:     0  MISS:     0  HIT %:     0  MISS %:     0  AVERAGE MISS PENALTY: 0
STLB PREFETCH  ACCESS:     0  HIT:     0  MISS:     0  HIT %:     0  MISS %:     0  AVERAGE MISS PENALTY: 0
STLB WRITEBACK ACCESS:     0  HIT:     0  MISS:     0  HIT %:     0  MISS %:     0  AVERAGE MISS PENALTY: 0

L1D TOTAL     ACCESS: 95228756  HIT: 33607166  MISS: 61621590  HIT %: 35.291  MISS %: 64.709  AVERAGE MISS PENALTY: 5.24284e+06
L1D LOAD      ACCESS: 45759718  HIT: 29575038  MISS: 16184680  HIT %: 64.6312  MISS %: 35.3688  AVERAGE MISS PENALTY: 1.99608e+07
L1D RFO       ACCESS: 54700  HIT: 54700  MISS:     0  HIT %:   100  MISS %:     0  AVERAGE MISS PENALTY: 0
L1D PREFETCH  ACCESS: 49414338  HIT: 3977428  MISS: 45436910  HIT %: 8.04914  MISS %: 91.9509  AVERAGE MISS PENALTY: 281.776
L1D WRITEBACK ACCESS:     0  HIT:     0  MISS:     0  HIT %:     0  MISS %:     0  AVERAGE MISS PENALTY: 0

L1I TOTAL     ACCESS: 44497688  HIT: 44497688  MISS:     0  HIT %:   100  MISS %:     0  AVERAGE MISS PENALTY: 0
L1I LOAD      ACCESS: 44497688  HIT: 44497688  MISS:     0  HIT %:   100  MISS %:     0  AVERAGE MISS PENALTY: 0
L1I RFO       ACCESS:     0  HIT:     0  MISS:     0  HIT %:     0  MISS %:     0  AVERAGE MISS PENALTY: 0
L1I PREFETCH  ACCESS:     0  HIT:     0  MISS:     0  HIT %:     0  MISS %:     0  AVERAGE MISS PENALTY: 0
L1I WRITEBACK ACCESS:     0  HIT:     0  MISS:     0  HIT %:     0  MISS %:     0  AVERAGE MISS PENALTY: 0

L2C TOTAL     ACCESS: 95130291  HIT: 5201821  MISS: 89928470  HIT %: 5.4681  MISS %: 94.5319  AVERAGE MISS PENALTY: 4.2681e+06
L2C LOAD      ACCESS: 16179366  HIT: 284312  MISS: 15895054  HIT %: 1.75725  MISS %: 98.2427  AVERAGE MISS PENALTY: 2.4146e+07
L2C RFO       ACCESS:     0  HIT:     0  MISS:     0  HIT %:     0  MISS %:     0  AVERAGE MISS PENALTY: 0
L2C PREFETCH  ACCESS: 78904209  HIT: 4904053  MISS: 74000156  HIT %: 6.2152  MISS %: 93.7848  AVERAGE MISS PENALTY: 287.141
L2C WRITEBACK ACCESS: 46716  HIT: 13456  MISS: 33260  HIT %: 28.8038  MISS %: 71.1962  AVERAGE MISS PENALTY: 0


LLC0 TOTAL     ACCESS: 11504162  HIT: 6087193  MISS: 5416969  HIT %: 52.913  MISS %: 47.087  AVERAGE MISS PENALTY: 563.363
LLC0 LOAD      ACCESS: 1992928  HIT: 1123718  MISS: 869210  HIT %: 56.3853  MISS %: 43.6147  AVERAGE MISS PENALTY: 555.161
LLC0 RFO       ACCESS:     0  HIT:     0  MISS:     0  HIT %:     0  MISS %:     0  AVERAGE MISS PENALTY: 0
LLC0 PREFETCH  ACCESS: 9505443  HIT: 4957922  MISS: 4547521  HIT %: 52.1588  MISS %: 47.8412  AVERAGE MISS PENALTY: 564.96
LLC0 WRITEBACK ACCESS:  5791  HIT:  5553  MISS:   238  HIT %: 95.8902  MISS %: 4.10983  AVERAGE MISS PENALTY: 0

LLC1 TOTAL     ACCESS: 11641920  HIT: 6155104  MISS: 5486816  HIT %: 52.8702  MISS %: 47.1298  AVERAGE MISS PENALTY: 553.751
LLC1 LOAD      ACCESS: 1931132  HIT: 1103734  MISS: 827398  HIT %: 57.1548  MISS %: 42.8452  AVERAGE MISS PENALTY: 545.696
LLC1 RFO       ACCESS:     0  HIT:     0  MISS:     0  HIT %:     0  MISS %:     0  AVERAGE MISS PENALTY: 0
LLC1 PREFETCH  ACCESS: 9704953  HIT: 5045749  MISS: 4659204  HIT %: 51.9915  MISS %: 48.0085  AVERAGE MISS PENALTY: 555.207
LLC1 WRITEBACK ACCESS:  5835  HIT:  5621  MISS:   214  HIT %: 96.3325  MISS %: 3.66752  AVERAGE MISS PENALTY: 0

LLC2 TOTAL     ACCESS: 11638681  HIT: 6170425  MISS: 5468256  HIT %: 53.0165  MISS %: 46.9835  AVERAGE MISS PENALTY: 556.138
LLC2 LOAD      ACCESS: 2008677  HIT: 1156652  MISS: 852025  HIT %: 57.5828  MISS %: 42.4172  AVERAGE MISS PENALTY: 556.319
LLC2 RFO       ACCESS:     0  HIT:     0  MISS:     0  HIT %:     0  MISS %:     0  AVERAGE MISS PENALTY: 0
LLC2 PREFETCH  ACCESS: 9624178  HIT: 5008177  MISS: 4616001  HIT %: 52.0375  MISS %: 47.9625  AVERAGE MISS PENALTY: 556.132
LLC2 WRITEBACK ACCESS:  5826  HIT:  5596  MISS:   230  HIT %: 96.0522  MISS %: 3.94782  AVERAGE MISS PENALTY: 0

[...]
LLC1 AVERAGE MISS LATENCY: 554.566 cycles
LLC2 TOTAL     ACCESS: 11631212  HIT: 6169034  MISS: 5462178  HIT %: 53.0386  MISS %: 46.9614  AVERAGE MISS PENALTY: 557.018
LLC2 LOAD      ACCESS: 2008995  HIT: 1157959  MISS: 851036  HIT %: 57.6387  MISS %: 42.3613  AVERAGE MISS PENALTY: 556.727
LLC2 RFO       ACCESS:     0  HIT:     0  MISS:     0  HIT %:     0  MISS %:     0  AVERAGE MISS PENALTY: 0
LLC2 PREFETCH  ACCESS: 9616382  HIT: 5005476  MISS: 4610906  HIT %: 52.0516  MISS %: 47.9484  AVERAGE MISS PENALTY: 557.101
LLC2 WRITEBACK ACCESS:  5835  HIT:  5599  MISS:   236  HIT %: 95.9554  MISS %: 4.04456  AVERAGE MISS PENALTY: 0
LLC2 PREFETCH  REQUESTED:     0  ISSUED:     0  USEFUL: 3539348  USELESS: 33375303
 USEFUL LOAD PREFETCHES:    3539348 PREFETCH ISSUED TO LOWER LEVEL:   46256006  ACCURACY: 7.65165
 TIMELY PREFETCHES:    3539348 LATE PREFETCHES: 0 DROPPED PREFETCHES: 0
LLC2 AVERAGE MISS LATENCY: 557.018 cycles
LLC3 TOTAL     ACCESS: 11321611  HIT: 5991051  MISS: 5330560  HIT %: 52.9169  MISS %: 47.0831  AVERAGE MISS PENALTY: 548.02
LLC3 LOAD      ACCESS: 1858250  HIT: 1036810  MISS: 821440  HIT %: 55.795  MISS %: 44.205  AVERAGE MISS PENALTY: 546.682
LLC3 RFO       ACCESS:     0  HIT:     0  MISS:     0  HIT %:     0  MISS %:     0  AVERAGE MISS PENALTY: 0
LLC3 PREFETCH  ACCESS: 9457473  HIT: 4948578  MISS: 4508895  HIT %: 52.3245  MISS %: 47.6755  AVERAGE MISS PENALTY: 548.291
LLC3 WRITEBACK ACCESS:  5888  HIT:  5663  MISS:   225  HIT %: 96.1787  MISS %: 3.82133  AVERAGE MISS PENALTY: 0
LLC3 PREFETCH  REQUESTED:     0  ISSUED:     0  USEFUL: 3514433  USELESS: 32571378
 USEFUL LOAD PREFETCHES:    3514433 PREFETCH ISSUED TO LOWER LEVEL:   41801111  ACCURACY: 8.40751
 TIMELY PREFETCHES:    3514433 LATE PREFETCHES: 0 DROPPED PREFETCHES: 0
LLC3 AVERAGE MISS LATENCY: 548.02 cycles
LLC4 TOTAL     ACCESS: 11239368  HIT: 5971829  MISS: 5267539  HIT %: 53.1331  MISS %: 46.8669  AVERAGE MISS PENALTY: 502.067
LLC4 LOAD      ACCESS: 1992242  HIT: 1150774  MISS: 841468  HIT %: 57.7628  MISS %: 42.2372  AVERAGE MISS PENALTY: 491.482
LLC4 RFO       ACCESS:     0  HIT:     0  MISS:     0  HIT %:     0  MISS %:     0  AVERAGE MISS PENALTY: 0
LLC4 PREFETCH  ACCESS: 9241221  HIT: 4815392  MISS: 4425829  HIT %: 52.1077  MISS %: 47.8923  AVERAGE MISS PENALTY: 504.107
LLC4 WRITEBACK ACCESS:  5905  HIT:  5663  MISS:   242  HIT %: 95.9018  MISS %: 4.09822  AVERAGE MISS PENALTY: 0
LLC4 PREFETCH  REQUESTED:     0  ISSUED:     0  USEFUL: 3466693  USELESS: 31942537
 USEFUL LOAD PREFETCHES:    3466693 PREFETCH ISSUED TO LOWER LEVEL:   49785237  ACCURACY: 6.9633
 TIMELY PREFETCHES:    3466693 LATE PREFETCHES: 0 DROPPED PREFETCHES: 0
LLC4 AVERAGE MISS LATENCY: 502.067 cycles
LLC5 TOTAL     ACCESS: 11061801  HIT: 5894618  MISS: 5167183  HIT %: 53.288  MISS %: 46.712  AVERAGE MISS PENALTY: 480.718
LLC5 LOAD      ACCESS: 2005693  HIT: 1159595  MISS: 846098  HIT %: 57.8152  MISS %: 42.1848  AVERAGE MISS PENALTY: 467.093
LLC5 RFO       ACCESS:     0  HIT:     0  MISS:     0  HIT %:     0  MISS %:     0  AVERAGE MISS PENALTY: 0
LLC5 PREFETCH  ACCESS: 9050225  HIT: 4729375  MISS: 4320850  HIT %: 52.257  MISS %: 47.743  AVERAGE MISS PENALTY: 483.412
LLC5 WRITEBACK ACCESS:  5883  HIT:  5648  MISS:   235  HIT %: 96.0054  MISS %: 3.99456  AVERAGE MISS PENALTY: 0
LLC5 PREFETCH  REQUESTED:     0  ISSUED:     0  USEFUL: 3449263  USELESS: 31126059
 USEFUL LOAD PREFETCHES:    3449263 PREFETCH ISSUED TO LOWER LEVEL:   43317679  ACCURACY: 7.96271
 TIMELY PREFETCHES:    3449263 LATE PREFETCHES: 0 DROPPED PREFETCHES: 0
LLC5 AVERAGE MISS LATENCY: 480.718 cycles
LLC6 TOTAL     ACCESS: 10829841  HIT: 5807138  MISS: 5022703  HIT %: 53.6216  MISS %: 46.3784  AVERAGE MISS PENALTY: 497.922
LLC6 LOAD      ACCESS: 1889227  HIT: 1064986  MISS: 824241  HIT %: 56.3715  MISS %: 43.6285  AVERAGE MISS PENALTY: 488.002
LLC6 RFO       ACCESS:     0  HIT:     0  MISS:     0  HIT %:     0  MISS %:     0  AVERAGE MISS PENALTY: 0
LLC6 PREFETCH  ACCESS: 8934760  HIT: 4736531  MISS: 4198229  HIT %: 53.0124  MISS %: 46.9876  AVERAGE MISS PENALTY: 499.897
LLC6 WRITEBACK ACCESS:  5854  HIT:  5621  MISS:   233  HIT %: 96.0198  MISS %: 3.98018  AVERAGE MISS PENALTY: 0
LLC6 PREFETCH  REQUESTED:     0  ISSUED:     0  USEFUL: 3402736  USELESS: 30192430
 USEFUL LOAD PREFETCHES:    3402736 PREFETCH ISSUED TO LOWER LEVEL:   54603953  ACCURACY: 6.23167
 TIMELY PREFETCHES:    3402736 LATE PREFETCHES: 0 DROPPED PREFETCHES: 0
LLC6 AVERAGE MISS LATENCY: 497.922 cycles
LLC7 TOTAL     ACCESS: 10679536  HIT: 5816996  MISS: 4862540  HIT %: 54.4686  MISS %: 45.5314  AVERAGE MISS PENALTY: 478.498
LLC7 LOAD      ACCESS: 2009431  HIT: 1159824  MISS: 849607  HIT %: 57.719  MISS %: 42.281  AVERAGE MISS PENALTY: 464.171
LLC7 RFO       ACCESS:     0  HIT:     0  MISS:     0  HIT %:     0  MISS %:     0  AVERAGE MISS PENALTY: 0
LLC7 PREFETCH  ACCESS: 8664339  HIT: 4651637  MISS: 4012702  HIT %: 53.6872  MISS %: 46.3128  AVERAGE MISS PENALTY: 481.558
LLC7 WRITEBACK ACCESS:  5766  HIT:  5535  MISS:   231  HIT %: 95.9938  MISS %: 4.00624  AVERAGE MISS PENALTY: 0
LLC7 PREFETCH  REQUESTED:     0  ISSUED:     0  USEFUL: 3401043  USELESS: 28720123
 USEFUL LOAD PREFETCHES:    3401043 PREFETCH ISSUED TO LOWER LEVEL:   44732564  ACCURACY: 7.60306
 TIMELY PREFETCHES:    3401043 LATE PREFETCHES: 0 DROPPED PREFETCHES: 0
LLC7 AVERAGE MISS LATENCY: 478.498 cycles
ROI Average ROB Stall Cycles:	30.4426
ROI Total ROB Stalls Cycles:	2871658874
ROI TOTAL ROB counter      :	94330138
ROI Average Load ROB Stall Cycles:	193.886
ROI Total Load ROB Stalls Cycle  :	1813156730
ROI Total Load ROB stalls Counter:	9351651
Major fault: 0 Minor fault: 33146

CPU 7 cumulative IPC: 0.0665959 instructions: 200000000 cycles: 3003187798
ITLB TOTAL     ACCESS: 30570519  HIT: 30570519  MISS:     0  HIT %:   100  MISS %:     0  AVERAGE MISS PENALTY: 0
ITLB LOAD      ACCESS: 30570519  HIT: 30570519  MISS:     0  HIT %:   100  MISS %:     0  AVERAGE MISS PENALTY: 0
ITLB RFO       ACCESS:     0  HIT:     0  MISS:     0  HIT %:     0  MISS %:     0  AVERAGE MISS PENALTY: 0
ITLB PREFETCH  ACCESS:     0  HIT:     0  MISS:     0  HIT %:     0  MISS %:     0  AVERAGE MISS PENALTY: 0
ITLB WRITEBACK ACCESS:     0  HIT:     0  MISS:     0  HIT %:     0  MISS %:     0  AVERAGE MISS PENALTY: 0
ITLB PREFETCH  REQUESTED:     0  ISSUED:     0  USEFUL:     0  USELESS:     0
 USEFUL LOAD PREFETCHES:          0 PREFETCH ISSUED TO LOWER LEVEL:          0  ACCURACY: -nan
 TIMELY PREFETCHES:          0 LATE PREFETCHES: 0 DROPPED PREFETCHES: 0
ITLB AVERAGE MISS LATENCY: -nan cycles
DTLB TOTAL     ACCESS: 49120000  HIT: 38302071  MISS: 10817929  HIT %: 77.9765  MISS %: 22.0235  AVERAGE MISS PENALTY: 9.45774
DTLB LOAD      ACCESS: 49065224  HIT: 38247295  MISS: 10817929  HIT %: 77.9519  MISS %: 22.0481  AVERAGE MISS PENALTY: 9.45774
DTLB RFO       ACCESS: 54776  HIT: 54776  MISS:     0  HIT %:   100  MISS %:     0  AVERAGE MISS PENALTY: 0
DTLB PREFETCH  ACCESS:     0  HIT:     0  MISS:     0  HIT %:     0  MISS %:     0  AVERAGE MISS PENALTY: 0
DTLB WRITEBACK ACCESS:     0  HIT:     0  MISS:     0  HIT %:     0  MISS %:     0  AVERAGE MISS PENALTY: 0
DTLB PREFETCH  REQUESTED:     0  ISSUED:     0  USEFUL:     0  USELESS:     0
 USEFUL LOAD PREFETCHES:          0 PREFETCH ISSUED TO LOWER LEVEL:          0  ACCURACY: -nan
 TIMELY PREFETCHES:          0 LATE PREFETCHES: 0 DROPPED PREFETCHES: 0
DTLB AVERAGE MISS LATENCY: 9.45774 cycles
STLB TOTAL     ACCESS: 10817930  HIT: 10801571  MISS: 16359  HIT %: 99.8488  MISS %: 0.151221  AVERAGE MISS PENALTY: 100
STLB LOAD      ACCESS: 10817930  HIT: 10801571  MISS: 16359  HIT %: 99.8488  MISS %: 0.151221  AVERAGE MISS PENALTY: 100
STLB RFO       ACCESS:     0  HIT:     0  MISS:     0  HIT %:     0  MISS %:     0  AVERAGE MISS PENALTY: 0
STLB PREFETCH  ACCESS:     0  HIT:     0  MISS:     0  HIT %:     0  MISS %:     0  AVERAGE MISS PENALTY: 0
STLB WRITEBACK ACCESS:     0  HIT:     0  MISS:     0  HIT %:     0  MISS %:     0  AVERAGE MISS PENALTY: 0
STLB PREFETCH  REQUESTED:     0  ISSUED:     0  USEFUL:     0  USELESS:     0
 USEFUL LOAD PREFETCHES:          0 PREFETCH ISSUED TO LOWER LEVEL:          0  ACCURACY: -nan
 TIMELY PREFETCHES:          0 LATE PREFETCHES: 0 DROPPED PREFETCHES: 0
STLB AVERAGE MISS LATENCY: 100 cycles
L1D TOTAL     ACCESS: 95128441  HIT: 33537099  MISS: 61591342  HIT %: 35.2545  MISS %: 64.7455  AVERAGE MISS PENALTY: 5.22435e+06
L1D LOAD      ACCESS: 45748281  HIT: 29563179  MISS: 16185102  HIT %: 64.6214  MISS %: 35.3786  AVERAGE MISS PENALTY: 1.98799e+07
L1D RFO       ACCESS: 54782  HIT: 54782  MISS:     0  HIT %:   100  MISS %:     0  AVERAGE MISS PENALTY: 0
L1D PREFETCH  ACCESS: 49325378  HIT: 3919138  MISS: 45406240  HIT %: 7.94548  MISS %: 92.0545  AVERAGE MISS PENALTY: 356.606
L1D WRITEBACK ACCESS:     0  HIT:     0  MISS:     0  HIT %:     0  MISS %:     0  AVERAGE MISS PENALTY: 0
L1D PREFETCH  REQUESTED: 63092024  ISSUED: 50590864  USEFUL: 1500351  USELESS: 43905911
 USEFUL LOAD PREFETCHES:    1500351 PREFETCH ISSUED TO LOWER LEVEL:  320697819  ACCURACY: 0.467839
 TIMELY PREFETCHES:    1500351 LATE PREFETCHES: 475892 DROPPED PREFETCHES: 12501160
L1D AVERAGE MISS LATENCY: 278.569 cycles
L1I TOTAL     ACCESS: 44491382  HIT: 44491382  MISS:     0  HIT %:   100  MISS %:     0  AVERAGE MISS PENALTY: 0
L1I LOAD      ACCESS: 44491382  HIT: 44491382  MISS:     0  HIT %:   100  MISS %:     0  AVERAGE MISS PENALTY: 0
L1I RFO       ACCESS:     0  HIT:     0  MISS:     0  HIT %:     0  MISS %:     0  AVERAGE MISS PENALTY: 0
L1I PREFETCH  ACCESS:     0  HIT:     0  MISS:     0  HIT %:     0  MISS %:     0  AVERAGE MISS PENALTY: 0
L1I WRITEBACK ACCESS:     0  HIT:     0  MISS:     0  HIT %:     0  MISS %:     0  AVERAGE MISS PENALTY: 0
L1I PREFETCH  REQUESTED:     0  ISSUED:     0  USEFUL:     0  USELESS:     0
 USEFUL LOAD PREFETCHES:          0 PREFETCH ISSUED TO LOWER LEVEL:          0  ACCURACY: -nan
 TIMELY PREFETCHES:          0 LATE PREFETCHES: 0 DROPPED PREFETCHES: 0
L1I AVERAGE MISS LATENCY: -nan cycles
L2C TOTAL     ACCESS: 95071078  HIT: 5194518  MISS: 89876560  HIT %: 5.46383  MISS %: 94.5362  AVERAGE MISS PENALTY: 4.25142e+06
L2C LOAD      ACCESS: 16180186  HIT: 283344  MISS: 15896842  HIT %: 1.75118  MISS %: 98.2488  AVERAGE MISS PENALTY: 2.40351e+07
L2C RFO       ACCESS:     0  HIT:     0  MISS:     0  HIT %:     0  MISS %:     0  AVERAGE MISS PENALTY: 0
L2C PREFETCH  ACCESS: 78844116  HIT: 4897724  MISS: 73946392  HIT %: 6.21191  MISS %: 93.7881  AVERAGE MISS PENALTY: 293.671
L2C WRITEBACK ACCESS: 46776  HIT: 13450  MISS: 33326  HIT %: 28.7541  MISS %: 71.2459  AVERAGE MISS PENALTY: 0
L2C PREFETCH  REQUESTED: 108392701  ISSUED: 107976657  USEFUL: 240877  USELESS: 73705427
 USEFUL LOAD PREFETCHES:     240877 PREFETCH ISSUED TO LOWER LEVEL:   82316282  ACCURACY: 0.292624
 TIMELY PREFETCHES:     240877 LATE PREFETCHES: 797094 DROPPED PREFETCHES: 416044
L2C AVERAGE MISS LATENCY: 282.033 cycles
LLC0 TOTAL     ACCESS: 11500484  HIT: 6088943  MISS: 5411541  HIT %: 52.9451  MISS %: 47.0549  AVERAGE MISS PENALTY: 563.499
LLC0 LOAD      ACCESS: 1993750  HIT: 1125115  MISS: 868635  HIT %: 56.4321  MISS %: 43.5679  AVERAGE MISS PENALTY: 554.433
LLC0 RFO       ACCESS:     0  HIT:     0  MISS:     0  HIT %:     0  MISS %:     0  AVERAGE MISS PENALTY: 0
LLC0 PREFETCH  ACCESS: 9500935  HIT: 4958258  MISS: 4542677  HIT %: 52.1871  MISS %: 47.8129  AVERAGE MISS PENALTY: 565.261
LLC0 WRITEBACK ACCESS:  5799  HIT:  5570  MISS:   229  HIT %: 96.051  MISS %: 3.94896  AVERAGE MISS PENALTY: 0
LLC0 PREFETCH  REQUESTED:     0  ISSUED:     0  USEFUL: 3546043  USELESS: 32822696
 USEFUL LOAD PREFETCHES:    3546043 PREFETCH ISSUED TO LOWER LEVEL:   41839082  ACCURACY: 8.47543
 TIMELY PREFETCHES:    3546043 LATE PREFETCHES: 0 DROPPED PREFETCHES: 0
LLC0 AVERAGE MISS LATENCY: 563.499 cycles
Deadblocks : 6102942 Deadblock percentage : 702.59

LLC1 TOTAL     ACCESS: 11632437  HIT: 6153203  MISS: 5479234  HIT %: 52.8969  MISS %: 47.1031  AVERAGE MISS PENALTY: 553.928
LLC1 LOAD      ACCESS: 1931864  HIT: 1104354  MISS: 827510  HIT %: 57.1652  MISS %: 42.8348  AVERAGE MISS PENALTY: 545.472
LLC1 RFO       ACCESS:     0  HIT:     0  MISS:     0  HIT %:     0  MISS %:     0  AVERAGE MISS PENALTY: 0
LLC1 PREFETCH  ACCESS: 9694730  HIT: 5043267  MISS: 4651463  HIT %: 52.0207  MISS %: 47.9793  AVERAGE MISS PENALTY: 555.463
LLC1 WRITEBACK ACCESS:  5843  HIT:  5582  MISS:   261  HIT %: 95.5331  MISS %: 4.46688  AVERAGE MISS PENALTY: 0
LLC1 PREFETCH  REQUESTED:     0  ISSUED:     0  USEFUL: 3543705  USELESS: 33701236
 USEFUL LOAD PREFETCHES:    3543705 PREFETCH ISSUED TO LOWER LEVEL:   40707075  ACCURACY: 8.70538
 TIMELY PREFETCHES:    3543705 LATE PREFETCHES: 0 DROPPED PREFETCHES: 0
LLC1 AVERAGE MISS LATENCY: 553.928 cycles
LLC2 TOTAL     ACCESS: 11629274  HIT: 6166967  MISS: 5462307  HIT %: 53.0297  MISS %: 46.9703  AVERAGE MISS PENALTY: 556.232
LLC2 LOAD      ACCESS: 2009534  HIT: 1158831  MISS: 850703  HIT %: 57.6667  MISS %: 42.3333  AVERAGE MISS PENALTY: 554.638
LLC2 RFO       ACCESS:     0  HIT:     0  MISS:     0  HIT %:     0  MISS %:     0  AVERAGE MISS PENALTY: 0
LLC2 PREFETCH  ACCESS: 9613904  HIT: 5002518  MISS: 4611386  HIT %: 52.0342  MISS %: 47.9658  AVERAGE MISS PENALTY: 556.553
LLC2 WRITEBACK ACCESS:  5836  HIT:  5618  MISS:   218  HIT %: 96.2646  MISS %: 3.73544  AVERAGE MISS PENALTY: 0
LLC2 PREFETCH  REQUESTED:     0  ISSUED:     0  USEFUL: 3539348  USELESS: 33375303
 USEFUL LOAD PREFETCHES:    3539348 PREFETCH ISSUED TO LOWER LEVEL:   46256006  ACCURACY: 7.65165
 TIMELY PREFETCHES:    3539348 LATE PREFETCHES: 0 DROPPED PREFETCHES: 0
LLC2 AVERAGE MISS LATENCY: 556.232 cycles
LLC3 TOTAL     ACCESS: 11319230  HIT: 5992934  MISS: 5326296  HIT %: 52.9447  MISS %: 47.0553  AVERAGE MISS PENALTY: 547.215
LLC3 LOAD      ACCESS: 1858405  HIT: 1038459  MISS: 819946  HIT %: 55.879  MISS %: 44.121  AVERAGE MISS PENALTY: 545.078
LLC3 RFO       ACCESS:     0  HIT:     0  MISS:     0  HIT %:     0  MISS %:     0  AVERAGE MISS PENALTY: 0
LLC3 PREFETCH  ACCESS: 9454937  HIT: 4948840  MISS: 4506097  HIT %: 52.3413  MISS %: 47.6587  AVERAGE MISS PENALTY: 547.635
LLC3 WRITEBACK ACCESS:  5888  HIT:  5635  MISS:   253  HIT %: 95.7031  MISS %: 4.29688  AVERAGE MISS PENALTY: 0
LLC3 PREFETCH  REQUESTED:     0  ISSUED:     0  USEFUL: 3514433  USELESS: 32571378
 USEFUL LOAD PREFETCHES:    3514433 PREFETCH ISSUED TO LOWER LEVEL:   41801111  ACCURACY: 8.40751
 TIMELY PREFETCHES:    3514433 LATE PREFETCHES: 0 DROPPED PREFETCHES: 0
LLC3 AVERAGE MISS LATENCY: 547.215 cycles
LLC4 TOTAL     ACCESS: 11238612  HIT: 5975272  MISS: 5263340  HIT %: 53.1673  MISS %: 46.8327  AVERAGE MISS PENALTY: 501.441
LLC4 LOAD      ACCESS: 1992856  HIT: 1152319  MISS: 840537  HIT %: 57.8225  MISS %: 42.1775  AVERAGE MISS PENALTY: 490.574
LLC4 RFO       ACCESS:     0  HIT:     0  MISS:     0  HIT %:     0  MISS %:     0  AVERAGE MISS PENALTY: 0
LLC4 PREFETCH  ACCESS: 9239851  HIT: 4817279  MISS: 4422572  HIT %: 52.1359  MISS %: 47.8641  AVERAGE MISS PENALTY: 503.533
LLC4 WRITEBACK ACCESS:  5905  HIT:  5674  MISS:   231  HIT %: 96.0881  MISS %: 3.91194  AVERAGE MISS PENALTY: 0
LLC4 PREFETCH  REQUESTED:     0  ISSUED:     0  USEFUL: 3466693  USELESS: 31942537
 USEFUL LOAD PREFETCHES:    3466693 PREFETCH ISSUED TO LOWER LEVEL:   49785237  ACCURACY: 6.9633
 TIMELY PREFETCHES:    3466693 LATE PREFETCHES: 0 DROPPED PREFETCHES: 0
LLC4 AVERAGE MISS LATENCY: 501.441 cycles
LLC5 TOTAL     ACCESS: 11060903  HIT: 5895265  MISS: 5165638  HIT %: 53.2982  MISS %: 46.7018  AVERAGE MISS PENALTY: 480.344
LLC5 LOAD      ACCESS: 2006116  HIT: 1158142  MISS: 847974  HIT %: 57.7306  MISS %: 42.2694  AVERAGE MISS PENALTY: 466.84
LLC5 RFO       ACCESS:     0  HIT:     0  MISS:     0  HIT %:     0  MISS %:     0  AVERAGE MISS PENALTY: 0
LLC5 PREFETCH  ACCESS: 9048903  HIT: 4731478  MISS: 4317425  HIT %: 52.2879  MISS %: 47.7121  AVERAGE MISS PENALTY: 483.023
LLC5 WRITEBACK ACCESS:  5884  HIT:  5645  MISS:   239  HIT %: 95.9381  MISS %: 4.06186  AVERAGE MISS PENALTY: 0
LLC5 PREFETCH  REQUESTED:     0  ISSUED:     0  USEFUL: 3449263  USELESS: 31126059
 USEFUL LOAD PREFETCHES:    3449263 PREFETCH ISSUED TO LOWER LEVEL:   43317679  ACCURACY: 7.96271
 TIMELY PREFETCHES:    3449263 LATE PREFETCHES: 0 DROPPED PREFETCHES: 0
LLC5 AVERAGE MISS LATENCY: 480.344 cycles
LLC6 TOTAL     ACCESS: 10829196  HIT: 5807878  MISS: 5021318  HIT %: 53.6317  MISS %: 46.3683  AVERAGE MISS PENALTY: 497.169
LLC6 LOAD      ACCESS: 1889631  HIT: 1064537  MISS: 825094  HIT %: 56.3357  MISS %: 43.6643  AVERAGE MISS PENALTY: 487.127
LLC6 RFO       ACCESS:     0  HIT:     0  MISS:     0  HIT %:     0  MISS %:     0  AVERAGE MISS PENALTY: 0
LLC6 PREFETCH  ACCESS: 8933711  HIT: 4737719  MISS: 4195992  HIT %: 53.0319  MISS %: 46.9681  AVERAGE MISS PENALTY: 499.171
LLC6 WRITEBACK ACCESS:  5854  HIT:  5622  MISS:   232  HIT %: 96.0369  MISS %: 3.9631  AVERAGE MISS PENALTY: 0
LLC6 PREFETCH  REQUESTED:     0  ISSUED:     0  USEFUL: 3402736  USELESS: 30192430
 USEFUL LOAD PREFETCHES:    3402736 PREFETCH ISSUED TO LOWER LEVEL:   54603953  ACCURACY: 6.23167
 TIMELY PREFETCHES:    3402736 LATE PREFETCHES: 0 DROPPED PREFETCHES: 0
LLC6 AVERAGE MISS LATENCY: 497.169 cycles
LLC7 TOTAL     ACCESS: 10679876  HIT: 5818543  MISS: 4861333  HIT %: 54.4814  MISS %: 45.5186  AVERAGE MISS PENALTY: 477.517
LLC7 LOAD      ACCESS: 2009469  HIT: 1160421  MISS: 849048  HIT %: 57.7476  MISS %: 42.2524  AVERAGE MISS PENALTY: 462.266
LLC7 RFO       ACCESS:     0  HIT:     0  MISS:     0  HIT %:     0  MISS %:     0  AVERAGE MISS PENALTY: 0
LLC7 PREFETCH  ACCESS: 8664640  HIT: 4652602  MISS: 4012038  HIT %: 53.6964  MISS %: 46.3036  AVERAGE MISS PENALTY: 480.773
LLC7 WRITEBACK ACCESS:  5767  HIT:  5520  MISS:   247  HIT %: 95.717  MISS %: 4.28299  AVERAGE MISS PENALTY: 0
LLC7 PREFETCH  REQUESTED:     0  ISSUED:     0  USEFUL: 3401043  USELESS: 28720123
 USEFUL LOAD PREFETCHES:    3401043 PREFETCH ISSUED TO LOWER LEVEL:   44732564  ACCURACY: 7.60306
 TIMELY PREFETCHES:    3401043 LATE PREFETCHES: 0 DROPPED PREFETCHES: 0
LLC7 AVERAGE MISS LATENCY: 477.517 cycles
ROI Average ROB Stall Cycles:	30.4608
ROI Total ROB Stalls Cycles:	2873191107
ROI TOTAL ROB counter      :	94324362
ROI Average Load ROB Stall Cycles:	193.806
ROI Total Load ROB Stalls Cycle  :	1812150282
ROI Total Load ROB stalls Counter:	9350336
Major fault: 0 Minor fault: 33137








Interconnect Stats 
LINK 0 BW : 0LINK 1 BW : 0LINK 2 BW : 0LINK 3 BW : 0LINK 4 BW : 0LINK 5 BW : 0LINK 6 BW : 0LINK 7 BW : 0
DRAM Statistics
 CHANNEL 0
 RQ ROW_BUFFER_HIT: 52274787  ROW_BUFFER_MISS: 117059698
 DBUS_CONGESTED: 77068619
 WQ ROW_BUFFER_HIT: 32881  ROW_BUFFER_MISS: 154217  FULL:     0

 CHANNEL 1
 RQ ROW_BUFFER_HIT: 50960329  ROW_BUFFER_MISS: 115780887
 DBUS_CONGESTED: 77068619
 WQ ROW_BUFFER_HIT: 33098  ROW_BUFFER_MISS: 153802  FULL:     0

 AVG_CONGESTED_CYCLE: 4
DRAM PAGES: 2097152
Allocated PAGES: 265163
L2C destructor called
L1D destructor called
L1I destructor called
STLB destructor called
DTLB destructor called
ITLB destructor called
L2C destructor called
L1D destructor called
L1I destructor called
STLB destructor called
DTLB destructor called
ITLB destructor called
L2C destructor called
L1D destructor called
L1I destructor called
STLB destructor called
DTLB destructor called
ITLB destructor called
L2C destructor called
L1D destructor called
L1I destructor called
STLB destructor called
DTLB destructor called
ITLB destructor called
L2C destructor called
L1D destructor called
L1I destructor called
STLB destructor called
DTLB destructor called
ITLB destructor called
L2C destructor called
L1D destructor called
L1I destructor called
STLB destructor called
DTLB destructor called
ITLB destructor called
L2C destructor called
L1D destructor called
L1I destructor called
STLB destructor called
DTLB destructor called
ITLB destructor called
L2C destructor called
L1D destructor called
L1I destructor called
STLB destructor called
DTLB destructor called
ITLB destructor called
