
*** ChampSim Multicore Out-of-Order Simulator ***

Warmup Instructions: 200000000
Simulation Instructions: 200000000
Number of CPUs: 8
threads:1

L1I Configuration:
L1I_SET:64
L1I_WAY:8
L1I_RQ_SIZE:64
L1I_WQ_SIZE:64
L1I_PQ_SIZE:8
L1I_MSHR_SIZE:8

L1D Configuration:
L1D_SET:64
L1D_WAY:12
L1D_RQ_SIZE:64
L1D_WQ_SIZE:64
L1D_PQ_SIZE:8
L1D_MSHR_SIZE:16

L2C Configuration:
L2C_SET:1024
L2C_WAY:8
L2C_RQ_SIZE:32
L2C_WQ_SIZE:32
L2C_PQ_SIZE:16
L2C_MSHR_SIZE:32

LLC Configuration:
LLC_SET:2048
LLC_WAY:16
LLC SLICES:8
LLC_RQ_SIZE:64
LLC_WQ_SIZE:64
LLC_PQ_SIZE:32
LLC_MSHR_SIZE:64

Interconnect OFF
Attacker deprioritize is: OFF
Off-chip DRAM Size: 8192 MB Channels: 2 Width: 64-bit Data Rate: 3200 MT/s
PAGE SIZE in KB: 4.000000 
PAGE SIZE in MB: 0.003906 
PAGE offset in bits: 12 
CEASER-S_LLC:0
MIRAGE : 1
CEASER_LATENCY:3
REMAP : OFF
Partitions : 1
Multi-Step : OFF
BFS : OFF

CPU 0 runs /home/anubhav/gap/pr-5.trace.gz
CPU 1 runs /home/anubhav/gap/pr-5.trace.gz
CPU 2 runs /home/anubhav/gap/pr-5.trace.gz
CPU 3 runs /home/anubhav/gap/pr-5.trace.gz
CPU 4 runs /home/anubhav/gap/pr-5.trace.gz
CPU 5 runs /home/anubhav/gap/pr-5.trace.gz
CPU 6 runs /home/anubhav/gap/pr-5.trace.gz
CPU 7 runs /home/anubhav/gap/pr-5.trace.gz
CPU 0 Bimodal branch predictor
Initialize Hawkeye state
Initialize Hawkeye state
Initialize Hawkeye state
Initialize Hawkeye state
Initialize Hawkeye state
Initialize Hawkeye state
Initialize Hawkeye state
Initialize Hawkeye state
CPU 1 Bimodal branch predictor
Initialize Hawkeye state
Initialize Hawkeye state
Initialize Hawkeye state
Initialize Hawkeye state
Initialize Hawkeye state
Initialize Hawkeye state
Initialize Hawkeye state
Initialize Hawkeye state
CPU 2 Bimodal branch predictor
Initialize Hawkeye state
Initialize Hawkeye state
Initialize Hawkeye state
Initialize Hawkeye state
Initialize Hawkeye state
Initialize Hawkeye state
Initialize Hawkeye state
Initialize Hawkeye state
CPU 3 Bimodal branch predictor
Initialize Hawkeye state
Initialize Hawkeye state
Initialize Hawkeye state
Initialize Hawkeye state
Initialize Hawkeye state
Initialize Hawkeye state
Initialize Hawkeye state
Initialize Hawkeye state
CPU 4 Bimodal branch predictor
Initialize Hawkeye state
Initialize Hawkeye state
Initialize Hawkeye state
Initialize Hawkeye state
Initialize Hawkeye state
Initialize Hawkeye state
Initialize Hawkeye state
Initialize Hawkeye state
CPU 5 Bimodal branch predictor
Initialize Hawkeye state
Initialize Hawkeye state
Initialize Hawkeye state
Initialize Hawkeye state
Initialize Hawkeye state
Initialize Hawkeye state
Initialize Hawkeye state
Initialize Hawkeye state
CPU 6 Bimodal branch predictor
Initialize Hawkeye state
Initialize Hawkeye state
Initialize Hawkeye state
Initialize Hawkeye state
Initialize Hawkeye state
Initialize Hawkeye state
Initialize Hawkeye state
Initialize Hawkeye state
CPU 7 Bimodal branch predictor
Initialize Hawkeye state
Initialize Hawkeye state
Initialize Hawkeye state
Initialize Hawkeye state
Initialize Hawkeye state
Initialize Hawkeye state
Initialize Hawkeye state
Initialize Hawkeye state
Heartbeat CPU 0 instructions: 10000001 cycles: 3863822 heartbeat IPC: 2.58811 cumulative IPC: 2.58811 (Simulation time: 0 hr 26 min 54 sec) 
 Total Blocks : 262144 Invalid Blocks : 221
Heartbeat CPU 1 instructions: 10000001 cycles: 3863826 heartbeat IPC: 2.58811 cumulative IPC: 2.58811 (Simulation time: 0 hr 26 min 54 sec) 
 Total Blocks : 262144 Invalid Blocks : 221
Heartbeat CPU 2 instructions: 10000001 cycles: 3863831 heartbeat IPC: 2.58811 cumulative IPC: 2.58811 (Simulation time: 0 hr 26 min 54 sec) 
 Total Blocks : 262144 Invalid Blocks : 221
Heartbeat CPU 3 instructions: 10000001 cycles: 3863837 heartbeat IPC: 2.5881 cumulative IPC: 2.5881 (Simulation time: 0 hr 26 min 54 sec) 
 Total Blocks : 262144 Invalid Blocks : 221
Heartbeat CPU 4 instructions: 10000001 cycles: 3863840 heartbeat IPC: 2.5881 cumulative IPC: 2.5881 (Simulation time: 0 hr 26 min 54 sec) 
 Total Blocks : 262144 Invalid Blocks : 221
Heartbeat CPU 5 instructions: 10000001 cycles: 3863844 heartbeat IPC: 2.5881 cumulative IPC: 2.5881 (Simulation time: 0 hr 26 min 54 sec) 
 Total Blocks : 262144 Invalid Blocks : 221
Heartbeat CPU 6 instructions: 10000001 cycles: 3863848 heartbeat IPC: 2.58809 cumulative IPC: 2.58809 (Simulation time: 0 hr 26 min 54 sec) 
 Total Blocks : 262144 Invalid Blocks : 221
Heartbeat CPU 7 instructions: 10000001 cycles: 3863849 heartbeat IPC: 2.58809 cumulative IPC: 2.58809 (Simulation time: 0 hr 26 min 54 sec) 
 Total Blocks : 262144 Invalid Blocks : 221
Heartbeat CPU 0 instructions: 20000000 cycles: 13265737 heartbeat IPC: 1.06361 cumulative IPC: 1.50764 (Simulation time: 1 hr 3 min 43 sec) 
 Total Blocks : 262144 Invalid Blocks : 0
Heartbeat CPU 1 instructions: 20000000 cycles: 13268666 heartbeat IPC: 1.06328 cumulative IPC: 1.50731 (Simulation time: 1 hr 3 min 44 sec) 
 Total Blocks : 262144 Invalid Blocks : 0
Heartbeat CPU 2 instructions: 20000000 cycles: 13272144 heartbeat IPC: 1.06289 cumulative IPC: 1.50692 (Simulation time: 1 hr 3 min 45 sec) 
 Total Blocks : 262144 Invalid Blocks : 0
Heartbeat CPU 3 instructions: 20000000 cycles: 13276616 heartbeat IPC: 1.06239 cumulative IPC: 1.50641 (Simulation time: 1 hr 3 min 46 sec) 
 Total Blocks : 262144 Invalid Blocks : 0
Heartbeat CPU 4 instructions: 20000000 cycles: 13280048 heartbeat IPC: 1.062 cumulative IPC: 1.50602 (Simulation time: 1 hr 3 min 47 sec) 
 Total Blocks : 262144 Invalid Blocks : 0
Heartbeat CPU 5 instructions: 20000000 cycles: 13282643 heartbeat IPC: 1.06171 cumulative IPC: 1.50572 (Simulation time: 1 hr 3 min 47 sec) 
 Total Blocks : 262144 Invalid Blocks : 0
Heartbeat CPU 6 instructions: 20000000 cycles: 13285891 heartbeat IPC: 1.06134 cumulative IPC: 1.50536 (Simulation time: 1 hr 3 min 48 sec) 
 Total Blocks : 262144 Invalid Blocks : 0
Heartbeat CPU 7 instructions: 20000000 cycles: 13288973 heartbeat IPC: 1.06099 cumulative IPC: 1.50501 (Simulation time: 1 hr 3 min 48 sec) 
 Total Blocks : 262144 Invalid Blocks : 0
Heartbeat CPU 0 instructions: 30000000 cycles: 24128501 heartbeat IPC: 0.920576 cumulative IPC: 1.24334 (Simulation time: 1 hr 54 min 20 sec) 
 Total Blocks : 262144 Invalid Blocks : 0
Heartbeat CPU 1 instructions: 30000000 cycles: 24157344 heartbeat IPC: 0.918385 cumulative IPC: 1.24186 (Simulation time: 1 hr 54 min 32 sec) 
 Total Blocks : 262144 Invalid Blocks : 0
Heartbeat CPU 2 instructions: 30000000 cycles: 24180066 heartbeat IPC: 0.916765 cumulative IPC: 1.24069 (Simulation time: 1 hr 54 min 40 sec) 
 Total Blocks : 262144 Invalid Blocks : 0
Heartbeat CPU 3 instructions: 30000000 cycles: 24202535 heartbeat IPC: 0.915255 cumulative IPC: 1.23954 (Simulation time: 1 hr 54 min 48 sec) 
 Total Blocks : 262144 Invalid Blocks : 0
Heartbeat CPU 4 instructions: 30000000 cycles: 24222670 heartbeat IPC: 0.913858 cumulative IPC: 1.23851 (Simulation time: 1 hr 54 min 55 sec) 
 Total Blocks : 262144 Invalid Blocks : 0
Heartbeat CPU 5 instructions: 30000000 cycles: 24239912 heartbeat IPC: 0.912636 cumulative IPC: 1.23763 (Simulation time: 1 hr 55 min 2 sec) 
 Total Blocks : 262144 Invalid Blocks : 0
Heartbeat CPU 6 instructions: 30000000 cycles: 24259660 heartbeat IPC: 0.911264 cumulative IPC: 1.23662 (Simulation time: 1 hr 55 min 9 sec) 
 Total Blocks : 262144 Invalid Blocks : 0
Heartbeat CPU 7 instructions: 30000000 cycles: 24277229 heartbeat IPC: 0.910063 cumulative IPC: 1.23573 (Simulation time: 1 hr 55 min 15 sec) 
 Total Blocks : 262144 Invalid Blocks : 0
Heartbeat CPU 0 instructions: 40000001 cycles: 36487080 heartbeat IPC: 0.809155 cumulative IPC: 1.09628 (Simulation time: 3 hr 10 min 41 sec) 
 Total Blocks : 262144 Invalid Blocks : 0
Heartbeat CPU 1 instructions: 40000001 cycles: 36582384 heartbeat IPC: 0.804826 cumulative IPC: 1.09342 (Simulation time: 3 hr 11 min 21 sec) 
 Total Blocks : 262144 Invalid Blocks : 0
Heartbeat CPU 2 instructions: 40000001 cycles: 36656900 heartbeat IPC: 0.801485 cumulative IPC: 1.0912 (Simulation time: 3 hr 11 min 49 sec) 
 Total Blocks : 262144 Invalid Blocks : 0
Heartbeat CPU 3 instructions: 40000001 cycles: 36728820 heartbeat IPC: 0.798321 cumulative IPC: 1.08906 (Simulation time: 3 hr 12 min 19 sec) 
 Total Blocks : 262144 Invalid Blocks : 0
Heartbeat CPU 4 instructions: 40000001 cycles: 36787997 heartbeat IPC: 0.795841 cumulative IPC: 1.08731 (Simulation time: 3 hr 12 min 41 sec) 
 Total Blocks : 262144 Invalid Blocks : 0
Heartbeat CPU 5 instructions: 40000001 cycles: 36845005 heartbeat IPC: 0.79333 cumulative IPC: 1.08563 (Simulation time: 3 hr 13 min 2 sec) 
 Total Blocks : 262144 Invalid Blocks : 0
Heartbeat CPU 6 instructions: 40000001 cycles: 36902377 heartbeat IPC: 0.790969 cumulative IPC: 1.08394 (Simulation time: 3 hr 13 min 25 sec) 
 Total Blocks : 262144 Invalid Blocks : 0
Heartbeat CPU 7 instructions: 40000001 cycles: 36957383 heartbeat IPC: 0.788634 cumulative IPC: 1.08233 (Simulation time: 3 hr 13 min 47 sec) 
 Total Blocks : 262144 Invalid Blocks : 0
Heartbeat CPU 0 instructions: 50000002 cycles: 48825103 heartbeat IPC: 0.810503 cumulative IPC: 1.02406 (Simulation time: 4 hr 28 min 25 sec) 
 Total Blocks : 262144 Invalid Blocks : 0
Heartbeat CPU 1 instructions: 50000002 cycles: 48978653 heartbeat IPC: 0.806694 cumulative IPC: 1.02085 (Simulation time: 4 hr 29 min 24 sec) 
 Total Blocks : 262144 Invalid Blocks : 0
Heartbeat CPU 2 instructions: 50000002 cycles: 49107359 heartbeat IPC: 0.803183 cumulative IPC: 1.01818 (Simulation time: 4 hr 30 min 11 sec) 
 Total Blocks : 262144 Invalid Blocks : 0
Heartbeat CPU 3 instructions: 50000002 cycles: 49222816 heartbeat IPC: 0.800385 cumulative IPC: 1.01579 (Simulation time: 4 hr 30 min 56 sec) 
 Total Blocks : 262144 Invalid Blocks : 0
Heartbeat CPU 4 instructions: 50000002 cycles: 49323166 heartbeat IPC: 0.797756 cumulative IPC: 1.01372 (Simulation time: 4 hr 31 min 35 sec) 
 Total Blocks : 262144 Invalid Blocks : 0
Heartbeat CPU 5 instructions: 50000002 cycles: 49416219 heartbeat IPC: 0.795468 cumulative IPC: 1.01181 (Simulation time: 4 hr 32 min 11 sec) 
 Total Blocks : 262144 Invalid Blocks : 0
Heartbeat CPU 6 instructions: 50000002 cycles: 49512178 heartbeat IPC: 0.793034 cumulative IPC: 1.00985 (Simulation time: 4 hr 32 min 48 sec) 
 Total Blocks : 262144 Invalid Blocks : 0
Heartbeat CPU 7 instructions: 50000002 cycles: 49599261 heartbeat IPC: 0.791022 cumulative IPC: 1.00808 (Simulation time: 4 hr 33 min 20 sec) 
 Total Blocks : 262144 Invalid Blocks : 0
Heartbeat CPU 0 instructions: 60000000 cycles: 60901763 heartbeat IPC: 0.828043 cumulative IPC: 0.985193 (Simulation time: 5 hr 45 min 5 sec) 
 Total Blocks : 262144 Invalid Blocks : 0
Heartbeat CPU 1 instructions: 60000000 cycles: 61120386 heartbeat IPC: 0.823605 cumulative IPC: 0.981669 (Simulation time: 5 hr 46 min 30 sec) 
 Total Blocks : 262144 Invalid Blocks : 0
Heartbeat CPU 2 instructions: 60000000 cycles: 61298089 heartbeat IPC: 0.820295 cumulative IPC: 0.978823 (Simulation time: 5 hr 47 min 38 sec) 
 Total Blocks : 262144 Invalid Blocks : 0
Heartbeat CPU 3 instructions: 60000000 cycles: 61460260 heartbeat IPC: 0.817164 cumulative IPC: 0.976241 (Simulation time: 5 hr 48 min 40 sec) 
 Total Blocks : 262144 Invalid Blocks : 0
Heartbeat CPU 4 instructions: 60000000 cycles: 61596189 heartbeat IPC: 0.814795 cumulative IPC: 0.974086 (Simulation time: 5 hr 49 min 33 sec) 
 Total Blocks : 262144 Invalid Blocks : 0
Heartbeat CPU 5 instructions: 60000000 cycles: 61730430 heartbeat IPC: 0.81207 cumulative IPC: 0.971968 (Simulation time: 5 hr 50 min 24 sec) 
 Total Blocks : 262144 Invalid Blocks : 0
Heartbeat CPU 6 instructions: 60000000 cycles: 61858059 heartbeat IPC: 0.809987 cumulative IPC: 0.969963 (Simulation time: 5 hr 51 min 14 sec) 
 Total Blocks : 262144 Invalid Blocks : 0
Heartbeat CPU 7 instructions: 60000000 cycles: 61978939 heartbeat IPC: 0.807775 cumulative IPC: 0.968071 (Simulation time: 5 hr 52 min 1 sec) 
 Total Blocks : 262144 Invalid Blocks : 0
Heartbeat CPU 0 instructions: 70000001 cycles: 73320068 heartbeat IPC: 0.805263 cumulative IPC: 0.954718 (Simulation time: 7 hr 4 min 53 sec) 
 Total Blocks : 262144 Invalid Blocks : 0
Heartbeat CPU 1 instructions: 70000001 cycles: 73606158 heartbeat IPC: 0.800912 cumulative IPC: 0.951007 (Simulation time: 7 hr 6 min 46 sec) 
 Total Blocks : 262144 Invalid Blocks : 0
Heartbeat CPU 2 instructions: 70000001 cycles: 73841726 heartbeat IPC: 0.797217 cumulative IPC: 0.947974 (Simulation time: 7 hr 8 min 21 sec) 
 Total Blocks : 262144 Invalid Blocks : 0
Heartbeat CPU 3 instructions: 70000001 cycles: 74044188 heartbeat IPC: 0.794665 cumulative IPC: 0.945381 (Simulation time: 7 hr 9 min 41 sec) 
 Total Blocks : 262144 Invalid Blocks : 0
Heartbeat CPU 4 instructions: 70000001 cycles: 74224042 heartbeat IPC: 0.7919 cumulative IPC: 0.943091 (Simulation time: 7 hr 10 min 54 sec) 
 Total Blocks : 262144 Invalid Blocks : 0
Heartbeat CPU 5 instructions: 70000001 cycles: 74393491 heartbeat IPC: 0.789699 cumulative IPC: 0.940943 (Simulation time: 7 hr 12 min 2 sec) 
 Total Blocks : 262144 Invalid Blocks : 0
Heartbeat CPU 6 instructions: 70000001 cycles: 74560211 heartbeat IPC: 0.787268 cumulative IPC: 0.938839 (Simulation time: 7 hr 13 min 9 sec) 
 Total Blocks : 262144 Invalid Blocks : 0
Heartbeat CPU 7 instructions: 70000001 cycles: 74715147 heartbeat IPC: 0.785163 cumulative IPC: 0.936892 (Simulation time: 7 hr 14 min 9 sec) 
 Total Blocks : 262144 Invalid Blocks : 0
Heartbeat CPU 0 instructions: 80000000 cycles: 85663525 heartbeat IPC: 0.810146 cumulative IPC: 0.933886 (Simulation time: 8 hr 26 min 28 sec) 
 Total Blocks : 262144 Invalid Blocks : 0
Heartbeat CPU 1 instructions: 80000000 cycles: 86013195 heartbeat IPC: 0.805994 cumulative IPC: 0.93009 (Simulation time: 8 hr 28 min 47 sec) 
 Total Blocks : 262144 Invalid Blocks : 0
Heartbeat CPU 2 instructions: 80000000 cycles: 86300528 heartbeat IPC: 0.802645 cumulative IPC: 0.926993 (Simulation time: 8 hr 30 min 43 sec) 
 Total Blocks : 262144 Invalid Blocks : 0
Heartbeat CPU 3 instructions: 80000000 cycles: 86545383 heartbeat IPC: 0.799923 cumulative IPC: 0.924371 (Simulation time: 8 hr 32 min 23 sec) 
 Total Blocks : 262144 Invalid Blocks : 0
Heartbeat CPU 4 instructions: 80000000 cycles: 86765745 heartbeat IPC: 0.79734 cumulative IPC: 0.922023 (Simulation time: 8 hr 33 min 52 sec) 
 Total Blocks : 262144 Invalid Blocks : 0
Heartbeat CPU 5 instructions: 80000000 cycles: 86973847 heartbeat IPC: 0.79489 cumulative IPC: 0.919817 (Simulation time: 8 hr 35 min 11 sec) 
 Total Blocks : 262144 Invalid Blocks : 0
Heartbeat CPU 6 instructions: 80000000 cycles: 87178882 heartbeat IPC: 0.792476 cumulative IPC: 0.917653 (Simulation time: 8 hr 36 min 38 sec) 
 Total Blocks : 262144 Invalid Blocks : 0
Heartbeat CPU 7 instructions: 80000000 cycles: 87372169 heartbeat IPC: 0.790075 cumulative IPC: 0.915623 (Simulation time: 8 hr 37 min 55 sec) 
 Total Blocks : 262144 Invalid Blocks : 0
Heartbeat CPU 0 instructions: 90000000 cycles: 97905439 heartbeat IPC: 0.816866 cumulative IPC: 0.919254 (Simulation time: 9 hr 50 min 33 sec) 
 Total Blocks : 262144 Invalid Blocks : 0
Heartbeat CPU 1 instructions: 90000000 cycles: 98314563 heartbeat IPC: 0.812918 cumulative IPC: 0.915429 (Simulation time: 9 hr 53 min 26 sec) 
 Total Blocks : 262144 Invalid Blocks : 0
Heartbeat CPU 2 instructions: 90000000 cycles: 98653513 heartbeat IPC: 0.809521 cumulative IPC: 0.912284 (Simulation time: 9 hr 55 min 52 sec) 
 Total Blocks : 262144 Invalid Blocks : 0
Heartbeat CPU 3 instructions: 90000000 cycles: 98942942 heartbeat IPC: 0.80661 cumulative IPC: 0.909615 (Simulation time: 9 hr 57 min 55 sec) 
 Total Blocks : 262144 Invalid Blocks : 0
Heartbeat CPU 4 instructions: 90000000 cycles: 99203995 heartbeat IPC: 0.803972 cumulative IPC: 0.907222 (Simulation time: 9 hr 59 min 46 sec) 
 Total Blocks : 262144 Invalid Blocks : 0
Heartbeat CPU 5 instructions: 90000000 cycles: 99449919 heartbeat IPC: 0.801534 cumulative IPC: 0.904978 (Simulation time: 10 hr 1 min 30 sec) 
 Total Blocks : 262144 Invalid Blocks : 0
Heartbeat CPU 6 instructions: 90000000 cycles: 99689870 heartbeat IPC: 0.799297 cumulative IPC: 0.9028 (Simulation time: 10 hr 3 min 6 sec) 
 Total Blocks : 262144 Invalid Blocks : 0
Heartbeat CPU 7 instructions: 90000000 cycles: 99915852 heartbeat IPC: 0.797214 cumulative IPC: 0.900758 (Simulation time: 10 hr 4 min 41 sec) 
 Total Blocks : 262144 Invalid Blocks : 0
Heartbeat CPU 0 instructions: 100000000 cycles: 110200685 heartbeat IPC: 0.813322 cumulative IPC: 0.907435 (Simulation time: 11 hr 16 min 55 sec) 
 Total Blocks : 262144 Invalid Blocks : 0
Heartbeat CPU 1 instructions: 100000000 cycles: 110673315 heartbeat IPC: 0.809143 cumulative IPC: 0.90356 (Simulation time: 11 hr 20 min 25 sec) 
 Total Blocks : 262144 Invalid Blocks : 0
Heartbeat CPU 2 instructions: 100000000 cycles: 111066922 heartbeat IPC: 0.80558 cumulative IPC: 0.900358 (Simulation time: 11 hr 23 min 18 sec) 
 Total Blocks : 262144 Invalid Blocks : 0
Heartbeat CPU 3 instructions: 100000000 cycles: 111401785 heartbeat IPC: 0.802643 cumulative IPC: 0.897652 (Simulation time: 11 hr 25 min 48 sec) 
 Total Blocks : 262144 Invalid Blocks : 0
Heartbeat CPU 4 instructions: 100000000 cycles: 111705511 heartbeat IPC: 0.799903 cumulative IPC: 0.895211 (Simulation time: 11 hr 28 min 3 sec) 
 Total Blocks : 262144 Invalid Blocks : 0
Heartbeat CPU 5 instructions: 100000000 cycles: 111988275 heartbeat IPC: 0.797553 cumulative IPC: 0.892951 (Simulation time: 11 hr 30 min 8 sec) 
 Total Blocks : 262144 Invalid Blocks : 0
Heartbeat CPU 6 instructions: 100000000 cycles: 112263536 heartbeat IPC: 0.795313 cumulative IPC: 0.890761 (Simulation time: 11 hr 32 min 10 sec) 
 Total Blocks : 262144 Invalid Blocks : 0
Heartbeat CPU 7 instructions: 100000000 cycles: 112523403 heartbeat IPC: 0.793175 cumulative IPC: 0.888704 (Simulation time: 11 hr 34 min 5 sec) 
 Total Blocks : 262144 Invalid Blocks : 0
Heartbeat CPU 0 instructions: 110000000 cycles: 122568808 heartbeat IPC: 0.80853 cumulative IPC: 0.897455 (Simulation time: 12 hr 47 min 23 sec) 
 Total Blocks : 262144 Invalid Blocks : 0
Heartbeat CPU 1 instructions: 110000000 cycles: 123105129 heartbeat IPC: 0.804388 cumulative IPC: 0.893545 (Simulation time: 12 hr 51 min 22 sec) 
 Total Blocks : 262144 Invalid Blocks : 0
Heartbeat CPU 2 instructions: 110000000 cycles: 123552178 heartbeat IPC: 0.800945 cumulative IPC: 0.890312 (Simulation time: 12 hr 54 min 46 sec) 
 Total Blocks : 262144 Invalid Blocks : 0
Heartbeat CPU 3 instructions: 110000000 cycles: 123931997 heartbeat IPC: 0.798071 cumulative IPC: 0.887584 (Simulation time: 12 hr 57 min 19 sec) 
 Total Blocks : 262144 Invalid Blocks : 0
Heartbeat CPU 4 instructions: 110000000 cycles: 124276803 heartbeat IPC: 0.795463 cumulative IPC: 0.885121 (Simulation time: 12 hr 59 min 45 sec) 
 Total Blocks : 262144 Invalid Blocks : 0
Heartbeat CPU 5 instructions: 110000000 cycles: 124598163 heartbeat IPC: 0.793028 cumulative IPC: 0.882838 (Simulation time: 13 hr 2 min 8 sec) 
 Total Blocks : 262144 Invalid Blocks : 0
Heartbeat CPU 6 instructions: 110000000 cycles: 124908598 heartbeat IPC: 0.790823 cumulative IPC: 0.880644 (Simulation time: 13 hr 4 min 28 sec) 
 Total Blocks : 262144 Invalid Blocks : 0
Heartbeat CPU 7 instructions: 110000000 cycles: 125205268 heartbeat IPC: 0.788528 cumulative IPC: 0.878557 (Simulation time: 13 hr 6 min 42 sec) 
 Total Blocks : 262144 Invalid Blocks : 0
Heartbeat CPU 0 instructions: 120000001 cycles: 134926699 heartbeat IPC: 0.8092 cumulative IPC: 0.889372 (Simulation time: 14 hr 19 min 21 sec) 
 Total Blocks : 262144 Invalid Blocks : 0
Heartbeat CPU 1 instructions: 120000001 cycles: 135527656 heartbeat IPC: 0.804989 cumulative IPC: 0.885428 (Simulation time: 14 hr 24 min 7 sec) 
 Total Blocks : 262144 Invalid Blocks : 0
Heartbeat CPU 2 instructions: 120000001 cycles: 136025667 heartbeat IPC: 0.8017 cumulative IPC: 0.882186 (Simulation time: 14 hr 28 min 2 sec) 
 Total Blocks : 262144 Invalid Blocks : 0
Heartbeat CPU 3 instructions: 120000001 cycles: 136450066 heartbeat IPC: 0.798845 cumulative IPC: 0.879443 (Simulation time: 14 hr 31 min 13 sec) 
 Total Blocks : 262144 Invalid Blocks : 0
Heartbeat CPU 4 instructions: 120000001 cycles: 136834174 heartbeat IPC: 0.796345 cumulative IPC: 0.876974 (Simulation time: 14 hr 34 min 16 sec) 
 Total Blocks : 262144 Invalid Blocks : 0
Heartbeat CPU 5 instructions: 120000001 cycles: 137193404 heartbeat IPC: 0.793951 cumulative IPC: 0.874678 (Simulation time: 14 hr 37 min 5 sec) 
 Total Blocks : 262144 Invalid Blocks : 0
Heartbeat CPU 6 instructions: 120000001 cycles: 137539516 heartbeat IPC: 0.791708 cumulative IPC: 0.872477 (Simulation time: 14 hr 39 min 49 sec) 
 Total Blocks : 262144 Invalid Blocks : 0
Heartbeat CPU 7 instructions: 120000001 cycles: 137870274 heartbeat IPC: 0.789577 cumulative IPC: 0.870383 (Simulation time: 14 hr 42 min 26 sec) 
 Total Blocks : 262144 Invalid Blocks : 0
Heartbeat CPU 0 instructions: 130000002 cycles: 147221375 heartbeat IPC: 0.81336 cumulative IPC: 0.883024 (Simulation time: 15 hr 55 min 10 sec) 
 Total Blocks : 262144 Invalid Blocks : 0
Heartbeat CPU 1 instructions: 130000002 cycles: 147886002 heartbeat IPC: 0.80917 cumulative IPC: 0.879056 (Simulation time: 16 hr 0 min 19 sec) 
 Total Blocks : 262144 Invalid Blocks : 0
Heartbeat CPU 2 instructions: 130000002 cycles: 148432666 heartbeat IPC: 0.805997 cumulative IPC: 0.875818 (Simulation time: 16 hr 4 min 51 sec) 
 Total Blocks : 262144 Invalid Blocks : 0
Heartbeat CPU 3 instructions: 130000002 cycles: 148900902 heartbeat IPC: 0.803159 cumulative IPC: 0.873064 (Simulation time: 16 hr 8 min 27 sec) 
 Total Blocks : 262144 Invalid Blocks : 0
Heartbeat CPU 4 instructions: 130000002 cycles: 149327381 heartbeat IPC: 0.800435 cumulative IPC: 0.87057 (Simulation time: 16 hr 11 min 55 sec) 
 Total Blocks : 262144 Invalid Blocks : 0
Heartbeat CPU 5 instructions: 130000002 cycles: 149723793 heartbeat IPC: 0.79806 cumulative IPC: 0.868266 (Simulation time: 16 hr 15 min 8 sec) 
 Total Blocks : 262144 Invalid Blocks : 0
Heartbeat CPU 6 instructions: 130000002 cycles: 150103079 heartbeat IPC: 0.795953 cumulative IPC: 0.866072 (Simulation time: 16 hr 18 min 14 sec) 
 Total Blocks : 262144 Invalid Blocks : 0
Heartbeat CPU 7 instructions: 130000002 cycles: 150469885 heartbeat IPC: 0.793675 cumulative IPC: 0.86396 (Simulation time: 16 hr 21 min 14 sec) 
 Total Blocks : 262144 Invalid Blocks : 0
Heartbeat CPU 0 instructions: 140000000 cycles: 159527949 heartbeat IPC: 0.812574 cumulative IPC: 0.877589 (Simulation time: 17 hr 34 min 45 sec) 
 Total Blocks : 262144 Invalid Blocks : 0
Heartbeat CPU 1 instructions: 140000000 cycles: 160255338 heartbeat IPC: 0.808451 cumulative IPC: 0.873606 (Simulation time: 17 hr 40 min 35 sec) 
 Total Blocks : 262144 Invalid Blocks : 0
Heartbeat CPU 2 instructions: 140000000 cycles: 160851209 heartbeat IPC: 0.805247 cumulative IPC: 0.87037 (Simulation time: 17 hr 45 min 20 sec) 
 Total Blocks : 262144 Invalid Blocks : 0
Heartbeat CPU 3 instructions: 140000000 cycles: 161363743 heartbeat IPC: 0.802385 cumulative IPC: 0.867605 (Simulation time: 17 hr 48 min 54 sec) 
 Total Blocks : 262144 Invalid Blocks : 0
Heartbeat CPU 4 instructions: 140000000 cycles: 161830532 heartbeat IPC: 0.799798 cumulative IPC: 0.865103 (Simulation time: 17 hr 52 min 44 sec) 
 Total Blocks : 262144 Invalid Blocks : 0
Heartbeat CPU 5 instructions: 140000000 cycles: 162263540 heartbeat IPC: 0.797464 cumulative IPC: 0.862794 (Simulation time: 17 hr 56 min 17 sec) 
 Total Blocks : 262144 Invalid Blocks : 0
Heartbeat CPU 6 instructions: 140000000 cycles: 162679322 heartbeat IPC: 0.79515 cumulative IPC: 0.860589 (Simulation time: 17 hr 59 min 43 sec) 
 Total Blocks : 262144 Invalid Blocks : 0
Heartbeat CPU 7 instructions: 140000000 cycles: 163079261 heartbeat IPC: 0.79306 cumulative IPC: 0.858478 (Simulation time: 18 hr 2 min 54 sec) 
 Total Blocks : 262144 Invalid Blocks : 0
Heartbeat CPU 0 instructions: 150000000 cycles: 171862865 heartbeat IPC: 0.810707 cumulative IPC: 0.872789 (Simulation time: 19 hr 12 min 25 sec) 
 Total Blocks : 262144 Invalid Blocks : 0
Heartbeat CPU 1 instructions: 150000000 cycles: 172655015 heartbeat IPC: 0.806473 cumulative IPC: 0.868784 (Simulation time: 19 hr 18 min 42 sec) 
 Total Blocks : 262144 Invalid Blocks : 0
Heartbeat CPU 2 instructions: 150000000 cycles: 173306889 heartbeat IPC: 0.802847 cumulative IPC: 0.865517 (Simulation time: 19 hr 23 min 54 sec) 
 Total Blocks : 262144 Invalid Blocks : 0
Heartbeat CPU 3 instructions: 150000000 cycles: 173866674 heartbeat IPC: 0.799812 cumulative IPC: 0.86273 (Simulation time: 19 hr 28 min 4 sec) 
 Total Blocks : 262144 Invalid Blocks : 0
Heartbeat CPU 4 instructions: 150000000 cycles: 174377204 heartbeat IPC: 0.797024 cumulative IPC: 0.860204 (Simulation time: 19 hr 32 min 27 sec) 
 Total Blocks : 262144 Invalid Blocks : 0
Heartbeat CPU 5 instructions: 150000000 cycles: 174849270 heartbeat IPC: 0.794551 cumulative IPC: 0.857882 (Simulation time: 19 hr 36 min 35 sec) 
 Total Blocks : 262144 Invalid Blocks : 0
Heartbeat CPU 6 instructions: 150000000 cycles: 175300995 heartbeat IPC: 0.792288 cumulative IPC: 0.855671 (Simulation time: 19 hr 40 min 29 sec) 
 Total Blocks : 262144 Invalid Blocks : 0
Heartbeat CPU 7 instructions: 150000000 cycles: 175737187 heartbeat IPC: 0.790019 cumulative IPC: 0.853547 (Simulation time: 19 hr 44 min 19 sec) 
 Total Blocks : 262144 Invalid Blocks : 0
Heartbeat CPU 0 instructions: 160000000 cycles: 184127199 heartbeat IPC: 0.815372 cumulative IPC: 0.868964 (Simulation time: 20 hr 53 min 50 sec) 
 Total Blocks : 262144 Invalid Blocks : 0
Heartbeat CPU 1 instructions: 160000000 cycles: 184982200 heartbeat IPC: 0.811215 cumulative IPC: 0.864948 (Simulation time: 21 hr 1 min 21 sec) 
 Total Blocks : 262144 Invalid Blocks : 0
Heartbeat CPU 2 instructions: 160000000 cycles: 185684704 heartbeat IPC: 0.807897 cumulative IPC: 0.861676 (Simulation time: 21 hr 7 min 37 sec) 
 Total Blocks : 262144 Invalid Blocks : 0
Heartbeat CPU 3 instructions: 160000000 cycles: 186288505 heartbeat IPC: 0.805034 cumulative IPC: 0.858883 (Simulation time: 21 hr 13 min 0 sec) 
 Total Blocks : 262144 Invalid Blocks : 0
Heartbeat CPU 4 instructions: 160000000 cycles: 186835933 heartbeat IPC: 0.80265 cumulative IPC: 0.856366 (Simulation time: 21 hr 17 min 52 sec) 
 Total Blocks : 262144 Invalid Blocks : 0
Heartbeat CPU 5 instructions: 160000000 cycles: 187347741 heartbeat IPC: 0.800098 cumulative IPC: 0.854027 (Simulation time: 21 hr 22 min 26 sec) 
 Total Blocks : 262144 Invalid Blocks : 0
Heartbeat CPU 6 instructions: 160000000 cycles: 187831428 heartbeat IPC: 0.798057 cumulative IPC: 0.851828 (Simulation time: 21 hr 26 min 45 sec) 
 Total Blocks : 262144 Invalid Blocks : 0
Heartbeat CPU 7 instructions: 160000000 cycles: 188304413 heartbeat IPC: 0.795721 cumulative IPC: 0.849688 (Simulation time: 21 hr 30 min 50 sec) 
 Total Blocks : 262144 Invalid Blocks : 0
Heartbeat CPU 0 instructions: 170000000 cycles: 196477331 heartbeat IPC: 0.809708 cumulative IPC: 0.86524 (Simulation time: 22 hr 40 min 19 sec) 
 Total Blocks : 262144 Invalid Blocks : 0
Heartbeat CPU 1 instructions: 170000000 cycles: 197396880 heartbeat IPC: 0.805498 cumulative IPC: 0.861209 (Simulation time: 22 hr 48 min 7 sec) 
 Total Blocks : 262144 Invalid Blocks : 0
Heartbeat CPU 2 instructions: 170000000 cycles: 198152478 heartbeat IPC: 0.802068 cumulative IPC: 0.857925 (Simulation time: 22 hr 54 min 21 sec) 
 Total Blocks : 262144 Invalid Blocks : 0
Heartbeat CPU 3 instructions: 170000000 cycles: 198801238 heartbeat IPC: 0.799186 cumulative IPC: 0.855125 (Simulation time: 23 hr 0 min 12 sec) 
 Total Blocks : 262144 Invalid Blocks : 0
Heartbeat CPU 4 instructions: 170000000 cycles: 199389037 heartbeat IPC: 0.796616 cumulative IPC: 0.852605 (Simulation time: 23 hr 5 min 31 sec) 
 Total Blocks : 262144 Invalid Blocks : 0
Heartbeat CPU 5 instructions: 170000000 cycles: 199940693 heartbeat IPC: 0.794095 cumulative IPC: 0.850252 (Simulation time: 23 hr 10 min 27 sec) 
 Total Blocks : 262144 Invalid Blocks : 0
Heartbeat CPU 6 instructions: 170000000 cycles: 200462843 heartbeat IPC: 0.791677 cumulative IPC: 0.848037 (Simulation time: 23 hr 14 min 45 sec) 
 Total Blocks : 262144 Invalid Blocks : 0
Heartbeat CPU 7 instructions: 170000000 cycles: 200968427 heartbeat IPC: 0.789639 cumulative IPC: 0.845904 (Simulation time: 23 hr 19 min 4 sec) 
 Total Blocks : 262144 Invalid Blocks : 0
Heartbeat CPU 0 instructions: 180000000 cycles: 208877145 heartbeat IPC: 0.806464 cumulative IPC: 0.861751 (Simulation time: 24 hr 27 min 32 sec) 
 Total Blocks : 262144 Invalid Blocks : 0
Heartbeat CPU 1 instructions: 180000000 cycles: 209859623 heartbeat IPC: 0.802392 cumulative IPC: 0.857716 (Simulation time: 24 hr 35 min 32 sec) 
 Total Blocks : 262144 Invalid Blocks : 0
Heartbeat CPU 2 instructions: 180000000 cycles: 210665280 heartbeat IPC: 0.799182 cumulative IPC: 0.854436 (Simulation time: 24 hr 42 min 50 sec) 
 Total Blocks : 262144 Invalid Blocks : 0
Heartbeat CPU 3 instructions: 180000000 cycles: 211361694 heartbeat IPC: 0.796149 cumulative IPC: 0.851621 (Simulation time: 24 hr 49 min 8 sec) 
 Total Blocks : 262144 Invalid Blocks : 0
Heartbeat CPU 4 instructions: 180000000 cycles: 211986408 heartbeat IPC: 0.793816 cumulative IPC: 0.849111 (Simulation time: 24 hr 54 min 48 sec) 
 Total Blocks : 262144 Invalid Blocks : 0
Heartbeat CPU 5 instructions: 180000000 cycles: 212576688 heartbeat IPC: 0.79139 cumulative IPC: 0.846753 (Simulation time: 25 hr 0 min 11 sec) 
 Total Blocks : 262144 Invalid Blocks : 0
Heartbeat CPU 6 instructions: 180000000 cycles: 213134257 heartbeat IPC: 0.789178 cumulative IPC: 0.844538 (Simulation time: 25 hr 5 min 18 sec) 
 Total Blocks : 262144 Invalid Blocks : 0
Heartbeat CPU 7 instructions: 180000000 cycles: 213675403 heartbeat IPC: 0.786969 cumulative IPC: 0.842399 (Simulation time: 25 hr 10 min 16 sec) 
 Total Blocks : 262144 Invalid Blocks : 0
Heartbeat CPU 0 instructions: 190000003 cycles: 218721872 heartbeat IPC: 1.01577 cumulative IPC: 0.868683 (Simulation time: 25 hr 56 min 49 sec) 
 Total Blocks : 262144 Invalid Blocks : 0
Heartbeat CPU 1 instructions: 190000003 cycles: 219731116 heartbeat IPC: 1.01302 cumulative IPC: 0.864693 (Simulation time: 26 hr 5 min 0 sec) 
 Total Blocks : 262144 Invalid Blocks : 0
Heartbeat CPU 2 instructions: 190000003 cycles: 220541877 heartbeat IPC: 1.01249 cumulative IPC: 0.861514 (Simulation time: 26 hr 10 min 59 sec) 
 Total Blocks : 262144 Invalid Blocks : 0
Heartbeat CPU 3 instructions: 190000003 cycles: 221229479 heartbeat IPC: 1.0134 cumulative IPC: 0.858837 (Simulation time: 26 hr 15 min 32 sec) 
 Total Blocks : 262144 Invalid Blocks : 0
Heartbeat CPU 4 instructions: 190000003 cycles: 221841124 heartbeat IPC: 1.01474 cumulative IPC: 0.856469 (Simulation time: 26 hr 19 min 7 sec) 
 Total Blocks : 262144 Invalid Blocks : 0
Heartbeat CPU 5 instructions: 190000003 cycles: 222410640 heartbeat IPC: 1.01689 cumulative IPC: 0.854276 (Simulation time: 26 hr 22 min 2 sec) 
 Total Blocks : 262144 Invalid Blocks : 0
Heartbeat CPU 6 instructions: 190000003 cycles: 222944412 heartbeat IPC: 1.01935 cumulative IPC: 0.85223 (Simulation time: 26 hr 24 min 29 sec) 
 Total Blocks : 262144 Invalid Blocks : 0
Heartbeat CPU 7 instructions: 190000003 cycles: 223460949 heartbeat IPC: 1.02192 cumulative IPC: 0.85026 (Simulation time: 26 hr 26 min 52 sec) 
 Total Blocks : 262144 Invalid Blocks : 0
Heartbeat CPU 0 instructions: 200000002 cycles: 223683593 heartbeat IPC: 2.01543 cumulative IPC: 0.89412 (Simulation time: 26 hr 27 min 53 sec) 
 Total Blocks : 262144 Invalid Blocks : 0
Heartbeat CPU 1 instructions: 200000002 cycles: 224709834 heartbeat IPC: 2.00855 cumulative IPC: 0.890037 (Simulation time: 26 hr 32 min 35 sec) 
 Total Blocks : 262144 Invalid Blocks : 0
Heartbeat CPU 2 instructions: 200000002 cycles: 225547732 heartbeat IPC: 1.99766 cumulative IPC: 0.88673 (Simulation time: 26 hr 36 min 22 sec) 
 Total Blocks : 262144 Invalid Blocks : 0
Heartbeat CPU 3 instructions: 200000002 cycles: 226272526 heartbeat IPC: 1.98293 cumulative IPC: 0.88389 (Simulation time: 26 hr 39 min 41 sec) 
 Total Blocks : 262144 Invalid Blocks : 0
Heartbeat CPU 4 instructions: 200000002 cycles: 226926588 heartbeat IPC: 1.96639 cumulative IPC: 0.881342 (Simulation time: 26 hr 42 min 40 sec) 
 Total Blocks : 262144 Invalid Blocks : 0
Heartbeat CPU 5 instructions: 200000002 cycles: 227528192 heartbeat IPC: 1.95406 cumulative IPC: 0.879012 (Simulation time: 26 hr 45 min 25 sec) 
 Total Blocks : 262144 Invalid Blocks : 0
Heartbeat CPU 6 instructions: 200000002 cycles: 228085623 heartbeat IPC: 1.94507 cumulative IPC: 0.876864 (Simulation time: 26 hr 47 min 58 sec) 
 Total Blocks : 262144 Invalid Blocks : 0
Heartbeat CPU 7 instructions: 200000002 cycles: 228614969 heartbeat IPC: 1.94023 cumulative IPC: 0.874833 (Simulation time: 26 hr 50 min 22 sec) 
 Total Blocks : 262144 Invalid Blocks : 0

Warmup complete CPU 0 instructions: 204110466 cycles: 228614969 (Simulation time: 26 hr 50 min 22 sec) 
Warmup complete CPU 1 instructions: 203197305 cycles: 228614969 (Simulation time: 26 hr 50 min 22 sec) 
Warmup complete CPU 2 instructions: 202471998 cycles: 228614969 (Simulation time: 26 hr 50 min 22 sec) 
Warmup complete CPU 3 instructions: 201859697 cycles: 228614969 (Simulation time: 26 hr 50 min 22 sec) 
Warmup complete CPU 4 instructions: 201332089 cycles: 228614969 (Simulation time: 26 hr 50 min 22 sec) 
Warmup complete CPU 5 instructions: 200856704 cycles: 228614969 (Simulation time: 26 hr 50 min 22 sec) 
Warmup complete CPU 6 instructions: 200409245 cycles: 228614969 (Simulation time: 26 hr 50 min 22 sec) 
Warmup complete CPU 7 instructions: 200000002 cycles: 228614969 (Simulation time: 26 hr 50 min 22 sec) 

Heartbeat CPU 0 instructions: 210000000 cycles: 494917040 heartbeat IPC: 0.0368686 cumulative IPC: 0.022116 (Simulation time: 28 hr 52 min 40 sec) 
 Total Blocks : 262144 Invalid Blocks : 0
Heartbeat CPU 1 instructions: 210000000 cycles: 536928001 heartbeat IPC: 0.0320289 cumulative IPC: 0.0220642 (Simulation time: 29 hr 21 min 10 sec) 
 Total Blocks : 262144 Invalid Blocks : 0
Heartbeat CPU 2 instructions: 210000000 cycles: 569767381 heartbeat IPC: 0.0290512 cumulative IPC: 0.0220664 (Simulation time: 29 hr 43 min 25 sec) 
 Total Blocks : 262144 Invalid Blocks : 0
Heartbeat CPU 3 instructions: 210000000 cycles: 598225051 heartbeat IPC: 0.0268851 cumulative IPC: 0.022024 (Simulation time: 30 hr 2 min 43 sec) 
 Total Blocks : 262144 Invalid Blocks : 0
Heartbeat CPU 4 instructions: 210000000 cycles: 620915829 heartbeat IPC: 0.0253814 cumulative IPC: 0.0220951 (Simulation time: 30 hr 18 min 5 sec) 
 Total Blocks : 262144 Invalid Blocks : 0
Heartbeat CPU 5 instructions: 210000000 cycles: 643165355 heartbeat IPC: 0.0240594 cumulative IPC: 0.0220559 (Simulation time: 30 hr 30 min 42 sec) 
 Total Blocks : 262144 Invalid Blocks : 0
Heartbeat CPU 6 instructions: 210000000 cycles: 662931256 heartbeat IPC: 0.0229967 cumulative IPC: 0.0220824 (Simulation time: 30 hr 38 min 18 sec) 
 Total Blocks : 262144 Invalid Blocks : 0
Heartbeat CPU 7 instructions: 210000000 cycles: 683048227 heartbeat IPC: 0.0220054 cumulative IPC: 0.0220054 (Simulation time: 30 hr 46 min 1 sec) 
 Total Blocks : 262144 Invalid Blocks : 0
Heartbeat CPU 0 instructions: 220000000 cycles: 941528037 heartbeat IPC: 0.0223908 cumulative IPC: 0.0222882 (Simulation time: 32 hr 32 min 10 sec) 
 Total Blocks : 262144 Invalid Blocks : 0
Heartbeat CPU 1 instructions: 220000000 cycles: 983630135 heartbeat IPC: 0.0223863 cumulative IPC: 0.0222548 (Simulation time: 33 hr 0 min 43 sec) 
 Total Blocks : 262144 Invalid Blocks : 0
Heartbeat CPU 2 instructions: 220000000 cycles: 1015183189 heartbeat IPC: 0.0224509 cumulative IPC: 0.0222841 (Simulation time: 33 hr 22 min 8 sec) 
 Total Blocks : 262144 Invalid Blocks : 0
Heartbeat CPU 3 instructions: 220000000 cycles: 1043857733 heartbeat IPC: 0.02244 cumulative IPC: 0.0222514 (Simulation time: 33 hr 41 min 35 sec) 
 Total Blocks : 262144 Invalid Blocks : 0
Heartbeat CPU 4 instructions: 220000000 cycles: 1066430245 heartbeat IPC: 0.022446 cumulative IPC: 0.0222817 (Simulation time: 33 hr 56 min 54 sec) 
 Total Blocks : 262144 Invalid Blocks : 0
Heartbeat CPU 5 instructions: 220000000 cycles: 1088470094 heartbeat IPC: 0.0224565 cumulative IPC: 0.0222634 (Simulation time: 34 hr 11 min 50 sec) 
 Total Blocks : 262144 Invalid Blocks : 0
Heartbeat CPU 6 instructions: 220000000 cycles: 1107757152 heartbeat IPC: 0.0224807 cumulative IPC: 0.0222839 (Simulation time: 34 hr 24 min 55 sec) 
 Total Blocks : 262144 Invalid Blocks : 0
Heartbeat CPU 7 instructions: 220000000 cycles: 1128685776 heartbeat IPC: 0.0224398 cumulative IPC: 0.0222205 (Simulation time: 34 hr 39 min 6 sec) 
 Total Blocks : 262144 Invalid Blocks : 0
Heartbeat CPU 0 instructions: 230000000 cycles: 1391935263 heartbeat IPC: 0.0222021 cumulative IPC: 0.0222549 (Simulation time: 37 hr 35 min 15 sec) 
 Total Blocks : 262144 Invalid Blocks : 0
Heartbeat CPU 1 instructions: 230000000 cycles: 1433709853 heartbeat IPC: 0.0222183 cumulative IPC: 0.0222411 (Simulation time: 37 hr 51 min 12 sec) 
 Total Blocks : 262144 Invalid Blocks : 0
Heartbeat CPU 2 instructions: 230000000 cycles: 1465693559 heartbeat IPC: 0.022197 cumulative IPC: 0.0222524 (Simulation time: 38 hr 3 min 26 sec) 
 Total Blocks : 262144 Invalid Blocks : 0
Heartbeat CPU 3 instructions: 230000000 cycles: 1493548505 heartbeat IPC: 0.0222375 cumulative IPC: 0.0222465 (Simulation time: 38 hr 14 min 4 sec) 
 Total Blocks : 262144 Invalid Blocks : 0
Heartbeat CPU 4 instructions: 230000000 cycles: 1516382264 heartbeat IPC: 0.0222246 cumulative IPC: 0.0222617 (Simulation time: 38 hr 22 min 48 sec) 
 Total Blocks : 262144 Invalid Blocks : 0
Heartbeat CPU 5 instructions: 230000000 cycles: 1538916714 heartbeat IPC: 0.0222002 cumulative IPC: 0.0222417 (Simulation time: 38 hr 31 min 24 sec) 
 Total Blocks : 262144 Invalid Blocks : 0
Heartbeat CPU 6 instructions: 230000000 cycles: 1557216713 heartbeat IPC: 0.0222489 cumulative IPC: 0.0222721 (Simulation time: 38 hr 38 min 24 sec) 
 Total Blocks : 262144 Invalid Blocks : 0
Heartbeat CPU 7 instructions: 230000000 cycles: 1578191563 heartbeat IPC: 0.0222467 cumulative IPC: 0.0222292 (Simulation time: 38 hr 46 min 27 sec) 
 Total Blocks : 262144 Invalid Blocks : 0
Heartbeat CPU 0 instructions: 240000000 cycles: 1837822133 heartbeat IPC: 0.0224272 cumulative IPC: 0.0223026 (Simulation time: 40 hr 25 min 41 sec) 
 Total Blocks : 262144 Invalid Blocks : 0
Heartbeat CPU 1 instructions: 240000000 cycles: 1879598868 heartbeat IPC: 0.0224271 cumulative IPC: 0.0222914 (Simulation time: 40 hr 41 min 35 sec) 
 Total Blocks : 262144 Invalid Blocks : 0
Heartbeat CPU 2 instructions: 240000000 cycles: 1911711710 heartbeat IPC: 0.0224206 cumulative IPC: 0.022297 (Simulation time: 40 hr 53 min 48 sec) 
 Total Blocks : 262144 Invalid Blocks : 0
Heartbeat CPU 3 instructions: 240000000 cycles: 1939862633 heartbeat IPC: 0.0224057 cumulative IPC: 0.022288 (Simulation time: 41 hr 4 min 30 sec) 
 Total Blocks : 262144 Invalid Blocks : 0
Heartbeat CPU 4 instructions: 240000000 cycles: 1963324341 heartbeat IPC: 0.0223743 cumulative IPC: 0.0222907 (Simulation time: 41 hr 13 min 26 sec) 
 Total Blocks : 262144 Invalid Blocks : 0
Heartbeat CPU 5 instructions: 240000000 cycles: 1985748714 heartbeat IPC: 0.0223798 cumulative IPC: 0.0222768 (Simulation time: 41 hr 21 min 58 sec) 
 Total Blocks : 262144 Invalid Blocks : 0
Heartbeat CPU 6 instructions: 240000000 cycles: 2003610951 heartbeat IPC: 0.0224017 cumulative IPC: 0.0223047 (Simulation time: 41 hr 28 min 49 sec) 
 Total Blocks : 262144 Invalid Blocks : 0
Heartbeat CPU 7 instructions: 240000000 cycles: 2024606519 heartbeat IPC: 0.0224007 cumulative IPC: 0.0222718 (Simulation time: 41 hr 36 min 49 sec) 
 Total Blocks : 262144 Invalid Blocks : 0
Heartbeat CPU 0 instructions: 250000002 cycles: 2274012852 heartbeat IPC: 0.0229258 cumulative IPC: 0.0224355 (Simulation time: 43 hr 12 min 9 sec) 
 Total Blocks : 262144 Invalid Blocks : 0
Heartbeat CPU 1 instructions: 250000002 cycles: 2315887941 heartbeat IPC: 0.0229206 cumulative IPC: 0.0224229 (Simulation time: 43 hr 28 min 6 sec) 
 Total Blocks : 262144 Invalid Blocks : 0
Heartbeat CPU 2 instructions: 250000002 cycles: 2347051490 heartbeat IPC: 0.0229706 cumulative IPC: 0.0224354 (Simulation time: 43 hr 39 min 59 sec) 
 Total Blocks : 262144 Invalid Blocks : 0
Heartbeat CPU 3 instructions: 250000002 cycles: 2375527966 heartbeat IPC: 0.0229534 cumulative IPC: 0.022423 (Simulation time: 43 hr 50 min 51 sec) 
 Total Blocks : 262144 Invalid Blocks : 0
Heartbeat CPU 4 instructions: 250000002 cycles: 2398407714 heartbeat IPC: 0.0229841 cumulative IPC: 0.0224298 (Simulation time: 43 hr 59 min 35 sec) 
 Total Blocks : 262144 Invalid Blocks : 0
Heartbeat CPU 5 instructions: 250000002 cycles: 2420458046 heartbeat IPC: 0.0230039 cumulative IPC: 0.022421 (Simulation time: 44 hr 8 min 1 sec) 
 Total Blocks : 262144 Invalid Blocks : 0
Heartbeat CPU 6 instructions: 250000002 cycles: 2438601518 heartbeat IPC: 0.022989 cumulative IPC: 0.0224394 (Simulation time: 44 hr 14 min 57 sec) 
 Total Blocks : 262144 Invalid Blocks : 0
Heartbeat CPU 7 instructions: 250000002 cycles: 2458908243 heartbeat IPC: 0.0230255 cumulative IPC: 0.0224186 (Simulation time: 44 hr 22 min 41 sec) 
 Total Blocks : 262144 Invalid Blocks : 0
Heartbeat CPU 0 instructions: 260000003 cycles: 2719573532 heartbeat IPC: 0.0224436 cumulative IPC: 0.022437 (Simulation time: 46 hr 1 min 55 sec) 
 Total Blocks : 262144 Invalid Blocks : 0
Heartbeat CPU 1 instructions: 260000003 cycles: 2762547771 heartbeat IPC: 0.0223884 cumulative IPC: 0.0224168 (Simulation time: 46 hr 18 min 17 sec) 
 Total Blocks : 262144 Invalid Blocks : 0
Heartbeat CPU 2 instructions: 260000003 cycles: 2794121916 heartbeat IPC: 0.0223678 cumulative IPC: 0.0224236 (Simulation time: 46 hr 30 min 19 sec) 
 Total Blocks : 262144 Invalid Blocks : 0
Heartbeat CPU 3 instructions: 260000003 cycles: 2822248330 heartbeat IPC: 0.0223854 cumulative IPC: 0.0224165 (Simulation time: 46 hr 41 min 3 sec) 
 Total Blocks : 262144 Invalid Blocks : 0
Heartbeat CPU 4 instructions: 260000003 cycles: 2845350029 heartbeat IPC: 0.0223743 cumulative IPC: 0.0224203 (Simulation time: 46 hr 49 min 52 sec) 
 Total Blocks : 262144 Invalid Blocks : 0
Heartbeat CPU 5 instructions: 260000003 cycles: 2866857380 heartbeat IPC: 0.0224015 cumulative IPC: 0.0224177 (Simulation time: 46 hr 58 min 5 sec) 
 Total Blocks : 262144 Invalid Blocks : 0
Heartbeat CPU 6 instructions: 260000003 cycles: 2885889472 heartbeat IPC: 0.022357 cumulative IPC: 0.0224255 (Simulation time: 47 hr 5 min 21 sec) 
 Total Blocks : 262144 Invalid Blocks : 0
Heartbeat CPU 7 instructions: 260000003 cycles: 2906310886 heartbeat IPC: 0.0223512 cumulative IPC: 0.0224073 (Simulation time: 47 hr 13 min 8 sec) 
 Total Blocks : 262144 Invalid Blocks : 0
Heartbeat CPU 0 instructions: 270000000 cycles: 3167282045 heartbeat IPC: 0.022336 cumulative IPC: 0.0224216 (Simulation time: 48 hr 52 min 29 sec) 
 Total Blocks : 262144 Invalid Blocks : 0
Heartbeat CPU 1 instructions: 270000000 cycles: 3210194744 heartbeat IPC: 0.022339 cumulative IPC: 0.0224051 (Simulation time: 49 hr 8 min 49 sec) 
 Total Blocks : 262144 Invalid Blocks : 0
Heartbeat CPU 2 instructions: 270000000 cycles: 3242475656 heartbeat IPC: 0.0223038 cumulative IPC: 0.0224058 (Simulation time: 49 hr 21 min 7 sec) 
 Total Blocks : 262144 Invalid Blocks : 0
Heartbeat CPU 3 instructions: 270000000 cycles: 3271131154 heartbeat IPC: 0.0222775 cumulative IPC: 0.022396 (Simulation time: 49 hr 32 min 2 sec) 
 Total Blocks : 262144 Invalid Blocks : 0
Heartbeat CPU 4 instructions: 270000000 cycles: 3295474299 heartbeat IPC: 0.0222161 cumulative IPC: 0.0223903 (Simulation time: 49 hr 41 min 19 sec) 
 Total Blocks : 262144 Invalid Blocks : 0
Heartbeat CPU 5 instructions: 270000000 cycles: 3316552063 heartbeat IPC: 0.0222373 cumulative IPC: 0.0223914 (Simulation time: 49 hr 49 min 20 sec) 
 Total Blocks : 262144 Invalid Blocks : 0
Heartbeat CPU 6 instructions: 270000000 cycles: 3336395116 heartbeat IPC: 0.0221973 cumulative IPC: 0.0223924 (Simulation time: 49 hr 56 min 54 sec) 
 Total Blocks : 262144 Invalid Blocks : 0
Heartbeat CPU 7 instructions: 270000000 cycles: 3355507229 heartbeat IPC: 0.022262 cumulative IPC: 0.0223864 (Simulation time: 50 hr 4 min 11 sec) 
 Total Blocks : 262144 Invalid Blocks : 0
Heartbeat CPU 0 instructions: 280000000 cycles: 3614753208 heartbeat IPC: 0.0223478 cumulative IPC: 0.0224118 (Simulation time: 51 hr 42 min 59 sec) 
 Total Blocks : 262144 Invalid Blocks : 0
Heartbeat CPU 1 instructions: 280000000 cycles: 3657229342 heartbeat IPC: 0.0223696 cumulative IPC: 0.0224005 (Simulation time: 51 hr 59 min 10 sec) 
 Total Blocks : 262144 Invalid Blocks : 0
Heartbeat CPU 2 instructions: 280000000 cycles: 3689634221 heartbeat IPC: 0.0223634 cumulative IPC: 0.0224003 (Simulation time: 52 hr 11 min 30 sec) 
 Total Blocks : 262144 Invalid Blocks : 0
Heartbeat CPU 3 instructions: 280000000 cycles: 3718471680 heartbeat IPC: 0.0223543 cumulative IPC: 0.0223907 (Simulation time: 52 hr 22 min 29 sec) 
 Total Blocks : 262144 Invalid Blocks : 0
Heartbeat CPU 4 instructions: 280000000 cycles: 3742031931 heartbeat IPC: 0.0223935 cumulative IPC: 0.0223907 (Simulation time: 52 hr 31 min 30 sec) 
 Total Blocks : 262144 Invalid Blocks : 0
Heartbeat CPU 5 instructions: 280000000 cycles: 3762045342 heartbeat IPC: 0.022447 cumulative IPC: 0.0223984 (Simulation time: 52 hr 39 min 8 sec) 
 Total Blocks : 262144 Invalid Blocks : 0
Heartbeat CPU 6 instructions: 280000000 cycles: 3781536803 heartbeat IPC: 0.0224648 cumulative IPC: 0.0224015 (Simulation time: 52 hr 46 min 35 sec) 
 Total Blocks : 262144 Invalid Blocks : 0
Heartbeat CPU 7 instructions: 280000000 cycles: 3800559771 heartbeat IPC: 0.0224693 cumulative IPC: 0.0223968 (Simulation time: 52 hr 53 min 51 sec) 
 Total Blocks : 262144 Invalid Blocks : 0
Heartbeat CPU 0 instructions: 290000001 cycles: 4061607348 heartbeat IPC: 0.0223787 cumulative IPC: 0.022408 (Simulation time: 54 hr 33 min 20 sec) 
 Total Blocks : 262144 Invalid Blocks : 0
Heartbeat CPU 1 instructions: 290000001 cycles: 4105596887 heartbeat IPC: 0.0223031 cumulative IPC: 0.0223892 (Simulation time: 54 hr 50 min 4 sec) 
 Total Blocks : 262144 Invalid Blocks : 0
Heartbeat CPU 2 instructions: 290000001 cycles: 4137359385 heartbeat IPC: 0.0223351 cumulative IPC: 0.0223929 (Simulation time: 55 hr 2 min 10 sec) 
 Total Blocks : 262144 Invalid Blocks : 0
Heartbeat CPU 3 instructions: 290000001 cycles: 4166276737 heartbeat IPC: 0.0223311 cumulative IPC: 0.0223839 (Simulation time: 55 hr 13 min 11 sec) 
 Total Blocks : 262144 Invalid Blocks : 0
Heartbeat CPU 4 instructions: 290000001 cycles: 4190228220 heartbeat IPC: 0.0223117 cumulative IPC: 0.0223818 (Simulation time: 55 hr 22 min 18 sec) 
 Total Blocks : 262144 Invalid Blocks : 0
Heartbeat CPU 5 instructions: 290000001 cycles: 4210278654 heartbeat IPC: 0.0223098 cumulative IPC: 0.0223885 (Simulation time: 55 hr 33 min 57 sec) 
 Total Blocks : 262144 Invalid Blocks : 0
Heartbeat CPU 6 instructions: 290000001 cycles: 4230514436 heartbeat IPC: 0.0222728 cumulative IPC: 0.0223871 (Simulation time: 55 hr 47 min 4 sec) 
 Total Blocks : 262144 Invalid Blocks : 0
Heartbeat CPU 7 instructions: 290000001 cycles: 4248972766 heartbeat IPC: 0.0223009 cumulative IPC: 0.0223861 (Simulation time: 55 hr 59 min 0 sec) 
 Total Blocks : 262144 Invalid Blocks : 0
Heartbeat CPU 0 instructions: 300000000 cycles: 4513670194 heartbeat IPC: 0.0221208 cumulative IPC: 0.0223777 (Simulation time: 58 hr 30 min 57 sec) 
 Total Blocks : 262144 Invalid Blocks : 0
Heartbeat CPU 1 instructions: 300000000 cycles: 4558378319 heartbeat IPC: 0.0220857 cumulative IPC: 0.0223575 (Simulation time: 58 hr 47 min 55 sec) 
 Total Blocks : 262144 Invalid Blocks : 0
Heartbeat CPU 2 instructions: 300000000 cycles: 4589862093 heartbeat IPC: 0.0220993 cumulative IPC: 0.0223624 (Simulation time: 58 hr 59 min 54 sec) 
 Total Blocks : 262144 Invalid Blocks : 0
Heartbeat CPU 3 instructions: 300000000 cycles: 4618174790 heartbeat IPC: 0.0221289 cumulative IPC: 0.0223577 (Simulation time: 59 hr 10 min 41 sec) 
 Total Blocks : 262144 Invalid Blocks : 0
Heartbeat CPU 4 instructions: 300000000 cycles: 4642417698 heartbeat IPC: 0.0221146 cumulative IPC: 0.0223544 (Simulation time: 59 hr 19 min 55 sec) 
 Total Blocks : 262144 Invalid Blocks : 0
Heartbeat CPU 5 instructions: 300000000 cycles: 4662452456 heartbeat IPC: 0.0221154 cumulative IPC: 0.0223606 (Simulation time: 59 hr 27 min 32 sec) 
 Total Blocks : 262144 Invalid Blocks : 0
Heartbeat CPU 6 instructions: 300000000 cycles: 4681480624 heartbeat IPC: 0.0221746 cumulative IPC: 0.0223655 (Simulation time: 59 hr 34 min 44 sec) 
 Total Blocks : 262144 Invalid Blocks : 0
Heartbeat CPU 7 instructions: 300000000 cycles: 4700835568 heartbeat IPC: 0.0221306 cumulative IPC: 0.0223603 (Simulation time: 59 hr 42 min 4 sec) 
 Total Blocks : 262144 Invalid Blocks : 0
Heartbeat CPU 0 instructions: 310000002 cycles: 4960385783 heartbeat IPC: 0.0223856 cumulative IPC: 0.0223784 (Simulation time: 61 hr 20 min 10 sec) 
 Total Blocks : 262144 Invalid Blocks : 0
Heartbeat CPU 1 instructions: 310000002 cycles: 5005002983 heartbeat IPC: 0.0223902 cumulative IPC: 0.0223606 (Simulation time: 61 hr 36 min 59 sec) 
 Total Blocks : 262144 Invalid Blocks : 0
Heartbeat CPU 2 instructions: 310000002 cycles: 5037643692 heartbeat IPC: 0.0223323 cumulative IPC: 0.0223596 (Simulation time: 61 hr 49 min 18 sec) 
 Total Blocks : 262144 Invalid Blocks : 0
Heartbeat CPU 3 instructions: 310000002 cycles: 5066094579 heartbeat IPC: 0.0223254 cumulative IPC: 0.0223547 (Simulation time: 62 hr 0 min 2 sec) 
 Total Blocks : 262144 Invalid Blocks : 0
Heartbeat CPU 4 instructions: 310000002 cycles: 5090664457 heartbeat IPC: 0.0223091 cumulative IPC: 0.0223502 (Simulation time: 62 hr 9 min 17 sec) 
 Total Blocks : 262144 Invalid Blocks : 0
Heartbeat CPU 5 instructions: 310000002 cycles: 5110773452 heartbeat IPC: 0.0223055 cumulative IPC: 0.0223555 (Simulation time: 62 hr 16 min 52 sec) 
 Total Blocks : 262144 Invalid Blocks : 0
Heartbeat CPU 6 instructions: 310000002 cycles: 5129621850 heartbeat IPC: 0.0223144 cumulative IPC: 0.0223609 (Simulation time: 62 hr 23 min 58 sec) 
 Total Blocks : 262144 Invalid Blocks : 0
Heartbeat CPU 7 instructions: 310000002 cycles: 5149166201 heartbeat IPC: 0.022305 cumulative IPC: 0.0223552 (Simulation time: 62 hr 31 min 20 sec) 
 Total Blocks : 262144 Invalid Blocks : 0
Heartbeat CPU 0 instructions: 320000001 cycles: 5411085656 heartbeat IPC: 0.0221877 cumulative IPC: 0.0223618 (Simulation time: 64 hr 10 min 3 sec) 
 Total Blocks : 262144 Invalid Blocks : 0
Heartbeat CPU 1 instructions: 320000001 cycles: 5455312195 heartbeat IPC: 0.022207 cumulative IPC: 0.0223473 (Simulation time: 64 hr 26 min 44 sec) 
 Total Blocks : 262144 Invalid Blocks : 0
Heartbeat CPU 2 instructions: 320000001 cycles: 5487717596 heartbeat IPC: 0.0222186 cumulative IPC: 0.0223475 (Simulation time: 64 hr 38 min 58 sec) 
 Total Blocks : 262144 Invalid Blocks : 0
Heartbeat CPU 3 instructions: 320000001 cycles: 5516404231 heartbeat IPC: 0.0222069 cumulative IPC: 0.0223421 (Simulation time: 64 hr 49 min 47 sec) 
 Total Blocks : 262144 Invalid Blocks : 0
Heartbeat CPU 4 instructions: 320000001 cycles: 5540994229 heartbeat IPC: 0.0222059 cumulative IPC: 0.022338 (Simulation time: 64 hr 59 min 4 sec) 
 Total Blocks : 262144 Invalid Blocks : 0
Heartbeat CPU 5 instructions: 320000001 cycles: 5561829594 heartbeat IPC: 0.0221702 cumulative IPC: 0.0223399 (Simulation time: 65 hr 6 min 55 sec) 
 Total Blocks : 262144 Invalid Blocks : 0
Heartbeat CPU 6 instructions: 320000001 cycles: 5580394015 heartbeat IPC: 0.0221842 cumulative IPC: 0.022346 (Simulation time: 65 hr 13 min 55 sec) 
 Total Blocks : 262144 Invalid Blocks : 0
Heartbeat CPU 7 instructions: 320000001 cycles: 5599346650 heartbeat IPC: 0.0222133 cumulative IPC: 0.0223433 (Simulation time: 65 hr 21 min 4 sec) 
 Total Blocks : 262144 Invalid Blocks : 0
Heartbeat CPU 0 instructions: 330000000 cycles: 5856019665 heartbeat IPC: 0.0224752 cumulative IPC: 0.0223708 (Simulation time: 66 hr 57 min 56 sec) 
 Total Blocks : 262144 Invalid Blocks : 0
Heartbeat CPU 1 instructions: 330000000 cycles: 5899542236 heartbeat IPC: 0.0225109 cumulative IPC: 0.0223601 (Simulation time: 67 hr 14 min 19 sec) 
 Total Blocks : 262144 Invalid Blocks : 0
Heartbeat CPU 2 instructions: 330000000 cycles: 5932609906 heartbeat IPC: 0.0224773 cumulative IPC: 0.0223577 (Simulation time: 67 hr 26 min 47 sec) 
 Total Blocks : 262144 Invalid Blocks : 0
Heartbeat CPU 3 instructions: 330000000 cycles: 5961888879 heartbeat IPC: 0.0224475 cumulative IPC: 0.0223503 (Simulation time: 67 hr 37 min 49 sec) 
 Total Blocks : 262144 Invalid Blocks : 0
Heartbeat CPU 4 instructions: 330000000 cycles: 5986203941 heartbeat IPC: 0.0224613 cumulative IPC: 0.0223475 (Simulation time: 67 hr 46 min 58 sec) 
 Total Blocks : 262144 Invalid Blocks : 0
Heartbeat CPU 5 instructions: 330000000 cycles: 6007133109 heartbeat IPC: 0.0224566 cumulative IPC: 0.0223489 (Simulation time: 67 hr 54 min 51 sec) 
 Total Blocks : 262144 Invalid Blocks : 0
Heartbeat CPU 6 instructions: 330000000 cycles: 6025729080 heartbeat IPC: 0.022455 cumulative IPC: 0.0223544 (Simulation time: 68 hr 1 min 51 sec) 
 Total Blocks : 262144 Invalid Blocks : 0
Heartbeat CPU 7 instructions: 330000000 cycles: 6044452097 heartbeat IPC: 0.0224666 cumulative IPC: 0.0223528 (Simulation time: 68 hr 8 min 55 sec) 
 Total Blocks : 262144 Invalid Blocks : 0
Heartbeat CPU 0 instructions: 340000000 cycles: 6301224168 heartbeat IPC: 0.0224616 cumulative IPC: 0.0223775 (Simulation time: 69 hr 45 min 40 sec) 
 Total Blocks : 262144 Invalid Blocks : 0
Heartbeat CPU 1 instructions: 340000000 cycles: 6344426577 heartbeat IPC: 0.0224778 cumulative IPC: 0.0223687 (Simulation time: 70 hr 1 min 56 sec) 
 Total Blocks : 262144 Invalid Blocks : 0
Heartbeat CPU 2 instructions: 340000000 cycles: 6377108556 heartbeat IPC: 0.0224973 cumulative IPC: 0.0223678 (Simulation time: 70 hr 14 min 15 sec) 
 Total Blocks : 262144 Invalid Blocks : 0
Heartbeat CPU 3 instructions: 340000000 cycles: 6405968882 heartbeat IPC: 0.0225185 cumulative IPC: 0.0223624 (Simulation time: 70 hr 25 min 7 sec) 
 Total Blocks : 262144 Invalid Blocks : 0
Heartbeat CPU 4 instructions: 340000000 cycles: 6430866592 heartbeat IPC: 0.022489 cumulative IPC: 0.0223577 (Simulation time: 70 hr 34 min 29 sec) 
 Total Blocks : 262144 Invalid Blocks : 0
Heartbeat CPU 5 instructions: 340000000 cycles: 6451663531 heartbeat IPC: 0.0224956 cumulative IPC: 0.0223593 (Simulation time: 70 hr 42 min 19 sec) 
 Total Blocks : 262144 Invalid Blocks : 0
Heartbeat CPU 6 instructions: 340000000 cycles: 6471107930 heartbeat IPC: 0.0224528 cumulative IPC: 0.0223614 (Simulation time: 70 hr 49 min 38 sec) 
 Total Blocks : 262144 Invalid Blocks : 0
Heartbeat CPU 7 instructions: 340000000 cycles: 6489839159 heartbeat IPC: 0.0224524 cumulative IPC: 0.0223598 (Simulation time: 70 hr 56 min 41 sec) 
 Total Blocks : 262144 Invalid Blocks : 0
Heartbeat CPU 0 instructions: 350000000 cycles: 6748767281 heartbeat IPC: 0.0223442 cumulative IPC: 0.0223752 (Simulation time: 72 hr 34 min 22 sec) 
 Total Blocks : 262144 Invalid Blocks : 0
Heartbeat CPU 1 instructions: 350000000 cycles: 6791491809 heartbeat IPC: 0.0223681 cumulative IPC: 0.0223687 (Simulation time: 72 hr 50 min 28 sec) 
 Total Blocks : 262144 Invalid Blocks : 0
Heartbeat CPU 2 instructions: 350000000 cycles: 6825546956 heartbeat IPC: 0.0222996 cumulative IPC: 0.0223631 (Simulation time: 73 hr 3 min 16 sec) 
 Total Blocks : 262144 Invalid Blocks : 0
Heartbeat CPU 3 instructions: 350000000 cycles: 6852539336 heartbeat IPC: 0.0223929 cumulative IPC: 0.0223644 (Simulation time: 73 hr 13 min 27 sec) 
 Total Blocks : 262144 Invalid Blocks : 0
Heartbeat CPU 4 instructions: 350000000 cycles: 6878784995 heartbeat IPC: 0.0223255 cumulative IPC: 0.0223555 (Simulation time: 73 hr 23 min 21 sec) 
 Total Blocks : 262144 Invalid Blocks : 0
Heartbeat CPU 5 instructions: 350000000 cycles: 6900149889 heartbeat IPC: 0.0222972 cumulative IPC: 0.0223552 (Simulation time: 73 hr 31 min 23 sec) 
 Total Blocks : 262144 Invalid Blocks : 0
Heartbeat CPU 6 instructions: 350000000 cycles: 6918657439 heartbeat IPC: 0.0223439 cumulative IPC: 0.0223602 (Simulation time: 73 hr 38 min 21 sec) 
 Total Blocks : 262144 Invalid Blocks : 0
Heartbeat CPU 7 instructions: 350000000 cycles: 6937686856 heartbeat IPC: 0.022329 cumulative IPC: 0.0223578 (Simulation time: 73 hr 45 min 31 sec) 
 Total Blocks : 262144 Invalid Blocks : 0
Heartbeat CPU 0 instructions: 360000001 cycles: 7198332454 heartbeat IPC: 0.0222437 cumulative IPC: 0.0223667 (Simulation time: 75 hr 23 min 43 sec) 
 Total Blocks : 262144 Invalid Blocks : 0
Heartbeat CPU 1 instructions: 360000001 cycles: 7241763713 heartbeat IPC: 0.0222088 cumulative IPC: 0.0223584 (Simulation time: 75 hr 40 min 4 sec) 
 Total Blocks : 262144 Invalid Blocks : 0
Heartbeat CPU 2 instructions: 360000001 cycles: 7274440224 heartbeat IPC: 0.022277 cumulative IPC: 0.0223576 (Simulation time: 75 hr 52 min 22 sec) 
 Total Blocks : 262144 Invalid Blocks : 0
Heartbeat CPU 3 instructions: 360000001 cycles: 7302112427 heartbeat IPC: 0.0222433 cumulative IPC: 0.0223567 (Simulation time: 76 hr 2 min 47 sec) 
 Total Blocks : 262144 Invalid Blocks : 0
Heartbeat CPU 4 instructions: 360000001 cycles: 7328199975 heartbeat IPC: 0.0222512 cumulative IPC: 0.0223489 (Simulation time: 76 hr 12 min 37 sec) 
 Total Blocks : 262144 Invalid Blocks : 0
Heartbeat CPU 5 instructions: 360000001 cycles: 7349400067 heartbeat IPC: 0.0222593 cumulative IPC: 0.0223491 (Simulation time: 76 hr 20 min 36 sec) 
 Total Blocks : 262144 Invalid Blocks : 0
Heartbeat CPU 6 instructions: 360000001 cycles: 7368750431 heartbeat IPC: 0.0222176 cumulative IPC: 0.0223512 (Simulation time: 76 hr 27 min 54 sec) 
 Total Blocks : 262144 Invalid Blocks : 0
Heartbeat CPU 7 instructions: 360000001 cycles: 7386485226 heartbeat IPC: 0.0222817 cumulative IPC: 0.022353 (Simulation time: 76 hr 34 min 36 sec) 
 Total Blocks : 262144 Invalid Blocks : 0
Heartbeat CPU 0 instructions: 370000000 cycles: 7647395827 heartbeat IPC: 0.0222686 cumulative IPC: 0.0223608 (Simulation time: 78 hr 12 min 52 sec) 
 Total Blocks : 262144 Invalid Blocks : 0
Heartbeat CPU 1 instructions: 370000000 cycles: 7690467337 heartbeat IPC: 0.0222864 cumulative IPC: 0.0223541 (Simulation time: 78 hr 29 min 6 sec) 
 Total Blocks : 262144 Invalid Blocks : 0
Heartbeat CPU 2 instructions: 370000000 cycles: 7724452950 heartbeat IPC: 0.0222216 cumulative IPC: 0.0223495 (Simulation time: 78 hr 41 min 54 sec) 
 Total Blocks : 262144 Invalid Blocks : 0
Heartbeat CPU 3 instructions: 370000000 cycles: 7751561268 heartbeat IPC: 0.0222495 cumulative IPC: 0.0223503 (Simulation time: 78 hr 52 min 6 sec) 
 Total Blocks : 262144 Invalid Blocks : 0
Heartbeat CPU 4 instructions: 370000000 cycles: 7777532436 heartbeat IPC: 0.0222552 cumulative IPC: 0.0223433 (Simulation time: 79 hr 1 min 52 sec) 
 Total Blocks : 262144 Invalid Blocks : 0
Heartbeat CPU 5 instructions: 370000000 cycles: 7799906682 heartbeat IPC: 0.0221972 cumulative IPC: 0.0223401 (Simulation time: 79 hr 10 min 17 sec) 
 Total Blocks : 262144 Invalid Blocks : 0
Heartbeat CPU 6 instructions: 370000000 cycles: 7819712512 heartbeat IPC: 0.0221748 cumulative IPC: 0.0223407 (Simulation time: 79 hr 17 min 44 sec) 
 Total Blocks : 262144 Invalid Blocks : 0
Heartbeat CPU 7 instructions: 370000000 cycles: 7837107069 heartbeat IPC: 0.0221916 cumulative IPC: 0.0223435 (Simulation time: 79 hr 24 min 50 sec) 
 Total Blocks : 262144 Invalid Blocks : 0
Heartbeat CPU 0 instructions: 380000001 cycles: 7837155370 heartbeat IPC: 0.0526983 cumulative IPC: 0.0231174 (Simulation time: 79 hr 24 min 51 sec) 
 Total Blocks : 262144 Invalid Blocks : 0
Heartbeat CPU 1 instructions: 380000001 cycles: 7882238375 heartbeat IPC: 0.0521455 cumulative IPC: 0.0231005 (Simulation time: 79 hr 42 min 49 sec) 
 Total Blocks : 262144 Invalid Blocks : 0
Heartbeat CPU 2 instructions: 380000001 cycles: 7918757730 heartbeat IPC: 0.0514655 cumulative IPC: 0.0230851 (Simulation time: 79 hr 57 min 34 sec) 
 Total Blocks : 262144 Invalid Blocks : 0
Heartbeat CPU 3 instructions: 380000001 cycles: 7947151656 heartbeat IPC: 0.0511273 cumulative IPC: 0.0230795 (Simulation time: 80 hr 9 min 16 sec) 
 Total Blocks : 262144 Invalid Blocks : 0
Heartbeat CPU 4 instructions: 380000003 cycles: 7974473386 heartbeat IPC: 0.0507767 cumulative IPC: 0.0230663 (Simulation time: 80 hr 20 min 34 sec) 
 Total Blocks : 262144 Invalid Blocks : 0
Heartbeat CPU 5 instructions: 380000001 cycles: 7998653822 heartbeat IPC: 0.0503152 cumulative IPC: 0.0230557 (Simulation time: 80 hr 30 min 42 sec) 
 Total Blocks : 262144 Invalid Blocks : 0
Heartbeat CPU 6 instructions: 380000000 cycles: 8020782781 heartbeat IPC: 0.0497339 cumulative IPC: 0.0230476 (Simulation time: 80 hr 40 min 2 sec) 
 Total Blocks : 262144 Invalid Blocks : 0
Heartbeat CPU 7 instructions: 380000001 cycles: 8039841761 heartbeat IPC: 0.0493256 cumulative IPC: 0.0230438 (Simulation time: 80 hr 48 min 14 sec) 
 Total Blocks : 262144 Invalid Blocks : 0
Heartbeat CPU 0 instructions: 390000000 cycles: 8063664659 heartbeat IPC: 0.0441483 cumulative IPC: 0.0237254 (Simulation time: 80 hr 57 min 39 sec) 
 Total Blocks : 262144 Invalid Blocks : 0
Heartbeat CPU 1 instructions: 390000000 cycles: 8106020703 heartbeat IPC: 0.0446863 cumulative IPC: 0.0237137 (Simulation time: 81 hr 13 min 35 sec) 
 Total Blocks : 262144 Invalid Blocks : 0
Heartbeat CPU 2 instructions: 390000000 cycles: 8141077566 heartbeat IPC: 0.0449802 cumulative IPC: 0.0237003 (Simulation time: 81 hr 26 min 46 sec) 
 Total Blocks : 262144 Invalid Blocks : 0
Heartbeat CPU 3 instructions: 390000000 cycles: 8167438899 heartbeat IPC: 0.0453953 cumulative IPC: 0.0236988 (Simulation time: 81 hr 36 min 41 sec) 
 Total Blocks : 262144 Invalid Blocks : 0
Heartbeat CPU 4 instructions: 390000000 cycles: 8193503083 heartbeat IPC: 0.0456559 cumulative IPC: 0.0236875 (Simulation time: 81 hr 46 min 29 sec) 
 Total Blocks : 262144 Invalid Blocks : 0
Heartbeat CPU 5 instructions: 390000000 cycles: 8215504190 heartbeat IPC: 0.0461147 cumulative IPC: 0.0236817 (Simulation time: 81 hr 54 min 45 sec) 
 Total Blocks : 262144 Invalid Blocks : 0
Heartbeat CPU 6 instructions: 390000000 cycles: 8235796467 heartbeat IPC: 0.0465087 cumulative IPC: 0.0236776 (Simulation time: 82 hr 2 min 23 sec) 
 Total Blocks : 262144 Invalid Blocks : 0
Heartbeat CPU 7 instructions: 390000000 cycles: 8252775098 heartbeat IPC: 0.0469631 cumulative IPC: 0.0236785 (Simulation time: 82 hr 8 min 47 sec) 
 Total Blocks : 262144 Invalid Blocks : 0
Heartbeat CPU 0 instructions: 400000000 cycles: 8515063732 heartbeat IPC: 0.0221533 cumulative IPC: 0.0236397 (Simulation time: 83 hr 47 min 24 sec) 
 Total Blocks : 262144 Invalid Blocks : 0
Heartbeat CPU 1 instructions: 400000000 cycles: 8556348822 heartbeat IPC: 0.022206 cumulative IPC: 0.0236322 (Simulation time: 84 hr 2 min 54 sec) 
 Total Blocks : 262144 Invalid Blocks : 0
Heartbeat CPU 2 instructions: 400000000 cycles: 8592367127 heartbeat IPC: 0.0221587 cumulative IPC: 0.0236172 (Simulation time: 84 hr 16 min 26 sec) 
 Total Blocks : 262144 Invalid Blocks : 0
Heartbeat CPU 3 instructions: 400000000 cycles: 8617803741 heartbeat IPC: 0.0222042 cumulative IPC: 0.0236185 (Simulation time: 84 hr 25 min 59 sec) 
 Total Blocks : 262144 Invalid Blocks : 0
Heartbeat CPU 4 instructions: 400000000 cycles: 8644508841 heartbeat IPC: 0.0221727 cumulative IPC: 0.0236063 (Simulation time: 84 hr 36 min 1 sec) 
 Total Blocks : 262144 Invalid Blocks : 0
Heartbeat CPU 5 instructions: 400000000 cycles: 8666503428 heartbeat IPC: 0.022173 cumulative IPC: 0.0236011 (Simulation time: 84 hr 44 min 18 sec) 
 Total Blocks : 262144 Invalid Blocks : 0
Heartbeat CPU 6 instructions: 400000000 cycles: 8685919468 heartbeat IPC: 0.0222162 cumulative IPC: 0.0235998 (Simulation time: 84 hr 51 min 36 sec) 
 Total Blocks : 262144 Invalid Blocks : 0
Finished CPU 1 instructions: 200000002 cycles: 8467667624 cumulative IPC: 0.0236193 (Simulation time: 84 hr 55 min 30 sec) 
Finished CPU 0 instructions: 200000003 cycles: 8468383024 cumulative IPC: 0.0236173 (Simulation time: 84 hr 55 min 47 sec) 
Finished CPU 3 instructions: 200000003 cycles: 8468553582 cumulative IPC: 0.0236168 (Simulation time: 84 hr 55 min 50 sec) 
Finished CPU 2 instructions: 200000001 cycles: 8471282690 cumulative IPC: 0.0236092 (Simulation time: 84 hr 56 min 52 sec) 
Finished CPU 4 instructions: 200000000 cycles: 8473970478 cumulative IPC: 0.0236017 (Simulation time: 84 hr 57 min 53 sec) 
Heartbeat CPU 7 instructions: 400000000 cycles: 8703101937 heartbeat IPC: 0.0222061 cumulative IPC: 0.0236002 (Simulation time: 84 hr 58 min 5 sec) 
 Total Blocks : 262144 Invalid Blocks : 0
Finished CPU 7 instructions: 200000003 cycles: 8474486982 cumulative IPC: 0.0236002 (Simulation time: 84 hr 58 min 5 sec) 
Finished CPU 5 instructions: 200000001 cycles: 8474534538 cumulative IPC: 0.0236001 (Simulation time: 84 hr 58 min 6 sec) 
Finished CPU 6 instructions: 200000000 cycles: 8475918297 cumulative IPC: 0.0235963 (Simulation time: 84 hr 58 min 37 sec) 

CPU 0 Branch Prediction Accuracy: 96.4325% MPKI: 6.47202 Average ROB Occupancy at Mispredict: 147.902

CPU 1 Branch Prediction Accuracy: 96.4331% MPKI: 6.50003 Average ROB Occupancy at Mispredict: 147.899

CPU 2 Branch Prediction Accuracy: 96.4345% MPKI: 6.52089 Average ROB Occupancy at Mispredict: 147.915

CPU 3 Branch Prediction Accuracy: 96.4358% MPKI: 6.53843 Average ROB Occupancy at Mispredict: 147.917

CPU 4 Branch Prediction Accuracy: 96.4341% MPKI: 6.5583 Average ROB Occupancy at Mispredict: 147.918

CPU 5 Branch Prediction Accuracy: 96.4315% MPKI: 6.5784 Average ROB Occupancy at Mispredict: 147.927

CPU 6 Branch Prediction Accuracy: 96.4297% MPKI: 6.59631 Average ROB Occupancy at Mispredict: 147.928

CPU 7 Branch Prediction Accuracy: 96.4311% MPKI: 6.60728 Average ROB Occupancy at Mispredict: 147.907

ChampSim completed all CPUs

Total Simulation Statistics (not including warmup)

CPU 0 cumulative IPC: 0.023616 instructions: 200167084 cycles: 8475918297
ITLB TOTAL     ACCESS: 34358153  HIT: 34358153  MISS:     0  HIT %:   100  MISS %:     0  AVERAGE MISS PENALTY: 0
ITLB LOAD      ACCESS: 34358153  HIT: 34358153  MISS:     0  HIT %:   100  MISS %:     0  AVERAGE MISS PENALTY: 0
ITLB RFO       ACCESS:     0  HIT:     0  MISS:     0  HIT %:     0  MISS %:     0  AVERAGE MISS PENALTY: 0
ITLB PREFETCH  ACCESS:     0  HIT:     0  MISS:     0  HIT %:     0  MISS %:     0  AVERAGE MISS PENALTY: 0
ITLB WRITEBACK ACCESS:     0  HIT:     0  MISS:     0  HIT %:     0  MISS %:     0  AVERAGE MISS PENALTY: 0

DTLB TOTAL     ACCESS: 78349013  HIT: 55409177  MISS: 22939836  HIT %: 70.721  MISS %: 29.279  AVERAGE MISS PENALTY: 9.18641
DTLB LOAD      ACCESS: 75648773  HIT: 52713993  MISS: 22934780  HIT %: 69.6825  MISS %: 30.3175  AVERAGE MISS PENALTY: 9.18288
DTLB RFO       ACCESS: 2700240  HIT: 2695184  MISS:  5056  HIT %: 99.8128  MISS %: 0.187243  AVERAGE MISS PENALTY: 25.2144
DTLB PREFETCH  ACCESS:     0  HIT:     0  MISS:     0  HIT %:     0  MISS %:     0  AVERAGE MISS PENALTY: 0
DTLB WRITEBACK ACCESS:     0  HIT:     0  MISS:     0  HIT %:     0  MISS %:     0  AVERAGE MISS PENALTY: 0

STLB TOTAL     ACCESS: 22939836  HIT: 22898995  MISS: 40841  HIT %: 99.822  MISS %: 0.178035  AVERAGE MISS PENALTY: 100
STLB LOAD      ACCESS: 22934780  HIT: 22894685  MISS: 40095  HIT %: 99.8252  MISS %: 0.174822  AVERAGE MISS PENALTY: 100
STLB RFO       ACCESS:  5056  HIT:  4310  MISS:   746  HIT %: 85.2453  MISS %: 14.7547  AVERAGE MISS PENALTY: 100
STLB PREFETCH  ACCESS:     0  HIT:     0  MISS:     0  HIT %:     0  MISS %:     0  AVERAGE MISS PENALTY: 0
STLB WRITEBACK ACCESS:     0  HIT:     0  MISS:     0  HIT %:     0  MISS %:     0  AVERAGE MISS PENALTY: 0

L1D TOTAL     ACCESS: 197217074  HIT: 41905284  MISS: 155311790  HIT %: 21.2483  MISS %: 78.7517  AVERAGE MISS PENALTY: 2.86634e+07
L1D LOAD      ACCESS: 66768284  HIT: 34454707  MISS: 32313577  HIT %: 51.6034  MISS %: 48.3966  AVERAGE MISS PENALTY: 1.37767e+08
L1D RFO       ACCESS: 2415091  HIT: 2349531  MISS: 65560  HIT %: 97.2854  MISS %: 2.7146  AVERAGE MISS PENALTY: 480.164
L1D PREFETCH  ACCESS: 128033699  HIT: 5101046  MISS: 122932653  HIT %: 3.98414  MISS %: 96.0159  AVERAGE MISS PENALTY: 276.368
L1D WRITEBACK ACCESS:     0  HIT:     0  MISS:     0  HIT %:     0  MISS %:     0  AVERAGE MISS PENALTY: 0

L1I TOTAL     ACCESS: 36102732  HIT: 36102719  MISS:    13  HIT %:   100  MISS %: 3.60084e-05  AVERAGE MISS PENALTY: 205.077
L1I LOAD      ACCESS: 36102732  HIT: 36102719  MISS:    13  HIT %:   100  MISS %: 3.60084e-05  AVERAGE MISS PENALTY: 205.077
L1I RFO       ACCESS:     0  HIT:     0  MISS:     0  HIT %:     0  MISS %:     0  AVERAGE MISS PENALTY: 0
L1I PREFETCH  ACCESS:     0  HIT:     0  MISS:     0  HIT %:     0  MISS %:     0  AVERAGE MISS PENALTY: 0
L1I WRITEBACK ACCESS:     0  HIT:     0  MISS:     0  HIT %:     0  MISS %:     0  AVERAGE MISS PENALTY: 0

L2C TOTAL     ACCESS: 229863970  HIT: 8290871  MISS: 221573099  HIT %: 3.60686  MISS %: 96.3931  AVERAGE MISS PENALTY: 2.37192e+07
L2C LOAD      ACCESS: 32278640  HIT: 678105  MISS: 31600535  HIT %: 2.10079  MISS %: 97.8992  AVERAGE MISS PENALTY: 1.6631e+08
L2C RFO       ACCESS: 65560  HIT:    54  MISS: 65506  HIT %: 0.0823673  MISS %: 99.9176  AVERAGE MISS PENALTY: 465.331
L2C PREFETCH  ACCESS: 197315970  HIT: 7409081  MISS: 189906889  HIT %: 3.75493  MISS %: 96.2451  AVERAGE MISS PENALTY: 244.793
L2C WRITEBACK ACCESS: 203800  HIT: 203631  MISS:   169  HIT %: 99.9171  MISS %: 0.0829244  AVERAGE MISS PENALTY: 0


LLC0 TOTAL     ACCESS: 28611598  HIT: 14864302  MISS: 13747296  HIT %: 51.952  MISS %: 48.048  AVERAGE MISS PENALTY: 460.03
LLC0 LOAD      ACCESS: 3957656  HIT: 2150853  MISS: 1806803  HIT %: 54.3466  MISS %: 45.6534  AVERAGE MISS PENALTY: 447.367
LLC0 RFO       ACCESS:  8188  HIT:   585  MISS:  7603  HIT %: 7.1446  MISS %: 92.8554  AVERAGE MISS PENALTY: 472.363
LLC0 PREFETCH  ACCESS: 24628774  HIT: 12704799  MISS: 11923975  HIT %: 51.5852  MISS %: 48.4148  AVERAGE MISS PENALTY: 462.285
LLC0 WRITEBACK ACCESS: 16980  HIT:  8065  MISS:  8915  HIT %: 47.4971  MISS %: 52.5029  AVERAGE MISS PENALTY: 0

LLC1 TOTAL     ACCESS: 29077340  HIT: 15070915  MISS: 14006425  HIT %: 51.8304  MISS %: 48.1696  AVERAGE MISS PENALTY: 456.72
LLC1 LOAD      ACCESS: 3896730  HIT: 2106259  MISS: 1790471  HIT %: 54.052  MISS %: 45.948  AVERAGE MISS PENALTY: 443.578
LLC1 RFO       ACCESS:  8191  HIT:   533  MISS:  7658  HIT %: 6.50714  MISS %: 93.4929  AVERAGE MISS PENALTY: 477.302
LLC1 PREFETCH  ACCESS: 25155437  HIT: 12956065  MISS: 12199372  HIT %: 51.504  MISS %: 48.496  AVERAGE MISS PENALTY: 458.97
LLC1 WRITEBACK ACCESS: 16982  HIT:  8058  MISS:  8924  HIT %: 47.4502  MISS %: 52.5498  AVERAGE MISS PENALTY: 0

LLC2 TOTAL     ACCESS: 28677083  HIT: 14847447  MISS: 13829636  HIT %: 51.7746  MISS %: 48.2254  AVERAGE MISS PENALTY: 449.632
LLC2 LOAD      ACCESS: 3710555  HIT: 1987411  MISS: 1723144  HIT %: 53.561  MISS %: 46.439  AVERAGE MISS PENALTY: 446.072
LLC2 RFO       ACCESS:  8189  HIT:   564  MISS:  7625  HIT %: 6.88729  MISS %: 93.1127  AVERAGE MISS PENALTY: 488.416
LLC2 PREFETCH  ACCESS: 24941358  HIT: 12851418  MISS: 12089940  HIT %: 51.5265  MISS %: 48.4735  AVERAGE MISS PENALTY: 450.447
LLC2 WRITEBACK ACCESS: 16981  HIT:  8054  MISS:  8927  HIT %: 47.4295  MISS %: 52.5705  AVERAGE MISS PENALTY: 0

LLC3 TOTAL     ACCESS: 27878992  HIT: 14449028  MISS: 13429964  HIT %: 51.8277  MISS %: 48.1723  AVERAGE MISS PENALTY: 446.422
LLC3 LOAD      ACCESS: 3820723  HIT: 2069972  MISS: 1750751  HIT %: 54.1775  MISS %: 45.8225  AVERAGE MISS PENALTY: 442.601
LLC3 RFO       ACCESS:  8188  HIT:   600  MISS:  7588  HIT %: 7.3278  MISS %: 92.6722  AVERAGE MISS PENALTY: 468.73
LLC3 PREFETCH  ACCESS: 24033100  HIT: 12370394  MISS: 11662706  HIT %: 51.4723  MISS %: 48.5277  AVERAGE MISS PENALTY: 447.323
LLC3 WRITEBACK ACCESS: 16981  HIT:  8062  MISS:  8919  HIT %: 47.4766  MISS %: 52.5234  AVERAGE MISS PENALTY: 0

LLC4 TOTAL     ACCESS: 27460124  HIT: 14277514  MISS: 13182610  HIT %: 51.9936  MISS %: 48.0064  AVERAGE MISS PENALTY: 411.44
LLC4 LOAD      ACCESS: 3817103  HIT: 2052357  MISS: 1764746  HIT %: 53.7674  MISS %: 46.2326  AVERAGE MISS PENALTY: 396.421
LLC4 RFO       ACCESS:  8188  HIT:   576  MISS:  7612  HIT %: 7.03468  MISS %: 92.9653  AVERAGE MISS PENALTY: 466.989
LLC4 PREFETCH  ACCESS: 23617853  HIT: 12216505  MISS: 11401348  HIT %: 51.7257  MISS %: 48.2743  AVERAGE MISS PENALTY: 414.049
LLC4 WRITEBACK ACCESS: 16980  HIT:  8076  MISS:  8904  HIT %: 47.5618  MISS %: 52.4382  AVERAGE MISS PENALTY: 0

LLC5 TOTAL     ACCESS: 27109864  HIT: 14195867  MISS: 12913997  HIT %: 52.3642  MISS %: 47.6358  AVERAGE MISS PENALTY: 397.308
LLC5 LOAD      ACCESS: 3708682  HIT: 1993652  MISS: 1715030  HIT %: 53.7563  MISS %: 46.2437  AVERAGE MISS PENALTY: 380.618
LLC5 RFO       ACCESS:  8188  HIT:   575  MISS:  7613  HIT %: 7.02247  MISS %: 92.9775  AVERAGE MISS PENALTY: 466.387
LLC5 PREFETCH  ACCESS: 23376014  HIT: 12193600  MISS: 11182414  HIT %: 52.1629  MISS %: 47.8371  AVERAGE MISS PENALTY: 400.139
LLC5 WRITEBACK ACCESS: 16980  HIT:  8040  MISS:  8940  HIT %: 47.3498  MISS %: 52.6502  AVERAGE MISS PENALTY: 0

LLC6 TOTAL     ACCESS: 26748805  HIT: 14131551  MISS: 12617254  HIT %: 52.8306  MISS %: 47.1694  AVERAGE MISS PENALTY: 404.127
LLC6 LOAD      ACCESS: 3950145  HIT: 2175524  MISS: 1774621  HIT %: 55.0745  MISS %: 44.9255  AVERAGE MISS PENALTY: 394.581
LLC6 RFO       ACCESS:  8187  HIT:   639  MISS:  7548  HIT %: 7.80506  MISS %: 92.1949  AVERAGE MISS PENALTY: 424.188
LLC6 PREFETCH  ACCESS: 22773493  HIT: 11947311  MISS: 10826182  HIT %: 52.4615  MISS %: 47.5385  AVERAGE MISS PENALTY: 406.01
LLC6 WRITEBACK ACCESS: 16980  HIT:  8077  MISS:  8903  HIT %: 47.5677  MISS %: 52.4323  AVERAGE MISS PENALTY: 0

LLC7 TOTAL     ACCESS: 26144967  HIT: 13956566  MISS: 12188401  HIT %: 53.3815  MISS %: 46.6185  AVERAGE MISS PENALTY: 391.482
LLC7 LOAD      ACCESS: 3761958  HIT: 2042896  MISS: 1719062  HIT %: 54.3041  MISS %: 45.6959  AVERAGE MISS PENALTY: 379.996
LLC7 RFO       ACCESS:  8187  HIT:   625  MISS:  7562  HIT %: 7.63405  MISS %: 92.3659  AVERAGE MISS PENALTY: 404.639
LLC7 PREFETCH  ACCESS: 22357842  HIT: 11904950  MISS: 10452892  HIT %: 53.2473  MISS %: 46.7527  AVERAGE MISS PENALTY: 393.694
LLC7 WRITEBACK ACCESS: 16980  HIT:  8095  MISS:  8885  HIT %: 47.6737  MISS %: 52.3263  AVERAGE MISS PENALTY: 0

Total Rob stall cycles : 	8437257997
Total Load Rob Stall cycles : 	8297760536
Average Rob Stall cycles : 	 197
Average Load Rob Stall cycles : 	 235

CPU 1 cumulative IPC: 0.0236178 instructions: 200182562 cycles: 8475918297
ITLB TOTAL     ACCESS: 34360735  HIT: 34360735  MISS:     0  HIT %:   100  MISS %:     0  AVERAGE MISS PENALTY: 0
ITLB LOAD      ACCESS: 34360735  HIT: 34360735  MISS:     0  HIT %:   100  MISS %:     0  AVERAGE MISS PENALTY: 0
ITLB RFO       ACCESS:     0  HIT:     0  MISS:     0  HIT %:     0  MISS %:     0  AVERAGE MISS PENALTY: 0
ITLB PREFETCH  ACCESS:     0  HIT:     0  MISS:     0  HIT %:     0  MISS %:     0  AVERAGE MISS PENALTY: 0
ITLB WRITEBACK ACCESS:     0  HIT:     0  MISS:     0  HIT %:     0  MISS %:     0  AVERAGE MISS PENALTY: 0

DTLB TOTAL     ACCESS: 78354447  HIT: 55415983  MISS: 22938464  HIT %: 70.7247  MISS %: 29.2753  AVERAGE MISS PENALTY: 9.18629
DTLB LOAD      ACCESS: 75655105  HIT: 52721694  MISS: 22933411  HIT %: 69.6869  MISS %: 30.3131  AVERAGE MISS PENALTY: 9.18283
DTLB RFO       ACCESS: 2699342  HIT: 2694289  MISS:  5053  HIT %: 99.8128  MISS %: 0.187194  AVERAGE MISS PENALTY: 24.8949
DTLB PREFETCH  ACCESS:     0  HIT:     0  MISS:     0  HIT %:     0  MISS %:     0  AVERAGE MISS PENALTY: 0
DTLB WRITEBACK ACCESS:     0  HIT:     0  MISS:     0  HIT %:     0  MISS %:     0  AVERAGE MISS PENALTY: 0

STLB TOTAL     ACCESS: 22938464  HIT: 22897609  MISS: 40855  HIT %: 99.8219  MISS %: 0.178107  AVERAGE MISS PENALTY: 100
STLB LOAD      ACCESS: 22933411  HIT: 22893306  MISS: 40105  HIT %: 99.8251  MISS %: 0.174876  AVERAGE MISS PENALTY: 100
STLB RFO       ACCESS:  5053  HIT:  4303  MISS:   750  HIT %: 85.1573  MISS %: 14.8427  AVERAGE MISS PENALTY: 100
STLB PREFETCH  ACCESS:     0  HIT:     0  MISS:     0  HIT %:     0  MISS %:     0  AVERAGE MISS PENALTY: 0
STLB WRITEBACK ACCESS:     0  HIT:     0  MISS:     0  HIT %:     0  MISS %:     0  AVERAGE MISS PENALTY: 0

L1D TOTAL     ACCESS: 197234498  HIT: 41909506  MISS: 155324992  HIT %: 21.2486  MISS %: 78.7514  AVERAGE MISS PENALTY: 2.88303e+07
L1D LOAD      ACCESS: 66772563  HIT: 34456238  MISS: 32316325  HIT %: 51.6024  MISS %: 48.3976  AVERAGE MISS PENALTY: 1.38569e+08
L1D RFO       ACCESS: 2415736  HIT: 2350175  MISS: 65561  HIT %: 97.2861  MISS %: 2.71391  AVERAGE MISS PENALTY: 482.808
L1D PREFETCH  ACCESS: 128046199  HIT: 5103093  MISS: 122943106  HIT %: 3.98535  MISS %: 96.0146  AVERAGE MISS PENALTY: 255.943
L1D WRITEBACK ACCESS:     0  HIT:     0  MISS:     0  HIT %:     0  MISS %:     0  AVERAGE MISS PENALTY: 0

L1I TOTAL     ACCESS: 36105161  HIT: 36105148  MISS:    13  HIT %:   100  MISS %: 3.60059e-05  AVERAGE MISS PENALTY: 320.308
L1I LOAD      ACCESS: 36105161  HIT: 36105148  MISS:    13  HIT %:   100  MISS %: 3.60059e-05  AVERAGE MISS PENALTY: 320.308
L1I RFO       ACCESS:     0  HIT:     0  MISS:     0  HIT %:     0  MISS %:     0  AVERAGE MISS PENALTY: 0
L1I PREFETCH  ACCESS:     0  HIT:     0  MISS:     0  HIT %:     0  MISS %:     0  AVERAGE MISS PENALTY: 0
L1I WRITEBACK ACCESS:     0  HIT:     0  MISS:     0  HIT %:     0  MISS %:     0  AVERAGE MISS PENALTY: 0

L2C TOTAL     ACCESS: 229882545  HIT: 8290613  MISS: 221591932  HIT %: 3.60646  MISS %: 96.3935  AVERAGE MISS PENALTY: 2.38246e+07
L2C LOAD      ACCESS: 32281106  HIT: 678288  MISS: 31602818  HIT %: 2.10119  MISS %: 97.8988  AVERAGE MISS PENALTY: 1.67051e+08
L2C RFO       ACCESS: 65561  HIT:    54  MISS: 65507  HIT %: 0.082366  MISS %: 99.9176  AVERAGE MISS PENALTY: 467.967
L2C PREFETCH  ACCESS: 197332112  HIT: 7408674  MISS: 189923438  HIT %: 3.75442  MISS %: 96.2456  AVERAGE MISS PENALTY: 246.031
L2C WRITEBACK ACCESS: 203766  HIT: 203597  MISS:   169  HIT %: 99.9171  MISS %: 0.0829383  AVERAGE MISS PENALTY: 0


LLC0 TOTAL     ACCESS: 28613866  HIT: 14868254  MISS: 13745612  HIT %: 51.9617  MISS %: 48.0383  AVERAGE MISS PENALTY: 460.177
LLC0 LOAD      ACCESS: 3958001  HIT: 2150463  MISS: 1807538  HIT %: 54.332  MISS %: 45.668  AVERAGE MISS PENALTY: 447.213
LLC0 RFO       ACCESS:  8188  HIT:   584  MISS:  7604  HIT %: 7.13239  MISS %: 92.8676  AVERAGE MISS PENALTY: 471.874
LLC0 PREFETCH  ACCESS: 24630665  HIT: 12709159  MISS: 11921506  HIT %: 51.5989  MISS %: 48.4011  AVERAGE MISS PENALTY: 462.482
LLC0 WRITEBACK ACCESS: 17012  HIT:  8048  MISS:  8964  HIT %: 47.3078  MISS %: 52.6922  AVERAGE MISS PENALTY: 0

LLC1 TOTAL     ACCESS: 29079954  HIT: 15068086  MISS: 14011868  HIT %: 51.8161  MISS %: 48.1839  AVERAGE MISS PENALTY: 456.638
LLC1 LOAD      ACCESS: 3896962  HIT: 2103893  MISS: 1793069  HIT %: 53.988  MISS %: 46.012  AVERAGE MISS PENALTY: 443.796
LLC1 RFO       ACCESS:  8191  HIT:   576  MISS:  7615  HIT %: 7.03211  MISS %: 92.9679  AVERAGE MISS PENALTY: 485.781
LLC1 PREFETCH  ACCESS: 25157784  HIT: 12955594  MISS: 12202190  HIT %: 51.4974  MISS %: 48.5026  AVERAGE MISS PENALTY: 458.844
LLC1 WRITEBACK ACCESS: 17017  HIT:  8023  MISS:  8994  HIT %: 47.147  MISS %: 52.853  AVERAGE MISS PENALTY: 0

LLC2 TOTAL     ACCESS: 28679279  HIT: 14848199  MISS: 13831080  HIT %: 51.7733  MISS %: 48.2267  AVERAGE MISS PENALTY: 449.741
LLC2 LOAD      ACCESS: 3711171  HIT: 1987102  MISS: 1724069  HIT %: 53.5438  MISS %: 46.4562  AVERAGE MISS PENALTY: 446.248
[...]
LLC2 RFO       ACCESS:  8189  HIT:   572  MISS:  7617  HIT %: 6.98498  MISS %: 93.015  AVERAGE MISS PENALTY: 490.392
LLC2 PREFETCH  ACCESS: 24945336  HIT: 12860223  MISS: 12085113  HIT %: 51.5536  MISS %: 48.4464  AVERAGE MISS PENALTY: 450.588
LLC2 WRITEBACK ACCESS: 16988  HIT:  8090  MISS:  8898  HIT %: 47.6219  MISS %: 52.3781  AVERAGE MISS PENALTY: 0
LLC2 PREFETCH  REQUESTED:     0  ISSUED:     0  USEFUL: 7715991  USELESS: 88980271
 USEFUL LOAD PREFETCHES:    7715991 PREFETCH ISSUED TO LOWER LEVEL:   96707325  ACCURACY: 7.9787
 TIMELY PREFETCHES:    7715991 LATE PREFETCHES: 0 DROPPED PREFETCHES: 0
LLC2 AVERAGE MISS LATENCY: 449.82 cycles
LLC3 TOTAL     ACCESS: 27885008  HIT: 14459929  MISS: 13425079  HIT %: 51.8556  MISS %: 48.1444  AVERAGE MISS PENALTY: 446.584
LLC3 LOAD      ACCESS: 3821964  HIT: 2072064  MISS: 1749900  HIT %: 54.2146  MISS %: 45.7854  AVERAGE MISS PENALTY: 442.496
LLC3 RFO       ACCESS:  8188  HIT:   567  MISS:  7621  HIT %: 6.92477  MISS %: 93.0752  AVERAGE MISS PENALTY: 468.656
LLC3 PREFETCH  ACCESS: 24037867  HIT: 12379201  MISS: 11658666  HIT %: 51.4987  MISS %: 48.5013  AVERAGE MISS PENALTY: 447.524
LLC3 WRITEBACK ACCESS: 16989  HIT:  8097  MISS:  8892  HIT %: 47.6603  MISS %: 52.3397  AVERAGE MISS PENALTY: 0
LLC3 PREFETCH  REQUESTED:     0  ISSUED:     0  USEFUL: 7721850  USELESS: 85553142
 USEFUL LOAD PREFETCHES:    7721850 PREFETCH ISSUED TO LOWER LEVEL:   93285154  ACCURACY: 8.27768
 TIMELY PREFETCHES:    7721850 LATE PREFETCHES: 0 DROPPED PREFETCHES: 0
LLC3 AVERAGE MISS LATENCY: 446.584 cycles
LLC4 TOTAL     ACCESS: 27465739  HIT: 14285363  MISS: 13180376  HIT %: 52.0116  MISS %: 47.9884  AVERAGE MISS PENALTY: 411.612
LLC4 LOAD      ACCESS: 3818403  HIT: 2053774  MISS: 1764629  HIT %: 53.7862  MISS %: 46.2138  AVERAGE MISS PENALTY: 396.335
LLC4 RFO       ACCESS:  8188  HIT:   608  MISS:  7580  HIT %: 7.4255  MISS %: 92.5745  AVERAGE MISS PENALTY: 389.589
LLC4 PREFETCH  ACCESS: 23622161  HIT: 12222867  MISS: 11399294  HIT %: 51.7432  MISS %: 48.2568  AVERAGE MISS PENALTY: 414.313
LLC4 WRITEBACK ACCESS: 16987  HIT:  8114  MISS:  8873  HIT %: 47.7659  MISS %: 52.2341  AVERAGE MISS PENALTY: 0
LLC4 PREFETCH  REQUESTED:     0  ISSUED:     0  USEFUL: 7712773  USELESS: 83486162
 USEFUL LOAD PREFETCHES:    7712773 PREFETCH ISSUED TO LOWER LEVEL:   91210834  ACCURACY: 8.45598
 TIMELY PREFETCHES:    7712773 LATE PREFETCHES: 0 DROPPED PREFETCHES: 0
LLC4 AVERAGE MISS LATENCY: 411.612 cycles
LLC5 TOTAL     ACCESS: 27114523  HIT: 14196715  MISS: 12917808  HIT %: 52.3583  MISS %: 47.6417  AVERAGE MISS PENALTY: 397.504
LLC5 LOAD      ACCESS: 3709839  HIT: 1993786  MISS: 1716053  HIT %: 53.7432  MISS %: 46.2568  AVERAGE MISS PENALTY: 380.432
LLC5 RFO       ACCESS:  8188  HIT:   621  MISS:  7567  HIT %: 7.58427  MISS %: 92.4157  AVERAGE MISS PENALTY: 403.305
LLC5 PREFETCH  ACCESS: 23379509  HIT: 12194177  MISS: 11185332  HIT %: 52.1575  MISS %: 47.8425  AVERAGE MISS PENALTY: 400.434
LLC5 WRITEBACK ACCESS: 16987  HIT:  8131  MISS:  8856  HIT %: 47.866  MISS %: 52.134  AVERAGE MISS PENALTY: 0
LLC5 PREFETCH  REQUESTED:     0  ISSUED:     0  USEFUL: 7529555  USELESS: 81961319
 USEFUL LOAD PREFETCHES:    7529555 PREFETCH ISSUED TO LOWER LEVEL:   89497327  ACCURACY: 8.41316
 TIMELY PREFETCHES:    7529555 LATE PREFETCHES: 0 DROPPED PREFETCHES: 0
LLC5 AVERAGE MISS LATENCY: 397.504 cycles
LLC6 TOTAL     ACCESS: 26753873  HIT: 14142354  MISS: 12611519  HIT %: 52.861  MISS %: 47.139  AVERAGE MISS PENALTY: 404.376
LLC6 LOAD      ACCESS: 3952003  HIT: 2177747  MISS: 1774256  HIT %: 55.1049  MISS %: 44.8951  AVERAGE MISS PENALTY: 394.963
LLC6 RFO       ACCESS:  8187  HIT:   664  MISS:  7523  HIT %: 8.11042  MISS %: 91.8896  AVERAGE MISS PENALTY: 421.746
LLC6 PREFETCH  ACCESS: 22776697  HIT: 11955839  MISS: 10820858  HIT %: 52.4915  MISS %: 47.5085  AVERAGE MISS PENALTY: 406.239
LLC6 WRITEBACK ACCESS: 16986  HIT:  8104  MISS:  8882  HIT %: 47.7099  MISS %: 52.2901  AVERAGE MISS PENALTY: 0
LLC6 PREFETCH  REQUESTED:     0  ISSUED:     0  USEFUL: 7600372  USELESS: 78998227
 USEFUL LOAD PREFETCHES:    7600372 PREFETCH ISSUED TO LOWER LEVEL:   86611144  ACCURACY: 8.77528
 TIMELY PREFETCHES:    7600372 LATE PREFETCHES: 0 DROPPED PREFETCHES: 0
LLC6 AVERAGE MISS LATENCY: 404.376 cycles
LLC7 TOTAL     ACCESS: 26148933  HIT: 13961909  MISS: 12187024  HIT %: 53.3938  MISS %: 46.6062  AVERAGE MISS PENALTY: 391.807
LLC7 LOAD      ACCESS: 3764244  HIT: 2045393  MISS: 1718851  HIT %: 54.3374  MISS %: 45.6626  AVERAGE MISS PENALTY: 379.826
LLC7 RFO       ACCESS:  8187  HIT:   619  MISS:  7568  HIT %: 7.56077  MISS %: 92.4392  AVERAGE MISS PENALTY: 409.566
LLC7 PREFETCH  ACCESS: 22359516  HIT: 11907747  MISS: 10451769  HIT %: 53.2558  MISS %: 46.7442  AVERAGE MISS PENALTY: 394.096
LLC7 WRITEBACK ACCESS: 16986  HIT:  8150  MISS:  8836  HIT %: 47.9807  MISS %: 52.0193  AVERAGE MISS PENALTY: 0
LLC7 PREFETCH  REQUESTED:     0  ISSUED:     0  USEFUL: 7504833  USELESS: 76130118
 USEFUL LOAD PREFETCHES:    7504833 PREFETCH ISSUED TO LOWER LEVEL:   83640940  ACCURACY: 8.97268
 TIMELY PREFETCHES:    7504833 LATE PREFETCHES: 0 DROPPED PREFETCHES: 0
LLC7 AVERAGE MISS LATENCY: 391.807 cycles
ROI Average ROB Stall Cycles:	197.564
ROI Total ROB Stalls Cycles:	8437286545
ROI TOTAL ROB counter      :	42706642
ROI Average Load ROB Stall Cycles:	235.775
ROI Total Load ROB Stalls Cycle  :	8297445570
ROI Total Load ROB stalls Counter:	35192223
Major fault: 0 Minor fault: 34808

CPU 7 cumulative IPC: 0.0236002 instructions: 200000003 cycles: 8474486982
ITLB TOTAL     ACCESS: 34327639  HIT: 34327639  MISS:     0  HIT %:   100  MISS %:     0  AVERAGE MISS PENALTY: 0
ITLB LOAD      ACCESS: 34327639  HIT: 34327639  MISS:     0  HIT %:   100  MISS %:     0  AVERAGE MISS PENALTY: 0
ITLB RFO       ACCESS:     0  HIT:     0  MISS:     0  HIT %:     0  MISS %:     0  AVERAGE MISS PENALTY: 0
ITLB PREFETCH  ACCESS:     0  HIT:     0  MISS:     0  HIT %:     0  MISS %:     0  AVERAGE MISS PENALTY: 0
ITLB WRITEBACK ACCESS:     0  HIT:     0  MISS:     0  HIT %:     0  MISS %:     0  AVERAGE MISS PENALTY: 0
ITLB PREFETCH  REQUESTED:     0  ISSUED:     0  USEFUL:     0  USELESS:     0
 USEFUL LOAD PREFETCHES:          0 PREFETCH ISSUED TO LOWER LEVEL:          0  ACCURACY: -nan
 TIMELY PREFETCHES:          0 LATE PREFETCHES: 0 DROPPED PREFETCHES: 0
ITLB AVERAGE MISS LATENCY: -nan cycles
DTLB TOTAL     ACCESS: 78281239  HIT: 55334361  MISS: 22946878  HIT %: 70.6866  MISS %: 29.3134  AVERAGE MISS PENALTY: 9.18621
DTLB LOAD      ACCESS: 75582693  HIT: 52640842  MISS: 22941851  HIT %: 69.6467  MISS %: 30.3533  AVERAGE MISS PENALTY: 9.18269
DTLB RFO       ACCESS: 2698546  HIT: 2693519  MISS:  5027  HIT %: 99.8137  MISS %: 0.186286  AVERAGE MISS PENALTY: 25.2705
DTLB PREFETCH  ACCESS:     0  HIT:     0  MISS:     0  HIT %:     0  MISS %:     0  AVERAGE MISS PENALTY: 0
DTLB WRITEBACK ACCESS:     0  HIT:     0  MISS:     0  HIT %:     0  MISS %:     0  AVERAGE MISS PENALTY: 0
DTLB PREFETCH  REQUESTED:     0  ISSUED:     0  USEFUL:     0  USELESS:     0
 USEFUL LOAD PREFETCHES:          0 PREFETCH ISSUED TO LOWER LEVEL:          0  ACCURACY: -nan
 TIMELY PREFETCHES:          0 LATE PREFETCHES: 0 DROPPED PREFETCHES: 0
DTLB AVERAGE MISS LATENCY: 9.18621 cycles
STLB TOTAL     ACCESS: 22946878  HIT: 22906067  MISS: 40811  HIT %: 99.8222  MISS %: 0.17785  AVERAGE MISS PENALTY: 100
STLB LOAD      ACCESS: 22941851  HIT: 22901785  MISS: 40066  HIT %: 99.8254  MISS %: 0.174642  AVERAGE MISS PENALTY: 100
STLB RFO       ACCESS:  5027  HIT:  4282  MISS:   745  HIT %: 85.18  MISS %: 14.82  AVERAGE MISS PENALTY: 100
STLB PREFETCH  ACCESS:     0  HIT:     0  MISS:     0  HIT %:     0  MISS %:     0  AVERAGE MISS PENALTY: 0
STLB WRITEBACK ACCESS:     0  HIT:     0  MISS:     0  HIT %:     0  MISS %:     0  AVERAGE MISS PENALTY: 0
STLB PREFETCH  REQUESTED:     0  ISSUED:     0  USEFUL:     0  USELESS:     0
 USEFUL LOAD PREFETCHES:          0 PREFETCH ISSUED TO LOWER LEVEL:          0  ACCURACY: -nan
 TIMELY PREFETCHES:          0 LATE PREFETCHES: 0 DROPPED PREFETCHES: 0
STLB AVERAGE MISS LATENCY: 100 cycles
L1D TOTAL     ACCESS: 197143455  HIT: 41833308  MISS: 155310147  HIT %: 21.2197  MISS %: 78.7803  AVERAGE MISS PENALTY: 2.80714e+07
L1D LOAD      ACCESS: 66709611  HIT: 34402479  MISS: 32307132  HIT %: 51.5705  MISS %: 48.4295  AVERAGE MISS PENALTY: 1.34947e+08
L1D RFO       ACCESS: 2419172  HIT: 2353611  MISS: 65561  HIT %: 97.2899  MISS %: 2.71006  AVERAGE MISS PENALTY: 457.613
L1D PREFETCH  ACCESS: 128014672  HIT: 5077218  MISS: 122937454  HIT %: 3.96612  MISS %: 96.0339  AVERAGE MISS PENALTY: 256.044
L1D WRITEBACK ACCESS:     0  HIT:     0  MISS:     0  HIT %:     0  MISS %:     0  AVERAGE MISS PENALTY: 0
L1D PREFETCH  REQUESTED: 131512731  ISSUED: 131350140  USEFUL: 3351109  USELESS: 119586340
 USEFUL LOAD PREFETCHES:    3351109 PREFETCH ISSUED TO LOWER LEVEL:  138220022  ACCURACY: 2.42447
 TIMELY PREFETCHES:    3351109 LATE PREFETCHES: 984591 DROPPED PREFETCHES: 162591
L1D AVERAGE MISS LATENCY: 246.972 cycles
L1I TOTAL     ACCESS: 36071388  HIT: 36071375  MISS:    13  HIT %:   100  MISS %: 3.60396e-05  AVERAGE MISS PENALTY: 300.538
L1I LOAD      ACCESS: 36071388  HIT: 36071375  MISS:    13  HIT %:   100  MISS %: 3.60396e-05  AVERAGE MISS PENALTY: 300.538
L1I RFO       ACCESS:     0  HIT:     0  MISS:     0  HIT %:     0  MISS %:     0  AVERAGE MISS PENALTY: 0
L1I PREFETCH  ACCESS:     0  HIT:     0  MISS:     0  HIT %:     0  MISS %:     0  AVERAGE MISS PENALTY: 0
L1I WRITEBACK ACCESS:     0  HIT:     0  MISS:     0  HIT %:     0  MISS %:     0  AVERAGE MISS PENALTY: 0
L1I PREFETCH  REQUESTED:     0  ISSUED:     0  USEFUL:     0  USELESS:     0
 USEFUL LOAD PREFETCHES:          0 PREFETCH ISSUED TO LOWER LEVEL:          0  ACCURACY: -nan
 TIMELY PREFETCHES:          0 LATE PREFETCHES: 0 DROPPED PREFETCHES: 0
L1I AVERAGE MISS LATENCY: 300.538 cycles
L2C TOTAL     ACCESS: 229892578  HIT: 8262922  MISS: 221629656  HIT %: 3.59425  MISS %: 96.4057  AVERAGE MISS PENALTY: 2.33328e+07
L2C LOAD      ACCESS: 32273092  HIT: 675227  MISS: 31597865  HIT %: 2.09223  MISS %: 97.9078  AVERAGE MISS PENALTY: 1.63656e+08
L2C RFO       ACCESS: 65561  HIT:    55  MISS: 65506  HIT %: 0.0838913  MISS %: 99.9161  AVERAGE MISS PENALTY: 442.748
L2C PREFETCH  ACCESS: 197350148  HIT: 7384032  MISS: 189966116  HIT %: 3.74159  MISS %: 96.2584  AVERAGE MISS PENALTY: 246.092
L2C WRITEBACK ACCESS: 203777  HIT: 203608  MISS:   169  HIT %: 99.9171  MISS %: 0.0829338  AVERAGE MISS PENALTY: 0
L2C PREFETCH  REQUESTED: 298127642  ISSUED: 298121713  USEFUL: 545500  USELESS: 189420636
 USEFUL LOAD PREFETCHES:     545500 PREFETCH ISSUED TO LOWER LEVEL:  194191116  ACCURACY: 0.280909
 TIMELY PREFETCHES:     545500 LATE PREFETCHES: 1236822 DROPPED PREFETCHES: 5929
L2C AVERAGE MISS LATENCY: 241.873 cycles
LLC0 TOTAL     ACCESS: 28618737  HIT: 14872963  MISS: 13745774  HIT %: 51.9693  MISS %: 48.0307  AVERAGE MISS PENALTY: 460.308
LLC0 LOAD      ACCESS: 3959141  HIT: 2151569  MISS: 1807572  HIT %: 54.3443  MISS %: 45.6557  AVERAGE MISS PENALTY: 447.144
LLC0 RFO       ACCESS:  8188  HIT:   574  MISS:  7614  HIT %: 7.01026  MISS %: 92.9897  AVERAGE MISS PENALTY: 414.202
LLC0 PREFETCH  ACCESS: 24634421  HIT: 12712756  MISS: 11921665  HIT %: 51.6057  MISS %: 48.3943  AVERAGE MISS PENALTY: 462.678
LLC0 WRITEBACK ACCESS: 16987  HIT:  8064  MISS:  8923  HIT %: 47.4716  MISS %: 52.5284  AVERAGE MISS PENALTY: 0
LLC0 PREFETCH  REQUESTED:     0  ISSUED:     0  USEFUL: 7853221  USELESS: 87535079
 USEFUL LOAD PREFETCHES:    7853221 PREFETCH ISSUED TO LOWER LEVEL:   95394764  ACCURACY: 8.23234
 TIMELY PREFETCHES:    7853221 LATE PREFETCHES: 0 DROPPED PREFETCHES: 0
LLC0 AVERAGE MISS LATENCY: 460.308 cycles
Deadblocks : 13002432 Deadblock percentage : 719.331

LLC1 TOTAL     ACCESS: 29084854  HIT: 15074898  MISS: 14009956  HIT %: 51.8308  MISS %: 48.1692  AVERAGE MISS PENALTY: 456.871
LLC1 LOAD      ACCESS: 3898026  HIT: 2106180  MISS: 1791846  HIT %: 54.032  MISS %: 45.968  AVERAGE MISS PENALTY: 443.509
LLC1 RFO       ACCESS:  8191  HIT:   554  MISS:  7637  HIT %: 6.76352  MISS %: 93.2365  AVERAGE MISS PENALTY: 427.823
LLC1 PREFETCH  ACCESS: 25161645  HIT: 12960083  MISS: 12201562  HIT %: 51.5073  MISS %: 48.4927  AVERAGE MISS PENALTY: 459.185
LLC1 WRITEBACK ACCESS: 16992  HIT:  8081  MISS:  8911  HIT %: 47.5577  MISS %: 52.4423  AVERAGE MISS PENALTY: 0
LLC1 PREFETCH  REQUESTED:     0  ISSUED:     0  USEFUL: 7792880  USELESS: 89813815
 USEFUL LOAD PREFETCHES:    7792880 PREFETCH ISSUED TO LOWER LEVEL:   97615258  ACCURACY: 7.98326
 TIMELY PREFETCHES:    7792880 LATE PREFETCHES: 0 DROPPED PREFETCHES: 0
LLC1 AVERAGE MISS LATENCY: 456.871 cycles
LLC2 TOTAL     ACCESS: 28684032  HIT: 14861658  MISS: 13822374  HIT %: 51.8116  MISS %: 48.1884  AVERAGE MISS PENALTY: 466.491
LLC2 LOAD      ACCESS: 3712164  HIT: 1989306  MISS: 1722858  HIT %: 53.5889  MISS %: 46.4111  AVERAGE MISS PENALTY: 446.211
LLC2 RFO       ACCESS:  8189  HIT:   524  MISS:  7665  HIT %: 6.39883  MISS %: 93.6012  AVERAGE MISS PENALTY: 495.58
LLC2 PREFETCH  ACCESS: 24946688  HIT: 12863747  MISS: 12082941  HIT %: 51.5649  MISS %: 48.4351  AVERAGE MISS PENALTY: 469.708
LLC2 WRITEBACK ACCESS: 16991  HIT:  8081  MISS:  8910  HIT %: 47.5605  MISS %: 52.4395  AVERAGE MISS PENALTY: 0
LLC2 PREFETCH  REQUESTED:     0  ISSUED:     0  USEFUL: 7715991  USELESS: 88980271
 USEFUL LOAD PREFETCHES:    7715991 PREFETCH ISSUED TO LOWER LEVEL:   96707325  ACCURACY: 7.9787
 TIMELY PREFETCHES:    7715991 LATE PREFETCHES: 0 DROPPED PREFETCHES: 0
LLC2 AVERAGE MISS LATENCY: 449.952 cycles
LLC3 TOTAL     ACCESS: 27886518  HIT: 14463523  MISS: 13422995  HIT %: 51.8656  MISS %: 48.1344  AVERAGE MISS PENALTY: 446.787
LLC3 LOAD      ACCESS: 3821889  HIT: 2070612  MISS: 1751277  HIT %: 54.1777  MISS %: 45.8223  AVERAGE MISS PENALTY: 442.596
LLC3 RFO       ACCESS:  8188  HIT:   559  MISS:  7629  HIT %: 6.82706  MISS %: 93.1729  AVERAGE MISS PENALTY: 477.605
LLC3 PREFETCH  ACCESS: 24039449  HIT: 12384260  MISS: 11655189  HIT %: 51.5164  MISS %: 48.4836  AVERAGE MISS PENALTY: 447.738
LLC3 WRITEBACK ACCESS: 16992  HIT:  8092  MISS:  8900  HIT %: 47.6224  MISS %: 52.3776  AVERAGE MISS PENALTY: 0
LLC3 PREFETCH  REQUESTED:     0  ISSUED:     0  USEFUL: 7721850  USELESS: 85553142
 USEFUL LOAD PREFETCHES:    7721850 PREFETCH ISSUED TO LOWER LEVEL:   93285154  ACCURACY: 8.27768
 TIMELY PREFETCHES:    7721850 LATE PREFETCHES: 0 DROPPED PREFETCHES: 0
LLC3 AVERAGE MISS LATENCY: 446.787 cycles
LLC4 TOTAL     ACCESS: 27467962  HIT: 14286425  MISS: 13181537  HIT %: 52.0112  MISS %: 47.9888  AVERAGE MISS PENALTY: 411.674
LLC4 LOAD      ACCESS: 3818717  HIT: 2054122  MISS: 1764595  HIT %: 53.7909  MISS %: 46.2091  AVERAGE MISS PENALTY: 396.384
LLC4 RFO       ACCESS:  8188  HIT:   560  MISS:  7628  HIT %: 6.83928  MISS %: 93.1607  AVERAGE MISS PENALTY: 399.577
LLC4 PREFETCH  ACCESS: 23624066  HIT: 12223674  MISS: 11400392  HIT %: 51.7425  MISS %: 48.2575  AVERAGE MISS PENALTY: 414.371
LLC4 WRITEBACK ACCESS: 16991  HIT:  8069  MISS:  8922  HIT %: 47.4898  MISS %: 52.5102  AVERAGE MISS PENALTY: 0
LLC4 PREFETCH  REQUESTED:     0  ISSUED:     0  USEFUL: 7712773  USELESS: 83486162
 USEFUL LOAD PREFETCHES:    7712773 PREFETCH ISSUED TO LOWER LEVEL:   91210834  ACCURACY: 8.45598
 TIMELY PREFETCHES:    7712773 LATE PREFETCHES: 0 DROPPED PREFETCHES: 0
LLC4 AVERAGE MISS LATENCY: 411.674 cycles
LLC5 TOTAL     ACCESS: 27116443  HIT: 14201983  MISS: 12914460  HIT %: 52.3741  MISS %: 47.6259  AVERAGE MISS PENALTY: 397.568
LLC5 LOAD      ACCESS: 3709778  HIT: 1997131  MISS: 1712647  HIT %: 53.8342  MISS %: 46.1658  AVERAGE MISS PENALTY: 380.312
LLC5 RFO       ACCESS:  8188  HIT:   602  MISS:  7586  HIT %: 7.35222  MISS %: 92.6478  AVERAGE MISS PENALTY: 401.284
LLC5 PREFETCH  ACCESS: 23381486  HIT: 12196139  MISS: 11185347  HIT %: 52.1615  MISS %: 47.8385  AVERAGE MISS PENALTY: 400.523
LLC5 WRITEBACK ACCESS: 16991  HIT:  8111  MISS:  8880  HIT %: 47.737  MISS %: 52.263  AVERAGE MISS PENALTY: 0
LLC5 PREFETCH  REQUESTED:     0  ISSUED:     0  USEFUL: 7529555  USELESS: 81961319
 USEFUL LOAD PREFETCHES:    7529555 PREFETCH ISSUED TO LOWER LEVEL:   89497327  ACCURACY: 8.41316
 TIMELY PREFETCHES:    7529555 LATE PREFETCHES: 0 DROPPED PREFETCHES: 0
LLC5 AVERAGE MISS LATENCY: 397.568 cycles
LLC6 TOTAL     ACCESS: 26755765  HIT: 14139969  MISS: 12615796  HIT %: 52.8483  MISS %: 47.1517  AVERAGE MISS PENALTY: 404.397
LLC6 LOAD      ACCESS: 3951812  HIT: 2176187  MISS: 1775625  HIT %: 55.0681  MISS %: 44.9319  AVERAGE MISS PENALTY: 395.096
LLC6 RFO       ACCESS:  8187  HIT:   534  MISS:  7653  HIT %: 6.52254  MISS %: 93.4775  AVERAGE MISS PENALTY: 433.715
LLC6 PREFETCH  ACCESS: 22778776  HIT: 11955154  MISS: 10823622  HIT %: 52.4837  MISS %: 47.5163  AVERAGE MISS PENALTY: 406.235
LLC6 WRITEBACK ACCESS: 16990  HIT:  8094  MISS:  8896  HIT %: 47.6398  MISS %: 52.3602  AVERAGE MISS PENALTY: 0
LLC6 PREFETCH  REQUESTED:     0  ISSUED:     0  USEFUL: 7600372  USELESS: 78998227
 USEFUL LOAD PREFETCHES:    7600372 PREFETCH ISSUED TO LOWER LEVEL:   86611144  ACCURACY: 8.77528
 TIMELY PREFETCHES:    7600372 LATE PREFETCHES: 0 DROPPED PREFETCHES: 0
LLC6 AVERAGE MISS LATENCY: 404.397 cycles
LLC7 TOTAL     ACCESS: 26151100  HIT: 13961091  MISS: 12190009  HIT %: 53.3862  MISS %: 46.6138  AVERAGE MISS PENALTY: 391.843
LLC7 LOAD      ACCESS: 3764691  HIT: 2044909  MISS: 1719782  HIT %: 54.3181  MISS %: 45.6819  AVERAGE MISS PENALTY: 380.194
LLC7 RFO       ACCESS:  8187  HIT:   597  MISS:  7590  HIT %: 7.29205  MISS %: 92.708  AVERAGE MISS PENALTY: 415.061
LLC7 PREFETCH  ACCESS: 22361232  HIT: 11907450  MISS: 10453782  HIT %: 53.2504  MISS %: 46.7496  AVERAGE MISS PENALTY: 394.074
LLC7 WRITEBACK ACCESS: 16990  HIT:  8135  MISS:  8855  HIT %: 47.8811  MISS %: 52.1189  AVERAGE MISS PENALTY: 0
LLC7 PREFETCH  REQUESTED:     0  ISSUED:     0  USEFUL: 7504833  USELESS: 76130118
 USEFUL LOAD PREFETCHES:    7504833 PREFETCH ISSUED TO LOWER LEVEL:   83640940  ACCURACY: 8.97268
 TIMELY PREFETCHES:    7504833 LATE PREFETCHES: 0 DROPPED PREFETCHES: 0
LLC7 AVERAGE MISS LATENCY: 391.843 cycles
ROI Average ROB Stall Cycles:	197.544
ROI Total ROB Stalls Cycles:	8435865590
ROI TOTAL ROB counter      :	42703801
ROI Average Load ROB Stall Cycles:	235.735
ROI Total Load ROB Stalls Cycle  :	8296258520
ROI Total Load ROB stalls Counter:	35193145
Major fault: 0 Minor fault: 34808








Interconnect Stats 
LINK 0 BW : 0LINK 1 BW : 0LINK 2 BW : 0LINK 3 BW : 0LINK 4 BW : 0LINK 5 BW : 0LINK 6 BW : 0LINK 7 BW : 0
DRAM Statistics
 CHANNEL 0
 RQ ROW_BUFFER_HIT: 109438737  ROW_BUFFER_MISS: 317249187
 DBUS_CONGESTED: 181604308
 WQ ROW_BUFFER_HIT: 40439  ROW_BUFFER_MISS: 503287  FULL:     0

 CHANNEL 1
 RQ ROW_BUFFER_HIT: 106379297  ROW_BUFFER_MISS: 313687483
 DBUS_CONGESTED: 181604308
 WQ ROW_BUFFER_HIT: 39887  ROW_BUFFER_MISS: 503882  FULL:     0

 AVG_CONGESTED_CYCLE: 4
DRAM PAGES: 2097152
Allocated PAGES: 278464
L2C destructor called
L1D destructor called
L1I destructor called
STLB destructor called
DTLB destructor called
ITLB destructor called
L2C destructor called
L1D destructor called
L1I destructor called
STLB destructor called
DTLB destructor called
ITLB destructor called
L2C destructor called
L1D destructor called
L1I destructor called
STLB destructor called
DTLB destructor called
ITLB destructor called
L2C destructor called
L1D destructor called
L1I destructor called
STLB destructor called
DTLB destructor called
ITLB destructor called
L2C destructor called
L1D destructor called
L1I destructor called
STLB destructor called
DTLB destructor called
ITLB destructor called
L2C destructor called
L1D destructor called
L1I destructor called
STLB destructor called
DTLB destructor called
ITLB destructor called
L2C destructor called
L1D destructor called
L1I destructor called
STLB destructor called
DTLB destructor called
ITLB destructor called
L2C destructor called
L1D destructor called
L1I destructor called
STLB destructor called
DTLB destructor called
ITLB destructor called
