
*** ChampSim Multicore Out-of-Order Simulator ***

Warmup Instructions: 200000000
Simulation Instructions: 200000000
Number of CPUs: 1
threads:1

L1I Configuration:
L1I_SET:64
L1I_WAY:8
L1I_RQ_SIZE:64
L1I_WQ_SIZE:64
L1I_PQ_SIZE:8
L1I_MSHR_SIZE:8

L1D Configuration:
L1D_SET:64
L1D_WAY:12
L1D_RQ_SIZE:64
L1D_WQ_SIZE:64
L1D_PQ_SIZE:8
L1D_MSHR_SIZE:16

L2C Configuration:
L2C_SET:1024
L2C_WAY:8
L2C_RQ_SIZE:32
L2C_WQ_SIZE:32
L2C_PQ_SIZE:16
L2C_MSHR_SIZE:32

LLC Configuration:
LLC_SET:2048
LLC_WAY:16
LLC SLICES:1
LLC_RQ_SIZE:64
LLC_WQ_SIZE:64
LLC_PQ_SIZE:32
LLC_MSHR_SIZE:64

Interconnect OFF
Attacker deprioritize is: OFF
Off-chip DRAM Size: 4096 MB Channels: 1 Width: 64-bit Data Rate: 3200 MT/s
PAGE SIZE in KB: 4.000000 
PAGE SIZE in MB: 0.003906 
PAGE offset in bits: 12 
CEASER-S_LLC:0
MIRAGE : 1
CEASER_LATENCY:3
REMAP : OFF
Partitions : 1
Multi-Step : OFF
BFS : OFF

CPU 0 runs /home/anubhav/gap/cc-5.trace.gz
CPU 0 Bimodal branch predictor
Initialize SRRIP state
Heartbeat CPU 0 instructions: 10000000 cycles: 10447972 heartbeat IPC: 0.957124 cumulative IPC: 0.957124 (Simulation time: 0 hr 3 min 42 sec) 
 Total Blocks : 32768 Invalid Blocks : 1
Heartbeat CPU 0 instructions: 20000001 cycles: 19699597 heartbeat IPC: 1.08089 cumulative IPC: 1.01525 (Simulation time: 0 hr 7 min 14 sec) 
 Total Blocks : 32768 Invalid Blocks : 0
Heartbeat CPU 0 instructions: 30000001 cycles: 28266189 heartbeat IPC: 1.16733 cumulative IPC: 1.06134 (Simulation time: 0 hr 10 min 54 sec) 
 Total Blocks : 32768 Invalid Blocks : 0
Heartbeat CPU 0 instructions: 40000003 cycles: 36608653 heartbeat IPC: 1.19869 cumulative IPC: 1.09264 (Simulation time: 0 hr 14 min 43 sec) 
 Total Blocks : 32768 Invalid Blocks : 0
Heartbeat CPU 0 instructions: 50000001 cycles: 44537700 heartbeat IPC: 1.26119 cumulative IPC: 1.12264 (Simulation time: 0 hr 18 min 26 sec) 
 Total Blocks : 32768 Invalid Blocks : 0
Heartbeat CPU 0 instructions: 60000000 cycles: 52910607 heartbeat IPC: 1.19433 cumulative IPC: 1.13399 (Simulation time: 0 hr 22 min 24 sec) 
 Total Blocks : 32768 Invalid Blocks : 0
Heartbeat CPU 0 instructions: 70000001 cycles: 60825684 heartbeat IPC: 1.26341 cumulative IPC: 1.15083 (Simulation time: 0 hr 26 min 18 sec) 
 Total Blocks : 32768 Invalid Blocks : 0
Heartbeat CPU 0 instructions: 80000000 cycles: 68867715 heartbeat IPC: 1.24347 cumulative IPC: 1.16165 (Simulation time: 0 hr 30 min 10 sec) 
 Total Blocks : 32768 Invalid Blocks : 0
Heartbeat CPU 0 instructions: 90000003 cycles: 77079800 heartbeat IPC: 1.21772 cumulative IPC: 1.16762 (Simulation time: 0 hr 34 min 1 sec) 
 Total Blocks : 32768 Invalid Blocks : 0
Heartbeat CPU 0 instructions: 100000001 cycles: 84967352 heartbeat IPC: 1.26782 cumulative IPC: 1.17692 (Simulation time: 0 hr 38 min 11 sec) 
 Total Blocks : 32768 Invalid Blocks : 0
Heartbeat CPU 0 instructions: 110000000 cycles: 92954228 heartbeat IPC: 1.25205 cumulative IPC: 1.18338 (Simulation time: 0 hr 42 min 18 sec) 
 Total Blocks : 32768 Invalid Blocks : 0
Heartbeat CPU 0 instructions: 120000000 cycles: 100925573 heartbeat IPC: 1.25449 cumulative IPC: 1.189 (Simulation time: 0 hr 46 min 30 sec) 
 Total Blocks : 32768 Invalid Blocks : 0
Heartbeat CPU 0 instructions: 130000003 cycles: 108352994 heartbeat IPC: 1.34636 cumulative IPC: 1.19978 (Simulation time: 0 hr 50 min 34 sec) 
 Total Blocks : 32768 Invalid Blocks : 0
Heartbeat CPU 0 instructions: 140000003 cycles: 116280569 heartbeat IPC: 1.26142 cumulative IPC: 1.20398 (Simulation time: 0 hr 54 min 41 sec) 
 Total Blocks : 32768 Invalid Blocks : 0
Heartbeat CPU 0 instructions: 150000000 cycles: 124123477 heartbeat IPC: 1.27504 cumulative IPC: 1.20847 (Simulation time: 0 hr 58 min 55 sec) 
 Total Blocks : 32768 Invalid Blocks : 0
Heartbeat CPU 0 instructions: 160000000 cycles: 132067131 heartbeat IPC: 1.25887 cumulative IPC: 1.21151 (Simulation time: 1 hr 3 min 1 sec) 
 Total Blocks : 32768 Invalid Blocks : 0
Heartbeat CPU 0 instructions: 170000003 cycles: 139959240 heartbeat IPC: 1.26709 cumulative IPC: 1.21464 (Simulation time: 1 hr 7 min 18 sec) 
 Total Blocks : 32768 Invalid Blocks : 0
Heartbeat CPU 0 instructions: 180000001 cycles: 147963597 heartbeat IPC: 1.24932 cumulative IPC: 1.21652 (Simulation time: 1 hr 11 min 18 sec) 
 Total Blocks : 32768 Invalid Blocks : 0
Heartbeat CPU 0 instructions: 190000002 cycles: 155796902 heartbeat IPC: 1.2766 cumulative IPC: 1.21954 (Simulation time: 1 hr 15 min 14 sec) 
 Total Blocks : 32768 Invalid Blocks : 0
Heartbeat CPU 0 instructions: 200000003 cycles: 163627283 heartbeat IPC: 1.27708 cumulative IPC: 1.22229 (Simulation time: 1 hr 19 min 13 sec) 
 Total Blocks : 32768 Invalid Blocks : 0

Warmup complete CPU 0 instructions: 200000003 cycles: 163627283 (Simulation time: 1 hr 19 min 13 sec) 

Heartbeat CPU 0 instructions: 210000002 cycles: 214433622 heartbeat IPC: 0.196826 cumulative IPC: 0.196826 (Simulation time: 1 hr 29 min 34 sec) 
 Total Blocks : 32768 Invalid Blocks : 0
Heartbeat CPU 0 instructions: 220000000 cycles: 264515781 heartbeat IPC: 0.199672 cumulative IPC: 0.198239 (Simulation time: 1 hr 40 min 6 sec) 
 Total Blocks : 32768 Invalid Blocks : 0
Heartbeat CPU 0 instructions: 230000000 cycles: 314563664 heartbeat IPC: 0.199809 cumulative IPC: 0.198759 (Simulation time: 1 hr 50 min 33 sec) 
 Total Blocks : 32768 Invalid Blocks : 0
Heartbeat CPU 0 instructions: 240000001 cycles: 364109785 heartbeat IPC: 0.201832 cumulative IPC: 0.199519 (Simulation time: 2 hr 1 min 14 sec) 
 Total Blocks : 32768 Invalid Blocks : 0
Heartbeat CPU 0 instructions: 250000000 cycles: 412913569 heartbeat IPC: 0.204902 cumulative IPC: 0.200573 (Simulation time: 2 hr 11 min 57 sec) 
 Total Blocks : 32768 Invalid Blocks : 0
Heartbeat CPU 0 instructions: 260000000 cycles: 461356571 heartbeat IPC: 0.206428 cumulative IPC: 0.201525 (Simulation time: 2 hr 22 min 28 sec) 
 Total Blocks : 32768 Invalid Blocks : 0
Heartbeat CPU 0 instructions: 270000000 cycles: 511103578 heartbeat IPC: 0.201017 cumulative IPC: 0.201453 (Simulation time: 2 hr 32 min 39 sec) 
 Total Blocks : 32768 Invalid Blocks : 0
Heartbeat CPU 0 instructions: 280000001 cycles: 562441130 heartbeat IPC: 0.194789 cumulative IPC: 0.200595 (Simulation time: 2 hr 42 min 42 sec) 
 Total Blocks : 32768 Invalid Blocks : 0
Heartbeat CPU 0 instructions: 290000002 cycles: 613134142 heartbeat IPC: 0.197266 cumulative IPC: 0.200219 (Simulation time: 2 hr 52 min 56 sec) 
 Total Blocks : 32768 Invalid Blocks : 0
Heartbeat CPU 0 instructions: 300000002 cycles: 664159560 heartbeat IPC: 0.195981 cumulative IPC: 0.199787 (Simulation time: 3 hr 2 min 39 sec) 
 Total Blocks : 32768 Invalid Blocks : 0
Heartbeat CPU 0 instructions: 310000001 cycles: 714034349 heartbeat IPC: 0.200502 cumulative IPC: 0.199852 (Simulation time: 3 hr 12 min 14 sec) 
 Total Blocks : 32768 Invalid Blocks : 0
Heartbeat CPU 0 instructions: 320000003 cycles: 763993019 heartbeat IPC: 0.200165 cumulative IPC: 0.199878 (Simulation time: 3 hr 21 min 34 sec) 
 Total Blocks : 32768 Invalid Blocks : 0
Heartbeat CPU 0 instructions: 330000000 cycles: 815385398 heartbeat IPC: 0.194581 cumulative IPC: 0.19946 (Simulation time: 3 hr 30 min 35 sec) 
 Total Blocks : 32768 Invalid Blocks : 0
Heartbeat CPU 0 instructions: 340000001 cycles: 866146117 heartbeat IPC: 0.197003 cumulative IPC: 0.199283 (Simulation time: 3 hr 39 min 25 sec) 
 Total Blocks : 32768 Invalid Blocks : 0
Heartbeat CPU 0 instructions: 350000001 cycles: 915422856 heartbeat IPC: 0.202936 cumulative IPC: 0.199522 (Simulation time: 3 hr 47 min 42 sec) 
 Total Blocks : 32768 Invalid Blocks : 0
Heartbeat CPU 0 instructions: 360000001 cycles: 966045870 heartbeat IPC: 0.197539 cumulative IPC: 0.199397 (Simulation time: 3 hr 56 min 5 sec) 
 Total Blocks : 32768 Invalid Blocks : 0
Heartbeat CPU 0 instructions: 370000000 cycles: 1015302851 heartbeat IPC: 0.203017 cumulative IPC: 0.199607 (Simulation time: 4 hr 4 min 6 sec) 
 Total Blocks : 32768 Invalid Blocks : 0
Heartbeat CPU 0 instructions: 380000002 cycles: 1065630518 heartbeat IPC: 0.198698 cumulative IPC: 0.199556 (Simulation time: 4 hr 11 min 58 sec) 
 Total Blocks : 32768 Invalid Blocks : 0
Heartbeat CPU 0 instructions: 390000003 cycles: 1115303749 heartbeat IPC: 0.201316 cumulative IPC: 0.199648 (Simulation time: 4 hr 19 min 29 sec) 
 Total Blocks : 32768 Invalid Blocks : 0
Heartbeat CPU 0 instructions: 400000000 cycles: 1164975379 heartbeat IPC: 0.201322 cumulative IPC: 0.199731 (Simulation time: 4 hr 26 min 42 sec) 
 Total Blocks : 32768 Invalid Blocks : 0
Finished CPU 0 instructions: 200000000 cycles: 1001348114 cumulative IPC: 0.199731 (Simulation time: 4 hr 26 min 42 sec) 

CPU 0 Branch Prediction Accuracy: 93.0717% MPKI: 13.9943 Average ROB Occupancy at Mispredict: 54.7542

ChampSim completed all CPUs

Region of Interest Statistics

CPU 0 cumulative IPC: 0.199731 instructions: 200000000 cycles: 1001348114
ITLB TOTAL     ACCESS: 31393244  HIT: 31393244  MISS:     0  HIT %:   100  MISS %:     0  AVERAGE MISS PENALTY: 0
ITLB LOAD      ACCESS: 31393244  HIT: 31393244  MISS:     0  HIT %:   100  MISS %:     0  AVERAGE MISS PENALTY: 0
ITLB RFO       ACCESS:     0  HIT:     0  MISS:     0  HIT %:     0  MISS %:     0  AVERAGE MISS PENALTY: 0
ITLB PREFETCH  ACCESS:     0  HIT:     0  MISS:     0  HIT %:     0  MISS %:     0  AVERAGE MISS PENALTY: 0
ITLB WRITEBACK ACCESS:     0  HIT:     0  MISS:     0  HIT %:     0  MISS %:     0  AVERAGE MISS PENALTY: 0
ITLB PREFETCH  REQUESTED:     0  ISSUED:     0  USEFUL:     0  USELESS:     0
 USEFUL LOAD PREFETCHES:          0 PREFETCH ISSUED TO LOWER LEVEL:          0  ACCURACY: -nan
 TIMELY PREFETCHES:          0 LATE PREFETCHES: 0 DROPPED PREFETCHES: 0
ITLB AVERAGE MISS LATENCY: -nan cycles
DTLB TOTAL     ACCESS: 45442542  HIT: 35917578  MISS: 9524964  HIT %: 79.0395  MISS %: 20.9605  AVERAGE MISS PENALTY: 9.64656
DTLB LOAD      ACCESS: 45375975  HIT: 35851011  MISS: 9524964  HIT %: 79.0088  MISS %: 20.9912  AVERAGE MISS PENALTY: 9.64656
DTLB RFO       ACCESS: 66567  HIT: 66567  MISS:     0  HIT %:   100  MISS %:     0  AVERAGE MISS PENALTY: 0
DTLB PREFETCH  ACCESS:     0  HIT:     0  MISS:     0  HIT %:     0  MISS %:     0  AVERAGE MISS PENALTY: 0
DTLB WRITEBACK ACCESS:     0  HIT:     0  MISS:     0  HIT %:     0  MISS %:     0  AVERAGE MISS PENALTY: 0
DTLB PREFETCH  REQUESTED:     0  ISSUED:     0  USEFUL:     0  USELESS:     0
 USEFUL LOAD PREFETCHES:          0 PREFETCH ISSUED TO LOWER LEVEL:          0  ACCURACY: -nan
 TIMELY PREFETCHES:          0 LATE PREFETCHES: 0 DROPPED PREFETCHES: 0
DTLB AVERAGE MISS LATENCY: 9.64656 cycles
STLB TOTAL     ACCESS: 9524964  HIT: 9510611  MISS: 14353  HIT %: 99.8493  MISS %: 0.150688  AVERAGE MISS PENALTY: 100
STLB LOAD      ACCESS: 9524964  HIT: 9510611  MISS: 14353  HIT %: 99.8493  MISS %: 0.150688  AVERAGE MISS PENALTY: 100
STLB RFO       ACCESS:     0  HIT:     0  MISS:     0  HIT %:     0  MISS %:     0  AVERAGE MISS PENALTY: 0
STLB PREFETCH  ACCESS:     0  HIT:     0  MISS:     0  HIT %:     0  MISS %:     0  AVERAGE MISS PENALTY: 0
STLB WRITEBACK ACCESS:     0  HIT:     0  MISS:     0  HIT %:     0  MISS %:     0  AVERAGE MISS PENALTY: 0
STLB PREFETCH  REQUESTED:     0  ISSUED:     0  USEFUL:     0  USELESS:     0
 USEFUL LOAD PREFETCHES:          0 PREFETCH ISSUED TO LOWER LEVEL:          0  ACCURACY: -nan
 TIMELY PREFETCHES:          0 LATE PREFETCHES: 0 DROPPED PREFETCHES: 0
STLB AVERAGE MISS LATENCY: 100 cycles
L1D TOTAL     ACCESS: 41291995  HIT: 26548026  MISS: 14743969  HIT %: 64.2934  MISS %: 35.7066  AVERAGE MISS PENALTY: 113.036
L1D LOAD      ACCESS: 41225424  HIT: 26481455  MISS: 14743969  HIT %: 64.2357  MISS %: 35.7643  AVERAGE MISS PENALTY: 113.036
L1D RFO       ACCESS: 66571  HIT: 66571  MISS:     0  HIT %:   100  MISS %:     0  AVERAGE MISS PENALTY: 0
L1D PREFETCH  ACCESS:     0  HIT:     0  MISS:     0  HIT %:     0  MISS %:     0  AVERAGE MISS PENALTY: 0
L1D WRITEBACK ACCESS:     0  HIT:     0  MISS:     0  HIT %:     0  MISS %:     0  AVERAGE MISS PENALTY: 0
L1D PREFETCH  REQUESTED:     0  ISSUED:     0  USEFUL:     0  USELESS:     0
 USEFUL LOAD PREFETCHES:          0 PREFETCH ISSUED TO LOWER LEVEL:          0  ACCURACY: -nan
 TIMELY PREFETCHES:          0 LATE PREFETCHES: 0 DROPPED PREFETCHES: 0
L1D AVERAGE MISS LATENCY: 101.938 cycles
L1I TOTAL     ACCESS: 42637709  HIT: 42637709  MISS:     0  HIT %:   100  MISS %:     0  AVERAGE MISS PENALTY: 0
L1I LOAD      ACCESS: 42637709  HIT: 42637709  MISS:     0  HIT %:   100  MISS %:     0  AVERAGE MISS PENALTY: 0
L1I RFO       ACCESS:     0  HIT:     0  MISS:     0  HIT %:     0  MISS %:     0  AVERAGE MISS PENALTY: 0
L1I PREFETCH  ACCESS:     0  HIT:     0  MISS:     0  HIT %:     0  MISS %:     0  AVERAGE MISS PENALTY: 0
L1I WRITEBACK ACCESS:     0  HIT:     0  MISS:     0  HIT %:     0  MISS %:     0  AVERAGE MISS PENALTY: 0
L1I PREFETCH  REQUESTED:     0  ISSUED:     0  USEFUL:     0  USELESS:     0
 USEFUL LOAD PREFETCHES:          0 PREFETCH ISSUED TO LOWER LEVEL:          0  ACCURACY: -nan
 TIMELY PREFETCHES:          0 LATE PREFETCHES: 0 DROPPED PREFETCHES: 0
L1I AVERAGE MISS LATENCY: -nan cycles
L2C TOTAL     ACCESS: 14799645  HIT: 4570580  MISS: 10229065  HIT %: 30.883  MISS %: 69.117  AVERAGE MISS PENALTY: 140.927
L2C LOAD      ACCESS: 14743969  HIT: 4514998  MISS: 10228971  HIT %: 30.6227  MISS %: 69.3773  AVERAGE MISS PENALTY: 140.929
L2C RFO       ACCESS:     0  HIT:     0  MISS:     0  HIT %:     0  MISS %:     0  AVERAGE MISS PENALTY: 0
L2C PREFETCH  ACCESS:     0  HIT:     0  MISS:     0  HIT %:     0  MISS %:     0  AVERAGE MISS PENALTY: 0
L2C WRITEBACK ACCESS: 55676  HIT: 55582  MISS:    94  HIT %: 99.8312  MISS %: 0.168834  AVERAGE MISS PENALTY: 0
L2C PREFETCH  REQUESTED:     0  ISSUED:     0  USEFUL:     0  USELESS:     0
 USEFUL LOAD PREFETCHES:          0 PREFETCH ISSUED TO LOWER LEVEL:          0  ACCURACY: -nan
 TIMELY PREFETCHES:          0 LATE PREFETCHES: 0 DROPPED PREFETCHES: 0
L2C AVERAGE MISS LATENCY: 124.931 cycles
LLC0 TOTAL     ACCESS: 10284670  HIT: 5006834  MISS: 5277836  HIT %: 48.6825  MISS %: 51.3175  AVERAGE MISS PENALTY: 168.441
LLC0 LOAD      ACCESS: 10228971  HIT: 4957611  MISS: 5271360  HIT %: 48.4664  MISS %: 51.5336  AVERAGE MISS PENALTY: 168.648
LLC0 RFO       ACCESS:     0  HIT:     0  MISS:     0  HIT %:     0  MISS %:     0  AVERAGE MISS PENALTY: 0
LLC0 PREFETCH  ACCESS:     0  HIT:     0  MISS:     0  HIT %:     0  MISS %:     0  AVERAGE MISS PENALTY: 0
LLC0 WRITEBACK ACCESS: 55699  HIT: 49223  MISS:  6476  HIT %: 88.3732  MISS %: 11.6268  AVERAGE MISS PENALTY: 0
LLC0 PREFETCH  REQUESTED:     0  ISSUED:     0  USEFUL:     0  USELESS:     0
 USEFUL LOAD PREFETCHES:          0 PREFETCH ISSUED TO LOWER LEVEL:          0  ACCURACY: -nan
 TIMELY PREFETCHES:          0 LATE PREFETCHES: 0 DROPPED PREFETCHES: 0
LLC0 AVERAGE MISS LATENCY: 168.441 cycles
Deadblocks : 3252430 Deadblock percentage : 61.7

ROI Average ROB Stall Cycles:	11.4204
ROI Total ROB Stalls Cycles:	926675152
ROI TOTAL ROB counter      :	81142345
ROI Average Load ROB Stall Cycles:	64.9085
ROI Total Load ROB Stalls Cycle  :	431036497
ROI Total Load ROB stalls Counter:	6640675
Major fault: 0 Minor fault: 29430
Interconnect Stats 
LINK 0 BW : 0
DRAM Statistics
 CHANNEL 0
 RQ ROW_BUFFER_HIT: 1132443  ROW_BUFFER_MISS: 4138915
 DBUS_CONGESTED: 987541
 WQ ROW_BUFFER_HIT: 18398  ROW_BUFFER_MISS: 37371  FULL:     0

 AVG_CONGESTED_CYCLE: 5
DRAM PAGES: 1048576
Allocated PAGES: 29430
L2C destructor called
L1D destructor called
L1I destructor called
STLB destructor called
DTLB destructor called
ITLB destructor called
