
*** ChampSim Multicore Out-of-Order Simulator ***

Warmup Instructions: 200000000
Simulation Instructions: 200000000
Number of CPUs: 1
threads:1

L1I Configuration:
L1I_SET:64
L1I_WAY:8
L1I_RQ_SIZE:64
L1I_WQ_SIZE:64
L1I_PQ_SIZE:8
L1I_MSHR_SIZE:8

L1D Configuration:
L1D_SET:64
L1D_WAY:12
L1D_RQ_SIZE:64
L1D_WQ_SIZE:64
L1D_PQ_SIZE:8
L1D_MSHR_SIZE:16

L2C Configuration:
L2C_SET:1024
L2C_WAY:8
L2C_RQ_SIZE:32
L2C_WQ_SIZE:32
L2C_PQ_SIZE:16
L2C_MSHR_SIZE:32

LLC Configuration:
LLC_SET:2048
LLC_WAY:16
LLC SLICES:8
LLC_RQ_SIZE:64
LLC_WQ_SIZE:64
LLC_PQ_SIZE:32
LLC_MSHR_SIZE:64

Interconnect OFF
Attacker deprioritize is: OFF
Off-chip DRAM Size: 4096 MB Channels: 1 Width: 64-bit Data Rate: 3200 MT/s
PAGE SIZE in KB: 4.000000 
PAGE SIZE in MB: 0.003906 
PAGE offset in bits: 12 
CEASER-S_LLC:0
MIRAGE : 0
CEASER_LATENCY:3
REMAP : OFF
Partitions : 1
Multi-Step : OFF
BFS : OFF

CPU 0 runs /home/anubhav/spec_2017/600.perlbench_s-570B.champsimtrace.xz
CPU 0 Bimodal branch predictor
Initialize Hawkeye state
Initialize Hawkeye state
Initialize Hawkeye state
Initialize Hawkeye state
Initialize Hawkeye state
Initialize Hawkeye state
Initialize Hawkeye state
Initialize Hawkeye state
Heartbeat CPU 0 instructions: 10000002 cycles: 4995839 heartbeat IPC: 2.00167 cumulative IPC: 2.00167 (Simulation time: 0 hr 0 min 53 sec) 
 Total Blocks : 262144 Invalid Blocks : 258068
Heartbeat CPU 0 instructions: 20000002 cycles: 9928113 heartbeat IPC: 2.02746 cumulative IPC: 2.01448 (Simulation time: 0 hr 2 min 1 sec) 
 Total Blocks : 262144 Invalid Blocks : 256436
Heartbeat CPU 0 instructions: 30000000 cycles: 15052397 heartbeat IPC: 1.95149 cumulative IPC: 1.99304 (Simulation time: 0 hr 3 min 39 sec) 
 Total Blocks : 262144 Invalid Blocks : 254383
Heartbeat CPU 0 instructions: 40000001 cycles: 19996123 heartbeat IPC: 2.02277 cumulative IPC: 2.00039 (Simulation time: 0 hr 5 min 12 sec) 
 Total Blocks : 262144 Invalid Blocks : 252320
Heartbeat CPU 0 instructions: 50000002 cycles: 24955278 heartbeat IPC: 2.01647 cumulative IPC: 2.00358 (Simulation time: 0 hr 6 min 44 sec) 
 Total Blocks : 262144 Invalid Blocks : 250481
Heartbeat CPU 0 instructions: 60000000 cycles: 29881600 heartbeat IPC: 2.02991 cumulative IPC: 2.00792 (Simulation time: 0 hr 8 min 18 sec) 
 Total Blocks : 262144 Invalid Blocks : 249080
Heartbeat CPU 0 instructions: 70000001 cycles: 36346195 heartbeat IPC: 1.54689 cumulative IPC: 1.92592 (Simulation time: 0 hr 9 min 55 sec) 
 Total Blocks : 262144 Invalid Blocks : 215944
Heartbeat CPU 0 instructions: 80000000 cycles: 43065175 heartbeat IPC: 1.48832 cumulative IPC: 1.85765 (Simulation time: 0 hr 11 min 35 sec) 
 Total Blocks : 262144 Invalid Blocks : 191427
Heartbeat CPU 0 instructions: 90000000 cycles: 50804268 heartbeat IPC: 1.29214 cumulative IPC: 1.7715 (Simulation time: 0 hr 13 min 10 sec) 
 Total Blocks : 262144 Invalid Blocks : 160376
Heartbeat CPU 0 instructions: 100000002 cycles: 55806155 heartbeat IPC: 1.99925 cumulative IPC: 1.79192 (Simulation time: 0 hr 14 min 36 sec) 
 Total Blocks : 262144 Invalid Blocks : 154641
Heartbeat CPU 0 instructions: 110000000 cycles: 60892099 heartbeat IPC: 1.9662 cumulative IPC: 1.80647 (Simulation time: 0 hr 16 min 6 sec) 
 Total Blocks : 262144 Invalid Blocks : 149415
Heartbeat CPU 0 instructions: 120000001 cycles: 66011138 heartbeat IPC: 1.95349 cumulative IPC: 1.81788 (Simulation time: 0 hr 17 min 35 sec) 
 Total Blocks : 262144 Invalid Blocks : 143223
Heartbeat CPU 0 instructions: 130000000 cycles: 71087073 heartbeat IPC: 1.97008 cumulative IPC: 1.82874 (Simulation time: 0 hr 19 min 4 sec) 
 Total Blocks : 262144 Invalid Blocks : 140035
Heartbeat CPU 0 instructions: 140000003 cycles: 78729442 heartbeat IPC: 1.3085 cumulative IPC: 1.77824 (Simulation time: 0 hr 20 min 40 sec) 
 Total Blocks : 262144 Invalid Blocks : 127442
Heartbeat CPU 0 instructions: 150000001 cycles: 86795494 heartbeat IPC: 1.23976 cumulative IPC: 1.7282 (Simulation time: 0 hr 22 min 21 sec) 
 Total Blocks : 262144 Invalid Blocks : 119844
Heartbeat CPU 0 instructions: 160000000 cycles: 93132274 heartbeat IPC: 1.57809 cumulative IPC: 1.71799 (Simulation time: 0 hr 24 min 0 sec) 
 Total Blocks : 262144 Invalid Blocks : 114241
Heartbeat CPU 0 instructions: 170000001 cycles: 98420534 heartbeat IPC: 1.89098 cumulative IPC: 1.72728 (Simulation time: 0 hr 25 min 38 sec) 
 Total Blocks : 262144 Invalid Blocks : 111770
Heartbeat CPU 0 instructions: 180000003 cycles: 104427436 heartbeat IPC: 1.66475 cumulative IPC: 1.72369 (Simulation time: 0 hr 27 min 17 sec) 
 Total Blocks : 262144 Invalid Blocks : 107631
Heartbeat CPU 0 instructions: 190000001 cycles: 112224465 heartbeat IPC: 1.28254 cumulative IPC: 1.69304 (Simulation time: 0 hr 29 min 0 sec) 
 Total Blocks : 262144 Invalid Blocks : 101343
Heartbeat CPU 0 instructions: 200000001 cycles: 120409606 heartbeat IPC: 1.22173 cumulative IPC: 1.661 (Simulation time: 0 hr 30 min 40 sec) 
 Total Blocks : 262144 Invalid Blocks : 97561

Warmup complete CPU 0 instructions: 200000001 cycles: 120409606 (Simulation time: 0 hr 30 min 40 sec) 

Heartbeat CPU 0 instructions: 210000000 cycles: 139096100 heartbeat IPC: 0.535146 cumulative IPC: 0.535146 (Simulation time: 0 hr 33 min 59 sec) 
 Total Blocks : 262144 Invalid Blocks : 95403
Heartbeat CPU 0 instructions: 220000000 cycles: 153461317 heartbeat IPC: 0.696126 cumulative IPC: 0.605112 (Simulation time: 0 hr 36 min 58 sec) 
 Total Blocks : 262144 Invalid Blocks : 94754
Heartbeat CPU 0 instructions: 230000003 cycles: 166795540 heartbeat IPC: 0.74995 cumulative IPC: 0.646748 (Simulation time: 0 hr 39 min 42 sec) 
 Total Blocks : 262144 Invalid Blocks : 94277
Heartbeat CPU 0 instructions: 240000001 cycles: 180996235 heartbeat IPC: 0.704191 cumulative IPC: 0.660212 (Simulation time: 0 hr 42 min 33 sec) 
 Total Blocks : 262144 Invalid Blocks : 93751
Heartbeat CPU 0 instructions: 250000002 cycles: 196108590 heartbeat IPC: 0.66171 cumulative IPC: 0.660511 (Simulation time: 0 hr 45 min 16 sec) 
 Total Blocks : 262144 Invalid Blocks : 93192
Heartbeat CPU 0 instructions: 260000002 cycles: 210640116 heartbeat IPC: 0.688159 cumulative IPC: 0.664964 (Simulation time: 0 hr 47 min 48 sec) 
 Total Blocks : 262144 Invalid Blocks : 92650
Heartbeat CPU 0 instructions: 270000001 cycles: 225444228 heartbeat IPC: 0.675488 cumulative IPC: 0.666447 (Simulation time: 0 hr 50 min 27 sec) 
 Total Blocks : 262144 Invalid Blocks : 92062
Heartbeat CPU 0 instructions: 280000002 cycles: 240240105 heartbeat IPC: 0.675864 cumulative IPC: 0.66761 (Simulation time: 0 hr 53 min 6 sec) 
 Total Blocks : 262144 Invalid Blocks : 91519
Heartbeat CPU 0 instructions: 290000001 cycles: 258380816 heartbeat IPC: 0.551246 cumulative IPC: 0.65231 (Simulation time: 0 hr 56 min 1 sec) 
 Total Blocks : 262144 Invalid Blocks : 90085
Heartbeat CPU 0 instructions: 300000001 cycles: 283461654 heartbeat IPC: 0.398711 cumulative IPC: 0.613301 (Simulation time: 0 hr 59 min 21 sec) 
 Total Blocks : 262144 Invalid Blocks : 87153
Heartbeat CPU 0 instructions: 310000000 cycles: 309054333 heartbeat IPC: 0.390737 cumulative IPC: 0.583107 (Simulation time: 1 hr 2 min 48 sec) 
 Total Blocks : 262144 Invalid Blocks : 84879
Heartbeat CPU 0 instructions: 320000002 cycles: 328568391 heartbeat IPC: 0.512451 cumulative IPC: 0.576483 (Simulation time: 1 hr 5 min 36 sec) 
 Total Blocks : 262144 Invalid Blocks : 83193
Heartbeat CPU 0 instructions: 330000000 cycles: 341836842 heartbeat IPC: 0.753667 cumulative IPC: 0.5871 (Simulation time: 1 hr 8 min 1 sec) 
 Total Blocks : 262144 Invalid Blocks : 82764
Heartbeat CPU 0 instructions: 340000003 cycles: 355882550 heartbeat IPC: 0.711961 cumulative IPC: 0.594548 (Simulation time: 1 hr 10 min 20 sec) 
 Total Blocks : 262144 Invalid Blocks : 82314
Heartbeat CPU 0 instructions: 350000001 cycles: 369862115 heartbeat IPC: 0.71533 cumulative IPC: 0.601317 (Simulation time: 1 hr 12 min 39 sec) 
 Total Blocks : 262144 Invalid Blocks : 81919
Heartbeat CPU 0 instructions: 360000001 cycles: 383959828 heartbeat IPC: 0.709335 cumulative IPC: 0.607095 (Simulation time: 1 hr 14 min 33 sec) 
 Total Blocks : 262144 Invalid Blocks : 81461
Heartbeat CPU 0 instructions: 370000001 cycles: 409668781 heartbeat IPC: 0.38897 cumulative IPC: 0.587708 (Simulation time: 1 hr 16 min 44 sec) 
 Total Blocks : 262144 Invalid Blocks : 79536
Heartbeat CPU 0 instructions: 380000000 cycles: 433946359 heartbeat IPC: 0.411903 cumulative IPC: 0.574095 (Simulation time: 1 hr 19 min 23 sec) 
 Total Blocks : 262144 Invalid Blocks : 77755
Heartbeat CPU 0 instructions: 390000003 cycles: 454023508 heartbeat IPC: 0.498079 cumulative IPC: 0.569521 (Simulation time: 1 hr 22 min 25 sec) 
 Total Blocks : 262144 Invalid Blocks : 76495
Heartbeat CPU 0 instructions: 400000000 cycles: 466516071 heartbeat IPC: 0.800476 cumulative IPC: 0.577857 (Simulation time: 1 hr 24 min 52 sec) 
 Total Blocks : 262144 Invalid Blocks : 76437
Finished CPU 0 instructions: 200000000 cycles: 346106473 cumulative IPC: 0.577857 (Simulation time: 1 hr 24 min 52 sec) 

CPU 0 Branch Prediction Accuracy: 96.1878% MPKI: 5.40214 Average ROB Occupancy at Mispredict: 136.203

ChampSim completed all CPUs

Region of Interest Statistics

CPU 0 cumulative IPC: 0.577857 instructions: 200000000 cycles: 346106473
ITLB TOTAL     ACCESS: 31130853  HIT: 31087694  MISS: 43159  HIT %: 99.8614  MISS %: 0.138637  AVERAGE MISS PENALTY: 10.8737
ITLB LOAD      ACCESS: 31130853  HIT: 31087694  MISS: 43159  HIT %: 99.8614  MISS %: 0.138637  AVERAGE MISS PENALTY: 10.8737
ITLB RFO       ACCESS:     0  HIT:     0  MISS:     0  HIT %:     0  MISS %:     0  AVERAGE MISS PENALTY: 0
ITLB PREFETCH  ACCESS:     0  HIT:     0  MISS:     0  HIT %:     0  MISS %:     0  AVERAGE MISS PENALTY: 0
ITLB WRITEBACK ACCESS:     0  HIT:     0  MISS:     0  HIT %:     0  MISS %:     0  AVERAGE MISS PENALTY: 0
ITLB PREFETCH  REQUESTED:     0  ISSUED:     0  USEFUL:     0  USELESS:     0
 USEFUL LOAD PREFETCHES:          0 PREFETCH ISSUED TO LOWER LEVEL:          0  ACCURACY: -nan
 TIMELY PREFETCHES:          0 LATE PREFETCHES: 0 DROPPED PREFETCHES: 0
ITLB AVERAGE MISS LATENCY: 10.8737 cycles
DTLB TOTAL     ACCESS: 52202830  HIT: 51756765  MISS: 446065  HIT %: 99.1455  MISS %: 0.854484  AVERAGE MISS PENALTY: 13.2273
DTLB LOAD      ACCESS: 30725858  HIT: 30317855  MISS: 408003  HIT %: 98.6721  MISS %: 1.32788  AVERAGE MISS PENALTY: 13.1376
DTLB RFO       ACCESS: 21476972  HIT: 21438910  MISS: 38062  HIT %: 99.8228  MISS %: 0.177222  AVERAGE MISS PENALTY: 14.1881
DTLB PREFETCH  ACCESS:     0  HIT:     0  MISS:     0  HIT %:     0  MISS %:     0  AVERAGE MISS PENALTY: 0
DTLB WRITEBACK ACCESS:     0  HIT:     0  MISS:     0  HIT %:     0  MISS %:     0  AVERAGE MISS PENALTY: 0
DTLB PREFETCH  REQUESTED:     0  ISSUED:     0  USEFUL:     0  USELESS:     0
 USEFUL LOAD PREFETCHES:          0 PREFETCH ISSUED TO LOWER LEVEL:          0  ACCURACY: -nan
 TIMELY PREFETCHES:          0 LATE PREFETCHES: 0 DROPPED PREFETCHES: 0
DTLB AVERAGE MISS LATENCY: 13.2273 cycles
STLB TOTAL     ACCESS: 489224  HIT: 470876  MISS: 18348  HIT %: 96.2496  MISS %: 3.75043  AVERAGE MISS PENALTY: 100
STLB LOAD      ACCESS: 451162  HIT: 434723  MISS: 16439  HIT %: 96.3563  MISS %: 3.6437  AVERAGE MISS PENALTY: 100
STLB RFO       ACCESS: 38062  HIT: 36153  MISS:  1909  HIT %: 94.9845  MISS %: 5.0155  AVERAGE MISS PENALTY: 100
STLB PREFETCH  ACCESS:     0  HIT:     0  MISS:     0  HIT %:     0  MISS %:     0  AVERAGE MISS PENALTY: 0
STLB WRITEBACK ACCESS:     0  HIT:     0  MISS:     0  HIT %:     0  MISS %:     0  AVERAGE MISS PENALTY: 0
STLB PREFETCH  REQUESTED:     0  ISSUED:     0  USEFUL:     0  USELESS:     0
 USEFUL LOAD PREFETCHES:          0 PREFETCH ISSUED TO LOWER LEVEL:          0  ACCURACY: -nan
 TIMELY PREFETCHES:          0 LATE PREFETCHES: 0 DROPPED PREFETCHES: 0
STLB AVERAGE MISS LATENCY: 100 cycles
L1D TOTAL     ACCESS: 85676833  HIT: 84503431  MISS: 1173402  HIT %: 98.6304  MISS %: 1.36957  AVERAGE MISS PENALTY: 1.59361e+06
L1D LOAD      ACCESS: 33942171  HIT: 33587855  MISS: 354316  HIT %: 98.9561  MISS %: 1.04388  AVERAGE MISS PENALTY: 5.15396e+06
L1D RFO       ACCESS: 40101464  HIT: 40066941  MISS: 34523  HIT %: 99.9139  MISS %: 0.0860891  AVERAGE MISS PENALTY: 1.26821e+06
L1D PREFETCH  ACCESS: 11633198  HIT: 10848635  MISS: 784563  HIT %: 93.2558  MISS %: 6.74417  AVERAGE MISS PENALTY: 36.9087
L1D WRITEBACK ACCESS:     0  HIT:     0  MISS:     0  HIT %:     0  MISS %:     0  AVERAGE MISS PENALTY: 0
L1D PREFETCH  REQUESTED: 13128998  ISSUED: 13031970  USEFUL: 173929  USELESS: 610614
 USEFUL LOAD PREFETCHES:     173929 PREFETCH ISSUED TO LOWER LEVEL:     852388  ACCURACY: 20.4049
 TIMELY PREFETCHES:     173929 LATE PREFETCHES: 38741 DROPPED PREFETCHES: 97028
L1D AVERAGE MISS LATENCY: 37346.5 cycles
L1I TOTAL     ACCESS: 42962759  HIT: 42324326  MISS: 638433  HIT %: 98.514  MISS %: 1.48601  AVERAGE MISS PENALTY: 14.3605
L1I LOAD      ACCESS: 42962759  HIT: 42324326  MISS: 638433  HIT %: 98.514  MISS %: 1.48601  AVERAGE MISS PENALTY: 14.3605
L1I RFO       ACCESS:     0  HIT:     0  MISS:     0  HIT %:     0  MISS %:     0  AVERAGE MISS PENALTY: 0
L1I PREFETCH  ACCESS:     0  HIT:     0  MISS:     0  HIT %:     0  MISS %:     0  AVERAGE MISS PENALTY: 0
L1I WRITEBACK ACCESS:     0  HIT:     0  MISS:     0  HIT %:     0  MISS %:     0  AVERAGE MISS PENALTY: 0
L1I PREFETCH  REQUESTED:     0  ISSUED:     0  USEFUL:     0  USELESS:     0
 USEFUL LOAD PREFETCHES:          0 PREFETCH ISSUED TO LOWER LEVEL:          0  ACCURACY: -nan
 TIMELY PREFETCHES:          0 LATE PREFETCHES: 0 DROPPED PREFETCHES: 0
L1I AVERAGE MISS LATENCY: 14.3605 cycles
L2C TOTAL     ACCESS: 2887255  HIT: 2230333  MISS: 656922  HIT %: 77.2475  MISS %: 22.7525  AVERAGE MISS PENALTY: 1.88839e+06
L2C LOAD      ACCESS: 991084  HIT: 819422  MISS: 171662  HIT %: 82.6794  MISS %: 17.3206  AVERAGE MISS PENALTY: 7.20137e+06
L2C RFO       ACCESS: 34393  HIT: 23362  MISS: 11031  HIT %: 67.9266  MISS %: 32.0734  AVERAGE MISS PENALTY: 389563
L2C PREFETCH  ACCESS: 1705050  HIT: 1231882  MISS: 473168  HIT %: 72.249  MISS %: 27.751  AVERAGE MISS PENALTY: 53.1886
L2C WRITEBACK ACCESS: 156728  HIT: 155667  MISS:  1061  HIT %: 99.323  MISS %: 0.676969  AVERAGE MISS PENALTY: 0
L2C PREFETCH  REQUESTED: 1220169  ISSUED: 1196946  USEFUL: 46210  USELESS: 426340
 USEFUL LOAD PREFETCHES:      46210 PREFETCH ISSUED TO LOWER LEVEL:     506868  ACCURACY: 9.11677
 TIMELY PREFETCHES:      46210 LATE PREFETCHES: 30259 DROPPED PREFETCHES: 23223
L2C AVERAGE MISS LATENCY: 50.8461 cycles
LLC0 TOTAL     ACCESS: 86261  HIT: 77527  MISS:  8734  HIT %: 89.8749  MISS %: 10.1251  AVERAGE MISS PENALTY: 149.073
LLC0 LOAD      ACCESS: 21958  HIT: 20535  MISS:  1423  HIT %: 93.5194  MISS %: 6.48055  AVERAGE MISS PENALTY: 146.321
LLC0 RFO       ACCESS:  1441  HIT:  1253  MISS:   188  HIT %: 86.9535  MISS %: 13.0465  AVERAGE MISS PENALTY: 147.064
LLC0 PREFETCH  ACCESS: 56044  HIT: 48935  MISS:  7109  HIT %: 87.3153  MISS %: 12.6847  AVERAGE MISS PENALTY: 149.97
LLC0 WRITEBACK ACCESS:  6818  HIT:  6804  MISS:    14  HIT %: 99.7947  MISS %: 0.205339  AVERAGE MISS PENALTY: 0
LLC0 PREFETCH  REQUESTED:     0  ISSUED:     0  USEFUL:   852  USELESS:  4465
 USEFUL LOAD PREFETCHES:        852 PREFETCH ISSUED TO LOWER LEVEL:       7109  ACCURACY: 11.9848
 TIMELY PREFETCHES:        852 LATE PREFETCHES: 0 DROPPED PREFETCHES: 0
LLC0 AVERAGE MISS LATENCY: 149.073 cycles
Deadblocks : 1249 Deadblock percentage : 87.7723

LLC1 TOTAL     ACCESS: 89554  HIT: 80716  MISS:  8838  HIT %: 90.1311  MISS %: 9.86891  AVERAGE MISS PENALTY: 149.38
LLC1 LOAD      ACCESS: 21874  HIT: 20505  MISS:  1369  HIT %: 93.7414  MISS %: 6.25857  AVERAGE MISS PENALTY: 146.137
LLC1 RFO       ACCESS:  1403  HIT:  1214  MISS:   189  HIT %: 86.5289  MISS %: 13.4711  AVERAGE MISS PENALTY: 144.005
LLC1 PREFETCH  ACCESS: 59252  HIT: 51990  MISS:  7262  HIT %: 87.7439  MISS %: 12.2561  AVERAGE MISS PENALTY: 150.501
LLC1 WRITEBACK ACCESS:  7025  HIT:  7007  MISS:    18  HIT %: 99.7438  MISS %: 0.256228  AVERAGE MISS PENALTY: 0
LLC1 PREFETCH  REQUESTED:     0  ISSUED:     0  USEFUL:   881  USELESS:  4614
 USEFUL LOAD PREFETCHES:        881 PREFETCH ISSUED TO LOWER LEVEL:       7262  ACCURACY: 12.1316
 TIMELY PREFETCHES:        881 LATE PREFETCHES: 0 DROPPED PREFETCHES: 0
LLC1 AVERAGE MISS LATENCY: 149.379 cycles
LLC2 TOTAL     ACCESS: 89928  HIT: 81090  MISS:  8838  HIT %: 90.1721  MISS %: 9.82786  AVERAGE MISS PENALTY: 150.055
LLC2 LOAD      ACCESS: 21245  HIT: 19876  MISS:  1369  HIT %: 93.5561  MISS %: 6.44387  AVERAGE MISS PENALTY: 147.974
LLC2 RFO       ACCESS:  1406  HIT:  1231  MISS:   175  HIT %: 87.5533  MISS %: 12.4467  AVERAGE MISS PENALTY: 150.669
LLC2 PREFETCH  ACCESS: 60124  HIT: 52843  MISS:  7281  HIT %: 87.89  MISS %: 12.11  AVERAGE MISS PENALTY: 150.7
LLC2 WRITEBACK ACCESS:  7153  HIT:  7140  MISS:    13  HIT %: 99.8183  MISS %: 0.181742  AVERAGE MISS PENALTY: 0
LLC2 PREFETCH  REQUESTED:     0  ISSUED:     0  USEFUL:   920  USELESS:  4567
 USEFUL LOAD PREFETCHES:        920 PREFETCH ISSUED TO LOWER LEVEL:       7281  ACCURACY: 12.6356
 TIMELY PREFETCHES:        920 LATE PREFETCHES: 0 DROPPED PREFETCHES: 0
LLC2 AVERAGE MISS LATENCY: 150.055 cycles
LLC3 TOTAL     ACCESS: 90191  HIT: 81150  MISS:  9041  HIT %: 89.9757  MISS %: 10.0243  AVERAGE MISS PENALTY: 149.525
LLC3 LOAD      ACCESS: 21255  HIT: 19852  MISS:  1403  HIT %: 93.3992  MISS %: 6.6008  AVERAGE MISS PENALTY: 146.373
LLC3 RFO       ACCESS:  1492  HIT:  1323  MISS:   169  HIT %: 88.6729  MISS %: 11.3271  AVERAGE MISS PENALTY: 143.107
LLC3 PREFETCH  ACCESS: 60202  HIT: 52744  MISS:  7458  HIT %: 87.6117  MISS %: 12.3883  AVERAGE MISS PENALTY: 150.485
LLC3 WRITEBACK ACCESS:  7242  HIT:  7231  MISS:    11  HIT %: 99.8481  MISS %: 0.151892  AVERAGE MISS PENALTY: 0
LLC3 PREFETCH  REQUESTED:     0  ISSUED:     0  USEFUL:   935  USELESS:  4746
 USEFUL LOAD PREFETCHES:        935 PREFETCH ISSUED TO LOWER LEVEL:       7458  ACCURACY: 12.5369
 TIMELY PREFETCHES:        935 LATE PREFETCHES: 0 DROPPED PREFETCHES: 0
LLC3 AVERAGE MISS LATENCY: 149.525 cycles
LLC4 TOTAL     ACCESS: 90158  HIT: 81231  MISS:  8927  HIT %: 90.0985  MISS %: 9.90151  AVERAGE MISS PENALTY: 149.094
LLC4 LOAD      ACCESS: 21095  HIT: 19819  MISS:  1276  HIT %: 93.9512  MISS %: 6.04883  AVERAGE MISS PENALTY: 145.201
LLC4 RFO       ACCESS:  1407  HIT:  1223  MISS:   184  HIT %: 86.9225  MISS %: 13.0775  AVERAGE MISS PENALTY: 140.022
LLC4 PREFETCH  ACCESS: 60282  HIT: 52822  MISS:  7460  HIT %: 87.6248  MISS %: 12.3752  AVERAGE MISS PENALTY: 150.123
LLC4 WRITEBACK ACCESS:  7374  HIT:  7367  MISS:     7  HIT %: 99.9051  MISS %: 0.0949281  AVERAGE MISS PENALTY: 0
LLC4 PREFETCH  REQUESTED:     0  ISSUED:     0  USEFUL:   936  USELESS:  4697
 USEFUL LOAD PREFETCHES:        936 PREFETCH ISSUED TO LOWER LEVEL:       7460  ACCURACY: 12.5469
 TIMELY PREFETCHES:        936 LATE PREFETCHES: 0 DROPPED PREFETCHES: 0
LLC4 AVERAGE MISS LATENCY: 149.094 cycles
LLC5 TOTAL     ACCESS: 89896  HIT: 80860  MISS:  9036  HIT %: 89.9484  MISS %: 10.0516  AVERAGE MISS PENALTY: 148.698
LLC5 LOAD      ACCESS: 21255  HIT: 19868  MISS:  1387  HIT %: 93.4745  MISS %: 6.52552  AVERAGE MISS PENALTY: 145.998
LLC5 RFO       ACCESS:  1240  HIT:  1095  MISS:   145  HIT %: 88.3065  MISS %: 11.6935  AVERAGE MISS PENALTY: 146.8
LLC5 PREFETCH  ACCESS: 60125  HIT: 52638  MISS:  7487  HIT %: 87.5476  MISS %: 12.4524  AVERAGE MISS PENALTY: 149.573
LLC5 WRITEBACK ACCESS:  7276  HIT:  7259  MISS:    17  HIT %: 99.7664  MISS %: 0.233645  AVERAGE MISS PENALTY: 0
LLC5 PREFETCH  REQUESTED:     0  ISSUED:     0  USEFUL:   908  USELESS:  4747
 USEFUL LOAD PREFETCHES:        908 PREFETCH ISSUED TO LOWER LEVEL:       7487  ACCURACY: 12.1277
 TIMELY PREFETCHES:        908 LATE PREFETCHES: 0 DROPPED PREFETCHES: 0
LLC5 AVERAGE MISS LATENCY: 148.698 cycles
LLC6 TOTAL     ACCESS: 88425  HIT: 79290  MISS:  9135  HIT %: 89.6692  MISS %: 10.3308  AVERAGE MISS PENALTY: 149.618
LLC6 LOAD      ACCESS: 20504  HIT: 19088  MISS:  1416  HIT %: 93.094  MISS %: 6.90597  AVERAGE MISS PENALTY: 149.698
LLC6 RFO       ACCESS:  1247  HIT:  1083  MISS:   164  HIT %: 86.8484  MISS %: 13.1516  AVERAGE MISS PENALTY: 147.195
LLC6 PREFETCH  ACCESS: 59596  HIT: 52063  MISS:  7533  HIT %: 87.3599  MISS %: 12.6401  AVERAGE MISS PENALTY: 150.092
LLC6 WRITEBACK ACCESS:  7078  HIT:  7056  MISS:    22  HIT %: 99.6892  MISS %: 0.310822  AVERAGE MISS PENALTY: 0
LLC6 PREFETCH  REQUESTED:     0  ISSUED:     0  USEFUL:   937  USELESS:  4741
 USEFUL LOAD PREFETCHES:        937 PREFETCH ISSUED TO LOWER LEVEL:       7533  ACCURACY: 12.4386
 TIMELY PREFETCHES:        937 LATE PREFETCHES: 0 DROPPED PREFETCHES: 0
LLC6 AVERAGE MISS LATENCY: 149.618 cycles
LLC7 TOTAL     ACCESS: 88520  HIT: 79579  MISS:  8941  HIT %: 89.8995  MISS %: 10.1005  AVERAGE MISS PENALTY: 149.517
LLC7 LOAD      ACCESS: 20796  HIT: 19402  MISS:  1394  HIT %: 93.2968  MISS %: 6.70321  AVERAGE MISS PENALTY: 146.558
LLC7 RFO       ACCESS:  1391  HIT:  1216  MISS:   175  HIT %: 87.4191  MISS %: 12.5809  AVERAGE MISS PENALTY: 144.337
LLC7 PREFETCH  ACCESS: 59223  HIT: 51868  MISS:  7355  HIT %: 87.5808  MISS %: 12.4192  AVERAGE MISS PENALTY: 150.547
LLC7 WRITEBACK ACCESS:  7110  HIT:  7093  MISS:    17  HIT %: 99.7609  MISS %: 0.2391  AVERAGE MISS PENALTY: 0
LLC7 PREFETCH  REQUESTED:     0  ISSUED:     0  USEFUL:   898  USELESS:  4613
 USEFUL LOAD PREFETCHES:        898 PREFETCH ISSUED TO LOWER LEVEL:       7355  ACCURACY: 12.2094
 TIMELY PREFETCHES:        898 LATE PREFETCHES: 0 DROPPED PREFETCHES: 0
LLC7 AVERAGE MISS LATENCY: 149.517 cycles
ROI Average ROB Stall Cycles:	6.83989
ROI Total ROB Stalls Cycles:	294427800
ROI TOTAL ROB counter      :	43045680
ROI Average Load ROB Stall Cycles:	8.25786
ROI Total Load ROB Stalls Cycle  :	53110994
ROI Total Load ROB stalls Counter:	6431569
Major fault: 0 Minor fault: 5898

