
*** ChampSim Multicore Out-of-Order Simulator ***

Warmup Instructions: 200000000
Simulation Instructions: 200000000
Number of CPUs: 1
threads:1

L1I Configuration:
L1I_SET:64
L1I_WAY:8
L1I_RQ_SIZE:64
L1I_WQ_SIZE:64
L1I_PQ_SIZE:8
L1I_MSHR_SIZE:8

L1D Configuration:
L1D_SET:64
L1D_WAY:12
L1D_RQ_SIZE:64
L1D_WQ_SIZE:64
L1D_PQ_SIZE:8
L1D_MSHR_SIZE:16

L2C Configuration:
L2C_SET:1024
L2C_WAY:8
L2C_RQ_SIZE:32
L2C_WQ_SIZE:32
L2C_PQ_SIZE:16
L2C_MSHR_SIZE:32

LLC Configuration:
LLC_SET:2048
LLC_WAY:16
LLC SLICES:8
LLC_RQ_SIZE:64
LLC_WQ_SIZE:64
LLC_PQ_SIZE:32
LLC_MSHR_SIZE:64

Interconnect OFF
Attacker deprioritize is: OFF
Off-chip DRAM Size: 4096 MB Channels: 1 Width: 64-bit Data Rate: 3200 MT/s
PAGE SIZE in KB: 4.000000 
PAGE SIZE in MB: 0.003906 
PAGE offset in bits: 12 
CEASER-S_LLC:0
MIRAGE : 0
CEASER_LATENCY:3
REMAP : OFF
Partitions : 1
Multi-Step : OFF
BFS : OFF

CPU 0 runs /home/anubhav/spec_2017/602.gcc_s-2226B.champsimtrace.xz
CPU 0 Bimodal branch predictor
Initialize Hawkeye state
Initialize Hawkeye state
Initialize Hawkeye state
Initialize Hawkeye state
Initialize Hawkeye state
Initialize Hawkeye state
Initialize Hawkeye state
Initialize Hawkeye state
Heartbeat CPU 0 instructions: 10000001 cycles: 4875267 heartbeat IPC: 2.05117 cumulative IPC: 2.05117 (Simulation time: 0 hr 1 min 57 sec) 
 Total Blocks : 262144 Invalid Blocks : 34087
Heartbeat CPU 0 instructions: 20000000 cycles: 9741355 heartbeat IPC: 2.05504 cumulative IPC: 2.0531 (Simulation time: 0 hr 7 min 1 sec) 
 Total Blocks : 262144 Invalid Blocks : 10019
Heartbeat CPU 0 instructions: 30000000 cycles: 14589326 heartbeat IPC: 2.06272 cumulative IPC: 2.0563 (Simulation time: 0 hr 13 min 55 sec) 
 Total Blocks : 262144 Invalid Blocks : 3414
Heartbeat CPU 0 instructions: 40000001 cycles: 19439160 heartbeat IPC: 2.06193 cumulative IPC: 2.0577 (Simulation time: 0 hr 19 min 54 sec) 
 Total Blocks : 262144 Invalid Blocks : 1127
Heartbeat CPU 0 instructions: 50000000 cycles: 24313170 heartbeat IPC: 2.0517 cumulative IPC: 2.0565 (Simulation time: 0 hr 21 min 33 sec) 
 Total Blocks : 262144 Invalid Blocks : 454
Heartbeat CPU 0 instructions: 60000001 cycles: 29181046 heartbeat IPC: 2.05428 cumulative IPC: 2.05613 (Simulation time: 0 hr 23 min 14 sec) 
 Total Blocks : 262144 Invalid Blocks : 166
Heartbeat CPU 0 instructions: 70000000 cycles: 34020586 heartbeat IPC: 2.06631 cumulative IPC: 2.05758 (Simulation time: 0 hr 24 min 53 sec) 
 Total Blocks : 262144 Invalid Blocks : 86
Heartbeat CPU 0 instructions: 80000003 cycles: 38885275 heartbeat IPC: 2.05563 cumulative IPC: 2.05733 (Simulation time: 0 hr 26 min 33 sec) 
 Total Blocks : 262144 Invalid Blocks : 41
Heartbeat CPU 0 instructions: 90000000 cycles: 43751854 heartbeat IPC: 2.05483 cumulative IPC: 2.05706 (Simulation time: 0 hr 28 min 14 sec) 
 Total Blocks : 262144 Invalid Blocks : 15
Heartbeat CPU 0 instructions: 100000001 cycles: 48607949 heartbeat IPC: 2.05927 cumulative IPC: 2.05728 (Simulation time: 0 hr 30 min 7 sec) 
 Total Blocks : 262144 Invalid Blocks : 7
Heartbeat CPU 0 instructions: 110000000 cycles: 53448457 heartbeat IPC: 2.0659 cumulative IPC: 2.05806 (Simulation time: 0 hr 32 min 1 sec) 
 Total Blocks : 262144 Invalid Blocks : 4
Heartbeat CPU 0 instructions: 120000002 cycles: 58382126 heartbeat IPC: 2.02689 cumulative IPC: 2.05542 (Simulation time: 0 hr 33 min 55 sec) 
 Total Blocks : 262144 Invalid Blocks : 0
Heartbeat CPU 0 instructions: 130000000 cycles: 63248212 heartbeat IPC: 2.05504 cumulative IPC: 2.05539 (Simulation time: 0 hr 35 min 46 sec) 
 Total Blocks : 262144 Invalid Blocks : 0
Heartbeat CPU 0 instructions: 140000003 cycles: 68095973 heartbeat IPC: 2.06281 cumulative IPC: 2.05592 (Simulation time: 0 hr 37 min 37 sec) 
 Total Blocks : 262144 Invalid Blocks : 0
Heartbeat CPU 0 instructions: 150000000 cycles: 72948131 heartbeat IPC: 2.06094 cumulative IPC: 2.05626 (Simulation time: 0 hr 39 min 21 sec) 
 Total Blocks : 262144 Invalid Blocks : 0
Heartbeat CPU 0 instructions: 160000001 cycles: 77820665 heartbeat IPC: 2.05232 cumulative IPC: 2.05601 (Simulation time: 0 hr 40 min 59 sec) 
 Total Blocks : 262144 Invalid Blocks : 0
Heartbeat CPU 0 instructions: 170000000 cycles: 82685685 heartbeat IPC: 2.05549 cumulative IPC: 2.05598 (Simulation time: 0 hr 42 min 35 sec) 
 Total Blocks : 262144 Invalid Blocks : 0
Heartbeat CPU 0 instructions: 180000003 cycles: 87525712 heartbeat IPC: 2.0661 cumulative IPC: 2.05654 (Simulation time: 0 hr 44 min 11 sec) 
 Total Blocks : 262144 Invalid Blocks : 0
Heartbeat CPU 0 instructions: 190000001 cycles: 92449544 heartbeat IPC: 2.03094 cumulative IPC: 2.05518 (Simulation time: 0 hr 45 min 44 sec) 
 Total Blocks : 262144 Invalid Blocks : 0
Heartbeat CPU 0 instructions: 200000000 cycles: 97315475 heartbeat IPC: 2.0551 cumulative IPC: 2.05517 (Simulation time: 0 hr 47 min 19 sec) 
 Total Blocks : 262144 Invalid Blocks : 0

Warmup complete CPU 0 instructions: 200000001 cycles: 97315477 (Simulation time: 0 hr 47 min 19 sec) 

Heartbeat CPU 0 instructions: 210000002 cycles: 121204958 heartbeat IPC: 0.418594 cumulative IPC: 0.418594 (Simulation time: 0 hr 51 min 26 sec) 
 Total Blocks : 262144 Invalid Blocks : 0
Heartbeat CPU 0 instructions: 220000000 cycles: 144893025 heartbeat IPC: 0.422153 cumulative IPC: 0.420366 (Simulation time: 0 hr 55 min 38 sec) 
 Total Blocks : 262144 Invalid Blocks : 0
Heartbeat CPU 0 instructions: 230000000 cycles: 168927922 heartbeat IPC: 0.416062 cumulative IPC: 0.418922 (Simulation time: 0 hr 59 min 57 sec) 
 Total Blocks : 262144 Invalid Blocks : 0
Heartbeat CPU 0 instructions: 240000000 cycles: 192934801 heartbeat IPC: 0.416547 cumulative IPC: 0.418325 (Simulation time: 1 hr 4 min 7 sec) 
 Total Blocks : 262144 Invalid Blocks : 0
Heartbeat CPU 0 instructions: 250000003 cycles: 216720037 heartbeat IPC: 0.420429 cumulative IPC: 0.418745 (Simulation time: 1 hr 8 min 19 sec) 
 Total Blocks : 262144 Invalid Blocks : 0
Heartbeat CPU 0 instructions: 260000000 cycles: 240535223 heartbeat IPC: 0.4199 cumulative IPC: 0.418937 (Simulation time: 1 hr 12 min 3 sec) 
 Total Blocks : 262144 Invalid Blocks : 0
Heartbeat CPU 0 instructions: 270000000 cycles: 264517961 heartbeat IPC: 0.416967 cumulative IPC: 0.418654 (Simulation time: 1 hr 15 min 43 sec) 
 Total Blocks : 262144 Invalid Blocks : 0
Heartbeat CPU 0 instructions: 280000002 cycles: 288521468 heartbeat IPC: 0.416606 cumulative IPC: 0.418397 (Simulation time: 1 hr 19 min 27 sec) 
 Total Blocks : 262144 Invalid Blocks : 0
Heartbeat CPU 0 instructions: 290000002 cycles: 312197328 heartbeat IPC: 0.422371 cumulative IPC: 0.418835 (Simulation time: 1 hr 23 min 28 sec) 
 Total Blocks : 262144 Invalid Blocks : 0
Heartbeat CPU 0 instructions: 300000000 cycles: 336138764 heartbeat IPC: 0.417686 cumulative IPC: 0.41872 (Simulation time: 1 hr 27 min 35 sec) 
 Total Blocks : 262144 Invalid Blocks : 0
Heartbeat CPU 0 instructions: 310000003 cycles: 360126925 heartbeat IPC: 0.416872 cumulative IPC: 0.418551 (Simulation time: 1 hr 31 min 40 sec) 
 Total Blocks : 262144 Invalid Blocks : 0
Heartbeat CPU 0 instructions: 320000002 cycles: 383972434 heartbeat IPC: 0.419366 cumulative IPC: 0.418619 (Simulation time: 1 hr 35 min 26 sec) 
 Total Blocks : 262144 Invalid Blocks : 0
Heartbeat CPU 0 instructions: 330000000 cycles: 407682280 heartbeat IPC: 0.421766 cumulative IPC: 0.418859 (Simulation time: 1 hr 37 min 54 sec) 
 Total Blocks : 262144 Invalid Blocks : 0
Heartbeat CPU 0 instructions: 340000001 cycles: 431699666 heartbeat IPC: 0.416365 cumulative IPC: 0.41868 (Simulation time: 1 hr 40 min 18 sec) 
 Total Blocks : 262144 Invalid Blocks : 0
Heartbeat CPU 0 instructions: 350000003 cycles: 455724579 heartbeat IPC: 0.416235 cumulative IPC: 0.418516 (Simulation time: 1 hr 42 min 41 sec) 
 Total Blocks : 262144 Invalid Blocks : 0
Heartbeat CPU 0 instructions: 360000001 cycles: 479469868 heartbeat IPC: 0.421136 cumulative IPC: 0.418679 (Simulation time: 1 hr 45 min 1 sec) 
 Total Blocks : 262144 Invalid Blocks : 0
Heartbeat CPU 0 instructions: 370000003 cycles: 503276265 heartbeat IPC: 0.420055 cumulative IPC: 0.41876 (Simulation time: 1 hr 47 min 21 sec) 
 Total Blocks : 262144 Invalid Blocks : 0
Heartbeat CPU 0 instructions: 380000001 cycles: 527306453 heartbeat IPC: 0.416143 cumulative IPC: 0.418613 (Simulation time: 1 hr 49 min 39 sec) 
 Total Blocks : 262144 Invalid Blocks : 0
Heartbeat CPU 0 instructions: 390000001 cycles: 551292760 heartbeat IPC: 0.416905 cumulative IPC: 0.418523 (Simulation time: 1 hr 51 min 55 sec) 
 Total Blocks : 262144 Invalid Blocks : 0
Heartbeat CPU 0 instructions: 400000002 cycles: 574969910 heartbeat IPC: 0.422348 cumulative IPC: 0.418713 (Simulation time: 1 hr 54 min 8 sec) 
 Total Blocks : 262144 Invalid Blocks : 0
Finished CPU 0 instructions: 200000001 cycles: 477654433 cumulative IPC: 0.418713 (Simulation time: 1 hr 54 min 8 sec) 

CPU 0 Branch Prediction Accuracy: 99.1229% MPKI: 3.09892 Average ROB Occupancy at Mispredict: 145.92

ChampSim completed all CPUs

Region of Interest Statistics

CPU 0 cumulative IPC: 0.418713 instructions: 200000001 cycles: 477654433
ITLB TOTAL     ACCESS: 66049000  HIT: 66048995  MISS:     5  HIT %:   100  MISS %: 7.57014e-06  AVERAGE MISS PENALTY: 148.6
ITLB LOAD      ACCESS: 66049000  HIT: 66048995  MISS:     5  HIT %:   100  MISS %: 7.57014e-06  AVERAGE MISS PENALTY: 148.6
ITLB RFO       ACCESS:     0  HIT:     0  MISS:     0  HIT %:     0  MISS %:     0  AVERAGE MISS PENALTY: 0
ITLB PREFETCH  ACCESS:     0  HIT:     0  MISS:     0  HIT %:     0  MISS %:     0  AVERAGE MISS PENALTY: 0
ITLB WRITEBACK ACCESS:     0  HIT:     0  MISS:     0  HIT %:     0  MISS %:     0  AVERAGE MISS PENALTY: 0
ITLB PREFETCH  REQUESTED:     0  ISSUED:     0  USEFUL:     0  USELESS:     0
 USEFUL LOAD PREFETCHES:          0 PREFETCH ISSUED TO LOWER LEVEL:          0  ACCURACY: -nan
 TIMELY PREFETCHES:          0 LATE PREFETCHES: 0 DROPPED PREFETCHES: 0
ITLB AVERAGE MISS LATENCY: 148.6 cycles
DTLB TOTAL     ACCESS: 52020253  HIT: 51747049  MISS: 273204  HIT %: 99.4748  MISS %: 0.525188  AVERAGE MISS PENALTY: 105.539
DTLB LOAD      ACCESS: 49119093  HIT: 48845984  MISS: 273109  HIT %: 99.444  MISS %: 0.556014  AVERAGE MISS PENALTY: 105.54
DTLB RFO       ACCESS: 2901160  HIT: 2901065  MISS:    95  HIT %: 99.9967  MISS %: 0.00327455  AVERAGE MISS PENALTY: 102.684
DTLB PREFETCH  ACCESS:     0  HIT:     0  MISS:     0  HIT %:     0  MISS %:     0  AVERAGE MISS PENALTY: 0
DTLB WRITEBACK ACCESS:     0  HIT:     0  MISS:     0  HIT %:     0  MISS %:     0  AVERAGE MISS PENALTY: 0
DTLB PREFETCH  REQUESTED:     0  ISSUED:     0  USEFUL:     0  USELESS:     0
 USEFUL LOAD PREFETCHES:          0 PREFETCH ISSUED TO LOWER LEVEL:          0  ACCURACY: -nan
 TIMELY PREFETCHES:          0 LATE PREFETCHES: 0 DROPPED PREFETCHES: 0
DTLB AVERAGE MISS LATENCY: 105.539 cycles
STLB TOTAL     ACCESS: 273209  HIT:  9711  MISS: 263498  HIT %: 3.55442  MISS %: 96.4456  AVERAGE MISS PENALTY: 100
STLB LOAD      ACCESS: 273114  HIT:  9705  MISS: 263409  HIT %: 3.55346  MISS %: 96.4465  AVERAGE MISS PENALTY: 100
STLB RFO       ACCESS:    95  HIT:     6  MISS:    89  HIT %: 6.31579  MISS %: 93.6842  AVERAGE MISS PENALTY: 100
STLB PREFETCH  ACCESS:     0  HIT:     0  MISS:     0  HIT %:     0  MISS %:     0  AVERAGE MISS PENALTY: 0
STLB WRITEBACK ACCESS:     0  HIT:     0  MISS:     0  HIT %:     0  MISS %:     0  AVERAGE MISS PENALTY: 0
STLB PREFETCH  REQUESTED:     0  ISSUED:     0  USEFUL:     0  USELESS:     0
 USEFUL LOAD PREFETCHES:          0 PREFETCH ISSUED TO LOWER LEVEL:          0  ACCURACY: -nan
 TIMELY PREFETCHES:          0 LATE PREFETCHES: 0 DROPPED PREFETCHES: 0
STLB AVERAGE MISS LATENCY: 100 cycles
L1D TOTAL     ACCESS: 97252683  HIT: 82602350  MISS: 14650333  HIT %: 84.9358  MISS %: 15.0642  AVERAGE MISS PENALTY: 2.03878e+07
L1D LOAD      ACCESS: 33428079  HIT: 32165510  MISS: 1262569  HIT %: 96.223  MISS %: 3.77697  AVERAGE MISS PENALTY: 2.36485e+08
L1D RFO       ACCESS: 2919673  HIT: 2918596  MISS:  1077  HIT %: 99.9631  MISS %: 0.0368877  AVERAGE MISS PENALTY: 1.00599e+08
L1D PREFETCH  ACCESS: 60904931  HIT: 47518244  MISS: 13386687  HIT %: 78.0204  MISS %: 21.9796  AVERAGE MISS PENALTY: 88.4496
L1D WRITEBACK ACCESS:     0  HIT:     0  MISS:     0  HIT %:     0  MISS %:     0  AVERAGE MISS PENALTY: 0
L1D PREFETCH  REQUESTED: 125842679  ISSUED: 125135263  USEFUL: 12759647  USELESS: 627051
 USEFUL LOAD PREFETCHES:   12759647 PREFETCH ISSUED TO LOWER LEVEL:   52723348  ACCURACY: 24.2011
 TIMELY PREFETCHES:   12759647 LATE PREFETCHES: 1026674 DROPPED PREFETCHES: 707416
L1D AVERAGE MISS LATENCY: 7480.59 cycles
L1I TOTAL     ACCESS: 67404927  HIT: 67404901  MISS:    26  HIT %:   100  MISS %: 3.85728e-05  AVERAGE MISS PENALTY: 138.962
L1I LOAD      ACCESS: 67404927  HIT: 67404901  MISS:    26  HIT %:   100  MISS %: 3.85728e-05  AVERAGE MISS PENALTY: 138.962
L1I RFO       ACCESS:     0  HIT:     0  MISS:     0  HIT %:     0  MISS %:     0  AVERAGE MISS PENALTY: 0
L1I PREFETCH  ACCESS:     0  HIT:     0  MISS:     0  HIT %:     0  MISS %:     0  AVERAGE MISS PENALTY: 0
L1I WRITEBACK ACCESS:     0  HIT:     0  MISS:     0  HIT %:     0  MISS %:     0  AVERAGE MISS PENALTY: 0
L1I PREFETCH  REQUESTED:     0  ISSUED:     0  USEFUL:     0  USELESS:     0
 USEFUL LOAD PREFETCHES:          0 PREFETCH ISSUED TO LOWER LEVEL:          0  ACCURACY: -nan
 TIMELY PREFETCHES:          0 LATE PREFETCHES: 0 DROPPED PREFETCHES: 0
L1I AVERAGE MISS LATENCY: 138.962 cycles
L2C TOTAL     ACCESS: 18005575  HIT: 3219230  MISS: 14786345  HIT %: 17.8791  MISS %: 82.1209  AVERAGE MISS PENALTY: 4.33277e+06
L2C LOAD      ACCESS: 564056  HIT: 66267  MISS: 497789  HIT %: 11.7483  MISS %: 88.2517  AVERAGE MISS PENALTY: 1.28697e+08
L2C RFO       ACCESS:   750  HIT:   502  MISS:   248  HIT %: 66.9333  MISS %: 33.0667  AVERAGE MISS PENALTY: 181.036
L2C PREFETCH  ACCESS: 17417304  HIT: 3129741  MISS: 14287563  HIT %: 17.9691  MISS %: 82.0309  AVERAGE MISS PENALTY: 127.276
L2C WRITEBACK ACCESS: 23465  HIT: 22720  MISS:   745  HIT %: 96.8251  MISS %: 3.17494  AVERAGE MISS PENALTY: 0
L2C PREFETCH  REQUESTED: 21573566  ISSUED: 21572710  USEFUL: 58370  USELESS: 14229298
 USEFUL LOAD PREFETCHES:      58370 PREFETCH ISSUED TO LOWER LEVEL:   23610442  ACCURACY: 0.247221
 TIMELY PREFETCHES:      58370 LATE PREFETCHES: 195294 DROPPED PREFETCHES: 856
L2C AVERAGE MISS LATENCY: 126.426 cycles
LLC0 TOTAL     ACCESS: 1848754  HIT:  8851  MISS: 1839903  HIT %: 0.478755  MISS %: 99.5212  AVERAGE MISS PENALTY: 94.0825
LLC0 LOAD      ACCESS: 228449  HIT:   939  MISS: 227510  HIT %: 0.411033  MISS %: 99.589  AVERAGE MISS PENALTY: 86.6576
LLC0 RFO       ACCESS:   102  HIT:     0  MISS:   102  HIT %:     0  MISS %:   100  AVERAGE MISS PENALTY: 120.304
LLC0 PREFETCH  ACCESS: 1617509  HIT:  5255  MISS: 1612254  HIT %: 0.324882  MISS %: 99.6751  AVERAGE MISS PENALTY: 95.1308
LLC0 WRITEBACK ACCESS:  2694  HIT:  2657  MISS:    37  HIT %: 98.6266  MISS %: 1.37342  AVERAGE MISS PENALTY: 0
LLC0 PREFETCH  REQUESTED:     0  ISSUED:     0  USEFUL:    74  USELESS: 1612168
 USEFUL LOAD PREFETCHES:         74 PREFETCH ISSUED TO LOWER LEVEL:    1612254  ACCURACY: 0.00458985
 TIMELY PREFETCHES:         74 LATE PREFETCHES: 0 DROPPED PREFETCHES: 0
LLC0 AVERAGE MISS LATENCY: 94.0825 cycles
Deadblocks : 226982 Deadblock percentage : 99.7679

LLC1 TOTAL     ACCESS: 1849447  HIT:  7706  MISS: 1841741  HIT %: 0.416665  MISS %: 99.5833  AVERAGE MISS PENALTY: 95.488
LLC1 LOAD      ACCESS: 12673  HIT:   355  MISS: 12318  HIT %: 2.80123  MISS %: 97.1988  AVERAGE MISS PENALTY: 126.337
LLC1 RFO       ACCESS:    17  HIT:     0  MISS:    17  HIT %:     0  MISS %:   100  AVERAGE MISS PENALTY: 134.647
LLC1 PREFETCH  ACCESS: 1833959  HIT:  4559  MISS: 1829400  HIT %: 0.248588  MISS %: 99.7514  AVERAGE MISS PENALTY: 95.2803
LLC1 WRITEBACK ACCESS:  2798  HIT:  2792  MISS:     6  HIT %: 99.7856  MISS %: 0.214439  AVERAGE MISS PENALTY: 0
LLC1 PREFETCH  REQUESTED:     0  ISSUED:     0  USEFUL:    79  USELESS: 1829177
 USEFUL LOAD PREFETCHES:         79 PREFETCH ISSUED TO LOWER LEVEL:    1829400  ACCURACY: 0.00431836
 TIMELY PREFETCHES:         79 LATE PREFETCHES: 0 DROPPED PREFETCHES: 0
LLC1 AVERAGE MISS LATENCY: 95.488 cycles
LLC2 TOTAL     ACCESS: 1850155  HIT:  6867  MISS: 1843288  HIT %: 0.371158  MISS %: 99.6288  AVERAGE MISS PENALTY: 97.7012
LLC2 LOAD      ACCESS: 10776  HIT:   184  MISS: 10592  HIT %: 1.7075  MISS %: 98.2925  AVERAGE MISS PENALTY: 132.848
LLC2 RFO       ACCESS:    24  HIT:     0  MISS:    24  HIT %:     0  MISS %:   100  AVERAGE MISS PENALTY: 146.208
LLC2 PREFETCH  ACCESS: 1836536  HIT:  3875  MISS: 1832661  HIT %: 0.210995  MISS %: 99.789  AVERAGE MISS PENALTY: 97.498
LLC2 WRITEBACK ACCESS:  2819  HIT:  2808  MISS:    11  HIT %: 99.6098  MISS %: 0.390209  AVERAGE MISS PENALTY: 0
LLC2 PREFETCH  REQUESTED:     0  ISSUED:     0  USEFUL:    73  USELESS: 1832436
 USEFUL LOAD PREFETCHES:         73 PREFETCH ISSUED TO LOWER LEVEL:    1832661  ACCURACY: 0.00398328
 TIMELY PREFETCHES:         73 LATE PREFETCHES: 0 DROPPED PREFETCHES: 0
LLC2 AVERAGE MISS LATENCY: 97.7012 cycles
LLC3 TOTAL     ACCESS: 1850737  HIT:  6878  MISS: 1843859  HIT %: 0.371636  MISS %: 99.6284  AVERAGE MISS PENALTY: 91.3991
LLC3 LOAD      ACCESS: 10680  HIT:   348  MISS: 10332  HIT %: 3.25843  MISS %: 96.7416  AVERAGE MISS PENALTY: 135.207
LLC3 RFO       ACCESS:    31  HIT:     0  MISS:    31  HIT %:     0  MISS %:   100  AVERAGE MISS PENALTY: 167.548
LLC3 PREFETCH  ACCESS: 1837138  HIT:  3648  MISS: 1833490  HIT %: 0.19857  MISS %: 99.8014  AVERAGE MISS PENALTY: 91.1513
LLC3 WRITEBACK ACCESS:  2888  HIT:  2882  MISS:     6  HIT %: 99.7922  MISS %: 0.207756  AVERAGE MISS PENALTY: 0
LLC3 PREFETCH  REQUESTED:     0  ISSUED:     0  USEFUL:    78  USELESS: 1833294
 USEFUL LOAD PREFETCHES:         78 PREFETCH ISSUED TO LOWER LEVEL:    1833490  ACCURACY: 0.00425418
 TIMELY PREFETCHES:         78 LATE PREFETCHES: 0 DROPPED PREFETCHES: 0
LLC3 AVERAGE MISS LATENCY: 91.3991 cycles
LLC4 TOTAL     ACCESS: 1852883  HIT:  8584  MISS: 1844299  HIT %: 0.463278  MISS %: 99.5367  AVERAGE MISS PENALTY: 91.8861
LLC4 LOAD      ACCESS: 11734  HIT:  1051  MISS: 10683  HIT %: 8.95688  MISS %: 91.0431  AVERAGE MISS PENALTY: 133.266
LLC4 RFO       ACCESS:    17  HIT:     0  MISS:    17  HIT %:     0  MISS %:   100  AVERAGE MISS PENALTY: 128.765
LLC4 PREFETCH  ACCESS: 1838408  HIT:  4825  MISS: 1833583  HIT %: 0.262455  MISS %: 99.7375  AVERAGE MISS PENALTY: 91.6455
LLC4 WRITEBACK ACCESS:  2724  HIT:  2708  MISS:    16  HIT %: 99.4126  MISS %: 0.587372  AVERAGE MISS PENALTY: 0
LLC4 PREFETCH  REQUESTED:     0  ISSUED:     0  USEFUL:    69  USELESS: 1833433
 USEFUL LOAD PREFETCHES:         69 PREFETCH ISSUED TO LOWER LEVEL:    1833584  ACCURACY: 0.00376312
 TIMELY PREFETCHES:         69 LATE PREFETCHES: 0 DROPPED PREFETCHES: 0
LLC4 AVERAGE MISS LATENCY: 91.8861 cycles
LLC5 TOTAL     ACCESS: 1853833  HIT:  9058  MISS: 1844775  HIT %: 0.488609  MISS %: 99.5114  AVERAGE MISS PENALTY: 92.4318
LLC5 LOAD      ACCESS: 11176  HIT:   481  MISS: 10695  HIT %: 4.30387  MISS %: 95.6961  AVERAGE MISS PENALTY: 134.362
LLC5 RFO       ACCESS:    18  HIT:     0  MISS:    18  HIT %:     0  MISS %:   100  AVERAGE MISS PENALTY: 157.333
LLC5 PREFETCH  ACCESS: 1839320  HIT:  5325  MISS: 1833995  HIT %: 0.289509  MISS %: 99.7105  AVERAGE MISS PENALTY: 92.19
LLC5 WRITEBACK ACCESS:  3319  HIT:  3252  MISS:    67  HIT %: 97.9813  MISS %: 2.01868  AVERAGE MISS PENALTY: 0
LLC5 PREFETCH  REQUESTED:     0  ISSUED:     0  USEFUL:    65  USELESS: 1833807
 USEFUL LOAD PREFETCHES:         65 PREFETCH ISSUED TO LOWER LEVEL:    1833996  ACCURACY: 0.00354417
 TIMELY PREFETCHES:         65 LATE PREFETCHES: 0 DROPPED PREFETCHES: 0
LLC5 AVERAGE MISS LATENCY: 92.4318 cycles
LLC6 TOTAL     ACCESS: 1852064  HIT:  8844  MISS: 1843220  HIT %: 0.477521  MISS %: 99.5225  AVERAGE MISS PENALTY: 93.5462
LLC6 LOAD      ACCESS: 10869  HIT:   488  MISS: 10381  HIT %: 4.48983  MISS %: 95.5102  AVERAGE MISS PENALTY: 136.362
LLC6 RFO       ACCESS:    26  HIT:     0  MISS:    26  HIT %:     0  MISS %:   100  AVERAGE MISS PENALTY: 184.846
LLC6 PREFETCH  ACCESS: 1838415  HIT:  5614  MISS: 1832801  HIT %: 0.305372  MISS %: 99.6946  AVERAGE MISS PENALTY: 93.303
LLC6 WRITEBACK ACCESS:  2754  HIT:  2742  MISS:    12  HIT %: 99.5643  MISS %: 0.43573  AVERAGE MISS PENALTY: 0
LLC6 PREFETCH  REQUESTED:     0  ISSUED:     0  USEFUL:    61  USELESS: 1832618
 USEFUL LOAD PREFETCHES:         61 PREFETCH ISSUED TO LOWER LEVEL:    1832802  ACCURACY: 0.00332824
 TIMELY PREFETCHES:         61 LATE PREFETCHES: 0 DROPPED PREFETCHES: 0
LLC6 AVERAGE MISS LATENCY: 93.5462 cycles
LLC7 TOTAL     ACCESS: 1850614  HIT:  8847  MISS: 1841767  HIT %: 0.478058  MISS %: 99.5219  AVERAGE MISS PENALTY: 94.2335
LLC7 LOAD      ACCESS: 10936  HIT:   371  MISS: 10565  HIT %: 3.39247  MISS %: 96.6075  AVERAGE MISS PENALTY: 139.796
LLC7 RFO       ACCESS:    13  HIT:     0  MISS:    13  HIT %:     0  MISS %:   100  AVERAGE MISS PENALTY: 160.769
LLC7 PREFETCH  ACCESS: 1836774  HIT:  5594  MISS: 1831180  HIT %: 0.304556  MISS %: 99.6954  AVERAGE MISS PENALTY: 93.9706
LLC7 WRITEBACK ACCESS:  2891  HIT:  2882  MISS:     9  HIT %: 99.6887  MISS %: 0.311311  AVERAGE MISS PENALTY: 0
LLC7 PREFETCH  REQUESTED:     0  ISSUED:     0  USEFUL:    71  USELESS: 1830966
 USEFUL LOAD PREFETCHES:         71 PREFETCH ISSUED TO LOWER LEVEL:    1831181  ACCURACY: 0.00387728
 TIMELY PREFETCHES:         71 LATE PREFETCHES: 0 DROPPED PREFETCHES: 0
LLC7 AVERAGE MISS LATENCY: 94.2335 cycles
ROI Average ROB Stall Cycles:	4.63491
ROI Total ROB Stalls Cycles:	444479550
ROI TOTAL ROB counter      :	95898234
ROI Average Load ROB Stall Cycles:	11.6208
ROI Total Load ROB Stalls Cycle  :	254847302
ROI Total Load ROB stalls Counter:	21930295
Major fault: 0 Minor fault: 48355

