
*** ChampSim Multicore Out-of-Order Simulator ***

Warmup Instructions: 200000000
Simulation Instructions: 200000000
Number of CPUs: 1
threads:1

L1I Configuration:
L1I_SET:64
L1I_WAY:8
L1I_RQ_SIZE:64
L1I_WQ_SIZE:64
L1I_PQ_SIZE:8
L1I_MSHR_SIZE:8

L1D Configuration:
L1D_SET:64
L1D_WAY:12
L1D_RQ_SIZE:64
L1D_WQ_SIZE:64
L1D_PQ_SIZE:8
L1D_MSHR_SIZE:16

L2C Configuration:
L2C_SET:1024
L2C_WAY:8
L2C_RQ_SIZE:32
L2C_WQ_SIZE:32
L2C_PQ_SIZE:16
L2C_MSHR_SIZE:32

LLC Configuration:
LLC_SET:2048
LLC_WAY:16
LLC SLICES:8
LLC_RQ_SIZE:64
LLC_WQ_SIZE:64
LLC_PQ_SIZE:32
LLC_MSHR_SIZE:64

Interconnect OFF
Attacker deprioritize is: OFF
Off-chip DRAM Size: 4096 MB Channels: 1 Width: 64-bit Data Rate: 3200 MT/s
PAGE SIZE in KB: 4.000000 
PAGE SIZE in MB: 0.003906 
PAGE offset in bits: 12 
CEASER-S_LLC:0
MIRAGE : 0
CEASER_LATENCY:3
REMAP : OFF
Partitions : 1
Multi-Step : OFF
BFS : OFF

CPU 0 runs /home/anubhav/spec_2017/602.gcc_s-734B.champsimtrace.xz
CPU 0 Bimodal branch predictor
Initialize Hawkeye state
Initialize Hawkeye state
Initialize Hawkeye state
Initialize Hawkeye state
Initialize Hawkeye state
Initialize Hawkeye state
Initialize Hawkeye state
Initialize Hawkeye state
Heartbeat CPU 0 instructions: 10000000 cycles: 7637587 heartbeat IPC: 1.30931 cumulative IPC: 1.30931 (Simulation time: 0 hr 0 min 52 sec) 
 Total Blocks : 262144 Invalid Blocks : 192518
Heartbeat CPU 0 instructions: 20000000 cycles: 15266205 heartbeat IPC: 1.31085 cumulative IPC: 1.31008 (Simulation time: 0 hr 2 min 1 sec) 
 Total Blocks : 262144 Invalid Blocks : 136528
Heartbeat CPU 0 instructions: 30000003 cycles: 22896663 heartbeat IPC: 1.31054 cumulative IPC: 1.31023 (Simulation time: 0 hr 3 min 26 sec) 
 Total Blocks : 262144 Invalid Blocks : 101324
Heartbeat CPU 0 instructions: 40000001 cycles: 30545064 heartbeat IPC: 1.30746 cumulative IPC: 1.30954 (Simulation time: 0 hr 4 min 48 sec) 
 Total Blocks : 262144 Invalid Blocks : 80205
Heartbeat CPU 0 instructions: 50000000 cycles: 38165782 heartbeat IPC: 1.31221 cumulative IPC: 1.31007 (Simulation time: 0 hr 6 min 8 sec) 
 Total Blocks : 262144 Invalid Blocks : 68349
Heartbeat CPU 0 instructions: 60000000 cycles: 45793508 heartbeat IPC: 1.31101 cumulative IPC: 1.31023 (Simulation time: 0 hr 7 min 25 sec) 
 Total Blocks : 262144 Invalid Blocks : 60868
Heartbeat CPU 0 instructions: 70000001 cycles: 53460379 heartbeat IPC: 1.30431 cumulative IPC: 1.30938 (Simulation time: 0 hr 8 min 46 sec) 
 Total Blocks : 262144 Invalid Blocks : 54315
Heartbeat CPU 0 instructions: 80000003 cycles: 61092287 heartbeat IPC: 1.31029 cumulative IPC: 1.30949 (Simulation time: 0 hr 10 min 3 sec) 
 Total Blocks : 262144 Invalid Blocks : 50517
Heartbeat CPU 0 instructions: 90000001 cycles: 68736044 heartbeat IPC: 1.30826 cumulative IPC: 1.30936 (Simulation time: 0 hr 11 min 21 sec) 
 Total Blocks : 262144 Invalid Blocks : 43837
Heartbeat CPU 0 instructions: 100000003 cycles: 75832100 heartbeat IPC: 1.40923 cumulative IPC: 1.3187 (Simulation time: 0 hr 12 min 57 sec) 
 Total Blocks : 262144 Invalid Blocks : 26773
Heartbeat CPU 0 instructions: 110000000 cycles: 83448088 heartbeat IPC: 1.31303 cumulative IPC: 1.31818 (Simulation time: 0 hr 14 min 18 sec) 
 Total Blocks : 262144 Invalid Blocks : 23602
Heartbeat CPU 0 instructions: 120000000 cycles: 91084450 heartbeat IPC: 1.30952 cumulative IPC: 1.31746 (Simulation time: 0 hr 15 min 35 sec) 
 Total Blocks : 262144 Invalid Blocks : 20323
Heartbeat CPU 0 instructions: 130000000 cycles: 98807331 heartbeat IPC: 1.29485 cumulative IPC: 1.31569 (Simulation time: 0 hr 17 min 7 sec) 
 Total Blocks : 262144 Invalid Blocks : 16904
Heartbeat CPU 0 instructions: 140000000 cycles: 106450152 heartbeat IPC: 1.30842 cumulative IPC: 1.31517 (Simulation time: 0 hr 18 min 28 sec) 
 Total Blocks : 262144 Invalid Blocks : 15060
Heartbeat CPU 0 instructions: 150000002 cycles: 114101231 heartbeat IPC: 1.30701 cumulative IPC: 1.31462 (Simulation time: 0 hr 19 min 47 sec) 
 Total Blocks : 262144 Invalid Blocks : 13491
Heartbeat CPU 0 instructions: 160000002 cycles: 121751038 heartbeat IPC: 1.30722 cumulative IPC: 1.31416 (Simulation time: 0 hr 21 min 9 sec) 
 Total Blocks : 262144 Invalid Blocks : 11987
Heartbeat CPU 0 instructions: 170000003 cycles: 129374336 heartbeat IPC: 1.31177 cumulative IPC: 1.31402 (Simulation time: 0 hr 22 min 28 sec) 
 Total Blocks : 262144 Invalid Blocks : 11042
Heartbeat CPU 0 instructions: 180000000 cycles: 137017292 heartbeat IPC: 1.30839 cumulative IPC: 1.3137 (Simulation time: 0 hr 23 min 48 sec) 
 Total Blocks : 262144 Invalid Blocks : 10177
Heartbeat CPU 0 instructions: 190000000 cycles: 146569373 heartbeat IPC: 1.04689 cumulative IPC: 1.29631 (Simulation time: 0 hr 25 min 14 sec) 
 Total Blocks : 262144 Invalid Blocks : 8887
Heartbeat CPU 0 instructions: 200000000 cycles: 154824268 heartbeat IPC: 1.2114 cumulative IPC: 1.29179 (Simulation time: 0 hr 26 min 34 sec) 
 Total Blocks : 262144 Invalid Blocks : 8059

Warmup complete CPU 0 instructions: 200000004 cycles: 154824269 (Simulation time: 0 hr 26 min 34 sec) 

Heartbeat CPU 0 instructions: 210000003 cycles: 179565821 heartbeat IPC: 0.404178 cumulative IPC: 0.404178 (Simulation time: 0 hr 29 min 30 sec) 
 Total Blocks : 262144 Invalid Blocks : 7692
Heartbeat CPU 0 instructions: 220000000 cycles: 204446616 heartbeat IPC: 0.401916 cumulative IPC: 0.403044 (Simulation time: 0 hr 32 min 34 sec) 
 Total Blocks : 262144 Invalid Blocks : 7216
Heartbeat CPU 0 instructions: 230000001 cycles: 229182901 heartbeat IPC: 0.404264 cumulative IPC: 0.40345 (Simulation time: 0 hr 35 min 44 sec) 
 Total Blocks : 262144 Invalid Blocks : 6970
Heartbeat CPU 0 instructions: 240000000 cycles: 253981506 heartbeat IPC: 0.403248 cumulative IPC: 0.4034 (Simulation time: 0 hr 38 min 55 sec) 
 Total Blocks : 262144 Invalid Blocks : 6766
Heartbeat CPU 0 instructions: 250000001 cycles: 279203042 heartbeat IPC: 0.396487 cumulative IPC: 0.401998 (Simulation time: 0 hr 42 min 1 sec) 
 Total Blocks : 262144 Invalid Blocks : 6512
Heartbeat CPU 0 instructions: 260000003 cycles: 303950669 heartbeat IPC: 0.404079 cumulative IPC: 0.402343 (Simulation time: 0 hr 44 min 57 sec) 
 Total Blocks : 262144 Invalid Blocks : 6396
Heartbeat CPU 0 instructions: 270000000 cycles: 328261014 heartbeat IPC: 0.411347 cumulative IPC: 0.403605 (Simulation time: 0 hr 48 min 7 sec) 
 Total Blocks : 262144 Invalid Blocks : 5987
Heartbeat CPU 0 instructions: 280000000 cycles: 352956255 heartbeat IPC: 0.404936 cumulative IPC: 0.403771 (Simulation time: 0 hr 51 min 16 sec) 
 Total Blocks : 262144 Invalid Blocks : 5803
Heartbeat CPU 0 instructions: 290000001 cycles: 377725364 heartbeat IPC: 0.403729 cumulative IPC: 0.403767 (Simulation time: 0 hr 54 min 11 sec) 
 Total Blocks : 262144 Invalid Blocks : 5615
Heartbeat CPU 0 instructions: 300000000 cycles: 402739807 heartbeat IPC: 0.399769 cumulative IPC: 0.403363 (Simulation time: 0 hr 57 min 19 sec) 
 Total Blocks : 262144 Invalid Blocks : 5128
Heartbeat CPU 0 instructions: 310000000 cycles: 427482888 heartbeat IPC: 0.404153 cumulative IPC: 0.403435 (Simulation time: 1 hr 0 min 29 sec) 
 Total Blocks : 262144 Invalid Blocks : 4870
Heartbeat CPU 0 instructions: 320000000 cycles: 452390662 heartbeat IPC: 0.401481 cumulative IPC: 0.403271 (Simulation time: 1 hr 3 min 34 sec) 
 Total Blocks : 262144 Invalid Blocks : 4611
Heartbeat CPU 0 instructions: 330000000 cycles: 477384543 heartbeat IPC: 0.400098 cumulative IPC: 0.403025 (Simulation time: 1 hr 6 min 41 sec) 
 Total Blocks : 262144 Invalid Blocks : 4026
Heartbeat CPU 0 instructions: 340000001 cycles: 502147355 heartbeat IPC: 0.403831 cumulative IPC: 0.403083 (Simulation time: 1 hr 9 min 26 sec) 
 Total Blocks : 262144 Invalid Blocks : 3789
Heartbeat CPU 0 instructions: 350000003 cycles: 527063036 heartbeat IPC: 0.401354 cumulative IPC: 0.402967 (Simulation time: 1 hr 12 min 14 sec) 
 Total Blocks : 262144 Invalid Blocks : 3520
Heartbeat CPU 0 instructions: 360000003 cycles: 551960630 heartbeat IPC: 0.401645 cumulative IPC: 0.402884 (Simulation time: 1 hr 14 min 53 sec) 
 Total Blocks : 262144 Invalid Blocks : 3260
Heartbeat CPU 0 instructions: 370000003 cycles: 576723349 heartbeat IPC: 0.403833 cumulative IPC: 0.40294 (Simulation time: 1 hr 17 min 16 sec) 
 Total Blocks : 262144 Invalid Blocks : 3104
Heartbeat CPU 0 instructions: 380000001 cycles: 601663004 heartbeat IPC: 0.400968 cumulative IPC: 0.40283 (Simulation time: 1 hr 19 min 11 sec) 
 Total Blocks : 262144 Invalid Blocks : 2930
Heartbeat CPU 0 instructions: 390000000 cycles: 626045939 heartbeat IPC: 0.410123 cumulative IPC: 0.403207 (Simulation time: 1 hr 21 min 8 sec) 
 Total Blocks : 262144 Invalid Blocks : 2411
Heartbeat CPU 0 instructions: 400000001 cycles: 650806477 heartbeat IPC: 0.403868 cumulative IPC: 0.40324 (Simulation time: 1 hr 23 min 51 sec) 
 Total Blocks : 262144 Invalid Blocks : 2213
Finished CPU 0 instructions: 200000001 cycles: 495982209 cumulative IPC: 0.40324 (Simulation time: 1 hr 23 min 51 sec) 

CPU 0 Branch Prediction Accuracy: 94.1237% MPKI: 12.4853 Average ROB Occupancy at Mispredict: 116.248

ChampSim completed all CPUs

Region of Interest Statistics

CPU 0 cumulative IPC: 0.40324 instructions: 200000001 cycles: 495982209
ITLB TOTAL     ACCESS: 22828923  HIT: 22828923  MISS:     0  HIT %:   100  MISS %:     0  AVERAGE MISS PENALTY: 0
ITLB LOAD      ACCESS: 22828923  HIT: 22828923  MISS:     0  HIT %:   100  MISS %:     0  AVERAGE MISS PENALTY: 0
ITLB RFO       ACCESS:     0  HIT:     0  MISS:     0  HIT %:     0  MISS %:     0  AVERAGE MISS PENALTY: 0
ITLB PREFETCH  ACCESS:     0  HIT:     0  MISS:     0  HIT %:     0  MISS %:     0  AVERAGE MISS PENALTY: 0
ITLB WRITEBACK ACCESS:     0  HIT:     0  MISS:     0  HIT %:     0  MISS %:     0  AVERAGE MISS PENALTY: 0
ITLB PREFETCH  REQUESTED:     0  ISSUED:     0  USEFUL:     0  USELESS:     0
 USEFUL LOAD PREFETCHES:          0 PREFETCH ISSUED TO LOWER LEVEL:          0  ACCURACY: -nan
 TIMELY PREFETCHES:          0 LATE PREFETCHES: 0 DROPPED PREFETCHES: 0
ITLB AVERAGE MISS LATENCY: -nan cycles
DTLB TOTAL     ACCESS: 63709213  HIT: 63646274  MISS: 62939  HIT %: 99.9012  MISS %: 0.098791  AVERAGE MISS PENALTY: 75.3961
DTLB LOAD      ACCESS: 41270769  HIT: 41207995  MISS: 62774  HIT %: 99.8479  MISS %: 0.152103  AVERAGE MISS PENALTY: 75.5021
DTLB RFO       ACCESS: 22438444  HIT: 22438279  MISS:   165  HIT %: 99.9993  MISS %: 0.000735345  AVERAGE MISS PENALTY: 35.0545
DTLB PREFETCH  ACCESS:     0  HIT:     0  MISS:     0  HIT %:     0  MISS %:     0  AVERAGE MISS PENALTY: 0
DTLB WRITEBACK ACCESS:     0  HIT:     0  MISS:     0  HIT %:     0  MISS %:     0  AVERAGE MISS PENALTY: 0
DTLB PREFETCH  REQUESTED:     0  ISSUED:     0  USEFUL:     0  USELESS:     0
 USEFUL LOAD PREFETCHES:          0 PREFETCH ISSUED TO LOWER LEVEL:          0  ACCURACY: -nan
 TIMELY PREFETCHES:          0 LATE PREFETCHES: 0 DROPPED PREFETCHES: 0
DTLB AVERAGE MISS LATENCY: 75.3961 cycles
STLB TOTAL     ACCESS: 62939  HIT: 21349  MISS: 41590  HIT %: 33.9201  MISS %: 66.0799  AVERAGE MISS PENALTY: 100
STLB LOAD      ACCESS: 62774  HIT: 21225  MISS: 41549  HIT %: 33.8118  MISS %: 66.1882  AVERAGE MISS PENALTY: 100
STLB RFO       ACCESS:   165  HIT:   124  MISS:    41  HIT %: 75.1515  MISS %: 24.8485  AVERAGE MISS PENALTY: 100
STLB PREFETCH  ACCESS:     0  HIT:     0  MISS:     0  HIT %:     0  MISS %:     0  AVERAGE MISS PENALTY: 0
STLB WRITEBACK ACCESS:     0  HIT:     0  MISS:     0  HIT %:     0  MISS %:     0  AVERAGE MISS PENALTY: 0
STLB PREFETCH  REQUESTED:     0  ISSUED:     0  USEFUL:     0  USELESS:     0
 USEFUL LOAD PREFETCHES:          0 PREFETCH ISSUED TO LOWER LEVEL:          0  ACCURACY: -nan
 TIMELY PREFETCHES:          0 LATE PREFETCHES: 0 DROPPED PREFETCHES: 0
STLB AVERAGE MISS LATENCY: 100 cycles
L1D TOTAL     ACCESS: 126242556  HIT: 122589455  MISS: 3653101  HIT %: 97.1063  MISS %: 2.89372  AVERAGE MISS PENALTY: 244048
L1D LOAD      ACCESS: 39882764  HIT: 39718947  MISS: 163817  HIT %: 99.5893  MISS %: 0.410746  AVERAGE MISS PENALTY: 5.3963e+06
L1D RFO       ACCESS: 22556602  HIT: 22555363  MISS:  1239  HIT %: 99.9945  MISS %: 0.00549285  AVERAGE MISS PENALTY: 6.01461e+06
L1D PREFETCH  ACCESS: 63803190  HIT: 60315145  MISS: 3488045  HIT %: 94.5331  MISS %: 5.46688  AVERAGE MISS PENALTY: 21.2815
L1D WRITEBACK ACCESS:     0  HIT:     0  MISS:     0  HIT %:     0  MISS %:     0  AVERAGE MISS PENALTY: 0
L1D PREFETCH  REQUESTED: 71544727  ISSUED: 65065989  USEFUL: 3068092  USELESS: 419959
 USEFUL LOAD PREFETCHES:    3068092 PREFETCH ISSUED TO LOWER LEVEL:    3940725  ACCURACY: 77.856
 TIMELY PREFETCHES:    3068092 LATE PREFETCHES: 7527 DROPPED PREFETCHES: 6478738
L1D AVERAGE MISS LATENCY: 2061.98 cycles
L1I TOTAL     ACCESS: 35334339  HIT: 35334339  MISS:     0  HIT %:   100  MISS %:     0  AVERAGE MISS PENALTY: 0
L1I LOAD      ACCESS: 35334339  HIT: 35334339  MISS:     0  HIT %:   100  MISS %:     0  AVERAGE MISS PENALTY: 0
L1I RFO       ACCESS:     0  HIT:     0  MISS:     0  HIT %:     0  MISS %:     0  AVERAGE MISS PENALTY: 0
L1I PREFETCH  ACCESS:     0  HIT:     0  MISS:     0  HIT %:     0  MISS %:     0  AVERAGE MISS PENALTY: 0
L1I WRITEBACK ACCESS:     0  HIT:     0  MISS:     0  HIT %:     0  MISS %:     0  AVERAGE MISS PENALTY: 0
L1I PREFETCH  REQUESTED:     0  ISSUED:     0  USEFUL:     0  USELESS:     0
 USEFUL LOAD PREFETCHES:          0 PREFETCH ISSUED TO LOWER LEVEL:          0  ACCURACY: -nan
 TIMELY PREFETCHES:          0 LATE PREFETCHES: 0 DROPPED PREFETCHES: 0
L1I AVERAGE MISS LATENCY: -nan cycles
L2C TOTAL     ACCESS: 12437745  HIT: 10565348  MISS: 1872397  HIT %: 84.9458  MISS %: 15.0542  AVERAGE MISS PENALTY: 167645
L2C LOAD      ACCESS: 163527  HIT: 104085  MISS: 59442  HIT %: 63.65  MISS %: 36.35  AVERAGE MISS PENALTY: 5.27892e+06
L2C RFO       ACCESS:  1222  HIT:   744  MISS:   478  HIT %: 60.8838  MISS %: 39.1162  AVERAGE MISS PENALTY: 196.879
L2C PREFETCH  ACCESS: 12231621  HIT: 10419165  MISS: 1812456  HIT %: 85.1822  MISS %: 14.8178  AVERAGE MISS PENALTY: 60.0622
L2C WRITEBACK ACCESS: 41375  HIT: 41354  MISS:    21  HIT %: 99.9492  MISS %: 0.0507553  AVERAGE MISS PENALTY: 0
L2C PREFETCH  REQUESTED: 13007994  ISSUED: 13006788  USEFUL: 17212  USELESS: 1795218
 USEFUL LOAD PREFETCHES:      17212 PREFETCH ISSUED TO LOWER LEVEL:    1833320  ACCURACY: 0.938843
 TIMELY PREFETCHES:      17212 LATE PREFETCHES: 2119 DROPPED PREFETCHES: 1206
L2C AVERAGE MISS LATENCY: 60.1708 cycles
LLC0 TOTAL     ACCESS: 235837  HIT: 173160  MISS: 62677  HIT %: 73.4236  MISS %: 26.5764  AVERAGE MISS PENALTY: 94.2511
LLC0 LOAD      ACCESS: 28646  HIT: 22141  MISS:  6505  HIT %: 77.2918  MISS %: 22.7082  AVERAGE MISS PENALTY: 96.5689
LLC0 RFO       ACCESS:    77  HIT:    10  MISS:    67  HIT %: 12.987  MISS %: 87.013  AVERAGE MISS PENALTY: 173.731
LLC0 PREFETCH  ACCESS: 204523  HIT: 148542  MISS: 55981  HIT %: 72.6285  MISS %: 27.3715  AVERAGE MISS PENALTY: 94.0954
LLC0 WRITEBACK ACCESS:  2591  HIT:  2467  MISS:   124  HIT %: 95.2142  MISS %: 4.7858  AVERAGE MISS PENALTY: 0
LLC0 PREFETCH  REQUESTED:     0  ISSUED:     0  USEFUL:   132  USELESS: 55248
 USEFUL LOAD PREFETCHES:        132 PREFETCH ISSUED TO LOWER LEVEL:      55981  ACCURACY: 0.235794
 TIMELY PREFETCHES:        132 LATE PREFETCHES: 0 DROPPED PREFETCHES: 0
LLC0 AVERAGE MISS LATENCY: 94.2511 cycles
Deadblocks : 3236 Deadblock percentage : 49.7463

LLC1 TOTAL     ACCESS: 236729  HIT: 173170  MISS: 63559  HIT %: 73.1512  MISS %: 26.8488  AVERAGE MISS PENALTY: 94.1663
LLC1 LOAD      ACCESS:  4603  HIT:  3494  MISS:  1109  HIT %: 75.907  MISS %: 24.093  AVERAGE MISS PENALTY: 129.322
LLC1 RFO       ACCESS:    59  HIT:    14  MISS:    45  HIT %: 23.7288  MISS %: 76.2712  AVERAGE MISS PENALTY: 161.733
LLC1 PREFETCH  ACCESS: 229441  HIT: 167173  MISS: 62268  HIT %: 72.861  MISS %: 27.139  AVERAGE MISS PENALTY: 93.6985
LLC1 WRITEBACK ACCESS:  2626  HIT:  2489  MISS:   137  HIT %: 94.7829  MISS %: 5.21706  AVERAGE MISS PENALTY: 0
LLC1 PREFETCH  REQUESTED:     0  ISSUED:     0  USEFUL:   160  USELESS: 61339
 USEFUL LOAD PREFETCHES:        160 PREFETCH ISSUED TO LOWER LEVEL:      62268  ACCURACY: 0.256954
 TIMELY PREFETCHES:        160 LATE PREFETCHES: 0 DROPPED PREFETCHES: 0
LLC1 AVERAGE MISS LATENCY: 94.1663 cycles
LLC2 TOTAL     ACCESS: 236668  HIT: 173007  MISS: 63661  HIT %: 73.1011  MISS %: 26.8989  AVERAGE MISS PENALTY: 94.8193
LLC2 LOAD      ACCESS:  4354  HIT:  3342  MISS:  1012  HIT %: 76.757  MISS %: 23.243  AVERAGE MISS PENALTY: 133.975
LLC2 RFO       ACCESS:    67  HIT:    24  MISS:    43  HIT %: 35.8209  MISS %: 64.1791  AVERAGE MISS PENALTY: 178.721
LLC2 PREFETCH  ACCESS: 229640  HIT: 167176  MISS: 62464  HIT %: 72.7992  MISS %: 27.2008  AVERAGE MISS PENALTY: 94.3427
LLC2 WRITEBACK ACCESS:  2607  HIT:  2465  MISS:   142  HIT %: 94.5531  MISS %: 5.44687  AVERAGE MISS PENALTY: 0
LLC2 PREFETCH  REQUESTED:     0  ISSUED:     0  USEFUL:   142  USELESS: 61593
 USEFUL LOAD PREFETCHES:        142 PREFETCH ISSUED TO LOWER LEVEL:      62464  ACCURACY: 0.227331
 TIMELY PREFETCHES:        142 LATE PREFETCHES: 0 DROPPED PREFETCHES: 0
LLC2 AVERAGE MISS LATENCY: 94.8193 cycles
LLC3 TOTAL     ACCESS: 237066  HIT: 172752  MISS: 64314  HIT %: 72.8708  MISS %: 27.1292  AVERAGE MISS PENALTY: 93.9502
LLC3 LOAD      ACCESS:  4558  HIT:  3499  MISS:  1059  HIT %: 76.7661  MISS %: 23.2339  AVERAGE MISS PENALTY: 131.724
LLC3 RFO       ACCESS:    65  HIT:    14  MISS:    51  HIT %: 21.5385  MISS %: 78.4615  AVERAGE MISS PENALTY: 178.059
LLC3 PREFETCH  ACCESS: 229805  HIT: 166725  MISS: 63080  HIT %: 72.5506  MISS %: 27.4494  AVERAGE MISS PENALTY: 93.4327
LLC3 WRITEBACK ACCESS:  2638  HIT:  2514  MISS:   124  HIT %: 95.2995  MISS %: 4.70053  AVERAGE MISS PENALTY: 0
LLC3 PREFETCH  REQUESTED:     0  ISSUED:     0  USEFUL:   162  USELESS: 62134
 USEFUL LOAD PREFETCHES:        162 PREFETCH ISSUED TO LOWER LEVEL:      63080  ACCURACY: 0.256817
 TIMELY PREFETCHES:        162 LATE PREFETCHES: 0 DROPPED PREFETCHES: 0
LLC3 AVERAGE MISS LATENCY: 93.9502 cycles
LLC4 TOTAL     ACCESS: 236892  HIT: 172551  MISS: 64341  HIT %: 72.8395  MISS %: 27.1605  AVERAGE MISS PENALTY: 93.7777
LLC4 LOAD      ACCESS:  4259  HIT:  3223  MISS:  1036  HIT %: 75.675  MISS %: 24.325  AVERAGE MISS PENALTY: 131.745
LLC4 RFO       ACCESS:    62  HIT:    11  MISS:    51  HIT %: 17.7419  MISS %: 82.2581  AVERAGE MISS PENALTY: 183.294
LLC4 PREFETCH  ACCESS: 229888  HIT: 166774  MISS: 63114  HIT %: 72.5458  MISS %: 27.4542  AVERAGE MISS PENALTY: 93.2902
LLC4 WRITEBACK ACCESS:  2683  HIT:  2543  MISS:   140  HIT %: 94.782  MISS %: 5.21804  AVERAGE MISS PENALTY: 0
LLC4 PREFETCH  REQUESTED:     0  ISSUED:     0  USEFUL:   156  USELESS: 62177
 USEFUL LOAD PREFETCHES:        156 PREFETCH ISSUED TO LOWER LEVEL:      63114  ACCURACY: 0.247172
 TIMELY PREFETCHES:        156 LATE PREFETCHES: 0 DROPPED PREFETCHES: 0
LLC4 AVERAGE MISS LATENCY: 93.7777 cycles
LLC5 TOTAL     ACCESS: 237059  HIT: 172554  MISS: 64505  HIT %: 72.7895  MISS %: 27.2105  AVERAGE MISS PENALTY: 94.0141
LLC5 LOAD      ACCESS:  4022  HIT:  2986  MISS:  1036  HIT %: 74.2417  MISS %: 25.7583  AVERAGE MISS PENALTY: 135.774
LLC5 RFO       ACCESS:    53  HIT:     6  MISS:    47  HIT %: 11.3208  MISS %: 88.6792  AVERAGE MISS PENALTY: 191.574
LLC5 PREFETCH  ACCESS: 230305  HIT: 167029  MISS: 63276  HIT %: 72.5251  MISS %: 27.4749  AVERAGE MISS PENALTY: 93.4748
LLC5 WRITEBACK ACCESS:  2679  HIT:  2533  MISS:   146  HIT %: 94.5502  MISS %: 5.44979  AVERAGE MISS PENALTY: 0
LLC5 PREFETCH  REQUESTED:     0  ISSUED:     0  USEFUL:   124  USELESS: 62358
 USEFUL LOAD PREFETCHES:        124 PREFETCH ISSUED TO LOWER LEVEL:      63276  ACCURACY: 0.195967
 TIMELY PREFETCHES:        124 LATE PREFETCHES: 0 DROPPED PREFETCHES: 0
LLC5 AVERAGE MISS LATENCY: 94.0141 cycles
LLC6 TOTAL     ACCESS: 236660  HIT: 172504  MISS: 64156  HIT %: 72.8911  MISS %: 27.1089  AVERAGE MISS PENALTY: 94.3016
LLC6 LOAD      ACCESS:  3992  HIT:  2982  MISS:  1010  HIT %: 74.6994  MISS %: 25.3006  AVERAGE MISS PENALTY: 131.915
LLC6 RFO       ACCESS:    48  HIT:     2  MISS:    46  HIT %: 4.16667  MISS %: 95.8333  AVERAGE MISS PENALTY: 179.935
LLC6 PREFETCH  ACCESS: 229916  HIT: 166947  MISS: 62969  HIT %: 72.6122  MISS %: 27.3878  AVERAGE MISS PENALTY: 93.8319
LLC6 WRITEBACK ACCESS:  2704  HIT:  2573  MISS:   131  HIT %: 95.1553  MISS %: 4.84467  AVERAGE MISS PENALTY: 0
LLC6 PREFETCH  REQUESTED:     0  ISSUED:     0  USEFUL:   148  USELESS: 61965
 USEFUL LOAD PREFETCHES:        148 PREFETCH ISSUED TO LOWER LEVEL:      62969  ACCURACY: 0.235036
 TIMELY PREFETCHES:        148 LATE PREFETCHES: 0 DROPPED PREFETCHES: 0
LLC6 AVERAGE MISS LATENCY: 94.3016 cycles
LLC7 TOTAL     ACCESS: 236656  HIT: 172053  MISS: 64603  HIT %: 72.7017  MISS %: 27.2983  AVERAGE MISS PENALTY: 94.275
LLC7 LOAD      ACCESS:  4373  HIT:  3296  MISS:  1077  HIT %: 75.3716  MISS %: 24.6284  AVERAGE MISS PENALTY: 131.857
LLC7 RFO       ACCESS:    47  HIT:     3  MISS:    44  HIT %: 6.38298  MISS %: 93.617  AVERAGE MISS PENALTY: 177.477
LLC7 PREFETCH  ACCESS: 229573  HIT: 166219  MISS: 63354  HIT %: 72.4035  MISS %: 27.5965  AVERAGE MISS PENALTY: 93.7688
LLC7 WRITEBACK ACCESS:  2663  HIT:  2535  MISS:   128  HIT %: 95.1934  MISS %: 4.80661  AVERAGE MISS PENALTY: 0
LLC7 PREFETCH  REQUESTED:     0  ISSUED:     0  USEFUL:   158  USELESS: 62363
 USEFUL LOAD PREFETCHES:        158 PREFETCH ISSUED TO LOWER LEVEL:      63354  ACCURACY: 0.249392
 TIMELY PREFETCHES:        158 LATE PREFETCHES: 0 DROPPED PREFETCHES: 0
LLC7 AVERAGE MISS LATENCY: 94.275 cycles
ROI Average ROB Stall Cycles:	8.48853
ROI Total ROB Stalls Cycles:	452148854
ROI TOTAL ROB counter      :	53265864
ROI Average Load ROB Stall Cycles:	9.77263
ROI Total Load ROB Stalls Cycle  :	28275718
ROI Total Load ROB stalls Counter:	2893359
Major fault: 0 Minor fault: 10446

