
*** ChampSim Multicore Out-of-Order Simulator ***

Warmup Instructions: 200000000
Simulation Instructions: 200000000
Number of CPUs: 1
threads:1

L1I Configuration:
L1I_SET:64
L1I_WAY:8
L1I_RQ_SIZE:64
L1I_WQ_SIZE:64
L1I_PQ_SIZE:8
L1I_MSHR_SIZE:8

L1D Configuration:
L1D_SET:64
L1D_WAY:12
L1D_RQ_SIZE:64
L1D_WQ_SIZE:64
L1D_PQ_SIZE:8
L1D_MSHR_SIZE:16

L2C Configuration:
L2C_SET:1024
L2C_WAY:8
L2C_RQ_SIZE:32
L2C_WQ_SIZE:32
L2C_PQ_SIZE:16
L2C_MSHR_SIZE:32

LLC Configuration:
LLC_SET:4096
LLC_WAY:16
LLC SLICES:8
LLC_RQ_SIZE:64
LLC_WQ_SIZE:64
LLC_PQ_SIZE:32
LLC_MSHR_SIZE:64

Interconnect OFF
Attacker deprioritize is: OFF
Off-chip DRAM Size: 4096 MB Channels: 1 Width: 64-bit Data Rate: 3200 MT/s
PAGE SIZE in KB: 4.000000 
PAGE SIZE in MB: 0.003906 
PAGE offset in bits: 12 
CEASER-S_LLC:0
MIRAGE : 0
CEASER_LATENCY:3
REMAP : OFF
Partitions : 1
Multi-Step : OFF
BFS : OFF

CPU 0 runs /home/anubhav/spec_2017/603.bwaves_s-2931B.champsimtrace.xz
CPU 0 Bimodal branch predictor
Initialize Hawkeye state
Initialize Hawkeye state
Initialize Hawkeye state
Initialize Hawkeye state
Initialize Hawkeye state
Initialize Hawkeye state
Initialize Hawkeye state
Initialize Hawkeye state
Heartbeat CPU 0 instructions: 10000003 cycles: 4144032 heartbeat IPC: 2.41311 cumulative IPC: 2.41311 (Simulation time: 0 hr 0 min 49 sec) 
 Total Blocks : 524288 Invalid Blocks : 415878
Heartbeat CPU 0 instructions: 20000002 cycles: 8287741 heartbeat IPC: 2.4133 cumulative IPC: 2.4132 (Simulation time: 0 hr 1 min 43 sec) 
 Total Blocks : 524288 Invalid Blocks : 346233
Heartbeat CPU 0 instructions: 30000001 cycles: 12431423 heartbeat IPC: 2.41331 cumulative IPC: 2.41324 (Simulation time: 0 hr 3 min 22 sec) 
 Total Blocks : 524288 Invalid Blocks : 286012
Heartbeat CPU 0 instructions: 40000002 cycles: 16575172 heartbeat IPC: 2.41327 cumulative IPC: 2.41325 (Simulation time: 0 hr 5 min 22 sec) 
 Total Blocks : 524288 Invalid Blocks : 237775
Heartbeat CPU 0 instructions: 50000001 cycles: 20718750 heartbeat IPC: 2.41337 cumulative IPC: 2.41327 (Simulation time: 0 hr 8 min 0 sec) 
 Total Blocks : 524288 Invalid Blocks : 199702
Heartbeat CPU 0 instructions: 60000001 cycles: 24862376 heartbeat IPC: 2.41335 cumulative IPC: 2.41329 (Simulation time: 0 hr 11 min 9 sec) 
 Total Blocks : 524288 Invalid Blocks : 170961
Heartbeat CPU 0 instructions: 70000001 cycles: 29005696 heartbeat IPC: 2.41352 cumulative IPC: 2.41332 (Simulation time: 0 hr 14 min 18 sec) 
 Total Blocks : 524288 Invalid Blocks : 149996
Heartbeat CPU 0 instructions: 80000002 cycles: 33149156 heartbeat IPC: 2.41344 cumulative IPC: 2.41333 (Simulation time: 0 hr 17 min 35 sec) 
 Total Blocks : 524288 Invalid Blocks : 132353
Heartbeat CPU 0 instructions: 90000002 cycles: 37292944 heartbeat IPC: 2.41325 cumulative IPC: 2.41333 (Simulation time: 0 hr 20 min 53 sec) 
 Total Blocks : 524288 Invalid Blocks : 119687
Heartbeat CPU 0 instructions: 100000001 cycles: 41436579 heartbeat IPC: 2.41334 cumulative IPC: 2.41333 (Simulation time: 0 hr 24 min 12 sec) 
 Total Blocks : 524288 Invalid Blocks : 109039
Heartbeat CPU 0 instructions: 110000000 cycles: 45580283 heartbeat IPC: 2.4133 cumulative IPC: 2.41332 (Simulation time: 0 hr 27 min 36 sec) 
 Total Blocks : 524288 Invalid Blocks : 98412
Heartbeat CPU 0 instructions: 120000000 cycles: 49724064 heartbeat IPC: 2.41325 cumulative IPC: 2.41332 (Simulation time: 0 hr 31 min 4 sec) 
 Total Blocks : 524288 Invalid Blocks : 88514
Heartbeat CPU 0 instructions: 130000003 cycles: 53867896 heartbeat IPC: 2.41323 cumulative IPC: 2.41331 (Simulation time: 0 hr 34 min 34 sec) 
 Total Blocks : 524288 Invalid Blocks : 79487
Heartbeat CPU 0 instructions: 140000001 cycles: 58011859 heartbeat IPC: 2.41315 cumulative IPC: 2.4133 (Simulation time: 0 hr 38 min 15 sec) 
 Total Blocks : 524288 Invalid Blocks : 70958
Heartbeat CPU 0 instructions: 150000001 cycles: 62155194 heartbeat IPC: 2.41351 cumulative IPC: 2.41331 (Simulation time: 0 hr 41 min 50 sec) 
 Total Blocks : 524288 Invalid Blocks : 63571
Heartbeat CPU 0 instructions: 160000000 cycles: 66299025 heartbeat IPC: 2.41323 cumulative IPC: 2.41331 (Simulation time: 0 hr 45 min 22 sec) 
 Total Blocks : 524288 Invalid Blocks : 56826
Heartbeat CPU 0 instructions: 170000003 cycles: 70442426 heartbeat IPC: 2.41348 cumulative IPC: 2.41332 (Simulation time: 0 hr 49 min 8 sec) 
 Total Blocks : 524288 Invalid Blocks : 51202
Heartbeat CPU 0 instructions: 180000001 cycles: 74586127 heartbeat IPC: 2.4133 cumulative IPC: 2.41332 (Simulation time: 0 hr 52 min 58 sec) 
 Total Blocks : 524288 Invalid Blocks : 45726
Heartbeat CPU 0 instructions: 190000002 cycles: 78729694 heartbeat IPC: 2.41338 cumulative IPC: 2.41332 (Simulation time: 0 hr 56 min 50 sec) 
 Total Blocks : 524288 Invalid Blocks : 41670
Heartbeat CPU 0 instructions: 200000003 cycles: 82873306 heartbeat IPC: 2.41335 cumulative IPC: 2.41332 (Simulation time: 1 hr 0 min 49 sec) 
 Total Blocks : 524288 Invalid Blocks : 37687

Warmup complete CPU 0 instructions: 200000003 cycles: 82873306 (Simulation time: 1 hr 0 min 49 sec) 

Heartbeat CPU 0 instructions: 210000002 cycles: 89415417 heartbeat IPC: 1.52856 cumulative IPC: 1.52856 (Simulation time: 1 hr 6 min 26 sec) 
 Total Blocks : 524288 Invalid Blocks : 33848
Heartbeat CPU 0 instructions: 220000000 cycles: 95953179 heartbeat IPC: 1.52958 cumulative IPC: 1.52907 (Simulation time: 1 hr 11 min 49 sec) 
 Total Blocks : 524288 Invalid Blocks : 30374
Heartbeat CPU 0 instructions: 230000003 cycles: 102499443 heartbeat IPC: 1.52759 cumulative IPC: 1.52857 (Simulation time: 1 hr 17 min 8 sec) 
 Total Blocks : 524288 Invalid Blocks : 27359
Heartbeat CPU 0 instructions: 240000003 cycles: 109035319 heartbeat IPC: 1.53002 cumulative IPC: 1.52893 (Simulation time: 1 hr 22 min 26 sec) 
 Total Blocks : 524288 Invalid Blocks : 24369
Heartbeat CPU 0 instructions: 250000000 cycles: 115570124 heartbeat IPC: 1.53027 cumulative IPC: 1.5292 (Simulation time: 1 hr 27 min 37 sec) 
 Total Blocks : 524288 Invalid Blocks : 21905
Heartbeat CPU 0 instructions: 260000001 cycles: 122101486 heartbeat IPC: 1.53107 cumulative IPC: 1.52951 (Simulation time: 1 hr 32 min 48 sec) 
 Total Blocks : 524288 Invalid Blocks : 19613
Heartbeat CPU 0 instructions: 270000001 cycles: 128645009 heartbeat IPC: 1.52823 cumulative IPC: 1.52933 (Simulation time: 1 hr 37 min 57 sec) 
 Total Blocks : 524288 Invalid Blocks : 17649
Heartbeat CPU 0 instructions: 280000002 cycles: 135186277 heartbeat IPC: 1.52876 cumulative IPC: 1.52926 (Simulation time: 1 hr 43 min 18 sec) 
 Total Blocks : 524288 Invalid Blocks : 15846
Heartbeat CPU 0 instructions: 290000002 cycles: 141728289 heartbeat IPC: 1.52858 cumulative IPC: 1.52918 (Simulation time: 1 hr 48 min 36 sec) 
 Total Blocks : 524288 Invalid Blocks : 14353
Heartbeat CPU 0 instructions: 300000001 cycles: 148265994 heartbeat IPC: 1.52959 cumulative IPC: 1.52922 (Simulation time: 1 hr 54 min 3 sec) 
 Total Blocks : 524288 Invalid Blocks : 12839
Heartbeat CPU 0 instructions: 310000003 cycles: 154805288 heartbeat IPC: 1.52922 cumulative IPC: 1.52922 (Simulation time: 1 hr 59 min 33 sec) 
 Total Blocks : 524288 Invalid Blocks : 11641
Heartbeat CPU 0 instructions: 320000003 cycles: 161345575 heartbeat IPC: 1.52898 cumulative IPC: 1.5292 (Simulation time: 2 hr 5 min 0 sec) 
 Total Blocks : 524288 Invalid Blocks : 10487
Heartbeat CPU 0 instructions: 330000000 cycles: 167883957 heartbeat IPC: 1.52943 cumulative IPC: 1.52922 (Simulation time: 2 hr 10 min 21 sec) 
 Total Blocks : 524288 Invalid Blocks : 9478
Heartbeat CPU 0 instructions: 340000000 cycles: 174421373 heartbeat IPC: 1.52966 cumulative IPC: 1.52925 (Simulation time: 2 hr 15 min 49 sec) 
 Total Blocks : 524288 Invalid Blocks : 8595
Heartbeat CPU 0 instructions: 350000002 cycles: 180961861 heartbeat IPC: 1.52894 cumulative IPC: 1.52923 (Simulation time: 2 hr 21 min 21 sec) 
 Total Blocks : 524288 Invalid Blocks : 7769
Heartbeat CPU 0 instructions: 360000003 cycles: 187503195 heartbeat IPC: 1.52874 cumulative IPC: 1.5292 (Simulation time: 2 hr 26 min 49 sec) 
 Total Blocks : 524288 Invalid Blocks : 7034
Heartbeat CPU 0 instructions: 370000002 cycles: 194034298 heartbeat IPC: 1.53113 cumulative IPC: 1.52931 (Simulation time: 2 hr 32 min 13 sec) 
 Total Blocks : 524288 Invalid Blocks : 6383
Heartbeat CPU 0 instructions: 380000003 cycles: 200579785 heartbeat IPC: 1.52777 cumulative IPC: 1.52923 (Simulation time: 2 hr 37 min 23 sec) 
 Total Blocks : 524288 Invalid Blocks : 5850
Heartbeat CPU 0 instructions: 390000001 cycles: 207116809 heartbeat IPC: 1.52975 cumulative IPC: 1.52926 (Simulation time: 2 hr 41 min 55 sec) 
 Total Blocks : 524288 Invalid Blocks : 5292
Heartbeat CPU 0 instructions: 400000002 cycles: 213662894 heartbeat IPC: 1.52763 cumulative IPC: 1.52917 (Simulation time: 2 hr 44 min 56 sec) 
 Total Blocks : 524288 Invalid Blocks : 4820
Finished CPU 0 instructions: 200000003 cycles: 130789589 cumulative IPC: 1.52917 (Simulation time: 2 hr 44 min 56 sec) 

CPU 0 Branch Prediction Accuracy: 80.621% MPKI: 1.63559 Average ROB Occupancy at Mispredict: 308.827

ChampSim completed all CPUs

Region of Interest Statistics

CPU 0 cumulative IPC: 1.52917 instructions: 200000003 cycles: 130789589
ITLB TOTAL     ACCESS: 24081821  HIT: 24081821  MISS:     0  HIT %:   100  MISS %:     0  AVERAGE MISS PENALTY: 0
ITLB LOAD      ACCESS: 24081821  HIT: 24081821  MISS:     0  HIT %:   100  MISS %:     0  AVERAGE MISS PENALTY: 0
ITLB RFO       ACCESS:     0  HIT:     0  MISS:     0  HIT %:     0  MISS %:     0  AVERAGE MISS PENALTY: 0
ITLB PREFETCH  ACCESS:     0  HIT:     0  MISS:     0  HIT %:     0  MISS %:     0  AVERAGE MISS PENALTY: 0
ITLB WRITEBACK ACCESS:     0  HIT:     0  MISS:     0  HIT %:     0  MISS %:     0  AVERAGE MISS PENALTY: 0
ITLB PREFETCH  REQUESTED:     0  ISSUED:     0  USEFUL:     0  USELESS:     0
 USEFUL LOAD PREFETCHES:          0 PREFETCH ISSUED TO LOWER LEVEL:          0  ACCURACY: -nan
 TIMELY PREFETCHES:          0 LATE PREFETCHES: 0 DROPPED PREFETCHES: 0
ITLB AVERAGE MISS LATENCY: -nan cycles
DTLB TOTAL     ACCESS: 47567018  HIT: 47250217  MISS: 316801  HIT %: 99.334  MISS %: 0.66601  AVERAGE MISS PENALTY: 43.9587
DTLB LOAD      ACCESS: 30259525  HIT: 30057322  MISS: 202203  HIT %: 99.3318  MISS %: 0.668229  AVERAGE MISS PENALTY: 28.7836
DTLB RFO       ACCESS: 17307493  HIT: 17192895  MISS: 114598  HIT %: 99.3379  MISS %: 0.662129  AVERAGE MISS PENALTY: 70.7344
DTLB PREFETCH  ACCESS:     0  HIT:     0  MISS:     0  HIT %:     0  MISS %:     0  AVERAGE MISS PENALTY: 0
DTLB WRITEBACK ACCESS:     0  HIT:     0  MISS:     0  HIT %:     0  MISS %:     0  AVERAGE MISS PENALTY: 0
DTLB PREFETCH  REQUESTED:     0  ISSUED:     0  USEFUL:     0  USELESS:     0
 USEFUL LOAD PREFETCHES:          0 PREFETCH ISSUED TO LOWER LEVEL:          0  ACCURACY: -nan
 TIMELY PREFETCHES:          0 LATE PREFETCHES: 0 DROPPED PREFETCHES: 0
DTLB AVERAGE MISS LATENCY: 43.9587 cycles
STLB TOTAL     ACCESS: 316801  HIT: 274198  MISS: 42603  HIT %: 86.5521  MISS %: 13.4479  AVERAGE MISS PENALTY: 100
STLB LOAD      ACCESS: 202203  HIT: 178206  MISS: 23997  HIT %: 88.1322  MISS %: 11.8678  AVERAGE MISS PENALTY: 100
STLB RFO       ACCESS: 114598  HIT: 95992  MISS: 18606  HIT %: 83.7641  MISS %: 16.2359  AVERAGE MISS PENALTY: 100
STLB PREFETCH  ACCESS:     0  HIT:     0  MISS:     0  HIT %:     0  MISS %:     0  AVERAGE MISS PENALTY: 0
STLB WRITEBACK ACCESS:     0  HIT:     0  MISS:     0  HIT %:     0  MISS %:     0  AVERAGE MISS PENALTY: 0
STLB PREFETCH  REQUESTED:     0  ISSUED:     0  USEFUL:     0  USELESS:     0
 USEFUL LOAD PREFETCHES:          0 PREFETCH ISSUED TO LOWER LEVEL:          0  ACCURACY: -nan
 TIMELY PREFETCHES:          0 LATE PREFETCHES: 0 DROPPED PREFETCHES: 0
STLB AVERAGE MISS LATENCY: 100 cycles
L1D TOTAL     ACCESS: 70222567  HIT: 67007315  MISS: 3215252  HIT %: 95.4213  MISS %: 4.57866  AVERAGE MISS PENALTY: 2630.59
L1D LOAD      ACCESS: 32830696  HIT: 32770569  MISS: 60127  HIT %: 99.8169  MISS %: 0.183143  AVERAGE MISS PENALTY: 129710
L1D RFO       ACCESS: 31195346  HIT: 29996071  MISS: 1199275  HIT %: 96.1556  MISS %: 3.8444  AVERAGE MISS PENALTY: 500.703
L1D PREFETCH  ACCESS: 6196525  HIT: 4240675  MISS: 1955850  HIT %: 68.4363  MISS %: 31.5637  AVERAGE MISS PENALTY: 29.8715
L1D WRITEBACK ACCESS:     0  HIT:     0  MISS:     0  HIT %:     0  MISS %:     0  AVERAGE MISS PENALTY: 0
L1D PREFETCH  REQUESTED: 6565807  ISSUED: 6196867  USEFUL: 1949633  USELESS:  6215
 USEFUL LOAD PREFETCHES:    1949633 PREFETCH ISSUED TO LOWER LEVEL:    2134877  ACCURACY: 91.323
 TIMELY PREFETCHES:    1949633 LATE PREFETCHES: 66 DROPPED PREFETCHES: 368940
L1D AVERAGE MISS LATENCY: 207.787 cycles
L1I TOTAL     ACCESS: 35690368  HIT: 35690368  MISS:     0  HIT %:   100  MISS %:     0  AVERAGE MISS PENALTY: 0
L1I LOAD      ACCESS: 35690368  HIT: 35690368  MISS:     0  HIT %:   100  MISS %:     0  AVERAGE MISS PENALTY: 0
L1I RFO       ACCESS:     0  HIT:     0  MISS:     0  HIT %:     0  MISS %:     0  AVERAGE MISS PENALTY: 0
L1I PREFETCH  ACCESS:     0  HIT:     0  MISS:     0  HIT %:     0  MISS %:     0  AVERAGE MISS PENALTY: 0
L1I WRITEBACK ACCESS:     0  HIT:     0  MISS:     0  HIT %:     0  MISS %:     0  AVERAGE MISS PENALTY: 0
L1I PREFETCH  REQUESTED:     0  ISSUED:     0  USEFUL:     0  USELESS:     0
 USEFUL LOAD PREFETCHES:          0 PREFETCH ISSUED TO LOWER LEVEL:          0  ACCURACY: -nan
 TIMELY PREFETCHES:          0 LATE PREFETCHES: 0 DROPPED PREFETCHES: 0
L1I AVERAGE MISS LATENCY: -nan cycles
L2C TOTAL     ACCESS: 10867785  HIT: 7968221  MISS: 2899564  HIT %: 73.3196  MISS %: 26.6804  AVERAGE MISS PENALTY: 2990.74
L2C LOAD      ACCESS: 59948  HIT: 31811  MISS: 28137  HIT %: 53.0643  MISS %: 46.9357  AVERAGE MISS PENALTY: 266831
L2C RFO       ACCESS: 1195455  HIT:  4692  MISS: 1190763  HIT %: 0.392487  MISS %: 99.6075  AVERAGE MISS PENALTY: 488.734
L2C PREFETCH  ACCESS: 8400837  HIT: 6720416  MISS: 1680421  HIT %: 79.997  MISS %: 20.003  AVERAGE MISS PENALTY: 346.367
L2C WRITEBACK ACCESS: 1211545  HIT: 1211302  MISS:   243  HIT %: 99.9799  MISS %: 0.020057  AVERAGE MISS PENALTY: 0
L2C PREFETCH  REQUESTED: 7597354  ISSUED: 7575166  USEFUL:  7522  USELESS: 1671530
 USEFUL LOAD PREFETCHES:       7522 PREFETCH ISSUED TO LOWER LEVEL:    1815611  ACCURACY: 0.414296
 TIMELY PREFETCHES:       7522 LATE PREFETCHES: 47 DROPPED PREFETCHES: 22188
L2C AVERAGE MISS LATENCY: 404.152 cycles
LLC0 TOTAL     ACCESS: 511306  HIT: 175836  MISS: 335470  HIT %: 34.3896  MISS %: 65.6104  AVERAGE MISS PENALTY: 379.746
LLC0 LOAD      ACCESS: 26788  HIT:  3807  MISS: 22981  HIT %: 14.2116  MISS %: 85.7884  AVERAGE MISS PENALTY: 265.493
LLC0 RFO       ACCESS: 148841  HIT:     0  MISS: 148841  HIT %:     0  MISS %:   100  AVERAGE MISS PENALTY: 432.291
LLC0 PREFETCH  ACCESS: 186717  HIT: 23096  MISS: 163621  HIT %: 12.3695  MISS %: 87.6305  AVERAGE MISS PENALTY: 348.057
LLC0 WRITEBACK ACCESS: 148960  HIT: 148933  MISS:    27  HIT %: 99.9819  MISS %: 0.0181257  AVERAGE MISS PENALTY: 0
LLC0 PREFETCH  REQUESTED:     0  ISSUED:     0  USEFUL:     0  USELESS: 159552
 USEFUL LOAD PREFETCHES:          0 PREFETCH ISSUED TO LOWER LEVEL:     163622  ACCURACY: 0
 TIMELY PREFETCHES:          0 LATE PREFETCHES: 0 DROPPED PREFETCHES: 0
LLC0 AVERAGE MISS LATENCY: 379.746 cycles
Deadblocks : 20682 Deadblock percentage : 89.9961

LLC1 TOTAL     ACCESS: 511373  HIT: 175969  MISS: 335404  HIT %: 34.4111  MISS %: 65.5889  AVERAGE MISS PENALTY: 391.262
LLC1 LOAD      ACCESS:   238  HIT:    80  MISS:   158  HIT %: 33.6134  MISS %: 66.3866  AVERAGE MISS PENALTY: 211.544
LLC1 RFO       ACCESS: 148848  HIT:     0  MISS: 148848  HIT %:     0  MISS %:   100  AVERAGE MISS PENALTY: 451.514
LLC1 PREFETCH  ACCESS: 213420  HIT: 27022  MISS: 186398  HIT %: 12.6614  MISS %: 87.3386  AVERAGE MISS PENALTY: 343.299
LLC1 WRITEBACK ACCESS: 148867  HIT: 148867  MISS:     0  HIT %:   100  MISS %:     0  AVERAGE MISS PENALTY: 0
LLC1 PREFETCH  REQUESTED:     0  ISSUED:     0  USEFUL:     3  USELESS: 182883
 USEFUL LOAD PREFETCHES:          3 PREFETCH ISSUED TO LOWER LEVEL:     186398  ACCURACY: 0.00160946
 TIMELY PREFETCHES:          3 LATE PREFETCHES: 0 DROPPED PREFETCHES: 0
LLC1 AVERAGE MISS LATENCY: 391.262 cycles
LLC2 TOTAL     ACCESS: 511363  HIT: 176272  MISS: 335091  HIT %: 34.471  MISS %: 65.529  AVERAGE MISS PENALTY: 396.63
LLC2 LOAD      ACCESS:   219  HIT:    78  MISS:   141  HIT %: 35.6164  MISS %: 64.3836  AVERAGE MISS PENALTY: 232.22
LLC2 RFO       ACCESS: 148848  HIT:     0  MISS: 148848  HIT %:     0  MISS %:   100  AVERAGE MISS PENALTY: 450.761
LLC2 PREFETCH  ACCESS: 213426  HIT: 27324  MISS: 186102  HIT %: 12.8026  MISS %: 87.1974  AVERAGE MISS PENALTY: 353.46
LLC2 WRITEBACK ACCESS: 148870  HIT: 148870  MISS:     0  HIT %:   100  MISS %:     0  AVERAGE MISS PENALTY: 0
LLC2 PREFETCH  REQUESTED:     0  ISSUED:     0  USEFUL:     9  USELESS: 183354
 USEFUL LOAD PREFETCHES:          9 PREFETCH ISSUED TO LOWER LEVEL:     186102  ACCURACY: 0.00483606
 TIMELY PREFETCHES:          9 LATE PREFETCHES: 0 DROPPED PREFETCHES: 0
LLC2 AVERAGE MISS LATENCY: 396.63 cycles
LLC3 TOTAL     ACCESS: 511239  HIT: 176135  MISS: 335104  HIT %: 34.4526  MISS %: 65.5474  AVERAGE MISS PENALTY: 398.601
LLC3 LOAD      ACCESS:   130  HIT:     4  MISS:   126  HIT %: 3.07692  MISS %: 96.9231  AVERAGE MISS PENALTY: 240.278
LLC3 RFO       ACCESS: 148848  HIT:     0  MISS: 148848  HIT %:     0  MISS %:   100  AVERAGE MISS PENALTY: 457.96
LLC3 PREFETCH  ACCESS: 213386  HIT: 27259  MISS: 186127  HIT %: 12.7745  MISS %: 87.2255  AVERAGE MISS PENALTY: 351.244
LLC3 WRITEBACK ACCESS: 148875  HIT: 148872  MISS:     3  HIT %: 99.998  MISS %: 0.00201511  AVERAGE MISS PENALTY: 0
LLC3 PREFETCH  REQUESTED:     0  ISSUED:     0  USEFUL:     3  USELESS: 183315
 USEFUL LOAD PREFETCHES:          3 PREFETCH ISSUED TO LOWER LEVEL:     186128  ACCURACY: 0.00161179
 TIMELY PREFETCHES:          3 LATE PREFETCHES: 0 DROPPED PREFETCHES: 0
LLC3 AVERAGE MISS LATENCY: 398.601 cycles
LLC4 TOTAL     ACCESS: 511270  HIT: 176257  MISS: 335013  HIT %: 34.4743  MISS %: 65.5257  AVERAGE MISS PENALTY: 400.984
LLC4 LOAD      ACCESS:   151  HIT:    24  MISS:   127  HIT %: 15.894  MISS %: 84.106  AVERAGE MISS PENALTY: 238.346
LLC4 RFO       ACCESS: 148848  HIT:     0  MISS: 148848  HIT %:     0  MISS %:   100  AVERAGE MISS PENALTY: 454.134
LLC4 PREFETCH  ACCESS: 213393  HIT: 27358  MISS: 186035  HIT %: 12.8205  MISS %: 87.1795  AVERAGE MISS PENALTY: 358.576
LLC4 WRITEBACK ACCESS: 148878  HIT: 148875  MISS:     3  HIT %: 99.998  MISS %: 0.00201507  AVERAGE MISS PENALTY: 0
LLC4 PREFETCH  REQUESTED:     0  ISSUED:     0  USEFUL:     2  USELESS: 183313
 USEFUL LOAD PREFETCHES:          2 PREFETCH ISSUED TO LOWER LEVEL:     186037  ACCURACY: 0.00107505
 TIMELY PREFETCHES:          2 LATE PREFETCHES: 0 DROPPED PREFETCHES: 0
LLC4 AVERAGE MISS LATENCY: 400.984 cycles
LLC5 TOTAL     ACCESS: 511258  HIT: 176278  MISS: 334980  HIT %: 34.4793  MISS %: 65.5207  AVERAGE MISS PENALTY: 406.123
LLC5 LOAD      ACCESS:   152  HIT:    22  MISS:   130  HIT %: 14.4737  MISS %: 85.5263  AVERAGE MISS PENALTY: 232.469
LLC5 RFO       ACCESS: 148848  HIT:     0  MISS: 148848  HIT %:     0  MISS %:   100  AVERAGE MISS PENALTY: 463.645
LLC5 PREFETCH  ACCESS: 213372  HIT: 27375  MISS: 185997  HIT %: 12.8297  MISS %: 87.1703  AVERAGE MISS PENALTY: 360.221
LLC5 WRITEBACK ACCESS: 148886  HIT: 148881  MISS:     5  HIT %: 99.9966  MISS %: 0.00335827  AVERAGE MISS PENALTY: 0
LLC5 PREFETCH  REQUESTED:     0  ISSUED:     0  USEFUL:     2  USELESS: 183642
 USEFUL LOAD PREFETCHES:          2 PREFETCH ISSUED TO LOWER LEVEL:     186001  ACCURACY: 0.00107526
 TIMELY PREFETCHES:          2 LATE PREFETCHES: 0 DROPPED PREFETCHES: 0
LLC5 AVERAGE MISS LATENCY: 406.123 cycles
LLC6 TOTAL     ACCESS: 511368  HIT: 176229  MISS: 335139  HIT %: 34.4623  MISS %: 65.5377  AVERAGE MISS PENALTY: 405.636
LLC6 LOAD      ACCESS:   281  HIT:   150  MISS:   131  HIT %: 53.3808  MISS %: 46.6192  AVERAGE MISS PENALTY: 235.382
LLC6 RFO       ACCESS: 148841  HIT:     0  MISS: 148841  HIT %:     0  MISS %:   100  AVERAGE MISS PENALTY: 461.843
LLC6 PREFETCH  ACCESS: 213362  HIT: 27200  MISS: 186162  HIT %: 12.7483  MISS %: 87.2517  AVERAGE MISS PENALTY: 360.829
LLC6 WRITEBACK ACCESS: 148884  HIT: 148879  MISS:     5  HIT %: 99.9966  MISS %: 0.00335832  AVERAGE MISS PENALTY: 0
LLC6 PREFETCH  REQUESTED:     0  ISSUED:     0  USEFUL:     2  USELESS: 183420
 USEFUL LOAD PREFETCHES:          2 PREFETCH ISSUED TO LOWER LEVEL:     186163  ACCURACY: 0.00107433
 TIMELY PREFETCHES:          2 LATE PREFETCHES: 0 DROPPED PREFETCHES: 0
LLC6 AVERAGE MISS LATENCY: 405.636 cycles
LLC7 TOTAL     ACCESS: 511347  HIT: 175968  MISS: 335379  HIT %: 34.4126  MISS %: 65.5874  AVERAGE MISS PENALTY: 400.402
LLC7 LOAD      ACCESS:   131  HIT:     2  MISS:   129  HIT %: 1.52672  MISS %: 98.4733  AVERAGE MISS PENALTY: 234.264
LLC7 RFO       ACCESS: 148841  HIT:     0  MISS: 148841  HIT %:     0  MISS %:   100  AVERAGE MISS PENALTY: 459.845
LLC7 PREFETCH  ACCESS: 213392  HIT: 26992  MISS: 186400  HIT %: 12.649  MISS %: 87.351  AVERAGE MISS PENALTY: 353.07
LLC7 WRITEBACK ACCESS: 148983  HIT: 148974  MISS:     9  HIT %: 99.994  MISS %: 0.00604096  AVERAGE MISS PENALTY: 0
LLC7 PREFETCH  REQUESTED:     0  ISSUED:     0  USEFUL:     2  USELESS: 183016
 USEFUL LOAD PREFETCHES:          2 PREFETCH ISSUED TO LOWER LEVEL:     186400  ACCURACY: 0.00107296
 TIMELY PREFETCHES:          2 LATE PREFETCHES: 0 DROPPED PREFETCHES: 0
LLC7 AVERAGE MISS LATENCY: 400.402 cycles
ROI Average ROB Stall Cycles:	5.50649
ROI Total ROB Stalls Cycles:	85396895
ROI TOTAL ROB counter      :	15508411
ROI Average Load ROB Stall Cycles:	7.74895
ROI Total Load ROB Stalls Cycle  :	15579689
ROI Total Load ROB stalls Counter:	2010556
Major fault: 0 Minor fault: 76555

