
*** ChampSim Multicore Out-of-Order Simulator ***

Warmup Instructions: 200000000
Simulation Instructions: 200000000
Number of CPUs: 1
threads:1

L1I Configuration:
L1I_SET:64
L1I_WAY:8
L1I_RQ_SIZE:64
L1I_WQ_SIZE:64
L1I_PQ_SIZE:8
L1I_MSHR_SIZE:8

L1D Configuration:
L1D_SET:64
L1D_WAY:12
L1D_RQ_SIZE:64
L1D_WQ_SIZE:64
L1D_PQ_SIZE:8
L1D_MSHR_SIZE:16

L2C Configuration:
L2C_SET:1024
L2C_WAY:8
L2C_RQ_SIZE:32
L2C_WQ_SIZE:32
L2C_PQ_SIZE:16
L2C_MSHR_SIZE:32

LLC Configuration:
LLC_SET:2048
LLC_WAY:16
LLC SLICES:8
LLC_RQ_SIZE:64
LLC_WQ_SIZE:64
LLC_PQ_SIZE:32
LLC_MSHR_SIZE:64

Interconnect OFF
Attacker deprioritize is: OFF
Off-chip DRAM Size: 4096 MB Channels: 1 Width: 64-bit Data Rate: 3200 MT/s
PAGE SIZE in KB: 4.000000 
PAGE SIZE in MB: 0.003906 
PAGE offset in bits: 12 
CEASER-S_LLC:0
MIRAGE : 0
CEASER_LATENCY:3
REMAP : OFF
Partitions : 1
Multi-Step : OFF
BFS : OFF

CPU 0 runs /home/anubhav/spec_2017/603.bwaves_s-1740B.champsimtrace.xz
CPU 0 Bimodal branch predictor
Initialize Hawkeye state
Initialize Hawkeye state
Initialize Hawkeye state
Initialize Hawkeye state
Initialize Hawkeye state
Initialize Hawkeye state
Initialize Hawkeye state
Initialize Hawkeye state
Heartbeat CPU 0 instructions: 10000002 cycles: 5311303 heartbeat IPC: 1.88278 cumulative IPC: 1.88278 (Simulation time: 0 hr 1 min 3 sec) 
 Total Blocks : 262144 Invalid Blocks : 143007
Heartbeat CPU 0 instructions: 20000002 cycles: 10622990 heartbeat IPC: 1.88264 cumulative IPC: 1.88271 (Simulation time: 0 hr 2 min 42 sec) 
 Total Blocks : 262144 Invalid Blocks : 76008
Heartbeat CPU 0 instructions: 30000002 cycles: 15934295 heartbeat IPC: 1.88278 cumulative IPC: 1.88273 (Simulation time: 0 hr 4 min 40 sec) 
 Total Blocks : 262144 Invalid Blocks : 52958
Heartbeat CPU 0 instructions: 40000003 cycles: 21245058 heartbeat IPC: 1.88297 cumulative IPC: 1.88279 (Simulation time: 0 hr 6 min 45 sec) 
 Total Blocks : 262144 Invalid Blocks : 40737
Heartbeat CPU 0 instructions: 50000003 cycles: 26556270 heartbeat IPC: 1.88281 cumulative IPC: 1.88279 (Simulation time: 0 hr 8 min 57 sec) 
 Total Blocks : 262144 Invalid Blocks : 30140
Heartbeat CPU 0 instructions: 60000002 cycles: 31868016 heartbeat IPC: 1.88262 cumulative IPC: 1.88277 (Simulation time: 0 hr 11 min 15 sec) 
 Total Blocks : 262144 Invalid Blocks : 22497
Heartbeat CPU 0 instructions: 70000001 cycles: 37179182 heartbeat IPC: 1.88283 cumulative IPC: 1.88277 (Simulation time: 0 hr 13 min 38 sec) 
 Total Blocks : 262144 Invalid Blocks : 16954
Heartbeat CPU 0 instructions: 80000000 cycles: 42490024 heartbeat IPC: 1.88294 cumulative IPC: 1.88279 (Simulation time: 0 hr 16 min 6 sec) 
 Total Blocks : 262144 Invalid Blocks : 12989
Heartbeat CPU 0 instructions: 90000003 cycles: 47801493 heartbeat IPC: 1.88272 cumulative IPC: 1.88279 (Simulation time: 0 hr 18 min 39 sec) 
 Total Blocks : 262144 Invalid Blocks : 9761
Heartbeat CPU 0 instructions: 100000001 cycles: 53113170 heartbeat IPC: 1.88264 cumulative IPC: 1.88277 (Simulation time: 0 hr 21 min 21 sec) 
 Total Blocks : 262144 Invalid Blocks : 7420
Heartbeat CPU 0 instructions: 110000000 cycles: 58423773 heartbeat IPC: 1.88303 cumulative IPC: 1.8828 (Simulation time: 0 hr 24 min 7 sec) 
 Total Blocks : 262144 Invalid Blocks : 5717
Heartbeat CPU 0 instructions: 120000001 cycles: 63734777 heartbeat IPC: 1.88288 cumulative IPC: 1.8828 (Simulation time: 0 hr 26 min 58 sec) 
 Total Blocks : 262144 Invalid Blocks : 4272
Heartbeat CPU 0 instructions: 130000003 cycles: 69046511 heartbeat IPC: 1.88262 cumulative IPC: 1.88279 (Simulation time: 0 hr 29 min 55 sec) 
 Total Blocks : 262144 Invalid Blocks : 3212
Heartbeat CPU 0 instructions: 140000000 cycles: 74357995 heartbeat IPC: 1.88271 cumulative IPC: 1.88278 (Simulation time: 0 hr 32 min 58 sec) 
 Total Blocks : 262144 Invalid Blocks : 2442
Heartbeat CPU 0 instructions: 150000002 cycles: 79668766 heartbeat IPC: 1.88297 cumulative IPC: 1.8828 (Simulation time: 0 hr 36 min 6 sec) 
 Total Blocks : 262144 Invalid Blocks : 1883
Heartbeat CPU 0 instructions: 160000003 cycles: 84980108 heartbeat IPC: 1.88276 cumulative IPC: 1.88279 (Simulation time: 0 hr 39 min 16 sec) 
 Total Blocks : 262144 Invalid Blocks : 1371
Heartbeat CPU 0 instructions: 170000000 cycles: 90291800 heartbeat IPC: 1.88264 cumulative IPC: 1.88278 (Simulation time: 0 hr 42 min 34 sec) 
 Total Blocks : 262144 Invalid Blocks : 1072
Heartbeat CPU 0 instructions: 180000002 cycles: 95602631 heartbeat IPC: 1.88294 cumulative IPC: 1.88279 (Simulation time: 0 hr 45 min 52 sec) 
 Total Blocks : 262144 Invalid Blocks : 823
Heartbeat CPU 0 instructions: 190000002 cycles: 100913322 heartbeat IPC: 1.88299 cumulative IPC: 1.8828 (Simulation time: 0 hr 49 min 18 sec) 
 Total Blocks : 262144 Invalid Blocks : 638
Heartbeat CPU 0 instructions: 200000003 cycles: 106225042 heartbeat IPC: 1.88263 cumulative IPC: 1.8828 (Simulation time: 0 hr 52 min 54 sec) 
 Total Blocks : 262144 Invalid Blocks : 489

Warmup complete CPU 0 instructions: 200000003 cycles: 106225042 (Simulation time: 0 hr 52 min 54 sec) 

Heartbeat CPU 0 instructions: 210000002 cycles: 113750458 heartbeat IPC: 1.32883 cumulative IPC: 1.32883 (Simulation time: 0 hr 56 min 48 sec) 
 Total Blocks : 262144 Invalid Blocks : 354
Heartbeat CPU 0 instructions: 220000000 cycles: 121275764 heartbeat IPC: 1.32885 cumulative IPC: 1.32884 (Simulation time: 1 hr 0 min 47 sec) 
 Total Blocks : 262144 Invalid Blocks : 258
Heartbeat CPU 0 instructions: 230000002 cycles: 128801555 heartbeat IPC: 1.32876 cumulative IPC: 1.32881 (Simulation time: 1 hr 4 min 59 sec) 
 Total Blocks : 262144 Invalid Blocks : 179
Heartbeat CPU 0 instructions: 240000002 cycles: 136330717 heartbeat IPC: 1.32817 cumulative IPC: 1.32865 (Simulation time: 1 hr 9 min 19 sec) 
 Total Blocks : 262144 Invalid Blocks : 131
Heartbeat CPU 0 instructions: 250000003 cycles: 143856151 heartbeat IPC: 1.32883 cumulative IPC: 1.32869 (Simulation time: 1 hr 13 min 35 sec) 
 Total Blocks : 262144 Invalid Blocks : 83
Heartbeat CPU 0 instructions: 260000002 cycles: 151377474 heartbeat IPC: 1.32955 cumulative IPC: 1.32883 (Simulation time: 1 hr 18 min 0 sec) 
 Total Blocks : 262144 Invalid Blocks : 60
Heartbeat CPU 0 instructions: 270000001 cycles: 158904443 heartbeat IPC: 1.32856 cumulative IPC: 1.32879 (Simulation time: 1 hr 22 min 15 sec) 
 Total Blocks : 262144 Invalid Blocks : 45
Heartbeat CPU 0 instructions: 280000003 cycles: 166427596 heartbeat IPC: 1.32923 cumulative IPC: 1.32885 (Simulation time: 1 hr 26 min 50 sec) 
 Total Blocks : 262144 Invalid Blocks : 30
Heartbeat CPU 0 instructions: 290000002 cycles: 173952666 heartbeat IPC: 1.32889 cumulative IPC: 1.32885 (Simulation time: 1 hr 31 min 28 sec) 
 Total Blocks : 262144 Invalid Blocks : 24
Heartbeat CPU 0 instructions: 300000002 cycles: 181478922 heartbeat IPC: 1.32868 cumulative IPC: 1.32884 (Simulation time: 1 hr 34 min 55 sec) 
 Total Blocks : 262144 Invalid Blocks : 17
Heartbeat CPU 0 instructions: 310000001 cycles: 189004164 heartbeat IPC: 1.32886 cumulative IPC: 1.32884 (Simulation time: 1 hr 38 min 21 sec) 
 Total Blocks : 262144 Invalid Blocks : 8
Heartbeat CPU 0 instructions: 320000001 cycles: 196530073 heartbeat IPC: 1.32874 cumulative IPC: 1.32883 (Simulation time: 1 hr 41 min 51 sec) 
 Total Blocks : 262144 Invalid Blocks : 5
Heartbeat CPU 0 instructions: 330000000 cycles: 204054200 heartbeat IPC: 1.32906 cumulative IPC: 1.32885 (Simulation time: 1 hr 45 min 35 sec) 
 Total Blocks : 262144 Invalid Blocks : 2
Heartbeat CPU 0 instructions: 340000000 cycles: 211581846 heartbeat IPC: 1.32844 cumulative IPC: 1.32882 (Simulation time: 1 hr 49 min 16 sec) 
 Total Blocks : 262144 Invalid Blocks : 1
Heartbeat CPU 0 instructions: 350000000 cycles: 219113097 heartbeat IPC: 1.3278 cumulative IPC: 1.32875 (Simulation time: 1 hr 53 min 0 sec) 
 Total Blocks : 262144 Invalid Blocks : 0
Heartbeat CPU 0 instructions: 360000000 cycles: 226638448 heartbeat IPC: 1.32884 cumulative IPC: 1.32876 (Simulation time: 1 hr 56 min 45 sec) 
 Total Blocks : 262144 Invalid Blocks : 0
Heartbeat CPU 0 instructions: 370000000 cycles: 234163632 heartbeat IPC: 1.32887 cumulative IPC: 1.32876 (Simulation time: 2 hr 0 min 29 sec) 
 Total Blocks : 262144 Invalid Blocks : 0
Heartbeat CPU 0 instructions: 380000002 cycles: 241691406 heartbeat IPC: 1.32841 cumulative IPC: 1.32874 (Simulation time: 2 hr 4 min 17 sec) 
 Total Blocks : 262144 Invalid Blocks : 0
Heartbeat CPU 0 instructions: 390000000 cycles: 249212888 heartbeat IPC: 1.32952 cumulative IPC: 1.32878 (Simulation time: 2 hr 8 min 8 sec) 
 Total Blocks : 262144 Invalid Blocks : 0
Heartbeat CPU 0 instructions: 400000001 cycles: 256734945 heartbeat IPC: 1.32942 cumulative IPC: 1.32882 (Simulation time: 2 hr 11 min 58 sec) 
 Total Blocks : 262144 Invalid Blocks : 0
Finished CPU 0 instructions: 200000001 cycles: 150509905 cumulative IPC: 1.32882 (Simulation time: 2 hr 11 min 58 sec) 

CPU 0 Branch Prediction Accuracy: 81.2318% MPKI: 4.68481 Average ROB Occupancy at Mispredict: 203.854

ChampSim completed all CPUs

Region of Interest Statistics

CPU 0 cumulative IPC: 1.32882 instructions: 200000001 cycles: 150509905
ITLB TOTAL     ACCESS: 17948388  HIT: 17948388  MISS:     0  HIT %:   100  MISS %:     0  AVERAGE MISS PENALTY: 0
ITLB LOAD      ACCESS: 17948388  HIT: 17948388  MISS:     0  HIT %:   100  MISS %:     0  AVERAGE MISS PENALTY: 0
ITLB RFO       ACCESS:     0  HIT:     0  MISS:     0  HIT %:     0  MISS %:     0  AVERAGE MISS PENALTY: 0
ITLB PREFETCH  ACCESS:     0  HIT:     0  MISS:     0  HIT %:     0  MISS %:     0  AVERAGE MISS PENALTY: 0
ITLB WRITEBACK ACCESS:     0  HIT:     0  MISS:     0  HIT %:     0  MISS %:     0  AVERAGE MISS PENALTY: 0
ITLB PREFETCH  REQUESTED:     0  ISSUED:     0  USEFUL:     0  USELESS:     0
 USEFUL LOAD PREFETCHES:          0 PREFETCH ISSUED TO LOWER LEVEL:          0  ACCURACY: -nan
 TIMELY PREFETCHES:          0 LATE PREFETCHES: 0 DROPPED PREFETCHES: 0
ITLB AVERAGE MISS LATENCY: -nan cycles
DTLB TOTAL     ACCESS: 64374398  HIT: 64101211  MISS: 273187  HIT %: 99.5756  MISS %: 0.424372  AVERAGE MISS PENALTY: 98.5115
DTLB LOAD      ACCESS: 59356055  HIT: 59127136  MISS: 228919  HIT %: 99.6143  MISS %: 0.385671  AVERAGE MISS PENALTY: 115.156
DTLB RFO       ACCESS: 5018343  HIT: 4974075  MISS: 44268  HIT %: 99.1179  MISS %: 0.882124  AVERAGE MISS PENALTY: 12.4404
DTLB PREFETCH  ACCESS:     0  HIT:     0  MISS:     0  HIT %:     0  MISS %:     0  AVERAGE MISS PENALTY: 0
DTLB WRITEBACK ACCESS:     0  HIT:     0  MISS:     0  HIT %:     0  MISS %:     0  AVERAGE MISS PENALTY: 0
DTLB PREFETCH  REQUESTED:     0  ISSUED:     0  USEFUL:     0  USELESS:     0
 USEFUL LOAD PREFETCHES:          0 PREFETCH ISSUED TO LOWER LEVEL:          0  ACCURACY: -nan
 TIMELY PREFETCHES:          0 LATE PREFETCHES: 0 DROPPED PREFETCHES: 0
DTLB AVERAGE MISS LATENCY: 98.5115 cycles
STLB TOTAL     ACCESS: 273187  HIT: 213804  MISS: 59383  HIT %: 78.2629  MISS %: 21.7371  AVERAGE MISS PENALTY: 100
STLB LOAD      ACCESS: 228919  HIT: 171059  MISS: 57860  HIT %: 74.7247  MISS %: 25.2753  AVERAGE MISS PENALTY: 100
STLB RFO       ACCESS: 44268  HIT: 42745  MISS:  1523  HIT %: 96.5596  MISS %: 3.44041  AVERAGE MISS PENALTY: 100
STLB PREFETCH  ACCESS:     0  HIT:     0  MISS:     0  HIT %:     0  MISS %:     0  AVERAGE MISS PENALTY: 0
STLB WRITEBACK ACCESS:     0  HIT:     0  MISS:     0  HIT %:     0  MISS %:     0  AVERAGE MISS PENALTY: 0
STLB PREFETCH  REQUESTED:     0  ISSUED:     0  USEFUL:     0  USELESS:     0
 USEFUL LOAD PREFETCHES:          0 PREFETCH ISSUED TO LOWER LEVEL:          0  ACCURACY: -nan
 TIMELY PREFETCHES:          0 LATE PREFETCHES: 0 DROPPED PREFETCHES: 0
STLB AVERAGE MISS LATENCY: 100 cycles
L1D TOTAL     ACCESS: 104168742  HIT: 100170245  MISS: 3998497  HIT %: 96.1615  MISS %: 3.83848  AVERAGE MISS PENALTY: 1.29163e+06
L1D LOAD      ACCESS: 59350244  HIT: 59184177  MISS: 166067  HIT %: 99.7202  MISS %: 0.279808  AVERAGE MISS PENALTY: 3.10974e+07
L1D RFO       ACCESS: 11126145  HIT: 11028697  MISS: 97448  HIT %: 99.1242  MISS %: 0.875847  AVERAGE MISS PENALTY: 210.519
L1D PREFETCH  ACCESS: 33692353  HIT: 29957371  MISS: 3734982  HIT %: 88.9145  MISS %: 11.0855  AVERAGE MISS PENALTY: 82.3103
L1D WRITEBACK ACCESS:     0  HIT:     0  MISS:     0  HIT %:     0  MISS %:     0  AVERAGE MISS PENALTY: 0
L1D PREFETCH  REQUESTED: 66158587  ISSUED: 34680622  USEFUL: 3734848  USELESS:   130
 USEFUL LOAD PREFETCHES:    3734848 PREFETCH ISSUED TO LOWER LEVEL:    7090667  ACCURACY: 52.6727
 TIMELY PREFETCHES:    3734848 LATE PREFETCHES: 44027 DROPPED PREFETCHES: 31477965
L1D AVERAGE MISS LATENCY: 35.711 cycles
L1I TOTAL     ACCESS: 30118172  HIT: 30118172  MISS:     0  HIT %:   100  MISS %:     0  AVERAGE MISS PENALTY: 0
L1I LOAD      ACCESS: 30118172  HIT: 30118172  MISS:     0  HIT %:   100  MISS %:     0  AVERAGE MISS PENALTY: 0
L1I RFO       ACCESS:     0  HIT:     0  MISS:     0  HIT %:     0  MISS %:     0  AVERAGE MISS PENALTY: 0
L1I PREFETCH  ACCESS:     0  HIT:     0  MISS:     0  HIT %:     0  MISS %:     0  AVERAGE MISS PENALTY: 0
L1I WRITEBACK ACCESS:     0  HIT:     0  MISS:     0  HIT %:     0  MISS %:     0  AVERAGE MISS PENALTY: 0
L1I PREFETCH  REQUESTED:     0  ISSUED:     0  USEFUL:     0  USELESS:     0
 USEFUL LOAD PREFETCHES:          0 PREFETCH ISSUED TO LOWER LEVEL:          0  ACCURACY: -nan
 TIMELY PREFETCHES:          0 LATE PREFETCHES: 0 DROPPED PREFETCHES: 0
L1I AVERAGE MISS LATENCY: -nan cycles
L2C TOTAL     ACCESS: 12832769  HIT: 9032252  MISS: 3800517  HIT %: 70.3843  MISS %: 29.6157  AVERAGE MISS PENALTY: 572944
L2C LOAD      ACCESS: 159137  HIT: 74590  MISS: 84547  HIT %: 46.8716  MISS %: 53.1284  AVERAGE MISS PENALTY: 2.57451e+07
L2C RFO       ACCESS: 97448  HIT:     0  MISS: 97448  HIT %:     0  MISS %:   100  AVERAGE MISS PENALTY: 194.198
L2C PREFETCH  ACCESS: 12477253  HIT: 8858731  MISS: 3618522  HIT %: 70.999  MISS %: 29.001  AVERAGE MISS PENALTY: 219.11
L2C WRITEBACK ACCESS: 98931  HIT: 98931  MISS:     0  HIT %:   100  MISS %:     0  AVERAGE MISS PENALTY: 0
L2C PREFETCH  REQUESTED: 14320508  ISSUED: 13751477  USEFUL: 68656  USELESS: 3549833
 USEFUL LOAD PREFETCHES:      68656 PREFETCH ISSUED TO LOWER LEVEL:    4696173  ACCURACY: 1.46196
 TIMELY PREFETCHES:      68656 LATE PREFETCHES: 19065 DROPPED PREFETCHES: 569031
L2C AVERAGE MISS LATENCY: 219.663 cycles
LLC0 TOTAL     ACCESS: 487241  HIT: 19895  MISS: 467346  HIT %: 4.08319  MISS %: 95.9168  AVERAGE MISS PENALTY: 190.376
LLC0 LOAD      ACCESS: 57873  HIT:   791  MISS: 57082  HIT %: 1.36679  MISS %: 98.6332  AVERAGE MISS PENALTY: 252.937
LLC0 RFO       ACCESS: 12181  HIT:     0  MISS: 12181  HIT %:     0  MISS %:   100  AVERAGE MISS PENALTY: 164.554
LLC0 PREFETCH  ACCESS: 405005  HIT:  6922  MISS: 398083  HIT %: 1.70911  MISS %: 98.2909  AVERAGE MISS PENALTY: 182.196
LLC0 WRITEBACK ACCESS: 12182  HIT: 12182  MISS:     0  HIT %:   100  MISS %:     0  AVERAGE MISS PENALTY: 0
LLC0 PREFETCH  REQUESTED:     0  ISSUED:     0  USEFUL:     3  USELESS: 397834
 USEFUL LOAD PREFETCHES:          3 PREFETCH ISSUED TO LOWER LEVEL:     398084  ACCURACY: 0.00075361
 TIMELY PREFETCHES:          3 LATE PREFETCHES: 0 DROPPED PREFETCHES: 0
LLC0 AVERAGE MISS LATENCY: 190.376 cycles
Deadblocks : 56419 Deadblock percentage : 98.8385

LLC1 TOTAL     ACCESS: 487245  HIT: 18751  MISS: 468494  HIT %: 3.84837  MISS %: 96.1516  AVERAGE MISS PENALTY: 191.836
LLC1 LOAD      ACCESS: 14808  HIT:     8  MISS: 14800  HIT %: 0.0540249  MISS %: 99.946  AVERAGE MISS PENALTY: 269.579
LLC1 RFO       ACCESS: 12181  HIT:     0  MISS: 12181  HIT %:     0  MISS %:   100  AVERAGE MISS PENALTY: 152.826
LLC1 PREFETCH  ACCESS: 448074  HIT:  6561  MISS: 441513  HIT %: 1.46427  MISS %: 98.5357  AVERAGE MISS PENALTY: 190.307
LLC1 WRITEBACK ACCESS: 12182  HIT: 12182  MISS:     0  HIT %:   100  MISS %:     0  AVERAGE MISS PENALTY: 0
LLC1 PREFETCH  REQUESTED:     0  ISSUED:     0  USEFUL:     8  USELESS: 441823
 USEFUL LOAD PREFETCHES:          8 PREFETCH ISSUED TO LOWER LEVEL:     441514  ACCURACY: 0.00181195
 TIMELY PREFETCHES:          8 LATE PREFETCHES: 0 DROPPED PREFETCHES: 0
LLC1 AVERAGE MISS LATENCY: 191.836 cycles
LLC2 TOTAL     ACCESS: 487246  HIT: 18828  MISS: 468418  HIT %: 3.86417  MISS %: 96.1358  AVERAGE MISS PENALTY: 190.566
LLC2 LOAD      ACCESS:  1652  HIT:     0  MISS:  1652  HIT %:     0  MISS %:   100  AVERAGE MISS PENALTY: 180.852
LLC2 RFO       ACCESS: 12181  HIT:     0  MISS: 12181  HIT %:     0  MISS %:   100  AVERAGE MISS PENALTY: 168.489
LLC2 PREFETCH  ACCESS: 461231  HIT:  6646  MISS: 454585  HIT %: 1.44093  MISS %: 98.5591  AVERAGE MISS PENALTY: 191.193
LLC2 WRITEBACK ACCESS: 12182  HIT: 12182  MISS:     0  HIT %:   100  MISS %:     0  AVERAGE MISS PENALTY: 0
LLC2 PREFETCH  REQUESTED:     0  ISSUED:     0  USEFUL:     0  USELESS: 454674
 USEFUL LOAD PREFETCHES:          0 PREFETCH ISSUED TO LOWER LEVEL:     454585  ACCURACY: 0
 TIMELY PREFETCHES:          0 LATE PREFETCHES: 0 DROPPED PREFETCHES: 0
LLC2 AVERAGE MISS LATENCY: 190.566 cycles
LLC3 TOTAL     ACCESS: 487253  HIT: 18882  MISS: 468371  HIT %: 3.87519  MISS %: 96.1248  AVERAGE MISS PENALTY: 191.723
LLC3 LOAD      ACCESS:    32  HIT:     5  MISS:    27  HIT %: 15.625  MISS %: 84.375  AVERAGE MISS PENALTY: 147.296
LLC3 RFO       ACCESS: 12181  HIT:     0  MISS: 12181  HIT %:     0  MISS %:   100  AVERAGE MISS PENALTY: 148.113
LLC3 PREFETCH  ACCESS: 462859  HIT:  6696  MISS: 456163  HIT %: 1.44666  MISS %: 98.5533  AVERAGE MISS PENALTY: 192.89
LLC3 WRITEBACK ACCESS: 12181  HIT: 12181  MISS:     0  HIT %:   100  MISS %:     0  AVERAGE MISS PENALTY: 0
LLC3 PREFETCH  REQUESTED:     0  ISSUED:     0  USEFUL:     1  USELESS: 456189
 USEFUL LOAD PREFETCHES:          1 PREFETCH ISSUED TO LOWER LEVEL:     456163  ACCURACY: 0.00021922
 TIMELY PREFETCHES:          1 LATE PREFETCHES: 0 DROPPED PREFETCHES: 0
LLC3 AVERAGE MISS LATENCY: 191.723 cycles
LLC4 TOTAL     ACCESS: 487262  HIT: 18759  MISS: 468503  HIT %: 3.84988  MISS %: 96.1501  AVERAGE MISS PENALTY: 188.665
LLC4 LOAD      ACCESS:    70  HIT:     4  MISS:    66  HIT %: 5.71429  MISS %: 94.2857  AVERAGE MISS PENALTY: 144.197
LLC4 RFO       ACCESS: 12181  HIT:     0  MISS: 12181  HIT %:     0  MISS %:   100  AVERAGE MISS PENALTY: 164.644
LLC4 PREFETCH  ACCESS: 462819  HIT:  6563  MISS: 456256  HIT %: 1.41805  MISS %: 98.582  AVERAGE MISS PENALTY: 189.312
LLC4 WRITEBACK ACCESS: 12192  HIT: 12192  MISS:     0  HIT %:   100  MISS %:     0  AVERAGE MISS PENALTY: 0
LLC4 PREFETCH  REQUESTED:     0  ISSUED:     0  USEFUL:     0  USELESS: 456294
 USEFUL LOAD PREFETCHES:          0 PREFETCH ISSUED TO LOWER LEVEL:     456257  ACCURACY: 0
 TIMELY PREFETCHES:          0 LATE PREFETCHES: 0 DROPPED PREFETCHES: 0
LLC4 AVERAGE MISS LATENCY: 188.665 cycles
LLC5 TOTAL     ACCESS: 487263  HIT: 18828  MISS: 468435  HIT %: 3.86403  MISS %: 96.136  AVERAGE MISS PENALTY: 183.521
LLC5 LOAD      ACCESS:    45  HIT:     5  MISS:    40  HIT %: 11.1111  MISS %: 88.8889  AVERAGE MISS PENALTY: 110.925
LLC5 RFO       ACCESS: 12181  HIT:     0  MISS: 12181  HIT %:     0  MISS %:   100  AVERAGE MISS PENALTY: 150.196
LLC5 PREFETCH  ACCESS: 462844  HIT:  6630  MISS: 456214  HIT %: 1.43245  MISS %: 98.5676  AVERAGE MISS PENALTY: 184.418
LLC5 WRITEBACK ACCESS: 12193  HIT: 12193  MISS:     0  HIT %:   100  MISS %:     0  AVERAGE MISS PENALTY: 0
LLC5 PREFETCH  REQUESTED:     0  ISSUED:     0  USEFUL:     1  USELESS: 456220
 USEFUL LOAD PREFETCHES:          1 PREFETCH ISSUED TO LOWER LEVEL:     456214  ACCURACY: 0.000219195
 TIMELY PREFETCHES:          1 LATE PREFETCHES: 0 DROPPED PREFETCHES: 0
LLC5 AVERAGE MISS LATENCY: 183.521 cycles
LLC6 TOTAL     ACCESS: 487241  HIT: 18651  MISS: 468590  HIT %: 3.82788  MISS %: 96.1721  AVERAGE MISS PENALTY: 184.373
LLC6 LOAD      ACCESS:    27  HIT:     2  MISS:    25  HIT %: 7.40741  MISS %: 92.5926  AVERAGE MISS PENALTY: 152.04
LLC6 RFO       ACCESS: 12181  HIT:     0  MISS: 12181  HIT %:     0  MISS %:   100  AVERAGE MISS PENALTY: 178.589
LLC6 PREFETCH  ACCESS: 462851  HIT:  6467  MISS: 456384  HIT %: 1.39721  MISS %: 98.6028  AVERAGE MISS PENALTY: 184.529
LLC6 WRITEBACK ACCESS: 12182  HIT: 12182  MISS:     0  HIT %:   100  MISS %:     0  AVERAGE MISS PENALTY: 0
LLC6 PREFETCH  REQUESTED:     0  ISSUED:     0  USEFUL:     2  USELESS: 456389
 USEFUL LOAD PREFETCHES:          2 PREFETCH ISSUED TO LOWER LEVEL:     456384  ACCURACY: 0.000438227
 TIMELY PREFETCHES:          2 LATE PREFETCHES: 0 DROPPED PREFETCHES: 0
LLC6 AVERAGE MISS LATENCY: 184.373 cycles
LLC7 TOTAL     ACCESS: 487242  HIT: 18862  MISS: 468380  HIT %: 3.87118  MISS %: 96.1288  AVERAGE MISS PENALTY: 185.98
LLC7 LOAD      ACCESS:    18  HIT:     1  MISS:    17  HIT %: 5.55556  MISS %: 94.4444  AVERAGE MISS PENALTY: 134.529
LLC7 RFO       ACCESS: 12181  HIT:     0  MISS: 12181  HIT %:     0  MISS %:   100  AVERAGE MISS PENALTY: 147.408
LLC7 PREFETCH  ACCESS: 462861  HIT:  6679  MISS: 456182  HIT %: 1.44298  MISS %: 98.557  AVERAGE MISS PENALTY: 187.012
LLC7 WRITEBACK ACCESS: 12182  HIT: 12182  MISS:     0  HIT %:   100  MISS %:     0  AVERAGE MISS PENALTY: 0
LLC7 PREFETCH  REQUESTED:     0  ISSUED:     0  USEFUL:     1  USELESS: 456095
 USEFUL LOAD PREFETCHES:          1 PREFETCH ISSUED TO LOWER LEVEL:     456182  ACCURACY: 0.000219211
 TIMELY PREFETCHES:          1 LATE PREFETCHES: 0 DROPPED PREFETCHES: 0
LLC7 AVERAGE MISS LATENCY: 185.98 cycles
ROI Average ROB Stall Cycles:	3.74348
ROI Total ROB Stalls Cycles:	107891440
ROI TOTAL ROB counter      :	28821152
ROI Average Load ROB Stall Cycles:	6.835
ROI Total Load ROB Stalls Cycle  :	28320917
ROI Total Load ROB stalls Counter:	4143512
Major fault: 0 Minor fault: 112968

