
*** ChampSim Multicore Out-of-Order Simulator ***

Warmup Instructions: 200000000
Simulation Instructions: 200000000
Number of CPUs: 1
threads:1

L1I Configuration:
L1I_SET:64
L1I_WAY:8
L1I_RQ_SIZE:64
L1I_WQ_SIZE:64
L1I_PQ_SIZE:8
L1I_MSHR_SIZE:8

L1D Configuration:
L1D_SET:64
L1D_WAY:12
L1D_RQ_SIZE:64
L1D_WQ_SIZE:64
L1D_PQ_SIZE:8
L1D_MSHR_SIZE:16

L2C Configuration:
L2C_SET:1024
L2C_WAY:8
L2C_RQ_SIZE:32
L2C_WQ_SIZE:32
L2C_PQ_SIZE:16
L2C_MSHR_SIZE:32

LLC Configuration:
LLC_SET:2048
LLC_WAY:16
LLC SLICES:8
LLC_RQ_SIZE:64
LLC_WQ_SIZE:64
LLC_PQ_SIZE:32
LLC_MSHR_SIZE:64

Interconnect OFF
Attacker deprioritize is: OFF
Off-chip DRAM Size: 4096 MB Channels: 1 Width: 64-bit Data Rate: 3200 MT/s
PAGE SIZE in KB: 4.000000 
PAGE SIZE in MB: 0.003906 
PAGE offset in bits: 12 
CEASER-S_LLC:0
MIRAGE : 0
CEASER_LATENCY:3
REMAP : OFF
Partitions : 1
Multi-Step : OFF
BFS : OFF

CPU 0 runs /home/anubhav/spec_2017/605.mcf_s-665B.champsimtrace.xz
CPU 0 Bimodal branch predictor
Initialize Hawkeye state
Initialize Hawkeye state
Initialize Hawkeye state
Initialize Hawkeye state
Initialize Hawkeye state
Initialize Hawkeye state
Initialize Hawkeye state
Initialize Hawkeye state
Heartbeat CPU 0 instructions: 10000001 cycles: 11675406 heartbeat IPC: 0.856501 cumulative IPC: 0.856501 (Simulation time: 0 hr 1 min 1 sec) 
 Total Blocks : 262144 Invalid Blocks : 148625
Heartbeat CPU 0 instructions: 20000001 cycles: 23313070 heartbeat IPC: 0.859279 cumulative IPC: 0.857888 (Simulation time: 0 hr 2 min 36 sec) 
 Total Blocks : 262144 Invalid Blocks : 102314
Heartbeat CPU 0 instructions: 30000001 cycles: 34935997 heartbeat IPC: 0.860368 cumulative IPC: 0.858713 (Simulation time: 0 hr 4 min 28 sec) 
 Total Blocks : 262144 Invalid Blocks : 76350
Heartbeat CPU 0 instructions: 40000000 cycles: 46624312 heartbeat IPC: 0.855555 cumulative IPC: 0.857921 (Simulation time: 0 hr 6 min 20 sec) 
 Total Blocks : 262144 Invalid Blocks : 59278
Heartbeat CPU 0 instructions: 50000003 cycles: 58356632 heartbeat IPC: 0.852347 cumulative IPC: 0.856801 (Simulation time: 0 hr 8 min 12 sec) 
 Total Blocks : 262144 Invalid Blocks : 48508
Heartbeat CPU 0 instructions: 60000002 cycles: 70055516 heartbeat IPC: 0.854782 cumulative IPC: 0.856464 (Simulation time: 0 hr 10 min 6 sec) 
 Total Blocks : 262144 Invalid Blocks : 40671
Heartbeat CPU 0 instructions: 70000002 cycles: 81859256 heartbeat IPC: 0.847189 cumulative IPC: 0.855126 (Simulation time: 0 hr 12 min 2 sec) 
 Total Blocks : 262144 Invalid Blocks : 35387
Heartbeat CPU 0 instructions: 80000001 cycles: 93575489 heartbeat IPC: 0.853517 cumulative IPC: 0.854925 (Simulation time: 0 hr 14 min 0 sec) 
 Total Blocks : 262144 Invalid Blocks : 31226
Heartbeat CPU 0 instructions: 90000001 cycles: 105342154 heartbeat IPC: 0.849858 cumulative IPC: 0.854359 (Simulation time: 0 hr 15 min 59 sec) 
 Total Blocks : 262144 Invalid Blocks : 27911
Heartbeat CPU 0 instructions: 100000001 cycles: 117296978 heartbeat IPC: 0.836482 cumulative IPC: 0.852537 (Simulation time: 0 hr 17 min 58 sec) 
 Total Blocks : 262144 Invalid Blocks : 26067
Heartbeat CPU 0 instructions: 110000000 cycles: 129176721 heartbeat IPC: 0.841769 cumulative IPC: 0.851547 (Simulation time: 0 hr 19 min 55 sec) 
 Total Blocks : 262144 Invalid Blocks : 24385
Heartbeat CPU 0 instructions: 120000000 cycles: 141111325 heartbeat IPC: 0.8379 cumulative IPC: 0.850392 (Simulation time: 0 hr 21 min 56 sec) 
 Total Blocks : 262144 Invalid Blocks : 23019
Heartbeat CPU 0 instructions: 130000001 cycles: 153016933 heartbeat IPC: 0.83994 cumulative IPC: 0.849579 (Simulation time: 0 hr 23 min 54 sec) 
 Total Blocks : 262144 Invalid Blocks : 21831
Heartbeat CPU 0 instructions: 140000001 cycles: 165008813 heartbeat IPC: 0.833898 cumulative IPC: 0.84844 (Simulation time: 0 hr 25 min 52 sec) 
 Total Blocks : 262144 Invalid Blocks : 20725
Heartbeat CPU 0 instructions: 150000000 cycles: 177020825 heartbeat IPC: 0.8325 cumulative IPC: 0.847358 (Simulation time: 0 hr 27 min 53 sec) 
 Total Blocks : 262144 Invalid Blocks : 19739
Heartbeat CPU 0 instructions: 160000000 cycles: 188977392 heartbeat IPC: 0.83636 cumulative IPC: 0.846662 (Simulation time: 0 hr 29 min 54 sec) 
 Total Blocks : 262144 Invalid Blocks : 18881
Heartbeat CPU 0 instructions: 170000003 cycles: 201038838 heartbeat IPC: 0.829088 cumulative IPC: 0.845608 (Simulation time: 0 hr 31 min 56 sec) 
 Total Blocks : 262144 Invalid Blocks : 18071
Heartbeat CPU 0 instructions: 180000002 cycles: 213131164 heartbeat IPC: 0.826971 cumulative IPC: 0.84455 (Simulation time: 0 hr 33 min 57 sec) 
 Total Blocks : 262144 Invalid Blocks : 17364
Heartbeat CPU 0 instructions: 190000001 cycles: 225089180 heartbeat IPC: 0.836259 cumulative IPC: 0.84411 (Simulation time: 0 hr 36 min 0 sec) 
 Total Blocks : 262144 Invalid Blocks : 16704
Heartbeat CPU 0 instructions: 200000000 cycles: 237035891 heartbeat IPC: 0.83705 cumulative IPC: 0.843754 (Simulation time: 0 hr 38 min 2 sec) 
 Total Blocks : 262144 Invalid Blocks : 16142

Warmup complete CPU 0 instructions: 200000003 cycles: 237035892 (Simulation time: 0 hr 38 min 2 sec) 

Heartbeat CPU 0 instructions: 210000002 cycles: 270703842 heartbeat IPC: 0.297018 cumulative IPC: 0.297018 (Simulation time: 0 hr 42 min 25 sec) 
 Total Blocks : 262144 Invalid Blocks : 15633
Heartbeat CPU 0 instructions: 220000000 cycles: 304101272 heartbeat IPC: 0.299424 cumulative IPC: 0.298216 (Simulation time: 0 hr 46 min 45 sec) 
 Total Blocks : 262144 Invalid Blocks : 15145
Heartbeat CPU 0 instructions: 230000002 cycles: 337931238 heartbeat IPC: 0.295596 cumulative IPC: 0.297338 (Simulation time: 0 hr 51 min 8 sec) 
 Total Blocks : 262144 Invalid Blocks : 14590
Heartbeat CPU 0 instructions: 240000002 cycles: 371441682 heartbeat IPC: 0.298414 cumulative IPC: 0.297606 (Simulation time: 0 hr 55 min 29 sec) 
 Total Blocks : 262144 Invalid Blocks : 14263
Heartbeat CPU 0 instructions: 250000001 cycles: 405033827 heartbeat IPC: 0.297689 cumulative IPC: 0.297623 (Simulation time: 0 hr 59 min 41 sec) 
 Total Blocks : 262144 Invalid Blocks : 13910
Heartbeat CPU 0 instructions: 260000003 cycles: 438754665 heartbeat IPC: 0.296553 cumulative IPC: 0.297444 (Simulation time: 1 hr 3 min 52 sec) 
 Total Blocks : 262144 Invalid Blocks : 13622
Heartbeat CPU 0 instructions: 270000003 cycles: 472431906 heartbeat IPC: 0.296936 cumulative IPC: 0.297371 (Simulation time: 1 hr 8 min 8 sec) 
 Total Blocks : 262144 Invalid Blocks : 13341
Heartbeat CPU 0 instructions: 280000000 cycles: 506194426 heartbeat IPC: 0.296186 cumulative IPC: 0.297223 (Simulation time: 1 hr 12 min 14 sec) 
 Total Blocks : 262144 Invalid Blocks : 13061
Heartbeat CPU 0 instructions: 290000001 cycles: 539911923 heartbeat IPC: 0.296582 cumulative IPC: 0.297151 (Simulation time: 1 hr 15 min 43 sec) 
 Total Blocks : 262144 Invalid Blocks : 12827
Heartbeat CPU 0 instructions: 300000000 cycles: 573427785 heartbeat IPC: 0.298366 cumulative IPC: 0.297272 (Simulation time: 1 hr 18 min 42 sec) 
 Total Blocks : 262144 Invalid Blocks : 12538
Heartbeat CPU 0 instructions: 310000001 cycles: 606257460 heartbeat IPC: 0.304603 cumulative IPC: 0.297924 (Simulation time: 1 hr 22 min 30 sec) 
 Total Blocks : 262144 Invalid Blocks : 12347
Heartbeat CPU 0 instructions: 320000000 cycles: 639479173 heartbeat IPC: 0.301008 cumulative IPC: 0.298179 (Simulation time: 1 hr 26 min 20 sec) 
 Total Blocks : 262144 Invalid Blocks : 12126
Heartbeat CPU 0 instructions: 330000000 cycles: 672441596 heartbeat IPC: 0.303376 cumulative IPC: 0.298572 (Simulation time: 1 hr 29 min 35 sec) 
 Total Blocks : 262144 Invalid Blocks : 11932
Heartbeat CPU 0 instructions: 340000002 cycles: 705283145 heartbeat IPC: 0.304492 cumulative IPC: 0.298987 (Simulation time: 1 hr 32 min 10 sec) 
 Total Blocks : 262144 Invalid Blocks : 11776
Heartbeat CPU 0 instructions: 350000002 cycles: 738212913 heartbeat IPC: 0.303677 cumulative IPC: 0.299295 (Simulation time: 1 hr 34 min 45 sec) 
 Total Blocks : 262144 Invalid Blocks : 11584
Heartbeat CPU 0 instructions: 360000003 cycles: 771125690 heartbeat IPC: 0.303833 cumulative IPC: 0.299575 (Simulation time: 1 hr 37 min 18 sec) 
 Total Blocks : 262144 Invalid Blocks : 11434
Heartbeat CPU 0 instructions: 370000001 cycles: 804053334 heartbeat IPC: 0.303696 cumulative IPC: 0.299814 (Simulation time: 1 hr 39 min 51 sec) 
 Total Blocks : 262144 Invalid Blocks : 11273
Heartbeat CPU 0 instructions: 380000000 cycles: 837103174 heartbeat IPC: 0.302573 cumulative IPC: 0.299966 (Simulation time: 1 hr 42 min 25 sec) 
 Total Blocks : 262144 Invalid Blocks : 11139
Heartbeat CPU 0 instructions: 390000002 cycles: 870009338 heartbeat IPC: 0.303894 cumulative IPC: 0.300171 (Simulation time: 1 hr 44 min 57 sec) 
 Total Blocks : 262144 Invalid Blocks : 11019
Heartbeat CPU 0 instructions: 400000003 cycles: 902905878 heartbeat IPC: 0.303983 cumulative IPC: 0.300359 (Simulation time: 1 hr 47 min 29 sec) 
 Total Blocks : 262144 Invalid Blocks : 10885
Finished CPU 0 instructions: 200000000 cycles: 665869986 cumulative IPC: 0.300359 (Simulation time: 1 hr 47 min 29 sec) 

CPU 0 Branch Prediction Accuracy: 85.1426% MPKI: 28.3064 Average ROB Occupancy at Mispredict: 34.7422

ChampSim completed all CPUs

Region of Interest Statistics

CPU 0 cumulative IPC: 0.300359 instructions: 200000000 cycles: 665869986
ITLB TOTAL     ACCESS: 31843384  HIT: 31843384  MISS:     0  HIT %:   100  MISS %:     0  AVERAGE MISS PENALTY: 0
ITLB LOAD      ACCESS: 31843384  HIT: 31843384  MISS:     0  HIT %:   100  MISS %:     0  AVERAGE MISS PENALTY: 0
ITLB RFO       ACCESS:     0  HIT:     0  MISS:     0  HIT %:     0  MISS %:     0  AVERAGE MISS PENALTY: 0
ITLB PREFETCH  ACCESS:     0  HIT:     0  MISS:     0  HIT %:     0  MISS %:     0  AVERAGE MISS PENALTY: 0
ITLB WRITEBACK ACCESS:     0  HIT:     0  MISS:     0  HIT %:     0  MISS %:     0  AVERAGE MISS PENALTY: 0
ITLB PREFETCH  REQUESTED:     0  ISSUED:     0  USEFUL:     0  USELESS:     0
 USEFUL LOAD PREFETCHES:          0 PREFETCH ISSUED TO LOWER LEVEL:          0  ACCURACY: -nan
 TIMELY PREFETCHES:          0 LATE PREFETCHES: 0 DROPPED PREFETCHES: 0
ITLB AVERAGE MISS LATENCY: -nan cycles
DTLB TOTAL     ACCESS: 60463749  HIT: 57765835  MISS: 2697914  HIT %: 95.538  MISS %: 4.46204  AVERAGE MISS PENALTY: 10.6544
DTLB LOAD      ACCESS: 46176350  HIT: 43868685  MISS: 2307665  HIT %: 95.0025  MISS %: 4.9975  AVERAGE MISS PENALTY: 10.8438
DTLB RFO       ACCESS: 14287399  HIT: 13897150  MISS: 390249  HIT %: 97.2686  MISS %: 2.73142  AVERAGE MISS PENALTY: 9.53418
DTLB PREFETCH  ACCESS:     0  HIT:     0  MISS:     0  HIT %:     0  MISS %:     0  AVERAGE MISS PENALTY: 0
DTLB WRITEBACK ACCESS:     0  HIT:     0  MISS:     0  HIT %:     0  MISS %:     0  AVERAGE MISS PENALTY: 0
DTLB PREFETCH  REQUESTED:     0  ISSUED:     0  USEFUL:     0  USELESS:     0
 USEFUL LOAD PREFETCHES:          0 PREFETCH ISSUED TO LOWER LEVEL:          0  ACCURACY: -nan
 TIMELY PREFETCHES:          0 LATE PREFETCHES: 0 DROPPED PREFETCHES: 0
DTLB AVERAGE MISS LATENCY: 10.6544 cycles
STLB TOTAL     ACCESS: 2697914  HIT: 2663566  MISS: 34348  HIT %: 98.7269  MISS %: 1.27313  AVERAGE MISS PENALTY: 100
STLB LOAD      ACCESS: 2307665  HIT: 2273827  MISS: 33838  HIT %: 98.5337  MISS %: 1.46633  AVERAGE MISS PENALTY: 100
STLB RFO       ACCESS: 390249  HIT: 389739  MISS:   510  HIT %: 99.8693  MISS %: 0.130686  AVERAGE MISS PENALTY: 100
STLB PREFETCH  ACCESS:     0  HIT:     0  MISS:     0  HIT %:     0  MISS %:     0  AVERAGE MISS PENALTY: 0
STLB WRITEBACK ACCESS:     0  HIT:     0  MISS:     0  HIT %:     0  MISS %:     0  AVERAGE MISS PENALTY: 0
STLB PREFETCH  REQUESTED:     0  ISSUED:     0  USEFUL:     0  USELESS:     0
 USEFUL LOAD PREFETCHES:          0 PREFETCH ISSUED TO LOWER LEVEL:          0  ACCURACY: -nan
 TIMELY PREFETCHES:          0 LATE PREFETCHES: 0 DROPPED PREFETCHES: 0
STLB AVERAGE MISS LATENCY: 100 cycles
L1D TOTAL     ACCESS: 105282794  HIT: 94563846  MISS: 10718948  HIT %: 89.8189  MISS %: 10.1811  AVERAGE MISS PENALTY: 2.02356e+06
L1D LOAD      ACCESS: 57148393  HIT: 52152094  MISS: 4996299  HIT %: 91.2573  MISS %: 8.74268  AVERAGE MISS PENALTY: 4.22908e+06
L1D RFO       ACCESS: 22762629  HIT: 22022983  MISS: 739646  HIT %: 96.7506  MISS %: 3.24939  AVERAGE MISS PENALTY: 757821
L1D PREFETCH  ACCESS: 25371772  HIT: 20388769  MISS: 4983003  HIT %: 80.3601  MISS %: 19.6399  AVERAGE MISS PENALTY: 32.0616
L1D WRITEBACK ACCESS:     0  HIT:     0  MISS:     0  HIT %:     0  MISS %:     0  AVERAGE MISS PENALTY: 0
L1D PREFETCH  REQUESTED: 28445294  ISSUED: 27926188  USEFUL: 1786270  USELESS: 3196617
 USEFUL LOAD PREFETCHES:    1786270 PREFETCH ISSUED TO LOWER LEVEL:    5550924  ACCURACY: 32.1797
 TIMELY PREFETCHES:    1786270 LATE PREFETCHES: 163939 DROPPED PREFETCHES: 519106
L1D AVERAGE MISS LATENCY: 52323.9 cycles
L1I TOTAL     ACCESS: 42721206  HIT: 42721206  MISS:     0  HIT %:   100  MISS %:     0  AVERAGE MISS PENALTY: 0
L1I LOAD      ACCESS: 42721206  HIT: 42721206  MISS:     0  HIT %:   100  MISS %:     0  AVERAGE MISS PENALTY: 0
L1I RFO       ACCESS:     0  HIT:     0  MISS:     0  HIT %:     0  MISS %:     0  AVERAGE MISS PENALTY: 0
L1I PREFETCH  ACCESS:     0  HIT:     0  MISS:     0  HIT %:     0  MISS %:     0  AVERAGE MISS PENALTY: 0
L1I WRITEBACK ACCESS:     0  HIT:     0  MISS:     0  HIT %:     0  MISS %:     0  AVERAGE MISS PENALTY: 0
L1I PREFETCH  REQUESTED:     0  ISSUED:     0  USEFUL:     0  USELESS:     0
 USEFUL LOAD PREFETCHES:          0 PREFETCH ISSUED TO LOWER LEVEL:          0  ACCURACY: -nan
 TIMELY PREFETCHES:          0 LATE PREFETCHES: 0 DROPPED PREFETCHES: 0
L1I AVERAGE MISS LATENCY: -nan cycles
L2C TOTAL     ACCESS: 16751825  HIT: 11627140  MISS: 5124685  HIT %: 69.4082  MISS %: 30.5918  AVERAGE MISS PENALTY: 817330
L2C LOAD      ACCESS: 4985012  HIT: 2612822  MISS: 2372190  HIT %: 52.4136  MISS %: 47.5864  AVERAGE MISS PENALTY: 1.76092e+06
L2C RFO       ACCESS: 738611  HIT: 394285  MISS: 344326  HIT %: 53.382  MISS %: 46.618  AVERAGE MISS PENALTY: 32223.5
L2C PREFETCH  ACCESS: 9838406  HIT: 7430768  MISS: 2407638  HIT %: 75.5282  MISS %: 24.4718  AVERAGE MISS PENALTY: 90.45
L2C WRITEBACK ACCESS: 1189796  HIT: 1189265  MISS:   531  HIT %: 99.9554  MISS %: 0.0446295  AVERAGE MISS PENALTY: 0
L2C PREFETCH  REQUESTED: 8721455  ISSUED: 8656867  USEFUL: 418925  USELESS: 1989060
 USEFUL LOAD PREFETCHES:     418925 PREFETCH ISSUED TO LOWER LEVEL:    2601287  ACCURACY: 16.1045
 TIMELY PREFETCHES:     418925 LATE PREFETCHES: 46052 DROPPED PREFETCHES: 64588
L2C AVERAGE MISS LATENCY: 64.6942 cycles
LLC0 TOTAL     ACCESS: 702614  HIT: 526678  MISS: 175936  HIT %: 74.9598  MISS %: 25.0402  AVERAGE MISS PENALTY: 115.207
LLC0 LOAD      ACCESS: 311398  HIT: 281450  MISS: 29948  HIT %: 90.3827  MISS %: 9.61727  AVERAGE MISS PENALTY: 137.294
LLC0 RFO       ACCESS: 43478  HIT: 43419  MISS:    59  HIT %: 99.8643  MISS %: 0.135701  AVERAGE MISS PENALTY: 172.186
LLC0 PREFETCH  ACCESS: 275086  HIT: 129240  MISS: 145846  HIT %: 46.9817  MISS %: 53.0183  AVERAGE MISS PENALTY: 110.714
LLC0 WRITEBACK ACCESS: 72652  HIT: 72569  MISS:    83  HIT %: 99.8858  MISS %: 0.114243  AVERAGE MISS PENALTY: 0
LLC0 PREFETCH  REQUESTED:     0  ISSUED:     0  USEFUL: 18884  USELESS: 126353
 USEFUL LOAD PREFETCHES:      18884 PREFETCH ISSUED TO LOWER LEVEL:     145846  ACCURACY: 12.9479
 TIMELY PREFETCHES:      18884 LATE PREFETCHES: 0 DROPPED PREFETCHES: 0
LLC0 AVERAGE MISS LATENCY: 115.207 cycles
Deadblocks : 23809 Deadblock percentage : 79.5011

LLC1 TOTAL     ACCESS: 710740  HIT: 535641  MISS: 175099  HIT %: 75.3638  MISS %: 24.6362  AVERAGE MISS PENALTY: 114.963
LLC1 LOAD      ACCESS: 303435  HIT: 282164  MISS: 21271  HIT %: 92.9899  MISS %: 7.01007  AVERAGE MISS PENALTY: 149.639
LLC1 RFO       ACCESS: 39638  HIT: 39590  MISS:    48  HIT %: 99.8789  MISS %: 0.121096  AVERAGE MISS PENALTY: 169.979
LLC1 PREFETCH  ACCESS: 296347  HIT: 142633  MISS: 153714  HIT %: 48.1304  MISS %: 51.8696  AVERAGE MISS PENALTY: 110.197
LLC1 WRITEBACK ACCESS: 71320  HIT: 71254  MISS:    66  HIT %: 99.9075  MISS %: 0.0925407  AVERAGE MISS PENALTY: 0
LLC1 PREFETCH  REQUESTED:     0  ISSUED:     0  USEFUL: 21791  USELESS: 132442
 USEFUL LOAD PREFETCHES:      21791 PREFETCH ISSUED TO LOWER LEVEL:     153714  ACCURACY: 14.1763
 TIMELY PREFETCHES:      21791 LATE PREFETCHES: 0 DROPPED PREFETCHES: 0
LLC1 AVERAGE MISS LATENCY: 114.963 cycles
LLC2 TOTAL     ACCESS: 708114  HIT: 534203  MISS: 173911  HIT %: 75.4403  MISS %: 24.5597  AVERAGE MISS PENALTY: 114.41
LLC2 LOAD      ACCESS: 293277  HIT: 277154  MISS: 16123  HIT %: 94.5025  MISS %: 5.49753  AVERAGE MISS PENALTY: 159.977
LLC2 RFO       ACCESS: 41919  HIT: 41853  MISS:    66  HIT %: 99.8426  MISS %: 0.157447  AVERAGE MISS PENALTY: 178.818
LLC2 PREFETCH  ACCESS: 303299  HIT: 145627  MISS: 157672  HIT %: 48.0143  MISS %: 51.9857  AVERAGE MISS PENALTY: 109.76
LLC2 WRITEBACK ACCESS: 69619  HIT: 69569  MISS:    50  HIT %: 99.9282  MISS %: 0.0718195  AVERAGE MISS PENALTY: 0
LLC2 PREFETCH  REQUESTED:     0  ISSUED:     0  USEFUL: 20618  USELESS: 137059
 USEFUL LOAD PREFETCHES:      20618 PREFETCH ISSUED TO LOWER LEVEL:     157672  ACCURACY: 13.0765
 TIMELY PREFETCHES:      20618 LATE PREFETCHES: 0 DROPPED PREFETCHES: 0
LLC2 AVERAGE MISS LATENCY: 114.41 cycles
LLC3 TOTAL     ACCESS: 717112  HIT: 544127  MISS: 172985  HIT %: 75.8775  MISS %: 24.1225  AVERAGE MISS PENALTY: 110.787
LLC3 LOAD      ACCESS: 293716  HIT: 280549  MISS: 13167  HIT %: 95.5171  MISS %: 4.4829  AVERAGE MISS PENALTY: 168.804
LLC3 RFO       ACCESS: 42177  HIT: 42120  MISS:    57  HIT %: 99.8649  MISS %: 0.135145  AVERAGE MISS PENALTY: 174.596
LLC3 PREFETCH  ACCESS: 306100  HIT: 146392  MISS: 159708  HIT %: 47.8249  MISS %: 52.1751  AVERAGE MISS PENALTY: 106.018
LLC3 WRITEBACK ACCESS: 75119  HIT: 75066  MISS:    53  HIT %: 99.9294  MISS %: 0.0705547  AVERAGE MISS PENALTY: 0
LLC3 PREFETCH  REQUESTED:     0  ISSUED:     0  USEFUL: 21113  USELESS: 138270
 USEFUL LOAD PREFETCHES:      21113 PREFETCH ISSUED TO LOWER LEVEL:     159708  ACCURACY: 13.2198
 TIMELY PREFETCHES:      21113 LATE PREFETCHES: 0 DROPPED PREFETCHES: 0
LLC3 AVERAGE MISS LATENCY: 110.787 cycles
LLC4 TOTAL     ACCESS: 719865  HIT: 547469  MISS: 172396  HIT %: 76.0516  MISS %: 23.9484  AVERAGE MISS PENALTY: 109.074
LLC4 LOAD      ACCESS: 294375  HIT: 283099  MISS: 11276  HIT %: 96.1695  MISS %: 3.83049  AVERAGE MISS PENALTY: 177.473
LLC4 RFO       ACCESS: 45366  HIT: 45307  MISS:    59  HIT %: 99.8699  MISS %: 0.130053  AVERAGE MISS PENALTY: 176.475
LLC4 PREFETCH  ACCESS: 302997  HIT: 142014  MISS: 160983  HIT %: 46.8698  MISS %: 53.1302  AVERAGE MISS PENALTY: 104.311
LLC4 WRITEBACK ACCESS: 77127  HIT: 77049  MISS:    78  HIT %: 99.8989  MISS %: 0.101132  AVERAGE MISS PENALTY: 0
LLC4 PREFETCH  REQUESTED:     0  ISSUED:     0  USEFUL: 21036  USELESS: 139450
 USEFUL LOAD PREFETCHES:      21036 PREFETCH ISSUED TO LOWER LEVEL:     160983  ACCURACY: 13.0672
 TIMELY PREFETCHES:      21036 LATE PREFETCHES: 0 DROPPED PREFETCHES: 0
LLC4 AVERAGE MISS LATENCY: 109.074 cycles
LLC5 TOTAL     ACCESS: 717238  HIT: 543840  MISS: 173398  HIT %: 75.8242  MISS %: 24.1758  AVERAGE MISS PENALTY: 109.087
LLC5 LOAD      ACCESS: 287566  HIT: 276747  MISS: 10819  HIT %: 96.2377  MISS %: 3.76227  AVERAGE MISS PENALTY: 183.768
LLC5 RFO       ACCESS: 44503  HIT: 44433  MISS:    70  HIT %: 99.8427  MISS %: 0.157293  AVERAGE MISS PENALTY: 177.157
LLC5 PREFETCH  ACCESS: 307241  HIT: 144862  MISS: 162379  HIT %: 47.1493  MISS %: 52.8507  AVERAGE MISS PENALTY: 104.169
LLC5 WRITEBACK ACCESS: 77928  HIT: 77798  MISS:   130  HIT %: 99.8332  MISS %: 0.166821  AVERAGE MISS PENALTY: 0
LLC5 PREFETCH  REQUESTED:     0  ISSUED:     0  USEFUL: 22507  USELESS: 139241
 USEFUL LOAD PREFETCHES:      22507 PREFETCH ISSUED TO LOWER LEVEL:     162379  ACCURACY: 13.8608
 TIMELY PREFETCHES:      22507 LATE PREFETCHES: 0 DROPPED PREFETCHES: 0
LLC5 AVERAGE MISS LATENCY: 109.087 cycles
LLC6 TOTAL     ACCESS: 719878  HIT: 545498  MISS: 174380  HIT %: 75.7765  MISS %: 24.2235  AVERAGE MISS PENALTY: 110.415
LLC6 LOAD      ACCESS: 292132  HIT: 281035  MISS: 11097  HIT %: 96.2014  MISS %: 3.79863  AVERAGE MISS PENALTY: 185.822
LLC6 RFO       ACCESS: 43903  HIT: 43826  MISS:    77  HIT %: 99.8246  MISS %: 0.175387  AVERAGE MISS PENALTY: 175.532
LLC6 PREFETCH  ACCESS: 309114  HIT: 146051  MISS: 163063  HIT %: 47.2483  MISS %: 52.7517  AVERAGE MISS PENALTY: 105.35
LLC6 WRITEBACK ACCESS: 74729  HIT: 74586  MISS:   143  HIT %: 99.8086  MISS %: 0.191358  AVERAGE MISS PENALTY: 0
LLC6 PREFETCH  REQUESTED:     0  ISSUED:     0  USEFUL: 21927  USELESS: 140737
 USEFUL LOAD PREFETCHES:      21927 PREFETCH ISSUED TO LOWER LEVEL:     163063  ACCURACY: 13.4469
 TIMELY PREFETCHES:      21927 LATE PREFETCHES: 0 DROPPED PREFETCHES: 0
LLC6 AVERAGE MISS LATENCY: 110.415 cycles
LLC7 TOTAL     ACCESS: 720646  HIT: 544580  MISS: 176066  HIT %: 75.5683  MISS %: 24.4317  AVERAGE MISS PENALTY: 111.837
LLC7 LOAD      ACCESS: 290198  HIT: 278828  MISS: 11370  HIT %: 96.082  MISS %: 3.91801  AVERAGE MISS PENALTY: 187.917
LLC7 RFO       ACCESS: 43312  HIT: 43213  MISS:    99  HIT %: 99.7714  MISS %: 0.228574  AVERAGE MISS PENALTY: 179.313
LLC7 PREFETCH  ACCESS: 313540  HIT: 149181  MISS: 164359  HIT %: 47.5796  MISS %: 52.4204  AVERAGE MISS PENALTY: 106.696
LLC7 WRITEBACK ACCESS: 73596  HIT: 73358  MISS:   238  HIT %: 99.6766  MISS %: 0.323387  AVERAGE MISS PENALTY: 0
LLC7 PREFETCH  REQUESTED:     0  ISSUED:     0  USEFUL: 22320  USELESS: 141253
 USEFUL LOAD PREFETCHES:      22320 PREFETCH ISSUED TO LOWER LEVEL:     164359  ACCURACY: 13.58
 TIMELY PREFETCHES:      22320 LATE PREFETCHES: 0 DROPPED PREFETCHES: 0
LLC7 AVERAGE MISS LATENCY: 111.837 cycles
ROI Average ROB Stall Cycles:	8.05319
ROI Total ROB Stalls Cycles:	537457941
ROI TOTAL ROB counter      :	66738477
ROI Average Load ROB Stall Cycles:	8.43285
ROI Total Load ROB Stalls Cycle  :	158629644
ROI Total Load ROB stalls Counter:	18810924
Major fault: 0 Minor fault: 44570

