
*** ChampSim Multicore Out-of-Order Simulator ***

Warmup Instructions: 200000000
Simulation Instructions: 200000000
Number of CPUs: 1
threads:1

L1I Configuration:
L1I_SET:64
L1I_WAY:8
L1I_RQ_SIZE:64
L1I_WQ_SIZE:64
L1I_PQ_SIZE:8
L1I_MSHR_SIZE:8

L1D Configuration:
L1D_SET:64
L1D_WAY:12
L1D_RQ_SIZE:64
L1D_WQ_SIZE:64
L1D_PQ_SIZE:8
L1D_MSHR_SIZE:16

L2C Configuration:
L2C_SET:1024
L2C_WAY:8
L2C_RQ_SIZE:32
L2C_WQ_SIZE:32
L2C_PQ_SIZE:16
L2C_MSHR_SIZE:32

LLC Configuration:
LLC_SET:2048
LLC_WAY:16
LLC SLICES:8
LLC_RQ_SIZE:64
LLC_WQ_SIZE:64
LLC_PQ_SIZE:32
LLC_MSHR_SIZE:64

Interconnect OFF
Attacker deprioritize is: OFF
Off-chip DRAM Size: 4096 MB Channels: 1 Width: 64-bit Data Rate: 3200 MT/s
PAGE SIZE in KB: 4.000000 
PAGE SIZE in MB: 0.003906 
PAGE offset in bits: 12 
CEASER-S_LLC:0
MIRAGE : 0
CEASER_LATENCY:3
REMAP : OFF
Partitions : 1
Multi-Step : OFF
BFS : OFF

CPU 0 runs /home/anubhav/spec_2017/605.mcf_s-782B.champsimtrace.xz
CPU 0 Bimodal branch predictor
Initialize Hawkeye state
Initialize Hawkeye state
Initialize Hawkeye state
Initialize Hawkeye state
Initialize Hawkeye state
Initialize Hawkeye state
Initialize Hawkeye state
Initialize Hawkeye state
Heartbeat CPU 0 instructions: 10000000 cycles: 8720500 heartbeat IPC: 1.14672 cumulative IPC: 1.14672 (Simulation time: 0 hr 1 min 32 sec) 
 Total Blocks : 262144 Invalid Blocks : 37408
Heartbeat CPU 0 instructions: 20000003 cycles: 17035417 heartbeat IPC: 1.20266 cumulative IPC: 1.17402 (Simulation time: 0 hr 4 min 54 sec) 
 Total Blocks : 262144 Invalid Blocks : 17535
Heartbeat CPU 0 instructions: 30000000 cycles: 25741504 heartbeat IPC: 1.14862 cumulative IPC: 1.16543 (Simulation time: 0 hr 8 min 58 sec) 
 Total Blocks : 262144 Invalid Blocks : 12073
Heartbeat CPU 0 instructions: 40000001 cycles: 34286416 heartbeat IPC: 1.17029 cumulative IPC: 1.16664 (Simulation time: 0 hr 13 min 48 sec) 
 Total Blocks : 262144 Invalid Blocks : 9510
Heartbeat CPU 0 instructions: 50000000 cycles: 42930891 heartbeat IPC: 1.15681 cumulative IPC: 1.16466 (Simulation time: 0 hr 19 min 46 sec) 
 Total Blocks : 262144 Invalid Blocks : 7972
Heartbeat CPU 0 instructions: 60000002 cycles: 51265389 heartbeat IPC: 1.19983 cumulative IPC: 1.17038 (Simulation time: 0 hr 26 min 41 sec) 
 Total Blocks : 262144 Invalid Blocks : 7006
Heartbeat CPU 0 instructions: 70000001 cycles: 59619110 heartbeat IPC: 1.19707 cumulative IPC: 1.17412 (Simulation time: 0 hr 33 min 50 sec) 
 Total Blocks : 262144 Invalid Blocks : 6143
Heartbeat CPU 0 instructions: 80000001 cycles: 68058947 heartbeat IPC: 1.18486 cumulative IPC: 1.17545 (Simulation time: 0 hr 41 min 33 sec) 
 Total Blocks : 262144 Invalid Blocks : 5488
Heartbeat CPU 0 instructions: 90000002 cycles: 76818983 heartbeat IPC: 1.14155 cumulative IPC: 1.17159 (Simulation time: 0 hr 50 min 32 sec) 
 Total Blocks : 262144 Invalid Blocks : 4873
Heartbeat CPU 0 instructions: 100000000 cycles: 85744800 heartbeat IPC: 1.12035 cumulative IPC: 1.16625 (Simulation time: 1 hr 0 min 19 sec) 
 Total Blocks : 262144 Invalid Blocks : 4379
Heartbeat CPU 0 instructions: 110000000 cycles: 94855503 heartbeat IPC: 1.09761 cumulative IPC: 1.15966 (Simulation time: 1 hr 10 min 27 sec) 
 Total Blocks : 262144 Invalid Blocks : 3992
Heartbeat CPU 0 instructions: 120000003 cycles: 103784973 heartbeat IPC: 1.11989 cumulative IPC: 1.15624 (Simulation time: 1 hr 20 min 8 sec) 
 Total Blocks : 262144 Invalid Blocks : 3639
Heartbeat CPU 0 instructions: 130000002 cycles: 112155003 heartbeat IPC: 1.19474 cumulative IPC: 1.15911 (Simulation time: 1 hr 32 min 43 sec) 
 Total Blocks : 262144 Invalid Blocks : 3355
Heartbeat CPU 0 instructions: 140000000 cycles: 120499405 heartbeat IPC: 1.19841 cumulative IPC: 1.16183 (Simulation time: 1 hr 43 min 7 sec) 
 Total Blocks : 262144 Invalid Blocks : 3129
Heartbeat CPU 0 instructions: 150000003 cycles: 128940030 heartbeat IPC: 1.18475 cumulative IPC: 1.16333 (Simulation time: 1 hr 53 min 26 sec) 
 Total Blocks : 262144 Invalid Blocks : 2951
Heartbeat CPU 0 instructions: 160000001 cycles: 137369412 heartbeat IPC: 1.18633 cumulative IPC: 1.16474 (Simulation time: 2 hr 4 min 47 sec) 
 Total Blocks : 262144 Invalid Blocks : 2656
Heartbeat CPU 0 instructions: 170000000 cycles: 145779894 heartbeat IPC: 1.18899 cumulative IPC: 1.16614 (Simulation time: 2 hr 16 min 49 sec) 
 Total Blocks : 262144 Invalid Blocks : 2473
Heartbeat CPU 0 instructions: 180000001 cycles: 154138640 heartbeat IPC: 1.19635 cumulative IPC: 1.16778 (Simulation time: 2 hr 28 min 55 sec) 
 Total Blocks : 262144 Invalid Blocks : 2311
Heartbeat CPU 0 instructions: 190000000 cycles: 162973585 heartbeat IPC: 1.13187 cumulative IPC: 1.16583 (Simulation time: 2 hr 41 min 25 sec) 
 Total Blocks : 262144 Invalid Blocks : 2167
Heartbeat CPU 0 instructions: 200000001 cycles: 171847506 heartbeat IPC: 1.1269 cumulative IPC: 1.16382 (Simulation time: 2 hr 53 min 55 sec) 
 Total Blocks : 262144 Invalid Blocks : 2012

Warmup complete CPU 0 instructions: 200000001 cycles: 171847506 (Simulation time: 2 hr 53 min 55 sec) 

Heartbeat CPU 0 instructions: 210000002 cycles: 212570425 heartbeat IPC: 0.245562 cumulative IPC: 0.245562 (Simulation time: 3 hr 8 min 25 sec) 
 Total Blocks : 262144 Invalid Blocks : 1803
Heartbeat CPU 0 instructions: 220000000 cycles: 252994730 heartbeat IPC: 0.247376 cumulative IPC: 0.246466 (Simulation time: 3 hr 23 min 12 sec) 
 Total Blocks : 262144 Invalid Blocks : 1630
Heartbeat CPU 0 instructions: 230000000 cycles: 293290975 heartbeat IPC: 0.248162 cumulative IPC: 0.247029 (Simulation time: 3 hr 38 min 36 sec) 
 Total Blocks : 262144 Invalid Blocks : 1519
Heartbeat CPU 0 instructions: 240000000 cycles: 333573972 heartbeat IPC: 0.248244 cumulative IPC: 0.247331 (Simulation time: 3 hr 54 min 2 sec) 
 Total Blocks : 262144 Invalid Blocks : 1418
Heartbeat CPU 0 instructions: 250000002 cycles: 373355850 heartbeat IPC: 0.251371 cumulative IPC: 0.248129 (Simulation time: 4 hr 9 min 42 sec) 
 Total Blocks : 262144 Invalid Blocks : 1335
Heartbeat CPU 0 instructions: 260000001 cycles: 412550225 heartbeat IPC: 0.255139 cumulative IPC: 0.24927 (Simulation time: 4 hr 25 min 35 sec) 
 Total Blocks : 262144 Invalid Blocks : 1249
Heartbeat CPU 0 instructions: 270000001 cycles: 450743219 heartbeat IPC: 0.261828 cumulative IPC: 0.25099 (Simulation time: 4 hr 41 min 57 sec) 
 Total Blocks : 262144 Invalid Blocks : 1136
Heartbeat CPU 0 instructions: 280000000 cycles: 490070677 heartbeat IPC: 0.254275 cumulative IPC: 0.251396 (Simulation time: 4 hr 58 min 0 sec) 
 Total Blocks : 262144 Invalid Blocks : 1066
Heartbeat CPU 0 instructions: 290000001 cycles: 528350009 heartbeat IPC: 0.261238 cumulative IPC: 0.252453 (Simulation time: 5 hr 15 min 11 sec) 
 Total Blocks : 262144 Invalid Blocks : 1001
Heartbeat CPU 0 instructions: 300000000 cycles: 567056248 heartbeat IPC: 0.258356 cumulative IPC: 0.253031 (Simulation time: 5 hr 32 min 0 sec) 
 Total Blocks : 262144 Invalid Blocks : 942
Heartbeat CPU 0 instructions: 310000001 cycles: 605380713 heartbeat IPC: 0.26093 cumulative IPC: 0.253729 (Simulation time: 5 hr 49 min 6 sec) 
 Total Blocks : 262144 Invalid Blocks : 878
