
*** ChampSim Multicore Out-of-Order Simulator ***

Warmup Instructions: 200000000
Simulation Instructions: 200000000
Number of CPUs: 1
threads:1

L1I Configuration:
L1I_SET:64
L1I_WAY:8
L1I_RQ_SIZE:64
L1I_WQ_SIZE:64
L1I_PQ_SIZE:8
L1I_MSHR_SIZE:8

L1D Configuration:
L1D_SET:64
L1D_WAY:12
L1D_RQ_SIZE:64
L1D_WQ_SIZE:64
L1D_PQ_SIZE:8
L1D_MSHR_SIZE:16

L2C Configuration:
L2C_SET:1024
L2C_WAY:8
L2C_RQ_SIZE:32
L2C_WQ_SIZE:32
L2C_PQ_SIZE:16
L2C_MSHR_SIZE:32

LLC Configuration:
LLC_SET:2048
LLC_WAY:16
LLC SLICES:8
LLC_RQ_SIZE:64
LLC_WQ_SIZE:64
LLC_PQ_SIZE:32
LLC_MSHR_SIZE:64

Interconnect OFF
Attacker deprioritize is: OFF
Off-chip DRAM Size: 4096 MB Channels: 1 Width: 64-bit Data Rate: 3200 MT/s
PAGE SIZE in KB: 4.000000 
PAGE SIZE in MB: 0.003906 
PAGE offset in bits: 12 
CEASER-S_LLC:0
MIRAGE : 0
CEASER_LATENCY:3
REMAP : OFF
Partitions : 1
Multi-Step : OFF
BFS : OFF

CPU 0 runs /home/anubhav/spec_2017/605.mcf_s-1644B.champsimtrace.xz
CPU 0 Bimodal branch predictor
Initialize Hawkeye state
Initialize Hawkeye state
Initialize Hawkeye state
Initialize Hawkeye state
Initialize Hawkeye state
Initialize Hawkeye state
Initialize Hawkeye state
Initialize Hawkeye state
Heartbeat CPU 0 instructions: 10000002 cycles: 10855267 heartbeat IPC: 0.921212 cumulative IPC: 0.921212 (Simulation time: 0 hr 56 min 12 sec) 
 Total Blocks : 262144 Invalid Blocks : 18381
Heartbeat CPU 0 instructions: 20000000 cycles: 21517671 heartbeat IPC: 0.937875 cumulative IPC: 0.929469 (Simulation time: 2 hr 1 min 38 sec) 
 Total Blocks : 262144 Invalid Blocks : 1622
Heartbeat CPU 0 instructions: 30000000 cycles: 32661784 heartbeat IPC: 0.897335 cumulative IPC: 0.918505 (Simulation time: 2 hr 51 min 31 sec) 
 Total Blocks : 262144 Invalid Blocks : 294
Heartbeat CPU 0 instructions: 40000000 cycles: 43701704 heartbeat IPC: 0.905804 cumulative IPC: 0.915296 (Simulation time: 3 hr 17 min 18 sec) 
 Total Blocks : 262144 Invalid Blocks : 93
Heartbeat CPU 0 instructions: 50000003 cycles: 54664293 heartbeat IPC: 0.912194 cumulative IPC: 0.914674 (Simulation time: 3 hr 37 min 3 sec) 
 Total Blocks : 262144 Invalid Blocks : 32
Heartbeat CPU 0 instructions: 60000000 cycles: 65610936 heartbeat IPC: 0.913522 cumulative IPC: 0.914482 (Simulation time: 3 hr 51 min 43 sec) 
 Total Blocks : 262144 Invalid Blocks : 16
Heartbeat CPU 0 instructions: 70000000 cycles: 76514677 heartbeat IPC: 0.917116 cumulative IPC: 0.914857 (Simulation time: 4 hr 4 min 25 sec) 
 Total Blocks : 262144 Invalid Blocks : 7
Heartbeat CPU 0 instructions: 80000000 cycles: 87425283 heartbeat IPC: 0.916539 cumulative IPC: 0.915067 (Simulation time: 4 hr 15 min 20 sec) 
 Total Blocks : 262144 Invalid Blocks : 6
Heartbeat CPU 0 instructions: 90000003 cycles: 98241369 heartbeat IPC: 0.924549 cumulative IPC: 0.916111 (Simulation time: 4 hr 25 min 40 sec) 
 Total Blocks : 262144 Invalid Blocks : 3
Heartbeat CPU 0 instructions: 100000000 cycles: 109125093 heartbeat IPC: 0.918803 cumulative IPC: 0.91638 (Simulation time: 4 hr 35 min 49 sec) 
 Total Blocks : 262144 Invalid Blocks : 3
Heartbeat CPU 0 instructions: 110000000 cycles: 120014773 heartbeat IPC: 0.918301 cumulative IPC: 0.916554 (Simulation time: 4 hr 46 min 20 sec) 
 Total Blocks : 262144 Invalid Blocks : 3
Heartbeat CPU 0 instructions: 120000000 cycles: 130940083 heartbeat IPC: 0.915306 cumulative IPC: 0.91645 (Simulation time: 4 hr 56 min 42 sec) 
 Total Blocks : 262144 Invalid Blocks : 0
Heartbeat CPU 0 instructions: 130000000 cycles: 141919160 heartbeat IPC: 0.910823 cumulative IPC: 0.916014 (Simulation time: 5 hr 5 min 35 sec) 
 Total Blocks : 262144 Invalid Blocks : 0
Heartbeat CPU 0 instructions: 140000002 cycles: 152924869 heartbeat IPC: 0.90862 cumulative IPC: 0.915482 (Simulation time: 5 hr 14 min 38 sec) 
 Total Blocks : 262144 Invalid Blocks : 0
Heartbeat CPU 0 instructions: 150000003 cycles: 163749402 heartbeat IPC: 0.923827 cumulative IPC: 0.916034 (Simulation time: 5 hr 23 min 30 sec) 
 Total Blocks : 262144 Invalid Blocks : 0
Heartbeat CPU 0 instructions: 160000001 cycles: 174228087 heartbeat IPC: 0.954318 cumulative IPC: 0.918336 (Simulation time: 5 hr 39 min 39 sec) 
 Total Blocks : 262144 Invalid Blocks : 0
