
*** ChampSim Multicore Out-of-Order Simulator ***

Warmup Instructions: 200000000
Simulation Instructions: 200000000
Number of CPUs: 1
threads:1

L1I Configuration:
L1I_SET:64
L1I_WAY:8
L1I_RQ_SIZE:64
L1I_WQ_SIZE:64
L1I_PQ_SIZE:8
L1I_MSHR_SIZE:8

L1D Configuration:
L1D_SET:64
L1D_WAY:12
L1D_RQ_SIZE:64
L1D_WQ_SIZE:64
L1D_PQ_SIZE:8
L1D_MSHR_SIZE:16

L2C Configuration:
L2C_SET:1024
L2C_WAY:8
L2C_RQ_SIZE:32
L2C_WQ_SIZE:32
L2C_PQ_SIZE:16
L2C_MSHR_SIZE:32

LLC Configuration:
LLC_SET:4096
LLC_WAY:16
LLC SLICES:8
LLC_RQ_SIZE:64
LLC_WQ_SIZE:64
LLC_PQ_SIZE:32
LLC_MSHR_SIZE:64

Interconnect OFF
Attacker deprioritize is: OFF
Off-chip DRAM Size: 4096 MB Channels: 1 Width: 64-bit Data Rate: 3200 MT/s
PAGE SIZE in KB: 4.000000 
PAGE SIZE in MB: 0.003906 
PAGE offset in bits: 12 
CEASER-S_LLC:0
MIRAGE : 0
CEASER_LATENCY:3
REMAP : OFF
Partitions : 1
Multi-Step : OFF
BFS : OFF

CPU 0 runs /home/anubhav/spec_2017/605.mcf_s-665B.champsimtrace.xz
CPU 0 Bimodal branch predictor
Initialize Hawkeye state
Initialize Hawkeye state
Initialize Hawkeye state
Initialize Hawkeye state
Initialize Hawkeye state
Initialize Hawkeye state
Initialize Hawkeye state
Initialize Hawkeye state
Heartbeat CPU 0 instructions: 10000001 cycles: 11674496 heartbeat IPC: 0.856568 cumulative IPC: 0.856568 (Simulation time: 0 hr 1 min 17 sec) 
 Total Blocks : 524288 Invalid Blocks : 394388
Heartbeat CPU 0 instructions: 20000001 cycles: 23310755 heartbeat IPC: 0.859383 cumulative IPC: 0.857973 (Simulation time: 0 hr 2 min 46 sec) 
 Total Blocks : 524288 Invalid Blocks : 324059
Heartbeat CPU 0 instructions: 30000001 cycles: 34932503 heartbeat IPC: 0.860456 cumulative IPC: 0.858799 (Simulation time: 0 hr 4 min 24 sec) 
 Total Blocks : 524288 Invalid Blocks : 273091
Heartbeat CPU 0 instructions: 40000000 cycles: 46619472 heartbeat IPC: 0.855654 cumulative IPC: 0.858011 (Simulation time: 0 hr 6 min 15 sec) 
 Total Blocks : 524288 Invalid Blocks : 232219
Heartbeat CPU 0 instructions: 50000003 cycles: 58350866 heartbeat IPC: 0.852414 cumulative IPC: 0.856885 (Simulation time: 0 hr 8 min 50 sec) 
 Total Blocks : 524288 Invalid Blocks : 201491
Heartbeat CPU 0 instructions: 60000002 cycles: 70048753 heartbeat IPC: 0.854855 cumulative IPC: 0.856546 (Simulation time: 0 hr 11 min 22 sec) 
 Total Blocks : 524288 Invalid Blocks : 175211
Heartbeat CPU 0 instructions: 70000002 cycles: 81851452 heartbeat IPC: 0.847264 cumulative IPC: 0.855208 (Simulation time: 0 hr 13 min 48 sec) 
 Total Blocks : 524288 Invalid Blocks : 155033
Heartbeat CPU 0 instructions: 80000001 cycles: 93566695 heartbeat IPC: 0.853589 cumulative IPC: 0.855005 (Simulation time: 0 hr 16 min 29 sec) 
 Total Blocks : 524288 Invalid Blocks : 137421
Heartbeat CPU 0 instructions: 90000001 cycles: 105331851 heartbeat IPC: 0.849967 cumulative IPC: 0.854442 (Simulation time: 0 hr 18 min 56 sec) 
 Total Blocks : 524288 Invalid Blocks : 123559
Heartbeat CPU 0 instructions: 100000001 cycles: 117285626 heartbeat IPC: 0.836556 cumulative IPC: 0.852619 (Simulation time: 0 hr 21 min 15 sec) 
 Total Blocks : 524288 Invalid Blocks : 114415
Heartbeat CPU 0 instructions: 110000000 cycles: 129164206 heartbeat IPC: 0.841851 cumulative IPC: 0.851629 (Simulation time: 0 hr 23 min 49 sec) 
 Total Blocks : 524288 Invalid Blocks : 106430
Heartbeat CPU 0 instructions: 120000000 cycles: 141097838 heartbeat IPC: 0.837968 cumulative IPC: 0.850474 (Simulation time: 0 hr 26 min 24 sec) 
 Total Blocks : 524288 Invalid Blocks : 99514
Heartbeat CPU 0 instructions: 130000001 cycles: 153002712 heartbeat IPC: 0.839992 cumulative IPC: 0.849658 (Simulation time: 0 hr 29 min 0 sec) 
 Total Blocks : 524288 Invalid Blocks : 93422
Heartbeat CPU 0 instructions: 140000001 cycles: 164993429 heartbeat IPC: 0.833978 cumulative IPC: 0.848519 (Simulation time: 0 hr 31 min 31 sec) 
 Total Blocks : 524288 Invalid Blocks : 87780
Heartbeat CPU 0 instructions: 150000000 cycles: 177004404 heartbeat IPC: 0.832572 cumulative IPC: 0.847437 (Simulation time: 0 hr 34 min 17 sec) 
 Total Blocks : 524288 Invalid Blocks : 83058
Heartbeat CPU 0 instructions: 160000000 cycles: 188960068 heartbeat IPC: 0.836424 cumulative IPC: 0.84674 (Simulation time: 0 hr 36 min 48 sec) 
 Total Blocks : 524288 Invalid Blocks : 79115
Heartbeat CPU 0 instructions: 170000003 cycles: 201020541 heartbeat IPC: 0.829155 cumulative IPC: 0.845685 (Simulation time: 0 hr 39 min 25 sec) 
 Total Blocks : 524288 Invalid Blocks : 75184
Heartbeat CPU 0 instructions: 180000002 cycles: 213111938 heartbeat IPC: 0.827034 cumulative IPC: 0.844627 (Simulation time: 0 hr 42 min 2 sec) 
 Total Blocks : 524288 Invalid Blocks : 71675
Heartbeat CPU 0 instructions: 190000001 cycles: 225068909 heartbeat IPC: 0.836332 cumulative IPC: 0.844186 (Simulation time: 0 hr 44 min 45 sec) 
 Total Blocks : 524288 Invalid Blocks : 68296
Heartbeat CPU 0 instructions: 200000000 cycles: 237014501 heartbeat IPC: 0.837129 cumulative IPC: 0.84383 (Simulation time: 0 hr 47 min 30 sec) 
 Total Blocks : 524288 Invalid Blocks : 65465

Warmup complete CPU 0 instructions: 200000003 cycles: 237014502 (Simulation time: 0 hr 47 min 30 sec) 

Heartbeat CPU 0 instructions: 210000002 cycles: 270255246 heartbeat IPC: 0.300836 cumulative IPC: 0.300836 (Simulation time: 0 hr 53 min 11 sec) 
 Total Blocks : 524288 Invalid Blocks : 62765
Heartbeat CPU 0 instructions: 220000000 cycles: 303253665 heartbeat IPC: 0.303045 cumulative IPC: 0.301936 (Simulation time: 0 hr 58 min 49 sec) 
 Total Blocks : 524288 Invalid Blocks : 60080
Heartbeat CPU 0 instructions: 230000002 cycles: 336632118 heartbeat IPC: 0.299595 cumulative IPC: 0.301152 (Simulation time: 1 hr 4 min 22 sec) 
 Total Blocks : 524288 Invalid Blocks : 57613
Heartbeat CPU 0 instructions: 240000002 cycles: 369751923 heartbeat IPC: 0.301934 cumulative IPC: 0.301347 (Simulation time: 1 hr 9 min 58 sec) 
 Total Blocks : 524288 Invalid Blocks : 55784
Heartbeat CPU 0 instructions: 250000001 cycles: 402956410 heartbeat IPC: 0.301164 cumulative IPC: 0.30131 (Simulation time: 1 hr 15 min 58 sec) 
 Total Blocks : 524288 Invalid Blocks : 53923
Heartbeat CPU 0 instructions: 260000003 cycles: 436289047 heartbeat IPC: 0.300006 cumulative IPC: 0.301092 (Simulation time: 1 hr 21 min 52 sec) 
 Total Blocks : 524288 Invalid Blocks : 52266
Heartbeat CPU 0 instructions: 270000003 cycles: 469590048 heartbeat IPC: 0.300291 cumulative IPC: 0.300977 (Simulation time: 1 hr 27 min 31 sec) 
 Total Blocks : 524288 Invalid Blocks : 50625
Heartbeat CPU 0 instructions: 280000000 cycles: 502979002 heartbeat IPC: 0.2995 cumulative IPC: 0.300792 (Simulation time: 1 hr 33 min 8 sec) 
 Total Blocks : 524288 Invalid Blocks : 49171
Heartbeat CPU 0 instructions: 290000001 cycles: 536327437 heartbeat IPC: 0.299864 cumulative IPC: 0.300689 (Simulation time: 1 hr 38 min 43 sec) 
 Total Blocks : 524288 Invalid Blocks : 48027
Heartbeat CPU 0 instructions: 300000000 cycles: 569459447 heartbeat IPC: 0.301823 cumulative IPC: 0.300802 (Simulation time: 1 hr 44 min 7 sec) 
 Total Blocks : 524288 Invalid Blocks : 46842
Heartbeat CPU 0 instructions: 310000001 cycles: 601962170 heartbeat IPC: 0.307667 cumulative IPC: 0.301413 (Simulation time: 1 hr 49 min 11 sec) 
 Total Blocks : 524288 Invalid Blocks : 45827
Heartbeat CPU 0 instructions: 320000000 cycles: 634845950 heartbeat IPC: 0.304101 cumulative IPC: 0.301635 (Simulation time: 1 hr 54 min 13 sec) 
 Total Blocks : 524288 Invalid Blocks : 44883
Heartbeat CPU 0 instructions: 330000000 cycles: 667464220 heartbeat IPC: 0.306577 cumulative IPC: 0.30201 (Simulation time: 1 hr 59 min 24 sec) 
 Total Blocks : 524288 Invalid Blocks : 43819
Heartbeat CPU 0 instructions: 340000002 cycles: 699982040 heartbeat IPC: 0.307524 cumulative IPC: 0.302397 (Simulation time: 2 hr 4 min 24 sec) 
 Total Blocks : 524288 Invalid Blocks : 42973
Heartbeat CPU 0 instructions: 350000002 cycles: 732585790 heartbeat IPC: 0.306713 cumulative IPC: 0.302681 (Simulation time: 2 hr 9 min 9 sec) 
 Total Blocks : 524288 Invalid Blocks : 42193
Heartbeat CPU 0 instructions: 360000003 cycles: 765192606 heartbeat IPC: 0.306684 cumulative IPC: 0.302928 (Simulation time: 2 hr 13 min 50 sec) 
 Total Blocks : 524288 Invalid Blocks : 41435
Heartbeat CPU 0 instructions: 370000001 cycles: 797797661 heartbeat IPC: 0.306701 cumulative IPC: 0.303147 (Simulation time: 2 hr 17 min 57 sec) 
 Total Blocks : 524288 Invalid Blocks : 40697
Heartbeat CPU 0 instructions: 380000000 cycles: 830534293 heartbeat IPC: 0.305468 cumulative IPC: 0.303275 (Simulation time: 2 hr 21 min 59 sec) 
 Total Blocks : 524288 Invalid Blocks : 40017
Heartbeat CPU 0 instructions: 390000002 cycles: 863120510 heartbeat IPC: 0.306878 cumulative IPC: 0.303463 (Simulation time: 2 hr 26 min 0 sec) 
 Total Blocks : 524288 Invalid Blocks : 39352
Heartbeat CPU 0 instructions: 400000003 cycles: 895686870 heartbeat IPC: 0.307065 cumulative IPC: 0.303641 (Simulation time: 2 hr 29 min 56 sec) 
 Total Blocks : 524288 Invalid Blocks : 38785
Finished CPU 0 instructions: 200000000 cycles: 658672368 cumulative IPC: 0.303641 (Simulation time: 2 hr 29 min 56 sec) 

CPU 0 Branch Prediction Accuracy: 85.1426% MPKI: 28.3064 Average ROB Occupancy at Mispredict: 34.7422

ChampSim completed all CPUs

Region of Interest Statistics

CPU 0 cumulative IPC: 0.303641 instructions: 200000000 cycles: 658672368
ITLB TOTAL     ACCESS: 31843283  HIT: 31843283  MISS:     0  HIT %:   100  MISS %:     0  AVERAGE MISS PENALTY: 0
ITLB LOAD      ACCESS: 31843283  HIT: 31843283  MISS:     0  HIT %:   100  MISS %:     0  AVERAGE MISS PENALTY: 0
ITLB RFO       ACCESS:     0  HIT:     0  MISS:     0  HIT %:     0  MISS %:     0  AVERAGE MISS PENALTY: 0
ITLB PREFETCH  ACCESS:     0  HIT:     0  MISS:     0  HIT %:     0  MISS %:     0  AVERAGE MISS PENALTY: 0
ITLB WRITEBACK ACCESS:     0  HIT:     0  MISS:     0  HIT %:     0  MISS %:     0  AVERAGE MISS PENALTY: 0
ITLB PREFETCH  REQUESTED:     0  ISSUED:     0  USEFUL:     0  USELESS:     0
 USEFUL LOAD PREFETCHES:          0 PREFETCH ISSUED TO LOWER LEVEL:          0  ACCURACY: -nan
 TIMELY PREFETCHES:          0 LATE PREFETCHES: 0 DROPPED PREFETCHES: 0
ITLB AVERAGE MISS LATENCY: -nan cycles
DTLB TOTAL     ACCESS: 60462074  HIT: 57764161  MISS: 2697913  HIT %: 95.5378  MISS %: 4.46216  AVERAGE MISS PENALTY: 10.6583
DTLB LOAD      ACCESS: 46174123  HIT: 43866461  MISS: 2307662  HIT %: 95.0023  MISS %: 4.99774  AVERAGE MISS PENALTY: 10.8484
DTLB RFO       ACCESS: 14287951  HIT: 13897700  MISS: 390251  HIT %: 97.2687  MISS %: 2.73133  AVERAGE MISS PENALTY: 9.53443
DTLB PREFETCH  ACCESS:     0  HIT:     0  MISS:     0  HIT %:     0  MISS %:     0  AVERAGE MISS PENALTY: 0
DTLB WRITEBACK ACCESS:     0  HIT:     0  MISS:     0  HIT %:     0  MISS %:     0  AVERAGE MISS PENALTY: 0
DTLB PREFETCH  REQUESTED:     0  ISSUED:     0  USEFUL:     0  USELESS:     0
 USEFUL LOAD PREFETCHES:          0 PREFETCH ISSUED TO LOWER LEVEL:          0  ACCURACY: -nan
 TIMELY PREFETCHES:          0 LATE PREFETCHES: 0 DROPPED PREFETCHES: 0
DTLB AVERAGE MISS LATENCY: 10.6583 cycles
STLB TOTAL     ACCESS: 2697913  HIT: 2663565  MISS: 34348  HIT %: 98.7269  MISS %: 1.27313  AVERAGE MISS PENALTY: 100
STLB LOAD      ACCESS: 2307662  HIT: 2273824  MISS: 33838  HIT %: 98.5337  MISS %: 1.46633  AVERAGE MISS PENALTY: 100
STLB RFO       ACCESS: 390251  HIT: 389741  MISS:   510  HIT %: 99.8693  MISS %: 0.130685  AVERAGE MISS PENALTY: 100
STLB PREFETCH  ACCESS:     0  HIT:     0  MISS:     0  HIT %:     0  MISS %:     0  AVERAGE MISS PENALTY: 0
STLB WRITEBACK ACCESS:     0  HIT:     0  MISS:     0  HIT %:     0  MISS %:     0  AVERAGE MISS PENALTY: 0
STLB PREFETCH  REQUESTED:     0  ISSUED:     0  USEFUL:     0  USELESS:     0
 USEFUL LOAD PREFETCHES:          0 PREFETCH ISSUED TO LOWER LEVEL:          0  ACCURACY: -nan
 TIMELY PREFETCHES:          0 LATE PREFETCHES: 0 DROPPED PREFETCHES: 0
STLB AVERAGE MISS LATENCY: 100 cycles
L1D TOTAL     ACCESS: 105197465  HIT: 94550132  MISS: 10647333  HIT %: 89.8787  MISS %: 10.1213  AVERAGE MISS PENALTY: 1.97378e+06
L1D LOAD      ACCESS: 57147465  HIT: 52151740  MISS: 4995725  HIT %: 91.2582  MISS %: 8.74181  AVERAGE MISS PENALTY: 4.09508e+06
L1D RFO       ACCESS: 22764981  HIT: 22025725  MISS: 739256  HIT %: 96.7527  MISS %: 3.24734  AVERAGE MISS PENALTY: 754054
L1D PREFETCH  ACCESS: 25285019  HIT: 20372667  MISS: 4912352  HIT %: 80.5721  MISS %: 19.4279  AVERAGE MISS PENALTY: 29.8414
L1D WRITEBACK ACCESS:     0  HIT:     0  MISS:     0  HIT %:     0  MISS %:     0  AVERAGE MISS PENALTY: 0
L1D PREFETCH  REQUESTED: 28344351  ISSUED: 27830909  USEFUL: 1784653  USELESS: 3127594
 USEFUL LOAD PREFETCHES:    1784653 PREFETCH ISSUED TO LOWER LEVEL:    5441096  ACCURACY: 32.7995
 TIMELY PREFETCHES:    1784653 LATE PREFETCHES: 160977 DROPPED PREFETCHES: 513442
L1D AVERAGE MISS LATENCY: 52384.4 cycles
L1I TOTAL     ACCESS: 42721753  HIT: 42721753  MISS:     0  HIT %:   100  MISS %:     0  AVERAGE MISS PENALTY: 0
L1I LOAD      ACCESS: 42721753  HIT: 42721753  MISS:     0  HIT %:   100  MISS %:     0  AVERAGE MISS PENALTY: 0
L1I RFO       ACCESS:     0  HIT:     0  MISS:     0  HIT %:     0  MISS %:     0  AVERAGE MISS PENALTY: 0
L1I PREFETCH  ACCESS:     0  HIT:     0  MISS:     0  HIT %:     0  MISS %:     0  AVERAGE MISS PENALTY: 0
L1I WRITEBACK ACCESS:     0  HIT:     0  MISS:     0  HIT %:     0  MISS %:     0  AVERAGE MISS PENALTY: 0
L1I PREFETCH  REQUESTED:     0  ISSUED:     0  USEFUL:     0  USELESS:     0
 USEFUL LOAD PREFETCHES:          0 PREFETCH ISSUED TO LOWER LEVEL:          0  ACCURACY: -nan
 TIMELY PREFETCHES:          0 LATE PREFETCHES: 0 DROPPED PREFETCHES: 0
L1I AVERAGE MISS LATENCY: -nan cycles
L2C TOTAL     ACCESS: 16634206  HIT: 11659650  MISS: 4974556  HIT %: 70.0944  MISS %: 29.9056  AVERAGE MISS PENALTY: 757645
L2C LOAD      ACCESS: 4984424  HIT: 2619518  MISS: 2364906  HIT %: 52.5541  MISS %: 47.4459  AVERAGE MISS PENALTY: 1.58896e+06
L2C RFO       ACCESS: 738213  HIT: 402273  MISS: 335940  HIT %: 54.4928  MISS %: 45.5072  AVERAGE MISS PENALTY: 32803.7
L2C PREFETCH  ACCESS: 9722246  HIT: 7449068  MISS: 2273178  HIT %: 76.6188  MISS %: 23.3812  AVERAGE MISS PENALTY: 86.4149
L2C WRITEBACK ACCESS: 1189323  HIT: 1188791  MISS:   532  HIT %: 99.9553  MISS %: 0.0447313  AVERAGE MISS PENALTY: 0
L2C PREFETCH  REQUESTED: 8602464  ISSUED: 8540270  USEFUL: 415825  USELESS: 1857699
 USEFUL LOAD PREFETCHES:     415825 PREFETCH ISSUED TO LOWER LEVEL:    2441994  ACCURACY: 17.0281
 TIMELY PREFETCHES:     415825 LATE PREFETCHES: 44199 DROPPED PREFETCHES: 62194
L2C AVERAGE MISS LATENCY: 60.4559 cycles
LLC0 TOTAL     ACCESS: 683805  HIT: 521311  MISS: 162494  HIT %: 76.2368  MISS %: 23.7632  AVERAGE MISS PENALTY: 101.757
LLC0 LOAD      ACCESS: 310760  HIT: 287186  MISS: 23574  HIT %: 92.4141  MISS %: 7.58592  AVERAGE MISS PENALTY: 112.563
LLC0 RFO       ACCESS: 42435  HIT: 42388  MISS:    47  HIT %: 99.8892  MISS %: 0.110758  AVERAGE MISS PENALTY: 170.447
LLC0 PREFETCH  ACCESS: 259154  HIT: 120332  MISS: 138822  HIT %: 46.4326  MISS %: 53.5674  AVERAGE MISS PENALTY: 99.9357
LLC0 WRITEBACK ACCESS: 71456  HIT: 71405  MISS:    51  HIT %: 99.9286  MISS %: 0.0713726  AVERAGE MISS PENALTY: 0
LLC0 PREFETCH  REQUESTED:     0  ISSUED:     0  USEFUL: 17485  USELESS: 118807
 USEFUL LOAD PREFETCHES:      17485 PREFETCH ISSUED TO LOWER LEVEL:     138822  ACCURACY: 12.5953
 TIMELY PREFETCHES:      17485 LATE PREFETCHES: 0 DROPPED PREFETCHES: 0
LLC0 AVERAGE MISS LATENCY: 101.757 cycles
Deadblocks : 19360 Deadblock percentage : 82.1244

LLC1 TOTAL     ACCESS: 691922  HIT: 529259  MISS: 162663  HIT %: 76.4911  MISS %: 23.5089  AVERAGE MISS PENALTY: 102.757
LLC1 LOAD      ACCESS: 302586  HIT: 287069  MISS: 15517  HIT %: 94.8719  MISS %: 5.12813  AVERAGE MISS PENALTY: 126.598
LLC1 RFO       ACCESS: 38745  HIT: 38702  MISS:    43  HIT %: 99.889  MISS %: 0.110982  AVERAGE MISS PENALTY: 171.698
LLC1 PREFETCH  ACCESS: 280278  HIT: 133203  MISS: 147075  HIT %: 47.5253  MISS %: 52.4747  AVERAGE MISS PENALTY: 100.241
LLC1 WRITEBACK ACCESS: 70313  HIT: 70285  MISS:    28  HIT %: 99.9602  MISS %: 0.0398219  AVERAGE MISS PENALTY: 0
LLC1 PREFETCH  REQUESTED:     0  ISSUED:     0  USEFUL: 20314  USELESS: 126228
 USEFUL LOAD PREFETCHES:      20314 PREFETCH ISSUED TO LOWER LEVEL:     147075  ACCURACY: 13.812
 TIMELY PREFETCHES:      20314 LATE PREFETCHES: 0 DROPPED PREFETCHES: 0
LLC1 AVERAGE MISS LATENCY: 102.757 cycles
LLC2 TOTAL     ACCESS: 687431  HIT: 524957  MISS: 162474  HIT %: 76.365  MISS %: 23.635  AVERAGE MISS PENALTY: 103.286
LLC2 LOAD      ACCESS: 292282  HIT: 281277  MISS: 11005  HIT %: 96.2348  MISS %: 3.7652  AVERAGE MISS PENALTY: 140.177
LLC2 RFO       ACCESS: 40900  HIT: 40854  MISS:    46  HIT %: 99.8875  MISS %: 0.112469  AVERAGE MISS PENALTY: 171.826
LLC2 PREFETCH  ACCESS: 285844  HIT: 134429  MISS: 151415  HIT %: 47.0288  MISS %: 52.9712  AVERAGE MISS PENALTY: 100.589
LLC2 WRITEBACK ACCESS: 68405  HIT: 68397  MISS:     8  HIT %: 99.9883  MISS %: 0.0116951  AVERAGE MISS PENALTY: 0
LLC2 PREFETCH  REQUESTED:     0  ISSUED:     0  USEFUL: 19086  USELESS: 130830
 USEFUL LOAD PREFETCHES:      19086 PREFETCH ISSUED TO LOWER LEVEL:     151415  ACCURACY: 12.6051
 TIMELY PREFETCHES:      19086 LATE PREFETCHES: 0 DROPPED PREFETCHES: 0
LLC2 AVERAGE MISS LATENCY: 103.286 cycles
LLC3 TOTAL     ACCESS: 696527  HIT: 534218  MISS: 162309  HIT %: 76.6974  MISS %: 23.3026  AVERAGE MISS PENALTY: 100.618
LLC3 LOAD      ACCESS: 292923  HIT: 284501  MISS:  8422  HIT %: 97.1248  MISS %: 2.87516  AVERAGE MISS PENALTY: 153.742
LLC3 RFO       ACCESS: 41158  HIT: 41108  MISS:    50  HIT %: 99.8785  MISS %: 0.121483  AVERAGE MISS PENALTY: 172.52
LLC3 PREFETCH  ACCESS: 288571  HIT: 134751  MISS: 153820  HIT %: 46.696  MISS %: 53.304  AVERAGE MISS PENALTY: 97.6973
LLC3 WRITEBACK ACCESS: 73875  HIT: 73858  MISS:    17  HIT %: 99.977  MISS %: 0.0230118  AVERAGE MISS PENALTY: 0
LLC3 PREFETCH  REQUESTED:     0  ISSUED:     0  USEFUL: 19675  USELESS: 132055
 USEFUL LOAD PREFETCHES:      19675 PREFETCH ISSUED TO LOWER LEVEL:     153820  ACCURACY: 12.7909
 TIMELY PREFETCHES:      19675 LATE PREFETCHES: 0 DROPPED PREFETCHES: 0
LLC3 AVERAGE MISS LATENCY: 100.618 cycles
LLC4 TOTAL     ACCESS: 699227  HIT: 537417  MISS: 161810  HIT %: 76.8587  MISS %: 23.1413  AVERAGE MISS PENALTY: 98.9078
LLC4 LOAD      ACCESS: 293360  HIT: 286767  MISS:  6593  HIT %: 97.7526  MISS %: 2.24741  AVERAGE MISS PENALTY: 164.482
LLC4 RFO       ACCESS: 44324  HIT: 44281  MISS:    43  HIT %: 99.903  MISS %: 0.0970129  AVERAGE MISS PENALTY: 174
LLC4 PREFETCH  ACCESS: 285734  HIT: 130589  MISS: 155145  HIT %: 45.703  MISS %: 54.297  AVERAGE MISS PENALTY: 96.1188
LLC4 WRITEBACK ACCESS: 75809  HIT: 75780  MISS:    29  HIT %: 99.9617  MISS %: 0.038254  AVERAGE MISS PENALTY: 0
LLC4 PREFETCH  REQUESTED:     0  ISSUED:     0  USEFUL: 19525  USELESS: 133039
 USEFUL LOAD PREFETCHES:      19525 PREFETCH ISSUED TO LOWER LEVEL:     155145  ACCURACY: 12.585
 TIMELY PREFETCHES:      19525 LATE PREFETCHES: 0 DROPPED PREFETCHES: 0
LLC4 AVERAGE MISS LATENCY: 98.9078 cycles
LLC5 TOTAL     ACCESS: 696368  HIT: 534536  MISS: 161832  HIT %: 76.7606  MISS %: 23.2394  AVERAGE MISS PENALTY: 98.2006
LLC5 LOAD      ACCESS: 286728  HIT: 281090  MISS:  5638  HIT %: 98.0337  MISS %: 1.96632  AVERAGE MISS PENALTY: 173.611
LLC5 RFO       ACCESS: 43359  HIT: 43313  MISS:    46  HIT %: 99.8939  MISS %: 0.106091  AVERAGE MISS PENALTY: 174.109
LLC5 PREFETCH  ACCESS: 289680  HIT: 133568  MISS: 156112  HIT %: 46.1088  MISS %: 53.8912  AVERAGE MISS PENALTY: 95.4774
LLC5 WRITEBACK ACCESS: 76601  HIT: 76565  MISS:    36  HIT %: 99.953  MISS %: 0.0469968  AVERAGE MISS PENALTY: 0
LLC5 PREFETCH  REQUESTED:     0  ISSUED:     0  USEFUL: 21019  USELESS: 132396
 USEFUL LOAD PREFETCHES:      21019 PREFETCH ISSUED TO LOWER LEVEL:     156112  ACCURACY: 13.4641
 TIMELY PREFETCHES:      21019 LATE PREFETCHES: 0 DROPPED PREFETCHES: 0
LLC5 AVERAGE MISS LATENCY: 98.2006 cycles
LLC6 TOTAL     ACCESS: 700274  HIT: 538499  MISS: 161775  HIT %: 76.8983  MISS %: 23.1017  AVERAGE MISS PENALTY: 98.5754
LLC6 LOAD      ACCESS: 291491  HIT: 286170  MISS:  5321  HIT %: 98.1746  MISS %: 1.82544  AVERAGE MISS PENALTY: 178.904
LLC6 RFO       ACCESS: 42825  HIT: 42768  MISS:    57  HIT %: 99.8669  MISS %: 0.1331  AVERAGE MISS PENALTY: 173.684
LLC6 PREFETCH  ACCESS: 292484  HIT: 136144  MISS: 156340  HIT %: 46.5475  MISS %: 53.4525  AVERAGE MISS PENALTY: 95.85
LLC6 WRITEBACK ACCESS: 73474  HIT: 73417  MISS:    57  HIT %: 99.9224  MISS %: 0.0775785  AVERAGE MISS PENALTY: 0
LLC6 PREFETCH  REQUESTED:     0  ISSUED:     0  USEFUL: 20398  USELESS: 133036
 USEFUL LOAD PREFETCHES:      20398 PREFETCH ISSUED TO LOWER LEVEL:     156340  ACCURACY: 13.0472
 TIMELY PREFETCHES:      20398 LATE PREFETCHES: 0 DROPPED PREFETCHES: 0
LLC6 AVERAGE MISS LATENCY: 98.5754 cycles
LLC7 TOTAL     ACCESS: 700591  HIT: 538216  MISS: 162375  HIT %: 76.8231  MISS %: 23.1769  AVERAGE MISS PENALTY: 99.1353
LLC7 LOAD      ACCESS: 289554  HIT: 284366  MISS:  5188  HIT %: 98.2083  MISS %: 1.79172  AVERAGE MISS PENALTY: 180.957
LLC7 RFO       ACCESS: 42161  HIT: 42119  MISS:    42  HIT %: 99.9004  MISS %: 0.0996181  AVERAGE MISS PENALTY: 174
LLC7 PREFETCH  ACCESS: 296648  HIT: 139578  MISS: 157070  HIT %: 47.0517  MISS %: 52.9483  AVERAGE MISS PENALTY: 96.46
LLC7 WRITEBACK ACCESS: 72228  HIT: 72153  MISS:    75  HIT %: 99.8962  MISS %: 0.103838  AVERAGE MISS PENALTY: 0
LLC7 PREFETCH  REQUESTED:     0  ISSUED:     0  USEFUL: 20683  USELESS: 132870
 USEFUL LOAD PREFETCHES:      20683 PREFETCH ISSUED TO LOWER LEVEL:     157070  ACCURACY: 13.168
 TIMELY PREFETCHES:      20683 LATE PREFETCHES: 0 DROPPED PREFETCHES: 0
LLC7 AVERAGE MISS LATENCY: 99.1353 cycles
ROI Average ROB Stall Cycles:	7.94756
ROI Total ROB Stalls Cycles:	530253921
ROI TOTAL ROB counter      :	66719085
ROI Average Load ROB Stall Cycles:	8.18225
ROI Total Load ROB Stalls Cycle  :	153866414
ROI Total Load ROB stalls Counter:	18804912
Major fault: 0 Minor fault: 44570

