
*** ChampSim Multicore Out-of-Order Simulator ***

Warmup Instructions: 200000000
Simulation Instructions: 200000000
Number of CPUs: 1
threads:1

L1I Configuration:
L1I_SET:64
L1I_WAY:8
L1I_RQ_SIZE:64
L1I_WQ_SIZE:64
L1I_PQ_SIZE:8
L1I_MSHR_SIZE:8

L1D Configuration:
L1D_SET:64
L1D_WAY:12
L1D_RQ_SIZE:64
L1D_WQ_SIZE:64
L1D_PQ_SIZE:8
L1D_MSHR_SIZE:16

L2C Configuration:
L2C_SET:1024
L2C_WAY:8
L2C_RQ_SIZE:32
L2C_WQ_SIZE:32
L2C_PQ_SIZE:16
L2C_MSHR_SIZE:32

LLC Configuration:
LLC_SET:2048
LLC_WAY:16
LLC SLICES:8
LLC_RQ_SIZE:64
LLC_WQ_SIZE:64
LLC_PQ_SIZE:32
LLC_MSHR_SIZE:64

Interconnect OFF
Attacker deprioritize is: OFF
Off-chip DRAM Size: 4096 MB Channels: 1 Width: 64-bit Data Rate: 3200 MT/s
PAGE SIZE in KB: 4.000000 
PAGE SIZE in MB: 0.003906 
PAGE offset in bits: 12 
CEASER-S_LLC:0
MIRAGE : 0
CEASER_LATENCY:3
REMAP : OFF
Partitions : 1
Multi-Step : OFF
BFS : OFF

CPU 0 runs /home/anubhav/spec_2017/605.mcf_s-994B.champsimtrace.xz
CPU 0 Bimodal branch predictor
Initialize Hawkeye state
Initialize Hawkeye state
Initialize Hawkeye state
Initialize Hawkeye state
Initialize Hawkeye state
Initialize Hawkeye state
Initialize Hawkeye state
Initialize Hawkeye state
Heartbeat CPU 0 instructions: 10000000 cycles: 8099707 heartbeat IPC: 1.23461 cumulative IPC: 1.23461 (Simulation time: 0 hr 1 min 16 sec) 
 Total Blocks : 262144 Invalid Blocks : 138585
Heartbeat CPU 0 instructions: 20000002 cycles: 16352728 heartbeat IPC: 1.21168 cumulative IPC: 1.22304 (Simulation time: 0 hr 5 min 1 sec) 
 Total Blocks : 262144 Invalid Blocks : 74762
Heartbeat CPU 0 instructions: 30000000 cycles: 24908327 heartbeat IPC: 1.16883 cumulative IPC: 1.20442 (Simulation time: 0 hr 13 min 20 sec) 
 Total Blocks : 262144 Invalid Blocks : 39861
Heartbeat CPU 0 instructions: 40000000 cycles: 33314634 heartbeat IPC: 1.18958 cumulative IPC: 1.20067 (Simulation time: 0 hr 14 min 44 sec) 
 Total Blocks : 262144 Invalid Blocks : 21952
Heartbeat CPU 0 instructions: 50000000 cycles: 45583170 heartbeat IPC: 0.815093 cumulative IPC: 1.0969 (Simulation time: 1 hr 23 min 19 sec) 
 Total Blocks : 262144 Invalid Blocks : 5181
Heartbeat CPU 0 instructions: 60000002 cycles: 54466852 heartbeat IPC: 1.12566 cumulative IPC: 1.10159 (Simulation time: 1 hr 24 min 15 sec) 
 Total Blocks : 262144 Invalid Blocks : 2935
Heartbeat CPU 0 instructions: 70000002 cycles: 63341819 heartbeat IPC: 1.12676 cumulative IPC: 1.10512 (Simulation time: 1 hr 25 min 8 sec) 
 Total Blocks : 262144 Invalid Blocks : 1445
Heartbeat CPU 0 instructions: 80000000 cycles: 71469156 heartbeat IPC: 1.23042 cumulative IPC: 1.11936 (Simulation time: 1 hr 26 min 0 sec) 
 Total Blocks : 262144 Invalid Blocks : 682
Heartbeat CPU 0 instructions: 90000002 cycles: 79424414 heartbeat IPC: 1.25703 cumulative IPC: 1.13315 (Simulation time: 1 hr 26 min 51 sec) 
 Total Blocks : 262144 Invalid Blocks : 336
Heartbeat CPU 0 instructions: 100000001 cycles: 87645983 heartbeat IPC: 1.21631 cumulative IPC: 1.14095 (Simulation time: 1 hr 27 min 50 sec) 
 Total Blocks : 262144 Invalid Blocks : 201
Heartbeat CPU 0 instructions: 110000000 cycles: 96738145 heartbeat IPC: 1.09985 cumulative IPC: 1.13709 (Simulation time: 1 hr 28 min 43 sec) 
 Total Blocks : 262144 Invalid Blocks : 73
Heartbeat CPU 0 instructions: 120000003 cycles: 105413784 heartbeat IPC: 1.15265 cumulative IPC: 1.13837 (Simulation time: 1 hr 29 min 47 sec) 
 Total Blocks : 262144 Invalid Blocks : 46
Heartbeat CPU 0 instructions: 130000001 cycles: 113590950 heartbeat IPC: 1.22292 cumulative IPC: 1.14446 (Simulation time: 1 hr 30 min 38 sec) 
 Total Blocks : 262144 Invalid Blocks : 18
Heartbeat CPU 0 instructions: 140000001 cycles: 122881837 heartbeat IPC: 1.07632 cumulative IPC: 1.13931 (Simulation time: 1 hr 54 min 38 sec) 
 Total Blocks : 262144 Invalid Blocks : 5
Heartbeat CPU 0 instructions: 150000002 cycles: 132444774 heartbeat IPC: 1.0457 cumulative IPC: 1.13255 (Simulation time: 2 hr 29 min 20 sec) 
 Total Blocks : 262144 Invalid Blocks : 2
Heartbeat CPU 0 instructions: 160000003 cycles: 140462615 heartbeat IPC: 1.24722 cumulative IPC: 1.13909 (Simulation time: 2 hr 30 min 3 sec) 
 Total Blocks : 262144 Invalid Blocks : 1
Heartbeat CPU 0 instructions: 170000002 cycles: 148213494 heartbeat IPC: 1.29018 cumulative IPC: 1.14699 (Simulation time: 2 hr 30 min 46 sec) 
 Total Blocks : 262144 Invalid Blocks : 1
Heartbeat CPU 0 instructions: 180000000 cycles: 159222997 heartbeat IPC: 0.908306 cumulative IPC: 1.13049 (Simulation time: 2 hr 31 min 43 sec) 
 Total Blocks : 262144 Invalid Blocks : 0
Heartbeat CPU 0 instructions: 190000002 cycles: 166988202 heartbeat IPC: 1.2878 cumulative IPC: 1.1378 (Simulation time: 2 hr 32 min 26 sec) 
 Total Blocks : 262144 Invalid Blocks : 0
Heartbeat CPU 0 instructions: 200000000 cycles: 175465737 heartbeat IPC: 1.17959 cumulative IPC: 1.13982 (Simulation time: 2 hr 33 min 10 sec) 
 Total Blocks : 262144 Invalid Blocks : 0

Warmup complete CPU 0 instructions: 200000004 cycles: 175465738 (Simulation time: 2 hr 33 min 10 sec) 

Heartbeat CPU 0 instructions: 210000000 cycles: 223186427 heartbeat IPC: 0.209553 cumulative IPC: 0.209553 (Simulation time: 2 hr 35 min 30 sec) 
 Total Blocks : 262144 Invalid Blocks : 0
Heartbeat CPU 0 instructions: 220000000 cycles: 279034318 heartbeat IPC: 0.179058 cumulative IPC: 0.193109 (Simulation time: 2 hr 38 min 14 sec) 
 Total Blocks : 262144 Invalid Blocks : 0
Heartbeat CPU 0 instructions: 230000001 cycles: 313492574 heartbeat IPC: 0.290206 cumulative IPC: 0.217349 (Simulation time: 2 hr 40 min 5 sec) 
 Total Blocks : 262144 Invalid Blocks : 0
Heartbeat CPU 0 instructions: 240000002 cycles: 348513295 heartbeat IPC: 0.285545 cumulative IPC: 0.23115 (Simulation time: 2 hr 41 min 55 sec) 
 Total Blocks : 262144 Invalid Blocks : 0
Heartbeat CPU 0 instructions: 250000002 cycles: 375090587 heartbeat IPC: 0.376261 cumulative IPC: 0.25047 (Simulation time: 2 hr 43 min 30 sec) 
 Total Blocks : 262144 Invalid Blocks : 0
Heartbeat CPU 0 instructions: 260000001 cycles: 462120677 heartbeat IPC: 0.114903 cumulative IPC: 0.209311 (Simulation time: 3 hr 30 min 18 sec) 
 Total Blocks : 262144 Invalid Blocks : 0
Heartbeat CPU 0 instructions: 270000000 cycles: 570692327 heartbeat IPC: 0.0921051 cumulative IPC: 0.177114 (Simulation time: 4 hr 2 min 33 sec) 
 Total Blocks : 262144 Invalid Blocks : 0
Heartbeat CPU 0 instructions: 280000001 cycles: 615017799 heartbeat IPC: 0.225604 cumulative IPC: 0.182003 (Simulation time: 4 hr 4 min 47 sec) 
 Total Blocks : 262144 Invalid Blocks : 0
Heartbeat CPU 0 instructions: 290000000 cycles: 665764603 heartbeat IPC: 0.197057 cumulative IPC: 0.183562 (Simulation time: 4 hr 7 min 18 sec) 
 Total Blocks : 262144 Invalid Blocks : 0
Heartbeat CPU 0 instructions: 300000000 cycles: 718567714 heartbeat IPC: 0.189383 cumulative IPC: 0.184127 (Simulation time: 4 hr 9 min 46 sec) 
 Total Blocks : 262144 Invalid Blocks : 0
Heartbeat CPU 0 instructions: 310000002 cycles: 755309617 heartbeat IPC: 0.272169 cumulative IPC: 0.189706 (Simulation time: 4 hr 11 min 40 sec) 
 Total Blocks : 262144 Invalid Blocks : 0
Heartbeat CPU 0 instructions: 320000000 cycles: 794014142 heartbeat IPC: 0.258368 cumulative IPC: 0.194003 (Simulation time: 4 hr 13 min 40 sec) 
 Total Blocks : 262144 Invalid Blocks : 0
Heartbeat CPU 0 instructions: 330000000 cycles: 851220239 heartbeat IPC: 0.174807 cumulative IPC: 0.192378 (Simulation time: 4 hr 16 min 23 sec) 
 Total Blocks : 262144 Invalid Blocks : 0
Heartbeat CPU 0 instructions: 340000001 cycles: 881574993 heartbeat IPC: 0.329438 cumulative IPC: 0.19827 (Simulation time: 4 hr 18 min 10 sec) 
 Total Blocks : 262144 Invalid Blocks : 0
Heartbeat CPU 0 instructions: 350000000 cycles: 907672890 heartbeat IPC: 0.383173 cumulative IPC: 0.20486 (Simulation time: 4 hr 19 min 45 sec) 
 Total Blocks : 262144 Invalid Blocks : 0
Heartbeat CPU 0 instructions: 360000002 cycles: 958309093 heartbeat IPC: 0.197487 cumulative IPC: 0.204383 (Simulation time: 4 hr 22 min 20 sec) 
 Total Blocks : 262144 Invalid Blocks : 0
Heartbeat CPU 0 instructions: 370000002 cycles: 996097708 heartbeat IPC: 0.26463 cumulative IPC: 0.207157 (Simulation time: 4 hr 24 min 23 sec) 
 Total Blocks : 262144 Invalid Blocks : 0
Heartbeat CPU 0 instructions: 380000001 cycles: 1029577164 heartbeat IPC: 0.298691 cumulative IPC: 0.210745 (Simulation time: 4 hr 26 min 16 sec) 
 Total Blocks : 262144 Invalid Blocks : 0
Heartbeat CPU 0 instructions: 390000000 cycles: 1089856796 heartbeat IPC: 0.165893 cumulative IPC: 0.207789 (Simulation time: 4 hr 29 min 13 sec) 
 Total Blocks : 262144 Invalid Blocks : 0
Heartbeat CPU 0 instructions: 400000002 cycles: 1155826920 heartbeat IPC: 0.151584 cumulative IPC: 0.204006 (Simulation time: 4 hr 32 min 37 sec) 
 Total Blocks : 262144 Invalid Blocks : 0
Finished CPU 0 instructions: 200000003 cycles: 980361196 cumulative IPC: 0.204006 (Simulation time: 4 hr 32 min 37 sec) 

CPU 0 Branch Prediction Accuracy: 90.4105% MPKI: 18.1367 Average ROB Occupancy at Mispredict: 55.2459

ChampSim completed all CPUs

Region of Interest Statistics

CPU 0 cumulative IPC: 0.204006 instructions: 200000003 cycles: 980361196
ITLB TOTAL     ACCESS: 30965562  HIT: 30965562  MISS:     0  HIT %:   100  MISS %:     0  AVERAGE MISS PENALTY: 0
ITLB LOAD      ACCESS: 30965562  HIT: 30965562  MISS:     0  HIT %:   100  MISS %:     0  AVERAGE MISS PENALTY: 0
ITLB RFO       ACCESS:     0  HIT:     0  MISS:     0  HIT %:     0  MISS %:     0  AVERAGE MISS PENALTY: 0
ITLB PREFETCH  ACCESS:     0  HIT:     0  MISS:     0  HIT %:     0  MISS %:     0  AVERAGE MISS PENALTY: 0
ITLB WRITEBACK ACCESS:     0  HIT:     0  MISS:     0  HIT %:     0  MISS %:     0  AVERAGE MISS PENALTY: 0
ITLB PREFETCH  REQUESTED:     0  ISSUED:     0  USEFUL:     0  USELESS:     0
 USEFUL LOAD PREFETCHES:          0 PREFETCH ISSUED TO LOWER LEVEL:          0  ACCURACY: -nan
 TIMELY PREFETCHES:          0 LATE PREFETCHES: 0 DROPPED PREFETCHES: 0
ITLB AVERAGE MISS LATENCY: -nan cycles
DTLB TOTAL     ACCESS: 62848658  HIT: 59969752  MISS: 2878906  HIT %: 95.4193  MISS %: 4.5807  AVERAGE MISS PENALTY: 81.1696
DTLB LOAD      ACCESS: 49541779  HIT: 46664812  MISS: 2876967  HIT %: 94.1928  MISS %: 5.80715  AVERAGE MISS PENALTY: 81.2131
DTLB RFO       ACCESS: 13306879  HIT: 13304940  MISS:  1939  HIT %: 99.9854  MISS %: 0.0145714  AVERAGE MISS PENALTY: 16.6792
DTLB PREFETCH  ACCESS:     0  HIT:     0  MISS:     0  HIT %:     0  MISS %:     0  AVERAGE MISS PENALTY: 0
DTLB WRITEBACK ACCESS:     0  HIT:     0  MISS:     0  HIT %:     0  MISS %:     0  AVERAGE MISS PENALTY: 0
DTLB PREFETCH  REQUESTED:     0  ISSUED:     0  USEFUL:     0  USELESS:     0
 USEFUL LOAD PREFETCHES:          0 PREFETCH ISSUED TO LOWER LEVEL:          0  ACCURACY: -nan
 TIMELY PREFETCHES:          0 LATE PREFETCHES: 0 DROPPED PREFETCHES: 0
DTLB AVERAGE MISS LATENCY: 81.1696 cycles
STLB TOTAL     ACCESS: 2878906  HIT: 1251968  MISS: 1626938  HIT %: 43.4876  MISS %: 56.5124  AVERAGE MISS PENALTY: 100
STLB LOAD      ACCESS: 2876967  HIT: 1250175  MISS: 1626792  HIT %: 43.4546  MISS %: 56.5454  AVERAGE MISS PENALTY: 100
STLB RFO       ACCESS:  1939  HIT:  1793  MISS:   146  HIT %: 92.4703  MISS %: 7.52965  AVERAGE MISS PENALTY: 100
STLB PREFETCH  ACCESS:     0  HIT:     0  MISS:     0  HIT %:     0  MISS %:     0  AVERAGE MISS PENALTY: 0
STLB WRITEBACK ACCESS:     0  HIT:     0  MISS:     0  HIT %:     0  MISS %:     0  AVERAGE MISS PENALTY: 0
STLB PREFETCH  REQUESTED:     0  ISSUED:     0  USEFUL:     0  USELESS:     0
 USEFUL LOAD PREFETCHES:          0 PREFETCH ISSUED TO LOWER LEVEL:          0  ACCURACY: -nan
 TIMELY PREFETCHES:          0 LATE PREFETCHES: 0 DROPPED PREFETCHES: 0
STLB AVERAGE MISS LATENCY: 100 cycles
L1D TOTAL     ACCESS: 124105664  HIT: 95802705  MISS: 28302959  HIT %: 77.1945  MISS %: 22.8055  AVERAGE MISS PENALTY: 5.35799e+06
L1D LOAD      ACCESS: 62541037  HIT: 55690588  MISS: 6850449  HIT %: 89.0465  MISS %: 10.9535  AVERAGE MISS PENALTY: 2.20523e+07
L1D RFO       ACCESS: 19830337  HIT: 19748505  MISS: 81832  HIT %: 99.5873  MISS %: 0.412661  AVERAGE MISS PENALTY: 7.04604e+06
L1D PREFETCH  ACCESS: 41734290  HIT: 20363612  MISS: 21370678  HIT %: 48.7935  MISS %: 51.2065  AVERAGE MISS PENALTY: 121.907
L1D WRITEBACK ACCESS:     0  HIT:     0  MISS:     0  HIT %:     0  MISS %:     0  AVERAGE MISS PENALTY: 0
L1D PREFETCH  REQUESTED: 48430793  ISSUED: 43449058  USEFUL: 1676462  USELESS: 19693634
 USEFUL LOAD PREFETCHES:    1676462 PREFETCH ISSUED TO LOWER LEVEL:   63106195  ACCURACY: 2.65657
 TIMELY PREFETCHES:    1676462 LATE PREFETCHES: 544074 DROPPED PREFETCHES: 4981735
L1D AVERAGE MISS LATENCY: 20492.9 cycles
L1I TOTAL     ACCESS: 39814862  HIT: 39814862  MISS:     0  HIT %:   100  MISS %:     0  AVERAGE MISS PENALTY: 0
L1I LOAD      ACCESS: 39814862  HIT: 39814862  MISS:     0  HIT %:   100  MISS %:     0  AVERAGE MISS PENALTY: 0
L1I RFO       ACCESS:     0  HIT:     0  MISS:     0  HIT %:     0  MISS %:     0  AVERAGE MISS PENALTY: 0
L1I PREFETCH  ACCESS:     0  HIT:     0  MISS:     0  HIT %:     0  MISS %:     0  AVERAGE MISS PENALTY: 0
L1I WRITEBACK ACCESS:     0  HIT:     0  MISS:     0  HIT %:     0  MISS %:     0  AVERAGE MISS PENALTY: 0
L1I PREFETCH  REQUESTED:     0  ISSUED:     0  USEFUL:     0  USELESS:     0
 USEFUL LOAD PREFETCHES:          0 PREFETCH ISSUED TO LOWER LEVEL:          0  ACCURACY: -nan
 TIMELY PREFETCHES:          0 LATE PREFETCHES: 0 DROPPED PREFETCHES: 0
L1I AVERAGE MISS LATENCY: -nan cycles
L2C TOTAL     ACCESS: 48296783  HIT: 17689917  MISS: 30606866  HIT %: 36.6275  MISS %: 63.3725  AVERAGE MISS PENALTY: 3.47901e+06
L2C LOAD      ACCESS: 6806222  HIT: 2054319  MISS: 4751903  HIT %: 30.183  MISS %: 69.817  AVERAGE MISS PENALTY: 2.24056e+07
L2C RFO       ACCESS: 81106  HIT: 65470  MISS: 15636  HIT %: 80.7215  MISS %: 19.2785  AVERAGE MISS PENALTY: 528915
L2C PREFETCH  ACCESS: 40753738  HIT: 14917714  MISS: 25836024  HIT %: 36.6045  MISS %: 63.3955  AVERAGE MISS PENALTY: 162.949
L2C WRITEBACK ACCESS: 655717  HIT: 652414  MISS:  3303  HIT %: 99.4963  MISS %: 0.503723  AVERAGE MISS PENALTY: 0
L2C PREFETCH  REQUESTED: 84413290  ISSUED: 83441840  USEFUL: 491197  USELESS: 25338524
 USEFUL LOAD PREFETCHES:     491197 PREFETCH ISSUED TO LOWER LEVEL:   29155195  ACCURACY: 1.68477
 TIMELY PREFETCHES:     491197 LATE PREFETCHES: 481249 DROPPED PREFETCHES: 971450
L2C AVERAGE MISS LATENCY: 159.866 cycles
LLC0 TOTAL     ACCESS: 3885080  HIT: 1848750  MISS: 2036330  HIT %: 47.5859  MISS %: 52.4141  AVERAGE MISS PENALTY: 225.056
LLC0 LOAD      ACCESS: 589423  HIT: 293289  MISS: 296134  HIT %: 49.7587  MISS %: 50.2413  AVERAGE MISS PENALTY: 207.737
LLC0 RFO       ACCESS:  1896  HIT:  1807  MISS:    89  HIT %: 95.3059  MISS %: 4.69409  AVERAGE MISS PENALTY: 145.292
LLC0 PREFETCH  ACCESS: 3237035  HIT: 1497357  MISS: 1739678  HIT %: 46.2571  MISS %: 53.7429  AVERAGE MISS PENALTY: 228.064
LLC0 WRITEBACK ACCESS: 56726  HIT: 56297  MISS:   429  HIT %: 99.2437  MISS %: 0.756267  AVERAGE MISS PENALTY: 0
LLC0 PREFETCH  REQUESTED:     0  ISSUED:     0  USEFUL: 17343  USELESS: 1713680
 USEFUL LOAD PREFETCHES:      17343 PREFETCH ISSUED TO LOWER LEVEL:    1739678  ACCURACY: 0.996909
 TIMELY PREFETCHES:      17343 LATE PREFETCHES: 0 DROPPED PREFETCHES: 0
LLC0 AVERAGE MISS LATENCY: 225.056 cycles
Deadblocks : 279205 Deadblock percentage : 94.2833

LLC1 TOTAL     ACCESS: 3909113  HIT: 1860640  MISS: 2048473  HIT %: 47.5975  MISS %: 52.4025  AVERAGE MISS PENALTY: 225.208
LLC1 LOAD      ACCESS: 576486  HIT: 286007  MISS: 290479  HIT %: 49.6121  MISS %: 50.3879  AVERAGE MISS PENALTY: 206.531
LLC1 RFO       ACCESS:  1961  HIT:  1870  MISS:    91  HIT %: 95.3595  MISS %: 4.64049  AVERAGE MISS PENALTY: 151.681
LLC1 PREFETCH  ACCESS: 3273811  HIT: 1516185  MISS: 1757626  HIT %: 46.3125  MISS %: 53.6875  AVERAGE MISS PENALTY: 228.334
LLC1 WRITEBACK ACCESS: 56855  HIT: 56578  MISS:   277  HIT %: 99.5128  MISS %: 0.487204  AVERAGE MISS PENALTY: 0
LLC1 PREFETCH  REQUESTED:     0  ISSUED:     0  USEFUL: 18052  USELESS: 1730845
 USEFUL LOAD PREFETCHES:      18052 PREFETCH ISSUED TO LOWER LEVEL:    1757626  ACCURACY: 1.02707
 TIMELY PREFETCHES:      18052 LATE PREFETCHES: 0 DROPPED PREFETCHES: 0
LLC1 AVERAGE MISS LATENCY: 225.208 cycles
LLC2 TOTAL     ACCESS: 3931283  HIT: 1868828  MISS: 2062455  HIT %: 47.5374  MISS %: 52.4626  AVERAGE MISS PENALTY: 224.908
LLC2 LOAD      ACCESS: 579790  HIT: 288125  MISS: 291665  HIT %: 49.6947  MISS %: 50.3053  AVERAGE MISS PENALTY: 207.413
LLC2 RFO       ACCESS:  1824  HIT:  1724  MISS:   100  HIT %: 94.5175  MISS %: 5.48246  AVERAGE MISS PENALTY: 156.28
LLC2 PREFETCH  ACCESS: 3292856  HIT: 1522443  MISS: 1770413  HIT %: 46.2347  MISS %: 53.7653  AVERAGE MISS PENALTY: 227.83
LLC2 WRITEBACK ACCESS: 56813  HIT: 56536  MISS:   277  HIT %: 99.5124  MISS %: 0.487564  AVERAGE MISS PENALTY: 0
LLC2 PREFETCH  REQUESTED:     0  ISSUED:     0  USEFUL: 17510  USELESS: 1744149
 USEFUL LOAD PREFETCHES:      17510 PREFETCH ISSUED TO LOWER LEVEL:    1770413  ACCURACY: 0.989035
 TIMELY PREFETCHES:      17510 LATE PREFETCHES: 0 DROPPED PREFETCHES: 0
LLC2 AVERAGE MISS LATENCY: 224.908 cycles
LLC3 TOTAL     ACCESS: 3919683  HIT: 1863083  MISS: 2056600  HIT %: 47.5315  MISS %: 52.4685  AVERAGE MISS PENALTY: 224.519
LLC3 LOAD      ACCESS: 580479  HIT: 287781  MISS: 292698  HIT %: 49.5765  MISS %: 50.4235  AVERAGE MISS PENALTY: 207.064
LLC3 RFO       ACCESS:  1690  HIT:  1590  MISS:   100  HIT %: 94.0828  MISS %: 5.91716  AVERAGE MISS PENALTY: 167.84
LLC3 PREFETCH  ACCESS: 3280664  HIT: 1517110  MISS: 1763554  HIT %: 46.244  MISS %: 53.756  AVERAGE MISS PENALTY: 227.451
LLC3 WRITEBACK ACCESS: 56850  HIT: 56602  MISS:   248  HIT %: 99.5638  MISS %: 0.436236  AVERAGE MISS PENALTY: 0
LLC3 PREFETCH  REQUESTED:     0  ISSUED:     0  USEFUL: 17470  USELESS: 1737395
 USEFUL LOAD PREFETCHES:      17470 PREFETCH ISSUED TO LOWER LEVEL:    1763554  ACCURACY: 0.990613
 TIMELY PREFETCHES:      17470 LATE PREFETCHES: 0 DROPPED PREFETCHES: 0
LLC3 AVERAGE MISS LATENCY: 224.519 cycles
LLC4 TOTAL     ACCESS: 3903435  HIT: 1855365  MISS: 2048070  HIT %: 47.5316  MISS %: 52.4684  AVERAGE MISS PENALTY: 224.194
LLC4 LOAD      ACCESS: 578561  HIT: 287227  MISS: 291334  HIT %: 49.6451  MISS %: 50.3549  AVERAGE MISS PENALTY: 206.942
LLC4 RFO       ACCESS:  1777  HIT:  1668  MISS:   109  HIT %: 93.8661  MISS %: 6.13393  AVERAGE MISS PENALTY: 168.908
LLC4 PREFETCH  ACCESS: 3266286  HIT: 1509930  MISS: 1756356  HIT %: 46.2277  MISS %: 53.7723  AVERAGE MISS PENALTY: 227.094
LLC4 WRITEBACK ACCESS: 56811  HIT: 56540  MISS:   271  HIT %: 99.523  MISS %: 0.47702  AVERAGE MISS PENALTY: 0
LLC4 PREFETCH  REQUESTED:     0  ISSUED:     0  USEFUL: 17367  USELESS: 1730239
 USEFUL LOAD PREFETCHES:      17367 PREFETCH ISSUED TO LOWER LEVEL:    1756356  ACCURACY: 0.988809
 TIMELY PREFETCHES:      17367 LATE PREFETCHES: 0 DROPPED PREFETCHES: 0
LLC4 AVERAGE MISS LATENCY: 224.194 cycles
LLC5 TOTAL     ACCESS: 3875365  HIT: 1842045  MISS: 2033320  HIT %: 47.5322  MISS %: 52.4678  AVERAGE MISS PENALTY: 223.389
LLC5 LOAD      ACCESS: 581024  HIT: 289032  MISS: 291992  HIT %: 49.7453  MISS %: 50.2547  AVERAGE MISS PENALTY: 206.361
LLC5 RFO       ACCESS:  2080  HIT:  1964  MISS:   116  HIT %: 94.4231  MISS %: 5.57692  AVERAGE MISS PENALTY: 161.129
LLC5 PREFETCH  ACCESS: 3235628  HIT: 1494642  MISS: 1740986  HIT %: 46.1933  MISS %: 53.8067  AVERAGE MISS PENALTY: 226.278
LLC5 WRITEBACK ACCESS: 56633  HIT: 56407  MISS:   226  HIT %: 99.6009  MISS %: 0.399061  AVERAGE MISS PENALTY: 0
LLC5 PREFETCH  REQUESTED:     0  ISSUED:     0  USEFUL: 17835  USELESS: 1714431
 USEFUL LOAD PREFETCHES:      17835 PREFETCH ISSUED TO LOWER LEVEL:    1740986  ACCURACY: 1.02442
 TIMELY PREFETCHES:      17835 LATE PREFETCHES: 0 DROPPED PREFETCHES: 0
LLC5 AVERAGE MISS LATENCY: 223.389 cycles
LLC6 TOTAL     ACCESS: 3835684  HIT: 1823935  MISS: 2011749  HIT %: 47.5518  MISS %: 52.4482  AVERAGE MISS PENALTY: 222.749
LLC6 LOAD      ACCESS: 581095  HIT: 288793  MISS: 292302  HIT %: 49.6981  MISS %: 50.3019  AVERAGE MISS PENALTY: 205.719
LLC6 RFO       ACCESS:  2298  HIT:  2165  MISS:   133  HIT %: 94.2124  MISS %: 5.78764  AVERAGE MISS PENALTY: 156.617
LLC6 PREFETCH  ACCESS: 3195724  HIT: 1476641  MISS: 1719083  HIT %: 46.2068  MISS %: 53.7932  AVERAGE MISS PENALTY: 225.68
LLC6 WRITEBACK ACCESS: 56567  HIT: 56336  MISS:   231  HIT %: 99.5916  MISS %: 0.408365  AVERAGE MISS PENALTY: 0
LLC6 PREFETCH  REQUESTED:     0  ISSUED:     0  USEFUL: 17632  USELESS: 1692788
 USEFUL LOAD PREFETCHES:      17632 PREFETCH ISSUED TO LOWER LEVEL:    1719083  ACCURACY: 1.02566
 TIMELY PREFETCHES:      17632 LATE PREFETCHES: 0 DROPPED PREFETCHES: 0
LLC6 AVERAGE MISS LATENCY: 222.749 cycles
LLC7 TOTAL     ACCESS: 3797712  HIT: 1803924  MISS: 1993788  HIT %: 47.5003  MISS %: 52.4997  AVERAGE MISS PENALTY: 222.09
LLC7 LOAD      ACCESS: 581145  HIT: 288032  MISS: 293113  HIT %: 49.5628  MISS %: 50.4372  AVERAGE MISS PENALTY: 204.768
LLC7 RFO       ACCESS:  2104  HIT:  1995  MISS:   109  HIT %: 94.8194  MISS %: 5.18061  AVERAGE MISS PENALTY: 155.431
LLC7 PREFETCH  ACCESS: 3157922  HIT: 1457681  MISS: 1700241  HIT %: 46.1595  MISS %: 53.8405  AVERAGE MISS PENALTY: 225.123
LLC7 WRITEBACK ACCESS: 56541  HIT: 56216  MISS:   325  HIT %: 99.4252  MISS %: 0.574804  AVERAGE MISS PENALTY: 0
LLC7 PREFETCH  REQUESTED:     0  ISSUED:     0  USEFUL: 17850  USELESS: 1674062
 USEFUL LOAD PREFETCHES:      17850 PREFETCH ISSUED TO LOWER LEVEL:    1700241  ACCURACY: 1.04985
 TIMELY PREFETCHES:      17850 LATE PREFETCHES: 0 DROPPED PREFETCHES: 0
LLC7 AVERAGE MISS LATENCY: 222.09 cycles
ROI Average ROB Stall Cycles:	14.3237
ROI Total ROB Stalls Cycles:	895899803
ROI TOTAL ROB counter      :	62546839
ROI Average Load ROB Stall Cycles:	14.2543
ROI Total Load ROB Stalls Cycle  :	268633348
ROI Total Load ROB stalls Counter:	18845760
Major fault: 0 Minor fault: 219884

