
*** ChampSim Multicore Out-of-Order Simulator ***

Warmup Instructions: 200000000
Simulation Instructions: 200000000
Number of CPUs: 1
threads:1

L1I Configuration:
L1I_SET:64
L1I_WAY:8
L1I_RQ_SIZE:64
L1I_WQ_SIZE:64
L1I_PQ_SIZE:8
L1I_MSHR_SIZE:8

L1D Configuration:
L1D_SET:64
L1D_WAY:12
L1D_RQ_SIZE:64
L1D_WQ_SIZE:64
L1D_PQ_SIZE:8
L1D_MSHR_SIZE:16

L2C Configuration:
L2C_SET:1024
L2C_WAY:8
L2C_RQ_SIZE:32
L2C_WQ_SIZE:32
L2C_PQ_SIZE:16
L2C_MSHR_SIZE:32

LLC Configuration:
LLC_SET:4096
LLC_WAY:16
LLC SLICES:8
LLC_RQ_SIZE:64
LLC_WQ_SIZE:64
LLC_PQ_SIZE:32
LLC_MSHR_SIZE:64

Interconnect OFF
Attacker deprioritize is: OFF
Off-chip DRAM Size: 4096 MB Channels: 1 Width: 64-bit Data Rate: 3200 MT/s
PAGE SIZE in KB: 4.000000 
PAGE SIZE in MB: 0.003906 
PAGE offset in bits: 12 
CEASER-S_LLC:0
MIRAGE : 0
CEASER_LATENCY:3
REMAP : OFF
Partitions : 1
Multi-Step : OFF
BFS : OFF

CPU 0 runs /home/anubhav/spec_2017/619.lbm_s-2676B.champsimtrace.xz
CPU 0 Bimodal branch predictor
Initialize Hawkeye state
Initialize Hawkeye state
Initialize Hawkeye state
Initialize Hawkeye state
Initialize Hawkeye state
Initialize Hawkeye state
Initialize Hawkeye state
Initialize Hawkeye state
Heartbeat CPU 0 instructions: 10000002 cycles: 3951228 heartbeat IPC: 2.53086 cumulative IPC: 2.53086 (Simulation time: 0 hr 1 min 33 sec) 
 Total Blocks : 524288 Invalid Blocks : 222428
Heartbeat CPU 0 instructions: 20000000 cycles: 7887276 heartbeat IPC: 2.54062 cumulative IPC: 2.53573 (Simulation time: 0 hr 3 min 28 sec) 
 Total Blocks : 524288 Invalid Blocks : 115783
Heartbeat CPU 0 instructions: 30000003 cycles: 11806089 heartbeat IPC: 2.55179 cumulative IPC: 2.54106 (Simulation time: 0 hr 5 min 34 sec) 
 Total Blocks : 524288 Invalid Blocks : 63798
Heartbeat CPU 0 instructions: 40000000 cycles: 15682746 heartbeat IPC: 2.57954 cumulative IPC: 2.55057 (Simulation time: 0 hr 8 min 31 sec) 
 Total Blocks : 524288 Invalid Blocks : 36938
Heartbeat CPU 0 instructions: 50000002 cycles: 19522740 heartbeat IPC: 2.60417 cumulative IPC: 2.56112 (Simulation time: 0 hr 11 min 52 sec) 
 Total Blocks : 524288 Invalid Blocks : 22276
Heartbeat CPU 0 instructions: 60000001 cycles: 23329883 heartbeat IPC: 2.62664 cumulative IPC: 2.57181 (Simulation time: 0 hr 15 min 19 sec) 
 Total Blocks : 524288 Invalid Blocks : 14462
Heartbeat CPU 0 instructions: 70000000 cycles: 27105078 heartbeat IPC: 2.64887 cumulative IPC: 2.58254 (Simulation time: 0 hr 18 min 43 sec) 
 Total Blocks : 524288 Invalid Blocks : 10008
Heartbeat CPU 0 instructions: 80000003 cycles: 30818514 heartbeat IPC: 2.69292 cumulative IPC: 2.59584 (Simulation time: 0 hr 22 min 7 sec) 
 Total Blocks : 524288 Invalid Blocks : 7382
Heartbeat CPU 0 instructions: 90000002 cycles: 34532706 heartbeat IPC: 2.69238 cumulative IPC: 2.60623 (Simulation time: 0 hr 25 min 48 sec) 
 Total Blocks : 524288 Invalid Blocks : 5484
Heartbeat CPU 0 instructions: 100000001 cycles: 38208036 heartbeat IPC: 2.72084 cumulative IPC: 2.61725 (Simulation time: 0 hr 29 min 16 sec) 
 Total Blocks : 524288 Invalid Blocks : 4164
Heartbeat CPU 0 instructions: 110000000 cycles: 41872531 heartbeat IPC: 2.72889 cumulative IPC: 2.62702 (Simulation time: 0 hr 32 min 55 sec) 
 Total Blocks : 524288 Invalid Blocks : 3161
Heartbeat CPU 0 instructions: 120000002 cycles: 45509217 heartbeat IPC: 2.74976 cumulative IPC: 2.63683 (Simulation time: 0 hr 36 min 33 sec) 
 Total Blocks : 524288 Invalid Blocks : 2460
Heartbeat CPU 0 instructions: 130000003 cycles: 49126339 heartbeat IPC: 2.76463 cumulative IPC: 2.64624 (Simulation time: 0 hr 40 min 7 sec) 
 Total Blocks : 524288 Invalid Blocks : 1992
Heartbeat CPU 0 instructions: 140000003 cycles: 52738454 heartbeat IPC: 2.76846 cumulative IPC: 2.65461 (Simulation time: 0 hr 43 min 48 sec) 
 Total Blocks : 524288 Invalid Blocks : 1593
Heartbeat CPU 0 instructions: 150000002 cycles: 56327785 heartbeat IPC: 2.78603 cumulative IPC: 2.66298 (Simulation time: 0 hr 47 min 33 sec) 
 Total Blocks : 524288 Invalid Blocks : 1288
Heartbeat CPU 0 instructions: 160000002 cycles: 59898849 heartbeat IPC: 2.80029 cumulative IPC: 2.67117 (Simulation time: 0 hr 51 min 14 sec) 
 Total Blocks : 524288 Invalid Blocks : 1078
Heartbeat CPU 0 instructions: 170000000 cycles: 63466327 heartbeat IPC: 2.8031 cumulative IPC: 2.67859 (Simulation time: 0 hr 54 min 51 sec) 
 Total Blocks : 524288 Invalid Blocks : 883
Heartbeat CPU 0 instructions: 180000002 cycles: 67032685 heartbeat IPC: 2.80398 cumulative IPC: 2.68526 (Simulation time: 0 hr 58 min 36 sec) 
 Total Blocks : 524288 Invalid Blocks : 736
Heartbeat CPU 0 instructions: 190000001 cycles: 70585107 heartbeat IPC: 2.81498 cumulative IPC: 2.69179 (Simulation time: 1 hr 2 min 13 sec) 
 Total Blocks : 524288 Invalid Blocks : 603
Heartbeat CPU 0 instructions: 200000001 cycles: 74132355 heartbeat IPC: 2.81909 cumulative IPC: 2.69788 (Simulation time: 1 hr 6 min 0 sec) 
 Total Blocks : 524288 Invalid Blocks : 504

Warmup complete CPU 0 instructions: 200000001 cycles: 74132355 (Simulation time: 1 hr 6 min 0 sec) 

Heartbeat CPU 0 instructions: 210000003 cycles: 82802804 heartbeat IPC: 1.15334 cumulative IPC: 1.15334 (Simulation time: 1 hr 10 min 59 sec) 
 Total Blocks : 524288 Invalid Blocks : 410
Heartbeat CPU 0 instructions: 220000000 cycles: 91497494 heartbeat IPC: 1.15013 cumulative IPC: 1.15173 (Simulation time: 1 hr 16 min 10 sec) 
 Total Blocks : 524288 Invalid Blocks : 330
Heartbeat CPU 0 instructions: 230000001 cycles: 100028844 heartbeat IPC: 1.17215 cumulative IPC: 1.15846 (Simulation time: 1 hr 21 min 22 sec) 
 Total Blocks : 524288 Invalid Blocks : 272
Heartbeat CPU 0 instructions: 240000001 cycles: 108646625 heartbeat IPC: 1.16039 cumulative IPC: 1.15894 (Simulation time: 1 hr 26 min 37 sec) 
 Total Blocks : 524288 Invalid Blocks : 216
Heartbeat CPU 0 instructions: 250000003 cycles: 117218176 heartbeat IPC: 1.16665 cumulative IPC: 1.16047 (Simulation time: 1 hr 32 min 1 sec) 
 Total Blocks : 524288 Invalid Blocks : 176
Heartbeat CPU 0 instructions: 260000000 cycles: 125789359 heartbeat IPC: 1.1667 cumulative IPC: 1.16151 (Simulation time: 1 hr 37 min 4 sec) 
 Total Blocks : 524288 Invalid Blocks : 142
Heartbeat CPU 0 instructions: 270000002 cycles: 134176104 heartbeat IPC: 1.19236 cumulative IPC: 1.16582 (Simulation time: 1 hr 42 min 3 sec) 
 Total Blocks : 524288 Invalid Blocks : 108
Heartbeat CPU 0 instructions: 280000000 cycles: 142651196 heartbeat IPC: 1.17993 cumulative IPC: 1.16756 (Simulation time: 1 hr 46 min 53 sec) 
 Total Blocks : 524288 Invalid Blocks : 83
Heartbeat CPU 0 instructions: 290000001 cycles: 150996839 heartbeat IPC: 1.19823 cumulative IPC: 1.17089 (Simulation time: 1 hr 51 min 37 sec) 
 Total Blocks : 524288 Invalid Blocks : 68
Heartbeat CPU 0 instructions: 300000001 cycles: 159422630 heartbeat IPC: 1.18683 cumulative IPC: 1.17247 (Simulation time: 1 hr 56 min 28 sec) 
 Total Blocks : 524288 Invalid Blocks : 57
Heartbeat CPU 0 instructions: 310000003 cycles: 167734039 heartbeat IPC: 1.20317 cumulative IPC: 1.17519 (Simulation time: 2 hr 1 min 11 sec) 
 Total Blocks : 524288 Invalid Blocks : 46
Heartbeat CPU 0 instructions: 320000003 cycles: 176110122 heartbeat IPC: 1.19388 cumulative IPC: 1.17673 (Simulation time: 2 hr 5 min 52 sec) 
 Total Blocks : 524288 Invalid Blocks : 43
Heartbeat CPU 0 instructions: 330000000 cycles: 184353202 heartbeat IPC: 1.21314 cumulative IPC: 1.17945 (Simulation time: 2 hr 10 min 20 sec) 
 Total Blocks : 524288 Invalid Blocks : 37
Heartbeat CPU 0 instructions: 340000000 cycles: 192721977 heartbeat IPC: 1.19492 cumulative IPC: 1.18054 (Simulation time: 2 hr 14 min 49 sec) 
 Total Blocks : 524288 Invalid Blocks : 27
Heartbeat CPU 0 instructions: 350000001 cycles: 200965579 heartbeat IPC: 1.21306 cumulative IPC: 1.18266 (Simulation time: 2 hr 18 min 55 sec) 
 Total Blocks : 524288 Invalid Blocks : 22
Heartbeat CPU 0 instructions: 360000001 cycles: 209321439 heartbeat IPC: 1.19676 cumulative IPC: 1.18353 (Simulation time: 2 hr 22 min 46 sec) 
 Total Blocks : 524288 Invalid Blocks : 17
Heartbeat CPU 0 instructions: 370000001 cycles: 217673035 heartbeat IPC: 1.19738 cumulative IPC: 1.18433 (Simulation time: 2 hr 26 min 46 sec) 
 Total Blocks : 524288 Invalid Blocks : 12
Heartbeat CPU 0 instructions: 380000003 cycles: 225907286 heartbeat IPC: 1.21444 cumulative IPC: 1.18597 (Simulation time: 2 hr 30 min 40 sec) 
 Total Blocks : 524288 Invalid Blocks : 11
Heartbeat CPU 0 instructions: 390000003 cycles: 234279850 heartbeat IPC: 1.19438 cumulative IPC: 1.18641 (Simulation time: 2 hr 34 min 23 sec) 
 Total Blocks : 524288 Invalid Blocks : 8
Heartbeat CPU 0 instructions: 400000000 cycles: 242496768 heartbeat IPC: 1.217 cumulative IPC: 1.1879 (Simulation time: 2 hr 37 min 59 sec) 
 Total Blocks : 524288 Invalid Blocks : 6
Finished CPU 0 instructions: 200000003 cycles: 168364417 cumulative IPC: 1.1879 (Simulation time: 2 hr 37 min 59 sec) 

CPU 0 Branch Prediction Accuracy: 99.5862% MPKI: 0.04465 Average ROB Occupancy at Mispredict: 189.468

ChampSim completed all CPUs

Region of Interest Statistics

CPU 0 cumulative IPC: 1.1879 instructions: 200000003 cycles: 168364417
ITLB TOTAL     ACCESS: 33344701  HIT: 33344701  MISS:     0  HIT %:   100  MISS %:     0  AVERAGE MISS PENALTY: 0
ITLB LOAD      ACCESS: 33344701  HIT: 33344701  MISS:     0  HIT %:   100  MISS %:     0  AVERAGE MISS PENALTY: 0
ITLB RFO       ACCESS:     0  HIT:     0  MISS:     0  HIT %:     0  MISS %:     0  AVERAGE MISS PENALTY: 0
ITLB PREFETCH  ACCESS:     0  HIT:     0  MISS:     0  HIT %:     0  MISS %:     0  AVERAGE MISS PENALTY: 0
ITLB WRITEBACK ACCESS:     0  HIT:     0  MISS:     0  HIT %:     0  MISS %:     0  AVERAGE MISS PENALTY: 0
ITLB PREFETCH  REQUESTED:     0  ISSUED:     0  USEFUL:     0  USELESS:     0
 USEFUL LOAD PREFETCHES:          0 PREFETCH ISSUED TO LOWER LEVEL:          0  ACCURACY: -nan
 TIMELY PREFETCHES:          0 LATE PREFETCHES: 0 DROPPED PREFETCHES: 0
ITLB AVERAGE MISS LATENCY: -nan cycles
DTLB TOTAL     ACCESS: 32877512  HIT: 32751395  MISS: 126117  HIT %: 99.6164  MISS %: 0.383597  AVERAGE MISS PENALTY: 87.8347
DTLB LOAD      ACCESS: 18650721  HIT: 18633608  MISS: 17113  HIT %: 99.9082  MISS %: 0.0917552  AVERAGE MISS PENALTY: 109.006
DTLB RFO       ACCESS: 14226791  HIT: 14117787  MISS: 109004  HIT %: 99.2338  MISS %: 0.766188  AVERAGE MISS PENALTY: 84.5109
DTLB PREFETCH  ACCESS:     0  HIT:     0  MISS:     0  HIT %:     0  MISS %:     0  AVERAGE MISS PENALTY: 0
DTLB WRITEBACK ACCESS:     0  HIT:     0  MISS:     0  HIT %:     0  MISS %:     0  AVERAGE MISS PENALTY: 0
DTLB PREFETCH  REQUESTED:     0  ISSUED:     0  USEFUL:     0  USELESS:     0
 USEFUL LOAD PREFETCHES:          0 PREFETCH ISSUED TO LOWER LEVEL:          0  ACCURACY: -nan
 TIMELY PREFETCHES:          0 LATE PREFETCHES: 0 DROPPED PREFETCHES: 0
DTLB AVERAGE MISS LATENCY: 87.8347 cycles
STLB TOTAL     ACCESS: 126117  HIT: 57687  MISS: 68430  HIT %: 45.7409  MISS %: 54.2591  AVERAGE MISS PENALTY: 100
STLB LOAD      ACCESS: 17113  HIT:     0  MISS: 17113  HIT %:     0  MISS %:   100  AVERAGE MISS PENALTY: 100
STLB RFO       ACCESS: 109004  HIT: 57687  MISS: 51317  HIT %: 52.9219  MISS %: 47.0781  AVERAGE MISS PENALTY: 100
STLB PREFETCH  ACCESS:     0  HIT:     0  MISS:     0  HIT %:     0  MISS %:     0  AVERAGE MISS PENALTY: 0
STLB WRITEBACK ACCESS:     0  HIT:     0  MISS:     0  HIT %:     0  MISS %:     0  AVERAGE MISS PENALTY: 0
STLB PREFETCH  REQUESTED:     0  ISSUED:     0  USEFUL:     0  USELESS:     0
 USEFUL LOAD PREFETCHES:          0 PREFETCH ISSUED TO LOWER LEVEL:          0  ACCURACY: -nan
 TIMELY PREFETCHES:          0 LATE PREFETCHES: 0 DROPPED PREFETCHES: 0
STLB AVERAGE MISS LATENCY: 100 cycles
L1D TOTAL     ACCESS: 55770878  HIT: 48543752  MISS: 7227126  HIT %: 87.0414  MISS %: 12.9586  AVERAGE MISS PENALTY: 3.66988e+06
L1D LOAD      ACCESS: 16471284  HIT: 16239762  MISS: 231522  HIT %: 98.5944  MISS %: 1.40561  AVERAGE MISS PENALTY: 1.14549e+08
L1D RFO       ACCESS: 27624071  HIT: 21494697  MISS: 6129374  HIT %: 77.8115  MISS %: 22.1885  AVERAGE MISS PENALTY: 319.393
L1D PREFETCH  ACCESS: 11675523  HIT: 10809293  MISS: 866230  HIT %: 92.5808  MISS %: 7.4192  AVERAGE MISS PENALTY: 236.471
L1D WRITEBACK ACCESS:     0  HIT:     0  MISS:     0  HIT %:     0  MISS %:     0  AVERAGE MISS PENALTY: 0
L1D PREFETCH  REQUESTED: 30540061  ISSUED: 21215072  USEFUL: 863033  USELESS:  3199
 USEFUL LOAD PREFETCHES:     863033 PREFETCH ISSUED TO LOWER LEVEL:  109056888  ACCURACY: 0.79136
 TIMELY PREFETCHES:     863033 LATE PREFETCHES: 305300 DROPPED PREFETCHES: 9324989
L1D AVERAGE MISS LATENCY: 289.442 cycles
L1I TOTAL     ACCESS: 44095590  HIT: 44095590  MISS:     0  HIT %:   100  MISS %:     0  AVERAGE MISS PENALTY: 0
L1I LOAD      ACCESS: 44095590  HIT: 44095590  MISS:     0  HIT %:   100  MISS %:     0  AVERAGE MISS PENALTY: 0
L1I RFO       ACCESS:     0  HIT:     0  MISS:     0  HIT %:     0  MISS %:     0  AVERAGE MISS PENALTY: 0
L1I PREFETCH  ACCESS:     0  HIT:     0  MISS:     0  HIT %:     0  MISS %:     0  AVERAGE MISS PENALTY: 0
L1I WRITEBACK ACCESS:     0  HIT:     0  MISS:     0  HIT %:     0  MISS %:     0  AVERAGE MISS PENALTY: 0
L1I PREFETCH  REQUESTED:     0  ISSUED:     0  USEFUL:     0  USELESS:     0
 USEFUL LOAD PREFETCHES:          0 PREFETCH ISSUED TO LOWER LEVEL:          0  ACCURACY: -nan
 TIMELY PREFETCHES:          0 LATE PREFETCHES: 0 DROPPED PREFETCHES: 0
L1I AVERAGE MISS LATENCY: -nan cycles
L2C TOTAL     ACCESS: 13932766  HIT: 9334181  MISS: 4598585  HIT %: 66.9945  MISS %: 33.0055  AVERAGE MISS PENALTY: 5.71254e+06
L2C LOAD      ACCESS: 223213  HIT: 25022  MISS: 198191  HIT %: 11.2099  MISS %: 88.7901  AVERAGE MISS PENALTY: 1.32536e+08
L2C RFO       ACCESS: 6129373  HIT: 2626066  MISS: 3503307  HIT %: 42.844  MISS %: 57.156  AVERAGE MISS PENALTY: 509.164
L2C PREFETCH  ACCESS: 1450803  HIT: 553771  MISS: 897032  HIT %: 38.17  MISS %: 61.83  AVERAGE MISS PENALTY: 535.956
L2C WRITEBACK ACCESS: 6129377  HIT: 6129322  MISS:    55  HIT %: 99.9991  MISS %: 0.000897318  AVERAGE MISS PENALTY: 0
L2C PREFETCH  REQUESTED: 2641438  ISSUED: 2641435  USEFUL: 25022  USELESS: 872603
 USEFUL LOAD PREFETCHES:      25022 PREFETCH ISSUED TO LOWER LEVEL:    2004582  ACCURACY: 1.24824
 TIMELY PREFETCHES:      25022 LATE PREFETCHES: 221976 DROPPED PREFETCHES: 3
L2C AVERAGE MISS LATENCY: 492.461 cycles
LLC0 TOTAL     ACCESS: 1012431  HIT: 581107  MISS: 431324  HIT %: 57.3972  MISS %: 42.6028  AVERAGE MISS PENALTY: 632.053
LLC0 LOAD      ACCESS: 16868  HIT:     0  MISS: 16868  HIT %:     0  MISS %:   100  AVERAGE MISS PENALTY: 558.106
LLC0 RFO       ACCESS: 437808  HIT: 143745  MISS: 294063  HIT %: 32.8329  MISS %: 67.1671  AVERAGE MISS PENALTY: 669.289
LLC0 PREFETCH  ACCESS: 119947  HIT:     0  MISS: 119947  HIT %:     0  MISS %:   100  AVERAGE MISS PENALTY: 553.515
LLC0 WRITEBACK ACCESS: 437808  HIT: 437362  MISS:   446  HIT %: 99.8981  MISS %: 0.101871  AVERAGE MISS PENALTY: 0
LLC0 PREFETCH  REQUESTED:     0  ISSUED:     0  USEFUL:     0  USELESS: 120200
 USEFUL LOAD PREFETCHES:          0 PREFETCH ISSUED TO LOWER LEVEL:     119947  ACCURACY: 0
 TIMELY PREFETCHES:          0 LATE PREFETCHES: 0 DROPPED PREFETCHES: 0
LLC0 AVERAGE MISS LATENCY: 632.053 cycles
Deadblocks : 16860 Deadblock percentage : 99.9526

LLC1 TOTAL     ACCESS: 1012457  HIT: 580109  MISS: 432348  HIT %: 57.2971  MISS %: 42.7029  AVERAGE MISS PENALTY: 806.055
LLC1 LOAD      ACCESS: 10064  HIT:     8  MISS: 10056  HIT %: 0.0794913  MISS %: 99.9205  AVERAGE MISS PENALTY: 533.764
LLC1 RFO       ACCESS: 437810  HIT: 142922  MISS: 294888  HIT %: 32.6448  MISS %: 67.3552  AVERAGE MISS PENALTY: 919.801
LLC1 PREFETCH  ACCESS: 126761  HIT:     0  MISS: 126761  HIT %:     0  MISS %:   100  AVERAGE MISS PENALTY: 567.133
LLC1 WRITEBACK ACCESS: 437822  HIT: 437179  MISS:   643  HIT %: 99.8531  MISS %: 0.146863  AVERAGE MISS PENALTY: 0
LLC1 PREFETCH  REQUESTED:     0  ISSUED:     0  USEFUL:     0  USELESS: 126586
 USEFUL LOAD PREFETCHES:          0 PREFETCH ISSUED TO LOWER LEVEL:     126762  ACCURACY: 0
 TIMELY PREFETCHES:          0 LATE PREFETCHES: 0 DROPPED PREFETCHES: 0
LLC1 AVERAGE MISS LATENCY: 634.59 cycles
LLC2 TOTAL     ACCESS: 1012458  HIT: 580157  MISS: 432301  HIT %: 57.3018  MISS %: 42.6982  AVERAGE MISS PENALTY: 634.549
LLC2 LOAD      ACCESS:  3897  HIT:     4  MISS:  3893  HIT %: 0.102643  MISS %: 99.8974  AVERAGE MISS PENALTY: 539.876
LLC2 RFO       ACCESS: 437811  HIT: 142898  MISS: 294913  HIT %: 32.6392  MISS %: 67.3608  AVERAGE MISS PENALTY: 666.628
LLC2 PREFETCH  ACCESS: 132928  HIT:     0  MISS: 132928  HIT %:     0  MISS %:   100  AVERAGE MISS PENALTY: 568.859
LLC2 WRITEBACK ACCESS: 437822  HIT: 437255  MISS:   567  HIT %: 99.8705  MISS %: 0.129505  AVERAGE MISS PENALTY: 0
LLC2 PREFETCH  REQUESTED:     0  ISSUED:     0  USEFUL:     0  USELESS: 132638
 USEFUL LOAD PREFETCHES:          0 PREFETCH ISSUED TO LOWER LEVEL:     132929  ACCURACY: 0
 TIMELY PREFETCHES:          0 LATE PREFETCHES: 0 DROPPED PREFETCHES: 0
LLC2 AVERAGE MISS LATENCY: 634.549 cycles
LLC3 TOTAL     ACCESS: 1012464  HIT: 580601  MISS: 431863  HIT %: 57.3453  MISS %: 42.6547  AVERAGE MISS PENALTY: 639.123
LLC3 LOAD      ACCESS:   385  HIT:     7  MISS:   378  HIT %: 1.81818  MISS %: 98.1818  AVERAGE MISS PENALTY: 622.28
LLC3 RFO       ACCESS: 437814  HIT: 143187  MISS: 294627  HIT %: 32.705  MISS %: 67.295  AVERAGE MISS PENALTY: 671.707
LLC3 PREFETCH  ACCESS: 136440  HIT:     0  MISS: 136440  HIT %:     0  MISS %:   100  AVERAGE MISS PENALTY: 570.766
LLC3 WRITEBACK ACCESS: 437825  HIT: 437407  MISS:   418  HIT %: 99.9045  MISS %: 0.0954719  AVERAGE MISS PENALTY: 0
LLC3 PREFETCH  REQUESTED:     0  ISSUED:     0  USEFUL:     0  USELESS: 136308
 USEFUL LOAD PREFETCHES:          0 PREFETCH ISSUED TO LOWER LEVEL:     136441  ACCURACY: 0
 TIMELY PREFETCHES:          0 LATE PREFETCHES: 0 DROPPED PREFETCHES: 0
LLC3 AVERAGE MISS LATENCY: 639.123 cycles
LLC4 TOTAL     ACCESS: 1013529  HIT: 584409  MISS: 429120  HIT %: 57.6608  MISS %: 42.3392  AVERAGE MISS PENALTY: 641.736
LLC4 LOAD      ACCESS:   354  HIT:     0  MISS:   354  HIT %:     0  MISS %:   100  AVERAGE MISS PENALTY: 626.141
LLC4 RFO       ACCESS: 438226  HIT: 146372  MISS: 291854  HIT %: 33.401  MISS %: 66.599  AVERAGE MISS PENALTY: 674.658
LLC4 PREFETCH  ACCESS: 136711  HIT:   245  MISS: 136466  HIT %: 0.17921  MISS %: 99.8208  AVERAGE MISS PENALTY: 573.465
LLC4 WRITEBACK ACCESS: 438238  HIT: 437792  MISS:   446  HIT %: 99.8982  MISS %: 0.101771  AVERAGE MISS PENALTY: 0
LLC4 PREFETCH  REQUESTED:     0  ISSUED:     0  USEFUL:     0  USELESS: 136292
 USEFUL LOAD PREFETCHES:          0 PREFETCH ISSUED TO LOWER LEVEL:     136467  ACCURACY: 0
 TIMELY PREFETCHES:          0 LATE PREFETCHES: 0 DROPPED PREFETCHES: 0
LLC4 AVERAGE MISS LATENCY: 641.736 cycles
LLC5 TOTAL     ACCESS: 1013522  HIT: 582968  MISS: 430554  HIT %: 57.519  MISS %: 42.481  AVERAGE MISS PENALTY: 641.038
LLC5 LOAD      ACCESS:   461  HIT:     0  MISS:   461  HIT %:     0  MISS %:   100  AVERAGE MISS PENALTY: 647.905
LLC5 RFO       ACCESS: 438223  HIT: 144737  MISS: 293486  HIT %: 33.0282  MISS %: 66.9718  AVERAGE MISS PENALTY: 674.143
LLC5 PREFETCH  ACCESS: 136603  HIT:   246  MISS: 136357  HIT %: 0.180084  MISS %: 99.8199  AVERAGE MISS PENALTY: 570.939
LLC5 WRITEBACK ACCESS: 438235  HIT: 437985  MISS:   250  HIT %: 99.943  MISS %: 0.057047  AVERAGE MISS PENALTY: 0
LLC5 PREFETCH  REQUESTED:     0  ISSUED:     0  USEFUL:     0  USELESS: 136183
 USEFUL LOAD PREFETCHES:          0 PREFETCH ISSUED TO LOWER LEVEL:     136358  ACCURACY: 0
 TIMELY PREFETCHES:          0 LATE PREFETCHES: 0 DROPPED PREFETCHES: 0
LLC5 AVERAGE MISS LATENCY: 641.038 cycles
LLC6 TOTAL     ACCESS: 1012518  HIT: 581113  MISS: 431405  HIT %: 57.3929  MISS %: 42.6071  AVERAGE MISS PENALTY: 641.603
LLC6 LOAD      ACCESS:   340  HIT:     0  MISS:   340  HIT %:     0  MISS %:   100  AVERAGE MISS PENALTY: 626.921
LLC6 RFO       ACCESS: 437808  HIT: 143618  MISS: 294190  HIT %: 32.8039  MISS %: 67.1961  AVERAGE MISS PENALTY: 675.673
LLC6 PREFETCH  ACCESS: 136562  HIT:    86  MISS: 136476  HIT %: 0.0629751  MISS %: 99.937  AVERAGE MISS PENALTY: 570.073
LLC6 WRITEBACK ACCESS: 437808  HIT: 437409  MISS:   399  HIT %: 99.9089  MISS %: 0.0911358  AVERAGE MISS PENALTY: 0
LLC6 PREFETCH  REQUESTED:     0  ISSUED:     0  USEFUL:     0  USELESS: 136275
 USEFUL LOAD PREFETCHES:          0 PREFETCH ISSUED TO LOWER LEVEL:     136477  ACCURACY: 0
 TIMELY PREFETCHES:          0 LATE PREFETCHES: 0 DROPPED PREFETCHES: 0
LLC6 AVERAGE MISS LATENCY: 641.603 cycles
LLC7 TOTAL     ACCESS: 1012516  HIT: 581215  MISS: 431301  HIT %: 57.403  MISS %: 42.597  AVERAGE MISS PENALTY: 642.641
LLC7 LOAD      ACCESS:   357  HIT:     0  MISS:   357  HIT %:     0  MISS %:   100  AVERAGE MISS PENALTY: 635.992
LLC7 RFO       ACCESS: 437807  HIT: 143507  MISS: 294300  HIT %: 32.7786  MISS %: 67.2214  AVERAGE MISS PENALTY: 679.48
LLC7 PREFETCH  ACCESS: 136545  HIT:    86  MISS: 136459  HIT %: 0.0629829  MISS %: 99.937  AVERAGE MISS PENALTY: 564.078
LLC7 WRITEBACK ACCESS: 437807  HIT: 437622  MISS:   185  HIT %: 99.9577  MISS %: 0.0422561  AVERAGE MISS PENALTY: 0
LLC7 PREFETCH  REQUESTED:     0  ISSUED:     0  USEFUL:     0  USELESS: 136254
 USEFUL LOAD PREFETCHES:          0 PREFETCH ISSUED TO LOWER LEVEL:     136459  ACCURACY: 0
 TIMELY PREFETCHES:          0 LATE PREFETCHES: 0 DROPPED PREFETCHES: 0
LLC7 AVERAGE MISS LATENCY: 642.641 cycles
ROI Average ROB Stall Cycles:	9.37894
ROI Total ROB Stalls Cycles:	118318976
ROI TOTAL ROB counter      :	12615391
ROI Average Load ROB Stall Cycles:	53.1544
ROI Total Load ROB Stalls Cycle  :	65525975
ROI Total Load ROB stalls Counter:	1232748
Major fault: 0 Minor fault: 86710

