
*** ChampSim Multicore Out-of-Order Simulator ***

Warmup Instructions: 200000000
Simulation Instructions: 200000000
Number of CPUs: 1
threads:1

L1I Configuration:
L1I_SET:64
L1I_WAY:8
L1I_RQ_SIZE:64
L1I_WQ_SIZE:64
L1I_PQ_SIZE:8
L1I_MSHR_SIZE:8

L1D Configuration:
L1D_SET:64
L1D_WAY:12
L1D_RQ_SIZE:64
L1D_WQ_SIZE:64
L1D_PQ_SIZE:8
L1D_MSHR_SIZE:16

L2C Configuration:
L2C_SET:1024
L2C_WAY:8
L2C_RQ_SIZE:32
L2C_WQ_SIZE:32
L2C_PQ_SIZE:16
L2C_MSHR_SIZE:32

LLC Configuration:
LLC_SET:4096
LLC_WAY:16
LLC SLICES:8
LLC_RQ_SIZE:64
LLC_WQ_SIZE:64
LLC_PQ_SIZE:32
LLC_MSHR_SIZE:64

Interconnect OFF
Attacker deprioritize is: OFF
Off-chip DRAM Size: 4096 MB Channels: 1 Width: 64-bit Data Rate: 3200 MT/s
PAGE SIZE in KB: 4.000000 
PAGE SIZE in MB: 0.003906 
PAGE offset in bits: 12 
CEASER-S_LLC:0
MIRAGE : 0
CEASER_LATENCY:3
REMAP : OFF
Partitions : 1
Multi-Step : OFF
BFS : OFF

CPU 0 runs /home/anubhav/spec_2017/620.omnetpp_s-141B.champsimtrace.xz
CPU 0 Bimodal branch predictor
Initialize Hawkeye state
Initialize Hawkeye state
Initialize Hawkeye state
Initialize Hawkeye state
Initialize Hawkeye state
Initialize Hawkeye state
Initialize Hawkeye state
Initialize Hawkeye state
Heartbeat CPU 0 instructions: 10000000 cycles: 9266542 heartbeat IPC: 1.07915 cumulative IPC: 1.07915 (Simulation time: 0 hr 3 min 47 sec) 
 Total Blocks : 524288 Invalid Blocks : 344457
Heartbeat CPU 0 instructions: 20000000 cycles: 18636781 heartbeat IPC: 1.06721 cumulative IPC: 1.07315 (Simulation time: 0 hr 9 min 26 sec) 
 Total Blocks : 524288 Invalid Blocks : 239833
Heartbeat CPU 0 instructions: 30000003 cycles: 28180613 heartbeat IPC: 1.0478 cumulative IPC: 1.06456 (Simulation time: 0 hr 15 min 1 sec) 
 Total Blocks : 524288 Invalid Blocks : 172098
Heartbeat CPU 0 instructions: 40000001 cycles: 37580395 heartbeat IPC: 1.06385 cumulative IPC: 1.06438 (Simulation time: 0 hr 19 min 55 sec) 
 Total Blocks : 524288 Invalid Blocks : 126052
Heartbeat CPU 0 instructions: 50000000 cycles: 47174090 heartbeat IPC: 1.04235 cumulative IPC: 1.0599 (Simulation time: 0 hr 24 min 45 sec) 
 Total Blocks : 524288 Invalid Blocks : 92832
Heartbeat CPU 0 instructions: 60000001 cycles: 56453742 heartbeat IPC: 1.07763 cumulative IPC: 1.06282 (Simulation time: 0 hr 28 min 53 sec) 
 Total Blocks : 524288 Invalid Blocks : 69739
Heartbeat CPU 0 instructions: 70000000 cycles: 65897728 heartbeat IPC: 1.05887 cumulative IPC: 1.06225 (Simulation time: 0 hr 32 min 32 sec) 
 Total Blocks : 524288 Invalid Blocks : 52714
Heartbeat CPU 0 instructions: 80000000 cycles: 75342303 heartbeat IPC: 1.05881 cumulative IPC: 1.06182 (Simulation time: 0 hr 35 min 34 sec) 
 Total Blocks : 524288 Invalid Blocks : 40463
Heartbeat CPU 0 instructions: 90000002 cycles: 84710691 heartbeat IPC: 1.06742 cumulative IPC: 1.06244 (Simulation time: 0 hr 38 min 36 sec) 
 Total Blocks : 524288 Invalid Blocks : 31331
Heartbeat CPU 0 instructions: 100000000 cycles: 94129208 heartbeat IPC: 1.06174 cumulative IPC: 1.06237 (Simulation time: 0 hr 41 min 44 sec) 
 Total Blocks : 524288 Invalid Blocks : 24537
Heartbeat CPU 0 instructions: 110000000 cycles: 103430261 heartbeat IPC: 1.07515 cumulative IPC: 1.06352 (Simulation time: 0 hr 44 min 41 sec) 
 Total Blocks : 524288 Invalid Blocks : 19384
Heartbeat CPU 0 instructions: 120000000 cycles: 112768423 heartbeat IPC: 1.07087 cumulative IPC: 1.06413 (Simulation time: 0 hr 47 min 33 sec) 
 Total Blocks : 524288 Invalid Blocks : 15362
Heartbeat CPU 0 instructions: 130000000 cycles: 122059459 heartbeat IPC: 1.07631 cumulative IPC: 1.06505 (Simulation time: 0 hr 50 min 19 sec) 
 Total Blocks : 524288 Invalid Blocks : 12038
Heartbeat CPU 0 instructions: 140000000 cycles: 131470871 heartbeat IPC: 1.06254 cumulative IPC: 1.06487 (Simulation time: 0 hr 53 min 12 sec) 
 Total Blocks : 524288 Invalid Blocks : 9701
Heartbeat CPU 0 instructions: 150000002 cycles: 140831765 heartbeat IPC: 1.06827 cumulative IPC: 1.0651 (Simulation time: 0 hr 55 min 57 sec) 
 Total Blocks : 524288 Invalid Blocks : 7849
Heartbeat CPU 0 instructions: 160000000 cycles: 150227289 heartbeat IPC: 1.06434 cumulative IPC: 1.06505 (Simulation time: 0 hr 58 min 47 sec) 
 Total Blocks : 524288 Invalid Blocks : 6423
Heartbeat CPU 0 instructions: 170000002 cycles: 159603031 heartbeat IPC: 1.06658 cumulative IPC: 1.06514 (Simulation time: 1 hr 1 min 23 sec) 
 Total Blocks : 524288 Invalid Blocks : 5272
Heartbeat CPU 0 instructions: 180000000 cycles: 168914804 heartbeat IPC: 1.07391 cumulative IPC: 1.06563 (Simulation time: 1 hr 3 min 53 sec) 
 Total Blocks : 524288 Invalid Blocks : 4340
Heartbeat CPU 0 instructions: 190000003 cycles: 178215038 heartbeat IPC: 1.07524 cumulative IPC: 1.06613 (Simulation time: 1 hr 7 min 53 sec) 
 Total Blocks : 524288 Invalid Blocks : 3560
Heartbeat CPU 0 instructions: 200000001 cycles: 187515227 heartbeat IPC: 1.07525 cumulative IPC: 1.06658 (Simulation time: 1 hr 10 min 35 sec) 
 Total Blocks : 524288 Invalid Blocks : 2983

Warmup complete CPU 0 instructions: 200000001 cycles: 187515227 (Simulation time: 1 hr 10 min 35 sec) 

Heartbeat CPU 0 instructions: 210000003 cycles: 230247081 heartbeat IPC: 0.234018 cumulative IPC: 0.234018 (Simulation time: 1 hr 18 min 1 sec) 
 Total Blocks : 524288 Invalid Blocks : 2491
Heartbeat CPU 0 instructions: 220000000 cycles: 273012445 heartbeat IPC: 0.233834 cumulative IPC: 0.233926 (Simulation time: 1 hr 25 min 32 sec) 
 Total Blocks : 524288 Invalid Blocks : 2082
Heartbeat CPU 0 instructions: 230000000 cycles: 316027651 heartbeat IPC: 0.232476 cumulative IPC: 0.23344 (Simulation time: 1 hr 33 min 3 sec) 
 Total Blocks : 524288 Invalid Blocks : 1765
Heartbeat CPU 0 instructions: 240000000 cycles: 358866152 heartbeat IPC: 0.233435 cumulative IPC: 0.233439 (Simulation time: 1 hr 40 min 15 sec) 
 Total Blocks : 524288 Invalid Blocks : 1547
Heartbeat CPU 0 instructions: 250000001 cycles: 400945123 heartbeat IPC: 0.237648 cumulative IPC: 0.234269 (Simulation time: 1 hr 47 min 1 sec) 
 Total Blocks : 524288 Invalid Blocks : 1330
Heartbeat CPU 0 instructions: 260000000 cycles: 443060942 heartbeat IPC: 0.23744 cumulative IPC: 0.234792 (Simulation time: 1 hr 53 min 35 sec) 
 Total Blocks : 524288 Invalid Blocks : 1175
Heartbeat CPU 0 instructions: 270000002 cycles: 485784819 heartbeat IPC: 0.234061 cumulative IPC: 0.234687 (Simulation time: 2 hr 0 min 2 sec) 
 Total Blocks : 524288 Invalid Blocks : 1029
Heartbeat CPU 0 instructions: 280000000 cycles: 529075026 heartbeat IPC: 0.230999 cumulative IPC: 0.23422 (Simulation time: 2 hr 6 min 29 sec) 
 Total Blocks : 524288 Invalid Blocks : 897
Heartbeat CPU 0 instructions: 290000001 cycles: 571852307 heartbeat IPC: 0.233769 cumulative IPC: 0.234169 (Simulation time: 2 hr 12 min 34 sec) 
 Total Blocks : 524288 Invalid Blocks : 806
Heartbeat CPU 0 instructions: 300000002 cycles: 614181793 heartbeat IPC: 0.236242 cumulative IPC: 0.234375 (Simulation time: 2 hr 18 min 16 sec) 
 Total Blocks : 524288 Invalid Blocks : 750
Heartbeat CPU 0 instructions: 310000000 cycles: 657238113 heartbeat IPC: 0.232254 cumulative IPC: 0.234181 (Simulation time: 2 hr 23 min 29 sec) 
 Total Blocks : 524288 Invalid Blocks : 687
Heartbeat CPU 0 instructions: 320000000 cycles: 700026788 heartbeat IPC: 0.233707 cumulative IPC: 0.234141 (Simulation time: 2 hr 28 min 34 sec) 
 Total Blocks : 524288 Invalid Blocks : 630
Heartbeat CPU 0 instructions: 330000000 cycles: 742868733 heartbeat IPC: 0.233416 cumulative IPC: 0.234085 (Simulation time: 2 hr 33 min 29 sec) 
 Total Blocks : 524288 Invalid Blocks : 570
Heartbeat CPU 0 instructions: 340000000 cycles: 784695099 heartbeat IPC: 0.239084 cumulative IPC: 0.234435 (Simulation time: 2 hr 38 min 0 sec) 
 Total Blocks : 524288 Invalid Blocks : 526
Heartbeat CPU 0 instructions: 350000000 cycles: 827810633 heartbeat IPC: 0.231935 cumulative IPC: 0.234267 (Simulation time: 2 hr 42 min 25 sec) 
 Total Blocks : 524288 Invalid Blocks : 486
Heartbeat CPU 0 instructions: 360000000 cycles: 870136338 heartbeat IPC: 0.236263 cumulative IPC: 0.234391 (Simulation time: 2 hr 46 min 39 sec) 
 Total Blocks : 524288 Invalid Blocks : 459
Heartbeat CPU 0 instructions: 370000000 cycles: 912723695 heartbeat IPC: 0.234811 cumulative IPC: 0.234415 (Simulation time: 2 hr 50 min 50 sec) 
 Total Blocks : 524288 Invalid Blocks : 432
Heartbeat CPU 0 instructions: 380000003 cycles: 954867193 heartbeat IPC: 0.237285 cumulative IPC: 0.234573 (Simulation time: 2 hr 54 min 7 sec) 
 Total Blocks : 524288 Invalid Blocks : 405
Heartbeat CPU 0 instructions: 390000000 cycles: 997147452 heartbeat IPC: 0.236517 cumulative IPC: 0.234674 (Simulation time: 2 hr 56 min 29 sec) 
 Total Blocks : 524288 Invalid Blocks : 388
Heartbeat CPU 0 instructions: 400000000 cycles: 1039505228 heartbeat IPC: 0.236084 cumulative IPC: 0.234745 (Simulation time: 2 hr 58 min 50 sec) 
 Total Blocks : 524288 Invalid Blocks : 369
Finished CPU 0 instructions: 200000003 cycles: 851990003 cumulative IPC: 0.234745 (Simulation time: 2 hr 58 min 50 sec) 

CPU 0 Branch Prediction Accuracy: 92.9878% MPKI: 10.4667 Average ROB Occupancy at Mispredict: 85.4176

ChampSim completed all CPUs

Region of Interest Statistics

CPU 0 cumulative IPC: 0.234745 instructions: 200000003 cycles: 851990003
ITLB TOTAL     ACCESS: 32523087  HIT: 32211593  MISS: 311494  HIT %: 99.0422  MISS %: 0.957763  AVERAGE MISS PENALTY: 11.1539
ITLB LOAD      ACCESS: 32523087  HIT: 32211593  MISS: 311494  HIT %: 99.0422  MISS %: 0.957763  AVERAGE MISS PENALTY: 11.1539
ITLB RFO       ACCESS:     0  HIT:     0  MISS:     0  HIT %:     0  MISS %:     0  AVERAGE MISS PENALTY: 0
ITLB PREFETCH  ACCESS:     0  HIT:     0  MISS:     0  HIT %:     0  MISS %:     0  AVERAGE MISS PENALTY: 0
ITLB WRITEBACK ACCESS:     0  HIT:     0  MISS:     0  HIT %:     0  MISS %:     0  AVERAGE MISS PENALTY: 0
ITLB PREFETCH  REQUESTED:     0  ISSUED:     0  USEFUL:     0  USELESS:     0
 USEFUL LOAD PREFETCHES:          0 PREFETCH ISSUED TO LOWER LEVEL:          0  ACCURACY: -nan
 TIMELY PREFETCHES:          0 LATE PREFETCHES: 0 DROPPED PREFETCHES: 0
ITLB AVERAGE MISS LATENCY: 11.1539 cycles
DTLB TOTAL     ACCESS: 81533652  HIT: 77383514  MISS: 4150138  HIT %: 94.9099  MISS %: 5.09009  AVERAGE MISS PENALTY: 37.342
DTLB LOAD      ACCESS: 50337180  HIT: 46686011  MISS: 3651169  HIT %: 92.7466  MISS %: 7.25342  AVERAGE MISS PENALTY: 34.7362
DTLB RFO       ACCESS: 31196472  HIT: 30697503  MISS: 498969  HIT %: 98.4006  MISS %: 1.59944  AVERAGE MISS PENALTY: 56.4103
DTLB PREFETCH  ACCESS:     0  HIT:     0  MISS:     0  HIT %:     0  MISS %:     0  AVERAGE MISS PENALTY: 0
DTLB WRITEBACK ACCESS:     0  HIT:     0  MISS:     0  HIT %:     0  MISS %:     0  AVERAGE MISS PENALTY: 0
DTLB PREFETCH  REQUESTED:     0  ISSUED:     0  USEFUL:     0  USELESS:     0
 USEFUL LOAD PREFETCHES:          0 PREFETCH ISSUED TO LOWER LEVEL:          0  ACCURACY: -nan
 TIMELY PREFETCHES:          0 LATE PREFETCHES: 0 DROPPED PREFETCHES: 0
DTLB AVERAGE MISS LATENCY: 37.342 cycles
STLB TOTAL     ACCESS: 4461632  HIT: 3499917  MISS: 961715  HIT %: 78.4448  MISS %: 21.5552  AVERAGE MISS PENALTY: 100
STLB LOAD      ACCESS: 3962663  HIT: 3184993  MISS: 777670  HIT %: 80.3751  MISS %: 19.6249  AVERAGE MISS PENALTY: 100
STLB RFO       ACCESS: 498969  HIT: 314924  MISS: 184045  HIT %: 63.1149  MISS %: 36.8851  AVERAGE MISS PENALTY: 100
STLB PREFETCH  ACCESS:     0  HIT:     0  MISS:     0  HIT %:     0  MISS %:     0  AVERAGE MISS PENALTY: 0
STLB WRITEBACK ACCESS:     0  HIT:     0  MISS:     0  HIT %:     0  MISS %:     0  AVERAGE MISS PENALTY: 0
STLB PREFETCH  REQUESTED:     0  ISSUED:     0  USEFUL:     0  USELESS:     0
 USEFUL LOAD PREFETCHES:          0 PREFETCH ISSUED TO LOWER LEVEL:          0  ACCURACY: -nan
 TIMELY PREFETCHES:          0 LATE PREFETCHES: 0 DROPPED PREFETCHES: 0
STLB AVERAGE MISS LATENCY: 100 cycles
L1D TOTAL     ACCESS: 121002741  HIT: 113002953  MISS: 7999788  HIT %: 93.3888  MISS %: 6.61125  AVERAGE MISS PENALTY: 4.62669e+06
L1D LOAD      ACCESS: 53257273  HIT: 50136046  MISS: 3121227  HIT %: 94.1393  MISS %: 5.86066  AVERAGE MISS PENALTY: 1.04469e+07
L1D RFO       ACCESS: 36834900  HIT: 36540911  MISS: 293989  HIT %: 99.2019  MISS %: 0.798126  AVERAGE MISS PENALTY: 1.4983e+07
L1D PREFETCH  ACCESS: 30910568  HIT: 26325996  MISS: 4584572  HIT %: 85.1683  MISS %: 14.8317  AVERAGE MISS PENALTY: 98.6084
L1D WRITEBACK ACCESS:     0  HIT:     0  MISS:     0  HIT %:     0  MISS %:     0  AVERAGE MISS PENALTY: 0
L1D PREFETCH  REQUESTED: 34441741  ISSUED: 34256958  USEFUL: 663980  USELESS: 3920430
 USEFUL LOAD PREFETCHES:     663980 PREFETCH ISSUED TO LOWER LEVEL:    5334203  ACCURACY: 12.4476
 TIMELY PREFETCHES:     663980 LATE PREFETCHES: 529989 DROPPED PREFETCHES: 184783
L1D AVERAGE MISS LATENCY: 550706 cycles
L1I TOTAL     ACCESS: 42818095  HIT: 42692790  MISS: 125305  HIT %: 99.7074  MISS %: 0.292645  AVERAGE MISS PENALTY: 26.6523
L1I LOAD      ACCESS: 42818095  HIT: 42692790  MISS: 125305  HIT %: 99.7074  MISS %: 0.292645  AVERAGE MISS PENALTY: 26.6523
L1I RFO       ACCESS:     0  HIT:     0  MISS:     0  HIT %:     0  MISS %:     0  AVERAGE MISS PENALTY: 0
L1I PREFETCH  ACCESS:     0  HIT:     0  MISS:     0  HIT %:     0  MISS %:     0  AVERAGE MISS PENALTY: 0
L1I WRITEBACK ACCESS:     0  HIT:     0  MISS:     0  HIT %:     0  MISS %:     0  AVERAGE MISS PENALTY: 0
L1I PREFETCH  REQUESTED:     0  ISSUED:     0  USEFUL:     0  USELESS:     0
 USEFUL LOAD PREFETCHES:          0 PREFETCH ISSUED TO LOWER LEVEL:          0  ACCURACY: -nan
 TIMELY PREFETCHES:          0 LATE PREFETCHES: 0 DROPPED PREFETCHES: 0
L1I AVERAGE MISS LATENCY: 26.6523 cycles
L2C TOTAL     ACCESS: 13267692  HIT: 6326592  MISS: 6941100  HIT %: 47.6842  MISS %: 52.3158  AVERAGE MISS PENALTY: 4.07066e+06
L2C LOAD      ACCESS: 3240262  HIT: 1314076  MISS: 1926186  HIT %: 40.5546  MISS %: 59.4454  AVERAGE MISS PENALTY: 1.44518e+07
L2C RFO       ACCESS: 286777  HIT: 94878  MISS: 191899  HIT %: 33.0842  MISS %: 66.9158  AVERAGE MISS PENALTY: 2.17543e+06
L2C PREFETCH  ACCESS: 7776115  HIT: 2960279  MISS: 4815836  HIT %: 38.0689  MISS %: 61.9311  AVERAGE MISS PENALTY: 115.527
L2C WRITEBACK ACCESS: 1964538  HIT: 1957359  MISS:  7179  HIT %: 99.6346  MISS %: 0.365429  AVERAGE MISS PENALTY: 0
L2C PREFETCH  REQUESTED: 5199988  ISSUED: 5130138  USEFUL: 368642  USELESS: 4446241
 USEFUL LOAD PREFETCHES:     368642 PREFETCH ISSUED TO LOWER LEVEL:    5058838  ACCURACY: 7.28709
 TIMELY PREFETCHES:     368642 LATE PREFETCHES: 207274 DROPPED PREFETCHES: 69850
L2C AVERAGE MISS LATENCY: 109.371 cycles
LLC0 TOTAL     ACCESS: 1016236  HIT: 682273  MISS: 333963  HIT %: 67.1373  MISS %: 32.8627  AVERAGE MISS PENALTY: 170.585
LLC0 LOAD      ACCESS: 247656  HIT: 165622  MISS: 82034  HIT %: 66.8758  MISS %: 33.1242  AVERAGE MISS PENALTY: 167.296
LLC0 RFO       ACCESS: 26580  HIT: 19287  MISS:  7293  HIT %: 72.5621  MISS %: 27.4379  AVERAGE MISS PENALTY: 172.187
LLC0 PREFETCH  ACCESS: 555447  HIT: 311226  MISS: 244221  HIT %: 56.0316  MISS %: 43.9684  AVERAGE MISS PENALTY: 171.932
LLC0 WRITEBACK ACCESS: 186553  HIT: 186138  MISS:   415  HIT %: 99.7775  MISS %: 0.222457  AVERAGE MISS PENALTY: 0
LLC0 PREFETCH  REQUESTED:     0  ISSUED:     0  USEFUL: 18444  USELESS: 222790
 USEFUL LOAD PREFETCHES:      18444 PREFETCH ISSUED TO LOWER LEVEL:     244221  ACCURACY: 7.55218
 TIMELY PREFETCHES:      18444 LATE PREFETCHES: 0 DROPPED PREFETCHES: 0
LLC0 AVERAGE MISS LATENCY: 170.585 cycles
Deadblocks : 65245 Deadblock percentage : 79.5341

LLC1 TOTAL     ACCESS: 1041429  HIT: 696096  MISS: 345333  HIT %: 66.8405  MISS %: 33.1595  AVERAGE MISS PENALTY: 170.732
LLC1 LOAD      ACCESS: 237892  HIT: 157698  MISS: 80194  HIT %: 66.2897  MISS %: 33.7103  AVERAGE MISS PENALTY: 167.423
LLC1 RFO       ACCESS: 24206  HIT: 17182  MISS:  7024  HIT %: 70.9824  MISS %: 29.0176  AVERAGE MISS PENALTY: 172.726
LLC1 PREFETCH  ACCESS: 592419  HIT: 334650  MISS: 257769  HIT %: 56.4887  MISS %: 43.5113  AVERAGE MISS PENALTY: 171.936
LLC1 WRITEBACK ACCESS: 186912  HIT: 186566  MISS:   346  HIT %: 99.8149  MISS %: 0.185114  AVERAGE MISS PENALTY: 0
LLC1 PREFETCH  REQUESTED:     0  ISSUED:     0  USEFUL: 19589  USELESS: 234634
 USEFUL LOAD PREFETCHES:      19589 PREFETCH ISSUED TO LOWER LEVEL:     257769  ACCURACY: 7.59944
 TIMELY PREFETCHES:      19589 LATE PREFETCHES: 0 DROPPED PREFETCHES: 0
LLC1 AVERAGE MISS LATENCY: 170.732 cycles
LLC2 TOTAL     ACCESS: 1059753  HIT: 705779  MISS: 353974  HIT %: 66.5984  MISS %: 33.4016  AVERAGE MISS PENALTY: 170.917
LLC2 LOAD      ACCESS: 234914  HIT: 155088  MISS: 79826  HIT %: 66.0191  MISS %: 33.9809  AVERAGE MISS PENALTY: 167.68
LLC2 RFO       ACCESS: 23168  HIT: 16330  MISS:  6838  HIT %: 70.4852  MISS %: 29.5148  AVERAGE MISS PENALTY: 172.458
LLC2 PREFETCH  ACCESS: 613756  HIT: 346766  MISS: 266990  HIT %: 56.499  MISS %: 43.501  AVERAGE MISS PENALTY: 172.05
LLC2 WRITEBACK ACCESS: 187915  HIT: 187595  MISS:   320  HIT %: 99.8297  MISS %: 0.17029  AVERAGE MISS PENALTY: 0
LLC2 PREFETCH  REQUESTED:     0  ISSUED:     0  USEFUL: 19993  USELESS: 242871
 USEFUL LOAD PREFETCHES:      19993 PREFETCH ISSUED TO LOWER LEVEL:     266990  ACCURACY: 7.4883
 TIMELY PREFETCHES:      19993 LATE PREFETCHES: 0 DROPPED PREFETCHES: 0
LLC2 AVERAGE MISS LATENCY: 170.917 cycles
LLC3 TOTAL     ACCESS: 1062425  HIT: 707558  MISS: 354867  HIT %: 66.5984  MISS %: 33.4016  AVERAGE MISS PENALTY: 170.945
LLC3 LOAD      ACCESS: 235240  HIT: 155564  MISS: 79676  HIT %: 66.1299  MISS %: 33.8701  AVERAGE MISS PENALTY: 167.281
LLC3 RFO       ACCESS: 23420  HIT: 16463  MISS:  6957  HIT %: 70.2946  MISS %: 29.7054  AVERAGE MISS PENALTY: 172.558
LLC3 PREFETCH  ACCESS: 615429  HIT: 347527  MISS: 267902  HIT %: 56.4691  MISS %: 43.5309  AVERAGE MISS PENALTY: 172.205
LLC3 WRITEBACK ACCESS: 188336  HIT: 188004  MISS:   332  HIT %: 99.8237  MISS %: 0.176281  AVERAGE MISS PENALTY: 0
LLC3 PREFETCH  REQUESTED:     0  ISSUED:     0  USEFUL: 20201  USELESS: 243841
 USEFUL LOAD PREFETCHES:      20201 PREFETCH ISSUED TO LOWER LEVEL:     267902  ACCURACY: 7.54044
 TIMELY PREFETCHES:      20201 LATE PREFETCHES: 0 DROPPED PREFETCHES: 0
LLC3 AVERAGE MISS LATENCY: 170.945 cycles
LLC4 TOTAL     ACCESS: 1063405  HIT: 709491  MISS: 353914  HIT %: 66.7188  MISS %: 33.2812  AVERAGE MISS PENALTY: 170.932
LLC4 LOAD      ACCESS: 238675  HIT: 159271  MISS: 79404  HIT %: 66.7313  MISS %: 33.2687  AVERAGE MISS PENALTY: 167.64
LLC4 RFO       ACCESS: 23459  HIT: 16511  MISS:  6948  HIT %: 70.3824  MISS %: 29.6176  AVERAGE MISS PENALTY: 172.381
LLC4 PREFETCH  ACCESS: 615546  HIT: 348277  MISS: 267269  HIT %: 56.5802  MISS %: 43.4198  AVERAGE MISS PENALTY: 172.06
LLC4 WRITEBACK ACCESS: 185725  HIT: 185432  MISS:   293  HIT %: 99.8422  MISS %: 0.15776  AVERAGE MISS PENALTY: 0
LLC4 PREFETCH  REQUESTED:     0  ISSUED:     0  USEFUL: 20079  USELESS: 243137
 USEFUL LOAD PREFETCHES:      20079 PREFETCH ISSUED TO LOWER LEVEL:     267269  ACCURACY: 7.51266
 TIMELY PREFETCHES:      20079 LATE PREFETCHES: 0 DROPPED PREFETCHES: 0
LLC4 AVERAGE MISS LATENCY: 170.932 cycles
LLC5 TOTAL     ACCESS: 1060981  HIT: 707193  MISS: 353788  HIT %: 66.6546  MISS %: 33.3454  AVERAGE MISS PENALTY: 170.952
LLC5 LOAD      ACCESS: 234010  HIT: 154716  MISS: 79294  HIT %: 66.1151  MISS %: 33.8849  AVERAGE MISS PENALTY: 167.618
LLC5 RFO       ACCESS: 23548  HIT: 16529  MISS:  7019  HIT %: 70.1928  MISS %: 29.8072  AVERAGE MISS PENALTY: 172.138
LLC5 PREFETCH  ACCESS: 618038  HIT: 350853  MISS: 267185  HIT %: 56.7688  MISS %: 43.2312  AVERAGE MISS PENALTY: 172.096
LLC5 WRITEBACK ACCESS: 185385  HIT: 185095  MISS:   290  HIT %: 99.8436  MISS %: 0.156431  AVERAGE MISS PENALTY: 0
LLC5 PREFETCH  REQUESTED:     0  ISSUED:     0  USEFUL: 20084  USELESS: 243065
 USEFUL LOAD PREFETCHES:      20084 PREFETCH ISSUED TO LOWER LEVEL:     267185  ACCURACY: 7.51689
 TIMELY PREFETCHES:      20084 LATE PREFETCHES: 0 DROPPED PREFETCHES: 0
LLC5 AVERAGE MISS LATENCY: 170.952 cycles
LLC6 TOTAL     ACCESS: 1064364  HIT: 711223  MISS: 353141  HIT %: 66.8214  MISS %: 33.1786  AVERAGE MISS PENALTY: 170.997
LLC6 LOAD      ACCESS: 241272  HIT: 161046  MISS: 80226  HIT %: 66.7487  MISS %: 33.2513  AVERAGE MISS PENALTY: 167.562
LLC6 RFO       ACCESS: 23444  HIT: 16497  MISS:  6947  HIT %: 70.3677  MISS %: 29.6323  AVERAGE MISS PENALTY: 172.29
LLC6 PREFETCH  ACCESS: 610993  HIT: 345383  MISS: 265610  HIT %: 56.5281  MISS %: 43.4719  AVERAGE MISS PENALTY: 172.231
LLC6 WRITEBACK ACCESS: 188655  HIT: 188297  MISS:   358  HIT %: 99.8102  MISS %: 0.189764  AVERAGE MISS PENALTY: 0
LLC6 PREFETCH  REQUESTED:     0  ISSUED:     0  USEFUL: 20101  USELESS: 241565
 USEFUL LOAD PREFETCHES:      20101 PREFETCH ISSUED TO LOWER LEVEL:     265610  ACCURACY: 7.56786
 TIMELY PREFETCHES:      20101 LATE PREFETCHES: 0 DROPPED PREFETCHES: 0
LLC6 AVERAGE MISS LATENCY: 170.997 cycles
LLC7 TOTAL     ACCESS: 1061307  HIT: 708337  MISS: 352970  HIT %: 66.742  MISS %: 33.258  AVERAGE MISS PENALTY: 171.124
LLC7 LOAD      ACCESS: 234959  HIT: 155235  MISS: 79724  HIT %: 66.069  MISS %: 33.931  AVERAGE MISS PENALTY: 167.474
LLC7 RFO       ACCESS: 23389  HIT: 16456  MISS:  6933  HIT %: 70.3579  MISS %: 29.6421  AVERAGE MISS PENALTY: 172.944
LLC7 PREFETCH  ACCESS: 616452  HIT: 350518  MISS: 265934  HIT %: 56.8606  MISS %: 43.1394  AVERAGE MISS PENALTY: 172.414
LLC7 WRITEBACK ACCESS: 186507  HIT: 186128  MISS:   379  HIT %: 99.7968  MISS %: 0.20321  AVERAGE MISS PENALTY: 0
LLC7 PREFETCH  REQUESTED:     0  ISSUED:     0  USEFUL: 19960  USELESS: 242010
 USEFUL LOAD PREFETCHES:      19960 PREFETCH ISSUED TO LOWER LEVEL:     265934  ACCURACY: 7.50562
 TIMELY PREFETCHES:      19960 LATE PREFETCHES: 0 DROPPED PREFETCHES: 0
LLC7 AVERAGE MISS LATENCY: 171.124 cycles
ROI Average ROB Stall Cycles:	10.5647
ROI Total ROB Stalls Cycles:	787226238
ROI TOTAL ROB counter      :	74514544
ROI Average Load ROB Stall Cycles:	18.3143
ROI Total Load ROB Stalls Cycle  :	182338974
ROI Total Load ROB stalls Counter:	9956086
Major fault: 0 Minor fault: 54306

