
*** ChampSim Multicore Out-of-Order Simulator ***

Warmup Instructions: 200000000
Simulation Instructions: 200000000
Number of CPUs: 1
threads:1

L1I Configuration:
L1I_SET:64
L1I_WAY:8
L1I_RQ_SIZE:64
L1I_WQ_SIZE:64
L1I_PQ_SIZE:8
L1I_MSHR_SIZE:8

L1D Configuration:
L1D_SET:64
L1D_WAY:12
L1D_RQ_SIZE:64
L1D_WQ_SIZE:64
L1D_PQ_SIZE:8
L1D_MSHR_SIZE:16

L2C Configuration:
L2C_SET:1024
L2C_WAY:8
L2C_RQ_SIZE:32
L2C_WQ_SIZE:32
L2C_PQ_SIZE:16
L2C_MSHR_SIZE:32

LLC Configuration:
LLC_SET:4096
LLC_WAY:16
LLC SLICES:8
LLC_RQ_SIZE:64
LLC_WQ_SIZE:64
LLC_PQ_SIZE:32
LLC_MSHR_SIZE:64

Interconnect OFF
Attacker deprioritize is: OFF
Off-chip DRAM Size: 4096 MB Channels: 1 Width: 64-bit Data Rate: 3200 MT/s
PAGE SIZE in KB: 4.000000 
PAGE SIZE in MB: 0.003906 
PAGE offset in bits: 12 
CEASER-S_LLC:0
MIRAGE : 0
CEASER_LATENCY:3
REMAP : OFF
Partitions : 1
Multi-Step : OFF
BFS : OFF

CPU 0 runs /home/anubhav/spec_2017/621.wrf_s-6673B.champsimtrace.xz
CPU 0 Bimodal branch predictor
Initialize Hawkeye state
Initialize Hawkeye state
Initialize Hawkeye state
Initialize Hawkeye state
Initialize Hawkeye state
Initialize Hawkeye state
Initialize Hawkeye state
Initialize Hawkeye state
Heartbeat CPU 0 instructions: 10000001 cycles: 5655806 heartbeat IPC: 1.76809 cumulative IPC: 1.76809 (Simulation time: 0 hr 1 min 34 sec) 
 Total Blocks : 524288 Invalid Blocks : 454601
Heartbeat CPU 0 instructions: 20000002 cycles: 9641953 heartbeat IPC: 2.50869 cumulative IPC: 2.07427 (Simulation time: 0 hr 3 min 20 sec) 
 Total Blocks : 524288 Invalid Blocks : 412023
Heartbeat CPU 0 instructions: 30000001 cycles: 13260892 heartbeat IPC: 2.76324 cumulative IPC: 2.26229 (Simulation time: 0 hr 5 min 0 sec) 
 Total Blocks : 524288 Invalid Blocks : 382571
Heartbeat CPU 0 instructions: 40000002 cycles: 17328640 heartbeat IPC: 2.45836 cumulative IPC: 2.30832 (Simulation time: 0 hr 7 min 31 sec) 
 Total Blocks : 524288 Invalid Blocks : 256829
Heartbeat CPU 0 instructions: 50000001 cycles: 21321529 heartbeat IPC: 2.50445 cumulative IPC: 2.34505 (Simulation time: 0 hr 10 min 16 sec) 
 Total Blocks : 524288 Invalid Blocks : 225002
Heartbeat CPU 0 instructions: 60000000 cycles: 26171671 heartbeat IPC: 2.06179 cumulative IPC: 2.29256 (Simulation time: 0 hr 13 min 21 sec) 
 Total Blocks : 524288 Invalid Blocks : 205161
Heartbeat CPU 0 instructions: 70000003 cycles: 30717701 heartbeat IPC: 2.19972 cumulative IPC: 2.27882 (Simulation time: 0 hr 16 min 17 sec) 
 Total Blocks : 524288 Invalid Blocks : 177745
Heartbeat CPU 0 instructions: 80000000 cycles: 35124797 heartbeat IPC: 2.26907 cumulative IPC: 2.27759 (Simulation time: 0 hr 19 min 2 sec) 
 Total Blocks : 524288 Invalid Blocks : 172825
Heartbeat CPU 0 instructions: 90000002 cycles: 39874830 heartbeat IPC: 2.10525 cumulative IPC: 2.25706 (Simulation time: 0 hr 22 min 6 sec) 
 Total Blocks : 524288 Invalid Blocks : 167561
Heartbeat CPU 0 instructions: 100000000 cycles: 44472125 heartbeat IPC: 2.17519 cumulative IPC: 2.2486 (Simulation time: 0 hr 24 min 58 sec) 
 Total Blocks : 524288 Invalid Blocks : 157153
Heartbeat CPU 0 instructions: 110000000 cycles: 49006864 heartbeat IPC: 2.2052 cumulative IPC: 2.24458 (Simulation time: 0 hr 28 min 13 sec) 
 Total Blocks : 524288 Invalid Blocks : 151861
Heartbeat CPU 0 instructions: 120000002 cycles: 53553308 heartbeat IPC: 2.19952 cumulative IPC: 2.24076 (Simulation time: 0 hr 31 min 8 sec) 
 Total Blocks : 524288 Invalid Blocks : 140416
Heartbeat CPU 0 instructions: 130000001 cycles: 58013310 heartbeat IPC: 2.24215 cumulative IPC: 2.24086 (Simulation time: 0 hr 34 min 5 sec) 
 Total Blocks : 524288 Invalid Blocks : 139258
Heartbeat CPU 0 instructions: 140000003 cycles: 62599369 heartbeat IPC: 2.18052 cumulative IPC: 2.23644 (Simulation time: 0 hr 37 min 2 sec) 
 Total Blocks : 524288 Invalid Blocks : 132295
Heartbeat CPU 0 instructions: 150000000 cycles: 67054210 heartbeat IPC: 2.24475 cumulative IPC: 2.237 (Simulation time: 0 hr 39 min 55 sec) 
 Total Blocks : 524288 Invalid Blocks : 130157
Heartbeat CPU 0 instructions: 160000000 cycles: 71614282 heartbeat IPC: 2.19295 cumulative IPC: 2.23419 (Simulation time: 0 hr 42 min 55 sec) 
 Total Blocks : 524288 Invalid Blocks : 126421
Heartbeat CPU 0 instructions: 170000000 cycles: 76150922 heartbeat IPC: 2.20427 cumulative IPC: 2.23241 (Simulation time: 0 hr 45 min 51 sec) 
 Total Blocks : 524288 Invalid Blocks : 121494
Heartbeat CPU 0 instructions: 180000001 cycles: 80620143 heartbeat IPC: 2.23753 cumulative IPC: 2.23269 (Simulation time: 0 hr 48 min 53 sec) 
 Total Blocks : 524288 Invalid Blocks : 120755
Heartbeat CPU 0 instructions: 190000002 cycles: 85291477 heartbeat IPC: 2.14072 cumulative IPC: 2.22766 (Simulation time: 0 hr 51 min 46 sec) 
 Total Blocks : 524288 Invalid Blocks : 113897
Heartbeat CPU 0 instructions: 200000002 cycles: 90223002 heartbeat IPC: 2.02777 cumulative IPC: 2.21673 (Simulation time: 0 hr 54 min 48 sec) 
 Total Blocks : 524288 Invalid Blocks : 113074

Warmup complete CPU 0 instructions: 200000002 cycles: 90223002 (Simulation time: 0 hr 54 min 48 sec) 

Heartbeat CPU 0 instructions: 210000003 cycles: 105251201 heartbeat IPC: 0.665416 cumulative IPC: 0.665416 (Simulation time: 1 hr 0 min 23 sec) 
 Total Blocks : 524288 Invalid Blocks : 112289
Heartbeat CPU 0 instructions: 220000000 cycles: 120280341 heartbeat IPC: 0.665374 cumulative IPC: 0.665395 (Simulation time: 1 hr 6 min 16 sec) 
 Total Blocks : 524288 Invalid Blocks : 110877
Heartbeat CPU 0 instructions: 230000002 cycles: 128088310 heartbeat IPC: 1.28074 cumulative IPC: 0.792282 (Simulation time: 1 hr 9 min 45 sec) 
 Total Blocks : 524288 Invalid Blocks : 98837
Heartbeat CPU 0 instructions: 240000000 cycles: 136392076 heartbeat IPC: 1.20427 cumulative IPC: 0.866381 (Simulation time: 1 hr 13 min 24 sec) 
 Total Blocks : 524288 Invalid Blocks : 84472
Heartbeat CPU 0 instructions: 250000003 cycles: 143001863 heartbeat IPC: 1.51291 cumulative IPC: 0.947349 (Simulation time: 1 hr 16 min 58 sec) 
 Total Blocks : 524288 Invalid Blocks : 83936
Heartbeat CPU 0 instructions: 260000000 cycles: 149622703 heartbeat IPC: 1.51038 cumulative IPC: 1.01011 (Simulation time: 1 hr 20 min 36 sec) 
 Total Blocks : 524288 Invalid Blocks : 83500
Heartbeat CPU 0 instructions: 270000000 cycles: 156181366 heartbeat IPC: 1.5247 cumulative IPC: 1.06128 (Simulation time: 1 hr 24 min 20 sec) 
 Total Blocks : 524288 Invalid Blocks : 83238
Heartbeat CPU 0 instructions: 280000003 cycles: 162249583 heartbeat IPC: 1.64793 cumulative IPC: 1.1107 (Simulation time: 1 hr 27 min 36 sec) 
 Total Blocks : 524288 Invalid Blocks : 83034
Heartbeat CPU 0 instructions: 290000003 cycles: 168665523 heartbeat IPC: 1.55862 cumulative IPC: 1.14734 (Simulation time: 1 hr 31 min 2 sec) 
 Total Blocks : 524288 Invalid Blocks : 82596
Heartbeat CPU 0 instructions: 300000002 cycles: 175029387 heartbeat IPC: 1.57137 cumulative IPC: 1.17916 (Simulation time: 1 hr 34 min 20 sec) 
 Total Blocks : 524288 Invalid Blocks : 82155
Heartbeat CPU 0 instructions: 310000001 cycles: 181553642 heartbeat IPC: 1.53274 cumulative IPC: 1.20442 (Simulation time: 1 hr 37 min 36 sec) 
 Total Blocks : 524288 Invalid Blocks : 80615
Heartbeat CPU 0 instructions: 320000003 cycles: 194734425 heartbeat IPC: 0.75868 cumulative IPC: 1.1482 (Simulation time: 1 hr 42 min 39 sec) 
 Total Blocks : 524288 Invalid Blocks : 79970
Heartbeat CPU 0 instructions: 330000000 cycles: 200763442 heartbeat IPC: 1.65864 cumulative IPC: 1.17604 (Simulation time: 1 hr 45 min 53 sec) 
 Total Blocks : 524288 Invalid Blocks : 79208
Heartbeat CPU 0 instructions: 340000002 cycles: 207144792 heartbeat IPC: 1.56707 cumulative IPC: 1.19738 (Simulation time: 1 hr 49 min 1 sec) 
 Total Blocks : 524288 Invalid Blocks : 75299
Heartbeat CPU 0 instructions: 350000001 cycles: 215044501 heartbeat IPC: 1.26587 cumulative IPC: 1.20172 (Simulation time: 1 hr 52 min 31 sec) 
 Total Blocks : 524288 Invalid Blocks : 59952
Heartbeat CPU 0 instructions: 360000000 cycles: 221664923 heartbeat IPC: 1.51048 cumulative IPC: 1.21727 (Simulation time: 1 hr 55 min 36 sec) 
 Total Blocks : 524288 Invalid Blocks : 56124
Heartbeat CPU 0 instructions: 370000003 cycles: 229136864 heartbeat IPC: 1.33834 cumulative IPC: 1.22378 (Simulation time: 1 hr 58 min 49 sec) 
 Total Blocks : 524288 Invalid Blocks : 54083
Heartbeat CPU 0 instructions: 380000001 cycles: 236544108 heartbeat IPC: 1.35003 cumulative IPC: 1.23017 (Simulation time: 2 hr 1 min 58 sec) 
 Total Blocks : 524288 Invalid Blocks : 50622
Heartbeat CPU 0 instructions: 390000000 cycles: 243240013 heartbeat IPC: 1.49345 cumulative IPC: 1.24169 (Simulation time: 2 hr 4 min 55 sec) 
 Total Blocks : 524288 Invalid Blocks : 50074
Heartbeat CPU 0 instructions: 400000000 cycles: 250348752 heartbeat IPC: 1.40672 cumulative IPC: 1.24902 (Simulation time: 2 hr 8 min 3 sec) 
 Total Blocks : 524288 Invalid Blocks : 49416
Finished CPU 0 instructions: 200000002 cycles: 160125751 cumulative IPC: 1.24902 (Simulation time: 2 hr 8 min 3 sec) 

CPU 0 Branch Prediction Accuracy: 96.739% MPKI: 1.7301 Average ROB Occupancy at Mispredict: 218.806

ChampSim completed all CPUs

Region of Interest Statistics

CPU 0 cumulative IPC: 1.24902 instructions: 200000002 cycles: 160125751
ITLB TOTAL     ACCESS: 34065125  HIT: 34064903  MISS:   222  HIT %: 99.9993  MISS %: 0.000651693  AVERAGE MISS PENALTY: 129.712
ITLB LOAD      ACCESS: 34065125  HIT: 34064903  MISS:   222  HIT %: 99.9993  MISS %: 0.000651693  AVERAGE MISS PENALTY: 129.712
ITLB RFO       ACCESS:     0  HIT:     0  MISS:     0  HIT %:     0  MISS %:     0  AVERAGE MISS PENALTY: 0
ITLB PREFETCH  ACCESS:     0  HIT:     0  MISS:     0  HIT %:     0  MISS %:     0  AVERAGE MISS PENALTY: 0
ITLB WRITEBACK ACCESS:     0  HIT:     0  MISS:     0  HIT %:     0  MISS %:     0  AVERAGE MISS PENALTY: 0
ITLB PREFETCH  REQUESTED:     0  ISSUED:     0  USEFUL:     0  USELESS:     0
 USEFUL LOAD PREFETCHES:          0 PREFETCH ISSUED TO LOWER LEVEL:          0  ACCURACY: -nan
 TIMELY PREFETCHES:          0 LATE PREFETCHES: 0 DROPPED PREFETCHES: 0
ITLB AVERAGE MISS LATENCY: 129.712 cycles
DTLB TOTAL     ACCESS: 50111410  HIT: 49954138  MISS: 157272  HIT %: 99.6862  MISS %: 0.313845  AVERAGE MISS PENALTY: 35.9158
DTLB LOAD      ACCESS: 43774916  HIT: 43639311  MISS: 135605  HIT %: 99.6902  MISS %: 0.309778  AVERAGE MISS PENALTY: 35.1604
DTLB RFO       ACCESS: 6336494  HIT: 6314827  MISS: 21667  HIT %: 99.6581  MISS %: 0.34194  AVERAGE MISS PENALTY: 40.6431
DTLB PREFETCH  ACCESS:     0  HIT:     0  MISS:     0  HIT %:     0  MISS %:     0  AVERAGE MISS PENALTY: 0
DTLB WRITEBACK ACCESS:     0  HIT:     0  MISS:     0  HIT %:     0  MISS %:     0  AVERAGE MISS PENALTY: 0
DTLB PREFETCH  REQUESTED:     0  ISSUED:     0  USEFUL:     0  USELESS:     0
 USEFUL LOAD PREFETCHES:          0 PREFETCH ISSUED TO LOWER LEVEL:          0  ACCURACY: -nan
 TIMELY PREFETCHES:          0 LATE PREFETCHES: 0 DROPPED PREFETCHES: 0
DTLB AVERAGE MISS LATENCY: 35.9158 cycles
STLB TOTAL     ACCESS: 157494  HIT: 127698  MISS: 29796  HIT %: 81.0812  MISS %: 18.9188  AVERAGE MISS PENALTY: 100
STLB LOAD      ACCESS: 135827  HIT: 112199  MISS: 23628  HIT %: 82.6043  MISS %: 17.3957  AVERAGE MISS PENALTY: 100
STLB RFO       ACCESS: 21667  HIT: 15499  MISS:  6168  HIT %: 71.5327  MISS %: 28.4673  AVERAGE MISS PENALTY: 100
STLB PREFETCH  ACCESS:     0  HIT:     0  MISS:     0  HIT %:     0  MISS %:     0  AVERAGE MISS PENALTY: 0
STLB WRITEBACK ACCESS:     0  HIT:     0  MISS:     0  HIT %:     0  MISS %:     0  AVERAGE MISS PENALTY: 0
STLB PREFETCH  REQUESTED:     0  ISSUED:     0  USEFUL:     0  USELESS:     0
 USEFUL LOAD PREFETCHES:          0 PREFETCH ISSUED TO LOWER LEVEL:          0  ACCURACY: -nan
 TIMELY PREFETCHES:          0 LATE PREFETCHES: 0 DROPPED PREFETCHES: 0
STLB AVERAGE MISS LATENCY: 100 cycles
L1D TOTAL     ACCESS: 64918861  HIT: 60791268  MISS: 4127593  HIT %: 93.6419  MISS %: 6.35808  AVERAGE MISS PENALTY: 5.53215e+06
L1D LOAD      ACCESS: 40593791  HIT: 39958972  MISS: 634819  HIT %: 98.4362  MISS %: 1.56383  AVERAGE MISS PENALTY: 3.58263e+07
L1D RFO       ACCESS: 8456212  HIT: 7890267  MISS: 565945  HIT %: 93.3073  MISS %: 6.69265  AVERAGE MISS PENALTY: 161081
L1D PREFETCH  ACCESS: 15868858  HIT: 12942029  MISS: 2926829  HIT %: 81.5561  MISS %: 18.4439  AVERAGE MISS PENALTY: 25.0235
L1D WRITEBACK ACCESS:     0  HIT:     0  MISS:     0  HIT %:     0  MISS %:     0  AVERAGE MISS PENALTY: 0
L1D PREFETCH  REQUESTED: 22016700  ISSUED: 17251394  USEFUL: 2700904  USELESS: 225906
 USEFUL LOAD PREFETCHES:    2700904 PREFETCH ISSUED TO LOWER LEVEL:    4254911  ACCURACY: 63.4773
 TIMELY PREFETCHES:    2700904 LATE PREFETCHES: 214442 DROPPED PREFETCHES: 4765306
L1D AVERAGE MISS LATENCY: 22110.1 cycles
L1I TOTAL     ACCESS: 44594246  HIT: 44587653  MISS:  6593  HIT %: 99.9852  MISS %: 0.0147844  AVERAGE MISS PENALTY: 142.612
L1I LOAD      ACCESS: 44594246  HIT: 44587653  MISS:  6593  HIT %: 99.9852  MISS %: 0.0147844  AVERAGE MISS PENALTY: 142.612
L1I RFO       ACCESS:     0  HIT:     0  MISS:     0  HIT %:     0  MISS %:     0  AVERAGE MISS PENALTY: 0
L1I PREFETCH  ACCESS:     0  HIT:     0  MISS:     0  HIT %:     0  MISS %:     0  AVERAGE MISS PENALTY: 0
L1I WRITEBACK ACCESS:     0  HIT:     0  MISS:     0  HIT %:     0  MISS %:     0  AVERAGE MISS PENALTY: 0
L1I PREFETCH  REQUESTED:     0  ISSUED:     0  USEFUL:     0  USELESS:     0
 USEFUL LOAD PREFETCHES:          0 PREFETCH ISSUED TO LOWER LEVEL:          0  ACCURACY: -nan
 TIMELY PREFETCHES:          0 LATE PREFETCHES: 0 DROPPED PREFETCHES: 0
L1I AVERAGE MISS LATENCY: 142.612 cycles
L2C TOTAL     ACCESS: 12557201  HIT: 9540377  MISS: 3016824  HIT %: 75.9753  MISS %: 24.0247  AVERAGE MISS PENALTY: 2.68557e+06
L2C LOAD      ACCESS: 623776  HIT: 398432  MISS: 225344  HIT %: 63.8742  MISS %: 36.1258  AVERAGE MISS PENALTY: 3.59087e+07
L2C RFO       ACCESS: 565340  HIT: 164974  MISS: 400366  HIT %: 29.1814  MISS %: 70.8186  AVERAGE MISS PENALTY: 24873.7
L2C PREFETCH  ACCESS: 10088663  HIT: 7699083  MISS: 2389580  HIT %: 76.3142  MISS %: 23.6858  AVERAGE MISS PENALTY: 51.4213
L2C WRITEBACK ACCESS: 1279422  HIT: 1277888  MISS:  1534  HIT %: 99.8801  MISS %: 0.119898  AVERAGE MISS PENALTY: 0
L2C PREFETCH  REQUESTED: 11548234  ISSUED: 11007996  USEFUL: 256199  USELESS: 2134037
 USEFUL LOAD PREFETCHES:     256199 PREFETCH ISSUED TO LOWER LEVEL:    2732278  ACCURACY: 9.37675
 TIMELY PREFETCHES:     256199 LATE PREFETCHES: 101021 DROPPED PREFETCHES: 540238
L2C AVERAGE MISS LATENCY: 65.0853 cycles
LLC0 TOTAL     ACCESS: 499588  HIT: 444404  MISS: 55184  HIT %: 88.9541  MISS %: 11.0459  AVERAGE MISS PENALTY: 210.968
LLC0 LOAD      ACCESS: 53300  HIT: 47246  MISS:  6054  HIT %: 88.6417  MISS %: 11.3583  AVERAGE MISS PENALTY: 191.684
LLC0 RFO       ACCESS: 50246  HIT: 28290  MISS: 21956  HIT %: 56.303  MISS %: 43.697  AVERAGE MISS PENALTY: 248.211
LLC0 PREFETCH  ACCESS: 271681  HIT: 244628  MISS: 27053  HIT %: 90.0424  MISS %: 9.95763  AVERAGE MISS PENALTY: 186
LLC0 WRITEBACK ACCESS: 124361  HIT: 124240  MISS:   121  HIT %: 99.9027  MISS %: 0.0972974  AVERAGE MISS PENALTY: 0
LLC0 PREFETCH  REQUESTED:     0  ISSUED:     0  USEFUL: 11110  USELESS: 19545
 USEFUL LOAD PREFETCHES:      11110 PREFETCH ISSUED TO LOWER LEVEL:      27053  ACCURACY: 41.0675
 TIMELY PREFETCHES:      11110 LATE PREFETCHES: 0 DROPPED PREFETCHES: 0
LLC0 AVERAGE MISS LATENCY: 210.968 cycles
Deadblocks : 3201 Deadblock percentage : 52.8741

LLC1 TOTAL     ACCESS: 500420  HIT: 446176  MISS: 54244  HIT %: 89.1603  MISS %: 10.8397  AVERAGE MISS PENALTY: 210.587
LLC1 LOAD      ACCESS: 27631  HIT: 24608  MISS:  3023  HIT %: 89.0594  MISS %: 10.9406  AVERAGE MISS PENALTY: 200.831
LLC1 RFO       ACCESS: 50233  HIT: 28767  MISS: 21466  HIT %: 57.2671  MISS %: 42.7329  AVERAGE MISS PENALTY: 248.276
LLC1 PREFETCH  ACCESS: 298154  HIT: 268493  MISS: 29661  HIT %: 90.0518  MISS %: 9.94821  AVERAGE MISS PENALTY: 184.973
LLC1 WRITEBACK ACCESS: 124402  HIT: 124308  MISS:    94  HIT %: 99.9244  MISS %: 0.0755615  AVERAGE MISS PENALTY: 0
LLC1 PREFETCH  REQUESTED:     0  ISSUED:     0  USEFUL: 13377  USELESS: 21125
 USEFUL LOAD PREFETCHES:      13377 PREFETCH ISSUED TO LOWER LEVEL:      29661  ACCURACY: 45.0996
 TIMELY PREFETCHES:      13377 LATE PREFETCHES: 0 DROPPED PREFETCHES: 0
LLC1 AVERAGE MISS LATENCY: 210.587 cycles
LLC2 TOTAL     ACCESS: 500823  HIT: 446116  MISS: 54707  HIT %: 89.0766  MISS %: 10.9234  AVERAGE MISS PENALTY: 212.335
LLC2 LOAD      ACCESS: 21384  HIT: 19101  MISS:  2283  HIT %: 89.3238  MISS %: 10.6762  AVERAGE MISS PENALTY: 212.186
LLC2 RFO       ACCESS: 50130  HIT: 28521  MISS: 21609  HIT %: 56.8941  MISS %: 43.1059  AVERAGE MISS PENALTY: 249.309
LLC2 PREFETCH  ACCESS: 304927  HIT: 274211  MISS: 30716  HIT %: 89.9268  MISS %: 10.0732  AVERAGE MISS PENALTY: 187.019
LLC2 WRITEBACK ACCESS: 124382  HIT: 124283  MISS:    99  HIT %: 99.9204  MISS %: 0.0795935  AVERAGE MISS PENALTY: 0
LLC2 PREFETCH  REQUESTED:     0  ISSUED:     0  USEFUL: 13098  USELESS: 21669
 USEFUL LOAD PREFETCHES:      13098 PREFETCH ISSUED TO LOWER LEVEL:      30716  ACCURACY: 42.6423
 TIMELY PREFETCHES:      13098 LATE PREFETCHES: 0 DROPPED PREFETCHES: 0
LLC2 AVERAGE MISS LATENCY: 212.335 cycles
LLC3 TOTAL     ACCESS: 500710  HIT: 445518  MISS: 55192  HIT %: 88.9773  MISS %: 11.0227  AVERAGE MISS PENALTY: 211.105
LLC3 LOAD      ACCESS: 19253  HIT: 17281  MISS:  1972  HIT %: 89.7574  MISS %: 10.2426  AVERAGE MISS PENALTY: 211.715
LLC3 RFO       ACCESS: 50103  HIT: 28397  MISS: 21706  HIT %: 56.6772  MISS %: 43.3228  AVERAGE MISS PENALTY: 246.512
LLC3 PREFETCH  ACCESS: 306951  HIT: 275538  MISS: 31413  HIT %: 89.7661  MISS %: 10.2339  AVERAGE MISS PENALTY: 187.28
LLC3 WRITEBACK ACCESS: 124403  HIT: 124302  MISS:   101  HIT %: 99.9188  MISS %: 0.0811878  AVERAGE MISS PENALTY: 0
LLC3 PREFETCH  REQUESTED:     0  ISSUED:     0  USEFUL: 12733  USELESS: 22395
 USEFUL LOAD PREFETCHES:      12733 PREFETCH ISSUED TO LOWER LEVEL:      31413  ACCURACY: 40.5342
 TIMELY PREFETCHES:      12733 LATE PREFETCHES: 0 DROPPED PREFETCHES: 0
LLC3 AVERAGE MISS LATENCY: 211.105 cycles
LLC4 TOTAL     ACCESS: 501639  HIT: 446512  MISS: 55127  HIT %: 89.0106  MISS %: 10.9894  AVERAGE MISS PENALTY: 213.122
LLC4 LOAD      ACCESS: 18741  HIT: 16838  MISS:  1903  HIT %: 89.8458  MISS %: 10.1542  AVERAGE MISS PENALTY: 212.432
LLC4 RFO       ACCESS: 50151  HIT: 28359  MISS: 21792  HIT %: 56.5472  MISS %: 43.4528  AVERAGE MISS PENALTY: 250.362
LLC4 PREFETCH  ACCESS: 308283  HIT: 276952  MISS: 31331  HIT %: 89.8369  MISS %: 10.1631  AVERAGE MISS PENALTY: 187.948
LLC4 WRITEBACK ACCESS: 124464  HIT: 124363  MISS:   101  HIT %: 99.9189  MISS %: 0.081148  AVERAGE MISS PENALTY: 0
LLC4 PREFETCH  REQUESTED:     0  ISSUED:     0  USEFUL: 12711  USELESS: 22357
 USEFUL LOAD PREFETCHES:      12711 PREFETCH ISSUED TO LOWER LEVEL:      31331  ACCURACY: 40.57
 TIMELY PREFETCHES:      12711 LATE PREFETCHES: 0 DROPPED PREFETCHES: 0
LLC4 AVERAGE MISS LATENCY: 213.122 cycles
LLC5 TOTAL     ACCESS: 501981  HIT: 446682  MISS: 55299  HIT %: 88.9838  MISS %: 11.0162  AVERAGE MISS PENALTY: 213.602
LLC5 LOAD      ACCESS: 18392  HIT: 16400  MISS:  1992  HIT %: 89.1692  MISS %: 10.8308  AVERAGE MISS PENALTY: 222.483
LLC5 RFO       ACCESS: 49831  HIT: 28179  MISS: 21652  HIT %: 56.5491  MISS %: 43.4509  AVERAGE MISS PENALTY: 252.309
LLC5 PREFETCH  ACCESS: 309401  HIT: 277858  MISS: 31543  HIT %: 89.8051  MISS %: 10.1949  AVERAGE MISS PENALTY: 187.231
LLC5 WRITEBACK ACCESS: 124357  HIT: 124245  MISS:   112  HIT %: 99.9099  MISS %: 0.0900633  AVERAGE MISS PENALTY: 0
LLC5 PREFETCH  REQUESTED:     0  ISSUED:     0  USEFUL: 12827  USELESS: 22744
 USEFUL LOAD PREFETCHES:      12827 PREFETCH ISSUED TO LOWER LEVEL:      31543  ACCURACY: 40.6651
 TIMELY PREFETCHES:      12827 LATE PREFETCHES: 0 DROPPED PREFETCHES: 0
LLC5 AVERAGE MISS LATENCY: 213.602 cycles
LLC6 TOTAL     ACCESS: 502448  HIT: 446481  MISS: 55967  HIT %: 88.8611  MISS %: 11.1389  AVERAGE MISS PENALTY: 212.375
LLC6 LOAD      ACCESS: 18295  HIT: 16388  MISS:  1907  HIT %: 89.5764  MISS %: 10.4236  AVERAGE MISS PENALTY: 213.413
LLC6 RFO       ACCESS: 49778  HIT: 27902  MISS: 21876  HIT %: 56.0529  MISS %: 43.9471  AVERAGE MISS PENALTY: 249.099
LLC6 PREFETCH  ACCESS: 309964  HIT: 277892  MISS: 32072  HIT %: 89.653  MISS %: 10.347  AVERAGE MISS PENALTY: 188.005
LLC6 WRITEBACK ACCESS: 124411  HIT: 124299  MISS:   112  HIT %: 99.91  MISS %: 0.0900242  AVERAGE MISS PENALTY: 0
LLC6 PREFETCH  REQUESTED:     0  ISSUED:     0  USEFUL: 12628  USELESS: 23019
 USEFUL LOAD PREFETCHES:      12628 PREFETCH ISSUED TO LOWER LEVEL:      32072  ACCURACY: 39.3739
 TIMELY PREFETCHES:      12628 LATE PREFETCHES: 0 DROPPED PREFETCHES: 0
LLC6 AVERAGE MISS LATENCY: 212.375 cycles
LLC7 TOTAL     ACCESS: 502921  HIT: 446815  MISS: 56106  HIT %: 88.844  MISS %: 11.156  AVERAGE MISS PENALTY: 213.884
LLC7 LOAD      ACCESS: 17953  HIT: 16094  MISS:  1859  HIT %: 89.6452  MISS %: 10.3548  AVERAGE MISS PENALTY: 212.892
LLC7 RFO       ACCESS: 49838  HIT: 28013  MISS: 21825  HIT %: 56.2081  MISS %: 43.7919  AVERAGE MISS PENALTY: 250.77
LLC7 PREFETCH  ACCESS: 310663  HIT: 278350  MISS: 32313  HIT %: 89.5987  MISS %: 10.4013  AVERAGE MISS PENALTY: 189.748
LLC7 WRITEBACK ACCESS: 124467  HIT: 124358  MISS:   109  HIT %: 99.9124  MISS %: 0.0875734  AVERAGE MISS PENALTY: 0
LLC7 PREFETCH  REQUESTED:     0  ISSUED:     0  USEFUL: 12920  USELESS: 22966
 USEFUL LOAD PREFETCHES:      12920 PREFETCH ISSUED TO LOWER LEVEL:      32313  ACCURACY: 39.9839
 TIMELY PREFETCHES:      12920 LATE PREFETCHES: 0 DROPPED PREFETCHES: 0
LLC7 AVERAGE MISS LATENCY: 213.884 cycles
ROI Average ROB Stall Cycles:	5.03993
ROI Total ROB Stalls Cycles:	116137361
ROI TOTAL ROB counter      :	23043457
ROI Average Load ROB Stall Cycles:	9.46343
ROI Total Load ROB Stalls Cycle  :	30135963
ROI Total Load ROB stalls Counter:	3184466
Major fault: 0 Minor fault: 10640

