
*** ChampSim Multicore Out-of-Order Simulator ***

Warmup Instructions: 200000000
Simulation Instructions: 200000000
Number of CPUs: 1
threads:1

L1I Configuration:
L1I_SET:64
L1I_WAY:8
L1I_RQ_SIZE:64
L1I_WQ_SIZE:64
L1I_PQ_SIZE:8
L1I_MSHR_SIZE:8

L1D Configuration:
L1D_SET:64
L1D_WAY:12
L1D_RQ_SIZE:64
L1D_WQ_SIZE:64
L1D_PQ_SIZE:8
L1D_MSHR_SIZE:16

L2C Configuration:
L2C_SET:1024
L2C_WAY:8
L2C_RQ_SIZE:32
L2C_WQ_SIZE:32
L2C_PQ_SIZE:16
L2C_MSHR_SIZE:32

LLC Configuration:
LLC_SET:2048
LLC_WAY:16
LLC SLICES:8
LLC_RQ_SIZE:64
LLC_WQ_SIZE:64
LLC_PQ_SIZE:32
LLC_MSHR_SIZE:64

Interconnect OFF
Attacker deprioritize is: OFF
Off-chip DRAM Size: 4096 MB Channels: 1 Width: 64-bit Data Rate: 3200 MT/s
PAGE SIZE in KB: 4.000000 
PAGE SIZE in MB: 0.003906 
PAGE offset in bits: 12 
CEASER-S_LLC:0
MIRAGE : 0
CEASER_LATENCY:3
REMAP : OFF
Partitions : 1
Multi-Step : OFF
BFS : OFF

CPU 0 runs /home/anubhav/spec_2017/623.xalancbmk_s-10B.champsimtrace.xz
CPU 0 Bimodal branch predictor
Initialize Hawkeye state
Initialize Hawkeye state
Initialize Hawkeye state
Initialize Hawkeye state
Initialize Hawkeye state
Initialize Hawkeye state
Initialize Hawkeye state
Initialize Hawkeye state
Heartbeat CPU 0 instructions: 10000001 cycles: 7616397 heartbeat IPC: 1.31296 cumulative IPC: 1.31296 (Simulation time: 0 hr 1 min 9 sec) 
 Total Blocks : 262144 Invalid Blocks : 171186
Heartbeat CPU 0 instructions: 20000000 cycles: 15275911 heartbeat IPC: 1.30557 cumulative IPC: 1.30925 (Simulation time: 0 hr 2 min 24 sec) 
 Total Blocks : 262144 Invalid Blocks : 158232
Heartbeat CPU 0 instructions: 30000000 cycles: 22915739 heartbeat IPC: 1.30893 cumulative IPC: 1.30914 (Simulation time: 0 hr 3 min 52 sec) 
 Total Blocks : 262144 Invalid Blocks : 150322
Heartbeat CPU 0 instructions: 40000002 cycles: 30396438 heartbeat IPC: 1.33677 cumulative IPC: 1.31594 (Simulation time: 0 hr 5 min 18 sec) 
 Total Blocks : 262144 Invalid Blocks : 143842
Heartbeat CPU 0 instructions: 50000001 cycles: 38205344 heartbeat IPC: 1.28059 cumulative IPC: 1.30872 (Simulation time: 0 hr 6 min 46 sec) 
 Total Blocks : 262144 Invalid Blocks : 138930
Heartbeat CPU 0 instructions: 60000000 cycles: 45824753 heartbeat IPC: 1.31244 cumulative IPC: 1.30934 (Simulation time: 0 hr 8 min 8 sec) 
 Total Blocks : 262144 Invalid Blocks : 132121
Heartbeat CPU 0 instructions: 70000000 cycles: 53469527 heartbeat IPC: 1.30808 cumulative IPC: 1.30916 (Simulation time: 0 hr 9 min 29 sec) 
 Total Blocks : 262144 Invalid Blocks : 128775
Heartbeat CPU 0 instructions: 80000002 cycles: 61150030 heartbeat IPC: 1.302 cumulative IPC: 1.30826 (Simulation time: 0 hr 10 min 46 sec) 
 Total Blocks : 262144 Invalid Blocks : 125696
Heartbeat CPU 0 instructions: 90000002 cycles: 68700269 heartbeat IPC: 1.32446 cumulative IPC: 1.31004 (Simulation time: 0 hr 12 min 6 sec) 
 Total Blocks : 262144 Invalid Blocks : 122832
Heartbeat CPU 0 instructions: 100000002 cycles: 76353398 heartbeat IPC: 1.30666 cumulative IPC: 1.3097 (Simulation time: 0 hr 13 min 29 sec) 
 Total Blocks : 262144 Invalid Blocks : 119970
Heartbeat CPU 0 instructions: 110000000 cycles: 83821964 heartbeat IPC: 1.33894 cumulative IPC: 1.31231 (Simulation time: 0 hr 14 min 51 sec) 
 Total Blocks : 262144 Invalid Blocks : 115215
Heartbeat CPU 0 instructions: 120000000 cycles: 91282230 heartbeat IPC: 1.34043 cumulative IPC: 1.3146 (Simulation time: 0 hr 16 min 12 sec) 
 Total Blocks : 262144 Invalid Blocks : 112188
Heartbeat CPU 0 instructions: 130000001 cycles: 99075233 heartbeat IPC: 1.2832 cumulative IPC: 1.31213 (Simulation time: 0 hr 17 min 30 sec) 
 Total Blocks : 262144 Invalid Blocks : 110185
Heartbeat CPU 0 instructions: 140000000 cycles: 106758808 heartbeat IPC: 1.30148 cumulative IPC: 1.31137 (Simulation time: 0 hr 18 min 49 sec) 
 Total Blocks : 262144 Invalid Blocks : 108065
Heartbeat CPU 0 instructions: 150000000 cycles: 114140242 heartbeat IPC: 1.35475 cumulative IPC: 1.31417 (Simulation time: 0 hr 20 min 11 sec) 
 Total Blocks : 262144 Invalid Blocks : 105999
Heartbeat CPU 0 instructions: 160000000 cycles: 121839937 heartbeat IPC: 1.29875 cumulative IPC: 1.3132 (Simulation time: 0 hr 21 min 33 sec) 
 Total Blocks : 262144 Invalid Blocks : 104595
Heartbeat CPU 0 instructions: 170000000 cycles: 129435669 heartbeat IPC: 1.31653 cumulative IPC: 1.31339 (Simulation time: 0 hr 22 min 58 sec) 
 Total Blocks : 262144 Invalid Blocks : 103397
Heartbeat CPU 0 instructions: 180000003 cycles: 136964807 heartbeat IPC: 1.32817 cumulative IPC: 1.31421 (Simulation time: 0 hr 24 min 24 sec) 
 Total Blocks : 262144 Invalid Blocks : 101990
Heartbeat CPU 0 instructions: 190000000 cycles: 144461492 heartbeat IPC: 1.33392 cumulative IPC: 1.31523 (Simulation time: 0 hr 25 min 46 sec) 
 Total Blocks : 262144 Invalid Blocks : 100419
Heartbeat CPU 0 instructions: 200000000 cycles: 152013918 heartbeat IPC: 1.32408 cumulative IPC: 1.31567 (Simulation time: 0 hr 27 min 10 sec) 
 Total Blocks : 262144 Invalid Blocks : 98948

Warmup complete CPU 0 instructions: 200000001 cycles: 152013919 (Simulation time: 0 hr 27 min 10 sec) 

Heartbeat CPU 0 instructions: 210000001 cycles: 181558604 heartbeat IPC: 0.33847 cumulative IPC: 0.33847 (Simulation time: 0 hr 30 min 48 sec) 
 Total Blocks : 262144 Invalid Blocks : 84086
Heartbeat CPU 0 instructions: 220000000 cycles: 210270491 heartbeat IPC: 0.348288 cumulative IPC: 0.343309 (Simulation time: 0 hr 34 min 28 sec) 
 Total Blocks : 262144 Invalid Blocks : 82352
Heartbeat CPU 0 instructions: 230000001 cycles: 237480945 heartbeat IPC: 0.367506 cumulative IPC: 0.351013 (Simulation time: 0 hr 38 min 3 sec) 
 Total Blocks : 262144 Invalid Blocks : 79495
Heartbeat CPU 0 instructions: 240000001 cycles: 266860725 heartbeat IPC: 0.34037 cumulative IPC: 0.34829 (Simulation time: 0 hr 41 min 43 sec) 
 Total Blocks : 262144 Invalid Blocks : 78436
Heartbeat CPU 0 instructions: 250000000 cycles: 295698880 heartbeat IPC: 0.346763 cumulative IPC: 0.347984 (Simulation time: 0 hr 45 min 21 sec) 
 Total Blocks : 262144 Invalid Blocks : 77495
Heartbeat CPU 0 instructions: 260000000 cycles: 323038807 heartbeat IPC: 0.365765 cumulative IPC: 0.350826 (Simulation time: 0 hr 48 min 42 sec) 
 Total Blocks : 262144 Invalid Blocks : 76279
Heartbeat CPU 0 instructions: 270000001 cycles: 352242625 heartbeat IPC: 0.342421 cumulative IPC: 0.3496 (Simulation time: 0 hr 51 min 59 sec) 
 Total Blocks : 262144 Invalid Blocks : 75126
Heartbeat CPU 0 instructions: 280000000 cycles: 380716235 heartbeat IPC: 0.351202 cumulative IPC: 0.3498 (Simulation time: 0 hr 55 min 8 sec) 
 Total Blocks : 262144 Invalid Blocks : 74353
Heartbeat CPU 0 instructions: 290000002 cycles: 408404662 heartbeat IPC: 0.361162 cumulative IPC: 0.351027 (Simulation time: 0 hr 58 min 16 sec) 
 Total Blocks : 262144 Invalid Blocks : 73759
Heartbeat CPU 0 instructions: 300000002 cycles: 436806606 heartbeat IPC: 0.352089 cumulative IPC: 0.351133 (Simulation time: 1 hr 1 min 30 sec) 
 Total Blocks : 262144 Invalid Blocks : 67766
Heartbeat CPU 0 instructions: 310000000 cycles: 465303599 heartbeat IPC: 0.350914 cumulative IPC: 0.351113 (Simulation time: 1 hr 4 min 57 sec) 
 Total Blocks : 262144 Invalid Blocks : 67067
Heartbeat CPU 0 instructions: 320000002 cycles: 492765918 heartbeat IPC: 0.364135 cumulative IPC: 0.352162 (Simulation time: 1 hr 8 min 19 sec) 
 Total Blocks : 262144 Invalid Blocks : 66496
Heartbeat CPU 0 instructions: 330000000 cycles: 521706568 heartbeat IPC: 0.345535 cumulative IPC: 0.351643 (Simulation time: 1 hr 11 min 24 sec) 
 Total Blocks : 262144 Invalid Blocks : 65936
Heartbeat CPU 0 instructions: 340000001 cycles: 549213387 heartbeat IPC: 0.363546 cumulative IPC: 0.352468 (Simulation time: 1 hr 13 min 56 sec) 
 Total Blocks : 262144 Invalid Blocks : 64964
Heartbeat CPU 0 instructions: 350000002 cycles: 578256598 heartbeat IPC: 0.344315 cumulative IPC: 0.351912 (Simulation time: 1 hr 16 min 8 sec) 
 Total Blocks : 262144 Invalid Blocks : 64620
Heartbeat CPU 0 instructions: 360000003 cycles: 605021170 heartbeat IPC: 0.373628 cumulative IPC: 0.353195 (Simulation time: 1 hr 19 min 15 sec) 
 Total Blocks : 262144 Invalid Blocks : 63735
Heartbeat CPU 0 instructions: 370000000 cycles: 633201458 heartbeat IPC: 0.354858 cumulative IPC: 0.353293 (Simulation time: 1 hr 22 min 33 sec) 
 Total Blocks : 262144 Invalid Blocks : 63102
Heartbeat CPU 0 instructions: 380000002 cycles: 661048516 heartbeat IPC: 0.359104 cumulative IPC: 0.353611 (Simulation time: 1 hr 25 min 26 sec) 
 Total Blocks : 262144 Invalid Blocks : 62636
Heartbeat CPU 0 instructions: 390000002 cycles: 690277772 heartbeat IPC: 0.342123 cumulative IPC: 0.352987 (Simulation time: 1 hr 28 min 8 sec) 
 Total Blocks : 262144 Invalid Blocks : 62022
Heartbeat CPU 0 instructions: 400000001 cycles: 718905924 heartbeat IPC: 0.349306 cumulative IPC: 0.352801 (Simulation time: 1 hr 30 min 36 sec) 
 Total Blocks : 262144 Invalid Blocks : 61648
Finished CPU 0 instructions: 200000000 cycles: 566892005 cumulative IPC: 0.352801 (Simulation time: 1 hr 30 min 36 sec) 

CPU 0 Branch Prediction Accuracy: 94.5639% MPKI: 12.7303 Average ROB Occupancy at Mispredict: 70.8985

ChampSim completed all CPUs

Region of Interest Statistics

CPU 0 cumulative IPC: 0.352801 instructions: 200000000 cycles: 566892005
ITLB TOTAL     ACCESS: 28282562  HIT: 28147092  MISS: 135470  HIT %: 99.521  MISS %: 0.478988  AVERAGE MISS PENALTY: 21.0094
ITLB LOAD      ACCESS: 28282562  HIT: 28147092  MISS: 135470  HIT %: 99.521  MISS %: 0.478988  AVERAGE MISS PENALTY: 21.0094
ITLB RFO       ACCESS:     0  HIT:     0  MISS:     0  HIT %:     0  MISS %:     0  AVERAGE MISS PENALTY: 0
ITLB PREFETCH  ACCESS:     0  HIT:     0  MISS:     0  HIT %:     0  MISS %:     0  AVERAGE MISS PENALTY: 0
ITLB WRITEBACK ACCESS:     0  HIT:     0  MISS:     0  HIT %:     0  MISS %:     0  AVERAGE MISS PENALTY: 0
ITLB PREFETCH  REQUESTED:     0  ISSUED:     0  USEFUL:     0  USELESS:     0
 USEFUL LOAD PREFETCHES:          0 PREFETCH ISSUED TO LOWER LEVEL:          0  ACCURACY: -nan
 TIMELY PREFETCHES:          0 LATE PREFETCHES: 0 DROPPED PREFETCHES: 0
ITLB AVERAGE MISS LATENCY: 21.0094 cycles
DTLB TOTAL     ACCESS: 53973707  HIT: 52645813  MISS: 1327894  HIT %: 97.5397  MISS %: 2.46026  AVERAGE MISS PENALTY: 106.163
DTLB LOAD      ACCESS: 45116860  HIT: 43831610  MISS: 1285250  HIT %: 97.1513  MISS %: 2.84871  AVERAGE MISS PENALTY: 109.198
DTLB RFO       ACCESS: 8856847  HIT: 8814203  MISS: 42644  HIT %: 99.5185  MISS %: 0.481481  AVERAGE MISS PENALTY: 14.6981
DTLB PREFETCH  ACCESS:     0  HIT:     0  MISS:     0  HIT %:     0  MISS %:     0  AVERAGE MISS PENALTY: 0
DTLB WRITEBACK ACCESS:     0  HIT:     0  MISS:     0  HIT %:     0  MISS %:     0  AVERAGE MISS PENALTY: 0
DTLB PREFETCH  REQUESTED:     0  ISSUED:     0  USEFUL:     0  USELESS:     0
 USEFUL LOAD PREFETCHES:          0 PREFETCH ISSUED TO LOWER LEVEL:          0  ACCURACY: -nan
 TIMELY PREFETCHES:          0 LATE PREFETCHES: 0 DROPPED PREFETCHES: 0
DTLB AVERAGE MISS LATENCY: 106.163 cycles
STLB TOTAL     ACCESS: 1463364  HIT: 490733  MISS: 972631  HIT %: 33.5346  MISS %: 66.4654  AVERAGE MISS PENALTY: 100
STLB LOAD      ACCESS: 1420720  HIT: 450223  MISS: 970497  HIT %: 31.6898  MISS %: 68.3102  AVERAGE MISS PENALTY: 100
STLB RFO       ACCESS: 42644  HIT: 40510  MISS:  2134  HIT %: 94.9958  MISS %: 5.00422  AVERAGE MISS PENALTY: 100
STLB PREFETCH  ACCESS:     0  HIT:     0  MISS:     0  HIT %:     0  MISS %:     0  AVERAGE MISS PENALTY: 0
STLB WRITEBACK ACCESS:     0  HIT:     0  MISS:     0  HIT %:     0  MISS %:     0  AVERAGE MISS PENALTY: 0
STLB PREFETCH  REQUESTED:     0  ISSUED:     0  USEFUL:     0  USELESS:     0
 USEFUL LOAD PREFETCHES:          0 PREFETCH ISSUED TO LOWER LEVEL:          0  ACCURACY: -nan
 TIMELY PREFETCHES:          0 LATE PREFETCHES: 0 DROPPED PREFETCHES: 0
STLB AVERAGE MISS LATENCY: 100 cycles
L1D TOTAL     ACCESS: 61778778  HIT: 52533492  MISS: 9245286  HIT %: 85.0349  MISS %: 14.9651  AVERAGE MISS PENALTY: 1.65924e+07
L1D LOAD      ACCESS: 36025083  HIT: 31690236  MISS: 4334847  HIT %: 87.9671  MISS %: 12.0329  AVERAGE MISS PENALTY: 3.53456e+07
L1D RFO       ACCESS: 9834014  HIT: 9745447  MISS: 88567  HIT %: 99.0994  MISS %: 0.900619  AVERAGE MISS PENALTY: 2.07032e+06
L1D PREFETCH  ACCESS: 15919681  HIT: 11097809  MISS: 4821872  HIT %: 69.7113  MISS %: 30.2887  AVERAGE MISS PENALTY: 80.4262
L1D WRITEBACK ACCESS:     0  HIT:     0  MISS:     0  HIT %:     0  MISS %:     0  AVERAGE MISS PENALTY: 0
L1D PREFETCH  REQUESTED: 18823561  ISSUED: 18305590  USEFUL: 1045235  USELESS: 3776639
 USEFUL LOAD PREFETCHES:    1045235 PREFETCH ISSUED TO LOWER LEVEL:    6504397  ACCURACY: 16.0697
 TIMELY PREFETCHES:    1045235 LATE PREFETCHES: 1045093 DROPPED PREFETCHES: 517971
L1D AVERAGE MISS LATENCY: 19885 cycles
L1I TOTAL     ACCESS: 35811372  HIT: 35082704  MISS: 728668  HIT %: 97.9653  MISS %: 2.03474  AVERAGE MISS PENALTY: 22.9685
L1I LOAD      ACCESS: 35811372  HIT: 35082704  MISS: 728668  HIT %: 97.9653  MISS %: 2.03474  AVERAGE MISS PENALTY: 22.9685
L1I RFO       ACCESS:     0  HIT:     0  MISS:     0  HIT %:     0  MISS %:     0  AVERAGE MISS PENALTY: 0
L1I PREFETCH  ACCESS:     0  HIT:     0  MISS:     0  HIT %:     0  MISS %:     0  AVERAGE MISS PENALTY: 0
L1I WRITEBACK ACCESS:     0  HIT:     0  MISS:     0  HIT %:     0  MISS %:     0  AVERAGE MISS PENALTY: 0
L1I PREFETCH  REQUESTED:     0  ISSUED:     0  USEFUL:     0  USELESS:     0
 USEFUL LOAD PREFETCHES:          0 PREFETCH ISSUED TO LOWER LEVEL:          0  ACCURACY: -nan
 TIMELY PREFETCHES:          0 LATE PREFETCHES: 0 DROPPED PREFETCHES: 0
L1I AVERAGE MISS LATENCY: 22.9685 cycles
L2C TOTAL     ACCESS: 14933493  HIT: 4593457  MISS: 10340036  HIT %: 30.7594  MISS %: 69.2406  AVERAGE MISS PENALTY: 6.66255e+06
L2C LOAD      ACCESS: 4880991  HIT: 1212781  MISS: 3668210  HIT %: 24.847  MISS %: 75.153  AVERAGE MISS PENALTY: 1.87627e+07
L2C RFO       ACCESS: 88113  HIT: 51882  MISS: 36231  HIT %: 58.8812  MISS %: 41.1188  AVERAGE MISS PENALTY: 1.80245e+06
L2C PREFETCH  ACCESS: 9734615  HIT: 3100027  MISS: 6634588  HIT %: 31.8454  MISS %: 68.1546  AVERAGE MISS PENALTY: 41.6149
L2C WRITEBACK ACCESS: 229774  HIT: 228767  MISS:  1007  HIT %: 99.5617  MISS %: 0.438257  AVERAGE MISS PENALTY: 0
L2C PREFETCH  REQUESTED: 9670966  ISSUED: 9566040  USEFUL: 363188  USELESS: 6272765
 USEFUL LOAD PREFETCHES:     363188 PREFETCH ISSUED TO LOWER LEVEL:    7704024  ACCURACY: 4.71426
 TIMELY PREFETCHES:     363188 LATE PREFETCHES: 966716 DROPPED PREFETCHES: 104926
L2C AVERAGE MISS LATENCY: 40.5795 cycles
LLC0 TOTAL     ACCESS: 1255979  HIT: 1223916  MISS: 32063  HIT %: 97.4472  MISS %: 2.55283  AVERAGE MISS PENALTY: 149.528
LLC0 LOAD      ACCESS: 460655  HIT: 456349  MISS:  4306  HIT %: 99.0652  MISS %: 0.934756  AVERAGE MISS PENALTY: 152.149
LLC0 RFO       ACCESS:  4552  HIT:  3546  MISS:  1006  HIT %: 77.8998  MISS %: 22.1002  AVERAGE MISS PENALTY: 131.931
LLC0 PREFETCH  ACCESS: 778689  HIT: 751955  MISS: 26734  HIT %: 96.5668  MISS %: 3.43321  AVERAGE MISS PENALTY: 149.863
LLC0 WRITEBACK ACCESS: 12083  HIT: 12066  MISS:    17  HIT %: 99.8593  MISS %: 0.140694  AVERAGE MISS PENALTY: 0
LLC0 PREFETCH  REQUESTED:     0  ISSUED:     0  USEFUL:  1068  USELESS: 21582
 USEFUL LOAD PREFETCHES:       1068 PREFETCH ISSUED TO LOWER LEVEL:      26734  ACCURACY: 3.99491
 TIMELY PREFETCHES:       1068 LATE PREFETCHES: 0 DROPPED PREFETCHES: 0
LLC0 AVERAGE MISS LATENCY: 149.528 cycles
Deadblocks : 3744 Deadblock percentage : 86.9484

LLC1 TOTAL     ACCESS: 1285734  HIT: 1251390  MISS: 34344  HIT %: 97.3288  MISS %: 2.67116  AVERAGE MISS PENALTY: 149.199
LLC1 LOAD      ACCESS: 456080  HIT: 451235  MISS:  4845  HIT %: 98.9377  MISS %: 1.06231  AVERAGE MISS PENALTY: 149.923
LLC1 RFO       ACCESS:  4250  HIT:  3392  MISS:   858  HIT %: 79.8118  MISS %: 20.1882  AVERAGE MISS PENALTY: 127.269
LLC1 PREFETCH  ACCESS: 814835  HIT: 786208  MISS: 28627  HIT %: 96.4868  MISS %: 3.51323  AVERAGE MISS PENALTY: 149.806
LLC1 WRITEBACK ACCESS: 10569  HIT: 10555  MISS:    14  HIT %: 99.8675  MISS %: 0.132463  AVERAGE MISS PENALTY: 0
LLC1 PREFETCH  REQUESTED:     0  ISSUED:     0  USEFUL:  1128  USELESS: 23211
 USEFUL LOAD PREFETCHES:       1128 PREFETCH ISSUED TO LOWER LEVEL:      28627  ACCURACY: 3.94034
 TIMELY PREFETCHES:       1128 LATE PREFETCHES: 0 DROPPED PREFETCHES: 0
LLC1 AVERAGE MISS LATENCY: 149.199 cycles
LLC2 TOTAL     ACCESS: 1305404  HIT: 1270682  MISS: 34722  HIT %: 97.3401  MISS %: 2.65987  AVERAGE MISS PENALTY: 149.073
LLC2 LOAD      ACCESS: 453265  HIT: 448623  MISS:  4642  HIT %: 98.9759  MISS %: 1.02412  AVERAGE MISS PENALTY: 150.316
LLC2 RFO       ACCESS:  4595  HIT:  3743  MISS:   852  HIT %: 81.4581  MISS %: 18.5419  AVERAGE MISS PENALTY: 131.209
LLC2 PREFETCH  ACCESS: 833753  HIT: 804539  MISS: 29214  HIT %: 96.4961  MISS %: 3.50392  AVERAGE MISS PENALTY: 149.468
LLC2 WRITEBACK ACCESS: 13791  HIT: 13777  MISS:    14  HIT %: 99.8985  MISS %: 0.101515  AVERAGE MISS PENALTY: 0
LLC2 PREFETCH  REQUESTED:     0  ISSUED:     0  USEFUL:  1181  USELESS: 23625
 USEFUL LOAD PREFETCHES:       1181 PREFETCH ISSUED TO LOWER LEVEL:      29214  ACCURACY: 4.04258
 TIMELY PREFETCHES:       1181 LATE PREFETCHES: 0 DROPPED PREFETCHES: 0
LLC2 AVERAGE MISS LATENCY: 149.073 cycles
LLC3 TOTAL     ACCESS: 1316914  HIT: 1281810  MISS: 35104  HIT %: 97.3344  MISS %: 2.66563  AVERAGE MISS PENALTY: 148.744
LLC3 LOAD      ACCESS: 442447  HIT: 437631  MISS:  4816  HIT %: 98.9115  MISS %: 1.08849  AVERAGE MISS PENALTY: 151.818
LLC3 RFO       ACCESS:  4615  HIT:  3809  MISS:   806  HIT %: 82.5352  MISS %: 17.4648  AVERAGE MISS PENALTY: 133.103
LLC3 PREFETCH  ACCESS: 856614  HIT: 827151  MISS: 29463  HIT %: 96.5605  MISS %: 3.43947  AVERAGE MISS PENALTY: 148.765
LLC3 WRITEBACK ACCESS: 13238  HIT: 13219  MISS:    19  HIT %: 99.8565  MISS %: 0.143526  AVERAGE MISS PENALTY: 0
LLC3 PREFETCH  REQUESTED:     0  ISSUED:     0  USEFUL:  1155  USELESS: 23903
 USEFUL LOAD PREFETCHES:       1155 PREFETCH ISSUED TO LOWER LEVEL:      29463  ACCURACY: 3.92017
 TIMELY PREFETCHES:       1155 LATE PREFETCHES: 0 DROPPED PREFETCHES: 0
LLC3 AVERAGE MISS LATENCY: 148.744 cycles
LLC4 TOTAL     ACCESS: 1319063  HIT: 1283495  MISS: 35568  HIT %: 97.3035  MISS %: 2.69646  AVERAGE MISS PENALTY: 148.695
LLC4 LOAD      ACCESS: 448558  HIT: 443626  MISS:  4932  HIT %: 98.9005  MISS %: 1.09952  AVERAGE MISS PENALTY: 152.787
LLC4 RFO       ACCESS:  4182  HIT:  3388  MISS:   794  HIT %: 81.0139  MISS %: 18.9861  AVERAGE MISS PENALTY: 130.53
LLC4 PREFETCH  ACCESS: 854176  HIT: 824346  MISS: 29830  HIT %: 96.5077  MISS %: 3.49225  AVERAGE MISS PENALTY: 148.562
LLC4 WRITEBACK ACCESS: 12147  HIT: 12135  MISS:    12  HIT %: 99.9012  MISS %: 0.0987898  AVERAGE MISS PENALTY: 0
LLC4 PREFETCH  REQUESTED:     0  ISSUED:     0  USEFUL:  1162  USELESS: 24129
 USEFUL LOAD PREFETCHES:       1162 PREFETCH ISSUED TO LOWER LEVEL:      29830  ACCURACY: 3.89541
 TIMELY PREFETCHES:       1162 LATE PREFETCHES: 0 DROPPED PREFETCHES: 0
LLC4 AVERAGE MISS LATENCY: 148.695 cycles
LLC5 TOTAL     ACCESS: 1321126  HIT: 1285250  MISS: 35876  HIT %: 97.2844  MISS %: 2.71556  AVERAGE MISS PENALTY: 147.675
LLC5 LOAD      ACCESS: 445350  HIT: 440360  MISS:  4990  HIT %: 98.8795  MISS %: 1.12047  AVERAGE MISS PENALTY: 150.91
LLC5 RFO       ACCESS:  4243  HIT:  3447  MISS:   796  HIT %: 81.2397  MISS %: 18.7603  AVERAGE MISS PENALTY: 132.966
LLC5 PREFETCH  ACCESS: 858635  HIT: 828554  MISS: 30081  HIT %: 96.4966  MISS %: 3.50335  AVERAGE MISS PENALTY: 147.572
LLC5 WRITEBACK ACCESS: 12898  HIT: 12889  MISS:     9  HIT %: 99.9302  MISS %: 0.0697783  AVERAGE MISS PENALTY: 0
LLC5 PREFETCH  REQUESTED:     0  ISSUED:     0  USEFUL:  1155  USELESS: 24259
 USEFUL LOAD PREFETCHES:       1155 PREFETCH ISSUED TO LOWER LEVEL:      30081  ACCURACY: 3.83963
 TIMELY PREFETCHES:       1155 LATE PREFETCHES: 0 DROPPED PREFETCHES: 0
LLC5 AVERAGE MISS LATENCY: 147.675 cycles
LLC6 TOTAL     ACCESS: 1321085  HIT: 1285211  MISS: 35874  HIT %: 97.2845  MISS %: 2.7155  AVERAGE MISS PENALTY: 148.137
LLC6 LOAD      ACCESS: 445309  HIT: 440424  MISS:  4885  HIT %: 98.903  MISS %: 1.09699  AVERAGE MISS PENALTY: 150.53
LLC6 RFO       ACCESS:  4951  HIT:  4150  MISS:   801  HIT %: 83.8215  MISS %: 16.1785  AVERAGE MISS PENALTY: 134.552
LLC6 PREFETCH  ACCESS: 856663  HIT: 826489  MISS: 30174  HIT %: 96.4777  MISS %: 3.52227  AVERAGE MISS PENALTY: 148.179
LLC6 WRITEBACK ACCESS: 14162  HIT: 14148  MISS:    14  HIT %: 99.9011  MISS %: 0.0988561  AVERAGE MISS PENALTY: 0
LLC6 PREFETCH  REQUESTED:     0  ISSUED:     0  USEFUL:  1240  USELESS: 24273
 USEFUL LOAD PREFETCHES:       1240 PREFETCH ISSUED TO LOWER LEVEL:      30174  ACCURACY: 4.1095
 TIMELY PREFETCHES:       1240 LATE PREFETCHES: 0 DROPPED PREFETCHES: 0
LLC6 AVERAGE MISS LATENCY: 148.137 cycles
LLC7 TOTAL     ACCESS: 1314732  HIT: 1279824  MISS: 34908  HIT %: 97.3449  MISS %: 2.65514  AVERAGE MISS PENALTY: 148.589
LLC7 LOAD      ACCESS: 443894  HIT: 439397  MISS:  4497  HIT %: 98.9869  MISS %: 1.01308  AVERAGE MISS PENALTY: 150.213
LLC7 RFO       ACCESS:  4800  HIT:  4056  MISS:   744  HIT %:  84.5  MISS %:  15.5  AVERAGE MISS PENALTY: 129.589
LLC7 PREFETCH  ACCESS: 853919  HIT: 824261  MISS: 29658  HIT %: 96.5268  MISS %: 3.47316  AVERAGE MISS PENALTY: 148.865
LLC7 WRITEBACK ACCESS: 12119  HIT: 12110  MISS:     9  HIT %: 99.9257  MISS %: 0.0742636  AVERAGE MISS PENALTY: 0
LLC7 PREFETCH  REQUESTED:     0  ISSUED:     0  USEFUL:  1158  USELESS: 23902
 USEFUL LOAD PREFETCHES:       1158 PREFETCH ISSUED TO LOWER LEVEL:      29658  ACCURACY: 3.90451
 TIMELY PREFETCHES:       1158 LATE PREFETCHES: 0 DROPPED PREFETCHES: 0
LLC7 AVERAGE MISS LATENCY: 148.589 cycles
ROI Average ROB Stall Cycles:	7.43025
ROI Total ROB Stalls Cycles:	492890512
ROI TOTAL ROB counter      :	66335617
ROI Average Load ROB Stall Cycles:	22.2188
ROI Total Load ROB Stalls Cycle  :	257752474
ROI Total Load ROB stalls Counter:	11600671
Major fault: 0 Minor fault: 11833

