
*** ChampSim Multicore Out-of-Order Simulator ***

Warmup Instructions: 200000000
Simulation Instructions: 200000000
Number of CPUs: 1
threads:1

L1I Configuration:
L1I_SET:64
L1I_WAY:8
L1I_RQ_SIZE:64
L1I_WQ_SIZE:64
L1I_PQ_SIZE:8
L1I_MSHR_SIZE:8

L1D Configuration:
L1D_SET:64
L1D_WAY:12
L1D_RQ_SIZE:64
L1D_WQ_SIZE:64
L1D_PQ_SIZE:8
L1D_MSHR_SIZE:16

L2C Configuration:
L2C_SET:1024
L2C_WAY:8
L2C_RQ_SIZE:32
L2C_WQ_SIZE:32
L2C_PQ_SIZE:16
L2C_MSHR_SIZE:32

LLC Configuration:
LLC_SET:2048
LLC_WAY:16
LLC SLICES:8
LLC_RQ_SIZE:64
LLC_WQ_SIZE:64
LLC_PQ_SIZE:32
LLC_MSHR_SIZE:64

Interconnect OFF
Attacker deprioritize is: OFF
Off-chip DRAM Size: 4096 MB Channels: 1 Width: 64-bit Data Rate: 3200 MT/s
PAGE SIZE in KB: 4.000000 
PAGE SIZE in MB: 0.003906 
PAGE offset in bits: 12 
CEASER-S_LLC:0
MIRAGE : 0
CEASER_LATENCY:3
REMAP : OFF
Partitions : 1
Multi-Step : OFF
BFS : OFF

CPU 0 runs /home/anubhav/spec_2017/623.xalancbmk_s-165B.champsimtrace.xz
CPU 0 Bimodal branch predictor
Initialize Hawkeye state
Initialize Hawkeye state
Initialize Hawkeye state
Initialize Hawkeye state
Initialize Hawkeye state
Initialize Hawkeye state
Initialize Hawkeye state
Initialize Hawkeye state
Heartbeat CPU 0 instructions: 10000001 cycles: 6032550 heartbeat IPC: 1.65767 cumulative IPC: 1.65767 (Simulation time: 0 hr 0 min 41 sec) 
 Total Blocks : 262144 Invalid Blocks : 224202
Heartbeat CPU 0 instructions: 20000000 cycles: 12062375 heartbeat IPC: 1.65842 cumulative IPC: 1.65805 (Simulation time: 0 hr 1 min 21 sec) 
 Total Blocks : 262144 Invalid Blocks : 223998
Heartbeat CPU 0 instructions: 30000001 cycles: 18082373 heartbeat IPC: 1.66113 cumulative IPC: 1.65907 (Simulation time: 0 hr 2 min 33 sec) 
 Total Blocks : 262144 Invalid Blocks : 223768
Heartbeat CPU 0 instructions: 40000001 cycles: 24106435 heartbeat IPC: 1.66001 cumulative IPC: 1.65931 (Simulation time: 0 hr 3 min 44 sec) 
 Total Blocks : 262144 Invalid Blocks : 223580
Heartbeat CPU 0 instructions: 50000000 cycles: 30131852 heartbeat IPC: 1.65964 cumulative IPC: 1.65937 (Simulation time: 0 hr 4 min 55 sec) 
 Total Blocks : 262144 Invalid Blocks : 223333
Heartbeat CPU 0 instructions: 60000000 cycles: 36160212 heartbeat IPC: 1.65883 cumulative IPC: 1.65928 (Simulation time: 0 hr 6 min 6 sec) 
 Total Blocks : 262144 Invalid Blocks : 223128
Heartbeat CPU 0 instructions: 70000002 cycles: 42192583 heartbeat IPC: 1.65772 cumulative IPC: 1.65906 (Simulation time: 0 hr 7 min 17 sec) 
 Total Blocks : 262144 Invalid Blocks : 222916
Heartbeat CPU 0 instructions: 80000000 cycles: 48216963 heartbeat IPC: 1.65992 cumulative IPC: 1.65917 (Simulation time: 0 hr 8 min 29 sec) 
 Total Blocks : 262144 Invalid Blocks : 222682
Heartbeat CPU 0 instructions: 90000000 cycles: 54237267 heartbeat IPC: 1.66105 cumulative IPC: 1.65938 (Simulation time: 0 hr 9 min 41 sec) 
 Total Blocks : 262144 Invalid Blocks : 222488
Heartbeat CPU 0 instructions: 100000000 cycles: 60266466 heartbeat IPC: 1.6586 cumulative IPC: 1.6593 (Simulation time: 0 hr 10 min 53 sec) 
 Total Blocks : 262144 Invalid Blocks : 222282
Heartbeat CPU 0 instructions: 110000000 cycles: 66286792 heartbeat IPC: 1.66104 cumulative IPC: 1.65946 (Simulation time: 0 hr 12 min 4 sec) 
 Total Blocks : 262144 Invalid Blocks : 222072
Heartbeat CPU 0 instructions: 120000003 cycles: 72315472 heartbeat IPC: 1.65874 cumulative IPC: 1.6594 (Simulation time: 0 hr 13 min 13 sec) 
 Total Blocks : 262144 Invalid Blocks : 221840
Heartbeat CPU 0 instructions: 130000001 cycles: 78343327 heartbeat IPC: 1.65896 cumulative IPC: 1.65936 (Simulation time: 0 hr 14 min 21 sec) 
 Total Blocks : 262144 Invalid Blocks : 221661
Heartbeat CPU 0 instructions: 140000003 cycles: 84361150 heartbeat IPC: 1.66173 cumulative IPC: 1.65953 (Simulation time: 0 hr 15 min 25 sec) 
 Total Blocks : 262144 Invalid Blocks : 221422
Heartbeat CPU 0 instructions: 150000001 cycles: 90390721 heartbeat IPC: 1.65849 cumulative IPC: 1.65946 (Simulation time: 0 hr 16 min 27 sec) 
 Total Blocks : 262144 Invalid Blocks : 221205
Heartbeat CPU 0 instructions: 160000001 cycles: 96418453 heartbeat IPC: 1.659 cumulative IPC: 1.65943 (Simulation time: 0 hr 17 min 42 sec) 
 Total Blocks : 262144 Invalid Blocks : 220968
Heartbeat CPU 0 instructions: 170000003 cycles: 102438708 heartbeat IPC: 1.66106 cumulative IPC: 1.65953 (Simulation time: 0 hr 18 min 55 sec) 
 Total Blocks : 262144 Invalid Blocks : 220774
Heartbeat CPU 0 instructions: 180000001 cycles: 108464230 heartbeat IPC: 1.65961 cumulative IPC: 1.65953 (Simulation time: 0 hr 20 min 8 sec) 
 Total Blocks : 262144 Invalid Blocks : 220555
Heartbeat CPU 0 instructions: 190000001 cycles: 114491696 heartbeat IPC: 1.65907 cumulative IPC: 1.65951 (Simulation time: 0 hr 21 min 22 sec) 
 Total Blocks : 262144 Invalid Blocks : 220276
Heartbeat CPU 0 instructions: 200000003 cycles: 120515750 heartbeat IPC: 1.66001 cumulative IPC: 1.65953 (Simulation time: 0 hr 22 min 34 sec) 
 Total Blocks : 262144 Invalid Blocks : 220090

Warmup complete CPU 0 instructions: 200000003 cycles: 120515750 (Simulation time: 0 hr 22 min 34 sec) 

Heartbeat CPU 0 instructions: 210000002 cycles: 133951624 heartbeat IPC: 0.744276 cumulative IPC: 0.744276 (Simulation time: 0 hr 24 min 47 sec) 
 Total Blocks : 262144 Invalid Blocks : 219846
Heartbeat CPU 0 instructions: 220000000 cycles: 148405280 heartbeat IPC: 0.691866 cumulative IPC: 0.717115 (Simulation time: 0 hr 27 min 9 sec) 
 Total Blocks : 262144 Invalid Blocks : 215878
Heartbeat CPU 0 instructions: 230000000 cycles: 164830248 heartbeat IPC: 0.608829 cumulative IPC: 0.676979 (Simulation time: 0 hr 29 min 40 sec) 
 Total Blocks : 262144 Invalid Blocks : 211773
Heartbeat CPU 0 instructions: 240000002 cycles: 181189981 heartbeat IPC: 0.611257 cumulative IPC: 0.659258 (Simulation time: 0 hr 32 min 5 sec) 
 Total Blocks : 262144 Invalid Blocks : 209202
Heartbeat CPU 0 instructions: 250000001 cycles: 197519965 heartbeat IPC: 0.61237 cumulative IPC: 0.649315 (Simulation time: 0 hr 34 min 20 sec) 
 Total Blocks : 262144 Invalid Blocks : 207149
Heartbeat CPU 0 instructions: 260000003 cycles: 213835899 heartbeat IPC: 0.612898 cumulative IPC: 0.642948 (Simulation time: 0 hr 36 min 33 sec) 
 Total Blocks : 262144 Invalid Blocks : 205319
Heartbeat CPU 0 instructions: 270000002 cycles: 230145293 heartbeat IPC: 0.613144 cumulative IPC: 0.638514 (Simulation time: 0 hr 38 min 52 sec) 
 Total Blocks : 262144 Invalid Blocks : 203294
Heartbeat CPU 0 instructions: 280000001 cycles: 246448162 heartbeat IPC: 0.613389 cumulative IPC: 0.635261 (Simulation time: 0 hr 41 min 18 sec) 
 Total Blocks : 262144 Invalid Blocks : 201498
Heartbeat CPU 0 instructions: 290000000 cycles: 262742812 heartbeat IPC: 0.613698 cumulative IPC: 0.632791 (Simulation time: 0 hr 43 min 43 sec) 
 Total Blocks : 262144 Invalid Blocks : 199850
Heartbeat CPU 0 instructions: 300000000 cycles: 279051755 heartbeat IPC: 0.613161 cumulative IPC: 0.630772 (Simulation time: 0 hr 45 min 56 sec) 
 Total Blocks : 262144 Invalid Blocks : 198328
Heartbeat CPU 0 instructions: 310000003 cycles: 295361466 heartbeat IPC: 0.613132 cumulative IPC: 0.629126 (Simulation time: 0 hr 48 min 7 sec) 
 Total Blocks : 262144 Invalid Blocks : 196963
Heartbeat CPU 0 instructions: 320000001 cycles: 311680698 heartbeat IPC: 0.612774 cumulative IPC: 0.62773 (Simulation time: 0 hr 50 min 10 sec) 
 Total Blocks : 262144 Invalid Blocks : 195791
Heartbeat CPU 0 instructions: 330000000 cycles: 327977858 heartbeat IPC: 0.613604 cumulative IPC: 0.62662 (Simulation time: 0 hr 52 min 14 sec) 
 Total Blocks : 262144 Invalid Blocks : 194533
Heartbeat CPU 0 instructions: 340000000 cycles: 344135143 heartbeat IPC: 0.618916 cumulative IPC: 0.626064 (Simulation time: 0 hr 54 min 19 sec) 
 Total Blocks : 262144 Invalid Blocks : 193308
Heartbeat CPU 0 instructions: 350000002 cycles: 360259227 heartbeat IPC: 0.62019 cumulative IPC: 0.625669 (Simulation time: 0 hr 56 min 32 sec) 
 Total Blocks : 262144 Invalid Blocks : 192098
Heartbeat CPU 0 instructions: 360000001 cycles: 376392189 heartbeat IPC: 0.619849 cumulative IPC: 0.625302 (Simulation time: 0 hr 58 min 40 sec) 
 Total Blocks : 262144 Invalid Blocks : 191017
Heartbeat CPU 0 instructions: 370000001 cycles: 392521529 heartbeat IPC: 0.619988 cumulative IPC: 0.624987 (Simulation time: 1 hr 0 min 51 sec) 
 Total Blocks : 262144 Invalid Blocks : 189908
Heartbeat CPU 0 instructions: 380000001 cycles: 408636337 heartbeat IPC: 0.620547 cumulative IPC: 0.624738 (Simulation time: 1 hr 3 min 2 sec) 
 Total Blocks : 262144 Invalid Blocks : 188965
Heartbeat CPU 0 instructions: 390000003 cycles: 424742523 heartbeat IPC: 0.62088 cumulative IPC: 0.624534 (Simulation time: 1 hr 5 min 10 sec) 
 Total Blocks : 262144 Invalid Blocks : 188033
Heartbeat CPU 0 instructions: 400000000 cycles: 440821628 heartbeat IPC: 0.621925 cumulative IPC: 0.624403 (Simulation time: 1 hr 7 min 21 sec) 
 Total Blocks : 262144 Invalid Blocks : 187075
Finished CPU 0 instructions: 200000000 cycles: 320305880 cumulative IPC: 0.624403 (Simulation time: 1 hr 7 min 21 sec) 

CPU 0 Branch Prediction Accuracy: 94.8788% MPKI: 13.125 Average ROB Occupancy at Mispredict: 72.3429

ChampSim completed all CPUs

Region of Interest Statistics

CPU 0 cumulative IPC: 0.624403 instructions: 200000000 cycles: 320305880
ITLB TOTAL     ACCESS: 25564123  HIT: 25564112  MISS:    11  HIT %:   100  MISS %: 4.30291e-05  AVERAGE MISS PENALTY: 171.545
ITLB LOAD      ACCESS: 25564123  HIT: 25564112  MISS:    11  HIT %:   100  MISS %: 4.30291e-05  AVERAGE MISS PENALTY: 171.545
ITLB RFO       ACCESS:     0  HIT:     0  MISS:     0  HIT %:     0  MISS %:     0  AVERAGE MISS PENALTY: 0
ITLB PREFETCH  ACCESS:     0  HIT:     0  MISS:     0  HIT %:     0  MISS %:     0  AVERAGE MISS PENALTY: 0
ITLB WRITEBACK ACCESS:     0  HIT:     0  MISS:     0  HIT %:     0  MISS %:     0  AVERAGE MISS PENALTY: 0
ITLB PREFETCH  REQUESTED:     0  ISSUED:     0  USEFUL:     0  USELESS:     0
 USEFUL LOAD PREFETCHES:          0 PREFETCH ISSUED TO LOWER LEVEL:          0  ACCURACY: -nan
 TIMELY PREFETCHES:          0 LATE PREFETCHES: 0 DROPPED PREFETCHES: 0
ITLB AVERAGE MISS LATENCY: 171.545 cycles
DTLB TOTAL     ACCESS: 50671686  HIT: 50589199  MISS: 82487  HIT %: 99.8372  MISS %: 0.162787  AVERAGE MISS PENALTY: 11.0425
DTLB LOAD      ACCESS: 46865671  HIT: 46783326  MISS: 82345  HIT %: 99.8243  MISS %: 0.175704  AVERAGE MISS PENALTY: 10.893
DTLB RFO       ACCESS: 3806015  HIT: 3805873  MISS:   142  HIT %: 99.9963  MISS %: 0.00373094  AVERAGE MISS PENALTY: 97.7324
DTLB PREFETCH  ACCESS:     0  HIT:     0  MISS:     0  HIT %:     0  MISS %:     0  AVERAGE MISS PENALTY: 0
DTLB WRITEBACK ACCESS:     0  HIT:     0  MISS:     0  HIT %:     0  MISS %:     0  AVERAGE MISS PENALTY: 0
DTLB PREFETCH  REQUESTED:     0  ISSUED:     0  USEFUL:     0  USELESS:     0
 USEFUL LOAD PREFETCHES:          0 PREFETCH ISSUED TO LOWER LEVEL:          0  ACCURACY: -nan
 TIMELY PREFETCHES:          0 LATE PREFETCHES: 0 DROPPED PREFETCHES: 0
DTLB AVERAGE MISS LATENCY: 11.0425 cycles
STLB TOTAL     ACCESS: 82498  HIT: 81164  MISS:  1334  HIT %: 98.383  MISS %: 1.61701  AVERAGE MISS PENALTY: 100
STLB LOAD      ACCESS: 82356  HIT: 81148  MISS:  1208  HIT %: 98.5332  MISS %: 1.4668  AVERAGE MISS PENALTY: 100
STLB RFO       ACCESS:   142  HIT:    16  MISS:   126  HIT %: 11.2676  MISS %: 88.7324  AVERAGE MISS PENALTY: 100
STLB PREFETCH  ACCESS:     0  HIT:     0  MISS:     0  HIT %:     0  MISS %:     0  AVERAGE MISS PENALTY: 0
STLB WRITEBACK ACCESS:     0  HIT:     0  MISS:     0  HIT %:     0  MISS %:     0  AVERAGE MISS PENALTY: 0
STLB PREFETCH  REQUESTED:     0  ISSUED:     0  USEFUL:     0  USELESS:     0
 USEFUL LOAD PREFETCHES:          0 PREFETCH ISSUED TO LOWER LEVEL:          0  ACCURACY: -nan
 TIMELY PREFETCHES:          0 LATE PREFETCHES: 0 DROPPED PREFETCHES: 0
STLB AVERAGE MISS LATENCY: 100 cycles
L1D TOTAL     ACCESS: 74870803  HIT: 69378066  MISS: 5492737  HIT %: 92.6637  MISS %: 7.33629  AVERAGE MISS PENALTY: 2.3187e+06
L1D LOAD      ACCESS: 34398358  HIT: 34019008  MISS: 379350  HIT %: 98.8972  MISS %: 1.10281  AVERAGE MISS PENALTY: 3.34564e+07
L1D RFO       ACCESS: 3935358  HIT: 3929921  MISS:  5437  HIT %: 99.8618  MISS %: 0.138158  AVERAGE MISS PENALTY: 8.13834e+06
L1D PREFETCH  ACCESS: 36537087  HIT: 31429137  MISS: 5107950  HIT %: 86.0198  MISS %: 13.9802  AVERAGE MISS PENALTY: 16.8595
L1D WRITEBACK ACCESS:     0  HIT:     0  MISS:     0  HIT %:     0  MISS %:     0  AVERAGE MISS PENALTY: 0
L1D PREFETCH  REQUESTED: 58560159  ISSUED: 53634843  USEFUL: 4517437  USELESS: 590446
 USEFUL LOAD PREFETCHES:    4517437 PREFETCH ISSUED TO LOWER LEVEL:    7279045  ACCURACY: 62.0608
 TIMELY PREFETCHES:    4517437 LATE PREFETCHES: 155230 DROPPED PREFETCHES: 4925316
L1D AVERAGE MISS LATENCY: 8072.9 cycles
L1I TOTAL     ACCESS: 33153620  HIT: 33153528  MISS:    92  HIT %: 99.9997  MISS %: 0.000277496  AVERAGE MISS PENALTY: 145.913
L1I LOAD      ACCESS: 33153620  HIT: 33153528  MISS:    92  HIT %: 99.9997  MISS %: 0.000277496  AVERAGE MISS PENALTY: 145.913
L1I RFO       ACCESS:     0  HIT:     0  MISS:     0  HIT %:     0  MISS %:     0  AVERAGE MISS PENALTY: 0
L1I PREFETCH  ACCESS:     0  HIT:     0  MISS:     0  HIT %:     0  MISS %:     0  AVERAGE MISS PENALTY: 0
L1I WRITEBACK ACCESS:     0  HIT:     0  MISS:     0  HIT %:     0  MISS %:     0  AVERAGE MISS PENALTY: 0
L1I PREFETCH  REQUESTED:     0  ISSUED:     0  USEFUL:     0  USELESS:     0
 USEFUL LOAD PREFETCHES:          0 PREFETCH ISSUED TO LOWER LEVEL:          0  ACCURACY: -nan
 TIMELY PREFETCHES:          0 LATE PREFETCHES: 0 DROPPED PREFETCHES: 0
L1I AVERAGE MISS LATENCY: 145.913 cycles
L2C TOTAL     ACCESS: 10391526  HIT: 9236230  MISS: 1155296  HIT %: 88.8823  MISS %: 11.1177  AVERAGE MISS PENALTY: 576508
L2C LOAD      ACCESS: 376291  HIT: 333925  MISS: 42366  HIT %: 88.7412  MISS %: 11.2588  AVERAGE MISS PENALTY: 1.572e+07
L2C RFO       ACCESS:  5260  HIT:  4599  MISS:   661  HIT %: 87.4335  MISS %: 12.5665  AVERAGE MISS PENALTY: 110.835
L2C PREFETCH  ACCESS: 9990937  HIT: 8878669  MISS: 1112268  HIT %: 88.8672  MISS %: 11.1328  AVERAGE MISS PENALTY: 37.3793
L2C WRITEBACK ACCESS: 19038  HIT: 19037  MISS:     1  HIT %: 99.9947  MISS %: 0.00525265  AVERAGE MISS PENALTY: 0
L2C PREFETCH  REQUESTED: 13018846  ISSUED: 13017045  USEFUL: 21998  USELESS: 1090805
 USEFUL LOAD PREFETCHES:      21998 PREFETCH ISSUED TO LOWER LEVEL:    1317159  ACCURACY: 1.67011
 TIMELY PREFETCHES:      21998 LATE PREFETCHES: 17130 DROPPED PREFETCHES: 1801
L2C AVERAGE MISS LATENCY: 37.8195 cycles
LLC0 TOTAL     ACCESS: 143410  HIT: 138385  MISS:  5025  HIT %: 96.4961  MISS %: 3.50394  AVERAGE MISS PENALTY: 105.184
LLC0 LOAD      ACCESS: 15583  HIT: 14823  MISS:   760  HIT %: 95.1229  MISS %: 4.87711  AVERAGE MISS PENALTY: 104.25
LLC0 RFO       ACCESS:   175  HIT:     1  MISS:   174  HIT %: 0.571429  MISS %: 99.4286  AVERAGE MISS PENALTY: 91.0862
LLC0 PREFETCH  ACCESS: 127004  HIT: 122927  MISS:  4077  HIT %: 96.7899  MISS %: 3.21014  AVERAGE MISS PENALTY: 106.321
LLC0 WRITEBACK ACCESS:   648  HIT:   634  MISS:    14  HIT %: 97.8395  MISS %: 2.16049  AVERAGE MISS PENALTY: 0
LLC0 PREFETCH  REQUESTED:     0  ISSUED:     0  USEFUL:    43  USELESS:   786
 USEFUL LOAD PREFETCHES:         43 PREFETCH ISSUED TO LOWER LEVEL:       4077  ACCURACY: 1.0547
 TIMELY PREFETCHES:         43 LATE PREFETCHES: 0 DROPPED PREFETCHES: 0
LLC0 AVERAGE MISS LATENCY: 105.184 cycles
Deadblocks : 735 Deadblock percentage : 96.7105

LLC1 TOTAL     ACCESS: 145908  HIT: 140812  MISS:  5096  HIT %: 96.5074  MISS %: 3.49261  AVERAGE MISS PENALTY: 103.621
LLC1 LOAD      ACCESS:  8761  HIT:  8010  MISS:   751  HIT %: 91.4279  MISS %: 8.57208  AVERAGE MISS PENALTY: 100.577
LLC1 RFO       ACCESS:    62  HIT:     0  MISS:    62  HIT %:     0  MISS %:   100  AVERAGE MISS PENALTY: 81.6452
LLC1 PREFETCH  ACCESS: 136391  HIT: 132128  MISS:  4263  HIT %: 96.8744  MISS %: 3.12557  AVERAGE MISS PENALTY: 104.964
LLC1 WRITEBACK ACCESS:   694  HIT:   674  MISS:    20  HIT %: 97.1182  MISS %: 2.88184  AVERAGE MISS PENALTY: 0
LLC1 PREFETCH  REQUESTED:     0  ISSUED:     0  USEFUL:   112  USELESS:   843
 USEFUL LOAD PREFETCHES:        112 PREFETCH ISSUED TO LOWER LEVEL:       4263  ACCURACY: 2.62726
 TIMELY PREFETCHES:        112 LATE PREFETCHES: 0 DROPPED PREFETCHES: 0
LLC1 AVERAGE MISS LATENCY: 103.621 cycles
LLC2 TOTAL     ACCESS: 144425  HIT: 139273  MISS:  5152  HIT %: 96.4328  MISS %: 3.56725  AVERAGE MISS PENALTY: 105.631
LLC2 LOAD      ACCESS:  5969  HIT:  5247  MISS:   722  HIT %: 87.9042  MISS %: 12.0958  AVERAGE MISS PENALTY: 104.037
LLC2 RFO       ACCESS:    62  HIT:     3  MISS:    59  HIT %: 4.83871  MISS %: 95.1613  AVERAGE MISS PENALTY: 84.2881
LLC2 PREFETCH  ACCESS: 137718  HIT: 133369  MISS:  4349  HIT %: 96.8421  MISS %: 3.1579  AVERAGE MISS PENALTY: 106.719
LLC2 WRITEBACK ACCESS:   676  HIT:   654  MISS:    22  HIT %: 96.7456  MISS %: 3.25444  AVERAGE MISS PENALTY: 0
LLC2 PREFETCH  REQUESTED:     0  ISSUED:     0  USEFUL:    55  USELESS:   939
 USEFUL LOAD PREFETCHES:         55 PREFETCH ISSUED TO LOWER LEVEL:       4349  ACCURACY: 1.26466
 TIMELY PREFETCHES:         55 LATE PREFETCHES: 0 DROPPED PREFETCHES: 0
LLC2 AVERAGE MISS LATENCY: 105.631 cycles
LLC3 TOTAL     ACCESS: 145050  HIT: 139837  MISS:  5213  HIT %: 96.4061  MISS %: 3.59393  AVERAGE MISS PENALTY: 106.783
LLC3 LOAD      ACCESS:  4210  HIT:  3528  MISS:   682  HIT %: 83.8005  MISS %: 16.1995  AVERAGE MISS PENALTY: 104.342
LLC3 RFO       ACCESS:    77  HIT:    15  MISS:    62  HIT %: 19.4805  MISS %: 80.5195  AVERAGE MISS PENALTY: 84.129
LLC3 PREFETCH  ACCESS: 140053  HIT: 135605  MISS:  4448  HIT %: 96.8241  MISS %: 3.17594  AVERAGE MISS PENALTY: 107.977
LLC3 WRITEBACK ACCESS:   710  HIT:   689  MISS:    21  HIT %: 97.0423  MISS %: 2.95775  AVERAGE MISS PENALTY: 0
LLC3 PREFETCH  REQUESTED:     0  ISSUED:     0  USEFUL:    54  USELESS:  1019
 USEFUL LOAD PREFETCHES:         54 PREFETCH ISSUED TO LOWER LEVEL:       4448  ACCURACY: 1.21403
 TIMELY PREFETCHES:         54 LATE PREFETCHES: 0 DROPPED PREFETCHES: 0
LLC3 AVERAGE MISS LATENCY: 106.783 cycles
LLC4 TOTAL     ACCESS: 144633  HIT: 139415  MISS:  5218  HIT %: 96.3922  MISS %: 3.60775  AVERAGE MISS PENALTY: 105.069
LLC4 LOAD      ACCESS:   979  HIT:   264  MISS:   715  HIT %: 26.9663  MISS %: 73.0337  AVERAGE MISS PENALTY: 104.036
LLC4 RFO       ACCESS:    74  HIT:    17  MISS:    57  HIT %: 22.973  MISS %: 77.027  AVERAGE MISS PENALTY: 84.1228
LLC4 PREFETCH  ACCESS: 142905  HIT: 138476  MISS:  4429  HIT %: 96.9007  MISS %: 3.09926  AVERAGE MISS PENALTY: 105.908
LLC4 WRITEBACK ACCESS:   675  HIT:   658  MISS:    17  HIT %: 97.4815  MISS %: 2.51852  AVERAGE MISS PENALTY: 0
LLC4 PREFETCH  REQUESTED:     0  ISSUED:     0  USEFUL:    49  USELESS:  1015
 USEFUL LOAD PREFETCHES:         49 PREFETCH ISSUED TO LOWER LEVEL:       4429  ACCURACY: 1.10634
 TIMELY PREFETCHES:         49 LATE PREFETCHES: 0 DROPPED PREFETCHES: 0
LLC4 AVERAGE MISS LATENCY: 105.069 cycles
LLC5 TOTAL     ACCESS: 145536  HIT: 140362  MISS:  5174  HIT %: 96.4449  MISS %: 3.55513  AVERAGE MISS PENALTY: 105.669
LLC5 LOAD      ACCESS:  2277  HIT:  1587  MISS:   690  HIT %: 69.697  MISS %: 30.303  AVERAGE MISS PENALTY: 103.114
LLC5 RFO       ACCESS:    80  HIT:    20  MISS:    60  HIT %:    25  MISS %:    75  AVERAGE MISS PENALTY: 80.6833
LLC5 PREFETCH  ACCESS: 142494  HIT: 138087  MISS:  4407  HIT %: 96.9072  MISS %: 3.09276  AVERAGE MISS PENALTY: 106.817
LLC5 WRITEBACK ACCESS:   685  HIT:   668  MISS:    17  HIT %: 97.5182  MISS %: 2.48175  AVERAGE MISS PENALTY: 0
LLC5 PREFETCH  REQUESTED:     0  ISSUED:     0  USEFUL:    56  USELESS:  1030
 USEFUL LOAD PREFETCHES:         56 PREFETCH ISSUED TO LOWER LEVEL:       4407  ACCURACY: 1.27071
 TIMELY PREFETCHES:         56 LATE PREFETCHES: 0 DROPPED PREFETCHES: 0
LLC5 AVERAGE MISS LATENCY: 105.669 cycles
LLC6 TOTAL     ACCESS: 145583  HIT: 140375  MISS:  5208  HIT %: 96.4227  MISS %: 3.57734  AVERAGE MISS PENALTY: 106.157
LLC6 LOAD      ACCESS:  1763  HIT:  1092  MISS:   671  HIT %: 61.9399  MISS %: 38.0601  AVERAGE MISS PENALTY: 104.563
LLC6 RFO       ACCESS:    74  HIT:    15  MISS:    59  HIT %: 20.2703  MISS %: 79.7297  AVERAGE MISS PENALTY: 83.5763
LLC6 PREFETCH  ACCESS: 143090  HIT: 138625  MISS:  4465  HIT %: 96.8796  MISS %: 3.12041  AVERAGE MISS PENALTY: 107.004
LLC6 WRITEBACK ACCESS:   656  HIT:   643  MISS:    13  HIT %: 98.0183  MISS %: 1.98171  AVERAGE MISS PENALTY: 0
LLC6 PREFETCH  REQUESTED:     0  ISSUED:     0  USEFUL:    49  USELESS:  1027
 USEFUL LOAD PREFETCHES:         49 PREFETCH ISSUED TO LOWER LEVEL:       4465  ACCURACY: 1.09742
 TIMELY PREFETCHES:         49 LATE PREFETCHES: 0 DROPPED PREFETCHES: 0
LLC6 AVERAGE MISS LATENCY: 106.157 cycles
LLC7 TOTAL     ACCESS: 146165  HIT: 140943  MISS:  5222  HIT %: 96.4273  MISS %: 3.57267  AVERAGE MISS PENALTY: 106.043
LLC7 LOAD      ACCESS:  1289  HIT:   608  MISS:   681  HIT %: 47.1683  MISS %: 52.8317  AVERAGE MISS PENALTY: 104.99
LLC7 RFO       ACCESS:    57  HIT:     0  MISS:    57  HIT %:     0  MISS %:   100  AVERAGE MISS PENALTY: 84.0351
LLC7 PREFETCH  ACCESS: 144148  HIT: 139680  MISS:  4468  HIT %: 96.9004  MISS %: 3.09959  AVERAGE MISS PENALTY: 106.864
LLC7 WRITEBACK ACCESS:   671  HIT:   655  MISS:    16  HIT %: 97.6155  MISS %: 2.3845  AVERAGE MISS PENALTY: 0
LLC7 PREFETCH  REQUESTED:     0  ISSUED:     0  USEFUL:    47  USELESS:  1049
 USEFUL LOAD PREFETCHES:         47 PREFETCH ISSUED TO LOWER LEVEL:       4468  ACCURACY: 1.05192
 TIMELY PREFETCHES:         47 LATE PREFETCHES: 0 DROPPED PREFETCHES: 0
LLC7 AVERAGE MISS LATENCY: 106.043 cycles
ROI Average ROB Stall Cycles:	3.87578
ROI Total ROB Stalls Cycles:	244257705
ROI TOTAL ROB counter      :	63021603
ROI Average Load ROB Stall Cycles:	7.40456
ROI Total Load ROB Stalls Cycle  :	84741275
ROI Total Load ROB stalls Counter:	11444471
Major fault: 0 Minor fault: 2191

