
*** ChampSim Multicore Out-of-Order Simulator ***

Warmup Instructions: 200000000
Simulation Instructions: 200000000
Number of CPUs: 1
threads:1

L1I Configuration:
L1I_SET:64
L1I_WAY:8
L1I_RQ_SIZE:64
L1I_WQ_SIZE:64
L1I_PQ_SIZE:8
L1I_MSHR_SIZE:8

L1D Configuration:
L1D_SET:64
L1D_WAY:12
L1D_RQ_SIZE:64
L1D_WQ_SIZE:64
L1D_PQ_SIZE:8
L1D_MSHR_SIZE:16

L2C Configuration:
L2C_SET:1024
L2C_WAY:8
L2C_RQ_SIZE:32
L2C_WQ_SIZE:32
L2C_PQ_SIZE:16
L2C_MSHR_SIZE:32

LLC Configuration:
LLC_SET:2048
LLC_WAY:16
LLC SLICES:8
LLC_RQ_SIZE:64
LLC_WQ_SIZE:64
LLC_PQ_SIZE:32
LLC_MSHR_SIZE:64

Interconnect OFF
Attacker deprioritize is: OFF
Off-chip DRAM Size: 4096 MB Channels: 1 Width: 64-bit Data Rate: 3200 MT/s
PAGE SIZE in KB: 4.000000 
PAGE SIZE in MB: 0.003906 
PAGE offset in bits: 12 
CEASER-S_LLC:0
MIRAGE : 0
CEASER_LATENCY:3
REMAP : OFF
Partitions : 1
Multi-Step : OFF
BFS : OFF

CPU 0 runs /home/anubhav/spec_2017/627.cam4_s-490B.champsimtrace.xz
CPU 0 Bimodal branch predictor
Initialize Hawkeye state
Initialize Hawkeye state
Initialize Hawkeye state
Initialize Hawkeye state
Initialize Hawkeye state
Initialize Hawkeye state
Initialize Hawkeye state
Initialize Hawkeye state
Heartbeat CPU 0 instructions: 10000001 cycles: 6490030 heartbeat IPC: 1.54083 cumulative IPC: 1.54083 (Simulation time: 0 hr 0 min 47 sec) 
 Total Blocks : 262144 Invalid Blocks : 212785
Heartbeat CPU 0 instructions: 20000002 cycles: 11686833 heartbeat IPC: 1.92426 cumulative IPC: 1.71133 (Simulation time: 0 hr 1 min 41 sec) 
 Total Blocks : 262144 Invalid Blocks : 206985
Heartbeat CPU 0 instructions: 30000002 cycles: 18214796 heartbeat IPC: 1.53187 cumulative IPC: 1.64701 (Simulation time: 0 hr 3 min 2 sec) 
 Total Blocks : 262144 Invalid Blocks : 198965
Heartbeat CPU 0 instructions: 40000000 cycles: 23907670 heartbeat IPC: 1.75658 cumulative IPC: 1.6731 (Simulation time: 0 hr 4 min 24 sec) 
 Total Blocks : 262144 Invalid Blocks : 195347
Heartbeat CPU 0 instructions: 50000000 cycles: 29635389 heartbeat IPC: 1.7459 cumulative IPC: 1.68717 (Simulation time: 0 hr 5 min 47 sec) 
 Total Blocks : 262144 Invalid Blocks : 190704
Heartbeat CPU 0 instructions: 60000003 cycles: 35641127 heartbeat IPC: 1.66507 cumulative IPC: 1.68345 (Simulation time: 0 hr 7 min 9 sec) 
 Total Blocks : 262144 Invalid Blocks : 187721
Heartbeat CPU 0 instructions: 70000000 cycles: 41424047 heartbeat IPC: 1.72923 cumulative IPC: 1.68984 (Simulation time: 0 hr 8 min 34 sec) 
 Total Blocks : 262144 Invalid Blocks : 184757
Heartbeat CPU 0 instructions: 80000002 cycles: 47501970 heartbeat IPC: 1.6453 cumulative IPC: 1.68414 (Simulation time: 0 hr 9 min 56 sec) 
 Total Blocks : 262144 Invalid Blocks : 181446
Heartbeat CPU 0 instructions: 90000000 cycles: 53345786 heartbeat IPC: 1.71121 cumulative IPC: 1.68711 (Simulation time: 0 hr 11 min 21 sec) 
 Total Blocks : 262144 Invalid Blocks : 178943
Heartbeat CPU 0 instructions: 100000001 cycles: 59653421 heartbeat IPC: 1.58538 cumulative IPC: 1.67635 (Simulation time: 0 hr 12 min 40 sec) 
 Total Blocks : 262144 Invalid Blocks : 176423
Heartbeat CPU 0 instructions: 110000000 cycles: 65344102 heartbeat IPC: 1.75726 cumulative IPC: 1.6834 (Simulation time: 0 hr 13 min 56 sec) 
 Total Blocks : 262144 Invalid Blocks : 172082
Heartbeat CPU 0 instructions: 120000000 cycles: 71758532 heartbeat IPC: 1.55898 cumulative IPC: 1.67228 (Simulation time: 0 hr 15 min 10 sec) 
 Total Blocks : 262144 Invalid Blocks : 169098
Heartbeat CPU 0 instructions: 130000000 cycles: 77838857 heartbeat IPC: 1.64465 cumulative IPC: 1.67012 (Simulation time: 0 hr 16 min 25 sec) 
 Total Blocks : 262144 Invalid Blocks : 166620
Heartbeat CPU 0 instructions: 140000003 cycles: 84170458 heartbeat IPC: 1.57938 cumulative IPC: 1.66329 (Simulation time: 0 hr 17 min 44 sec) 
 Total Blocks : 262144 Invalid Blocks : 164272
Heartbeat CPU 0 instructions: 150000001 cycles: 90984003 heartbeat IPC: 1.46766 cumulative IPC: 1.64864 (Simulation time: 0 hr 19 min 5 sec) 
 Total Blocks : 262144 Invalid Blocks : 162966
Heartbeat CPU 0 instructions: 160000001 cycles: 97314192 heartbeat IPC: 1.57973 cumulative IPC: 1.64416 (Simulation time: 0 hr 20 min 31 sec) 
 Total Blocks : 262144 Invalid Blocks : 160755
Heartbeat CPU 0 instructions: 170000001 cycles: 104103015 heartbeat IPC: 1.47301 cumulative IPC: 1.633 (Simulation time: 0 hr 21 min 56 sec) 
 Total Blocks : 262144 Invalid Blocks : 159452
Heartbeat CPU 0 instructions: 180000001 cycles: 110632244 heartbeat IPC: 1.53157 cumulative IPC: 1.62701 (Simulation time: 0 hr 23 min 18 sec) 
 Total Blocks : 262144 Invalid Blocks : 158265
Heartbeat CPU 0 instructions: 190000000 cycles: 117341730 heartbeat IPC: 1.49043 cumulative IPC: 1.6192 (Simulation time: 0 hr 24 min 39 sec) 
 Total Blocks : 262144 Invalid Blocks : 157232
Heartbeat CPU 0 instructions: 200000000 cycles: 124244185 heartbeat IPC: 1.44876 cumulative IPC: 1.60973 (Simulation time: 0 hr 25 min 56 sec) 
 Total Blocks : 262144 Invalid Blocks : 155932

Warmup complete CPU 0 instructions: 200000004 cycles: 124244186 (Simulation time: 0 hr 25 min 56 sec) 

Heartbeat CPU 0 instructions: 210000002 cycles: 137076664 heartbeat IPC: 0.779273 cumulative IPC: 0.779273 (Simulation time: 0 hr 28 min 4 sec) 
 Total Blocks : 262144 Invalid Blocks : 153901
Heartbeat CPU 0 instructions: 220000000 cycles: 149379041 heartbeat IPC: 0.812851 cumulative IPC: 0.795708 (Simulation time: 0 hr 30 min 2 sec) 
 Total Blocks : 262144 Invalid Blocks : 150558
Heartbeat CPU 0 instructions: 230000001 cycles: 162378639 heartbeat IPC: 0.769255 cumulative IPC: 0.78669 (Simulation time: 0 hr 32 min 9 sec) 
 Total Blocks : 262144 Invalid Blocks : 147418
Heartbeat CPU 0 instructions: 240000000 cycles: 175126596 heartbeat IPC: 0.784439 cumulative IPC: 0.786126 (Simulation time: 0 hr 34 min 4 sec) 
 Total Blocks : 262144 Invalid Blocks : 145548
Heartbeat CPU 0 instructions: 250000000 cycles: 188075679 heartbeat IPC: 0.772255 cumulative IPC: 0.783312 (Simulation time: 0 hr 36 min 7 sec) 
 Total Blocks : 262144 Invalid Blocks : 142843
Heartbeat CPU 0 instructions: 260000002 cycles: 201872769 heartbeat IPC: 0.724791 cumulative IPC: 0.772911 (Simulation time: 0 hr 38 min 11 sec) 
 Total Blocks : 262144 Invalid Blocks : 141182
Heartbeat CPU 0 instructions: 270000000 cycles: 214454930 heartbeat IPC: 0.794776 cumulative IPC: 0.775961 (Simulation time: 0 hr 40 min 26 sec) 
 Total Blocks : 262144 Invalid Blocks : 138684
Heartbeat CPU 0 instructions: 280000002 cycles: 227921101 heartbeat IPC: 0.742602 cumulative IPC: 0.771628 (Simulation time: 0 hr 42 min 44 sec) 
 Total Blocks : 262144 Invalid Blocks : 136929
Heartbeat CPU 0 instructions: 290000001 cycles: 240673332 heartbeat IPC: 0.784176 cumulative IPC: 0.773002 (Simulation time: 0 hr 44 min 57 sec) 
 Total Blocks : 262144 Invalid Blocks : 134883
Heartbeat CPU 0 instructions: 300000001 cycles: 253606505 heartbeat IPC: 0.773205 cumulative IPC: 0.773023 (Simulation time: 0 hr 47 min 12 sec) 
 Total Blocks : 262144 Invalid Blocks : 133545
Heartbeat CPU 0 instructions: 310000000 cycles: 266517299 heartbeat IPC: 0.774546 cumulative IPC: 0.773161 (Simulation time: 0 hr 49 min 27 sec) 
 Total Blocks : 262144 Invalid Blocks : 131243
Heartbeat CPU 0 instructions: 320000002 cycles: 279636186 heartbeat IPC: 0.76226 cumulative IPC: 0.772241 (Simulation time: 0 hr 51 min 50 sec) 
 Total Blocks : 262144 Invalid Blocks : 128811
Heartbeat CPU 0 instructions: 330000000 cycles: 292749547 heartbeat IPC: 0.762581 cumulative IPC: 0.771489 (Simulation time: 0 hr 54 min 4 sec) 
 Total Blocks : 262144 Invalid Blocks : 127867
Heartbeat CPU 0 instructions: 340000001 cycles: 305223111 heartbeat IPC: 0.801696 cumulative IPC: 0.773571 (Simulation time: 0 hr 56 min 16 sec) 
 Total Blocks : 262144 Invalid Blocks : 125829
Heartbeat CPU 0 instructions: 350000001 cycles: 318738842 heartbeat IPC: 0.739879 cumulative IPC: 0.771229 (Simulation time: 0 hr 58 min 23 sec) 
 Total Blocks : 262144 Invalid Blocks : 124635
Heartbeat CPU 0 instructions: 360000001 cycles: 331246182 heartbeat IPC: 0.799531 cumulative IPC: 0.772939 (Simulation time: 1 hr 0 min 26 sec) 
 Total Blocks : 262144 Invalid Blocks : 123000
Heartbeat CPU 0 instructions: 370000000 cycles: 344605750 heartbeat IPC: 0.748527 cumulative IPC: 0.771459 (Simulation time: 1 hr 2 min 30 sec) 
 Total Blocks : 262144 Invalid Blocks : 121521
Heartbeat CPU 0 instructions: 380000003 cycles: 356941543 heartbeat IPC: 0.810649 cumulative IPC: 0.773537 (Simulation time: 1 hr 4 min 28 sec) 
 Total Blocks : 262144 Invalid Blocks : 120285
Heartbeat CPU 0 instructions: 390000002 cycles: 380396441 heartbeat IPC: 0.42635 cumulative IPC: 0.741746 (Simulation time: 1 hr 8 min 1 sec) 
 Total Blocks : 262144 Invalid Blocks : 88738
Heartbeat CPU 0 instructions: 400000000 cycles: 391565964 heartbeat IPC: 0.895293 cumulative IPC: 0.748162 (Simulation time: 1 hr 10 min 32 sec) 
 Total Blocks : 262144 Invalid Blocks : 84311
Finished CPU 0 instructions: 200000001 cycles: 267321789 cumulative IPC: 0.748162 (Simulation time: 1 hr 10 min 32 sec) 

CPU 0 Branch Prediction Accuracy: 85.8046% MPKI: 13.2481 Average ROB Occupancy at Mispredict: 47.4975

ChampSim completed all CPUs

Region of Interest Statistics

CPU 0 cumulative IPC: 0.748162 instructions: 200000001 cycles: 267321789
ITLB TOTAL     ACCESS: 28372768  HIT: 28372760  MISS:     8  HIT %:   100  MISS %: 2.81961e-05  AVERAGE MISS PENALTY: 182.5
ITLB LOAD      ACCESS: 28372768  HIT: 28372760  MISS:     8  HIT %:   100  MISS %: 2.81961e-05  AVERAGE MISS PENALTY: 182.5
ITLB RFO       ACCESS:     0  HIT:     0  MISS:     0  HIT %:     0  MISS %:     0  AVERAGE MISS PENALTY: 0
ITLB PREFETCH  ACCESS:     0  HIT:     0  MISS:     0  HIT %:     0  MISS %:     0  AVERAGE MISS PENALTY: 0
ITLB WRITEBACK ACCESS:     0  HIT:     0  MISS:     0  HIT %:     0  MISS %:     0  AVERAGE MISS PENALTY: 0
ITLB PREFETCH  REQUESTED:     0  ISSUED:     0  USEFUL:     0  USELESS:     0
 USEFUL LOAD PREFETCHES:          0 PREFETCH ISSUED TO LOWER LEVEL:          0  ACCURACY: -nan
 TIMELY PREFETCHES:          0 LATE PREFETCHES: 0 DROPPED PREFETCHES: 0
ITLB AVERAGE MISS LATENCY: 182.5 cycles
DTLB TOTAL     ACCESS: 34115797  HIT: 34051255  MISS: 64542  HIT %: 99.8108  MISS %: 0.189185  AVERAGE MISS PENALTY: 19.0533
DTLB LOAD      ACCESS: 23229519  HIT: 23186278  MISS: 43241  HIT %: 99.8139  MISS %: 0.186147  AVERAGE MISS PENALTY: 19.8036
DTLB RFO       ACCESS: 10886278  HIT: 10864977  MISS: 21301  HIT %: 99.8043  MISS %: 0.195668  AVERAGE MISS PENALTY: 17.5304
DTLB PREFETCH  ACCESS:     0  HIT:     0  MISS:     0  HIT %:     0  MISS %:     0  AVERAGE MISS PENALTY: 0
DTLB WRITEBACK ACCESS:     0  HIT:     0  MISS:     0  HIT %:     0  MISS %:     0  AVERAGE MISS PENALTY: 0
DTLB PREFETCH  REQUESTED:     0  ISSUED:     0  USEFUL:     0  USELESS:     0
 USEFUL LOAD PREFETCHES:          0 PREFETCH ISSUED TO LOWER LEVEL:          0  ACCURACY: -nan
 TIMELY PREFETCHES:          0 LATE PREFETCHES: 0 DROPPED PREFETCHES: 0
DTLB AVERAGE MISS LATENCY: 19.0533 cycles
STLB TOTAL     ACCESS: 64550  HIT: 58201  MISS:  6349  HIT %: 90.1642  MISS %: 9.83579  AVERAGE MISS PENALTY: 100
STLB LOAD      ACCESS: 43249  HIT: 38714  MISS:  4535  HIT %: 89.5142  MISS %: 10.4858  AVERAGE MISS PENALTY: 100
STLB RFO       ACCESS: 21301  HIT: 19487  MISS:  1814  HIT %: 91.484  MISS %: 8.51603  AVERAGE MISS PENALTY: 100
STLB PREFETCH  ACCESS:     0  HIT:     0  MISS:     0  HIT %:     0  MISS %:     0  AVERAGE MISS PENALTY: 0
STLB WRITEBACK ACCESS:     0  HIT:     0  MISS:     0  HIT %:     0  MISS %:     0  AVERAGE MISS PENALTY: 0
STLB PREFETCH  REQUESTED:     0  ISSUED:     0  USEFUL:     0  USELESS:     0
 USEFUL LOAD PREFETCHES:          0 PREFETCH ISSUED TO LOWER LEVEL:          0  ACCURACY: -nan
 TIMELY PREFETCHES:          0 LATE PREFETCHES: 0 DROPPED PREFETCHES: 0
STLB AVERAGE MISS LATENCY: 100 cycles
L1D TOTAL     ACCESS: 46564803  HIT: 42833194  MISS: 3731609  HIT %: 91.9862  MISS %: 8.0138  AVERAGE MISS PENALTY: 1.10647e+07
L1D LOAD      ACCESS: 21758940  HIT: 21486846  MISS: 272094  HIT %: 98.7495  MISS %: 1.25049  AVERAGE MISS PENALTY: 1.5142e+08
L1D RFO       ACCESS: 10255707  HIT: 9102860  MISS: 1152847  HIT %: 88.759  MISS %: 11.241  AVERAGE MISS PENALTY: 76977.6
L1D PREFETCH  ACCESS: 14550156  HIT: 12243488  MISS: 2306668  HIT %: 84.1468  MISS %: 15.8532  AVERAGE MISS PENALTY: 26.1994
L1D WRITEBACK ACCESS:     0  HIT:     0  MISS:     0  HIT %:     0  MISS %:     0  AVERAGE MISS PENALTY: 0
L1D PREFETCH  REQUESTED: 17727406  ISSUED: 16795935  USEFUL: 2231293  USELESS: 75402
 USEFUL LOAD PREFETCHES:    2231293 PREFETCH ISSUED TO LOWER LEVEL:    3194794  ACCURACY: 69.8415
 TIMELY PREFETCHES:    2231293 LATE PREFETCHES: 250760 DROPPED PREFETCHES: 931471
L1D AVERAGE MISS LATENCY: 23802.9 cycles
L1I TOTAL     ACCESS: 38460508  HIT: 38456032  MISS:  4476  HIT %: 99.9884  MISS %: 0.0116379  AVERAGE MISS PENALTY: 52.0371
L1I LOAD      ACCESS: 38460508  HIT: 38456032  MISS:  4476  HIT %: 99.9884  MISS %: 0.0116379  AVERAGE MISS PENALTY: 52.0371
L1I RFO       ACCESS:     0  HIT:     0  MISS:     0  HIT %:     0  MISS %:     0  AVERAGE MISS PENALTY: 0
L1I PREFETCH  ACCESS:     0  HIT:     0  MISS:     0  HIT %:     0  MISS %:     0  AVERAGE MISS PENALTY: 0
L1I WRITEBACK ACCESS:     0  HIT:     0  MISS:     0  HIT %:     0  MISS %:     0  AVERAGE MISS PENALTY: 0
L1I PREFETCH  REQUESTED:     0  ISSUED:     0  USEFUL:     0  USELESS:     0
 USEFUL LOAD PREFETCHES:          0 PREFETCH ISSUED TO LOWER LEVEL:          0  ACCURACY: -nan
 TIMELY PREFETCHES:          0 LATE PREFETCHES: 0 DROPPED PREFETCHES: 0
L1I AVERAGE MISS LATENCY: 52.0371 cycles
L2C TOTAL     ACCESS: 11057554  HIT: 8554949  MISS: 2502605  HIT %: 77.3675  MISS %: 22.6325  AVERAGE MISS PENALTY: 6.46877e+06
L2C LOAD      ACCESS: 241391  HIT: 124409  MISS: 116982  HIT %: 51.5384  MISS %: 48.4616  AVERAGE MISS PENALTY: 1.38365e+08
L2C RFO       ACCESS: 1152487  HIT: 55710  MISS: 1096777  HIT %: 4.83389  MISS %: 95.1661  AVERAGE MISS PENALTY: 2306.56
L2C PREFETCH  ACCESS: 8080261  HIT: 6794424  MISS: 1285837  HIT %: 84.0867  MISS %: 15.9133  AVERAGE MISS PENALTY: 74.7054
L2C WRITEBACK ACCESS: 1583415  HIT: 1580406  MISS:  3009  HIT %: 99.81  MISS %: 0.190032  AVERAGE MISS PENALTY: 0
L2C PREFETCH  REQUESTED: 8594098  ISSUED: 8587917  USEFUL: 73074  USELESS: 1213610
 USEFUL LOAD PREFETCHES:      73074 PREFETCH ISSUED TO LOWER LEVEL:    1784634  ACCURACY: 4.09462
 TIMELY PREFETCHES:      73074 LATE PREFETCHES: 97338 DROPPED PREFETCHES: 6181
L2C AVERAGE MISS LATENCY: 69.8321 cycles
LLC0 TOTAL     ACCESS: 472550  HIT: 419965  MISS: 52585  HIT %: 88.8721  MISS %: 11.1279  AVERAGE MISS PENALTY: 225.15
LLC0 LOAD      ACCESS: 22586  HIT: 17880  MISS:  4706  HIT %: 79.1641  MISS %: 20.8359  AVERAGE MISS PENALTY: 204.73
LLC0 RFO       ACCESS: 137288  HIT: 121559  MISS: 15729  HIT %: 88.5431  MISS %: 11.4569  AVERAGE MISS PENALTY: 202.528
LLC0 PREFETCH  ACCESS: 151606  HIT: 120607  MISS: 30999  HIT %: 79.5529  MISS %: 20.4471  AVERAGE MISS PENALTY: 248.088
LLC0 WRITEBACK ACCESS: 161070  HIT: 159919  MISS:  1151  HIT %: 99.2854  MISS %: 0.714596  AVERAGE MISS PENALTY: 0
LLC0 PREFETCH  REQUESTED:     0  ISSUED:     0  USEFUL:  5701  USELESS: 22655
 USEFUL LOAD PREFETCHES:       5701 PREFETCH ISSUED TO LOWER LEVEL:      30999  ACCURACY: 18.3909
 TIMELY PREFETCHES:       5701 LATE PREFETCHES: 0 DROPPED PREFETCHES: 0
LLC0 AVERAGE MISS LATENCY: 225.15 cycles
Deadblocks : 2517 Deadblock percentage : 53.4849

LLC1 TOTAL     ACCESS: 472559  HIT: 421352  MISS: 51207  HIT %: 89.1639  MISS %: 10.8361  AVERAGE MISS PENALTY: 231.867
LLC1 LOAD      ACCESS: 10951  HIT:  8373  MISS:  2578  HIT %: 76.4588  MISS %: 23.5412  AVERAGE MISS PENALTY: 201.329
LLC1 RFO       ACCESS: 137133  HIT: 121934  MISS: 15199  HIT %: 88.9166  MISS %: 11.0834  AVERAGE MISS PENALTY: 206.355
LLC1 PREFETCH  ACCESS: 163604  HIT: 130737  MISS: 32867  HIT %: 79.9106  MISS %: 20.0894  AVERAGE MISS PENALTY: 250.032
LLC1 WRITEBACK ACCESS: 160871  HIT: 160308  MISS:   563  HIT %: 99.65  MISS %: 0.34997  AVERAGE MISS PENALTY: 0
LLC1 PREFETCH  REQUESTED:     0  ISSUED:     0  USEFUL:  6567  USELESS: 23458
 USEFUL LOAD PREFETCHES:       6567 PREFETCH ISSUED TO LOWER LEVEL:      32867  ACCURACY: 19.9805
 TIMELY PREFETCHES:       6567 LATE PREFETCHES: 0 DROPPED PREFETCHES: 0
LLC1 AVERAGE MISS LATENCY: 231.867 cycles
LLC2 TOTAL     ACCESS: 473076  HIT: 422034  MISS: 51042  HIT %: 89.2106  MISS %: 10.7894  AVERAGE MISS PENALTY: 233.295
LLC2 LOAD      ACCESS:  6737  HIT:  5384  MISS:  1353  HIT %: 79.9169  MISS %: 20.0831  AVERAGE MISS PENALTY: 215.09
LLC2 RFO       ACCESS: 137306  HIT: 122131  MISS: 15175  HIT %: 88.948  MISS %: 11.052  AVERAGE MISS PENALTY: 207.264
LLC2 PREFETCH  ACCESS: 168169  HIT: 134163  MISS: 34006  HIT %: 79.7787  MISS %: 20.2213  AVERAGE MISS PENALTY: 249.122
LLC2 WRITEBACK ACCESS: 160864  HIT: 160356  MISS:   508  HIT %: 99.6842  MISS %: 0.315795  AVERAGE MISS PENALTY: 0
LLC2 PREFETCH  REQUESTED:     0  ISSUED:     0  USEFUL:  6783  USELESS: 24057
 USEFUL LOAD PREFETCHES:       6783 PREFETCH ISSUED TO LOWER LEVEL:      34006  ACCURACY: 19.9465
 TIMELY PREFETCHES:       6783 LATE PREFETCHES: 0 DROPPED PREFETCHES: 0
LLC2 AVERAGE MISS LATENCY: 233.295 cycles
LLC3 TOTAL     ACCESS: 473020  HIT: 421824  MISS: 51196  HIT %: 89.1768  MISS %: 10.8232  AVERAGE MISS PENALTY: 233.823
LLC3 LOAD      ACCESS:  4573  HIT:  3402  MISS:  1171  HIT %: 74.3932  MISS %: 25.6068  AVERAGE MISS PENALTY: 191.031
LLC3 RFO       ACCESS: 136954  HIT: 121771  MISS: 15183  HIT %: 88.9138  MISS %: 11.0862  AVERAGE MISS PENALTY: 211.323
LLC3 PREFETCH  ACCESS: 170622  HIT: 136304  MISS: 34318  HIT %: 79.8865  MISS %: 20.1135  AVERAGE MISS PENALTY: 248.807
LLC3 WRITEBACK ACCESS: 160871  HIT: 160347  MISS:   524  HIT %: 99.6743  MISS %: 0.325727  AVERAGE MISS PENALTY: 0
LLC3 PREFETCH  REQUESTED:     0  ISSUED:     0  USEFUL:  6708  USELESS: 24086
 USEFUL LOAD PREFETCHES:       6708 PREFETCH ISSUED TO LOWER LEVEL:      34318  ACCURACY: 19.5466
 TIMELY PREFETCHES:       6708 LATE PREFETCHES: 0 DROPPED PREFETCHES: 0
LLC3 AVERAGE MISS LATENCY: 233.823 cycles
LLC4 TOTAL     ACCESS: 473791  HIT: 422217  MISS: 51574  HIT %: 89.1146  MISS %: 10.8854  AVERAGE MISS PENALTY: 229.992
LLC4 LOAD      ACCESS:  3770  HIT:  3267  MISS:   503  HIT %: 86.6578  MISS %: 13.3422  AVERAGE MISS PENALTY: 219.36
LLC4 RFO       ACCESS: 137105  HIT: 121608  MISS: 15497  HIT %: 88.697  MISS %: 11.303  AVERAGE MISS PENALTY: 207.099
LLC4 PREFETCH  ACCESS: 171882  HIT: 136914  MISS: 34968  HIT %: 79.6558  MISS %: 20.3442  AVERAGE MISS PENALTY: 244.276
LLC4 WRITEBACK ACCESS: 161034  HIT: 160428  MISS:   606  HIT %: 99.6237  MISS %: 0.376318  AVERAGE MISS PENALTY: 0
LLC4 PREFETCH  REQUESTED:     0  ISSUED:     0  USEFUL:  6979  USELESS: 24498
 USEFUL LOAD PREFETCHES:       6979 PREFETCH ISSUED TO LOWER LEVEL:      34968  ACCURACY: 19.9582
 TIMELY PREFETCHES:       6979 LATE PREFETCHES: 0 DROPPED PREFETCHES: 0
LLC4 AVERAGE MISS LATENCY: 229.992 cycles
LLC5 TOTAL     ACCESS: 474205  HIT: 422836  MISS: 51369  HIT %: 89.1673  MISS %: 10.8327  AVERAGE MISS PENALTY: 232.19
LLC5 LOAD      ACCESS:  4008  HIT:  3152  MISS:   856  HIT %: 78.6427  MISS %: 21.3573  AVERAGE MISS PENALTY: 185.592
LLC5 RFO       ACCESS: 136954  HIT: 121723  MISS: 15231  HIT %: 88.8787  MISS %: 11.1213  AVERAGE MISS PENALTY: 210.359
LLC5 PREFETCH  ACCESS: 172191  HIT: 137533  MISS: 34658  HIT %: 79.8724  MISS %: 20.1276  AVERAGE MISS PENALTY: 247.115
LLC5 WRITEBACK ACCESS: 161052  HIT: 160428  MISS:   624  HIT %: 99.6125  MISS %: 0.387452  AVERAGE MISS PENALTY: 0
LLC5 PREFETCH  REQUESTED:     0  ISSUED:     0  USEFUL:  6675  USELESS: 24376
 USEFUL LOAD PREFETCHES:       6675 PREFETCH ISSUED TO LOWER LEVEL:      34658  ACCURACY: 19.2596
 TIMELY PREFETCHES:       6675 LATE PREFETCHES: 0 DROPPED PREFETCHES: 0
LLC5 AVERAGE MISS LATENCY: 232.19 cycles
LLC6 TOTAL     ACCESS: 474557  HIT: 423455  MISS: 51102  HIT %: 89.2316  MISS %: 10.7684  AVERAGE MISS PENALTY: 230.762
LLC6 LOAD      ACCESS:  3039  HIT:  2723  MISS:   316  HIT %: 89.6018  MISS %: 10.3982  AVERAGE MISS PENALTY: 227.93
LLC6 RFO       ACCESS: 137152  HIT: 121984  MISS: 15168  HIT %: 88.9407  MISS %: 11.0593  AVERAGE MISS PENALTY: 207.738
LLC6 PREFETCH  ACCESS: 173269  HIT: 138263  MISS: 35006  HIT %: 79.7967  MISS %: 20.2033  AVERAGE MISS PENALTY: 244.798
LLC6 WRITEBACK ACCESS: 161097  HIT: 160485  MISS:   612  HIT %: 99.6201  MISS %: 0.379895  AVERAGE MISS PENALTY: 0
LLC6 PREFETCH  REQUESTED:     0  ISSUED:     0  USEFUL:  6642  USELESS: 25072
 USEFUL LOAD PREFETCHES:       6642 PREFETCH ISSUED TO LOWER LEVEL:      35006  ACCURACY: 18.9739
 TIMELY PREFETCHES:       6642 LATE PREFETCHES: 0 DROPPED PREFETCHES: 0
LLC6 AVERAGE MISS LATENCY: 230.762 cycles
LLC7 TOTAL     ACCESS: 473694  HIT: 421916  MISS: 51778  HIT %: 89.0693  MISS %: 10.9307  AVERAGE MISS PENALTY: 231.96
LLC7 LOAD      ACCESS:  3310  HIT:  2510  MISS:   800  HIT %: 75.8308  MISS %: 24.1692  AVERAGE MISS PENALTY: 183.928
LLC7 RFO       ACCESS: 136883  HIT: 121485  MISS: 15398  HIT %: 88.751  MISS %: 11.249  AVERAGE MISS PENALTY: 206.107
LLC7 PREFETCH  ACCESS: 172488  HIT: 137606  MISS: 34882  HIT %: 79.7771  MISS %: 20.2229  AVERAGE MISS PENALTY: 249.115
LLC7 WRITEBACK ACCESS: 161013  HIT: 160315  MISS:   698  HIT %: 99.5665  MISS %: 0.433505  AVERAGE MISS PENALTY: 0
LLC7 PREFETCH  REQUESTED:     0  ISSUED:     0  USEFUL:  6509  USELESS: 25209
 USEFUL LOAD PREFETCHES:       6509 PREFETCH ISSUED TO LOWER LEVEL:      34882  ACCURACY: 18.6601
 TIMELY PREFETCHES:       6509 LATE PREFETCHES: 0 DROPPED PREFETCHES: 0
LLC7 AVERAGE MISS LATENCY: 231.96 cycles
ROI Average ROB Stall Cycles:	4.71587
ROI Total ROB Stalls Cycles:	181783106
ROI TOTAL ROB counter      :	38547139
ROI Average Load ROB Stall Cycles:	6.00078
ROI Total Load ROB Stalls Cycle  :	21954416
ROI Total Load ROB stalls Counter:	3658592
Major fault: 0 Minor fault: 9002

