
*** ChampSim Multicore Out-of-Order Simulator ***

Warmup Instructions: 200000000
Simulation Instructions: 200000000
Number of CPUs: 1
threads:1

L1I Configuration:
L1I_SET:64
L1I_WAY:8
L1I_RQ_SIZE:64
L1I_WQ_SIZE:64
L1I_PQ_SIZE:8
L1I_MSHR_SIZE:8

L1D Configuration:
L1D_SET:64
L1D_WAY:12
L1D_RQ_SIZE:64
L1D_WQ_SIZE:64
L1D_PQ_SIZE:8
L1D_MSHR_SIZE:16

L2C Configuration:
L2C_SET:1024
L2C_WAY:8
L2C_RQ_SIZE:32
L2C_WQ_SIZE:32
L2C_PQ_SIZE:16
L2C_MSHR_SIZE:32

LLC Configuration:
LLC_SET:4096
LLC_WAY:16
LLC SLICES:8
LLC_RQ_SIZE:64
LLC_WQ_SIZE:64
LLC_PQ_SIZE:32
LLC_MSHR_SIZE:64

Interconnect OFF
Attacker deprioritize is: OFF
Off-chip DRAM Size: 4096 MB Channels: 1 Width: 64-bit Data Rate: 3200 MT/s
PAGE SIZE in KB: 4.000000 
PAGE SIZE in MB: 0.003906 
PAGE offset in bits: 12 
CEASER-S_LLC:0
MIRAGE : 0
CEASER_LATENCY:3
REMAP : OFF
Partitions : 1
Multi-Step : OFF
BFS : OFF

CPU 0 runs /home/anubhav/spec_2017/654.roms_s-294B.champsimtrace.xz
CPU 0 Bimodal branch predictor
Initialize Hawkeye state
Initialize Hawkeye state
Initialize Hawkeye state
Initialize Hawkeye state
Initialize Hawkeye state
Initialize Hawkeye state
Initialize Hawkeye state
Initialize Hawkeye state
Heartbeat CPU 0 instructions: 10000000 cycles: 4652032 heartbeat IPC: 2.1496 cumulative IPC: 2.1496 (Simulation time: 0 hr 1 min 36 sec) 
 Total Blocks : 524288 Invalid Blocks : 423701
Heartbeat CPU 0 instructions: 20000003 cycles: 9303760 heartbeat IPC: 2.14974 cumulative IPC: 2.14967 (Simulation time: 0 hr 4 min 0 sec) 
 Total Blocks : 524288 Invalid Blocks : 351535
Heartbeat CPU 0 instructions: 30000002 cycles: 13955487 heartbeat IPC: 2.14974 cumulative IPC: 2.14969 (Simulation time: 0 hr 7 min 7 sec) 
 Total Blocks : 524288 Invalid Blocks : 291016
Heartbeat CPU 0 instructions: 40000000 cycles: 18607172 heartbeat IPC: 2.14976 cumulative IPC: 2.14971 (Simulation time: 0 hr 11 min 9 sec) 
 Total Blocks : 524288 Invalid Blocks : 243617
Heartbeat CPU 0 instructions: 50000001 cycles: 23258622 heartbeat IPC: 2.14987 cumulative IPC: 2.14974 (Simulation time: 0 hr 15 min 21 sec) 
 Total Blocks : 524288 Invalid Blocks : 205806
Heartbeat CPU 0 instructions: 60000000 cycles: 27911487 heartbeat IPC: 2.14921 cumulative IPC: 2.14965 (Simulation time: 0 hr 19 min 46 sec) 
 Total Blocks : 524288 Invalid Blocks : 173708
Heartbeat CPU 0 instructions: 70000000 cycles: 32563003 heartbeat IPC: 2.14984 cumulative IPC: 2.14968 (Simulation time: 0 hr 24 min 31 sec) 
 Total Blocks : 524288 Invalid Blocks : 146850
Heartbeat CPU 0 instructions: 80000001 cycles: 37214424 heartbeat IPC: 2.14988 cumulative IPC: 2.1497 (Simulation time: 0 hr 29 min 18 sec) 
 Total Blocks : 524288 Invalid Blocks : 123725
Heartbeat CPU 0 instructions: 90000000 cycles: 41865793 heartbeat IPC: 2.1499 cumulative IPC: 2.14973 (Simulation time: 0 hr 34 min 19 sec) 
 Total Blocks : 524288 Invalid Blocks : 104916
Heartbeat CPU 0 instructions: 100000003 cycles: 46517251 heartbeat IPC: 2.14986 cumulative IPC: 2.14974 (Simulation time: 0 hr 39 min 36 sec) 
 Total Blocks : 524288 Invalid Blocks : 89612
Heartbeat CPU 0 instructions: 110000000 cycles: 51168080 heartbeat IPC: 2.15015 cumulative IPC: 2.14978 (Simulation time: 0 hr 44 min 58 sec) 
 Total Blocks : 524288 Invalid Blocks : 76702
Heartbeat CPU 0 instructions: 120000001 cycles: 55819570 heartbeat IPC: 2.14985 cumulative IPC: 2.14978 (Simulation time: 0 hr 50 min 42 sec) 
 Total Blocks : 524288 Invalid Blocks : 64898
Heartbeat CPU 0 instructions: 130000000 cycles: 60471015 heartbeat IPC: 2.14987 cumulative IPC: 2.14979 (Simulation time: 0 hr 56 min 28 sec) 
 Total Blocks : 524288 Invalid Blocks : 55500
Heartbeat CPU 0 instructions: 140000003 cycles: 65122452 heartbeat IPC: 2.14987 cumulative IPC: 2.1498 (Simulation time: 1 hr 2 min 40 sec) 
 Total Blocks : 524288 Invalid Blocks : 47582
Heartbeat CPU 0 instructions: 150000003 cycles: 69773744 heartbeat IPC: 2.14994 cumulative IPC: 2.14981 (Simulation time: 1 hr 9 min 14 sec) 
 Total Blocks : 524288 Invalid Blocks : 40660
Heartbeat CPU 0 instructions: 160000002 cycles: 74425213 heartbeat IPC: 2.14986 cumulative IPC: 2.14981 (Simulation time: 1 hr 15 min 37 sec) 
 Total Blocks : 524288 Invalid Blocks : 34852
Heartbeat CPU 0 instructions: 170000003 cycles: 79076435 heartbeat IPC: 2.14997 cumulative IPC: 2.14982 (Simulation time: 1 hr 22 min 17 sec) 
 Total Blocks : 524288 Invalid Blocks : 29776
Heartbeat CPU 0 instructions: 180000003 cycles: 83727732 heartbeat IPC: 2.14994 cumulative IPC: 2.14983 (Simulation time: 1 hr 28 min 54 sec) 
 Total Blocks : 524288 Invalid Blocks : 25467
Heartbeat CPU 0 instructions: 190000001 cycles: 88379078 heartbeat IPC: 2.14991 cumulative IPC: 2.14983 (Simulation time: 1 hr 35 min 31 sec) 
 Total Blocks : 524288 Invalid Blocks : 21917
Heartbeat CPU 0 instructions: 200000001 cycles: 93030670 heartbeat IPC: 2.1498 cumulative IPC: 2.14983 (Simulation time: 1 hr 42 min 29 sec) 
 Total Blocks : 524288 Invalid Blocks : 18965

Warmup complete CPU 0 instructions: 200000001 cycles: 93030670 (Simulation time: 1 hr 42 min 29 sec) 

Heartbeat CPU 0 instructions: 210000000 cycles: 101571903 heartbeat IPC: 1.17079 cumulative IPC: 1.17079 (Simulation time: 1 hr 50 min 22 sec) 
 Total Blocks : 524288 Invalid Blocks : 16301
Heartbeat CPU 0 instructions: 220000000 cycles: 110110206 heartbeat IPC: 1.17119 cumulative IPC: 1.17099 (Simulation time: 1 hr 58 min 41 sec) 
 Total Blocks : 524288 Invalid Blocks : 14250
Heartbeat CPU 0 instructions: 230000001 cycles: 118649391 heartbeat IPC: 1.17107 cumulative IPC: 1.17102 (Simulation time: 2 hr 6 min 55 sec) 
 Total Blocks : 524288 Invalid Blocks : 12418
Heartbeat CPU 0 instructions: 240000001 cycles: 127188277 heartbeat IPC: 1.17111 cumulative IPC: 1.17104 (Simulation time: 2 hr 15 min 3 sec) 
 Total Blocks : 524288 Invalid Blocks : 10817
Heartbeat CPU 0 instructions: 250000003 cycles: 135722503 heartbeat IPC: 1.17175 cumulative IPC: 1.17118 (Simulation time: 2 hr 23 min 26 sec) 
 Total Blocks : 524288 Invalid Blocks : 9376
Heartbeat CPU 0 instructions: 260000000 cycles: 144259566 heartbeat IPC: 1.17136 cumulative IPC: 1.17121 (Simulation time: 2 hr 31 min 35 sec) 
 Total Blocks : 524288 Invalid Blocks : 8135
Heartbeat CPU 0 instructions: 270000000 cycles: 152794678 heartbeat IPC: 1.17163 cumulative IPC: 1.17127 (Simulation time: 2 hr 39 min 17 sec) 
 Total Blocks : 524288 Invalid Blocks : 7138
Heartbeat CPU 0 instructions: 280000000 cycles: 161329750 heartbeat IPC: 1.17164 cumulative IPC: 1.17132 (Simulation time: 2 hr 46 min 22 sec) 
 Total Blocks : 524288 Invalid Blocks : 6202
Heartbeat CPU 0 instructions: 290000002 cycles: 169861995 heartbeat IPC: 1.17202 cumulative IPC: 1.1714 (Simulation time: 2 hr 53 min 20 sec) 
 Total Blocks : 524288 Invalid Blocks : 5334
Heartbeat CPU 0 instructions: 300000001 cycles: 178400339 heartbeat IPC: 1.17119 cumulative IPC: 1.17138 (Simulation time: 2 hr 59 min 44 sec) 
 Total Blocks : 524288 Invalid Blocks : 4564
Heartbeat CPU 0 instructions: 310000002 cycles: 186941982 heartbeat IPC: 1.17074 cumulative IPC: 1.17132 (Simulation time: 3 hr 4 min 15 sec) 
 Total Blocks : 524288 Invalid Blocks : 3986
Heartbeat CPU 0 instructions: 320000000 cycles: 195481943 heartbeat IPC: 1.17097 cumulative IPC: 1.17129 (Simulation time: 3 hr 10 min 1 sec) 
 Total Blocks : 524288 Invalid Blocks : 3486
Heartbeat CPU 0 instructions: 330000000 cycles: 204018811 heartbeat IPC: 1.17139 cumulative IPC: 1.1713 (Simulation time: 3 hr 14 min 32 sec) 
 Total Blocks : 524288 Invalid Blocks : 3039
Heartbeat CPU 0 instructions: 340000000 cycles: 212554343 heartbeat IPC: 1.17157 cumulative IPC: 1.17132 (Simulation time: 3 hr 19 min 0 sec) 
 Total Blocks : 524288 Invalid Blocks : 2681
Heartbeat CPU 0 instructions: 350000001 cycles: 221090269 heartbeat IPC: 1.17152 cumulative IPC: 1.17133 (Simulation time: 3 hr 23 min 33 sec) 
 Total Blocks : 524288 Invalid Blocks : 2357
Heartbeat CPU 0 instructions: 360000001 cycles: 229625083 heartbeat IPC: 1.17167 cumulative IPC: 1.17135 (Simulation time: 3 hr 28 min 7 sec) 
 Total Blocks : 524288 Invalid Blocks : 2073
Heartbeat CPU 0 instructions: 370000001 cycles: 238159232 heartbeat IPC: 1.17176 cumulative IPC: 1.17138 (Simulation time: 3 hr 32 min 47 sec) 
 Total Blocks : 524288 Invalid Blocks : 1809
Heartbeat CPU 0 instructions: 380000001 cycles: 246691048 heartbeat IPC: 1.17208 cumulative IPC: 1.17141 (Simulation time: 3 hr 37 min 34 sec) 
 Total Blocks : 524288 Invalid Blocks : 1621
Heartbeat CPU 0 instructions: 390000001 cycles: 255220752 heartbeat IPC: 1.17237 cumulative IPC: 1.17146 (Simulation time: 3 hr 42 min 26 sec) 
 Total Blocks : 524288 Invalid Blocks : 1440
Heartbeat CPU 0 instructions: 400000000 cycles: 263755766 heartbeat IPC: 1.17164 cumulative IPC: 1.17147 (Simulation time: 3 hr 47 min 19 sec) 
 Total Blocks : 524288 Invalid Blocks : 1261
Finished CPU 0 instructions: 200000003 cycles: 170725097 cumulative IPC: 1.17147 (Simulation time: 3 hr 47 min 19 sec) 

CPU 0 Branch Prediction Accuracy: 99.93% MPKI: 0.03515 Average ROB Occupancy at Mispredict: 339.877

ChampSim completed all CPUs

Region of Interest Statistics

CPU 0 cumulative IPC: 1.17147 instructions: 200000003 cycles: 170725097
ITLB TOTAL     ACCESS: 37045141  HIT: 37045141  MISS:     0  HIT %:   100  MISS %:     0  AVERAGE MISS PENALTY: 0
ITLB LOAD      ACCESS: 37045141  HIT: 37045141  MISS:     0  HIT %:   100  MISS %:     0  AVERAGE MISS PENALTY: 0
ITLB RFO       ACCESS:     0  HIT:     0  MISS:     0  HIT %:     0  MISS %:     0  AVERAGE MISS PENALTY: 0
ITLB PREFETCH  ACCESS:     0  HIT:     0  MISS:     0  HIT %:     0  MISS %:     0  AVERAGE MISS PENALTY: 0
ITLB WRITEBACK ACCESS:     0  HIT:     0  MISS:     0  HIT %:     0  MISS %:     0  AVERAGE MISS PENALTY: 0
ITLB PREFETCH  REQUESTED:     0  ISSUED:     0  USEFUL:     0  USELESS:     0
 USEFUL LOAD PREFETCHES:          0 PREFETCH ISSUED TO LOWER LEVEL:          0  ACCURACY: -nan
 TIMELY PREFETCHES:          0 LATE PREFETCHES: 0 DROPPED PREFETCHES: 0
ITLB AVERAGE MISS LATENCY: -nan cycles
DTLB TOTAL     ACCESS: 58140926  HIT: 58058329  MISS: 82597  HIT %: 99.8579  MISS %: 0.142063  AVERAGE MISS PENALTY: 187.766
DTLB LOAD      ACCESS: 51456841  HIT: 51374620  MISS: 82221  HIT %: 99.8402  MISS %: 0.159786  AVERAGE MISS PENALTY: 188.183
DTLB RFO       ACCESS: 6684085  HIT: 6683709  MISS:   376  HIT %: 99.9944  MISS %: 0.0056253  AVERAGE MISS PENALTY: 96.4973
DTLB PREFETCH  ACCESS:     0  HIT:     0  MISS:     0  HIT %:     0  MISS %:     0  AVERAGE MISS PENALTY: 0
DTLB WRITEBACK ACCESS:     0  HIT:     0  MISS:     0  HIT %:     0  MISS %:     0  AVERAGE MISS PENALTY: 0
DTLB PREFETCH  REQUESTED:     0  ISSUED:     0  USEFUL:     0  USELESS:     0
 USEFUL LOAD PREFETCHES:          0 PREFETCH ISSUED TO LOWER LEVEL:          0  ACCURACY: -nan
 TIMELY PREFETCHES:          0 LATE PREFETCHES: 0 DROPPED PREFETCHES: 0
DTLB AVERAGE MISS LATENCY: 187.766 cycles
STLB TOTAL     ACCESS: 82597  HIT: 16836  MISS: 65761  HIT %: 20.3833  MISS %: 79.6167  AVERAGE MISS PENALTY: 100
STLB LOAD      ACCESS: 82221  HIT: 16787  MISS: 65434  HIT %: 20.4169  MISS %: 79.5831  AVERAGE MISS PENALTY: 100
STLB RFO       ACCESS:   376  HIT:    49  MISS:   327  HIT %: 13.0319  MISS %: 86.9681  AVERAGE MISS PENALTY: 100
STLB PREFETCH  ACCESS:     0  HIT:     0  MISS:     0  HIT %:     0  MISS %:     0  AVERAGE MISS PENALTY: 0
STLB WRITEBACK ACCESS:     0  HIT:     0  MISS:     0  HIT %:     0  MISS %:     0  AVERAGE MISS PENALTY: 0
STLB PREFETCH  REQUESTED:     0  ISSUED:     0  USEFUL:     0  USELESS:     0
 USEFUL LOAD PREFETCHES:          0 PREFETCH ISSUED TO LOWER LEVEL:          0  ACCURACY: -nan
 TIMELY PREFETCHES:          0 LATE PREFETCHES: 0 DROPPED PREFETCHES: 0
STLB AVERAGE MISS LATENCY: 100 cycles
L1D TOTAL     ACCESS: 67362417  HIT: 64639190  MISS: 2723227  HIT %: 95.9573  MISS %: 4.04265  AVERAGE MISS PENALTY: 204818
L1D LOAD      ACCESS: 50326349  HIT: 50062837  MISS: 263512  HIT %: 99.4764  MISS %: 0.523606  AVERAGE MISS PENALTY: 2.11636e+06
L1D RFO       ACCESS: 6703414  HIT: 6683255  MISS: 20159  HIT %: 99.6993  MISS %: 0.300727  AVERAGE MISS PENALTY: 194.081
L1D PREFETCH  ACCESS: 10332654  HIT: 7893098  MISS: 2439556  HIT %: 76.3898  MISS %: 23.6102  AVERAGE MISS PENALTY: 31.6821
L1D WRITEBACK ACCESS:     0  HIT:     0  MISS:     0  HIT %:     0  MISS %:     0  AVERAGE MISS PENALTY: 0
L1D PREFETCH  REQUESTED: 12289700  ISSUED: 10433867  USEFUL: 2337350  USELESS: 102220
 USEFUL LOAD PREFETCHES:    2337350 PREFETCH ISSUED TO LOWER LEVEL:    3683330  ACCURACY: 63.4575
 TIMELY PREFETCHES:    2337350 LATE PREFETCHES: 10218 DROPPED PREFETCHES: 1855833
L1D AVERAGE MISS LATENCY: 36.9964 cycles
L1I TOTAL     ACCESS: 47670403  HIT: 47670403  MISS:     0  HIT %:   100  MISS %:     0  AVERAGE MISS PENALTY: 0
L1I LOAD      ACCESS: 47670403  HIT: 47670403  MISS:     0  HIT %:   100  MISS %:     0  AVERAGE MISS PENALTY: 0
L1I RFO       ACCESS:     0  HIT:     0  MISS:     0  HIT %:     0  MISS %:     0  AVERAGE MISS PENALTY: 0
L1I PREFETCH  ACCESS:     0  HIT:     0  MISS:     0  HIT %:     0  MISS %:     0  AVERAGE MISS PENALTY: 0
L1I WRITEBACK ACCESS:     0  HIT:     0  MISS:     0  HIT %:     0  MISS %:     0  AVERAGE MISS PENALTY: 0
L1I PREFETCH  REQUESTED:     0  ISSUED:     0  USEFUL:     0  USELESS:     0
 USEFUL LOAD PREFETCHES:          0 PREFETCH ISSUED TO LOWER LEVEL:          0  ACCURACY: -nan
 TIMELY PREFETCHES:          0 LATE PREFETCHES: 0 DROPPED PREFETCHES: 0
L1I AVERAGE MISS LATENCY: -nan cycles
L2C TOTAL     ACCESS: 10835467  HIT: 8014049  MISS: 2821418  HIT %: 73.9613  MISS %: 26.0387  AVERAGE MISS PENALTY: 199378
L2C LOAD      ACCESS: 263080  HIT: 172455  MISS: 90625  HIT %: 65.5523  MISS %: 34.4477  AVERAGE MISS PENALTY: 6.20343e+06
L2C RFO       ACCESS: 20159  HIT:  1110  MISS: 19049  HIT %: 5.50623  MISS %: 94.4938  AVERAGE MISS PENALTY: 186.196
L2C PREFETCH  ACCESS: 10497161  HIT: 7795828  MISS: 2701333  HIT %: 74.2661  MISS %: 25.7339  AVERAGE MISS PENALTY: 125.275
L2C WRITEBACK ACCESS: 55067  HIT: 44656  MISS: 10411  HIT %: 81.0939  MISS %: 18.9061  AVERAGE MISS PENALTY: 0
L2C PREFETCH  REQUESTED: 10230380  ISSUED: 9999755  USEFUL: 166562  USELESS: 2535153
 USEFUL LOAD PREFETCHES:     166562 PREFETCH ISSUED TO LOWER LEVEL:    2842456  ACCURACY: 5.85979
 TIMELY PREFETCHES:     166562 LATE PREFETCHES: 10455 DROPPED PREFETCHES: 230625
L2C AVERAGE MISS LATENCY: 126.089 cycles
LLC0 TOTAL     ACCESS: 351853  HIT: 60323  MISS: 291530  HIT %: 17.1444  MISS %: 82.8556  AVERAGE MISS PENALTY: 106.668
LLC0 LOAD      ACCESS: 45146  HIT:  7635  MISS: 37511  HIT %: 16.9118  MISS %: 83.0882  AVERAGE MISS PENALTY: 128.11
LLC0 RFO       ACCESS:  2375  HIT:     6  MISS:  2369  HIT %: 0.252632  MISS %: 99.7474  AVERAGE MISS PENALTY: 136.368
LLC0 PREFETCH  ACCESS: 301646  HIT: 50343  MISS: 251303  HIT %: 16.6894  MISS %: 83.3106  AVERAGE MISS PENALTY: 103.335
LLC0 WRITEBACK ACCESS:  2686  HIT:  2339  MISS:   347  HIT %: 87.0812  MISS %: 12.9188  AVERAGE MISS PENALTY: 0
LLC0 PREFETCH  REQUESTED:     0  ISSUED:     0  USEFUL:   135  USELESS: 247866
 USEFUL LOAD PREFETCHES:        135 PREFETCH ISSUED TO LOWER LEVEL:     251303  ACCURACY: 0.05372
 TIMELY PREFETCHES:        135 LATE PREFETCHES: 0 DROPPED PREFETCHES: 0
LLC0 AVERAGE MISS LATENCY: 106.668 cycles
Deadblocks : 31027 Deadblock percentage : 82.7144

LLC1 TOTAL     ACCESS: 352665  HIT: 60809  MISS: 291856  HIT %: 17.2427  MISS %: 82.7573  AVERAGE MISS PENALTY: 108.712
LLC1 LOAD      ACCESS:  6180  HIT:  1065  MISS:  5115  HIT %: 17.233  MISS %: 82.767  AVERAGE MISS PENALTY: 149.367
LLC1 RFO       ACCESS:  2369  HIT:     5  MISS:  2364  HIT %: 0.21106  MISS %: 99.7889  AVERAGE MISS PENALTY: 140.747
LLC1 PREFETCH  ACCESS: 341226  HIT: 57006  MISS: 284220  HIT %: 16.7062  MISS %: 83.2938  AVERAGE MISS PENALTY: 107.774
LLC1 WRITEBACK ACCESS:  2890  HIT:  2733  MISS:   157  HIT %: 94.5675  MISS %: 5.43253  AVERAGE MISS PENALTY: 0
LLC1 PREFETCH  REQUESTED:     0  ISSUED:     0  USEFUL:    84  USELESS: 282293
 USEFUL LOAD PREFETCHES:         84 PREFETCH ISSUED TO LOWER LEVEL:     284220  ACCURACY: 0.0295546
 TIMELY PREFETCHES:         84 LATE PREFETCHES: 0 DROPPED PREFETCHES: 0
LLC1 AVERAGE MISS LATENCY: 108.712 cycles
LLC2 TOTAL     ACCESS: 353479  HIT: 61004  MISS: 292475  HIT %: 17.2582  MISS %: 82.7418  AVERAGE MISS PENALTY: 109.214
LLC2 LOAD      ACCESS:  6117  HIT:  1151  MISS:  4966  HIT %: 18.8164  MISS %: 81.1836  AVERAGE MISS PENALTY: 148.557
LLC2 RFO       ACCESS:  2529  HIT:   169  MISS:  2360  HIT %: 6.68248  MISS %: 93.3175  AVERAGE MISS PENALTY: 145.553
LLC2 PREFETCH  ACCESS: 341942  HIT: 56946  MISS: 284996  HIT %: 16.6537  MISS %: 83.3463  AVERAGE MISS PENALTY: 108.286
LLC2 WRITEBACK ACCESS:  2891  HIT:  2738  MISS:   153  HIT %: 94.7077  MISS %: 5.29229  AVERAGE MISS PENALTY: 0
LLC2 PREFETCH  REQUESTED:     0  ISSUED:     0  USEFUL:   127  USELESS: 283078
 USEFUL LOAD PREFETCHES:        127 PREFETCH ISSUED TO LOWER LEVEL:     284996  ACCURACY: 0.044562
 TIMELY PREFETCHES:        127 LATE PREFETCHES: 0 DROPPED PREFETCHES: 0
LLC2 AVERAGE MISS LATENCY: 109.214 cycles
LLC3 TOTAL     ACCESS: 354020  HIT: 60992  MISS: 293028  HIT %: 17.2284  MISS %: 82.7716  AVERAGE MISS PENALTY: 110.126
LLC3 LOAD      ACCESS:  6101  HIT:  1126  MISS:  4975  HIT %: 18.456  MISS %: 81.544  AVERAGE MISS PENALTY: 149.62
LLC3 RFO       ACCESS:  2363  HIT:     8  MISS:  2355  HIT %: 0.338553  MISS %: 99.6614  AVERAGE MISS PENALTY: 145.728
LLC3 PREFETCH  ACCESS: 342625  HIT: 57089  MISS: 285536  HIT %: 16.6622  MISS %: 83.3378  AVERAGE MISS PENALTY: 109.207
LLC3 WRITEBACK ACCESS:  2931  HIT:  2769  MISS:   162  HIT %: 94.4729  MISS %: 5.52712  AVERAGE MISS PENALTY: 0
LLC3 PREFETCH  REQUESTED:     0  ISSUED:     0  USEFUL:   115  USELESS: 283764
 USEFUL LOAD PREFETCHES:        115 PREFETCH ISSUED TO LOWER LEVEL:     285536  ACCURACY: 0.0402751
 TIMELY PREFETCHES:        115 LATE PREFETCHES: 0 DROPPED PREFETCHES: 0
LLC3 AVERAGE MISS LATENCY: 110.126 cycles
LLC4 TOTAL     ACCESS: 354546  HIT: 61079  MISS: 293467  HIT %: 17.2274  MISS %: 82.7726  AVERAGE MISS PENALTY: 111.597
LLC4 LOAD      ACCESS:  6109  HIT:  1154  MISS:  4955  HIT %: 18.8902  MISS %: 81.1098  AVERAGE MISS PENALTY: 155.218
LLC4 RFO       ACCESS:  2359  HIT:    10  MISS:  2349  HIT %: 0.423908  MISS %: 99.5761  AVERAGE MISS PENALTY: 145.216
LLC4 PREFETCH  ACCESS: 343358  HIT: 57372  MISS: 285986  HIT %: 16.7091  MISS %: 83.2909  AVERAGE MISS PENALTY: 110.634
LLC4 WRITEBACK ACCESS:  2720  HIT:  2543  MISS:   177  HIT %: 93.4926  MISS %: 6.50735  AVERAGE MISS PENALTY: 0
LLC4 PREFETCH  REQUESTED:     0  ISSUED:     0  USEFUL:   113  USELESS: 284336
 USEFUL LOAD PREFETCHES:        113 PREFETCH ISSUED TO LOWER LEVEL:     285986  ACCURACY: 0.0395124
 TIMELY PREFETCHES:        113 LATE PREFETCHES: 0 DROPPED PREFETCHES: 0
LLC4 AVERAGE MISS LATENCY: 111.597 cycles
LLC5 TOTAL     ACCESS: 355080  HIT: 61160  MISS: 293920  HIT %: 17.2243  MISS %: 82.7757  AVERAGE MISS PENALTY: 113.008
LLC5 LOAD      ACCESS:  6132  HIT:  1205  MISS:  4927  HIT %: 19.651  MISS %: 80.349  AVERAGE MISS PENALTY: 156.855
LLC5 RFO       ACCESS:  2353  HIT:     9  MISS:  2344  HIT %: 0.38249  MISS %: 99.6175  AVERAGE MISS PENALTY: 146.389
LLC5 PREFETCH  ACCESS: 343832  HIT: 57359  MISS: 286473  HIT %: 16.6823  MISS %: 83.3177  AVERAGE MISS PENALTY: 112.05
LLC5 WRITEBACK ACCESS:  2763  HIT:  2587  MISS:   176  HIT %: 93.6301  MISS %: 6.36989  AVERAGE MISS PENALTY: 0
LLC5 PREFETCH  REQUESTED:     0  ISSUED:     0  USEFUL:   133  USELESS: 284797
 USEFUL LOAD PREFETCHES:        133 PREFETCH ISSUED TO LOWER LEVEL:     286473  ACCURACY: 0.0464267
 TIMELY PREFETCHES:        133 LATE PREFETCHES: 0 DROPPED PREFETCHES: 0
LLC5 AVERAGE MISS LATENCY: 113.008 cycles
LLC6 TOTAL     ACCESS: 355655  HIT: 61310  MISS: 294345  HIT %: 17.2386  MISS %: 82.7614  AVERAGE MISS PENALTY: 111.383
LLC6 LOAD      ACCESS:  6024  HIT:  1139  MISS:  4885  HIT %: 18.9077  MISS %: 81.0923  AVERAGE MISS PENALTY: 157.269
LLC6 RFO       ACCESS:  2356  HIT:    17  MISS:  2339  HIT %: 0.721562  MISS %: 99.2784  AVERAGE MISS PENALTY: 147.503
LLC6 PREFETCH  ACCESS: 344569  HIT: 57623  MISS: 286946  HIT %: 16.7232  MISS %: 83.2768  AVERAGE MISS PENALTY: 110.376
LLC6 WRITEBACK ACCESS:  2706  HIT:  2531  MISS:   175  HIT %: 93.5329  MISS %: 6.46711  AVERAGE MISS PENALTY: 0
LLC6 PREFETCH  REQUESTED:     0  ISSUED:     0  USEFUL:   124  USELESS: 285164
 USEFUL LOAD PREFETCHES:        124 PREFETCH ISSUED TO LOWER LEVEL:     286946  ACCURACY: 0.0432137
 TIMELY PREFETCHES:        124 LATE PREFETCHES: 0 DROPPED PREFETCHES: 0
LLC6 AVERAGE MISS LATENCY: 111.383 cycles
LLC7 TOTAL     ACCESS: 356004  HIT: 61370  MISS: 294634  HIT %: 17.2386  MISS %: 82.7614  AVERAGE MISS PENALTY: 109.163
LLC7 LOAD      ACCESS:  5925  HIT:   997  MISS:  4928  HIT %: 16.827  MISS %: 83.173  AVERAGE MISS PENALTY: 157.441
LLC7 RFO       ACCESS:  2345  HIT:    11  MISS:  2334  HIT %: 0.469083  MISS %: 99.5309  AVERAGE MISS PENALTY: 151.152
LLC7 PREFETCH  ACCESS: 345025  HIT: 57823  MISS: 287202  HIT %: 16.7591  MISS %: 83.2409  AVERAGE MISS PENALTY: 108.058
LLC7 WRITEBACK ACCESS:  2709  HIT:  2539  MISS:   170  HIT %: 93.7246  MISS %: 6.27538  AVERAGE MISS PENALTY: 0
LLC7 PREFETCH  REQUESTED:     0  ISSUED:     0  USEFUL:   118  USELESS: 284811
 USEFUL LOAD PREFETCHES:        118 PREFETCH ISSUED TO LOWER LEVEL:     287202  ACCURACY: 0.0410861
 TIMELY PREFETCHES:        118 LATE PREFETCHES: 0 DROPPED PREFETCHES: 0
LLC7 AVERAGE MISS LATENCY: 109.163 cycles
ROI Average ROB Stall Cycles:	7.63604
ROI Total ROB Stalls Cycles:	124698864
ROI TOTAL ROB counter      :	16330303
ROI Average Load ROB Stall Cycles:	10.1204
ROI Total Load ROB Stalls Cycle  :	30613439
ROI Total Load ROB stalls Counter:	3024928
Major fault: 0 Minor fault: 131518

