
*** ChampSim Multicore Out-of-Order Simulator ***

Warmup Instructions: 200000000
Simulation Instructions: 200000000
Number of CPUs: 1
threads:1

L1I Configuration:
L1I_SET:64
L1I_WAY:8
L1I_RQ_SIZE:64
L1I_WQ_SIZE:64
L1I_PQ_SIZE:8
L1I_MSHR_SIZE:8

L1D Configuration:
L1D_SET:64
L1D_WAY:12
L1D_RQ_SIZE:64
L1D_WQ_SIZE:64
L1D_PQ_SIZE:8
L1D_MSHR_SIZE:16

L2C Configuration:
L2C_SET:1024
L2C_WAY:8
L2C_RQ_SIZE:32
L2C_WQ_SIZE:32
L2C_PQ_SIZE:16
L2C_MSHR_SIZE:32

LLC Configuration:
LLC_SET:2048
LLC_WAY:16
LLC SLICES:8
LLC_RQ_SIZE:64
LLC_WQ_SIZE:64
LLC_PQ_SIZE:32
LLC_MSHR_SIZE:64

Interconnect OFF
Attacker deprioritize is: OFF
Off-chip DRAM Size: 4096 MB Channels: 1 Width: 64-bit Data Rate: 3200 MT/s
PAGE SIZE in KB: 4.000000 
PAGE SIZE in MB: 0.003906 
PAGE offset in bits: 12 
CEASER-S_LLC:0
MIRAGE : 0
CEASER_LATENCY:3
REMAP : OFF
Partitions : 1
Multi-Step : OFF
BFS : OFF

CPU 0 runs /home/anubhav/spec_2017/654.roms_s-523B.champsimtrace.xz
CPU 0 Bimodal branch predictor
Initialize Hawkeye state
Initialize Hawkeye state
Initialize Hawkeye state
Initialize Hawkeye state
Initialize Hawkeye state
Initialize Hawkeye state
Initialize Hawkeye state
Initialize Hawkeye state
Heartbeat CPU 0 instructions: 10000001 cycles: 4580146 heartbeat IPC: 2.18334 cumulative IPC: 2.18334 (Simulation time: 0 hr 0 min 55 sec) 
 Total Blocks : 262144 Invalid Blocks : 151315
Heartbeat CPU 0 instructions: 20000003 cycles: 9027350 heartbeat IPC: 2.2486 cumulative IPC: 2.21549 (Simulation time: 0 hr 2 min 7 sec) 
 Total Blocks : 262144 Invalid Blocks : 100408
Heartbeat CPU 0 instructions: 30000001 cycles: 14181530 heartbeat IPC: 1.94017 cumulative IPC: 2.11543 (Simulation time: 0 hr 4 min 51 sec) 
 Total Blocks : 262144 Invalid Blocks : 38383
Heartbeat CPU 0 instructions: 40000003 cycles: 18581662 heartbeat IPC: 2.27266 cumulative IPC: 2.15266 (Simulation time: 0 hr 7 min 27 sec) 
 Total Blocks : 262144 Invalid Blocks : 16416
Heartbeat CPU 0 instructions: 50000002 cycles: 23687136 heartbeat IPC: 1.95868 cumulative IPC: 2.11085 (Simulation time: 0 hr 9 min 37 sec) 
 Total Blocks : 262144 Invalid Blocks : 11041
Heartbeat CPU 0 instructions: 60000000 cycles: 28766952 heartbeat IPC: 1.96857 cumulative IPC: 2.08573 (Simulation time: 0 hr 12 min 13 sec) 
 Total Blocks : 262144 Invalid Blocks : 6835
Heartbeat CPU 0 instructions: 70000000 cycles: 33683467 heartbeat IPC: 2.03396 cumulative IPC: 2.07817 (Simulation time: 0 hr 14 min 35 sec) 
 Total Blocks : 262144 Invalid Blocks : 3850
Heartbeat CPU 0 instructions: 80000001 cycles: 38633443 heartbeat IPC: 2.02021 cumulative IPC: 2.07074 (Simulation time: 0 hr 16 min 43 sec) 
 Total Blocks : 262144 Invalid Blocks : 2714
Heartbeat CPU 0 instructions: 90000002 cycles: 43237172 heartbeat IPC: 2.17215 cumulative IPC: 2.08154 (Simulation time: 0 hr 18 min 19 sec) 
 Total Blocks : 262144 Invalid Blocks : 1978
Heartbeat CPU 0 instructions: 100000000 cycles: 47655289 heartbeat IPC: 2.26341 cumulative IPC: 2.0984 (Simulation time: 0 hr 19 min 42 sec) 
 Total Blocks : 262144 Invalid Blocks : 1406
Heartbeat CPU 0 instructions: 110000000 cycles: 52802902 heartbeat IPC: 1.94265 cumulative IPC: 2.08322 (Simulation time: 0 hr 22 min 18 sec) 
 Total Blocks : 262144 Invalid Blocks : 546
Heartbeat CPU 0 instructions: 120000002 cycles: 57223595 heartbeat IPC: 2.26209 cumulative IPC: 2.09704 (Simulation time: 0 hr 25 min 5 sec) 
 Total Blocks : 262144 Invalid Blocks : 263
Heartbeat CPU 0 instructions: 130000000 cycles: 62307394 heartbeat IPC: 1.96703 cumulative IPC: 2.08643 (Simulation time: 0 hr 27 min 8 sec) 
 Total Blocks : 262144 Invalid Blocks : 186
Heartbeat CPU 0 instructions: 140000002 cycles: 67353459 heartbeat IPC: 1.98174 cumulative IPC: 2.07859 (Simulation time: 0 hr 29 min 27 sec) 
 Total Blocks : 262144 Invalid Blocks : 118
Heartbeat CPU 0 instructions: 150000003 cycles: 72298038 heartbeat IPC: 2.02242 cumulative IPC: 2.07475 (Simulation time: 0 hr 31 min 21 sec) 
 Total Blocks : 262144 Invalid Blocks : 60
Heartbeat CPU 0 instructions: 160000001 cycles: 77240064 heartbeat IPC: 2.02346 cumulative IPC: 2.07146 (Simulation time: 0 hr 33 min 19 sec) 
 Total Blocks : 262144 Invalid Blocks : 47
Heartbeat CPU 0 instructions: 170000002 cycles: 81864890 heartbeat IPC: 2.16224 cumulative IPC: 2.07659 (Simulation time: 0 hr 34 min 43 sec) 
 Total Blocks : 262144 Invalid Blocks : 38
Heartbeat CPU 0 instructions: 180000002 cycles: 86249756 heartbeat IPC: 2.28057 cumulative IPC: 2.08696 (Simulation time: 0 hr 35 min 58 sec) 
 Total Blocks : 262144 Invalid Blocks : 31
Heartbeat CPU 0 instructions: 190000001 cycles: 91404135 heartbeat IPC: 1.9401 cumulative IPC: 2.07868 (Simulation time: 0 hr 38 min 39 sec) 
 Total Blocks : 262144 Invalid Blocks : 12
Heartbeat CPU 0 instructions: 200000000 cycles: 95847861 heartbeat IPC: 2.25036 cumulative IPC: 2.08664 (Simulation time: 0 hr 41 min 38 sec) 
 Total Blocks : 262144 Invalid Blocks : 6

Warmup complete CPU 0 instructions: 200000004 cycles: 95847862 (Simulation time: 0 hr 41 min 38 sec) 

Heartbeat CPU 0 instructions: 210000002 cycles: 104115430 heartbeat IPC: 1.20955 cumulative IPC: 1.20955 (Simulation time: 0 hr 44 min 38 sec) 
 Total Blocks : 262144 Invalid Blocks : 6
Heartbeat CPU 0 instructions: 220000000 cycles: 113055621 heartbeat IPC: 1.11854 cumulative IPC: 1.16227 (Simulation time: 0 hr 47 min 36 sec) 
 Total Blocks : 262144 Invalid Blocks : 4
Heartbeat CPU 0 instructions: 230000001 cycles: 122373996 heartbeat IPC: 1.07315 cumulative IPC: 1.13096 (Simulation time: 0 hr 50 min 26 sec) 
 Total Blocks : 262144 Invalid Blocks : 3
Heartbeat CPU 0 instructions: 240000003 cycles: 129646689 heartbeat IPC: 1.37501 cumulative IPC: 1.18347 (Simulation time: 0 hr 53 min 2 sec) 
 Total Blocks : 262144 Invalid Blocks : 3
Heartbeat CPU 0 instructions: 250000000 cycles: 136893515 heartbeat IPC: 1.37991 cumulative IPC: 1.21816 (Simulation time: 0 hr 55 min 24 sec) 
 Total Blocks : 262144 Invalid Blocks : 1
Heartbeat CPU 0 instructions: 260000003 cycles: 144025532 heartbeat IPC: 1.40213 cumulative IPC: 1.24539 (Simulation time: 0 hr 57 min 31 sec) 
 Total Blocks : 262144 Invalid Blocks : 0
Heartbeat CPU 0 instructions: 270000000 cycles: 155540958 heartbeat IPC: 0.8684 cumulative IPC: 1.17266 (Simulation time: 1 hr 1 min 38 sec) 
 Total Blocks : 262144 Invalid Blocks : 0
Heartbeat CPU 0 instructions: 280000001 cycles: 166220775 heartbeat IPC: 0.936346 cumulative IPC: 1.1368 (Simulation time: 1 hr 6 min 1 sec) 
 Total Blocks : 262144 Invalid Blocks : 0
Heartbeat CPU 0 instructions: 290000000 cycles: 174547614 heartbeat IPC: 1.20094 cumulative IPC: 1.14359 (Simulation time: 1 hr 8 min 37 sec) 
 Total Blocks : 262144 Invalid Blocks : 0
Heartbeat CPU 0 instructions: 300000000 cycles: 183478649 heartbeat IPC: 1.11969 cumulative IPC: 1.14115 (Simulation time: 1 hr 11 min 31 sec) 
 Total Blocks : 262144 Invalid Blocks : 0
Heartbeat CPU 0 instructions: 310000000 cycles: 192773210 heartbeat IPC: 1.0759 cumulative IPC: 1.13489 (Simulation time: 1 hr 13 min 50 sec) 
 Total Blocks : 262144 Invalid Blocks : 0
Heartbeat CPU 0 instructions: 320000003 cycles: 200114012 heartbeat IPC: 1.36225 cumulative IPC: 1.1509 (Simulation time: 1 hr 15 min 55 sec) 
 Total Blocks : 262144 Invalid Blocks : 0
Heartbeat CPU 0 instructions: 330000000 cycles: 207417104 heartbeat IPC: 1.36928 cumulative IPC: 1.1652 (Simulation time: 1 hr 17 min 46 sec) 
 Total Blocks : 262144 Invalid Blocks : 0
Heartbeat CPU 0 instructions: 340000003 cycles: 214366402 heartbeat IPC: 1.43899 cumulative IPC: 1.18125 (Simulation time: 1 hr 19 min 22 sec) 
 Total Blocks : 262144 Invalid Blocks : 0
Heartbeat CPU 0 instructions: 350000001 cycles: 226048095 heartbeat IPC: 0.85604 cumulative IPC: 1.15207 (Simulation time: 1 hr 22 min 12 sec) 
 Total Blocks : 262144 Invalid Blocks : 0
Heartbeat CPU 0 instructions: 360000003 cycles: 236746809 heartbeat IPC: 0.934692 cumulative IPC: 1.13557 (Simulation time: 1 hr 26 min 23 sec) 
 Total Blocks : 262144 Invalid Blocks : 0
Heartbeat CPU 0 instructions: 370000000 cycles: 245215272 heartbeat IPC: 1.18085 cumulative IPC: 1.13813 (Simulation time: 1 hr 28 min 16 sec) 
 Total Blocks : 262144 Invalid Blocks : 0
Heartbeat CPU 0 instructions: 380000002 cycles: 254144668 heartbeat IPC: 1.1199 cumulative IPC: 1.1371 (Simulation time: 1 hr 30 min 37 sec) 
 Total Blocks : 262144 Invalid Blocks : 0
Heartbeat CPU 0 instructions: 390000001 cycles: 263459765 heartbeat IPC: 1.07353 cumulative IPC: 1.13357 (Simulation time: 1 hr 33 min 3 sec) 
 Total Blocks : 262144 Invalid Blocks : 0
Heartbeat CPU 0 instructions: 400000001 cycles: 270912355 heartbeat IPC: 1.34182 cumulative IPC: 1.14244 (Simulation time: 1 hr 35 min 19 sec) 
 Total Blocks : 262144 Invalid Blocks : 0
Finished CPU 0 instructions: 200000001 cycles: 175064494 cumulative IPC: 1.14244 (Simulation time: 1 hr 35 min 19 sec) 

CPU 0 Branch Prediction Accuracy: 99.8572% MPKI: 0.09689 Average ROB Occupancy at Mispredict: 348.16

ChampSim completed all CPUs

Region of Interest Statistics

CPU 0 cumulative IPC: 1.14244 instructions: 200000001 cycles: 175064494
ITLB TOTAL     ACCESS: 34830144  HIT: 34830144  MISS:     0  HIT %:   100  MISS %:     0  AVERAGE MISS PENALTY: 0
ITLB LOAD      ACCESS: 34830144  HIT: 34830144  MISS:     0  HIT %:   100  MISS %:     0  AVERAGE MISS PENALTY: 0
ITLB RFO       ACCESS:     0  HIT:     0  MISS:     0  HIT %:     0  MISS %:     0  AVERAGE MISS PENALTY: 0
ITLB PREFETCH  ACCESS:     0  HIT:     0  MISS:     0  HIT %:     0  MISS %:     0  AVERAGE MISS PENALTY: 0
ITLB WRITEBACK ACCESS:     0  HIT:     0  MISS:     0  HIT %:     0  MISS %:     0  AVERAGE MISS PENALTY: 0
ITLB PREFETCH  REQUESTED:     0  ISSUED:     0  USEFUL:     0  USELESS:     0
 USEFUL LOAD PREFETCHES:          0 PREFETCH ISSUED TO LOWER LEVEL:          0  ACCURACY: -nan
 TIMELY PREFETCHES:          0 LATE PREFETCHES: 0 DROPPED PREFETCHES: 0
ITLB AVERAGE MISS LATENCY: -nan cycles
DTLB TOTAL     ACCESS: 55257937  HIT: 55156589  MISS: 101348  HIT %: 99.8166  MISS %: 0.183409  AVERAGE MISS PENALTY: 118.714
DTLB LOAD      ACCESS: 47956141  HIT: 47873546  MISS: 82595  HIT %: 99.8278  MISS %: 0.17223  AVERAGE MISS PENALTY: 120.763
DTLB RFO       ACCESS: 7301796  HIT: 7283043  MISS: 18753  HIT %: 99.7432  MISS %: 0.256827  AVERAGE MISS PENALTY: 109.687
DTLB PREFETCH  ACCESS:     0  HIT:     0  MISS:     0  HIT %:     0  MISS %:     0  AVERAGE MISS PENALTY: 0
DTLB WRITEBACK ACCESS:     0  HIT:     0  MISS:     0  HIT %:     0  MISS %:     0  AVERAGE MISS PENALTY: 0
DTLB PREFETCH  REQUESTED:     0  ISSUED:     0  USEFUL:     0  USELESS:     0
 USEFUL LOAD PREFETCHES:          0 PREFETCH ISSUED TO LOWER LEVEL:          0  ACCURACY: -nan
 TIMELY PREFETCHES:          0 LATE PREFETCHES: 0 DROPPED PREFETCHES: 0
DTLB AVERAGE MISS LATENCY: 118.714 cycles
STLB TOTAL     ACCESS: 101348  HIT:   738  MISS: 100610  HIT %: 0.728184  MISS %: 99.2718  AVERAGE MISS PENALTY: 100
STLB LOAD      ACCESS: 82595  HIT:   736  MISS: 81859  HIT %: 0.891095  MISS %: 99.1089  AVERAGE MISS PENALTY: 100
STLB RFO       ACCESS: 18753  HIT:     2  MISS: 18751  HIT %: 0.010665  MISS %: 99.9893  AVERAGE MISS PENALTY: 100
STLB PREFETCH  ACCESS:     0  HIT:     0  MISS:     0  HIT %:     0  MISS %:     0  AVERAGE MISS PENALTY: 0
STLB WRITEBACK ACCESS:     0  HIT:     0  MISS:     0  HIT %:     0  MISS %:     0  AVERAGE MISS PENALTY: 0
STLB PREFETCH  REQUESTED:     0  ISSUED:     0  USEFUL:     0  USELESS:     0
 USEFUL LOAD PREFETCHES:          0 PREFETCH ISSUED TO LOWER LEVEL:          0  ACCURACY: -nan
 TIMELY PREFETCHES:          0 LATE PREFETCHES: 0 DROPPED PREFETCHES: 0
STLB AVERAGE MISS LATENCY: 100 cycles
L1D TOTAL     ACCESS: 66002639  HIT: 61445015  MISS: 4557624  HIT %: 93.0948  MISS %: 6.90521  AVERAGE MISS PENALTY: 6.94896e+06
L1D LOAD      ACCESS: 44446680  HIT: 44175056  MISS: 271624  HIT %: 99.3889  MISS %: 0.611123  AVERAGE MISS PENALTY: 1.16595e+08
L1D RFO       ACCESS: 4142095  HIT: 2944343  MISS: 1197752  HIT %: 71.0834  MISS %: 28.9166  AVERAGE MISS PENALTY: 487.898
L1D PREFETCH  ACCESS: 17413864  HIT: 14325616  MISS: 3088248  HIT %: 82.2656  MISS %: 17.7344  AVERAGE MISS PENALTY: 63.7148
L1D WRITEBACK ACCESS:     0  HIT:     0  MISS:     0  HIT %:     0  MISS %:     0  AVERAGE MISS PENALTY: 0
L1D PREFETCH  REQUESTED: 21140803  ISSUED: 20811617  USEFUL: 2966572  USELESS: 121673
 USEFUL LOAD PREFETCHES:    2966572 PREFETCH ISSUED TO LOWER LEVEL:    8723667  ACCURACY: 34.006
 TIMELY PREFETCHES:    2966572 LATE PREFETCHES: 211787 DROPPED PREFETCHES: 329186
L1D AVERAGE MISS LATENCY: 183.353 cycles
L1I TOTAL     ACCESS: 48116662  HIT: 48116662  MISS:     0  HIT %:   100  MISS %:     0  AVERAGE MISS PENALTY: 0
L1I LOAD      ACCESS: 48116662  HIT: 48116662  MISS:     0  HIT %:   100  MISS %:     0  AVERAGE MISS PENALTY: 0
L1I RFO       ACCESS:     0  HIT:     0  MISS:     0  HIT %:     0  MISS %:     0  AVERAGE MISS PENALTY: 0
L1I PREFETCH  ACCESS:     0  HIT:     0  MISS:     0  HIT %:     0  MISS %:     0  AVERAGE MISS PENALTY: 0
L1I WRITEBACK ACCESS:     0  HIT:     0  MISS:     0  HIT %:     0  MISS %:     0  AVERAGE MISS PENALTY: 0
L1I PREFETCH  REQUESTED:     0  ISSUED:     0  USEFUL:     0  USELESS:     0
 USEFUL LOAD PREFETCHES:          0 PREFETCH ISSUED TO LOWER LEVEL:          0  ACCURACY: -nan
 TIMELY PREFETCHES:          0 LATE PREFETCHES: 0 DROPPED PREFETCHES: 0
L1I AVERAGE MISS LATENCY: -nan cycles
L2C TOTAL     ACCESS: 13352337  HIT: 8691882  MISS: 4660455  HIT %: 65.0963  MISS %: 34.9037  AVERAGE MISS PENALTY: 6.0148e+06
L2C LOAD      ACCESS: 257340  HIT:  2759  MISS: 254581  HIT %: 1.07212  MISS %: 98.9279  AVERAGE MISS PENALTY: 1.10105e+08
L2C RFO       ACCESS: 1197751  HIT:    15  MISS: 1197736  HIT %: 0.00125235  MISS %: 99.9987  AVERAGE MISS PENALTY: 301.542
L2C PREFETCH  ACCESS: 10432905  HIT: 7224835  MISS: 3208070  HIT %: 69.2505  MISS %: 30.7495  AVERAGE MISS PENALTY: 209.652
L2C WRITEBACK ACCESS: 1464341  HIT: 1464273  MISS:    68  HIT %: 99.9954  MISS %: 0.00464373  AVERAGE MISS PENALTY: 0
L2C PREFETCH  REQUESTED: 10924836  ISSUED: 10922394  USEFUL:  1272  USELESS: 3206962
 USEFUL LOAD PREFETCHES:       1272 PREFETCH ISSUED TO LOWER LEVEL:    5534481  ACCURACY: 0.0229832
 TIMELY PREFETCHES:       1272 LATE PREFETCHES: 170925 DROPPED PREFETCHES: 2442
L2C AVERAGE MISS LATENCY: 232.709 cycles
LLC0 TOTAL     ACCESS: 763876  HIT: 364961  MISS: 398915  HIT %: 47.7775  MISS %: 52.2225  AVERAGE MISS PENALTY: 297.024
LLC0 LOAD      ACCESS: 56278  HIT: 22861  MISS: 33417  HIT %: 40.6216  MISS %: 59.3784  AVERAGE MISS PENALTY: 267.428
LLC0 RFO       ACCESS: 149715  HIT: 17183  MISS: 132532  HIT %: 11.4771  MISS %: 88.5229  AVERAGE MISS PENALTY: 291.087
LLC0 PREFETCH  ACCESS: 374932  HIT: 144235  MISS: 230697  HIT %: 38.4696  MISS %: 61.5304  AVERAGE MISS PENALTY: 307.642
LLC0 WRITEBACK ACCESS: 182951  HIT: 180682  MISS:  2269  HIT %: 98.7598  MISS %: 1.24022  AVERAGE MISS PENALTY: 0
LLC0 PREFETCH  REQUESTED:     0  ISSUED:     0  USEFUL:  8367  USELESS: 227275
 USEFUL LOAD PREFETCHES:       8367 PREFETCH ISSUED TO LOWER LEVEL:     230697  ACCURACY: 3.62684
 TIMELY PREFETCHES:       8367 LATE PREFETCHES: 0 DROPPED PREFETCHES: 0
LLC0 AVERAGE MISS LATENCY: 297.024 cycles
Deadblocks : 23871 Deadblock percentage : 71.4337

LLC1 TOTAL     ACCESS: 764449  HIT: 370976  MISS: 393473  HIT %: 48.5285  MISS %: 51.4715  AVERAGE MISS PENALTY: 302.181
LLC1 LOAD      ACCESS: 11990  HIT:  3535  MISS:  8455  HIT %: 29.4829  MISS %: 70.5171  AVERAGE MISS PENALTY: 295.058
LLC1 RFO       ACCESS: 149713  HIT: 16517  MISS: 133196  HIT %: 11.0324  MISS %: 88.9676  AVERAGE MISS PENALTY: 293.964
LLC1 PREFETCH  ACCESS: 419797  HIT: 169528  MISS: 250269  HIT %: 40.3833  MISS %: 59.6167  AVERAGE MISS PENALTY: 308.671
LLC1 WRITEBACK ACCESS: 182949  HIT: 181396  MISS:  1553  HIT %: 99.1511  MISS %: 0.84887  AVERAGE MISS PENALTY: 0
LLC1 PREFETCH  REQUESTED:     0  ISSUED:     0  USEFUL:  9744  USELESS: 247160
 USEFUL LOAD PREFETCHES:       9744 PREFETCH ISSUED TO LOWER LEVEL:     250269  ACCURACY: 3.89341
 TIMELY PREFETCHES:       9744 LATE PREFETCHES: 0 DROPPED PREFETCHES: 0
LLC1 AVERAGE MISS LATENCY: 302.181 cycles
LLC2 TOTAL     ACCESS: 765024  HIT: 374101  MISS: 390923  HIT %: 48.9006  MISS %: 51.0994  AVERAGE MISS PENALTY: 305.214
LLC2 LOAD      ACCESS:  6569  HIT:  2083  MISS:  4486  HIT %: 31.7095  MISS %: 68.2905  AVERAGE MISS PENALTY: 319.123
LLC2 RFO       ACCESS: 149725  HIT: 16383  MISS: 133342  HIT %: 10.9421  MISS %: 89.0579  AVERAGE MISS PENALTY: 296.878
LLC2 PREFETCH  ACCESS: 425738  HIT: 173887  MISS: 251851  HIT %: 40.8437  MISS %: 59.1563  AVERAGE MISS PENALTY: 310.886
LLC2 WRITEBACK ACCESS: 182992  HIT: 181748  MISS:  1244  HIT %: 99.3202  MISS %: 0.679811  AVERAGE MISS PENALTY: 0
LLC2 PREFETCH  REQUESTED:     0  ISSUED:     0  USEFUL:  9207  USELESS: 249101
 USEFUL LOAD PREFETCHES:       9207 PREFETCH ISSUED TO LOWER LEVEL:     251851  ACCURACY: 3.65573
 TIMELY PREFETCHES:       9207 LATE PREFETCHES: 0 DROPPED PREFETCHES: 0
LLC2 AVERAGE MISS LATENCY: 305.213 cycles
LLC3 TOTAL     ACCESS: 765354  HIT: 375807  MISS: 389547  HIT %: 49.1024  MISS %: 50.8976  AVERAGE MISS PENALTY: 307.123
LLC3 LOAD      ACCESS:  6551  HIT:  2097  MISS:  4454  HIT %: 32.0104  MISS %: 67.9896  AVERAGE MISS PENALTY: 320.439
LLC3 RFO       ACCESS: 149715  HIT: 16265  MISS: 133450  HIT %: 10.864  MISS %: 89.136  AVERAGE MISS PENALTY: 297.289
LLC3 PREFETCH  ACCESS: 426123  HIT: 175539  MISS: 250584  HIT %: 41.1944  MISS %: 58.8056  AVERAGE MISS PENALTY: 313.421
LLC3 WRITEBACK ACCESS: 182965  HIT: 181906  MISS:  1059  HIT %: 99.4212  MISS %: 0.578799  AVERAGE MISS PENALTY: 0
LLC3 PREFETCH  REQUESTED:     0  ISSUED:     0  USEFUL:  8903  USELESS: 248106
 USEFUL LOAD PREFETCHES:       8903 PREFETCH ISSUED TO LOWER LEVEL:     250585  ACCURACY: 3.55289
 TIMELY PREFETCHES:       8903 LATE PREFETCHES: 0 DROPPED PREFETCHES: 0
LLC3 AVERAGE MISS LATENCY: 307.123 cycles
LLC4 TOTAL     ACCESS: 765724  HIT: 376678  MISS: 389046  HIT %: 49.1924  MISS %: 50.8076  AVERAGE MISS PENALTY: 309.248
LLC4 LOAD      ACCESS:  6590  HIT:  2102  MISS:  4488  HIT %: 31.8968  MISS %: 68.1032  AVERAGE MISS PENALTY: 318.365
LLC4 RFO       ACCESS: 149717  HIT: 16325  MISS: 133392  HIT %: 10.9039  MISS %: 89.0961  AVERAGE MISS PENALTY: 298.869
LLC4 PREFETCH  ACCESS: 426443  HIT: 176156  MISS: 250287  HIT %: 41.3082  MISS %: 58.6918  AVERAGE MISS PENALTY: 315.702
LLC4 WRITEBACK ACCESS: 182974  HIT: 182095  MISS:   879  HIT %: 99.5196  MISS %: 0.480396  AVERAGE MISS PENALTY: 0
LLC4 PREFETCH  REQUESTED:     0  ISSUED:     0  USEFUL:  9071  USELESS: 247738
 USEFUL LOAD PREFETCHES:       9071 PREFETCH ISSUED TO LOWER LEVEL:     250288  ACCURACY: 3.62422
 TIMELY PREFETCHES:       9071 LATE PREFETCHES: 0 DROPPED PREFETCHES: 0
LLC4 AVERAGE MISS LATENCY: 309.248 cycles
LLC5 TOTAL     ACCESS: 766111  HIT: 376187  MISS: 389924  HIT %: 49.1035  MISS %: 50.8965  AVERAGE MISS PENALTY: 310.486
LLC5 LOAD      ACCESS:  6613  HIT:  2076  MISS:  4537  HIT %: 31.3927  MISS %: 68.6073  AVERAGE MISS PENALTY: 319.717
LLC5 RFO       ACCESS: 149716  HIT: 16161  MISS: 133555  HIT %: 10.7944  MISS %: 89.2056  AVERAGE MISS PENALTY: 298.293
LLC5 PREFETCH  ACCESS: 426808  HIT: 175865  MISS: 250943  HIT %: 41.2047  MISS %: 58.7953  AVERAGE MISS PENALTY: 317.909
LLC5 WRITEBACK ACCESS: 182974  HIT: 182085  MISS:   889  HIT %: 99.5141  MISS %: 0.485861  AVERAGE MISS PENALTY: 0
LLC5 PREFETCH  REQUESTED:     0  ISSUED:     0  USEFUL:  9062  USELESS: 248531
 USEFUL LOAD PREFETCHES:       9062 PREFETCH ISSUED TO LOWER LEVEL:     250943  ACCURACY: 3.61118
 TIMELY PREFETCHES:       9062 LATE PREFETCHES: 0 DROPPED PREFETCHES: 0
LLC5 AVERAGE MISS LATENCY: 310.486 cycles
LLC6 TOTAL     ACCESS: 766623  HIT: 375310  MISS: 391313  HIT %: 48.9563  MISS %: 51.0437  AVERAGE MISS PENALTY: 310.275
LLC6 LOAD      ACCESS:  6627  HIT:  2028  MISS:  4599  HIT %: 30.6021  MISS %: 69.3979  AVERAGE MISS PENALTY: 319.411
LLC6 RFO       ACCESS: 149716  HIT: 16423  MISS: 133293  HIT %: 10.9694  MISS %: 89.0306  AVERAGE MISS PENALTY: 299.577
LLC6 PREFETCH  ACCESS: 427314  HIT: 174807  MISS: 252507  HIT %: 40.9083  MISS %: 59.0917  AVERAGE MISS PENALTY: 316.879
LLC6 WRITEBACK ACCESS: 182966  HIT: 182052  MISS:   914  HIT %: 99.5005  MISS %: 0.499546  AVERAGE MISS PENALTY: 0
LLC6 PREFETCH  REQUESTED:     0  ISSUED:     0  USEFUL:  9057  USELESS: 249960
 USEFUL LOAD PREFETCHES:       9057 PREFETCH ISSUED TO LOWER LEVEL:     252507  ACCURACY: 3.58683
 TIMELY PREFETCHES:       9057 LATE PREFETCHES: 0 DROPPED PREFETCHES: 0
LLC6 AVERAGE MISS LATENCY: 310.275 cycles
LLC7 TOTAL     ACCESS: 766961  HIT: 373114  MISS: 393847  HIT %: 48.6484  MISS %: 51.3516  AVERAGE MISS PENALTY: 311.688
LLC7 LOAD      ACCESS:  6618  HIT:  1970  MISS:  4648  HIT %: 29.7673  MISS %: 70.2327  AVERAGE MISS PENALTY: 316.504
LLC7 RFO       ACCESS: 149719  HIT: 16430  MISS: 133289  HIT %: 10.9739  MISS %: 89.0261  AVERAGE MISS PENALTY: 300.698
LLC7 PREFETCH  ACCESS: 427660  HIT: 172629  MISS: 255031  HIT %: 40.3659  MISS %: 59.6341  AVERAGE MISS PENALTY: 318.419
LLC7 WRITEBACK ACCESS: 182964  HIT: 182085  MISS:   879  HIT %: 99.5196  MISS %: 0.480422  AVERAGE MISS PENALTY: 0
LLC7 PREFETCH  REQUESTED:     0  ISSUED:     0  USEFUL:  9058  USELESS: 252424
 USEFUL LOAD PREFETCHES:       9058 PREFETCH ISSUED TO LOWER LEVEL:     255031  ACCURACY: 3.55173
 TIMELY PREFETCHES:       9058 LATE PREFETCHES: 0 DROPPED PREFETCHES: 0
LLC7 AVERAGE MISS LATENCY: 311.688 cycles
ROI Average ROB Stall Cycles:	8.00751
ROI Total ROB Stalls Cycles:	128907861
ROI TOTAL ROB counter      :	16098378
ROI Average Load ROB Stall Cycles:	18.4759
ROI Total Load ROB Stalls Cycle  :	51045000
ROI Total Load ROB stalls Counter:	2762781
Major fault: 0 Minor fault: 49369

