
*** ChampSim Multicore Out-of-Order Simulator ***

Warmup Instructions: 200000000
Simulation Instructions: 200000000
Number of CPUs: 1
threads:1

L1I Configuration:
L1I_SET:64
L1I_WAY:8
L1I_RQ_SIZE:64
L1I_WQ_SIZE:64
L1I_PQ_SIZE:8
L1I_MSHR_SIZE:8

L1D Configuration:
L1D_SET:64
L1D_WAY:12
L1D_RQ_SIZE:64
L1D_WQ_SIZE:64
L1D_PQ_SIZE:8
L1D_MSHR_SIZE:16

L2C Configuration:
L2C_SET:1024
L2C_WAY:8
L2C_RQ_SIZE:32
L2C_WQ_SIZE:32
L2C_PQ_SIZE:16
L2C_MSHR_SIZE:32

LLC Configuration:
LLC_SET:2048
LLC_WAY:16
LLC SLICES:8
LLC_RQ_SIZE:64
LLC_WQ_SIZE:64
LLC_PQ_SIZE:32
LLC_MSHR_SIZE:64

Interconnect OFF
Attacker deprioritize is: OFF
Off-chip DRAM Size: 4096 MB Channels: 1 Width: 64-bit Data Rate: 3200 MT/s
PAGE SIZE in KB: 4.000000 
PAGE SIZE in MB: 0.003906 
PAGE offset in bits: 12 
CEASER-S_LLC:0
MIRAGE : 1
CEASER_LATENCY:3
REMAP : OFF
Partitions : 1
Multi-Step : OFF
BFS : OFF

CPU 0 runs /home/anubhav/gap/bc-12.trace.gz
CPU 0 Bimodal branch predictor
Initialize Hawkeye state
Initialize Hawkeye state
Initialize Hawkeye state
Initialize Hawkeye state
Initialize Hawkeye state
Initialize Hawkeye state
Initialize Hawkeye state
Initialize Hawkeye state
Heartbeat CPU 0 instructions: 10000000 cycles: 11952022 heartbeat IPC: 0.836679 cumulative IPC: 0.836679 (Simulation time: 0 hr 1 min 20 sec) 
 Total Blocks : 262144 Invalid Blocks : 64968
Heartbeat CPU 0 instructions: 20000001 cycles: 25683414 heartbeat IPC: 0.728258 cumulative IPC: 0.778713 (Simulation time: 0 hr 2 min 31 sec) 
 Total Blocks : 262144 Invalid Blocks : 46829
Heartbeat CPU 0 instructions: 30000000 cycles: 38886707 heartbeat IPC: 0.757387 cumulative IPC: 0.771472 (Simulation time: 0 hr 3 min 40 sec) 
 Total Blocks : 262144 Invalid Blocks : 34198
Heartbeat CPU 0 instructions: 40000002 cycles: 51757639 heartbeat IPC: 0.776945 cumulative IPC: 0.772833 (Simulation time: 0 hr 4 min 50 sec) 
 Total Blocks : 262144 Invalid Blocks : 24781
Heartbeat CPU 0 instructions: 50000002 cycles: 64285079 heartbeat IPC: 0.798248 cumulative IPC: 0.777785 (Simulation time: 0 hr 6 min 0 sec) 
 Total Blocks : 262144 Invalid Blocks : 18022
Heartbeat CPU 0 instructions: 60000000 cycles: 76655170 heartbeat IPC: 0.808401 cumulative IPC: 0.782726 (Simulation time: 0 hr 7 min 46 sec) 
 Total Blocks : 262144 Invalid Blocks : 12836
Heartbeat CPU 0 instructions: 70000001 cycles: 89118989 heartbeat IPC: 0.802322 cumulative IPC: 0.785467 (Simulation time: 0 hr 9 min 40 sec) 
 Total Blocks : 262144 Invalid Blocks : 9266
Heartbeat CPU 0 instructions: 80000001 cycles: 101611639 heartbeat IPC: 0.800471 cumulative IPC: 0.787311 (Simulation time: 0 hr 11 min 37 sec) 
 Total Blocks : 262144 Invalid Blocks : 6651
Heartbeat CPU 0 instructions: 90000001 cycles: 114095043 heartbeat IPC: 0.801064 cumulative IPC: 0.788816 (Simulation time: 0 hr 13 min 33 sec) 
 Total Blocks : 262144 Invalid Blocks : 4825
Heartbeat CPU 0 instructions: 100000000 cycles: 126552500 heartbeat IPC: 0.802732 cumulative IPC: 0.790186 (Simulation time: 0 hr 15 min 29 sec) 
 Total Blocks : 262144 Invalid Blocks : 3428
Heartbeat CPU 0 instructions: 110000000 cycles: 139003346 heartbeat IPC: 0.803158 cumulative IPC: 0.791348 (Simulation time: 0 hr 17 min 28 sec) 
 Total Blocks : 262144 Invalid Blocks : 2461
Heartbeat CPU 0 instructions: 120000000 cycles: 151256942 heartbeat IPC: 0.816087 cumulative IPC: 0.793352 (Simulation time: 0 hr 19 min 23 sec) 
 Total Blocks : 262144 Invalid Blocks : 1806
Heartbeat CPU 0 instructions: 130000001 cycles: 163659126 heartbeat IPC: 0.80631 cumulative IPC: 0.794334 (Simulation time: 0 hr 21 min 24 sec) 
 Total Blocks : 262144 Invalid Blocks : 1306
Heartbeat CPU 0 instructions: 140000002 cycles: 175840390 heartbeat IPC: 0.820933 cumulative IPC: 0.796177 (Simulation time: 0 hr 23 min 20 sec) 
 Total Blocks : 262144 Invalid Blocks : 953
Heartbeat CPU 0 instructions: 150000000 cycles: 188217965 heartbeat IPC: 0.807913 cumulative IPC: 0.796948 (Simulation time: 0 hr 25 min 20 sec) 
 Total Blocks : 262144 Invalid Blocks : 676
Heartbeat CPU 0 instructions: 160000000 cycles: 200250527 heartbeat IPC: 0.831078 cumulative IPC: 0.798999 (Simulation time: 0 hr 27 min 14 sec) 
 Total Blocks : 262144 Invalid Blocks : 480
Heartbeat CPU 0 instructions: 170000002 cycles: 212190042 heartbeat IPC: 0.837555 cumulative IPC: 0.801169 (Simulation time: 0 hr 29 min 5 sec) 
 Total Blocks : 262144 Invalid Blocks : 338
Heartbeat CPU 0 instructions: 180000000 cycles: 224439321 heartbeat IPC: 0.816374 cumulative IPC: 0.801998 (Simulation time: 0 hr 31 min 4 sec) 
 Total Blocks : 262144 Invalid Blocks : 242
Heartbeat CPU 0 instructions: 190000001 cycles: 236219408 heartbeat IPC: 0.84889 cumulative IPC: 0.804337 (Simulation time: 0 hr 32 min 56 sec) 
 Total Blocks : 262144 Invalid Blocks : 162
Heartbeat CPU 0 instructions: 200000003 cycles: 248724585 heartbeat IPC: 0.799669 cumulative IPC: 0.804102 (Simulation time: 0 hr 35 min 4 sec) 
 Total Blocks : 262144 Invalid Blocks : 113

Warmup complete CPU 0 instructions: 200000003 cycles: 248724585 (Simulation time: 0 hr 35 min 4 sec) 

Heartbeat CPU 0 instructions: 210000000 cycles: 307757650 heartbeat IPC: 0.169397 cumulative IPC: 0.169397 (Simulation time: 0 hr 39 min 13 sec) 
 Total Blocks : 262144 Invalid Blocks : 75
Heartbeat CPU 0 instructions: 220000000 cycles: 366839887 heartbeat IPC: 0.169256 cumulative IPC: 0.169326 (Simulation time: 0 hr 43 min 24 sec) 
 Total Blocks : 262144 Invalid Blocks : 56
Heartbeat CPU 0 instructions: 230000000 cycles: 426436874 heartbeat IPC: 0.167794 cumulative IPC: 0.168812 (Simulation time: 0 hr 47 min 35 sec) 
 Total Blocks : 262144 Invalid Blocks : 30
Heartbeat CPU 0 instructions: 240000000 cycles: 485862539 heartbeat IPC: 0.168277 cumulative IPC: 0.168678 (Simulation time: 0 hr 51 min 45 sec) 
 Total Blocks : 262144 Invalid Blocks : 25
Heartbeat CPU 0 instructions: 250000000 cycles: 545053147 heartbeat IPC: 0.168946 cumulative IPC: 0.168732 (Simulation time: 0 hr 55 min 54 sec) 
 Total Blocks : 262144 Invalid Blocks : 10
Heartbeat CPU 0 instructions: 260000003 cycles: 604129592 heartbeat IPC: 0.169272 cumulative IPC: 0.168821 (Simulation time: 1 hr 0 min 1 sec) 
 Total Blocks : 262144 Invalid Blocks : 6
Heartbeat CPU 0 instructions: 270000002 cycles: 663289101 heartbeat IPC: 0.169035 cumulative IPC: 0.168852 (Simulation time: 1 hr 4 min 5 sec) 
 Total Blocks : 262144 Invalid Blocks : 2
Heartbeat CPU 0 instructions: 280000002 cycles: 722569941 heartbeat IPC: 0.168689 cumulative IPC: 0.168831 (Simulation time: 1 hr 8 min 6 sec) 
 Total Blocks : 262144 Invalid Blocks : 2
Heartbeat CPU 0 instructions: 290000003 cycles: 782112729 heartbeat IPC: 0.167946 cumulative IPC: 0.168733 (Simulation time: 1 hr 12 min 6 sec) 
 Total Blocks : 262144 Invalid Blocks : 2
Heartbeat CPU 0 instructions: 300000001 cycles: 841633136 heartbeat IPC: 0.16801 cumulative IPC: 0.16866 (Simulation time: 1 hr 16 min 2 sec) 
 Total Blocks : 262144 Invalid Blocks : 1
Heartbeat CPU 0 instructions: 310000001 cycles: 901778731 heartbeat IPC: 0.166263 cumulative IPC: 0.168439 (Simulation time: 1 hr 19 min 54 sec) 
 Total Blocks : 262144 Invalid Blocks : 0
Heartbeat CPU 0 instructions: 320000002 cycles: 928807792 heartbeat IPC: 0.369972 cumulative IPC: 0.176449 (Simulation time: 1 hr 22 min 48 sec) 
 Total Blocks : 262144 Invalid Blocks : 0
Heartbeat CPU 0 instructions: 330000000 cycles: 946059521 heartbeat IPC: 0.579652 cumulative IPC: 0.186424 (Simulation time: 1 hr 25 min 23 sec) 
 Total Blocks : 262144 Invalid Blocks : 0
Heartbeat CPU 0 instructions: 340000001 cycles: 964539610 heartbeat IPC: 0.541123 cumulative IPC: 0.195581 (Simulation time: 1 hr 27 min 49 sec) 
 Total Blocks : 262144 Invalid Blocks : 0
Heartbeat CPU 0 instructions: 350000000 cycles: 983933906 heartbeat IPC: 0.515615 cumulative IPC: 0.204024 (Simulation time: 1 hr 30 min 10 sec) 
 Total Blocks : 262144 Invalid Blocks : 0
Heartbeat CPU 0 instructions: 360000001 cycles: 1003688869 heartbeat IPC: 0.506202 cumulative IPC: 0.211931 (Simulation time: 1 hr 32 min 31 sec) 
 Total Blocks : 262144 Invalid Blocks : 0
Heartbeat CPU 0 instructions: 370000002 cycles: 1024609959 heartbeat IPC: 0.477987 cumulative IPC: 0.219105 (Simulation time: 1 hr 34 min 49 sec) 
 Total Blocks : 262144 Invalid Blocks : 0
Heartbeat CPU 0 instructions: 380000002 cycles: 1047266465 heartbeat IPC: 0.441374 cumulative IPC: 0.225411 (Simulation time: 1 hr 37 min 6 sec) 
 Total Blocks : 262144 Invalid Blocks : 0
Heartbeat CPU 0 instructions: 390000000 cycles: 1071202131 heartbeat IPC: 0.417787 cumulative IPC: 0.231009 (Simulation time: 1 hr 39 min 20 sec) 
 Total Blocks : 262144 Invalid Blocks : 0
Heartbeat CPU 0 instructions: 400000002 cycles: 1097116317 heartbeat IPC: 0.385889 cumulative IPC: 0.23574 (Simulation time: 1 hr 41 min 36 sec) 
 Total Blocks : 262144 Invalid Blocks : 0
Finished CPU 0 instructions: 200000003 cycles: 848391733 cumulative IPC: 0.23574 (Simulation time: 1 hr 41 min 36 sec) 

CPU 0 Branch Prediction Accuracy: 92.124% MPKI: 17.2953 Average ROB Occupancy at Mispredict: 44.6425

ChampSim completed all CPUs

Region of Interest Statistics

CPU 0 cumulative IPC: 0.23574 instructions: 200000003 cycles: 848391733
ITLB TOTAL     ACCESS: 35303747  HIT: 35303747  MISS:     0  HIT %:   100  MISS %:     0  AVERAGE MISS PENALTY: 0
ITLB LOAD      ACCESS: 35303747  HIT: 35303747  MISS:     0  HIT %:   100  MISS %:     0  AVERAGE MISS PENALTY: 0
ITLB RFO       ACCESS:     0  HIT:     0  MISS:     0  HIT %:     0  MISS %:     0  AVERAGE MISS PENALTY: 0
ITLB PREFETCH  ACCESS:     0  HIT:     0  MISS:     0  HIT %:     0  MISS %:     0  AVERAGE MISS PENALTY: 0
ITLB WRITEBACK ACCESS:     0  HIT:     0  MISS:     0  HIT %:     0  MISS %:     0  AVERAGE MISS PENALTY: 0
ITLB PREFETCH  REQUESTED:     0  ISSUED:     0  USEFUL:     0  USELESS:     0
 USEFUL LOAD PREFETCHES:          0 PREFETCH ISSUED TO LOWER LEVEL:          0  ACCURACY: -nan
 TIMELY PREFETCHES:          0 LATE PREFETCHES: 0 DROPPED PREFETCHES: 0
ITLB AVERAGE MISS LATENCY: -nan cycles
DTLB TOTAL     ACCESS: 43210200  HIT: 29141701  MISS: 14068499  HIT %: 67.4417  MISS %: 32.5583  AVERAGE MISS PENALTY: 38.4805
DTLB LOAD      ACCESS: 37827556  HIT: 25947872  MISS: 11879684  HIT %: 68.5952  MISS %: 31.4048  AVERAGE MISS PENALTY: 30.7099
DTLB RFO       ACCESS: 5382644  HIT: 3193829  MISS: 2188815  HIT %: 59.3357  MISS %: 40.6643  AVERAGE MISS PENALTY: 80.6546
DTLB PREFETCH  ACCESS:     0  HIT:     0  MISS:     0  HIT %:     0  MISS %:     0  AVERAGE MISS PENALTY: 0
DTLB WRITEBACK ACCESS:     0  HIT:     0  MISS:     0  HIT %:     0  MISS %:     0  AVERAGE MISS PENALTY: 0
DTLB PREFETCH  REQUESTED:     0  ISSUED:     0  USEFUL:     0  USELESS:     0
 USEFUL LOAD PREFETCHES:          0 PREFETCH ISSUED TO LOWER LEVEL:          0  ACCURACY: -nan
 TIMELY PREFETCHES:          0 LATE PREFETCHES: 0 DROPPED PREFETCHES: 0
DTLB AVERAGE MISS LATENCY: 38.4805 cycles
STLB TOTAL     ACCESS: 14068499  HIT: 11859255  MISS: 2209244  HIT %: 84.2965  MISS %: 15.7035  AVERAGE MISS PENALTY: 100
STLB LOAD      ACCESS: 11879684  HIT: 10700262  MISS: 1179422  HIT %: 90.0719  MISS %: 9.92806  AVERAGE MISS PENALTY: 100
STLB RFO       ACCESS: 2188815  HIT: 1158993  MISS: 1029822  HIT %: 52.9507  MISS %: 47.0493  AVERAGE MISS PENALTY: 100
STLB PREFETCH  ACCESS:     0  HIT:     0  MISS:     0  HIT %:     0  MISS %:     0  AVERAGE MISS PENALTY: 0
STLB WRITEBACK ACCESS:     0  HIT:     0  MISS:     0  HIT %:     0  MISS %:     0  AVERAGE MISS PENALTY: 0
STLB PREFETCH  REQUESTED:     0  ISSUED:     0  USEFUL:     0  USELESS:     0
 USEFUL LOAD PREFETCHES:          0 PREFETCH ISSUED TO LOWER LEVEL:          0  ACCURACY: -nan
 TIMELY PREFETCHES:          0 LATE PREFETCHES: 0 DROPPED PREFETCHES: 0
STLB AVERAGE MISS LATENCY: 100 cycles
L1D TOTAL     ACCESS: 95988285  HIT: 31077609  MISS: 64910676  HIT %: 32.3765  MISS %: 67.6235  AVERAGE MISS PENALTY: 313266
L1D LOAD      ACCESS: 40339041  HIT: 22858756  MISS: 17480285  HIT %: 56.6666  MISS %: 43.3334  AVERAGE MISS PENALTY: 1.16313e+06
L1D RFO       ACCESS: 6146329  HIT: 6103050  MISS: 43279  HIT %: 99.2959  MISS %: 0.704144  AVERAGE MISS PENALTY: 90.4593
L1D PREFETCH  ACCESS: 49502915  HIT: 2115803  MISS: 47387112  HIT %: 4.2741  MISS %: 95.7259  AVERAGE MISS PENALTY: 51.1845
L1D WRITEBACK ACCESS:     0  HIT:     0  MISS:     0  HIT %:     0  MISS %:     0  AVERAGE MISS PENALTY: 0
L1D PREFETCH  REQUESTED: 85923019  ISSUED: 49875308  USEFUL: 955532  USELESS: 46431648
 USEFUL LOAD PREFETCHES:     955532 PREFETCH ISSUED TO LOWER LEVEL:  153296053  ACCURACY: 0.623325
 TIMELY PREFETCHES:     955532 LATE PREFETCHES: 122459 DROPPED PREFETCHES: 36047711
L1D AVERAGE MISS LATENCY: 53.1392 cycles
L1I TOTAL     ACCESS: 52003880  HIT: 52003880  MISS:     0  HIT %:   100  MISS %:     0  AVERAGE MISS PENALTY: 0
L1I LOAD      ACCESS: 52003880  HIT: 52003880  MISS:     0  HIT %:   100  MISS %:     0  AVERAGE MISS PENALTY: 0
L1I RFO       ACCESS:     0  HIT:     0  MISS:     0  HIT %:     0  MISS %:     0  AVERAGE MISS PENALTY: 0
L1I PREFETCH  ACCESS:     0  HIT:     0  MISS:     0  HIT %:     0  MISS %:     0  AVERAGE MISS PENALTY: 0
L1I WRITEBACK ACCESS:     0  HIT:     0  MISS:     0  HIT %:     0  MISS %:     0  AVERAGE MISS PENALTY: 0
L1I PREFETCH  REQUESTED:     0  ISSUED:     0  USEFUL:     0  USELESS:     0
 USEFUL LOAD PREFETCHES:          0 PREFETCH ISSUED TO LOWER LEVEL:          0  ACCURACY: -nan
 TIMELY PREFETCHES:          0 LATE PREFETCHES: 0 DROPPED PREFETCHES: 0
L1I AVERAGE MISS LATENCY: -nan cycles
L2C TOTAL     ACCESS: 121713980  HIT: 20235177  MISS: 101478803  HIT %: 16.6252  MISS %: 83.3748  AVERAGE MISS PENALTY: 76361.3
L2C LOAD      ACCESS: 17479455  HIT: 2112348  MISS: 15367107  HIT %: 12.0847  MISS %: 87.9153  AVERAGE MISS PENALTY: 504043
L2C RFO       ACCESS: 43274  HIT: 29180  MISS: 14094  HIT %: 67.4308  MISS %: 32.5692  AVERAGE MISS PENALTY: 203.524
L2C PREFETCH  ACCESS: 101070331  HIT: 14977611  MISS: 86092720  HIT %: 14.819  MISS %: 85.181  AVERAGE MISS PENALTY: 39.0786
L2C WRITEBACK ACCESS: 3120920  HIT: 3116038  MISS:  4882  HIT %: 99.8436  MISS %: 0.156428  AVERAGE MISS PENALTY: 0
L2C PREFETCH  REQUESTED: 205552947  ISSUED: 189170833  USEFUL: 981754  USELESS: 85111390
 USEFUL LOAD PREFETCHES:     981754 PREFETCH ISSUED TO LOWER LEVEL:   90340259  ACCURACY: 1.08673
 TIMELY PREFETCHES:     981754 LATE PREFETCHES: 324768 DROPPED PREFETCHES: 16382114
L2C AVERAGE MISS LATENCY: 39.5263 cycles
LLC0 TOTAL     ACCESS: 13334609  HIT: 12991316  MISS: 343293  HIT %: 97.4255  MISS %: 2.57445  AVERAGE MISS PENALTY: 168.065
LLC0 LOAD      ACCESS: 1952497  HIT: 1869736  MISS: 82761  HIT %: 95.7613  MISS %: 4.23873  AVERAGE MISS PENALTY: 172.491
LLC0 RFO       ACCESS:  1753  HIT:   543  MISS:  1210  HIT %: 30.9755  MISS %: 69.0245  AVERAGE MISS PENALTY: 229.362
LLC0 PREFETCH  ACCESS: 10995333  HIT: 10736259  MISS: 259074  HIT %: 97.6438  MISS %: 2.35622  AVERAGE MISS PENALTY: 166.526
LLC0 WRITEBACK ACCESS: 385026  HIT: 384778  MISS:   248  HIT %: 99.9356  MISS %: 0.0644112  AVERAGE MISS PENALTY: 0
LLC0 PREFETCH  REQUESTED:     0  ISSUED:     0  USEFUL: 80542  USELESS: 176370
 USEFUL LOAD PREFETCHES:      80542 PREFETCH ISSUED TO LOWER LEVEL:     259074  ACCURACY: 31.0884
 TIMELY PREFETCHES:      80542 LATE PREFETCHES: 0 DROPPED PREFETCHES: 0
LLC0 AVERAGE MISS LATENCY: 168.065 cycles
Deadblocks : 55198 Deadblock percentage : 66.6957

LLC1 TOTAL     ACCESS: 13383307  HIT: 13036348  MISS: 346959  HIT %: 97.4075  MISS %: 2.59248  AVERAGE MISS PENALTY: 168.354
LLC1 LOAD      ACCESS: 1906822  HIT: 1838646  MISS: 68176  HIT %: 96.4246  MISS %: 3.57537  AVERAGE MISS PENALTY: 172.69
LLC1 RFO       ACCESS:  1769  HIT:   562  MISS:  1207  HIT %: 31.7694  MISS %: 68.2306  AVERAGE MISS PENALTY: 237.323
LLC1 PREFETCH  ACCESS: 11089199  HIT: 10811863  MISS: 277336  HIT %: 97.499  MISS %: 2.50096  AVERAGE MISS PENALTY: 167.134
LLC1 WRITEBACK ACCESS: 385517  HIT: 385277  MISS:   240  HIT %: 99.9377  MISS %: 0.0622541  AVERAGE MISS PENALTY: 0
LLC1 PREFETCH  REQUESTED:     0  ISSUED:     0  USEFUL: 83127  USELESS: 192912
 USEFUL LOAD PREFETCHES:      83127 PREFETCH ISSUED TO LOWER LEVEL:     277336  ACCURACY: 29.9734
 TIMELY PREFETCHES:      83127 LATE PREFETCHES: 0 DROPPED PREFETCHES: 0
LLC1 AVERAGE MISS LATENCY: 168.354 cycles
LLC2 TOTAL     ACCESS: 13348116  HIT: 12997027  MISS: 351089  HIT %: 97.3697  MISS %: 2.63025  AVERAGE MISS PENALTY: 169.002
LLC2 LOAD      ACCESS: 1914428  HIT: 1846840  MISS: 67588  HIT %: 96.4695  MISS %: 3.53045  AVERAGE MISS PENALTY: 172.664
LLC2 RFO       ACCESS:  1752  HIT:   550  MISS:  1202  HIT %: 31.3927  MISS %: 68.6073  AVERAGE MISS PENALTY: 235.655
LLC2 PREFETCH  ACCESS: 11046213  HIT: 10764172  MISS: 282041  HIT %: 97.4467  MISS %: 2.55328  AVERAGE MISS PENALTY: 167.995
LLC2 WRITEBACK ACCESS: 385723  HIT: 385465  MISS:   258  HIT %: 99.9331  MISS %: 0.0668874  AVERAGE MISS PENALTY: 0
LLC2 PREFETCH  REQUESTED:     0  ISSUED:     0  USEFUL: 84451  USELESS: 195858
 USEFUL LOAD PREFETCHES:      84451 PREFETCH ISSUED TO LOWER LEVEL:     282041  ACCURACY: 29.9428
 TIMELY PREFETCHES:      84451 LATE PREFETCHES: 0 DROPPED PREFETCHES: 0
LLC2 AVERAGE MISS LATENCY: 169.002 cycles
LLC3 TOTAL     ACCESS: 13246001  HIT: 12892892  MISS: 353109  HIT %: 97.3342  MISS %: 2.66578  AVERAGE MISS PENALTY: 169.322
LLC3 LOAD      ACCESS: 1968153  HIT: 1899751  MISS: 68402  HIT %: 96.5246  MISS %: 3.47544  AVERAGE MISS PENALTY: 172.772
LLC3 RFO       ACCESS:  1780  HIT:   562  MISS:  1218  HIT %: 31.573  MISS %: 68.427  AVERAGE MISS PENALTY: 234.359
LLC3 PREFETCH  ACCESS: 10894922  HIT: 10611665  MISS: 283257  HIT %: 97.4001  MISS %: 2.5999  AVERAGE MISS PENALTY: 168.348
LLC3 WRITEBACK ACCESS: 381146  HIT: 380914  MISS:   232  HIT %: 99.9391  MISS %: 0.0608691  AVERAGE MISS PENALTY: 0
LLC3 PREFETCH  REQUESTED:     0  ISSUED:     0  USEFUL: 84375  USELESS: 197411
 USEFUL LOAD PREFETCHES:      84375 PREFETCH ISSUED TO LOWER LEVEL:     283257  ACCURACY: 29.7874
 TIMELY PREFETCHES:      84375 LATE PREFETCHES: 0 DROPPED PREFETCHES: 0
LLC3 AVERAGE MISS LATENCY: 169.322 cycles
LLC4 TOTAL     ACCESS: 13052472  HIT: 12697673  MISS: 354799  HIT %: 97.2817  MISS %: 2.71825  AVERAGE MISS PENALTY: 169.725
LLC4 LOAD      ACCESS: 1918619  HIT: 1850252  MISS: 68367  HIT %: 96.4367  MISS %: 3.56334  AVERAGE MISS PENALTY: 172.646
LLC4 RFO       ACCESS:  1769  HIT:   560  MISS:  1209  HIT %: 31.6563  MISS %: 68.3437  AVERAGE MISS PENALTY: 240.51
LLC4 PREFETCH  ACCESS: 10748148  HIT: 10463202  MISS: 284946  HIT %: 97.3489  MISS %: 2.65112  AVERAGE MISS PENALTY: 168.889
LLC4 WRITEBACK ACCESS: 383936  HIT: 383659  MISS:   277  HIT %: 99.9279  MISS %: 0.0721474  AVERAGE MISS PENALTY: 0
LLC4 PREFETCH  REQUESTED:     0  ISSUED:     0  USEFUL: 84821  USELESS: 198453
 USEFUL LOAD PREFETCHES:      84821 PREFETCH ISSUED TO LOWER LEVEL:     284946  ACCURACY: 29.7674
 TIMELY PREFETCHES:      84821 LATE PREFETCHES: 0 DROPPED PREFETCHES: 0
LLC4 AVERAGE MISS LATENCY: 169.725 cycles
LLC5 TOTAL     ACCESS: 12907016  HIT: 12551639  MISS: 355377  HIT %: 97.2466  MISS %: 2.75336  AVERAGE MISS PENALTY: 169.775
LLC5 LOAD      ACCESS: 1909202  HIT: 1841055  MISS: 68147  HIT %: 96.4306  MISS %: 3.5694  AVERAGE MISS PENALTY: 172.745
LLC5 RFO       ACCESS:  1763  HIT:   549  MISS:  1214  HIT %: 31.1401  MISS %: 68.8599  AVERAGE MISS PENALTY: 237.751
LLC5 PREFETCH  ACCESS: 10615036  HIT: 10329305  MISS: 285731  HIT %: 97.3082  MISS %: 2.69176  AVERAGE MISS PENALTY: 168.947
LLC5 WRITEBACK ACCESS: 381015  HIT: 380730  MISS:   285  HIT %: 99.9252  MISS %: 0.0748002  AVERAGE MISS PENALTY: 0
LLC5 PREFETCH  REQUESTED:     0  ISSUED:     0  USEFUL: 84154  USELESS: 199790
 USEFUL LOAD PREFETCHES:      84154 PREFETCH ISSUED TO LOWER LEVEL:     285731  ACCURACY: 29.4522
 TIMELY PREFETCHES:      84154 LATE PREFETCHES: 0 DROPPED PREFETCHES: 0
LLC5 AVERAGE MISS LATENCY: 169.775 cycles
LLC6 TOTAL     ACCESS: 12714411  HIT: 12355896  MISS: 358515  HIT %: 97.1802  MISS %: 2.81975  AVERAGE MISS PENALTY: 170.245
LLC6 LOAD      ACCESS: 1833756  HIT: 1763929  MISS: 69827  HIT %: 96.1921  MISS %: 3.80787  AVERAGE MISS PENALTY: 172.921
LLC6 RFO       ACCESS:  1757  HIT:   538  MISS:  1219  HIT %: 30.6204  MISS %: 69.3796  AVERAGE MISS PENALTY: 233.376
LLC6 PREFETCH  ACCESS: 10492195  HIT: 10205017  MISS: 287178  HIT %: 97.2629  MISS %: 2.73706  AVERAGE MISS PENALTY: 169.499
LLC6 WRITEBACK ACCESS: 386703  HIT: 386412  MISS:   291  HIT %: 99.9247  MISS %: 0.0752515  AVERAGE MISS PENALTY: 0
LLC6 PREFETCH  REQUESTED:     0  ISSUED:     0  USEFUL: 84231  USELESS: 201233
 USEFUL LOAD PREFETCHES:      84231 PREFETCH ISSUED TO LOWER LEVEL:     287178  ACCURACY: 29.3306
 TIMELY PREFETCHES:      84231 LATE PREFETCHES: 0 DROPPED PREFETCHES: 0
LLC6 AVERAGE MISS LATENCY: 170.245 cycles
LLC7 TOTAL     ACCESS: 12560838  HIT: 12201693  MISS: 359145  HIT %: 97.1408  MISS %: 2.85924  AVERAGE MISS PENALTY: 170.465
LLC7 LOAD      ACCESS: 1958435  HIT: 1886871  MISS: 71564  HIT %: 96.3459  MISS %: 3.65414  AVERAGE MISS PENALTY: 173.398
LLC7 RFO       ACCESS:  1751  HIT:   547  MISS:  1204  HIT %: 31.2393  MISS %: 68.7607  AVERAGE MISS PENALTY: 231.879
LLC7 PREFETCH  ACCESS: 10216864  HIT: 9930769  MISS: 286095  HIT %: 97.1998  MISS %: 2.80022  AVERAGE MISS PENALTY: 169.641
LLC7 WRITEBACK ACCESS: 383788  HIT: 383506  MISS:   282  HIT %: 99.9265  MISS %: 0.0734781  AVERAGE MISS PENALTY: 0
LLC7 PREFETCH  REQUESTED:     0  ISSUED:     0  USEFUL: 82671  USELESS: 201558
 USEFUL LOAD PREFETCHES:      82671 PREFETCH ISSUED TO LOWER LEVEL:     286095  ACCURACY: 28.8963
 TIMELY PREFETCHES:      82671 LATE PREFETCHES: 0 DROPPED PREFETCHES: 0
LLC7 AVERAGE MISS LATENCY: 170.465 cycles
ROI Average ROB Stall Cycles:	12.1163
ROI Total ROB Stalls Cycles:	764434849
ROI TOTAL ROB counter      :	63091375
ROI Average Load ROB Stall Cycles:	59.7237
ROI Total Load ROB Stalls Cycle  :	368689968
ROI Total Load ROB stalls Counter:	6173257
Major fault: 0 Minor fault: 37408

