
*** ChampSim Multicore Out-of-Order Simulator ***

Warmup Instructions: 200000000
Simulation Instructions: 200000000
Number of CPUs: 1
threads:1

L1I Configuration:
L1I_SET:64
L1I_WAY:8
L1I_RQ_SIZE:64
L1I_WQ_SIZE:64
L1I_PQ_SIZE:8
L1I_MSHR_SIZE:8

L1D Configuration:
L1D_SET:64
L1D_WAY:12
L1D_RQ_SIZE:64
L1D_WQ_SIZE:64
L1D_PQ_SIZE:8
L1D_MSHR_SIZE:16

L2C Configuration:
L2C_SET:1024
L2C_WAY:8
L2C_RQ_SIZE:32
L2C_WQ_SIZE:32
L2C_PQ_SIZE:16
L2C_MSHR_SIZE:32

LLC Configuration:
LLC_SET:2048
LLC_WAY:16
LLC SLICES:8
LLC_RQ_SIZE:64
LLC_WQ_SIZE:64
LLC_PQ_SIZE:32
LLC_MSHR_SIZE:64

Interconnect OFF
Attacker deprioritize is: OFF
Off-chip DRAM Size: 4096 MB Channels: 1 Width: 64-bit Data Rate: 3200 MT/s
PAGE SIZE in KB: 4.000000 
PAGE SIZE in MB: 0.003906 
PAGE offset in bits: 12 
CEASER-S_LLC:0
MIRAGE : 1
CEASER_LATENCY:3
REMAP : OFF
Partitions : 1
Multi-Step : OFF
BFS : OFF

CPU 0 runs /home/anubhav/gap/bfs-3.trace.gz
CPU 0 Bimodal branch predictor
Initialize Hawkeye state
Initialize Hawkeye state
Initialize Hawkeye state
Initialize Hawkeye state
Initialize Hawkeye state
Initialize Hawkeye state
Initialize Hawkeye state
Initialize Hawkeye state
Heartbeat CPU 0 instructions: 10000003 cycles: 14677566 heartbeat IPC: 0.681312 cumulative IPC: 0.681312 (Simulation time: 0 hr 0 min 57 sec) 
 Total Blocks : 262144 Invalid Blocks : 125833
Heartbeat CPU 0 instructions: 20000002 cycles: 27744687 heartbeat IPC: 0.765279 cumulative IPC: 0.720859 (Simulation time: 0 hr 2 min 15 sec) 
 Total Blocks : 262144 Invalid Blocks : 49307
Heartbeat CPU 0 instructions: 30000000 cycles: 40898486 heartbeat IPC: 0.760237 cumulative IPC: 0.733523 (Simulation time: 0 hr 3 min 59 sec) 
 Total Blocks : 262144 Invalid Blocks : 18764
Heartbeat CPU 0 instructions: 40000000 cycles: 54040037 heartbeat IPC: 0.760945 cumulative IPC: 0.740192 (Simulation time: 0 hr 6 min 7 sec) 
 Total Blocks : 262144 Invalid Blocks : 7038
Heartbeat CPU 0 instructions: 50000000 cycles: 69480849 heartbeat IPC: 0.647634 cumulative IPC: 0.719623 (Simulation time: 0 hr 7 min 55 sec) 
 Total Blocks : 262144 Invalid Blocks : 2090
Heartbeat CPU 0 instructions: 60000002 cycles: 86998090 heartbeat IPC: 0.570866 cumulative IPC: 0.68967 (Simulation time: 0 hr 9 min 3 sec) 
 Total Blocks : 262144 Invalid Blocks : 619
Heartbeat CPU 0 instructions: 70000001 cycles: 101509116 heartbeat IPC: 0.689131 cumulative IPC: 0.689593 (Simulation time: 0 hr 9 min 57 sec) 
 Total Blocks : 262144 Invalid Blocks : 387
Heartbeat CPU 0 instructions: 80000000 cycles: 104633794 heartbeat IPC: 3.20033 cumulative IPC: 0.764571 (Simulation time: 0 hr 10 min 28 sec) 
 Total Blocks : 262144 Invalid Blocks : 384
Heartbeat CPU 0 instructions: 90000000 cycles: 113802173 heartbeat IPC: 1.09071 cumulative IPC: 0.790846 (Simulation time: 0 hr 11 min 23 sec) 
 Total Blocks : 262144 Invalid Blocks : 322
Heartbeat CPU 0 instructions: 100000000 cycles: 126180488 heartbeat IPC: 0.807864 cumulative IPC: 0.792516 (Simulation time: 0 hr 12 min 28 sec) 
 Total Blocks : 262144 Invalid Blocks : 242
Heartbeat CPU 0 instructions: 110000000 cycles: 136367062 heartbeat IPC: 0.981684 cumulative IPC: 0.806646 (Simulation time: 0 hr 13 min 33 sec) 
 Total Blocks : 262144 Invalid Blocks : 104
Heartbeat CPU 0 instructions: 120000000 cycles: 149122488 heartbeat IPC: 0.78398 cumulative IPC: 0.804708 (Simulation time: 0 hr 14 min 32 sec) 
 Total Blocks : 262144 Invalid Blocks : 30
Heartbeat CPU 0 instructions: 130000002 cycles: 164363242 heartbeat IPC: 0.656136 cumulative IPC: 0.790931 (Simulation time: 0 hr 15 min 34 sec) 
 Total Blocks : 262144 Invalid Blocks : 10
Heartbeat CPU 0 instructions: 140000000 cycles: 172828475 heartbeat IPC: 1.1813 cumulative IPC: 0.810052 (Simulation time: 0 hr 16 min 14 sec) 
 Total Blocks : 262144 Invalid Blocks : 4
Heartbeat CPU 0 instructions: 150000001 cycles: 176434288 heartbeat IPC: 2.7733 cumulative IPC: 0.850175 (Simulation time: 0 hr 16 min 56 sec) 
 Total Blocks : 262144 Invalid Blocks : 4
Heartbeat CPU 0 instructions: 160000000 cycles: 189905983 heartbeat IPC: 0.742297 cumulative IPC: 0.842522 (Simulation time: 0 hr 17 min 50 sec) 
 Total Blocks : 262144 Invalid Blocks : 4
Heartbeat CPU 0 instructions: 170000000 cycles: 199596623 heartbeat IPC: 1.03192 cumulative IPC: 0.851718 (Simulation time: 0 hr 19 min 16 sec) 
 Total Blocks : 262144 Invalid Blocks : 4
Heartbeat CPU 0 instructions: 180000002 cycles: 205995790 heartbeat IPC: 1.5627 cumulative IPC: 0.873804 (Simulation time: 0 hr 20 min 41 sec) 
 Total Blocks : 262144 Invalid Blocks : 4
Heartbeat CPU 0 instructions: 190000000 cycles: 210780192 heartbeat IPC: 2.09012 cumulative IPC: 0.901413 (Simulation time: 0 hr 21 min 57 sec) 
 Total Blocks : 262144 Invalid Blocks : 1
Heartbeat CPU 0 instructions: 200000002 cycles: 226100993 heartbeat IPC: 0.652708 cumulative IPC: 0.88456 (Simulation time: 0 hr 23 min 0 sec) 
 Total Blocks : 262144 Invalid Blocks : 1

Warmup complete CPU 0 instructions: 200000002 cycles: 226100993 (Simulation time: 0 hr 23 min 0 sec) 

Heartbeat CPU 0 instructions: 210000001 cycles: 266693193 heartbeat IPC: 0.246353 cumulative IPC: 0.246353 (Simulation time: 0 hr 25 min 20 sec) 
 Total Blocks : 262144 Invalid Blocks : 1
Heartbeat CPU 0 instructions: 220000000 cycles: 290338112 heartbeat IPC: 0.422924 cumulative IPC: 0.311346 (Simulation time: 0 hr 26 min 56 sec) 
 Total Blocks : 262144 Invalid Blocks : 1
Heartbeat CPU 0 instructions: 230000001 cycles: 298115968 heartbeat IPC: 1.2857 cumulative IPC: 0.41658 (Simulation time: 0 hr 28 min 10 sec) 
 Total Blocks : 262144 Invalid Blocks : 1
Heartbeat CPU 0 instructions: 240000001 cycles: 319502266 heartbeat IPC: 0.467589 cumulative IPC: 0.42826 (Simulation time: 0 hr 29 min 46 sec) 
 Total Blocks : 262144 Invalid Blocks : 1
Heartbeat CPU 0 instructions: 250000000 cycles: 348529854 heartbeat IPC: 0.3445 cumulative IPC: 0.4084 (Simulation time: 0 hr 31 min 45 sec) 
 Total Blocks : 262144 Invalid Blocks : 1
Heartbeat CPU 0 instructions: 260000000 cycles: 383693241 heartbeat IPC: 0.284387 cumulative IPC: 0.380729 (Simulation time: 0 hr 33 min 57 sec) 
 Total Blocks : 262144 Invalid Blocks : 1
Heartbeat CPU 0 instructions: 270000001 cycles: 419577101 heartbeat IPC: 0.278677 cumulative IPC: 0.361802 (Simulation time: 0 hr 36 min 10 sec) 
 Total Blocks : 262144 Invalid Blocks : 0
Heartbeat CPU 0 instructions: 280000003 cycles: 461113414 heartbeat IPC: 0.240753 cumulative IPC: 0.340408 (Simulation time: 0 hr 38 min 27 sec) 
 Total Blocks : 262144 Invalid Blocks : 0
Heartbeat CPU 0 instructions: 290000002 cycles: 468284907 heartbeat IPC: 1.39441 cumulative IPC: 0.371618 (Simulation time: 0 hr 39 min 25 sec) 
 Total Blocks : 262144 Invalid Blocks : 0
Heartbeat CPU 0 instructions: 300000000 cycles: 488509055 heartbeat IPC: 0.494458 cumulative IPC: 0.381086 (Simulation time: 0 hr 41 min 20 sec) 
 Total Blocks : 262144 Invalid Blocks : 0
Heartbeat CPU 0 instructions: 310000000 cycles: 515709101 heartbeat IPC: 0.367646 cumulative IPC: 0.379824 (Simulation time: 0 hr 43 min 8 sec) 
 Total Blocks : 262144 Invalid Blocks : 0
Heartbeat CPU 0 instructions: 320000000 cycles: 539812407 heartbeat IPC: 0.414881 cumulative IPC: 0.382517 (Simulation time: 0 hr 45 min 26 sec) 
 Total Blocks : 262144 Invalid Blocks : 0
Heartbeat CPU 0 instructions: 330000000 cycles: 556547694 heartbeat IPC: 0.59754 cumulative IPC: 0.393407 (Simulation time: 0 hr 47 min 18 sec) 
 Total Blocks : 262144 Invalid Blocks : 0
Heartbeat CPU 0 instructions: 340000000 cycles: 597421818 heartbeat IPC: 0.244654 cumulative IPC: 0.377032 (Simulation time: 0 hr 49 min 44 sec) 
 Total Blocks : 262144 Invalid Blocks : 0
Heartbeat CPU 0 instructions: 350000000 cycles: 636630239 heartbeat IPC: 0.255047 cumulative IPC: 0.365382 (Simulation time: 0 hr 52 min 3 sec) 
 Total Blocks : 262144 Invalid Blocks : 0
Heartbeat CPU 0 instructions: 360000002 cycles: 660296236 heartbeat IPC: 0.422547 cumulative IPC: 0.368498 (Simulation time: 0 hr 53 min 39 sec) 
 Total Blocks : 262144 Invalid Blocks : 0
Heartbeat CPU 0 instructions: 370000002 cycles: 668485143 heartbeat IPC: 1.22116 cumulative IPC: 0.384281 (Simulation time: 0 hr 54 min 53 sec) 
 Total Blocks : 262144 Invalid Blocks : 0
Heartbeat CPU 0 instructions: 380000002 cycles: 689978545 heartbeat IPC: 0.465259 cumulative IPC: 0.388033 (Simulation time: 0 hr 56 min 30 sec) 
 Total Blocks : 262144 Invalid Blocks : 0
Heartbeat CPU 0 instructions: 390000002 cycles: 717861393 heartbeat IPC: 0.358643 cumulative IPC: 0.386367 (Simulation time: 0 hr 58 min 18 sec) 
 Total Blocks : 262144 Invalid Blocks : 0
Heartbeat CPU 0 instructions: 400000000 cycles: 746674911 heartbeat IPC: 0.347059 cumulative IPC: 0.384191 (Simulation time: 1 hr 0 min 11 sec) 
 Total Blocks : 262144 Invalid Blocks : 0
Finished CPU 0 instructions: 200000001 cycles: 520573922 cumulative IPC: 0.384191 (Simulation time: 1 hr 0 min 11 sec) 

CPU 0 Branch Prediction Accuracy: 86.8208% MPKI: 27.9679 Average ROB Occupancy at Mispredict: 27.5612

ChampSim completed all CPUs

Region of Interest Statistics

CPU 0 cumulative IPC: 0.384191 instructions: 200000001 cycles: 520573922
ITLB TOTAL     ACCESS: 29561135  HIT: 29561135  MISS:     0  HIT %:   100  MISS %:     0  AVERAGE MISS PENALTY: 0
ITLB LOAD      ACCESS: 29561135  HIT: 29561135  MISS:     0  HIT %:   100  MISS %:     0  AVERAGE MISS PENALTY: 0
ITLB RFO       ACCESS:     0  HIT:     0  MISS:     0  HIT %:     0  MISS %:     0  AVERAGE MISS PENALTY: 0
ITLB PREFETCH  ACCESS:     0  HIT:     0  MISS:     0  HIT %:     0  MISS %:     0  AVERAGE MISS PENALTY: 0
ITLB WRITEBACK ACCESS:     0  HIT:     0  MISS:     0  HIT %:     0  MISS %:     0  AVERAGE MISS PENALTY: 0
ITLB PREFETCH  REQUESTED:     0  ISSUED:     0  USEFUL:     0  USELESS:     0
 USEFUL LOAD PREFETCHES:          0 PREFETCH ISSUED TO LOWER LEVEL:          0  ACCURACY: -nan
 TIMELY PREFETCHES:          0 LATE PREFETCHES: 0 DROPPED PREFETCHES: 0
ITLB AVERAGE MISS LATENCY: -nan cycles
DTLB TOTAL     ACCESS: 38680723  HIT: 38154653  MISS: 526070  HIT %: 98.64  MISS %: 1.36003  AVERAGE MISS PENALTY: 45.6304
DTLB LOAD      ACCESS: 32007071  HIT: 31492400  MISS: 514671  HIT %: 98.392  MISS %: 1.60799  AVERAGE MISS PENALTY: 45.728
DTLB RFO       ACCESS: 6673652  HIT: 6662253  MISS: 11399  HIT %: 99.8292  MISS %: 0.170806  AVERAGE MISS PENALTY: 41.2233
DTLB PREFETCH  ACCESS:     0  HIT:     0  MISS:     0  HIT %:     0  MISS %:     0  AVERAGE MISS PENALTY: 0
DTLB WRITEBACK ACCESS:     0  HIT:     0  MISS:     0  HIT %:     0  MISS %:     0  AVERAGE MISS PENALTY: 0
DTLB PREFETCH  REQUESTED:     0  ISSUED:     0  USEFUL:     0  USELESS:     0
 USEFUL LOAD PREFETCHES:          0 PREFETCH ISSUED TO LOWER LEVEL:          0  ACCURACY: -nan
 TIMELY PREFETCHES:          0 LATE PREFETCHES: 0 DROPPED PREFETCHES: 0
DTLB AVERAGE MISS LATENCY: 45.6304 cycles
STLB TOTAL     ACCESS: 526070  HIT: 354132  MISS: 171938  HIT %: 67.3165  MISS %: 32.6835  AVERAGE MISS PENALTY: 100
STLB LOAD      ACCESS: 514671  HIT: 346335  MISS: 168336  HIT %: 67.2925  MISS %: 32.7075  AVERAGE MISS PENALTY: 100
STLB RFO       ACCESS: 11399  HIT:  7797  MISS:  3602  HIT %: 68.4007  MISS %: 31.5993  AVERAGE MISS PENALTY: 100
STLB PREFETCH  ACCESS:     0  HIT:     0  MISS:     0  HIT %:     0  MISS %:     0  AVERAGE MISS PENALTY: 0
STLB WRITEBACK ACCESS:     0  HIT:     0  MISS:     0  HIT %:     0  MISS %:     0  AVERAGE MISS PENALTY: 0
STLB PREFETCH  REQUESTED:     0  ISSUED:     0  USEFUL:     0  USELESS:     0
 USEFUL LOAD PREFETCHES:          0 PREFETCH ISSUED TO LOWER LEVEL:          0  ACCURACY: -nan
 TIMELY PREFETCHES:          0 LATE PREFETCHES: 0 DROPPED PREFETCHES: 0
STLB AVERAGE MISS LATENCY: 100 cycles
L1D TOTAL     ACCESS: 58712438  HIT: 46152255  MISS: 12560183  HIT %: 78.6073  MISS %: 21.3927  AVERAGE MISS PENALTY: 5.22424e+06
L1D LOAD      ACCESS: 30688698  HIT: 27513665  MISS: 3175033  HIT %: 89.6541  MISS %: 10.3459  AVERAGE MISS PENALTY: 2.06665e+07
L1D RFO       ACCESS: 6582994  HIT: 6315151  MISS: 267843  HIT %: 95.9313  MISS %: 4.06871  AVERAGE MISS PENALTY: 1206.98
L1D PREFETCH  ACCESS: 21440746  HIT: 12323439  MISS: 9117307  HIT %: 57.4767  MISS %: 42.5233  AVERAGE MISS PENALTY: 40.0138
L1D WRITEBACK ACCESS:     0  HIT:     0  MISS:     0  HIT %:     0  MISS %:     0  AVERAGE MISS PENALTY: 0
L1D PREFETCH  REQUESTED: 30519607  ISSUED: 24223102  USEFUL: 2844439  USELESS: 6272711
 USEFUL LOAD PREFETCHES:    2844439 PREFETCH ISSUED TO LOWER LEVEL:   17455968  ACCURACY: 16.2949
 TIMELY PREFETCHES:    2844439 LATE PREFETCHES: 377952 DROPPED PREFETCHES: 6296505
L1D AVERAGE MISS LATENCY: 67.3323 cycles
L1I TOTAL     ACCESS: 45861969  HIT: 45861968  MISS:     1  HIT %:   100  MISS %: 2.18046e-06  AVERAGE MISS PENALTY: 219
L1I LOAD      ACCESS: 45861969  HIT: 45861968  MISS:     1  HIT %:   100  MISS %: 2.18046e-06  AVERAGE MISS PENALTY: 219
L1I RFO       ACCESS:     0  HIT:     0  MISS:     0  HIT %:     0  MISS %:     0  AVERAGE MISS PENALTY: 0
L1I PREFETCH  ACCESS:     0  HIT:     0  MISS:     0  HIT %:     0  MISS %:     0  AVERAGE MISS PENALTY: 0
L1I WRITEBACK ACCESS:     0  HIT:     0  MISS:     0  HIT %:     0  MISS %:     0  AVERAGE MISS PENALTY: 0
L1I PREFETCH  REQUESTED:     0  ISSUED:     0  USEFUL:     0  USELESS:     0
 USEFUL LOAD PREFETCHES:          0 PREFETCH ISSUED TO LOWER LEVEL:          0  ACCURACY: -nan
 TIMELY PREFETCHES:          0 LATE PREFETCHES: 0 DROPPED PREFETCHES: 0
L1I AVERAGE MISS LATENCY: 219 cycles
L2C TOTAL     ACCESS: 28085377  HIT: 17126562  MISS: 10958815  HIT %: 60.9804  MISS %: 39.0196  AVERAGE MISS PENALTY: 3.18786e+06
L2C LOAD      ACCESS: 3158194  HIT: 1605604  MISS: 1552590  HIT %: 50.8393  MISS %: 49.1607  AVERAGE MISS PENALTY: 2.25006e+07
L2C RFO       ACCESS: 267842  HIT:  8009  MISS: 259833  HIT %: 2.9902  MISS %: 97.0098  AVERAGE MISS PENALTY: 1228.3
L2C PREFETCH  ACCESS: 23688699  HIT: 14542344  MISS: 9146355  HIT %: 61.3894  MISS %: 38.6106  AVERAGE MISS PENALTY: 73.1569
L2C WRITEBACK ACCESS: 970642  HIT: 970605  MISS:    37  HIT %: 99.9962  MISS %: 0.00381191  AVERAGE MISS PENALTY: 0
L2C PREFETCH  REQUESTED: 38023009  ISSUED: 35050780  USEFUL: 256791  USELESS: 8889556
 USEFUL LOAD PREFETCHES:     256791 PREFETCH ISSUED TO LOWER LEVEL:   10099360  ACCURACY: 2.54265
 TIMELY PREFETCHES:     256791 LATE PREFETCHES: 382504 DROPPED PREFETCHES: 2972229
L2C AVERAGE MISS LATENCY: 72.4948 cycles
LLC0 TOTAL     ACCESS: 1471039  HIT: 1098678  MISS: 372361  HIT %: 74.6872  MISS %: 25.3128  AVERAGE MISS PENALTY: 131.054
LLC0 LOAD      ACCESS: 221975  HIT: 154857  MISS: 67118  HIT %: 69.7633  MISS %: 30.2367  AVERAGE MISS PENALTY: 133.361
LLC0 RFO       ACCESS: 32489  HIT: 25554  MISS:  6935  HIT %: 78.6543  MISS %: 21.3457  AVERAGE MISS PENALTY: 154.554
LLC0 PREFETCH  ACCESS: 1114898  HIT: 818003  MISS: 296895  HIT %: 73.3702  MISS %: 26.6298  AVERAGE MISS PENALTY: 130.607
LLC0 WRITEBACK ACCESS: 101677  HIT: 100264  MISS:  1413  HIT %: 98.6103  MISS %: 1.38969  AVERAGE MISS PENALTY: 0
LLC0 PREFETCH  REQUESTED:     0  ISSUED:     0  USEFUL: 27925  USELESS: 266305
 USEFUL LOAD PREFETCHES:      27925 PREFETCH ISSUED TO LOWER LEVEL:     296895  ACCURACY: 9.40568
 TIMELY PREFETCHES:      27925 LATE PREFETCHES: 0 DROPPED PREFETCHES: 0
LLC0 AVERAGE MISS LATENCY: 131.054 cycles
Deadblocks : 59751 Deadblock percentage : 89.0238

LLC1 TOTAL     ACCESS: 1478772  HIT: 1098416  MISS: 380356  HIT %: 74.2789  MISS %: 25.7211  AVERAGE MISS PENALTY: 131.623
LLC1 LOAD      ACCESS: 188594  HIT: 143511  MISS: 45083  HIT %: 76.0952  MISS %: 23.9048  AVERAGE MISS PENALTY: 132.934
LLC1 RFO       ACCESS: 32476  HIT: 25539  MISS:  6937  HIT %: 78.6396  MISS %: 21.3604  AVERAGE MISS PENALTY: 154.772
LLC1 PREFETCH  ACCESS: 1156215  HIT: 829285  MISS: 326930  HIT %: 71.7241  MISS %: 28.2759  AVERAGE MISS PENALTY: 131.517
LLC1 WRITEBACK ACCESS: 101487  HIT: 100081  MISS:  1406  HIT %: 98.6146  MISS %: 1.3854  AVERAGE MISS PENALTY: 0
LLC1 PREFETCH  REQUESTED:     0  ISSUED:     0  USEFUL: 30129  USELESS: 294082
 USEFUL LOAD PREFETCHES:      30129 PREFETCH ISSUED TO LOWER LEVEL:     326930  ACCURACY: 9.21573
 TIMELY PREFETCHES:      30129 LATE PREFETCHES: 0 DROPPED PREFETCHES: 0
LLC1 AVERAGE MISS LATENCY: 131.623 cycles
LLC2 TOTAL     ACCESS: 1483176  HIT: 1095396  MISS: 387780  HIT %: 73.8548  MISS %: 26.1452  AVERAGE MISS PENALTY: 131.86
LLC2 LOAD      ACCESS: 185535  HIT: 141126  MISS: 44409  HIT %: 76.0644  MISS %: 23.9356  AVERAGE MISS PENALTY: 132.471
LLC2 RFO       ACCESS: 32465  HIT: 25418  MISS:  7047  HIT %: 78.2935  MISS %: 21.7065  AVERAGE MISS PENALTY: 153.273
LLC2 PREFETCH  ACCESS: 1163214  HIT: 828311  MISS: 334903  HIT %: 71.2088  MISS %: 28.7912  AVERAGE MISS PENALTY: 131.888
LLC2 WRITEBACK ACCESS: 101962  HIT: 100541  MISS:  1421  HIT %: 98.6063  MISS %: 1.39366  AVERAGE MISS PENALTY: 0
LLC2 PREFETCH  REQUESTED:     0  ISSUED:     0  USEFUL: 30266  USELESS: 301963
 USEFUL LOAD PREFETCHES:      30266 PREFETCH ISSUED TO LOWER LEVEL:     334904  ACCURACY: 9.03722
 TIMELY PREFETCHES:      30266 LATE PREFETCHES: 0 DROPPED PREFETCHES: 0
LLC2 AVERAGE MISS LATENCY: 131.86 cycles
LLC3 TOTAL     ACCESS: 1482875  HIT: 1093962  MISS: 388913  HIT %: 73.773  MISS %: 26.227  AVERAGE MISS PENALTY: 130.806
LLC3 LOAD      ACCESS: 186388  HIT: 143554  MISS: 42834  HIT %: 77.0189  MISS %: 22.9811  AVERAGE MISS PENALTY: 132.504
LLC3 RFO       ACCESS: 32486  HIT: 25429  MISS:  7057  HIT %: 78.2768  MISS %: 21.7232  AVERAGE MISS PENALTY: 153.102
LLC3 PREFETCH  ACCESS: 1161927  HIT: 824233  MISS: 337694  HIT %: 70.9367  MISS %: 29.0633  AVERAGE MISS PENALTY: 130.639
LLC3 WRITEBACK ACCESS: 102074  HIT: 100746  MISS:  1328  HIT %: 98.699  MISS %: 1.30102  AVERAGE MISS PENALTY: 0
LLC3 PREFETCH  REQUESTED:     0  ISSUED:     0  USEFUL: 30121  USELESS: 304934
 USEFUL LOAD PREFETCHES:      30121 PREFETCH ISSUED TO LOWER LEVEL:     337695  ACCURACY: 8.91959
 TIMELY PREFETCHES:      30121 LATE PREFETCHES: 0 DROPPED PREFETCHES: 0
LLC3 AVERAGE MISS LATENCY: 130.806 cycles
LLC4 TOTAL     ACCESS: 1478298  HIT: 1087977  MISS: 390321  HIT %: 73.5966  MISS %: 26.4034  AVERAGE MISS PENALTY: 130.916
LLC4 LOAD      ACCESS: 183483  HIT: 140636  MISS: 42847  HIT %: 76.648  MISS %: 23.352  AVERAGE MISS PENALTY: 132.769
LLC4 RFO       ACCESS: 32467  HIT: 25479  MISS:  6988  HIT %: 78.4766  MISS %: 21.5234  AVERAGE MISS PENALTY: 155.282
LLC4 PREFETCH  ACCESS: 1160552  HIT: 821476  MISS: 339076  HIT %: 70.7832  MISS %: 29.2168  AVERAGE MISS PENALTY: 130.724
LLC4 WRITEBACK ACCESS: 101796  HIT: 100386  MISS:  1410  HIT %: 98.6149  MISS %: 1.38512  AVERAGE MISS PENALTY: 0
LLC4 PREFETCH  REQUESTED:     0  ISSUED:     0  USEFUL: 29986  USELESS: 306459
 USEFUL LOAD PREFETCHES:      29986 PREFETCH ISSUED TO LOWER LEVEL:     339077  ACCURACY: 8.84342
 TIMELY PREFETCHES:      29986 LATE PREFETCHES: 0 DROPPED PREFETCHES: 0
LLC4 AVERAGE MISS LATENCY: 130.916 cycles
LLC5 TOTAL     ACCESS: 1468789  HIT: 1077353  MISS: 391436  HIT %: 73.3497  MISS %: 26.6503  AVERAGE MISS PENALTY: 130.385
LLC5 LOAD      ACCESS: 182381  HIT: 138983  MISS: 43398  HIT %: 76.2048  MISS %: 23.7952  AVERAGE MISS PENALTY: 132.596
LLC5 RFO       ACCESS: 32467  HIT: 25421  MISS:  7046  HIT %: 78.298  MISS %: 21.702  AVERAGE MISS PENALTY: 154.955
LLC5 PREFETCH  ACCESS: 1152095  HIT: 812489  MISS: 339606  HIT %: 70.5227  MISS %: 29.4773  AVERAGE MISS PENALTY: 130.125
LLC5 WRITEBACK ACCESS: 101846  HIT: 100460  MISS:  1386  HIT %: 98.6391  MISS %: 1.36088  AVERAGE MISS PENALTY: 0
LLC5 PREFETCH  REQUESTED:     0  ISSUED:     0  USEFUL: 30284  USELESS: 306682
 USEFUL LOAD PREFETCHES:      30284 PREFETCH ISSUED TO LOWER LEVEL:     339606  ACCURACY: 8.91739
 TIMELY PREFETCHES:      30284 LATE PREFETCHES: 0 DROPPED PREFETCHES: 0
LLC5 AVERAGE MISS LATENCY: 130.385 cycles
LLC6 TOTAL     ACCESS: 1459330  HIT: 1066239  MISS: 393091  HIT %: 73.0636  MISS %: 26.9364  AVERAGE MISS PENALTY: 131.135
LLC6 LOAD      ACCESS: 182697  HIT: 139280  MISS: 43417  HIT %: 76.2355  MISS %: 23.7645  AVERAGE MISS PENALTY: 133.241
LLC6 RFO       ACCESS: 32481  HIT: 25457  MISS:  7024  HIT %: 78.3751  MISS %: 21.6249  AVERAGE MISS PENALTY: 154.182
LLC6 PREFETCH  ACCESS: 1142464  HIT: 801186  MISS: 341278  HIT %: 70.1279  MISS %: 29.8721  AVERAGE MISS PENALTY: 130.92
LLC6 WRITEBACK ACCESS: 101688  HIT: 100316  MISS:  1372  HIT %: 98.6508  MISS %: 1.34923  AVERAGE MISS PENALTY: 0
LLC6 PREFETCH  REQUESTED:     0  ISSUED:     0  USEFUL: 30304  USELESS: 308326
 USEFUL LOAD PREFETCHES:      30304 PREFETCH ISSUED TO LOWER LEVEL:     341278  ACCURACY: 8.87956
 TIMELY PREFETCHES:      30304 LATE PREFETCHES: 0 DROPPED PREFETCHES: 0
LLC6 AVERAGE MISS LATENCY: 131.135 cycles
LLC7 TOTAL     ACCESS: 1450746  HIT: 1057196  MISS: 393550  HIT %: 72.8726  MISS %: 27.1274  AVERAGE MISS PENALTY: 131.393
LLC7 LOAD      ACCESS: 183841  HIT: 140838  MISS: 43003  HIT %: 76.6086  MISS %: 23.3914  AVERAGE MISS PENALTY: 134.021
LLC7 RFO       ACCESS: 32501  HIT: 25478  MISS:  7023  HIT %: 78.3914  MISS %: 21.6086  AVERAGE MISS PENALTY: 154.2
LLC7 PREFETCH  ACCESS: 1132686  HIT: 790522  MISS: 342164  HIT %: 69.7918  MISS %: 30.2082  AVERAGE MISS PENALTY: 131.117
LLC7 WRITEBACK ACCESS: 101718  HIT: 100358  MISS:  1360  HIT %: 98.663  MISS %: 1.33703  AVERAGE MISS PENALTY: 0
LLC7 PREFETCH  REQUESTED:     0  ISSUED:     0  USEFUL: 30081  USELESS: 309311
 USEFUL LOAD PREFETCHES:      30081 PREFETCH ISSUED TO LOWER LEVEL:     342164  ACCURACY: 8.7914
 TIMELY PREFETCHES:      30081 LATE PREFETCHES: 0 DROPPED PREFETCHES: 0
LLC7 AVERAGE MISS LATENCY: 131.393 cycles
ROI Average ROB Stall Cycles:	5.6313
ROI Total ROB Stalls Cycles:	379935964
ROI TOTAL ROB counter      :	67468595
ROI Average Load ROB Stall Cycles:	12.9901
ROI Total Load ROB Stalls Cycle  :	100102012
ROI Total Load ROB stalls Counter:	7706029
Major fault: 0 Minor fault: 29543

