
*** ChampSim Multicore Out-of-Order Simulator ***

Warmup Instructions: 200000000
Simulation Instructions: 200000000
Number of CPUs: 1
threads:1

L1I Configuration:
L1I_SET:64
L1I_WAY:8
L1I_RQ_SIZE:64
L1I_WQ_SIZE:64
L1I_PQ_SIZE:8
L1I_MSHR_SIZE:8

L1D Configuration:
L1D_SET:64
L1D_WAY:12
L1D_RQ_SIZE:64
L1D_WQ_SIZE:64
L1D_PQ_SIZE:8
L1D_MSHR_SIZE:16

L2C Configuration:
L2C_SET:1024
L2C_WAY:8
L2C_RQ_SIZE:32
L2C_WQ_SIZE:32
L2C_PQ_SIZE:16
L2C_MSHR_SIZE:32

LLC Configuration:
LLC_SET:2048
LLC_WAY:16
LLC SLICES:8
LLC_RQ_SIZE:64
LLC_WQ_SIZE:64
LLC_PQ_SIZE:32
LLC_MSHR_SIZE:64

Interconnect OFF
Attacker deprioritize is: OFF
Off-chip DRAM Size: 4096 MB Channels: 1 Width: 64-bit Data Rate: 3200 MT/s
PAGE SIZE in KB: 4.000000 
PAGE SIZE in MB: 0.003906 
PAGE offset in bits: 12 
CEASER-S_LLC:0
MIRAGE : 1
CEASER_LATENCY:3
REMAP : OFF
Partitions : 1
Multi-Step : OFF
BFS : OFF

CPU 0 runs /home/anubhav/gap/bfs-8.trace.gz
CPU 0 Bimodal branch predictor
Initialize Hawkeye state
Initialize Hawkeye state
Initialize Hawkeye state
Initialize Hawkeye state
Initialize Hawkeye state
Initialize Hawkeye state
Initialize Hawkeye state
Initialize Hawkeye state
Heartbeat CPU 0 instructions: 10000001 cycles: 14705087 heartbeat IPC: 0.680037 cumulative IPC: 0.680037 (Simulation time: 0 hr 0 min 56 sec) 
 Total Blocks : 262144 Invalid Blocks : 125704
Heartbeat CPU 0 instructions: 20000001 cycles: 26500089 heartbeat IPC: 0.847817 cumulative IPC: 0.754714 (Simulation time: 0 hr 2 min 15 sec) 
 Total Blocks : 262144 Invalid Blocks : 46220
Heartbeat CPU 0 instructions: 30000002 cycles: 39344486 heartbeat IPC: 0.77855 cumulative IPC: 0.762496 (Simulation time: 0 hr 4 min 26 sec) 
 Total Blocks : 262144 Invalid Blocks : 13150
Heartbeat CPU 0 instructions: 40000000 cycles: 53907066 heartbeat IPC: 0.686691 cumulative IPC: 0.742018 (Simulation time: 0 hr 6 min 39 sec) 
 Total Blocks : 262144 Invalid Blocks : 3891
Heartbeat CPU 0 instructions: 50000000 cycles: 66580982 heartbeat IPC: 0.789022 cumulative IPC: 0.750965 (Simulation time: 0 hr 7 min 29 sec) 
 Total Blocks : 262144 Invalid Blocks : 2113
Heartbeat CPU 0 instructions: 60000001 cycles: 70586451 heartbeat IPC: 2.49659 cumulative IPC: 0.850021 (Simulation time: 0 hr 8 min 6 sec) 
 Total Blocks : 262144 Invalid Blocks : 1506
Heartbeat CPU 0 instructions: 70000000 cycles: 80191394 heartbeat IPC: 1.04113 cumulative IPC: 0.872912 (Simulation time: 0 hr 9 min 0 sec) 
 Total Blocks : 262144 Invalid Blocks : 1307
Heartbeat CPU 0 instructions: 80000001 cycles: 93522709 heartbeat IPC: 0.750114 cumulative IPC: 0.855407 (Simulation time: 0 hr 9 min 58 sec) 
 Total Blocks : 262144 Invalid Blocks : 733
Heartbeat CPU 0 instructions: 90000001 cycles: 107713995 heartbeat IPC: 0.704658 cumulative IPC: 0.835546 (Simulation time: 0 hr 10 min 58 sec) 
 Total Blocks : 262144 Invalid Blocks : 222
Heartbeat CPU 0 instructions: 100000000 cycles: 121936525 heartbeat IPC: 0.70311 cumulative IPC: 0.820099 (Simulation time: 0 hr 11 min 58 sec) 
 Total Blocks : 262144 Invalid Blocks : 72
Heartbeat CPU 0 instructions: 110000000 cycles: 139252819 heartbeat IPC: 0.577491 cumulative IPC: 0.78993 (Simulation time: 0 hr 13 min 3 sec) 
 Total Blocks : 262144 Invalid Blocks : 20
Heartbeat CPU 0 instructions: 120000001 cycles: 156218666 heartbeat IPC: 0.589419 cumulative IPC: 0.768154 (Simulation time: 0 hr 14 min 4 sec) 
 Total Blocks : 262144 Invalid Blocks : 12
Heartbeat CPU 0 instructions: 130000000 cycles: 161520261 heartbeat IPC: 1.88622 cumulative IPC: 0.804853 (Simulation time: 0 hr 14 min 39 sec) 
 Total Blocks : 262144 Invalid Blocks : 11
Heartbeat CPU 0 instructions: 140000000 cycles: 167007643 heartbeat IPC: 1.82236 cumulative IPC: 0.838285 (Simulation time: 0 hr 15 min 27 sec) 
 Total Blocks : 262144 Invalid Blocks : 11
Heartbeat CPU 0 instructions: 150000000 cycles: 181403093 heartbeat IPC: 0.694664 cumulative IPC: 0.826888 (Simulation time: 0 hr 16 min 22 sec) 
 Total Blocks : 262144 Invalid Blocks : 9
Heartbeat CPU 0 instructions: 160000001 cycles: 195986723 heartbeat IPC: 0.6857 cumulative IPC: 0.816382 (Simulation time: 0 hr 17 min 21 sec) 
 Total Blocks : 262144 Invalid Blocks : 5
Heartbeat CPU 0 instructions: 170000001 cycles: 210574591 heartbeat IPC: 0.685501 cumulative IPC: 0.807315 (Simulation time: 0 hr 18 min 21 sec) 
 Total Blocks : 262144 Invalid Blocks : 2
Heartbeat CPU 0 instructions: 180000002 cycles: 225348289 heartbeat IPC: 0.676879 cumulative IPC: 0.798764 (Simulation time: 0 hr 19 min 21 sec) 
 Total Blocks : 262144 Invalid Blocks : 0
Heartbeat CPU 0 instructions: 190000000 cycles: 243441761 heartbeat IPC: 0.552685 cumulative IPC: 0.780474 (Simulation time: 0 hr 20 min 30 sec) 
 Total Blocks : 262144 Invalid Blocks : 0
Heartbeat CPU 0 instructions: 200000000 cycles: 260498308 heartbeat IPC: 0.586285 cumulative IPC: 0.767759 (Simulation time: 0 hr 21 min 31 sec) 
 Total Blocks : 262144 Invalid Blocks : 0

Warmup complete CPU 0 instructions: 200000003 cycles: 260498309 (Simulation time: 0 hr 21 min 31 sec) 

Heartbeat CPU 0 instructions: 210000002 cycles: 270871029 heartbeat IPC: 0.964067 cumulative IPC: 0.964067 (Simulation time: 0 hr 22 min 43 sec) 
 Total Blocks : 262144 Invalid Blocks : 0
Heartbeat CPU 0 instructions: 220000000 cycles: 282284494 heartbeat IPC: 0.876158 cumulative IPC: 0.918013 (Simulation time: 0 hr 24 min 8 sec) 
 Total Blocks : 262144 Invalid Blocks : 0
Heartbeat CPU 0 instructions: 230000003 cycles: 309361530 heartbeat IPC: 0.369317 cumulative IPC: 0.613959 (Simulation time: 0 hr 25 min 52 sec) 
 Total Blocks : 262144 Invalid Blocks : 0
Heartbeat CPU 0 instructions: 240000000 cycles: 343459555 heartbeat IPC: 0.293272 cumulative IPC: 0.482153 (Simulation time: 0 hr 28 min 2 sec) 
 Total Blocks : 262144 Invalid Blocks : 0
Heartbeat CPU 0 instructions: 250000001 cycles: 379500491 heartbeat IPC: 0.277462 cumulative IPC: 0.42016 (Simulation time: 0 hr 30 min 15 sec) 
 Total Blocks : 262144 Invalid Blocks : 0
Heartbeat CPU 0 instructions: 260000002 cycles: 419684045 heartbeat IPC: 0.248858 cumulative IPC: 0.376918 (Simulation time: 0 hr 32 min 33 sec) 
 Total Blocks : 262144 Invalid Blocks : 0
Heartbeat CPU 0 instructions: 270000002 cycles: 445776717 heartbeat IPC: 0.383249 cumulative IPC: 0.37781 (Simulation time: 0 hr 34 min 13 sec) 
 Total Blocks : 262144 Invalid Blocks : 0
Heartbeat CPU 0 instructions: 280000002 cycles: 462304207 heartbeat IPC: 0.605053 cumulative IPC: 0.396421 (Simulation time: 0 hr 35 min 52 sec) 
 Total Blocks : 262144 Invalid Blocks : 0
Heartbeat CPU 0 instructions: 290000000 cycles: 482647574 heartbeat IPC: 0.491561 cumulative IPC: 0.405133 (Simulation time: 0 hr 37 min 28 sec) 
 Total Blocks : 262144 Invalid Blocks : 0
Heartbeat CPU 0 instructions: 300000002 cycles: 515987418 heartbeat IPC: 0.299941 cumulative IPC: 0.391406 (Simulation time: 0 hr 39 min 31 sec) 
 Total Blocks : 262144 Invalid Blocks : 0
Heartbeat CPU 0 instructions: 310000001 cycles: 555909945 heartbeat IPC: 0.250485 cumulative IPC: 0.372362 (Simulation time: 0 hr 41 min 51 sec) 
 Total Blocks : 262144 Invalid Blocks : 0
Heartbeat CPU 0 instructions: 320000002 cycles: 596007154 heartbeat IPC: 0.249394 cumulative IPC: 0.357666 (Simulation time: 0 hr 44 min 12 sec) 
 Total Blocks : 262144 Invalid Blocks : 0
Heartbeat CPU 0 instructions: 330000000 cycles: 642737881 heartbeat IPC: 0.213992 cumulative IPC: 0.340101 (Simulation time: 0 hr 46 min 48 sec) 
 Total Blocks : 262144 Invalid Blocks : 0
Heartbeat CPU 0 instructions: 340000000 cycles: 682334711 heartbeat IPC: 0.252545 cumulative IPC: 0.331882 (Simulation time: 0 hr 49 min 0 sec) 
 Total Blocks : 262144 Invalid Blocks : 0
Heartbeat CPU 0 instructions: 350000000 cycles: 698279459 heartbeat IPC: 0.627166 cumulative IPC: 0.342637 (Simulation time: 0 hr 50 min 22 sec) 
 Total Blocks : 262144 Invalid Blocks : 0
Heartbeat CPU 0 instructions: 360000002 cycles: 706242334 heartbeat IPC: 1.25583 cumulative IPC: 0.35895 (Simulation time: 0 hr 51 min 41 sec) 
 Total Blocks : 262144 Invalid Blocks : 0
Heartbeat CPU 0 instructions: 370000000 cycles: 731969986 heartbeat IPC: 0.388687 cumulative IPC: 0.360573 (Simulation time: 0 hr 53 min 18 sec) 
 Total Blocks : 262144 Invalid Blocks : 0
Heartbeat CPU 0 instructions: 380000001 cycles: 762668570 heartbeat IPC: 0.325748 cumulative IPC: 0.358444 (Simulation time: 0 hr 55 min 23 sec) 
 Total Blocks : 262144 Invalid Blocks : 0
Heartbeat CPU 0 instructions: 390000000 cycles: 798073208 heartbeat IPC: 0.282449 cumulative IPC: 0.353439 (Simulation time: 0 hr 57 min 34 sec) 
 Total Blocks : 262144 Invalid Blocks : 0
Heartbeat CPU 0 instructions: 400000000 cycles: 836057386 heartbeat IPC: 0.263268 cumulative IPC: 0.347488 (Simulation time: 0 hr 59 min 48 sec) 
 Total Blocks : 262144 Invalid Blocks : 0
Finished CPU 0 instructions: 200000000 cycles: 575559078 cumulative IPC: 0.347488 (Simulation time: 0 hr 59 min 48 sec) 

CPU 0 Branch Prediction Accuracy: 84.9687% MPKI: 31.6895 Average ROB Occupancy at Mispredict: 24.4798

ChampSim completed all CPUs

Region of Interest Statistics

CPU 0 cumulative IPC: 0.347488 instructions: 200000000 cycles: 575559078
ITLB TOTAL     ACCESS: 29920579  HIT: 29920579  MISS:     0  HIT %:   100  MISS %:     0  AVERAGE MISS PENALTY: 0
ITLB LOAD      ACCESS: 29920579  HIT: 29920579  MISS:     0  HIT %:   100  MISS %:     0  AVERAGE MISS PENALTY: 0
ITLB RFO       ACCESS:     0  HIT:     0  MISS:     0  HIT %:     0  MISS %:     0  AVERAGE MISS PENALTY: 0
ITLB PREFETCH  ACCESS:     0  HIT:     0  MISS:     0  HIT %:     0  MISS %:     0  AVERAGE MISS PENALTY: 0
ITLB WRITEBACK ACCESS:     0  HIT:     0  MISS:     0  HIT %:     0  MISS %:     0  AVERAGE MISS PENALTY: 0
ITLB PREFETCH  REQUESTED:     0  ISSUED:     0  USEFUL:     0  USELESS:     0
 USEFUL LOAD PREFETCHES:          0 PREFETCH ISSUED TO LOWER LEVEL:          0  ACCURACY: -nan
 TIMELY PREFETCHES:          0 LATE PREFETCHES: 0 DROPPED PREFETCHES: 0
ITLB AVERAGE MISS LATENCY: -nan cycles
DTLB TOTAL     ACCESS: 39748299  HIT: 39444116  MISS: 304183  HIT %: 99.2347  MISS %: 0.765273  AVERAGE MISS PENALTY: 72.8385
DTLB LOAD      ACCESS: 32748358  HIT: 32455335  MISS: 293023  HIT %: 99.1052  MISS %: 0.894772  AVERAGE MISS PENALTY: 74.0835
DTLB RFO       ACCESS: 6999941  HIT: 6988781  MISS: 11160  HIT %: 99.8406  MISS %: 0.15943  AVERAGE MISS PENALTY: 40.1488
DTLB PREFETCH  ACCESS:     0  HIT:     0  MISS:     0  HIT %:     0  MISS %:     0  AVERAGE MISS PENALTY: 0
DTLB WRITEBACK ACCESS:     0  HIT:     0  MISS:     0  HIT %:     0  MISS %:     0  AVERAGE MISS PENALTY: 0
DTLB PREFETCH  REQUESTED:     0  ISSUED:     0  USEFUL:     0  USELESS:     0
 USEFUL LOAD PREFETCHES:          0 PREFETCH ISSUED TO LOWER LEVEL:          0  ACCURACY: -nan
 TIMELY PREFETCHES:          0 LATE PREFETCHES: 0 DROPPED PREFETCHES: 0
DTLB AVERAGE MISS LATENCY: 72.8385 cycles
STLB TOTAL     ACCESS: 304183  HIT: 121077  MISS: 183106  HIT %: 39.804  MISS %: 60.196  AVERAGE MISS PENALTY: 100
STLB LOAD      ACCESS: 293023  HIT: 113286  MISS: 179737  HIT %: 38.6611  MISS %: 61.3389  AVERAGE MISS PENALTY: 100
STLB RFO       ACCESS: 11160  HIT:  7791  MISS:  3369  HIT %: 69.8118  MISS %: 30.1882  AVERAGE MISS PENALTY: 100
STLB PREFETCH  ACCESS:     0  HIT:     0  MISS:     0  HIT %:     0  MISS %:     0  AVERAGE MISS PENALTY: 0
STLB WRITEBACK ACCESS:     0  HIT:     0  MISS:     0  HIT %:     0  MISS %:     0  AVERAGE MISS PENALTY: 0
STLB PREFETCH  REQUESTED:     0  ISSUED:     0  USEFUL:     0  USELESS:     0
 USEFUL LOAD PREFETCHES:          0 PREFETCH ISSUED TO LOWER LEVEL:          0  ACCURACY: -nan
 TIMELY PREFETCHES:          0 LATE PREFETCHES: 0 DROPPED PREFETCHES: 0
STLB AVERAGE MISS LATENCY: 100 cycles
L1D TOTAL     ACCESS: 56063738  HIT: 47683766  MISS: 8379972  HIT %: 85.0528  MISS %: 14.9472  AVERAGE MISS PENALTY: 5.36259e+06
L1D LOAD      ACCESS: 32443800  HIT: 29983093  MISS: 2460707  HIT %: 92.4155  MISS %: 7.58452  AVERAGE MISS PENALTY: 1.82623e+07
L1D RFO       ACCESS: 6896011  HIT: 6650950  MISS: 245061  HIT %: 96.4463  MISS %: 3.55366  AVERAGE MISS PENALTY: 74.0113
L1D PREFETCH  ACCESS: 16723927  HIT: 11049723  MISS: 5674204  HIT %: 66.0713  MISS %: 33.9287  AVERAGE MISS PENALTY: 45.8371
L1D WRITEBACK ACCESS:     0  HIT:     0  MISS:     0  HIT %:     0  MISS %:     0  AVERAGE MISS PENALTY: 0
L1D PREFETCH  REQUESTED: 19076387  ISSUED: 18565881  USEFUL: 2688002  USELESS: 2986065
 USEFUL LOAD PREFETCHES:    2688002 PREFETCH ISSUED TO LOWER LEVEL:    7202714  ACCURACY: 37.3193
 TIMELY PREFETCHES:    2688002 LATE PREFETCHES: 140827 DROPPED PREFETCHES: 510506
L1D AVERAGE MISS LATENCY: 48.4973 cycles
L1I TOTAL     ACCESS: 47131769  HIT: 47131769  MISS:     0  HIT %:   100  MISS %:     0  AVERAGE MISS PENALTY: 0
L1I LOAD      ACCESS: 47131769  HIT: 47131769  MISS:     0  HIT %:   100  MISS %:     0  AVERAGE MISS PENALTY: 0
L1I RFO       ACCESS:     0  HIT:     0  MISS:     0  HIT %:     0  MISS %:     0  AVERAGE MISS PENALTY: 0
L1I PREFETCH  ACCESS:     0  HIT:     0  MISS:     0  HIT %:     0  MISS %:     0  AVERAGE MISS PENALTY: 0
L1I WRITEBACK ACCESS:     0  HIT:     0  MISS:     0  HIT %:     0  MISS %:     0  AVERAGE MISS PENALTY: 0
L1I PREFETCH  REQUESTED:     0  ISSUED:     0  USEFUL:     0  USELESS:     0
 USEFUL LOAD PREFETCHES:          0 PREFETCH ISSUED TO LOWER LEVEL:          0  ACCURACY: -nan
 TIMELY PREFETCHES:          0 LATE PREFETCHES: 0 DROPPED PREFETCHES: 0
L1I AVERAGE MISS LATENCY: -nan cycles
L2C TOTAL     ACCESS: 19385953  HIT: 12858907  MISS: 6527046  HIT %: 66.3311  MISS %: 33.6689  AVERAGE MISS PENALTY: 4.486e+06
L2C LOAD      ACCESS: 2450363  HIT: 1660081  MISS: 790282  HIT %: 67.7484  MISS %: 32.2516  AVERAGE MISS PENALTY: 3.70497e+07
L2C RFO       ACCESS: 245061  HIT:  9214  MISS: 235847  HIT %: 3.75988  MISS %: 96.2401  AVERAGE MISS PENALTY: 60.9903
L2C PREFETCH  ACCESS: 15961550  HIT: 10460654  MISS: 5500896  HIT %: 65.5366  MISS %: 34.4634  AVERAGE MISS PENALTY: 109.84
L2C WRITEBACK ACCESS: 728979  HIT: 728958  MISS:    21  HIT %: 99.9971  MISS %: 0.00288074  AVERAGE MISS PENALTY: 0
L2C PREFETCH  REQUESTED: 18115351  ISSUED: 17878176  USEFUL: 228891  USELESS: 5273559
 USEFUL LOAD PREFETCHES:     228891 PREFETCH ISSUED TO LOWER LEVEL:    5964936  ACCURACY: 3.83728
 TIMELY PREFETCHES:     228891 LATE PREFETCHES: 120200 DROPPED PREFETCHES: 237175
L2C AVERAGE MISS LATENCY: 108.547 cycles
LLC0 TOTAL     ACCESS: 888202  HIT: 453782  MISS: 434420  HIT %: 51.09  MISS %: 48.91  AVERAGE MISS PENALTY: 130.476
LLC0 LOAD      ACCESS: 129156  HIT: 50082  MISS: 79074  HIT %: 38.7764  MISS %: 61.2236  AVERAGE MISS PENALTY: 132.763
LLC0 RFO       ACCESS: 29501  HIT: 24130  MISS:  5371  HIT %: 81.7938  MISS %: 18.2062  AVERAGE MISS PENALTY: 140.216
LLC0 PREFETCH  ACCESS: 644859  HIT: 296484  MISS: 348375  HIT %: 45.9766  MISS %: 54.0234  AVERAGE MISS PENALTY: 130.406
LLC0 WRITEBACK ACCESS: 84686  HIT: 83086  MISS:  1600  HIT %: 98.1107  MISS %: 1.88933  AVERAGE MISS PENALTY: 0
LLC0 PREFETCH  REQUESTED:     0  ISSUED:     0  USEFUL: 24826  USELESS: 323815
 USEFUL LOAD PREFETCHES:      24826 PREFETCH ISSUED TO LOWER LEVEL:     348375  ACCURACY: 7.12623
 TIMELY PREFETCHES:      24826 LATE PREFETCHES: 0 DROPPED PREFETCHES: 0
LLC0 AVERAGE MISS LATENCY: 130.476 cycles
Deadblocks : 72002 Deadblock percentage : 91.0565

LLC1 TOTAL     ACCESS: 898134  HIT: 451520  MISS: 446614  HIT %: 50.2731  MISS %: 49.7269  AVERAGE MISS PENALTY: 131.084
LLC1 LOAD      ACCESS: 93277  HIT: 37143  MISS: 56134  HIT %: 39.8201  MISS %: 60.1799  AVERAGE MISS PENALTY: 129.263
LLC1 RFO       ACCESS: 29480  HIT: 24069  MISS:  5411  HIT %: 81.6452  MISS %: 18.3548  AVERAGE MISS PENALTY: 141.51
LLC1 PREFETCH  ACCESS: 690722  HIT: 307276  MISS: 383446  HIT %: 44.4862  MISS %: 55.5138  AVERAGE MISS PENALTY: 131.758
LLC1 WRITEBACK ACCESS: 84655  HIT: 83032  MISS:  1623  HIT %: 98.0828  MISS %: 1.91719  AVERAGE MISS PENALTY: 0
LLC1 PREFETCH  REQUESTED:     0  ISSUED:     0  USEFUL: 27540  USELESS: 356530
 USEFUL LOAD PREFETCHES:      27540 PREFETCH ISSUED TO LOWER LEVEL:     383446  ACCURACY: 7.18224
 TIMELY PREFETCHES:      27540 LATE PREFETCHES: 0 DROPPED PREFETCHES: 0
LLC1 AVERAGE MISS LATENCY: 131.084 cycles
LLC2 TOTAL     ACCESS: 904397  HIT: 449887  MISS: 454510  HIT %: 49.7444  MISS %: 50.2556  AVERAGE MISS PENALTY: 131.757
LLC2 LOAD      ACCESS: 89243  HIT: 35170  MISS: 54073  HIT %: 39.4093  MISS %: 60.5907  AVERAGE MISS PENALTY: 129.268
LLC2 RFO       ACCESS: 29468  HIT: 24060  MISS:  5408  HIT %: 81.6479  MISS %: 18.3521  AVERAGE MISS PENALTY: 142.616
LLC2 PREFETCH  ACCESS: 700955  HIT: 307562  MISS: 393393  HIT %: 43.8776  MISS %: 56.1224  AVERAGE MISS PENALTY: 132.498
LLC2 WRITEBACK ACCESS: 84731  HIT: 83095  MISS:  1636  HIT %: 98.0692  MISS %: 1.93082  AVERAGE MISS PENALTY: 0
LLC2 PREFETCH  REQUESTED:     0  ISSUED:     0  USEFUL: 27463  USELESS: 366571
 USEFUL LOAD PREFETCHES:      27463 PREFETCH ISSUED TO LOWER LEVEL:     393393  ACCURACY: 6.98106
 TIMELY PREFETCHES:      27463 LATE PREFETCHES: 0 DROPPED PREFETCHES: 0
LLC2 AVERAGE MISS LATENCY: 131.757 cycles
LLC3 TOTAL     ACCESS: 904682  HIT: 447714  MISS: 456968  HIT %: 49.4885  MISS %: 50.5115  AVERAGE MISS PENALTY: 131.058
LLC3 LOAD      ACCESS: 87989  HIT: 35134  MISS: 52855  HIT %: 39.93  MISS %: 60.07  AVERAGE MISS PENALTY: 130.329
LLC3 RFO       ACCESS: 29467  HIT: 24148  MISS:  5319  HIT %: 81.9493  MISS %: 18.0507  AVERAGE MISS PENALTY: 140.409
LLC3 PREFETCH  ACCESS: 702340  HIT: 305185  MISS: 397155  HIT %: 43.4526  MISS %: 56.5474  AVERAGE MISS PENALTY: 131.571
LLC3 WRITEBACK ACCESS: 84886  HIT: 83247  MISS:  1639  HIT %: 98.0692  MISS %: 1.93082  AVERAGE MISS PENALTY: 0
LLC3 PREFETCH  REQUESTED:     0  ISSUED:     0  USEFUL: 27570  USELESS: 370277
 USEFUL LOAD PREFETCHES:      27570 PREFETCH ISSUED TO LOWER LEVEL:     397155  ACCURACY: 6.94187
 TIMELY PREFETCHES:      27570 LATE PREFETCHES: 0 DROPPED PREFETCHES: 0
LLC3 AVERAGE MISS LATENCY: 131.058 cycles
LLC4 TOTAL     ACCESS: 904013  HIT: 445457  MISS: 458556  HIT %: 49.2755  MISS %: 50.7245  AVERAGE MISS PENALTY: 131.417
LLC4 LOAD      ACCESS: 86596  HIT: 34415  MISS: 52181  HIT %: 39.742  MISS %: 60.258  AVERAGE MISS PENALTY: 129.672
LLC4 RFO       ACCESS: 29467  HIT: 23909  MISS:  5558  HIT %: 81.1382  MISS %: 18.8618  AVERAGE MISS PENALTY: 141.179
LLC4 PREFETCH  ACCESS: 703221  HIT: 304012  MISS: 399209  HIT %: 43.2314  MISS %: 56.7686  AVERAGE MISS PENALTY: 132.038
LLC4 WRITEBACK ACCESS: 84729  HIT: 83121  MISS:  1608  HIT %: 98.1022  MISS %: 1.89782  AVERAGE MISS PENALTY: 0
LLC4 PREFETCH  REQUESTED:     0  ISSUED:     0  USEFUL: 27355  USELESS: 372501
 USEFUL LOAD PREFETCHES:      27355 PREFETCH ISSUED TO LOWER LEVEL:     399209  ACCURACY: 6.8523
 TIMELY PREFETCHES:      27355 LATE PREFETCHES: 0 DROPPED PREFETCHES: 0
LLC4 AVERAGE MISS LATENCY: 131.417 cycles
LLC5 TOTAL     ACCESS: 903470  HIT: 443548  MISS: 459922  HIT %: 49.0938  MISS %: 50.9062  AVERAGE MISS PENALTY: 130.981
LLC5 LOAD      ACCESS: 87699  HIT: 34614  MISS: 53085  HIT %: 39.4691  MISS %: 60.5309  AVERAGE MISS PENALTY: 129.672
LLC5 RFO       ACCESS: 29489  HIT: 24030  MISS:  5459  HIT %: 81.488  MISS %: 18.512  AVERAGE MISS PENALTY: 142.223
LLC5 PREFETCH  ACCESS: 701677  HIT: 301912  MISS: 399765  HIT %: 43.0272  MISS %: 56.9728  AVERAGE MISS PENALTY: 131.53
LLC5 WRITEBACK ACCESS: 84605  HIT: 82992  MISS:  1613  HIT %: 98.0935  MISS %: 1.90651  AVERAGE MISS PENALTY: 0
LLC5 PREFETCH  REQUESTED:     0  ISSUED:     0  USEFUL: 27296  USELESS: 373141
 USEFUL LOAD PREFETCHES:      27296 PREFETCH ISSUED TO LOWER LEVEL:     399766  ACCURACY: 6.82799
 TIMELY PREFETCHES:      27296 LATE PREFETCHES: 0 DROPPED PREFETCHES: 0
LLC5 AVERAGE MISS LATENCY: 130.981 cycles
LLC6 TOTAL     ACCESS: 902049  HIT: 440502  MISS: 461547  HIT %: 48.8335  MISS %: 51.1665  AVERAGE MISS PENALTY: 131.273
LLC6 LOAD      ACCESS: 88254  HIT: 35041  MISS: 53213  HIT %: 39.7047  MISS %: 60.2953  AVERAGE MISS PENALTY: 130.305
LLC6 RFO       ACCESS: 29484  HIT: 23967  MISS:  5517  HIT %: 81.2882  MISS %: 18.7118  AVERAGE MISS PENALTY: 140.425
LLC6 PREFETCH  ACCESS: 699306  HIT: 298145  MISS: 401161  HIT %: 42.6344  MISS %: 57.3656  AVERAGE MISS PENALTY: 131.817
LLC6 WRITEBACK ACCESS: 85005  HIT: 83349  MISS:  1656  HIT %: 98.0519  MISS %: 1.94812  AVERAGE MISS PENALTY: 0
LLC6 PREFETCH  REQUESTED:     0  ISSUED:     0  USEFUL: 27300  USELESS: 374429
 USEFUL LOAD PREFETCHES:      27300 PREFETCH ISSUED TO LOWER LEVEL:     401161  ACCURACY: 6.80525
 TIMELY PREFETCHES:      27300 LATE PREFETCHES: 0 DROPPED PREFETCHES: 0
LLC6 AVERAGE MISS LATENCY: 131.273 cycles
LLC7 TOTAL     ACCESS: 900304  HIT: 437408  MISS: 462896  HIT %: 48.5845  MISS %: 51.4155  AVERAGE MISS PENALTY: 131.194
LLC7 LOAD      ACCESS: 87512  HIT: 34881  MISS: 52631  HIT %: 39.8585  MISS %: 60.1415  AVERAGE MISS PENALTY: 130.423
LLC7 RFO       ACCESS: 29491  HIT: 24070  MISS:  5421  HIT %: 81.6181  MISS %: 18.3819  AVERAGE MISS PENALTY: 141.716
LLC7 PREFETCH  ACCESS: 698372  HIT: 295200  MISS: 403172  HIT %: 42.2697  MISS %: 57.7303  AVERAGE MISS PENALTY: 131.697
LLC7 WRITEBACK ACCESS: 84929  HIT: 83257  MISS:  1672  HIT %: 98.0313  MISS %: 1.9687  AVERAGE MISS PENALTY: 0
LLC7 PREFETCH  REQUESTED:     0  ISSUED:     0  USEFUL: 27327  USELESS: 376357
 USEFUL LOAD PREFETCHES:      27327 PREFETCH ISSUED TO LOWER LEVEL:     403172  ACCURACY: 6.778
 TIMELY PREFETCHES:      27327 LATE PREFETCHES: 0 DROPPED PREFETCHES: 0
LLC7 AVERAGE MISS LATENCY: 131.194 cycles
ROI Average ROB Stall Cycles:	5.92438
ROI Total ROB Stalls Cycles:	419947179
ROI TOTAL ROB counter      :	70884594
ROI Average Load ROB Stall Cycles:	12.4404
ROI Total Load ROB Stalls Cycle  :	104399794
ROI Total Load ROB stalls Counter:	8391998
Major fault: 0 Minor fault: 27397

