
*** ChampSim Multicore Out-of-Order Simulator ***

Warmup Instructions: 200000000
Simulation Instructions: 200000000
Number of CPUs: 1
threads:1

L1I Configuration:
L1I_SET:64
L1I_WAY:8
L1I_RQ_SIZE:64
L1I_WQ_SIZE:64
L1I_PQ_SIZE:8
L1I_MSHR_SIZE:8

L1D Configuration:
L1D_SET:64
L1D_WAY:12
L1D_RQ_SIZE:64
L1D_WQ_SIZE:64
L1D_PQ_SIZE:8
L1D_MSHR_SIZE:16

L2C Configuration:
L2C_SET:1024
L2C_WAY:8
L2C_RQ_SIZE:32
L2C_WQ_SIZE:32
L2C_PQ_SIZE:16
L2C_MSHR_SIZE:32

LLC Configuration:
LLC_SET:4096
LLC_WAY:16
LLC SLICES:8
LLC_RQ_SIZE:64
LLC_WQ_SIZE:64
LLC_PQ_SIZE:32
LLC_MSHR_SIZE:64

Interconnect OFF
Attacker deprioritize is: OFF
Off-chip DRAM Size: 4096 MB Channels: 1 Width: 64-bit Data Rate: 3200 MT/s
PAGE SIZE in KB: 4.000000 
PAGE SIZE in MB: 0.003906 
PAGE offset in bits: 12 
CEASER-S_LLC:0
MIRAGE : 1
CEASER_LATENCY:3
REMAP : OFF
Partitions : 1
Multi-Step : OFF
BFS : OFF

CPU 0 runs /home/anubhav/gap/cc-13.trace.gz
CPU 0 Bimodal branch predictor
Initialize Hawkeye state
Initialize Hawkeye state
Initialize Hawkeye state
Initialize Hawkeye state
Initialize Hawkeye state
Initialize Hawkeye state
Initialize Hawkeye state
Initialize Hawkeye state
Heartbeat CPU 0 instructions: 10000000 cycles: 11656428 heartbeat IPC: 0.857896 cumulative IPC: 0.857896 (Simulation time: 0 hr 2 min 27 sec) 
 Total Blocks : 524288 Invalid Blocks : 424936
Heartbeat CPU 0 instructions: 20000003 cycles: 23963639 heartbeat IPC: 0.812532 cumulative IPC: 0.834598 (Simulation time: 0 hr 4 min 50 sec) 
 Total Blocks : 524288 Invalid Blocks : 384439
Heartbeat CPU 0 instructions: 30000000 cycles: 35244936 heartbeat IPC: 0.886423 cumulative IPC: 0.851186 (Simulation time: 0 hr 7 min 2 sec) 
 Total Blocks : 524288 Invalid Blocks : 347433
Heartbeat CPU 0 instructions: 40000003 cycles: 46213950 heartbeat IPC: 0.911659 cumulative IPC: 0.86554 (Simulation time: 0 hr 10 min 7 sec) 
 Total Blocks : 524288 Invalid Blocks : 312989
Heartbeat CPU 0 instructions: 50000000 cycles: 57362147 heartbeat IPC: 0.897006 cumulative IPC: 0.871655 (Simulation time: 0 hr 13 min 55 sec) 
 Total Blocks : 524288 Invalid Blocks : 282262
Heartbeat CPU 0 instructions: 60000000 cycles: 68912882 heartbeat IPC: 0.865746 cumulative IPC: 0.870664 (Simulation time: 0 hr 18 min 0 sec) 
 Total Blocks : 524288 Invalid Blocks : 254279
Heartbeat CPU 0 instructions: 70000000 cycles: 79994816 heartbeat IPC: 0.90237 cumulative IPC: 0.875057 (Simulation time: 0 hr 21 min 58 sec) 
 Total Blocks : 524288 Invalid Blocks : 229216
Heartbeat CPU 0 instructions: 80000000 cycles: 91121414 heartbeat IPC: 0.898747 cumulative IPC: 0.877949 (Simulation time: 0 hr 25 min 52 sec) 
 Total Blocks : 524288 Invalid Blocks : 206478
Heartbeat CPU 0 instructions: 90000001 cycles: 102335890 heartbeat IPC: 0.891705 cumulative IPC: 0.879457 (Simulation time: 0 hr 29 min 58 sec) 
 Total Blocks : 524288 Invalid Blocks : 186034
Heartbeat CPU 0 instructions: 100000003 cycles: 112896802 heartbeat IPC: 0.946888 cumulative IPC: 0.885765 (Simulation time: 0 hr 33 min 47 sec) 
 Total Blocks : 524288 Invalid Blocks : 167815
Heartbeat CPU 0 instructions: 110000000 cycles: 123394944 heartbeat IPC: 0.952549 cumulative IPC: 0.891447 (Simulation time: 0 hr 37 min 39 sec) 
 Total Blocks : 524288 Invalid Blocks : 151130
Heartbeat CPU 0 instructions: 120000002 cycles: 134013498 heartbeat IPC: 0.941748 cumulative IPC: 0.895432 (Simulation time: 0 hr 41 min 48 sec) 
 Total Blocks : 524288 Invalid Blocks : 136110
Heartbeat CPU 0 instructions: 130000000 cycles: 145139986 heartbeat IPC: 0.898756 cumulative IPC: 0.895687 (Simulation time: 0 hr 45 min 55 sec) 
 Total Blocks : 524288 Invalid Blocks : 122523
Heartbeat CPU 0 instructions: 140000001 cycles: 156121905 heartbeat IPC: 0.910588 cumulative IPC: 0.896735 (Simulation time: 0 hr 49 min 58 sec) 
 Total Blocks : 524288 Invalid Blocks : 110205
Heartbeat CPU 0 instructions: 150000000 cycles: 166159985 heartbeat IPC: 0.996206 cumulative IPC: 0.902744 (Simulation time: 0 hr 53 min 46 sec) 
 Total Blocks : 524288 Invalid Blocks : 99501
Heartbeat CPU 0 instructions: 160000001 cycles: 176854366 heartbeat IPC: 0.935071 cumulative IPC: 0.904699 (Simulation time: 0 hr 58 min 37 sec) 
 Total Blocks : 524288 Invalid Blocks : 89655
Heartbeat CPU 0 instructions: 170000002 cycles: 187677209 heartbeat IPC: 0.923972 cumulative IPC: 0.905811 (Simulation time: 1 hr 2 min 30 sec) 
 Total Blocks : 524288 Invalid Blocks : 80749
Heartbeat CPU 0 instructions: 180000003 cycles: 198466287 heartbeat IPC: 0.926863 cumulative IPC: 0.906955 (Simulation time: 1 hr 6 min 43 sec) 
 Total Blocks : 524288 Invalid Blocks : 72608
Heartbeat CPU 0 instructions: 190000002 cycles: 209152727 heartbeat IPC: 0.935765 cumulative IPC: 0.908427 (Simulation time: 1 hr 10 min 45 sec) 
 Total Blocks : 524288 Invalid Blocks : 65307
Heartbeat CPU 0 instructions: 200000000 cycles: 220020450 heartbeat IPC: 0.920156 cumulative IPC: 0.909006 (Simulation time: 1 hr 14 min 43 sec) 
 Total Blocks : 524288 Invalid Blocks : 58743

Warmup complete CPU 0 instructions: 200000001 cycles: 220020451 (Simulation time: 1 hr 14 min 43 sec) 

Heartbeat CPU 0 instructions: 210000000 cycles: 255945602 heartbeat IPC: 0.278357 cumulative IPC: 0.278356 (Simulation time: 1 hr 22 min 15 sec) 
 Total Blocks : 524288 Invalid Blocks : 52778
Heartbeat CPU 0 instructions: 220000000 cycles: 293656608 heartbeat IPC: 0.265175 cumulative IPC: 0.271606 (Simulation time: 1 hr 29 min 34 sec) 
 Total Blocks : 524288 Invalid Blocks : 47370
Heartbeat CPU 0 instructions: 230000000 cycles: 329820906 heartbeat IPC: 0.276516 cumulative IPC: 0.273223 (Simulation time: 1 hr 36 min 41 sec) 
 Total Blocks : 524288 Invalid Blocks : 42736
Heartbeat CPU 0 instructions: 240000000 cycles: 367704549 heartbeat IPC: 0.263966 cumulative IPC: 0.270848 (Simulation time: 1 hr 43 min 38 sec) 
 Total Blocks : 524288 Invalid Blocks : 38394
Heartbeat CPU 0 instructions: 250000000 cycles: 403992297 heartbeat IPC: 0.275575 cumulative IPC: 0.271781 (Simulation time: 1 hr 50 min 20 sec) 
 Total Blocks : 524288 Invalid Blocks : 34496
Heartbeat CPU 0 instructions: 260000001 cycles: 442317910 heartbeat IPC: 0.260922 cumulative IPC: 0.269909 (Simulation time: 1 hr 57 min 19 sec) 
 Total Blocks : 524288 Invalid Blocks : 31101
Heartbeat CPU 0 instructions: 270000000 cycles: 478609168 heartbeat IPC: 0.275548 cumulative IPC: 0.2707 (Simulation time: 2 hr 3 min 49 sec) 
 Total Blocks : 524288 Invalid Blocks : 28049
Heartbeat CPU 0 instructions: 280000000 cycles: 516628550 heartbeat IPC: 0.263024 cumulative IPC: 0.269716 (Simulation time: 2 hr 10 min 9 sec) 
 Total Blocks : 524288 Invalid Blocks : 25227
Heartbeat CPU 0 instructions: 290000001 cycles: 552682186 heartbeat IPC: 0.277365 cumulative IPC: 0.270545 (Simulation time: 2 hr 15 min 36 sec) 
 Total Blocks : 524288 Invalid Blocks : 22740
Heartbeat CPU 0 instructions: 300000001 cycles: 587786670 heartbeat IPC: 0.284864 cumulative IPC: 0.271912 (Simulation time: 2 hr 20 min 48 sec) 
 Total Blocks : 524288 Invalid Blocks : 20487
Heartbeat CPU 0 instructions: 310000000 cycles: 624276070 heartbeat IPC: 0.274052 cumulative IPC: 0.272105 (Simulation time: 2 hr 26 min 10 sec) 
 Total Blocks : 524288 Invalid Blocks : 18451
Heartbeat CPU 0 instructions: 320000001 cycles: 661225884 heartbeat IPC: 0.270637 cumulative IPC: 0.271982 (Simulation time: 2 hr 31 min 16 sec) 
 Total Blocks : 524288 Invalid Blocks : 16611
Heartbeat CPU 0 instructions: 330000000 cycles: 699466280 heartbeat IPC: 0.261504 cumulative IPC: 0.271146 (Simulation time: 2 hr 35 min 57 sec) 
 Total Blocks : 524288 Invalid Blocks : 14917
Heartbeat CPU 0 instructions: 340000000 cycles: 736974093 heartbeat IPC: 0.266611 cumulative IPC: 0.270817 (Simulation time: 2 hr 40 min 30 sec) 
 Total Blocks : 524288 Invalid Blocks : 13350
Heartbeat CPU 0 instructions: 350000001 cycles: 773995564 heartbeat IPC: 0.270114 cumulative IPC: 0.27077 (Simulation time: 2 hr 44 min 52 sec) 
 Total Blocks : 524288 Invalid Blocks : 12002
Heartbeat CPU 0 instructions: 360000000 cycles: 808651682 heartbeat IPC: 0.288549 cumulative IPC: 0.271817 (Simulation time: 2 hr 48 min 54 sec) 
 Total Blocks : 524288 Invalid Blocks : 10815
Heartbeat CPU 0 instructions: 370000000 cycles: 846936744 heartbeat IPC: 0.261198 cumulative IPC: 0.271169 (Simulation time: 2 hr 53 min 16 sec) 
 Total Blocks : 524288 Invalid Blocks : 9734
Heartbeat CPU 0 instructions: 380000001 cycles: 885553826 heartbeat IPC: 0.258953 cumulative IPC: 0.27046 (Simulation time: 2 hr 57 min 39 sec) 
 Total Blocks : 524288 Invalid Blocks : 8707
Heartbeat CPU 0 instructions: 390000002 cycles: 923490504 heartbeat IPC: 0.263597 cumulative IPC: 0.27009 (Simulation time: 3 hr 1 min 58 sec) 
 Total Blocks : 524288 Invalid Blocks : 7828
Heartbeat CPU 0 instructions: 400000000 cycles: 959763518 heartbeat IPC: 0.275687 cumulative IPC: 0.270364 (Simulation time: 3 hr 6 min 11 sec) 
 Total Blocks : 524288 Invalid Blocks : 7018
Finished CPU 0 instructions: 200000000 cycles: 739743143 cumulative IPC: 0.270364 (Simulation time: 3 hr 6 min 11 sec) 

CPU 0 Branch Prediction Accuracy: 88.2991% MPKI: 24.0126 Average ROB Occupancy at Mispredict: 34.7549

ChampSim completed all CPUs

Region of Interest Statistics

CPU 0 cumulative IPC: 0.270364 instructions: 200000000 cycles: 739743143
ITLB TOTAL     ACCESS: 28490931  HIT: 28490931  MISS:     0  HIT %:   100  MISS %:     0  AVERAGE MISS PENALTY: 0
ITLB LOAD      ACCESS: 28490931  HIT: 28490931  MISS:     0  HIT %:   100  MISS %:     0  AVERAGE MISS PENALTY: 0
ITLB RFO       ACCESS:     0  HIT:     0  MISS:     0  HIT %:     0  MISS %:     0  AVERAGE MISS PENALTY: 0
ITLB PREFETCH  ACCESS:     0  HIT:     0  MISS:     0  HIT %:     0  MISS %:     0  AVERAGE MISS PENALTY: 0
ITLB WRITEBACK ACCESS:     0  HIT:     0  MISS:     0  HIT %:     0  MISS %:     0  AVERAGE MISS PENALTY: 0
ITLB PREFETCH  REQUESTED:     0  ISSUED:     0  USEFUL:     0  USELESS:     0
 USEFUL LOAD PREFETCHES:          0 PREFETCH ISSUED TO LOWER LEVEL:          0  ACCURACY: -nan
 TIMELY PREFETCHES:          0 LATE PREFETCHES: 0 DROPPED PREFETCHES: 0
ITLB AVERAGE MISS LATENCY: -nan cycles
DTLB TOTAL     ACCESS: 46212568  HIT: 36249294  MISS: 9963274  HIT %: 78.4403  MISS %: 21.5597  AVERAGE MISS PENALTY: 9.436
DTLB LOAD      ACCESS: 46151027  HIT: 36187753  MISS: 9963274  HIT %: 78.4116  MISS %: 21.5884  AVERAGE MISS PENALTY: 9.436
DTLB RFO       ACCESS: 61541  HIT: 61541  MISS:     0  HIT %:   100  MISS %:     0  AVERAGE MISS PENALTY: 0
DTLB PREFETCH  ACCESS:     0  HIT:     0  MISS:     0  HIT %:     0  MISS %:     0  AVERAGE MISS PENALTY: 0
DTLB WRITEBACK ACCESS:     0  HIT:     0  MISS:     0  HIT %:     0  MISS %:     0  AVERAGE MISS PENALTY: 0
DTLB PREFETCH  REQUESTED:     0  ISSUED:     0  USEFUL:     0  USELESS:     0
 USEFUL LOAD PREFETCHES:          0 PREFETCH ISSUED TO LOWER LEVEL:          0  ACCURACY: -nan
 TIMELY PREFETCHES:          0 LATE PREFETCHES: 0 DROPPED PREFETCHES: 0
DTLB AVERAGE MISS LATENCY: 9.436 cycles
STLB TOTAL     ACCESS: 9963274  HIT: 9948145  MISS: 15129  HIT %: 99.8482  MISS %: 0.151848  AVERAGE MISS PENALTY: 100
STLB LOAD      ACCESS: 9963274  HIT: 9948145  MISS: 15129  HIT %: 99.8482  MISS %: 0.151848  AVERAGE MISS PENALTY: 100
STLB RFO       ACCESS:     0  HIT:     0  MISS:     0  HIT %:     0  MISS %:     0  AVERAGE MISS PENALTY: 0
STLB PREFETCH  ACCESS:     0  HIT:     0  MISS:     0  HIT %:     0  MISS %:     0  AVERAGE MISS PENALTY: 0
STLB WRITEBACK ACCESS:     0  HIT:     0  MISS:     0  HIT %:     0  MISS %:     0  AVERAGE MISS PENALTY: 0
STLB PREFETCH  REQUESTED:     0  ISSUED:     0  USEFUL:     0  USELESS:     0
 USEFUL LOAD PREFETCHES:          0 PREFETCH ISSUED TO LOWER LEVEL:          0  ACCURACY: -nan
 TIMELY PREFETCHES:          0 LATE PREFETCHES: 0 DROPPED PREFETCHES: 0
STLB AVERAGE MISS LATENCY: 100 cycles
L1D TOTAL     ACCESS: 122133774  HIT: 52878478  MISS: 69255296  HIT %: 43.2955  MISS %: 56.7045  AVERAGE MISS PENALTY: 1.39419e+06
L1D LOAD      ACCESS: 43524396  HIT: 28874266  MISS: 14650130  HIT %: 66.3404  MISS %: 33.6596  AVERAGE MISS PENALTY: 6.5905e+06
L1D RFO       ACCESS: 61546  HIT: 61546  MISS:     0  HIT %:   100  MISS %:     0  AVERAGE MISS PENALTY: 0
L1D PREFETCH  ACCESS: 78547832  HIT: 23942666  MISS: 54605166  HIT %: 30.4816  MISS %: 69.5184  AVERAGE MISS PENALTY: 66.9797
L1D WRITEBACK ACCESS:     0  HIT:     0  MISS:     0  HIT %:     0  MISS %:     0  AVERAGE MISS PENALTY: 0
L1D PREFETCH  REQUESTED: 115466188  ISSUED: 80877875  USEFUL: 1577726  USELESS: 53027451
 USEFUL LOAD PREFETCHES:    1577726 PREFETCH ISSUED TO LOWER LEVEL:  143849328  ACCURACY: 1.09679
 TIMELY PREFETCHES:    1577726 LATE PREFETCHES: 548524 DROPPED PREFETCHES: 34588313
L1D AVERAGE MISS LATENCY: 46.9093 cycles
L1I TOTAL     ACCESS: 41374352  HIT: 41374352  MISS:     0  HIT %:   100  MISS %:     0  AVERAGE MISS PENALTY: 0
L1I LOAD      ACCESS: 41374352  HIT: 41374352  MISS:     0  HIT %:   100  MISS %:     0  AVERAGE MISS PENALTY: 0
L1I RFO       ACCESS:     0  HIT:     0  MISS:     0  HIT %:     0  MISS %:     0  AVERAGE MISS PENALTY: 0
L1I PREFETCH  ACCESS:     0  HIT:     0  MISS:     0  HIT %:     0  MISS %:     0  AVERAGE MISS PENALTY: 0
L1I WRITEBACK ACCESS:     0  HIT:     0  MISS:     0  HIT %:     0  MISS %:     0  AVERAGE MISS PENALTY: 0
L1I PREFETCH  REQUESTED:     0  ISSUED:     0  USEFUL:     0  USELESS:     0
 USEFUL LOAD PREFETCHES:          0 PREFETCH ISSUED TO LOWER LEVEL:          0  ACCURACY: -nan
 TIMELY PREFETCHES:          0 LATE PREFETCHES: 0 DROPPED PREFETCHES: 0
L1I AVERAGE MISS LATENCY: -nan cycles
L2C TOTAL     ACCESS: 125743059  HIT: 24834297  MISS: 100908762  HIT %: 19.75  MISS %: 80.25  AVERAGE MISS PENALTY: 671538
L2C LOAD      ACCESS: 14636047  HIT: 2428011  MISS: 12208036  HIT %: 16.5893  MISS %: 83.4107  AVERAGE MISS PENALTY: 5.55047e+06
L2C RFO       ACCESS:     0  HIT:     0  MISS:     0  HIT %:     0  MISS %:     0  AVERAGE MISS PENALTY: 0
L2C PREFETCH  ACCESS: 111055039  HIT: 22356843  MISS: 88698196  HIT %: 20.1313  MISS %: 79.8687  AVERAGE MISS PENALTY: 41.8445
L2C WRITEBACK ACCESS: 51973  HIT: 49443  MISS:  2530  HIT %: 95.1321  MISS %: 4.86791  AVERAGE MISS PENALTY: 0
L2C PREFETCH  REQUESTED: 247954455  ISSUED: 233029143  USEFUL: 1189937  USELESS: 87508309
 USEFUL LOAD PREFETCHES:    1189937 PREFETCH ISSUED TO LOWER LEVEL:   93536840  ACCURACY: 1.27216
 TIMELY PREFETCHES:    1189937 LATE PREFETCHES: 933777 DROPPED PREFETCHES: 14925312
L2C AVERAGE MISS LATENCY: 39.2548 cycles
LLC0 TOTAL     ACCESS: 12951604  HIT: 12813163  MISS: 138441  HIT %: 98.9311  MISS %: 1.06891  AVERAGE MISS PENALTY: 109.982
LLC0 LOAD      ACCESS: 1538918  HIT: 1521765  MISS: 17153  HIT %: 98.8854  MISS %: 1.11461  AVERAGE MISS PENALTY: 118.689
LLC0 RFO       ACCESS:     0  HIT:     0  MISS:     0  HIT %:     0  MISS %:     0  AVERAGE MISS PENALTY: 0
LLC0 PREFETCH  ACCESS: 11406188  HIT: 11284901  MISS: 121287  HIT %: 98.9367  MISS %: 1.06334  AVERAGE MISS PENALTY: 108.752
LLC0 WRITEBACK ACCESS:  6498  HIT:  6497  MISS:     1  HIT %: 99.9846  MISS %: 0.0153894  AVERAGE MISS PENALTY: 0
LLC0 PREFETCH  REQUESTED:     0  ISSUED:     0  USEFUL: 15257  USELESS: 100350
 USEFUL LOAD PREFETCHES:      15257 PREFETCH ISSUED TO LOWER LEVEL:     121287  ACCURACY: 12.5793
 TIMELY PREFETCHES:      15257 LATE PREFETCHES: 0 DROPPED PREFETCHES: 0
LLC0 AVERAGE MISS LATENCY: 109.982 cycles
Deadblocks : 15039 Deadblock percentage : 87.6756

LLC1 TOTAL     ACCESS: 12956222  HIT: 12818037  MISS: 138185  HIT %: 98.9334  MISS %: 1.06655  AVERAGE MISS PENALTY: 109.879
LLC1 LOAD      ACCESS: 1582134  HIT: 1579898  MISS:  2236  HIT %: 99.8587  MISS %: 0.141328  AVERAGE MISS PENALTY: 170.021
LLC1 RFO       ACCESS:     0  HIT:     0  MISS:     0  HIT %:     0  MISS %:     0  AVERAGE MISS PENALTY: 0
LLC1 PREFETCH  ACCESS: 11367649  HIT: 11231701  MISS: 135948  HIT %: 98.8041  MISS %: 1.19592  AVERAGE MISS PENALTY: 108.891
LLC1 WRITEBACK ACCESS:  6439  HIT:  6438  MISS:     1  HIT %: 99.9845  MISS %: 0.0155304  AVERAGE MISS PENALTY: 0
LLC1 PREFETCH  REQUESTED:     0  ISSUED:     0  USEFUL: 15095  USELESS: 114239
 USEFUL LOAD PREFETCHES:      15095 PREFETCH ISSUED TO LOWER LEVEL:     135948  ACCURACY: 11.1035
 TIMELY PREFETCHES:      15095 LATE PREFETCHES: 0 DROPPED PREFETCHES: 0
LLC1 AVERAGE MISS LATENCY: 109.879 cycles
LLC2 TOTAL     ACCESS: 12865073  HIT: 12726582  MISS: 138491  HIT %: 98.9235  MISS %: 1.07649  AVERAGE MISS PENALTY: 110.927
LLC2 LOAD      ACCESS: 1526319  HIT: 1524293  MISS:  2026  HIT %: 99.8673  MISS %: 0.132738  AVERAGE MISS PENALTY: 177.334
LLC2 RFO       ACCESS:     0  HIT:     0  MISS:     0  HIT %:     0  MISS %:     0  AVERAGE MISS PENALTY: 0
LLC2 PREFETCH  ACCESS: 11332247  HIT: 11195785  MISS: 136462  HIT %: 98.7958  MISS %: 1.20419  AVERAGE MISS PENALTY: 109.944
LLC2 WRITEBACK ACCESS:  6507  HIT:  6504  MISS:     3  HIT %: 99.9539  MISS %: 0.0461042  AVERAGE MISS PENALTY: 0
LLC2 PREFETCH  REQUESTED:     0  ISSUED:     0  USEFUL: 15315  USELESS: 114661
 USEFUL LOAD PREFETCHES:      15315 PREFETCH ISSUED TO LOWER LEVEL:     136462  ACCURACY: 11.2229
 TIMELY PREFETCHES:      15315 LATE PREFETCHES: 0 DROPPED PREFETCHES: 0
LLC2 AVERAGE MISS LATENCY: 110.927 cycles
LLC3 TOTAL     ACCESS: 12779621  HIT: 12641227  MISS: 138394  HIT %: 98.9171  MISS %: 1.08293  AVERAGE MISS PENALTY: 111.238
LLC3 LOAD      ACCESS: 1532060  HIT: 1529978  MISS:  2082  HIT %: 99.8641  MISS %: 0.135895  AVERAGE MISS PENALTY: 177.78
LLC3 RFO       ACCESS:     0  HIT:     0  MISS:     0  HIT %:     0  MISS %:     0  AVERAGE MISS PENALTY: 0
LLC3 PREFETCH  ACCESS: 11241059  HIT: 11104748  MISS: 136311  HIT %: 98.7874  MISS %: 1.21262  AVERAGE MISS PENALTY: 110.223
LLC3 WRITEBACK ACCESS:  6502  HIT:  6501  MISS:     1  HIT %: 99.9846  MISS %: 0.0153799  AVERAGE MISS PENALTY: 0
LLC3 PREFETCH  REQUESTED:     0  ISSUED:     0  USEFUL: 15173  USELESS: 114782
 USEFUL LOAD PREFETCHES:      15173 PREFETCH ISSUED TO LOWER LEVEL:     136311  ACCURACY: 11.1312
 TIMELY PREFETCHES:      15173 LATE PREFETCHES: 0 DROPPED PREFETCHES: 0
LLC3 AVERAGE MISS LATENCY: 111.238 cycles
LLC4 TOTAL     ACCESS: 12627658  HIT: 12489336  MISS: 138322  HIT %: 98.9046  MISS %: 1.09539  AVERAGE MISS PENALTY: 111.489
LLC4 LOAD      ACCESS: 1564422  HIT: 1562316  MISS:  2106  HIT %: 99.8654  MISS %: 0.134618  AVERAGE MISS PENALTY: 177.084
LLC4 RFO       ACCESS:     0  HIT:     0  MISS:     0  HIT %:     0  MISS %:     0  AVERAGE MISS PENALTY: 0
LLC4 PREFETCH  ACCESS: 11056679  HIT: 10920464  MISS: 136215  HIT %: 98.768  MISS %: 1.23197  AVERAGE MISS PENALTY: 110.476
LLC4 WRITEBACK ACCESS:  6557  HIT:  6556  MISS:     1  HIT %: 99.9847  MISS %: 0.0152509  AVERAGE MISS PENALTY: 0
LLC4 PREFETCH  REQUESTED:     0  ISSUED:     0  USEFUL: 14987  USELESS: 114795
 USEFUL LOAD PREFETCHES:      14987 PREFETCH ISSUED TO LOWER LEVEL:     136215  ACCURACY: 11.0025
 TIMELY PREFETCHES:      14987 LATE PREFETCHES: 0 DROPPED PREFETCHES: 0
LLC4 AVERAGE MISS LATENCY: 111.489 cycles
LLC5 TOTAL     ACCESS: 12457025  HIT: 12318972  MISS: 138053  HIT %: 98.8918  MISS %: 1.10823  AVERAGE MISS PENALTY: 111.525
LLC5 LOAD      ACCESS: 1493785  HIT: 1491706  MISS:  2079  HIT %: 99.8608  MISS %: 0.139177  AVERAGE MISS PENALTY: 177.897
LLC5 RFO       ACCESS:     0  HIT:     0  MISS:     0  HIT %:     0  MISS %:     0  AVERAGE MISS PENALTY: 0
LLC5 PREFETCH  ACCESS: 10956814  HIT: 10820841  MISS: 135973  HIT %: 98.759  MISS %: 1.24099  AVERAGE MISS PENALTY: 110.511
LLC5 WRITEBACK ACCESS:  6426  HIT:  6425  MISS:     1  HIT %: 99.9844  MISS %: 0.0155618  AVERAGE MISS PENALTY: 0
LLC5 PREFETCH  REQUESTED:     0  ISSUED:     0  USEFUL: 14797  USELESS: 114732
 USEFUL LOAD PREFETCHES:      14797 PREFETCH ISSUED TO LOWER LEVEL:     135973  ACCURACY: 10.8823
 TIMELY PREFETCHES:      14797 LATE PREFETCHES: 0 DROPPED PREFETCHES: 0
LLC5 AVERAGE MISS LATENCY: 111.525 cycles
LLC6 TOTAL     ACCESS: 12239974  HIT: 12101370  MISS: 138604  HIT %: 98.8676  MISS %: 1.13239  AVERAGE MISS PENALTY: 112.626
LLC6 LOAD      ACCESS: 1454135  HIT: 1451966  MISS:  2169  HIT %: 99.8508  MISS %: 0.149161  AVERAGE MISS PENALTY: 177.012
LLC6 RFO       ACCESS:     0  HIT:     0  MISS:     0  HIT %:     0  MISS %:     0  AVERAGE MISS PENALTY: 0
LLC6 PREFETCH  ACCESS: 10779330  HIT: 10642897  MISS: 136433  HIT %: 98.7343  MISS %: 1.26569  AVERAGE MISS PENALTY: 111.604
LLC6 WRITEBACK ACCESS:  6509  HIT:  6507  MISS:     2  HIT %: 99.9693  MISS %: 0.0307267  AVERAGE MISS PENALTY: 0
LLC6 PREFETCH  REQUESTED:     0  ISSUED:     0  USEFUL: 15234  USELESS: 114750
 USEFUL LOAD PREFETCHES:      15234 PREFETCH ISSUED TO LOWER LEVEL:     136433  ACCURACY: 11.1659
 TIMELY PREFETCHES:      15234 LATE PREFETCHES: 0 DROPPED PREFETCHES: 0
LLC6 AVERAGE MISS LATENCY: 112.626 cycles
LLC7 TOTAL     ACCESS: 12081028  HIT: 11942825  MISS: 138203  HIT %: 98.856  MISS %: 1.14397  AVERAGE MISS PENALTY: 112.405
LLC7 LOAD      ACCESS: 1499094  HIT: 1496776  MISS:  2318  HIT %: 99.8454  MISS %: 0.154627  AVERAGE MISS PENALTY: 177.658
LLC7 RFO       ACCESS:     0  HIT:     0  MISS:     0  HIT %:     0  MISS %:     0  AVERAGE MISS PENALTY: 0
LLC7 PREFETCH  ACCESS: 10575400  HIT: 10439520  MISS: 135880  HIT %: 98.7151  MISS %: 1.28487  AVERAGE MISS PENALTY: 111.296
LLC7 WRITEBACK ACCESS:  6534  HIT:  6529  MISS:     5  HIT %: 99.9235  MISS %: 0.0765228  AVERAGE MISS PENALTY: 0
LLC7 PREFETCH  REQUESTED:     0  ISSUED:     0  USEFUL: 14748  USELESS: 114612
 USEFUL LOAD PREFETCHES:      14748 PREFETCH ISSUED TO LOWER LEVEL:     135880  ACCURACY: 10.8537
 TIMELY PREFETCHES:      14748 LATE PREFETCHES: 0 DROPPED PREFETCHES: 0
LLC7 AVERAGE MISS LATENCY: 112.405 cycles
ROI Average ROB Stall Cycles:	7.21564
ROI Total ROB Stalls Cycles:	622988697
ROI TOTAL ROB counter      :	86338703
ROI Average Load ROB Stall Cycles:	21.7129
ROI Total Load ROB Stalls Cycle  :	163570110
ROI Total Load ROB stalls Counter:	7533303
Major fault: 0 Minor fault: 30934

