
*** ChampSim Multicore Out-of-Order Simulator ***

Warmup Instructions: 200000000
Simulation Instructions: 200000000
Number of CPUs: 1
threads:1

L1I Configuration:
L1I_SET:64
L1I_WAY:8
L1I_RQ_SIZE:64
L1I_WQ_SIZE:64
L1I_PQ_SIZE:8
L1I_MSHR_SIZE:8

L1D Configuration:
L1D_SET:64
L1D_WAY:12
L1D_RQ_SIZE:64
L1D_WQ_SIZE:64
L1D_PQ_SIZE:8
L1D_MSHR_SIZE:16

L2C Configuration:
L2C_SET:1024
L2C_WAY:8
L2C_RQ_SIZE:32
L2C_WQ_SIZE:32
L2C_PQ_SIZE:16
L2C_MSHR_SIZE:32

LLC Configuration:
LLC_SET:2048
LLC_WAY:16
LLC SLICES:8
LLC_RQ_SIZE:64
LLC_WQ_SIZE:64
LLC_PQ_SIZE:32
LLC_MSHR_SIZE:64

Interconnect OFF
Attacker deprioritize is: OFF
Off-chip DRAM Size: 4096 MB Channels: 1 Width: 64-bit Data Rate: 3200 MT/s
PAGE SIZE in KB: 4.000000 
PAGE SIZE in MB: 0.003906 
PAGE offset in bits: 12 
CEASER-S_LLC:0
MIRAGE : 1
CEASER_LATENCY:3
REMAP : OFF
Partitions : 1
Multi-Step : OFF
BFS : OFF

CPU 0 runs /home/anubhav/gap/cc-14.trace.gz
CPU 0 Bimodal branch predictor
Initialize Hawkeye state
Initialize Hawkeye state
Initialize Hawkeye state
Initialize Hawkeye state
Initialize Hawkeye state
Initialize Hawkeye state
Initialize Hawkeye state
Initialize Hawkeye state
Heartbeat CPU 0 instructions: 10000000 cycles: 10746452 heartbeat IPC: 0.93054 cumulative IPC: 0.93054 (Simulation time: 0 hr 1 min 9 sec) 
 Total Blocks : 262144 Invalid Blocks : 164498
Heartbeat CPU 0 instructions: 20000000 cycles: 21381092 heartbeat IPC: 0.940323 cumulative IPC: 0.935406 (Simulation time: 0 hr 2 min 48 sec) 
 Total Blocks : 262144 Invalid Blocks : 130980
Heartbeat CPU 0 instructions: 30000000 cycles: 31233581 heartbeat IPC: 1.01497 cumulative IPC: 0.960505 (Simulation time: 0 hr 4 min 25 sec) 
 Total Blocks : 262144 Invalid Blocks : 104106
Heartbeat CPU 0 instructions: 40000002 cycles: 40708826 heartbeat IPC: 1.05538 cumulative IPC: 0.982588 (Simulation time: 0 hr 6 min 1 sec) 
 Total Blocks : 262144 Invalid Blocks : 82532
Heartbeat CPU 0 instructions: 50000001 cycles: 50108196 heartbeat IPC: 1.0639 cumulative IPC: 0.997841 (Simulation time: 0 hr 7 min 37 sec) 
 Total Blocks : 262144 Invalid Blocks : 65327
Heartbeat CPU 0 instructions: 60000002 cycles: 59340814 heartbeat IPC: 1.08312 cumulative IPC: 1.01111 (Simulation time: 0 hr 9 min 13 sec) 
 Total Blocks : 262144 Invalid Blocks : 51610
Heartbeat CPU 0 instructions: 70000000 cycles: 68515975 heartbeat IPC: 1.0899 cumulative IPC: 1.02166 (Simulation time: 0 hr 10 min 49 sec) 
 Total Blocks : 262144 Invalid Blocks : 40765
Heartbeat CPU 0 instructions: 80000000 cycles: 77934775 heartbeat IPC: 1.06171 cumulative IPC: 1.0265 (Simulation time: 0 hr 12 min 26 sec) 
 Total Blocks : 262144 Invalid Blocks : 32258
Heartbeat CPU 0 instructions: 90000000 cycles: 86903134 heartbeat IPC: 1.11503 cumulative IPC: 1.03564 (Simulation time: 0 hr 14 min 2 sec) 
 Total Blocks : 262144 Invalid Blocks : 25470
Heartbeat CPU 0 instructions: 100000002 cycles: 95922952 heartbeat IPC: 1.10867 cumulative IPC: 1.0425 (Simulation time: 0 hr 15 min 39 sec) 
 Total Blocks : 262144 Invalid Blocks : 20129
Heartbeat CPU 0 instructions: 110000000 cycles: 105147491 heartbeat IPC: 1.08406 cumulative IPC: 1.04615 (Simulation time: 0 hr 17 min 15 sec) 
 Total Blocks : 262144 Invalid Blocks : 15854
Heartbeat CPU 0 instructions: 120000000 cycles: 114501709 heartbeat IPC: 1.06904 cumulative IPC: 1.04802 (Simulation time: 0 hr 18 min 53 sec) 
 Total Blocks : 262144 Invalid Blocks : 12537
Heartbeat CPU 0 instructions: 130000002 cycles: 124048124 heartbeat IPC: 1.04751 cumulative IPC: 1.04798 (Simulation time: 0 hr 20 min 33 sec) 
 Total Blocks : 262144 Invalid Blocks : 9890
Heartbeat CPU 0 instructions: 140000000 cycles: 133226206 heartbeat IPC: 1.08955 cumulative IPC: 1.05084 (Simulation time: 0 hr 22 min 10 sec) 
 Total Blocks : 262144 Invalid Blocks : 7842
Heartbeat CPU 0 instructions: 150000000 cycles: 142167044 heartbeat IPC: 1.11846 cumulative IPC: 1.0551 (Simulation time: 0 hr 23 min 45 sec) 
 Total Blocks : 262144 Invalid Blocks : 6205
Heartbeat CPU 0 instructions: 160000003 cycles: 151279812 heartbeat IPC: 1.09736 cumulative IPC: 1.05764 (Simulation time: 0 hr 25 min 23 sec) 
 Total Blocks : 262144 Invalid Blocks : 4895
Heartbeat CPU 0 instructions: 170000001 cycles: 160776573 heartbeat IPC: 1.05299 cumulative IPC: 1.05737 (Simulation time: 0 hr 27 min 1 sec) 
 Total Blocks : 262144 Invalid Blocks : 3826
Heartbeat CPU 0 instructions: 180000001 cycles: 169943353 heartbeat IPC: 1.0909 cumulative IPC: 1.05918 (Simulation time: 0 hr 28 min 38 sec) 
 Total Blocks : 262144 Invalid Blocks : 3004
Heartbeat CPU 0 instructions: 190000000 cycles: 178903078 heartbeat IPC: 1.11611 cumulative IPC: 1.06203 (Simulation time: 0 hr 30 min 13 sec) 
 Total Blocks : 262144 Invalid Blocks : 2381
Heartbeat CPU 0 instructions: 200000000 cycles: 188182797 heartbeat IPC: 1.07762 cumulative IPC: 1.0628 (Simulation time: 0 hr 31 min 51 sec) 
 Total Blocks : 262144 Invalid Blocks : 1911

Warmup complete CPU 0 instructions: 200000001 cycles: 188182798 (Simulation time: 0 hr 31 min 51 sec) 

Heartbeat CPU 0 instructions: 210000000 cycles: 219356854 heartbeat IPC: 0.32078 cumulative IPC: 0.32078 (Simulation time: 0 hr 34 min 49 sec) 
 Total Blocks : 262144 Invalid Blocks : 1506
Heartbeat CPU 0 instructions: 220000000 cycles: 249813341 heartbeat IPC: 0.328337 cumulative IPC: 0.324514 (Simulation time: 0 hr 37 min 45 sec) 
 Total Blocks : 262144 Invalid Blocks : 1208
Heartbeat CPU 0 instructions: 230000002 cycles: 281816766 heartbeat IPC: 0.312467 cumulative IPC: 0.320397 (Simulation time: 0 hr 40 min 46 sec) 
 Total Blocks : 262144 Invalid Blocks : 928
Heartbeat CPU 0 instructions: 240000002 cycles: 312502465 heartbeat IPC: 0.325885 cumulative IPC: 0.321751 (Simulation time: 0 hr 43 min 45 sec) 
 Total Blocks : 262144 Invalid Blocks : 729
Heartbeat CPU 0 instructions: 250000001 cycles: 343475014 heartbeat IPC: 0.322867 cumulative IPC: 0.321974 (Simulation time: 0 hr 46 min 45 sec) 
 Total Blocks : 262144 Invalid Blocks : 568
Heartbeat CPU 0 instructions: 260000000 cycles: 374597606 heartbeat IPC: 0.32131 cumulative IPC: 0.321863 (Simulation time: 0 hr 49 min 45 sec) 
 Total Blocks : 262144 Invalid Blocks : 452
Heartbeat CPU 0 instructions: 270000001 cycles: 405099437 heartbeat IPC: 0.327849 cumulative IPC: 0.322705 (Simulation time: 0 hr 52 min 45 sec) 
 Total Blocks : 262144 Invalid Blocks : 351
Heartbeat CPU 0 instructions: 280000001 cycles: 436180997 heartbeat IPC: 0.321734 cumulative IPC: 0.322583 (Simulation time: 0 hr 55 min 45 sec) 
 Total Blocks : 262144 Invalid Blocks : 277
Heartbeat CPU 0 instructions: 290000002 cycles: 468453782 heartbeat IPC: 0.309859 cumulative IPC: 0.321118 (Simulation time: 0 hr 58 min 47 sec) 
 Total Blocks : 262144 Invalid Blocks : 219
Heartbeat CPU 0 instructions: 300000002 cycles: 498948020 heartbeat IPC: 0.327931 cumulative IPC: 0.321786 (Simulation time: 1 hr 1 min 43 sec) 
 Total Blocks : 262144 Invalid Blocks : 162
Heartbeat CPU 0 instructions: 310000001 cycles: 527130852 heartbeat IPC: 0.354826 cumulative IPC: 0.324533 (Simulation time: 1 hr 4 min 32 sec) 
 Total Blocks : 262144 Invalid Blocks : 134
Heartbeat CPU 0 instructions: 320000001 cycles: 557699209 heartbeat IPC: 0.327136 cumulative IPC: 0.324749 (Simulation time: 1 hr 7 min 28 sec) 
 Total Blocks : 262144 Invalid Blocks : 105
Heartbeat CPU 0 instructions: 330000000 cycles: 588597307 heartbeat IPC: 0.323644 cumulative IPC: 0.324664 (Simulation time: 1 hr 10 min 29 sec) 
 Total Blocks : 262144 Invalid Blocks : 77
Heartbeat CPU 0 instructions: 340000000 cycles: 619133375 heartbeat IPC: 0.327482 cumulative IPC: 0.324863 (Simulation time: 1 hr 13 min 29 sec) 
 Total Blocks : 262144 Invalid Blocks : 56
Heartbeat CPU 0 instructions: 350000001 cycles: 650191689 heartbeat IPC: 0.321975 cumulative IPC: 0.324669 (Simulation time: 1 hr 16 min 30 sec) 
 Total Blocks : 262144 Invalid Blocks : 49
Heartbeat CPU 0 instructions: 360000000 cycles: 681238417 heartbeat IPC: 0.322095 cumulative IPC: 0.324507 (Simulation time: 1 hr 19 min 29 sec) 
 Total Blocks : 262144 Invalid Blocks : 41
Heartbeat CPU 0 instructions: 370000002 cycles: 711431381 heartbeat IPC: 0.331203 cumulative IPC: 0.324893 (Simulation time: 1 hr 22 min 25 sec) 
 Total Blocks : 262144 Invalid Blocks : 31
Heartbeat CPU 0 instructions: 380000002 cycles: 740930631 heartbeat IPC: 0.338992 cumulative IPC: 0.325646 (Simulation time: 1 hr 25 min 13 sec) 
 Total Blocks : 262144 Invalid Blocks : 24
Heartbeat CPU 0 instructions: 390000003 cycles: 771689369 heartbeat IPC: 0.325111 cumulative IPC: 0.325618 (Simulation time: 1 hr 27 min 58 sec) 
 Total Blocks : 262144 Invalid Blocks : 22
Heartbeat CPU 0 instructions: 400000001 cycles: 801335012 heartbeat IPC: 0.337318 cumulative IPC: 0.326183 (Simulation time: 1 hr 30 min 36 sec) 
 Total Blocks : 262144 Invalid Blocks : 18
Finished CPU 0 instructions: 200000000 cycles: 613152214 cumulative IPC: 0.326183 (Simulation time: 1 hr 30 min 36 sec) 

CPU 0 Branch Prediction Accuracy: 90.7092% MPKI: 18.9196 Average ROB Occupancy at Mispredict: 42.4903

ChampSim completed all CPUs

Region of Interest Statistics

CPU 0 cumulative IPC: 0.326183 instructions: 200000000 cycles: 613152214
ITLB TOTAL     ACCESS: 29130676  HIT: 29130676  MISS:     0  HIT %:   100  MISS %:     0  AVERAGE MISS PENALTY: 0
ITLB LOAD      ACCESS: 29130676  HIT: 29130676  MISS:     0  HIT %:   100  MISS %:     0  AVERAGE MISS PENALTY: 0
ITLB RFO       ACCESS:     0  HIT:     0  MISS:     0  HIT %:     0  MISS %:     0  AVERAGE MISS PENALTY: 0
ITLB PREFETCH  ACCESS:     0  HIT:     0  MISS:     0  HIT %:     0  MISS %:     0  AVERAGE MISS PENALTY: 0
ITLB WRITEBACK ACCESS:     0  HIT:     0  MISS:     0  HIT %:     0  MISS %:     0  AVERAGE MISS PENALTY: 0
ITLB PREFETCH  REQUESTED:     0  ISSUED:     0  USEFUL:     0  USELESS:     0
 USEFUL LOAD PREFETCHES:          0 PREFETCH ISSUED TO LOWER LEVEL:          0  ACCURACY: -nan
 TIMELY PREFETCHES:          0 LATE PREFETCHES: 0 DROPPED PREFETCHES: 0
ITLB AVERAGE MISS LATENCY: -nan cycles
DTLB TOTAL     ACCESS: 45613047  HIT: 35800181  MISS: 9812866  HIT %: 78.4867  MISS %: 21.5133  AVERAGE MISS PENALTY: 9.46181
DTLB LOAD      ACCESS: 45548312  HIT: 35735446  MISS: 9812866  HIT %: 78.4561  MISS %: 21.5439  AVERAGE MISS PENALTY: 9.46181
DTLB RFO       ACCESS: 64735  HIT: 64735  MISS:     0  HIT %:   100  MISS %:     0  AVERAGE MISS PENALTY: 0
DTLB PREFETCH  ACCESS:     0  HIT:     0  MISS:     0  HIT %:     0  MISS %:     0  AVERAGE MISS PENALTY: 0
DTLB WRITEBACK ACCESS:     0  HIT:     0  MISS:     0  HIT %:     0  MISS %:     0  AVERAGE MISS PENALTY: 0
DTLB PREFETCH  REQUESTED:     0  ISSUED:     0  USEFUL:     0  USELESS:     0
 USEFUL LOAD PREFETCHES:          0 PREFETCH ISSUED TO LOWER LEVEL:          0  ACCURACY: -nan
 TIMELY PREFETCHES:          0 LATE PREFETCHES: 0 DROPPED PREFETCHES: 0
DTLB AVERAGE MISS LATENCY: 9.46181 cycles
STLB TOTAL     ACCESS: 9812866  HIT: 9798105  MISS: 14761  HIT %: 99.8496  MISS %: 0.150425  AVERAGE MISS PENALTY: 100
STLB LOAD      ACCESS: 9812866  HIT: 9798105  MISS: 14761  HIT %: 99.8496  MISS %: 0.150425  AVERAGE MISS PENALTY: 100
STLB RFO       ACCESS:     0  HIT:     0  MISS:     0  HIT %:     0  MISS %:     0  AVERAGE MISS PENALTY: 0
STLB PREFETCH  ACCESS:     0  HIT:     0  MISS:     0  HIT %:     0  MISS %:     0  AVERAGE MISS PENALTY: 0
STLB WRITEBACK ACCESS:     0  HIT:     0  MISS:     0  HIT %:     0  MISS %:     0  AVERAGE MISS PENALTY: 0
STLB PREFETCH  REQUESTED:     0  ISSUED:     0  USEFUL:     0  USELESS:     0
 USEFUL LOAD PREFETCHES:          0 PREFETCH ISSUED TO LOWER LEVEL:          0  ACCURACY: -nan
 TIMELY PREFETCHES:          0 LATE PREFETCHES: 0 DROPPED PREFETCHES: 0
STLB AVERAGE MISS LATENCY: 100 cycles
L1D TOTAL     ACCESS: 121009117  HIT: 56891608  MISS: 64117509  HIT %: 47.0143  MISS %: 52.9857  AVERAGE MISS PENALTY: 1.23305e+06
L1D LOAD      ACCESS: 42818190  HIT: 28593144  MISS: 14225046  HIT %: 66.778  MISS %: 33.222  AVERAGE MISS PENALTY: 5.55767e+06
L1D RFO       ACCESS: 64741  HIT: 64741  MISS:     0  HIT %:   100  MISS %:     0  AVERAGE MISS PENALTY: 0
L1D PREFETCH  ACCESS: 78126186  HIT: 28233723  MISS: 49892463  HIT %: 36.1386  MISS %: 63.8614  AVERAGE MISS PENALTY: 44
L1D WRITEBACK ACCESS:     0  HIT:     0  MISS:     0  HIT %:     0  MISS %:     0  AVERAGE MISS PENALTY: 0
L1D PREFETCH  REQUESTED: 120167744  ISSUED: 80805974  USEFUL: 1426826  USELESS: 48465634
 USEFUL LOAD PREFETCHES:    1426826 PREFETCH ISSUED TO LOWER LEVEL:  139199300  ACCURACY: 1.02502
 TIMELY PREFETCHES:    1426826 LATE PREFETCHES: 490987 DROPPED PREFETCHES: 39361770
L1D AVERAGE MISS LATENCY: 44.0712 cycles
L1I TOTAL     ACCESS: 41253833  HIT: 41253833  MISS:     0  HIT %:   100  MISS %:     0  AVERAGE MISS PENALTY: 0
L1I LOAD      ACCESS: 41253833  HIT: 41253833  MISS:     0  HIT %:   100  MISS %:     0  AVERAGE MISS PENALTY: 0
L1I RFO       ACCESS:     0  HIT:     0  MISS:     0  HIT %:     0  MISS %:     0  AVERAGE MISS PENALTY: 0
L1I PREFETCH  ACCESS:     0  HIT:     0  MISS:     0  HIT %:     0  MISS %:     0  AVERAGE MISS PENALTY: 0
L1I WRITEBACK ACCESS:     0  HIT:     0  MISS:     0  HIT %:     0  MISS %:     0  AVERAGE MISS PENALTY: 0
L1I PREFETCH  REQUESTED:     0  ISSUED:     0  USEFUL:     0  USELESS:     0
 USEFUL LOAD PREFETCHES:          0 PREFETCH ISSUED TO LOWER LEVEL:          0  ACCURACY: -nan
 TIMELY PREFETCHES:          0 LATE PREFETCHES: 0 DROPPED PREFETCHES: 0
L1I AVERAGE MISS LATENCY: -nan cycles
L2C TOTAL     ACCESS: 117297907  HIT: 22277934  MISS: 95019973  HIT %: 18.9926  MISS %: 81.0074  AVERAGE MISS PENALTY: 633425
L2C LOAD      ACCESS: 14207052  HIT: 2290486  MISS: 11916566  HIT %: 16.1222  MISS %: 83.8778  AVERAGE MISS PENALTY: 5.05054e+06
L2C RFO       ACCESS:     0  HIT:     0  MISS:     0  HIT %:     0  MISS %:     0  AVERAGE MISS PENALTY: 0
L2C PREFETCH  ACCESS: 103036318  HIT: 19935358  MISS: 83100960  HIT %: 19.3479  MISS %: 80.6521  AVERAGE MISS PENALTY: 35.8553
L2C WRITEBACK ACCESS: 54537  HIT: 52090  MISS:  2447  HIT %: 95.5131  MISS %: 4.48686  AVERAGE MISS PENALTY: 0
L2C PREFETCH  REQUESTED: 226367700  ISSUED: 210608763  USEFUL: 1148473  USELESS: 81952252
 USEFUL LOAD PREFETCHES:    1148473 PREFETCH ISSUED TO LOWER LEVEL:   87515151  ACCURACY: 1.31231
 TIMELY PREFETCHES:    1148473 LATE PREFETCHES: 864625 DROPPED PREFETCHES: 15758937
L2C AVERAGE MISS LATENCY: 35.7263 cycles
LLC0 TOTAL     ACCESS: 12167501  HIT: 12010190  MISS: 157311  HIT %: 98.7071  MISS %: 1.29288  AVERAGE MISS PENALTY: 125.485
LLC0 LOAD      ACCESS: 1514337  HIT: 1494826  MISS: 19511  HIT %: 98.7116  MISS %: 1.28842  AVERAGE MISS PENALTY: 137.498
LLC0 RFO       ACCESS:     0  HIT:     0  MISS:     0  HIT %:     0  MISS %:     0  AVERAGE MISS PENALTY: 0
LLC0 PREFETCH  ACCESS: 10646293  HIT: 10508495  MISS: 137798  HIT %: 98.7057  MISS %: 1.29433  AVERAGE MISS PENALTY: 123.786
LLC0 WRITEBACK ACCESS:  6871  HIT:  6869  MISS:     2  HIT %: 99.9709  MISS %: 0.0291078  AVERAGE MISS PENALTY: 0
LLC0 PREFETCH  REQUESTED:     0  ISSUED:     0  USEFUL: 32272  USELESS: 105182
 USEFUL LOAD PREFETCHES:      32272 PREFETCH ISSUED TO LOWER LEVEL:     137798  ACCURACY: 23.4198
 TIMELY PREFETCHES:      32272 LATE PREFETCHES: 0 DROPPED PREFETCHES: 0
LLC0 AVERAGE MISS LATENCY: 125.485 cycles
Deadblocks : 15019 Deadblock percentage : 76.9771

LLC1 TOTAL     ACCESS: 12151686  HIT: 11994174  MISS: 157512  HIT %: 98.7038  MISS %: 1.29622  AVERAGE MISS PENALTY: 125.784
LLC1 LOAD      ACCESS: 1505321  HIT: 1500256  MISS:  5065  HIT %: 99.6635  MISS %: 0.336473  AVERAGE MISS PENALTY: 170.76
LLC1 RFO       ACCESS:     0  HIT:     0  MISS:     0  HIT %:     0  MISS %:     0  AVERAGE MISS PENALTY: 0
LLC1 PREFETCH  ACCESS: 10639480  HIT: 10487036  MISS: 152444  HIT %: 98.5672  MISS %: 1.43281  AVERAGE MISS PENALTY: 124.292
LLC1 WRITEBACK ACCESS:  6885  HIT:  6882  MISS:     3  HIT %: 99.9564  MISS %: 0.043573  AVERAGE MISS PENALTY: 0
LLC1 PREFETCH  REQUESTED:     0  ISSUED:     0  USEFUL: 32380  USELESS: 119688
 USEFUL LOAD PREFETCHES:      32380 PREFETCH ISSUED TO LOWER LEVEL:     152444  ACCURACY: 21.2406
 TIMELY PREFETCHES:      32380 LATE PREFETCHES: 0 DROPPED PREFETCHES: 0
LLC1 AVERAGE MISS LATENCY: 125.784 cycles
LLC2 TOTAL     ACCESS: 12097132  HIT: 11939911  MISS: 157221  HIT %: 98.7003  MISS %: 1.29966  AVERAGE MISS PENALTY: 126.16
LLC2 LOAD      ACCESS: 1481099  HIT: 1476453  MISS:  4646  HIT %: 99.6863  MISS %: 0.313686  AVERAGE MISS PENALTY: 172.998
LLC2 RFO       ACCESS:     0  HIT:     0  MISS:     0  HIT %:     0  MISS %:     0  AVERAGE MISS PENALTY: 0
LLC2 PREFETCH  ACCESS: 10609145  HIT: 10456576  MISS: 152569  HIT %: 98.5619  MISS %: 1.43809  AVERAGE MISS PENALTY: 124.738
LLC2 WRITEBACK ACCESS:  6888  HIT:  6882  MISS:     6  HIT %: 99.9129  MISS %: 0.087108  AVERAGE MISS PENALTY: 0
LLC2 PREFETCH  REQUESTED:     0  ISSUED:     0  USEFUL: 32343  USELESS: 119981
 USEFUL LOAD PREFETCHES:      32343 PREFETCH ISSUED TO LOWER LEVEL:     152569  ACCURACY: 21.1989
 TIMELY PREFETCHES:      32343 LATE PREFETCHES: 0 DROPPED PREFETCHES: 0
LLC2 AVERAGE MISS LATENCY: 126.16 cycles
LLC3 TOTAL     ACCESS: 12028889  HIT: 11871426  MISS: 157463  HIT %: 98.691  MISS %: 1.30904  AVERAGE MISS PENALTY: 126.894
LLC3 LOAD      ACCESS: 1484739  HIT: 1480023  MISS:  4716  HIT %: 99.6824  MISS %: 0.317632  AVERAGE MISS PENALTY: 174.319
LLC3 RFO       ACCESS:     0  HIT:     0  MISS:     0  HIT %:     0  MISS %:     0  AVERAGE MISS PENALTY: 0
LLC3 PREFETCH  ACCESS: 10537341  HIT: 10384599  MISS: 152742  HIT %: 98.5505  MISS %: 1.44953  AVERAGE MISS PENALTY: 125.434
LLC3 WRITEBACK ACCESS:  6809  HIT:  6804  MISS:     5  HIT %: 99.9266  MISS %: 0.0734322  AVERAGE MISS PENALTY: 0
LLC3 PREFETCH  REQUESTED:     0  ISSUED:     0  USEFUL: 32422  USELESS: 120058
 USEFUL LOAD PREFETCHES:      32422 PREFETCH ISSUED TO LOWER LEVEL:     152742  ACCURACY: 21.2266
 TIMELY PREFETCHES:      32422 LATE PREFETCHES: 0 DROPPED PREFETCHES: 0
LLC3 AVERAGE MISS LATENCY: 126.894 cycles
LLC4 TOTAL     ACCESS: 11911124  HIT: 11753943  MISS: 157181  HIT %: 98.6804  MISS %: 1.31962  AVERAGE MISS PENALTY: 127.007
LLC4 LOAD      ACCESS: 1486174  HIT: 1481479  MISS:  4695  HIT %: 99.6841  MISS %: 0.315912  AVERAGE MISS PENALTY: 173.392
LLC4 RFO       ACCESS:     0  HIT:     0  MISS:     0  HIT %:     0  MISS %:     0  AVERAGE MISS PENALTY: 0
LLC4 PREFETCH  ACCESS: 10418225  HIT: 10265741  MISS: 152484  HIT %: 98.5364  MISS %: 1.46363  AVERAGE MISS PENALTY: 125.581
LLC4 WRITEBACK ACCESS:  6725  HIT:  6723  MISS:     2  HIT %: 99.9703  MISS %: 0.0297398  AVERAGE MISS PENALTY: 0
LLC4 PREFETCH  REQUESTED:     0  ISSUED:     0  USEFUL: 32092  USELESS: 120145
 USEFUL LOAD PREFETCHES:      32092 PREFETCH ISSUED TO LOWER LEVEL:     152484  ACCURACY: 21.0461
 TIMELY PREFETCHES:      32092 LATE PREFETCHES: 0 DROPPED PREFETCHES: 0
LLC4 AVERAGE MISS LATENCY: 127.007 cycles
LLC5 TOTAL     ACCESS: 11767826  HIT: 11610194  MISS: 157632  HIT %: 98.6605  MISS %: 1.33952  AVERAGE MISS PENALTY: 127.279
LLC5 LOAD      ACCESS: 1482573  HIT: 1477651  MISS:  4922  HIT %: 99.668  MISS %: 0.33199  AVERAGE MISS PENALTY: 173.582
LLC5 RFO       ACCESS:     0  HIT:     0  MISS:     0  HIT %:     0  MISS %:     0  AVERAGE MISS PENALTY: 0
LLC5 PREFETCH  ACCESS: 10278484  HIT: 10125781  MISS: 152703  HIT %: 98.5143  MISS %: 1.48566  AVERAGE MISS PENALTY: 125.793
LLC5 WRITEBACK ACCESS:  6769  HIT:  6762  MISS:     7  HIT %: 99.8966  MISS %: 0.103413  AVERAGE MISS PENALTY: 0
LLC5 PREFETCH  REQUESTED:     0  ISSUED:     0  USEFUL: 32239  USELESS: 120200
 USEFUL LOAD PREFETCHES:      32239 PREFETCH ISSUED TO LOWER LEVEL:     152703  ACCURACY: 21.1122
 TIMELY PREFETCHES:      32239 LATE PREFETCHES: 0 DROPPED PREFETCHES: 0
LLC5 AVERAGE MISS LATENCY: 127.279 cycles
LLC6 TOTAL     ACCESS: 11578500  HIT: 11421018  MISS: 157482  HIT %: 98.6399  MISS %: 1.36012  AVERAGE MISS PENALTY: 127.588
LLC6 LOAD      ACCESS: 1477891  HIT: 1472587  MISS:  5304  HIT %: 99.6411  MISS %: 0.35889  AVERAGE MISS PENALTY: 173.127
LLC6 RFO       ACCESS:     0  HIT:     0  MISS:     0  HIT %:     0  MISS %:     0  AVERAGE MISS PENALTY: 0
LLC6 PREFETCH  ACCESS: 10093953  HIT: 9941783  MISS: 152170  HIT %: 98.4925  MISS %: 1.50754  AVERAGE MISS PENALTY: 126.008
LLC6 WRITEBACK ACCESS:  6656  HIT:  6648  MISS:     8  HIT %: 99.8798  MISS %: 0.120192  AVERAGE MISS PENALTY: 0
LLC6 PREFETCH  REQUESTED:     0  ISSUED:     0  USEFUL: 31803  USELESS: 120151
 USEFUL LOAD PREFETCHES:      31803 PREFETCH ISSUED TO LOWER LEVEL:     152170  ACCURACY: 20.8997
 TIMELY PREFETCHES:      31803 LATE PREFETCHES: 0 DROPPED PREFETCHES: 0
LLC6 AVERAGE MISS LATENCY: 127.588 cycles
LLC7 TOTAL     ACCESS: 11369413  HIT: 11212292  MISS: 157121  HIT %: 98.618  MISS %: 1.38196  AVERAGE MISS PENALTY: 127.419
LLC7 LOAD      ACCESS: 1463021  HIT: 1457585  MISS:  5436  HIT %: 99.6284  MISS %: 0.37156  AVERAGE MISS PENALTY: 172.936
LLC7 RFO       ACCESS:     0  HIT:     0  MISS:     0  HIT %:     0  MISS %:     0  AVERAGE MISS PENALTY: 0
LLC7 PREFETCH  ACCESS: 9899449  HIT: 9747769  MISS: 151680  HIT %: 98.4678  MISS %: 1.53221  AVERAGE MISS PENALTY: 125.792
LLC7 WRITEBACK ACCESS:  6943  HIT:  6938  MISS:     5  HIT %: 99.928  MISS %: 0.072015  AVERAGE MISS PENALTY: 0
LLC7 PREFETCH  REQUESTED:     0  ISSUED:     0  USEFUL: 31438  USELESS: 119975
 USEFUL LOAD PREFETCHES:      31438 PREFETCH ISSUED TO LOWER LEVEL:     151680  ACCURACY: 20.7265
 TIMELY PREFETCHES:      31438 LATE PREFETCHES: 0 DROPPED PREFETCHES: 0
LLC7 AVERAGE MISS LATENCY: 127.419 cycles
ROI Average ROB Stall Cycles:	6.48045
ROI Total ROB Stalls Cycles:	516085894
ROI TOTAL ROB counter      :	79637352
ROI Average Load ROB Stall Cycles:	20.1485
ROI Total Load ROB Stalls Cycle  :	135228525
ROI Total Load ROB stalls Counter:	6711596
Major fault: 0 Minor fault: 30182

