
*** ChampSim Multicore Out-of-Order Simulator ***

Warmup Instructions: 200000000
Simulation Instructions: 200000000
Number of CPUs: 1
threads:1

L1I Configuration:
L1I_SET:64
L1I_WAY:8
L1I_RQ_SIZE:64
L1I_WQ_SIZE:64
L1I_PQ_SIZE:8
L1I_MSHR_SIZE:8

L1D Configuration:
L1D_SET:64
L1D_WAY:12
L1D_RQ_SIZE:64
L1D_WQ_SIZE:64
L1D_PQ_SIZE:8
L1D_MSHR_SIZE:16

L2C Configuration:
L2C_SET:1024
L2C_WAY:8
L2C_RQ_SIZE:32
L2C_WQ_SIZE:32
L2C_PQ_SIZE:16
L2C_MSHR_SIZE:32

LLC Configuration:
LLC_SET:2048
LLC_WAY:16
LLC SLICES:8
LLC_RQ_SIZE:64
LLC_WQ_SIZE:64
LLC_PQ_SIZE:32
LLC_MSHR_SIZE:64

Interconnect OFF
Attacker deprioritize is: OFF
Off-chip DRAM Size: 4096 MB Channels: 1 Width: 64-bit Data Rate: 3200 MT/s
PAGE SIZE in KB: 4.000000 
PAGE SIZE in MB: 0.003906 
PAGE offset in bits: 12 
CEASER-S_LLC:0
MIRAGE : 1
CEASER_LATENCY:3
REMAP : OFF
Partitions : 1
Multi-Step : OFF
BFS : OFF

CPU 0 runs /home/anubhav/gap/cc-13.trace.gz
CPU 0 Bimodal branch predictor
Initialize Hawkeye state
Initialize Hawkeye state
Initialize Hawkeye state
Initialize Hawkeye state
Initialize Hawkeye state
Initialize Hawkeye state
Initialize Hawkeye state
Initialize Hawkeye state
Heartbeat CPU 0 instructions: 10000000 cycles: 11660260 heartbeat IPC: 0.857614 cumulative IPC: 0.857614 (Simulation time: 0 hr 1 min 1 sec) 
 Total Blocks : 262144 Invalid Blocks : 166185
Heartbeat CPU 0 instructions: 20000003 cycles: 23970505 heartbeat IPC: 0.812332 cumulative IPC: 0.834359 (Simulation time: 0 hr 2 min 2 sec) 
 Total Blocks : 262144 Invalid Blocks : 132132
Heartbeat CPU 0 instructions: 30000000 cycles: 35254266 heartbeat IPC: 0.886229 cumulative IPC: 0.850961 (Simulation time: 0 hr 3 min 1 sec) 
 Total Blocks : 262144 Invalid Blocks : 104720
Heartbeat CPU 0 instructions: 40000003 cycles: 46225062 heartbeat IPC: 0.911511 cumulative IPC: 0.865332 (Simulation time: 0 hr 4 min 21 sec) 
 Total Blocks : 262144 Invalid Blocks : 81736
Heartbeat CPU 0 instructions: 50000000 cycles: 57374438 heartbeat IPC: 0.896911 cumulative IPC: 0.871468 (Simulation time: 0 hr 6 min 4 sec) 
 Total Blocks : 262144 Invalid Blocks : 64377
Heartbeat CPU 0 instructions: 60000000 cycles: 68926130 heartbeat IPC: 0.865674 cumulative IPC: 0.870497 (Simulation time: 0 hr 7 min 48 sec) 
 Total Blocks : 262144 Invalid Blocks : 50524
Heartbeat CPU 0 instructions: 70000000 cycles: 80009000 heartbeat IPC: 0.902293 cumulative IPC: 0.874902 (Simulation time: 0 hr 9 min 33 sec) 
 Total Blocks : 262144 Invalid Blocks : 39728
Heartbeat CPU 0 instructions: 80000000 cycles: 91136698 heartbeat IPC: 0.898658 cumulative IPC: 0.877802 (Simulation time: 0 hr 11 min 19 sec) 
 Total Blocks : 262144 Invalid Blocks : 31235
Heartbeat CPU 0 instructions: 90000001 cycles: 102352155 heartbeat IPC: 0.891627 cumulative IPC: 0.879317 (Simulation time: 0 hr 13 min 4 sec) 
 Total Blocks : 262144 Invalid Blocks : 24522
Heartbeat CPU 0 instructions: 100000003 cycles: 112913984 heartbeat IPC: 0.946806 cumulative IPC: 0.88563 (Simulation time: 0 hr 14 min 46 sec) 
 Total Blocks : 262144 Invalid Blocks : 19201
Heartbeat CPU 0 instructions: 110000000 cycles: 123413190 heartbeat IPC: 0.952453 cumulative IPC: 0.891315 (Simulation time: 0 hr 16 min 30 sec) 
 Total Blocks : 262144 Invalid Blocks : 14946
Heartbeat CPU 0 instructions: 120000002 cycles: 134032936 heartbeat IPC: 0.941642 cumulative IPC: 0.895302 (Simulation time: 0 hr 18 min 15 sec) 
 Total Blocks : 262144 Invalid Blocks : 11695
Heartbeat CPU 0 instructions: 130000000 cycles: 145160491 heartbeat IPC: 0.89867 cumulative IPC: 0.895561 (Simulation time: 0 hr 20 min 2 sec) 
 Total Blocks : 262144 Invalid Blocks : 9123
Heartbeat CPU 0 instructions: 140000001 cycles: 156143388 heartbeat IPC: 0.910507 cumulative IPC: 0.896612 (Simulation time: 0 hr 21 min 50 sec) 
 Total Blocks : 262144 Invalid Blocks : 7158
Heartbeat CPU 0 instructions: 150000000 cycles: 166182288 heartbeat IPC: 0.996125 cumulative IPC: 0.902623 (Simulation time: 0 hr 23 min 30 sec) 
 Total Blocks : 262144 Invalid Blocks : 5640
Heartbeat CPU 0 instructions: 160000001 cycles: 176877589 heartbeat IPC: 0.93499 cumulative IPC: 0.90458 (Simulation time: 0 hr 25 min 16 sec) 
 Total Blocks : 262144 Invalid Blocks : 4405
Heartbeat CPU 0 instructions: 170000002 cycles: 187701477 heartbeat IPC: 0.923883 cumulative IPC: 0.905693 (Simulation time: 0 hr 27 min 1 sec) 
 Total Blocks : 262144 Invalid Blocks : 3470
Heartbeat CPU 0 instructions: 180000003 cycles: 198491522 heartbeat IPC: 0.92678 cumulative IPC: 0.90684 (Simulation time: 0 hr 28 min 46 sec) 
 Total Blocks : 262144 Invalid Blocks : 2768
Heartbeat CPU 0 instructions: 190000002 cycles: 209178813 heartbeat IPC: 0.935691 cumulative IPC: 0.908314 (Simulation time: 0 hr 30 min 31 sec) 
 Total Blocks : 262144 Invalid Blocks : 2181
Heartbeat CPU 0 instructions: 200000000 cycles: 220047600 heartbeat IPC: 0.920066 cumulative IPC: 0.908894 (Simulation time: 0 hr 32 min 17 sec) 
 Total Blocks : 262144 Invalid Blocks : 1703

Warmup complete CPU 0 instructions: 200000001 cycles: 220047601 (Simulation time: 0 hr 32 min 17 sec) 

Heartbeat CPU 0 instructions: 210000000 cycles: 255197598 heartbeat IPC: 0.284495 cumulative IPC: 0.284495 (Simulation time: 0 hr 35 min 25 sec) 
 Total Blocks : 262144 Invalid Blocks : 1300
Heartbeat CPU 0 instructions: 220000000 cycles: 292113527 heartbeat IPC: 0.270886 cumulative IPC: 0.277524 (Simulation time: 0 hr 38 min 37 sec) 
 Total Blocks : 262144 Invalid Blocks : 1004
Heartbeat CPU 0 instructions: 230000000 cycles: 327502668 heartbeat IPC: 0.282573 cumulative IPC: 0.279186 (Simulation time: 0 hr 41 min 47 sec) 
 Total Blocks : 262144 Invalid Blocks : 781
Heartbeat CPU 0 instructions: 240000000 cycles: 364567134 heartbeat IPC: 0.2698 cumulative IPC: 0.276779 (Simulation time: 0 hr 45 min 3 sec) 
 Total Blocks : 262144 Invalid Blocks : 618
Heartbeat CPU 0 instructions: 250000000 cycles: 400087360 heartbeat IPC: 0.28153 cumulative IPC: 0.277716 (Simulation time: 0 hr 48 min 11 sec) 
 Total Blocks : 262144 Invalid Blocks : 473
Heartbeat CPU 0 instructions: 260000001 cycles: 437592347 heartbeat IPC: 0.266631 cumulative IPC: 0.275805 (Simulation time: 0 hr 51 min 28 sec) 
 Total Blocks : 262144 Invalid Blocks : 364
Heartbeat CPU 0 instructions: 270000000 cycles: 473118436 heartbeat IPC: 0.281483 cumulative IPC: 0.276602 (Simulation time: 0 hr 54 min 39 sec) 
 Total Blocks : 262144 Invalid Blocks : 291
Heartbeat CPU 0 instructions: 280000000 cycles: 510320471 heartbeat IPC: 0.268802 cumulative IPC: 0.275603 (Simulation time: 0 hr 57 min 55 sec) 
 Total Blocks : 262144 Invalid Blocks : 229
Heartbeat CPU 0 instructions: 290000001 cycles: 545612708 heartbeat IPC: 0.283348 cumulative IPC: 0.276442 (Simulation time: 1 hr 1 min 0 sec) 
 Total Blocks : 262144 Invalid Blocks : 178
Heartbeat CPU 0 instructions: 300000001 cycles: 579987073 heartbeat IPC: 0.290914 cumulative IPC: 0.277824 (Simulation time: 1 hr 4 min 3 sec) 
 Total Blocks : 262144 Invalid Blocks : 134
Heartbeat CPU 0 instructions: 310000000 cycles: 615697868 heartbeat IPC: 0.280027 cumulative IPC: 0.278023 (Simulation time: 1 hr 7 min 11 sec) 
 Total Blocks : 262144 Invalid Blocks : 118
Heartbeat CPU 0 instructions: 320000001 cycles: 651866007 heartbeat IPC: 0.276486 cumulative IPC: 0.277895 (Simulation time: 1 hr 10 min 20 sec) 
 Total Blocks : 262144 Invalid Blocks : 98
Heartbeat CPU 0 instructions: 330000000 cycles: 689284112 heartbeat IPC: 0.26725 cumulative IPC: 0.277046 (Simulation time: 1 hr 13 min 34 sec) 
 Total Blocks : 262144 Invalid Blocks : 78
Heartbeat CPU 0 instructions: 340000000 cycles: 725980532 heartbeat IPC: 0.272506 cumulative IPC: 0.276717 (Simulation time: 1 hr 16 min 39 sec) 
 Total Blocks : 262144 Invalid Blocks : 51
Heartbeat CPU 0 instructions: 350000001 cycles: 762214400 heartbeat IPC: 0.275985 cumulative IPC: 0.276668 (Simulation time: 1 hr 19 min 42 sec) 
 Total Blocks : 262144 Invalid Blocks : 44
Heartbeat CPU 0 instructions: 360000000 cycles: 796138426 heartbeat IPC: 0.294776 cumulative IPC: 0.277734 (Simulation time: 1 hr 22 min 37 sec) 
 Total Blocks : 262144 Invalid Blocks : 35
Heartbeat CPU 0 instructions: 370000000 cycles: 833594271 heartbeat IPC: 0.266981 cumulative IPC: 0.277078 (Simulation time: 1 hr 25 min 38 sec) 
 Total Blocks : 262144 Invalid Blocks : 25
Heartbeat CPU 0 instructions: 380000001 cycles: 871381504 heartbeat IPC: 0.26464 cumulative IPC: 0.276356 (Simulation time: 1 hr 28 min 30 sec) 
 Total Blocks : 262144 Invalid Blocks : 17
Heartbeat CPU 0 instructions: 390000002 cycles: 908492554 heartbeat IPC: 0.269462 cumulative IPC: 0.275984 (Simulation time: 1 hr 31 min 19 sec) 
 Total Blocks : 262144 Invalid Blocks : 13
Heartbeat CPU 0 instructions: 400000000 cycles: 943979933 heartbeat IPC: 0.28179 cumulative IPC: 0.276269 (Simulation time: 1 hr 34 min 3 sec) 
 Total Blocks : 262144 Invalid Blocks : 9
Finished CPU 0 instructions: 200000000 cycles: 723932404 cumulative IPC: 0.276269 (Simulation time: 1 hr 34 min 3 sec) 

CPU 0 Branch Prediction Accuracy: 88.2991% MPKI: 24.0126 Average ROB Occupancy at Mispredict: 34.7548

ChampSim completed all CPUs

Region of Interest Statistics

CPU 0 cumulative IPC: 0.276269 instructions: 200000000 cycles: 723932404
ITLB TOTAL     ACCESS: 28393210  HIT: 28393210  MISS:     0  HIT %:   100  MISS %:     0  AVERAGE MISS PENALTY: 0
ITLB LOAD      ACCESS: 28393210  HIT: 28393210  MISS:     0  HIT %:   100  MISS %:     0  AVERAGE MISS PENALTY: 0
ITLB RFO       ACCESS:     0  HIT:     0  MISS:     0  HIT %:     0  MISS %:     0  AVERAGE MISS PENALTY: 0
ITLB PREFETCH  ACCESS:     0  HIT:     0  MISS:     0  HIT %:     0  MISS %:     0  AVERAGE MISS PENALTY: 0
ITLB WRITEBACK ACCESS:     0  HIT:     0  MISS:     0  HIT %:     0  MISS %:     0  AVERAGE MISS PENALTY: 0
ITLB PREFETCH  REQUESTED:     0  ISSUED:     0  USEFUL:     0  USELESS:     0
 USEFUL LOAD PREFETCHES:          0 PREFETCH ISSUED TO LOWER LEVEL:          0  ACCURACY: -nan
 TIMELY PREFETCHES:          0 LATE PREFETCHES: 0 DROPPED PREFETCHES: 0
ITLB AVERAGE MISS LATENCY: -nan cycles
DTLB TOTAL     ACCESS: 46210006  HIT: 36246756  MISS: 9963250  HIT %: 78.4392  MISS %: 21.5608  AVERAGE MISS PENALTY: 9.43606
DTLB LOAD      ACCESS: 46148465  HIT: 36185215  MISS: 9963250  HIT %: 78.4104  MISS %: 21.5896  AVERAGE MISS PENALTY: 9.43606
DTLB RFO       ACCESS: 61541  HIT: 61541  MISS:     0  HIT %:   100  MISS %:     0  AVERAGE MISS PENALTY: 0
DTLB PREFETCH  ACCESS:     0  HIT:     0  MISS:     0  HIT %:     0  MISS %:     0  AVERAGE MISS PENALTY: 0
DTLB WRITEBACK ACCESS:     0  HIT:     0  MISS:     0  HIT %:     0  MISS %:     0  AVERAGE MISS PENALTY: 0
DTLB PREFETCH  REQUESTED:     0  ISSUED:     0  USEFUL:     0  USELESS:     0
 USEFUL LOAD PREFETCHES:          0 PREFETCH ISSUED TO LOWER LEVEL:          0  ACCURACY: -nan
 TIMELY PREFETCHES:          0 LATE PREFETCHES: 0 DROPPED PREFETCHES: 0
DTLB AVERAGE MISS LATENCY: 9.43606 cycles
STLB TOTAL     ACCESS: 9963250  HIT: 9948121  MISS: 15129  HIT %: 99.8482  MISS %: 0.151848  AVERAGE MISS PENALTY: 100
STLB LOAD      ACCESS: 9963250  HIT: 9948121  MISS: 15129  HIT %: 99.8482  MISS %: 0.151848  AVERAGE MISS PENALTY: 100
STLB RFO       ACCESS:     0  HIT:     0  MISS:     0  HIT %:     0  MISS %:     0  AVERAGE MISS PENALTY: 0
STLB PREFETCH  ACCESS:     0  HIT:     0  MISS:     0  HIT %:     0  MISS %:     0  AVERAGE MISS PENALTY: 0
STLB WRITEBACK ACCESS:     0  HIT:     0  MISS:     0  HIT %:     0  MISS %:     0  AVERAGE MISS PENALTY: 0
STLB PREFETCH  REQUESTED:     0  ISSUED:     0  USEFUL:     0  USELESS:     0
 USEFUL LOAD PREFETCHES:          0 PREFETCH ISSUED TO LOWER LEVEL:          0  ACCURACY: -nan
 TIMELY PREFETCHES:          0 LATE PREFETCHES: 0 DROPPED PREFETCHES: 0
STLB AVERAGE MISS LATENCY: 100 cycles
L1D TOTAL     ACCESS: 122314287  HIT: 52990292  MISS: 69323995  HIT %: 43.3231  MISS %: 56.6769  AVERAGE MISS PENALTY: 1.3683e+06
L1D LOAD      ACCESS: 43530594  HIT: 28882287  MISS: 14648307  HIT %: 66.3494  MISS %: 33.6506  AVERAGE MISS PENALTY: 6.47534e+06
L1D RFO       ACCESS: 61546  HIT: 61546  MISS:     0  HIT %:   100  MISS %:     0  AVERAGE MISS PENALTY: 0
L1D PREFETCH  ACCESS: 78722147  HIT: 24046459  MISS: 54675688  HIT %: 30.546  MISS %: 69.454  AVERAGE MISS PENALTY: 64.1757
L1D WRITEBACK ACCESS:     0  HIT:     0  MISS:     0  HIT %:     0  MISS %:     0  AVERAGE MISS PENALTY: 0
L1D PREFETCH  REQUESTED: 115468291  ISSUED: 81056895  USEFUL: 1580022  USELESS: 53095677
 USEFUL LOAD PREFETCHES:    1580022 PREFETCH ISSUED TO LOWER LEVEL:  135306959  ACCURACY: 1.16773
 TIMELY PREFETCHES:    1580022 LATE PREFETCHES: 548348 DROPPED PREFETCHES: 34411396
L1D AVERAGE MISS LATENCY: 44.0691 cycles
L1I TOTAL     ACCESS: 41276602  HIT: 41276602  MISS:     0  HIT %:   100  MISS %:     0  AVERAGE MISS PENALTY: 0
L1I LOAD      ACCESS: 41276602  HIT: 41276602  MISS:     0  HIT %:   100  MISS %:     0  AVERAGE MISS PENALTY: 0
L1I RFO       ACCESS:     0  HIT:     0  MISS:     0  HIT %:     0  MISS %:     0  AVERAGE MISS PENALTY: 0
L1I PREFETCH  ACCESS:     0  HIT:     0  MISS:     0  HIT %:     0  MISS %:     0  AVERAGE MISS PENALTY: 0
L1I WRITEBACK ACCESS:     0  HIT:     0  MISS:     0  HIT %:     0  MISS %:     0  AVERAGE MISS PENALTY: 0
L1I PREFETCH  REQUESTED:     0  ISSUED:     0  USEFUL:     0  USELESS:     0
 USEFUL LOAD PREFETCHES:          0 PREFETCH ISSUED TO LOWER LEVEL:          0  ACCURACY: -nan
 TIMELY PREFETCHES:          0 LATE PREFETCHES: 0 DROPPED PREFETCHES: 0
L1I AVERAGE MISS LATENCY: -nan cycles
L2C TOTAL     ACCESS: 125852508  HIT: 24856004  MISS: 100996504  HIT %: 19.7501  MISS %: 80.2499  AVERAGE MISS PENALTY: 629339
L2C LOAD      ACCESS: 14632370  HIT: 2427550  MISS: 12204820  HIT %: 16.5903  MISS %: 83.4097  AVERAGE MISS PENALTY: 5.20759e+06
L2C RFO       ACCESS:     0  HIT:     0  MISS:     0  HIT %:     0  MISS %:     0  AVERAGE MISS PENALTY: 0
L2C PREFETCH  ACCESS: 111168165  HIT: 22379029  MISS: 88789136  HIT %: 20.1308  MISS %: 79.8692  AVERAGE MISS PENALTY: 38.2384
L2C WRITEBACK ACCESS: 51973  HIT: 49425  MISS:  2548  HIT %: 95.0975  MISS %: 4.90255  AVERAGE MISS PENALTY: 0
L2C PREFETCH  REQUESTED: 248602181  ISSUED: 233667190  USEFUL: 1190631  USELESS: 87598550
 USEFUL LOAD PREFETCHES:    1190631 PREFETCH ISSUED TO LOWER LEVEL:   92909121  ACCURACY: 1.2815
 TIMELY PREFETCHES:    1190631 LATE PREFETCHES: 925861 DROPPED PREFETCHES: 14934991
L2C AVERAGE MISS LATENCY: 35.6425 cycles
LLC0 TOTAL     ACCESS: 12963676  HIT: 12802773  MISS: 160903  HIT %: 98.7588  MISS %: 1.24118  AVERAGE MISS PENALTY: 124.795
LLC0 LOAD      ACCESS: 1538054  HIT: 1518371  MISS: 19683  HIT %: 98.7203  MISS %: 1.27973  AVERAGE MISS PENALTY: 136.66
LLC0 RFO       ACCESS:     0  HIT:     0  MISS:     0  HIT %:     0  MISS %:     0  AVERAGE MISS PENALTY: 0
LLC0 PREFETCH  ACCESS: 11419124  HIT: 11277910  MISS: 141214  HIT %: 98.7634  MISS %: 1.23664  AVERAGE MISS PENALTY: 123.147
LLC0 WRITEBACK ACCESS:  6498  HIT:  6492  MISS:     6  HIT %: 99.9077  MISS %: 0.0923361  AVERAGE MISS PENALTY: 0
LLC0 PREFETCH  REQUESTED:     0  ISSUED:     0  USEFUL: 33032  USELESS: 108070
 USEFUL LOAD PREFETCHES:      33032 PREFETCH ISSUED TO LOWER LEVEL:     141214  ACCURACY: 23.3914
 TIMELY PREFETCHES:      33032 LATE PREFETCHES: 0 DROPPED PREFETCHES: 0
LLC0 AVERAGE MISS LATENCY: 124.795 cycles
Deadblocks : 15080 Deadblock percentage : 76.6143

LLC1 TOTAL     ACCESS: 12964747  HIT: 12803639  MISS: 161108  HIT %: 98.7573  MISS %: 1.24266  AVERAGE MISS PENALTY: 125.184
LLC1 LOAD      ACCESS: 1581555  HIT: 1576574  MISS:  4981  HIT %: 99.6851  MISS %: 0.314943  AVERAGE MISS PENALTY: 170.45
LLC1 RFO       ACCESS:     0  HIT:     0  MISS:     0  HIT %:     0  MISS %:     0  AVERAGE MISS PENALTY: 0
LLC1 PREFETCH  ACCESS: 11376753  HIT: 11220630  MISS: 156123  HIT %: 98.6277  MISS %: 1.3723  AVERAGE MISS PENALTY: 123.743
LLC1 WRITEBACK ACCESS:  6439  HIT:  6435  MISS:     4  HIT %: 99.9379  MISS %: 0.0621214  AVERAGE MISS PENALTY: 0
LLC1 PREFETCH  REQUESTED:     0  ISSUED:     0  USEFUL: 33090  USELESS: 122777
 USEFUL LOAD PREFETCHES:      33090 PREFETCH ISSUED TO LOWER LEVEL:     156123  ACCURACY: 21.1948
 TIMELY PREFETCHES:      33090 LATE PREFETCHES: 0 DROPPED PREFETCHES: 0
LLC1 AVERAGE MISS LATENCY: 125.184 cycles
LLC2 TOTAL     ACCESS: 12873781  HIT: 12712676  MISS: 161105  HIT %: 98.7486  MISS %: 1.25142  AVERAGE MISS PENALTY: 125.765
LLC2 LOAD      ACCESS: 1525512  HIT: 1520781  MISS:  4731  HIT %: 99.6899  MISS %: 0.310125  AVERAGE MISS PENALTY: 173.314
LLC2 RFO       ACCESS:     0  HIT:     0  MISS:     0  HIT %:     0  MISS %:     0  AVERAGE MISS PENALTY: 0
LLC2 PREFETCH  ACCESS: 11341762  HIT: 11185390  MISS: 156372  HIT %: 98.6213  MISS %: 1.37873  AVERAGE MISS PENALTY: 124.328
LLC2 WRITEBACK ACCESS:  6507  HIT:  6505  MISS:     2  HIT %: 99.9693  MISS %: 0.0307361  AVERAGE MISS PENALTY: 0
LLC2 PREFETCH  REQUESTED:     0  ISSUED:     0  USEFUL: 33025  USELESS: 123067
 USEFUL LOAD PREFETCHES:      33025 PREFETCH ISSUED TO LOWER LEVEL:     156372  ACCURACY: 21.1195
 TIMELY PREFETCHES:      33025 LATE PREFETCHES: 0 DROPPED PREFETCHES: 0
LLC2 AVERAGE MISS LATENCY: 125.765 cycles
LLC3 TOTAL     ACCESS: 12791554  HIT: 12630525  MISS: 161029  HIT %: 98.7411  MISS %: 1.25887  AVERAGE MISS PENALTY: 126.26
LLC3 LOAD      ACCESS: 1531391  HIT: 1526742  MISS:  4649  HIT %: 99.6964  MISS %: 0.30358  AVERAGE MISS PENALTY: 173.032
LLC3 RFO       ACCESS:     0  HIT:     0  MISS:     0  HIT %:     0  MISS %:     0  AVERAGE MISS PENALTY: 0
LLC3 PREFETCH  ACCESS: 11253661  HIT: 11097284  MISS: 156377  HIT %: 98.6104  MISS %: 1.38957  AVERAGE MISS PENALTY: 124.872
LLC3 WRITEBACK ACCESS:  6502  HIT:  6499  MISS:     3  HIT %: 99.9539  MISS %: 0.0461396  AVERAGE MISS PENALTY: 0
LLC3 PREFETCH  REQUESTED:     0  ISSUED:     0  USEFUL: 33256  USELESS: 122998
 USEFUL LOAD PREFETCHES:      33256 PREFETCH ISSUED TO LOWER LEVEL:     156377  ACCURACY: 21.2666
 TIMELY PREFETCHES:      33256 LATE PREFETCHES: 0 DROPPED PREFETCHES: 0
LLC3 AVERAGE MISS LATENCY: 126.26 cycles
LLC4 TOTAL     ACCESS: 12638548  HIT: 12477166  MISS: 161382  HIT %: 98.7231  MISS %: 1.2769  AVERAGE MISS PENALTY: 126.788
LLC4 LOAD      ACCESS: 1563462  HIT: 1558704  MISS:  4758  HIT %: 99.6957  MISS %: 0.304325  AVERAGE MISS PENALTY: 172.435
LLC4 RFO       ACCESS:     0  HIT:     0  MISS:     0  HIT %:     0  MISS %:     0  AVERAGE MISS PENALTY: 0
LLC4 PREFETCH  ACCESS: 11068529  HIT: 10911910  MISS: 156619  HIT %: 98.585  MISS %: 1.41499  AVERAGE MISS PENALTY: 125.405
LLC4 WRITEBACK ACCESS:  6557  HIT:  6552  MISS:     5  HIT %: 99.9237  MISS %: 0.0762544  AVERAGE MISS PENALTY: 0
LLC4 PREFETCH  REQUESTED:     0  ISSUED:     0  USEFUL: 33078  USELESS: 123202
 USEFUL LOAD PREFETCHES:      33078 PREFETCH ISSUED TO LOWER LEVEL:     156619  ACCURACY: 21.12
 TIMELY PREFETCHES:      33078 LATE PREFETCHES: 0 DROPPED PREFETCHES: 0
LLC4 AVERAGE MISS LATENCY: 126.788 cycles
LLC5 TOTAL     ACCESS: 12468886  HIT: 12308167  MISS: 160719  HIT %: 98.711  MISS %: 1.28896  AVERAGE MISS PENALTY: 126.38
LLC5 LOAD      ACCESS: 1492875  HIT: 1488101  MISS:  4774  HIT %: 99.6802  MISS %: 0.319786  AVERAGE MISS PENALTY: 172.91
LLC5 RFO       ACCESS:     0  HIT:     0  MISS:     0  HIT %:     0  MISS %:     0  AVERAGE MISS PENALTY: 0
LLC5 PREFETCH  ACCESS: 10969585  HIT: 10813649  MISS: 155936  HIT %: 98.5785  MISS %: 1.42153  AVERAGE MISS PENALTY: 124.963
LLC5 WRITEBACK ACCESS:  6426  HIT:  6417  MISS:     9  HIT %: 99.8599  MISS %: 0.140056  AVERAGE MISS PENALTY: 0
LLC5 PREFETCH  REQUESTED:     0  ISSUED:     0  USEFUL: 32608  USELESS: 123109
 USEFUL LOAD PREFETCHES:      32608 PREFETCH ISSUED TO LOWER LEVEL:     155936  ACCURACY: 20.9111
 TIMELY PREFETCHES:      32608 LATE PREFETCHES: 0 DROPPED PREFETCHES: 0
LLC5 AVERAGE MISS LATENCY: 126.38 cycles
LLC6 TOTAL     ACCESS: 12252165  HIT: 12091320  MISS: 160845  HIT %: 98.6872  MISS %: 1.31279  AVERAGE MISS PENALTY: 126.805
LLC6 LOAD      ACCESS: 1453169  HIT: 1448136  MISS:  5033  HIT %: 99.6537  MISS %: 0.346347  AVERAGE MISS PENALTY: 172.887
LLC6 RFO       ACCESS:     0  HIT:     0  MISS:     0  HIT %:     0  MISS %:     0  AVERAGE MISS PENALTY: 0
LLC6 PREFETCH  ACCESS: 10792487  HIT: 10636684  MISS: 155803  HIT %: 98.5564  MISS %: 1.44362  AVERAGE MISS PENALTY: 125.324
LLC6 WRITEBACK ACCESS:  6509  HIT:  6500  MISS:     9  HIT %: 99.8617  MISS %: 0.13827  AVERAGE MISS PENALTY: 0
LLC6 PREFETCH  REQUESTED:     0  ISSUED:     0  USEFUL: 32516  USELESS: 123088
 USEFUL LOAD PREFETCHES:      32516 PREFETCH ISSUED TO LOWER LEVEL:     155803  ACCURACY: 20.8699
 TIMELY PREFETCHES:      32516 LATE PREFETCHES: 0 DROPPED PREFETCHES: 0
LLC6 AVERAGE MISS LATENCY: 126.805 cycles
LLC7 TOTAL     ACCESS: 12092570  HIT: 11931622  MISS: 160948  HIT %: 98.669  MISS %: 1.33097  AVERAGE MISS PENALTY: 127.101
LLC7 LOAD      ACCESS: 1498084  HIT: 1492636  MISS:  5448  HIT %: 99.6363  MISS %: 0.363665  AVERAGE MISS PENALTY: 172.984
LLC7 RFO       ACCESS:     0  HIT:     0  MISS:     0  HIT %:     0  MISS %:     0  AVERAGE MISS PENALTY: 0
LLC7 PREFETCH  ACCESS: 10587952  HIT: 10432458  MISS: 155494  HIT %: 98.5314  MISS %: 1.46859  AVERAGE MISS PENALTY: 125.499
LLC7 WRITEBACK ACCESS:  6534  HIT:  6528  MISS:     6  HIT %: 99.9082  MISS %: 0.0918274  AVERAGE MISS PENALTY: 0
LLC7 PREFETCH  REQUESTED:     0  ISSUED:     0  USEFUL: 32287  USELESS: 123032
 USEFUL LOAD PREFETCHES:      32287 PREFETCH ISSUED TO LOWER LEVEL:     155494  ACCURACY: 20.7641
 TIMELY PREFETCHES:      32287 LATE PREFETCHES: 0 DROPPED PREFETCHES: 0
LLC7 AVERAGE MISS LATENCY: 127.101 cycles
ROI Average ROB Stall Cycles:	7.05178
ROI Total ROB Stalls Cycles:	607095438
ROI TOTAL ROB counter      :	86091120
ROI Average Load ROB Stall Cycles:	21.0987
ROI Total Load ROB Stalls Cycle  :	158089033
ROI Total Load ROB stalls Counter:	7492817
Major fault: 0 Minor fault: 30934

