
*** ChampSim Multicore Out-of-Order Simulator ***

Warmup Instructions: 200000000
Simulation Instructions: 200000000
Number of CPUs: 1
threads:1

L1I Configuration:
L1I_SET:64
L1I_WAY:8
L1I_RQ_SIZE:64
L1I_WQ_SIZE:64
L1I_PQ_SIZE:8
L1I_MSHR_SIZE:8

L1D Configuration:
L1D_SET:64
L1D_WAY:12
L1D_RQ_SIZE:64
L1D_WQ_SIZE:64
L1D_PQ_SIZE:8
L1D_MSHR_SIZE:16

L2C Configuration:
L2C_SET:1024
L2C_WAY:8
L2C_RQ_SIZE:32
L2C_WQ_SIZE:32
L2C_PQ_SIZE:16
L2C_MSHR_SIZE:32

LLC Configuration:
LLC_SET:2048
LLC_WAY:16
LLC SLICES:8
LLC_RQ_SIZE:64
LLC_WQ_SIZE:64
LLC_PQ_SIZE:32
LLC_MSHR_SIZE:64

Interconnect OFF
Attacker deprioritize is: OFF
Off-chip DRAM Size: 4096 MB Channels: 1 Width: 64-bit Data Rate: 3200 MT/s
PAGE SIZE in KB: 4.000000 
PAGE SIZE in MB: 0.003906 
PAGE offset in bits: 12 
CEASER-S_LLC:0
MIRAGE : 1
CEASER_LATENCY:3
REMAP : OFF
Partitions : 1
Multi-Step : OFF
BFS : OFF

CPU 0 runs /home/anubhav/gap/cc-6.trace.gz
CPU 0 Bimodal branch predictor
Initialize Hawkeye state
Initialize Hawkeye state
Initialize Hawkeye state
Initialize Hawkeye state
Initialize Hawkeye state
Initialize Hawkeye state
Initialize Hawkeye state
Initialize Hawkeye state
Heartbeat CPU 0 instructions: 10000002 cycles: 12034376 heartbeat IPC: 0.830953 cumulative IPC: 0.830953 (Simulation time: 0 hr 1 min 0 sec) 
 Total Blocks : 262144 Invalid Blocks : 165367
Heartbeat CPU 0 instructions: 20000002 cycles: 25089676 heartbeat IPC: 0.765972 cumulative IPC: 0.797141 (Simulation time: 0 hr 2 min 3 sec) 
 Total Blocks : 262144 Invalid Blocks : 129872
Heartbeat CPU 0 instructions: 30000001 cycles: 37715368 heartbeat IPC: 0.792036 cumulative IPC: 0.795432 (Simulation time: 0 hr 3 min 5 sec) 
 Total Blocks : 262144 Invalid Blocks : 101355
Heartbeat CPU 0 instructions: 40000000 cycles: 49667275 heartbeat IPC: 0.836686 cumulative IPC: 0.805359 (Simulation time: 0 hr 4 min 7 sec) 
 Total Blocks : 262144 Invalid Blocks : 79319
Heartbeat CPU 0 instructions: 50000000 cycles: 61559848 heartbeat IPC: 0.840861 cumulative IPC: 0.812218 (Simulation time: 0 hr 5 min 9 sec) 
 Total Blocks : 262144 Invalid Blocks : 61735
Heartbeat CPU 0 instructions: 60000000 cycles: 73038039 heartbeat IPC: 0.871217 cumulative IPC: 0.82149 (Simulation time: 0 hr 6 min 11 sec) 
 Total Blocks : 262144 Invalid Blocks : 47822
Heartbeat CPU 0 instructions: 70000002 cycles: 85092993 heartbeat IPC: 0.829535 cumulative IPC: 0.822629 (Simulation time: 0 hr 7 min 14 sec) 
 Total Blocks : 262144 Invalid Blocks : 37226
Heartbeat CPU 0 instructions: 80000002 cycles: 97255932 heartbeat IPC: 0.82217 cumulative IPC: 0.822572 (Simulation time: 0 hr 8 min 49 sec) 
 Total Blocks : 262144 Invalid Blocks : 28376
Heartbeat CPU 0 instructions: 90000002 cycles: 108923367 heartbeat IPC: 0.857086 cumulative IPC: 0.826269 (Simulation time: 0 hr 10 min 34 sec) 
 Total Blocks : 262144 Invalid Blocks : 21850
Heartbeat CPU 0 instructions: 100000001 cycles: 120518432 heartbeat IPC: 0.862436 cumulative IPC: 0.829749 (Simulation time: 0 hr 12 min 20 sec) 
 Total Blocks : 262144 Invalid Blocks : 16858
Heartbeat CPU 0 instructions: 110000000 cycles: 132052446 heartbeat IPC: 0.867001 cumulative IPC: 0.833002 (Simulation time: 0 hr 14 min 7 sec) 
 Total Blocks : 262144 Invalid Blocks : 13046
Heartbeat CPU 0 instructions: 120000000 cycles: 144031180 heartbeat IPC: 0.834813 cumulative IPC: 0.833153 (Simulation time: 0 hr 15 min 54 sec) 
 Total Blocks : 262144 Invalid Blocks : 10074
Heartbeat CPU 0 instructions: 130000000 cycles: 156306737 heartbeat IPC: 0.814627 cumulative IPC: 0.831698 (Simulation time: 0 hr 17 min 41 sec) 
 Total Blocks : 262144 Invalid Blocks : 7694
Heartbeat CPU 0 instructions: 140000001 cycles: 168556539 heartbeat IPC: 0.81634 cumulative IPC: 0.830582 (Simulation time: 0 hr 19 min 33 sec) 
 Total Blocks : 262144 Invalid Blocks : 5905
Heartbeat CPU 0 instructions: 150000002 cycles: 180060821 heartbeat IPC: 0.869242 cumulative IPC: 0.833052 (Simulation time: 0 hr 21 min 25 sec) 
 Total Blocks : 262144 Invalid Blocks : 4491
Heartbeat CPU 0 instructions: 160000000 cycles: 192142257 heartbeat IPC: 0.827716 cumulative IPC: 0.832716 (Simulation time: 0 hr 23 min 13 sec) 
 Total Blocks : 262144 Invalid Blocks : 3484
Heartbeat CPU 0 instructions: 170000001 cycles: 203396926 heartbeat IPC: 0.88852 cumulative IPC: 0.835804 (Simulation time: 0 hr 24 min 59 sec) 
 Total Blocks : 262144 Invalid Blocks : 2629
Heartbeat CPU 0 instructions: 180000002 cycles: 215342411 heartbeat IPC: 0.837136 cumulative IPC: 0.835878 (Simulation time: 0 hr 26 min 47 sec) 
 Total Blocks : 262144 Invalid Blocks : 2003
Heartbeat CPU 0 instructions: 190000002 cycles: 227452714 heartbeat IPC: 0.825743 cumulative IPC: 0.835338 (Simulation time: 0 hr 28 min 36 sec) 
 Total Blocks : 262144 Invalid Blocks : 1509
Heartbeat CPU 0 instructions: 200000000 cycles: 239156800 heartbeat IPC: 0.854402 cumulative IPC: 0.836271 (Simulation time: 0 hr 30 min 22 sec) 
 Total Blocks : 262144 Invalid Blocks : 1175

Warmup complete CPU 0 instructions: 200000002 cycles: 239156801 (Simulation time: 0 hr 30 min 22 sec) 

Heartbeat CPU 0 instructions: 210000001 cycles: 278519739 heartbeat IPC: 0.254046 cumulative IPC: 0.254046 (Simulation time: 0 hr 33 min 42 sec) 
 Total Blocks : 262144 Invalid Blocks : 929
Heartbeat CPU 0 instructions: 220000000 cycles: 318262071 heartbeat IPC: 0.251621 cumulative IPC: 0.252828 (Simulation time: 0 hr 37 min 3 sec) 
 Total Blocks : 262144 Invalid Blocks : 710
Heartbeat CPU 0 instructions: 230000000 cycles: 357966237 heartbeat IPC: 0.251863 cumulative IPC: 0.252505 (Simulation time: 0 hr 40 min 23 sec) 
 Total Blocks : 262144 Invalid Blocks : 521
Heartbeat CPU 0 instructions: 240000000 cycles: 397922215 heartbeat IPC: 0.250275 cumulative IPC: 0.251944 (Simulation time: 0 hr 43 min 47 sec) 
 Total Blocks : 262144 Invalid Blocks : 408
Heartbeat CPU 0 instructions: 250000003 cycles: 438025728 heartbeat IPC: 0.249355 cumulative IPC: 0.251422 (Simulation time: 0 hr 47 min 13 sec) 
 Total Blocks : 262144 Invalid Blocks : 327
Heartbeat CPU 0 instructions: 260000000 cycles: 478967871 heartbeat IPC: 0.244247 cumulative IPC: 0.250197 (Simulation time: 0 hr 50 min 46 sec) 
 Total Blocks : 262144 Invalid Blocks : 237
Heartbeat CPU 0 instructions: 270000001 cycles: 519238950 heartbeat IPC: 0.248317 cumulative IPC: 0.249927 (Simulation time: 0 hr 54 min 14 sec) 
 Total Blocks : 262144 Invalid Blocks : 174
Heartbeat CPU 0 instructions: 280000000 cycles: 558421880 heartbeat IPC: 0.255213 cumulative IPC: 0.250575 (Simulation time: 0 hr 57 min 35 sec) 
 Total Blocks : 262144 Invalid Blocks : 130
Heartbeat CPU 0 instructions: 290000002 cycles: 596379307 heartbeat IPC: 0.263453 cumulative IPC: 0.251944 (Simulation time: 1 hr 0 min 52 sec) 
 Total Blocks : 262144 Invalid Blocks : 101
Heartbeat CPU 0 instructions: 300000002 cycles: 635927803 heartbeat IPC: 0.252854 cumulative IPC: 0.252035 (Simulation time: 1 hr 4 min 12 sec) 
 Total Blocks : 262144 Invalid Blocks : 72
Heartbeat CPU 0 instructions: 310000000 cycles: 675165219 heartbeat IPC: 0.254859 cumulative IPC: 0.252289 (Simulation time: 1 hr 7 min 33 sec) 
 Total Blocks : 262144 Invalid Blocks : 53
Heartbeat CPU 0 instructions: 320000000 cycles: 715278867 heartbeat IPC: 0.249292 cumulative IPC: 0.252036 (Simulation time: 1 hr 10 min 55 sec) 
 Total Blocks : 262144 Invalid Blocks : 37
Heartbeat CPU 0 instructions: 330000000 cycles: 755718753 heartbeat IPC: 0.247281 cumulative IPC: 0.251664 (Simulation time: 1 hr 14 min 18 sec) 
 Total Blocks : 262144 Invalid Blocks : 22
Heartbeat CPU 0 instructions: 340000000 cycles: 795427361 heartbeat IPC: 0.251835 cumulative IPC: 0.251676 (Simulation time: 1 hr 17 min 38 sec) 
 Total Blocks : 262144 Invalid Blocks : 12
Heartbeat CPU 0 instructions: 350000000 cycles: 835665694 heartbeat IPC: 0.248519 cumulative IPC: 0.251463 (Simulation time: 1 hr 20 min 55 sec) 
 Total Blocks : 262144 Invalid Blocks : 7
Heartbeat CPU 0 instructions: 360000000 cycles: 874974740 heartbeat IPC: 0.254394 cumulative IPC: 0.251644 (Simulation time: 1 hr 24 min 7 sec) 
 Total Blocks : 262144 Invalid Blocks : 5
Heartbeat CPU 0 instructions: 370000000 cycles: 913999541 heartbeat IPC: 0.256247 cumulative IPC: 0.251911 (Simulation time: 1 hr 27 min 11 sec) 
 Total Blocks : 262144 Invalid Blocks : 4
Heartbeat CPU 0 instructions: 380000002 cycles: 953740979 heartbeat IPC: 0.251627 cumulative IPC: 0.251895 (Simulation time: 1 hr 30 min 10 sec) 
 Total Blocks : 262144 Invalid Blocks : 3
Heartbeat CPU 0 instructions: 390000001 cycles: 993993794 heartbeat IPC: 0.24843 cumulative IPC: 0.25171 (Simulation time: 1 hr 33 min 5 sec) 
 Total Blocks : 262144 Invalid Blocks : 3
Heartbeat CPU 0 instructions: 400000002 cycles: 1033424294 heartbeat IPC: 0.253611 cumulative IPC: 0.251804 (Simulation time: 1 hr 35 min 56 sec) 
 Total Blocks : 262144 Invalid Blocks : 3
Finished CPU 0 instructions: 200000000 cycles: 794267493 cumulative IPC: 0.251804 (Simulation time: 1 hr 35 min 56 sec) 

CPU 0 Branch Prediction Accuracy: 86.6516% MPKI: 28.072 Average ROB Occupancy at Mispredict: 29.4791

ChampSim completed all CPUs

Region of Interest Statistics

CPU 0 cumulative IPC: 0.251804 instructions: 200000000 cycles: 794267493
ITLB TOTAL     ACCESS: 29842548  HIT: 29842548  MISS:     0  HIT %:   100  MISS %:     0  AVERAGE MISS PENALTY: 0
ITLB LOAD      ACCESS: 29842548  HIT: 29842548  MISS:     0  HIT %:   100  MISS %:     0  AVERAGE MISS PENALTY: 0
ITLB RFO       ACCESS:     0  HIT:     0  MISS:     0  HIT %:     0  MISS %:     0  AVERAGE MISS PENALTY: 0
ITLB PREFETCH  ACCESS:     0  HIT:     0  MISS:     0  HIT %:     0  MISS %:     0  AVERAGE MISS PENALTY: 0
ITLB WRITEBACK ACCESS:     0  HIT:     0  MISS:     0  HIT %:     0  MISS %:     0  AVERAGE MISS PENALTY: 0
ITLB PREFETCH  REQUESTED:     0  ISSUED:     0  USEFUL:     0  USELESS:     0
 USEFUL LOAD PREFETCHES:          0 PREFETCH ISSUED TO LOWER LEVEL:          0  ACCURACY: -nan
 TIMELY PREFETCHES:          0 LATE PREFETCHES: 0 DROPPED PREFETCHES: 0
ITLB AVERAGE MISS LATENCY: -nan cycles
DTLB TOTAL     ACCESS: 48519889  HIT: 37702026  MISS: 10817863  HIT %: 77.7043  MISS %: 22.2957  AVERAGE MISS PENALTY: 9.46497
DTLB LOAD      ACCESS: 48465113  HIT: 37647250  MISS: 10817863  HIT %: 77.6791  MISS %: 22.3209  AVERAGE MISS PENALTY: 9.46497
DTLB RFO       ACCESS: 54776  HIT: 54776  MISS:     0  HIT %:   100  MISS %:     0  AVERAGE MISS PENALTY: 0
DTLB PREFETCH  ACCESS:     0  HIT:     0  MISS:     0  HIT %:     0  MISS %:     0  AVERAGE MISS PENALTY: 0
DTLB WRITEBACK ACCESS:     0  HIT:     0  MISS:     0  HIT %:     0  MISS %:     0  AVERAGE MISS PENALTY: 0
DTLB PREFETCH  REQUESTED:     0  ISSUED:     0  USEFUL:     0  USELESS:     0
 USEFUL LOAD PREFETCHES:          0 PREFETCH ISSUED TO LOWER LEVEL:          0  ACCURACY: -nan
 TIMELY PREFETCHES:          0 LATE PREFETCHES: 0 DROPPED PREFETCHES: 0
DTLB AVERAGE MISS LATENCY: 9.46497 cycles
STLB TOTAL     ACCESS: 10817863  HIT: 10801504  MISS: 16359  HIT %: 99.8488  MISS %: 0.151222  AVERAGE MISS PENALTY: 100
STLB LOAD      ACCESS: 10817863  HIT: 10801504  MISS: 16359  HIT %: 99.8488  MISS %: 0.151222  AVERAGE MISS PENALTY: 100
STLB RFO       ACCESS:     0  HIT:     0  MISS:     0  HIT %:     0  MISS %:     0  AVERAGE MISS PENALTY: 0
STLB PREFETCH  ACCESS:     0  HIT:     0  MISS:     0  HIT %:     0  MISS %:     0  AVERAGE MISS PENALTY: 0
STLB WRITEBACK ACCESS:     0  HIT:     0  MISS:     0  HIT %:     0  MISS %:     0  AVERAGE MISS PENALTY: 0
STLB PREFETCH  REQUESTED:     0  ISSUED:     0  USEFUL:     0  USELESS:     0
 USEFUL LOAD PREFETCHES:          0 PREFETCH ISSUED TO LOWER LEVEL:          0  ACCURACY: -nan
 TIMELY PREFETCHES:          0 LATE PREFETCHES: 0 DROPPED PREFETCHES: 0
STLB AVERAGE MISS LATENCY: 100 cycles
L1D TOTAL     ACCESS: 104501656  HIT: 33113657  MISS: 71387999  HIT %: 31.6872  MISS %: 68.3128  AVERAGE MISS PENALTY: 594182
L1D LOAD      ACCESS: 44849769  HIT: 28701418  MISS: 16148351  HIT %: 63.9946  MISS %: 36.0054  AVERAGE MISS PENALTY: 2.62642e+06
L1D RFO       ACCESS: 54782  HIT: 54782  MISS:     0  HIT %:   100  MISS %:     0  AVERAGE MISS PENALTY: 0
L1D PREFETCH  ACCESS: 59597105  HIT: 4357457  MISS: 55239648  HIT %: 7.31152  MISS %: 92.6885  AVERAGE MISS PENALTY: 92.8329
L1D WRITEBACK ACCESS:     0  HIT:     0  MISS:     0  HIT %:     0  MISS %:     0  AVERAGE MISS PENALTY: 0
L1D PREFETCH  REQUESTED: 90641814  ISSUED: 61133084  USEFUL: 1699915  USELESS: 53539749
 USEFUL LOAD PREFETCHES:    1699915 PREFETCH ISSUED TO LOWER LEVEL:  134038242  ACCURACY: 1.26823
 TIMELY PREFETCHES:    1699915 LATE PREFETCHES: 402854 DROPPED PREFETCHES: 29508730
L1D AVERAGE MISS LATENCY: 44.8034 cycles
L1I TOTAL     ACCESS: 43770344  HIT: 43770344  MISS:     0  HIT %:   100  MISS %:     0  AVERAGE MISS PENALTY: 0
L1I LOAD      ACCESS: 43770344  HIT: 43770344  MISS:     0  HIT %:   100  MISS %:     0  AVERAGE MISS PENALTY: 0
L1I RFO       ACCESS:     0  HIT:     0  MISS:     0  HIT %:     0  MISS %:     0  AVERAGE MISS PENALTY: 0
L1I PREFETCH  ACCESS:     0  HIT:     0  MISS:     0  HIT %:     0  MISS %:     0  AVERAGE MISS PENALTY: 0
L1I WRITEBACK ACCESS:     0  HIT:     0  MISS:     0  HIT %:     0  MISS %:     0  AVERAGE MISS PENALTY: 0
L1I PREFETCH  REQUESTED:     0  ISSUED:     0  USEFUL:     0  USELESS:     0
 USEFUL LOAD PREFETCHES:          0 PREFETCH ISSUED TO LOWER LEVEL:          0  ACCURACY: -nan
 TIMELY PREFETCHES:          0 LATE PREFETCHES: 0 DROPPED PREFETCHES: 0
L1I AVERAGE MISS LATENCY: -nan cycles
L2C TOTAL     ACCESS: 128839532  HIT: 21526273  MISS: 107313259  HIT %: 16.7078  MISS %: 83.2922  AVERAGE MISS PENALTY: 233100
L2C LOAD      ACCESS: 16144815  HIT: 3018389  MISS: 13126426  HIT %: 18.6957  MISS %: 81.3043  AVERAGE MISS PENALTY: 1.90538e+06
L2C RFO       ACCESS:     0  HIT:     0  MISS:     0  HIT %:     0  MISS %:     0  AVERAGE MISS PENALTY: 0
L2C PREFETCH  ACCESS: 112647941  HIT: 18463156  MISS: 94184785  HIT %: 16.3901  MISS %: 83.6099  AVERAGE MISS PENALTY: 40.8644
L2C WRITEBACK ACCESS: 46776  HIT: 44728  MISS:  2048  HIT %: 95.6217  MISS %: 4.37831  AVERAGE MISS PENALTY: 0
L2C PREFETCH  REQUESTED: 251388703  ISSUED: 235246216  USEFUL: 1301381  USELESS: 92883428
 USEFUL LOAD PREFETCHES:    1301381 PREFETCH ISSUED TO LOWER LEVEL:   97638672  ACCURACY: 1.33285
 TIMELY PREFETCHES:    1301381 LATE PREFETCHES: 717693 DROPPED PREFETCHES: 16142487
L2C AVERAGE MISS LATENCY: 35.66 cycles
LLC0 TOTAL     ACCESS: 13719674  HIT: 13545282  MISS: 174392  HIT %: 98.7289  MISS %: 1.27111  AVERAGE MISS PENALTY: 124.475
LLC0 LOAD      ACCESS: 1685098  HIT: 1663749  MISS: 21349  HIT %: 98.7331  MISS %: 1.26693  AVERAGE MISS PENALTY: 136.215
LLC0 RFO       ACCESS:     0  HIT:     0  MISS:     0  HIT %:     0  MISS %:     0  AVERAGE MISS PENALTY: 0
LLC0 PREFETCH  ACCESS: 12028777  HIT: 11875738  MISS: 153039  HIT %: 98.7277  MISS %: 1.27227  AVERAGE MISS PENALTY: 122.841
LLC0 WRITEBACK ACCESS:  5799  HIT:  5795  MISS:     4  HIT %: 99.931  MISS %: 0.0689774  AVERAGE MISS PENALTY: 0
LLC0 PREFETCH  REQUESTED:     0  ISSUED:     0  USEFUL: 36050  USELESS: 116899
 USEFUL LOAD PREFETCHES:      36050 PREFETCH ISSUED TO LOWER LEVEL:     153039  ACCURACY: 23.5561
 TIMELY PREFETCHES:      36050 LATE PREFETCHES: 0 DROPPED PREFETCHES: 0
LLC0 AVERAGE MISS LATENCY: 124.475 cycles
Deadblocks : 16282 Deadblock percentage : 76.2659

LLC1 TOTAL     ACCESS: 13675438  HIT: 13501334  MISS: 174104  HIT %: 98.7269  MISS %: 1.27311  AVERAGE MISS PENALTY: 124.589
LLC1 LOAD      ACCESS: 1604656  HIT: 1599638  MISS:  5018  HIT %: 99.6873  MISS %: 0.312715  AVERAGE MISS PENALTY: 171.157
LLC1 RFO       ACCESS:     0  HIT:     0  MISS:     0  HIT %:     0  MISS %:     0  AVERAGE MISS PENALTY: 0
LLC1 PREFETCH  ACCESS: 12064941  HIT: 11895861  MISS: 169080  HIT %: 98.5986  MISS %: 1.40142  AVERAGE MISS PENALTY: 123.212
LLC1 WRITEBACK ACCESS:  5841  HIT:  5835  MISS:     6  HIT %: 99.8973  MISS %: 0.102722  AVERAGE MISS PENALTY: 0
LLC1 PREFETCH  REQUESTED:     0  ISSUED:     0  USEFUL: 35817  USELESS: 133137
 USEFUL LOAD PREFETCHES:      35817 PREFETCH ISSUED TO LOWER LEVEL:     169080  ACCURACY: 21.1835
 TIMELY PREFETCHES:      35817 LATE PREFETCHES: 0 DROPPED PREFETCHES: 0
LLC1 AVERAGE MISS LATENCY: 124.589 cycles
LLC2 TOTAL     ACCESS: 13669038  HIT: 13494935  MISS: 174103  HIT %: 98.7263  MISS %: 1.2737  AVERAGE MISS PENALTY: 125.195
LLC2 LOAD      ACCESS: 1677362  HIT: 1672344  MISS:  5018  HIT %: 99.7008  MISS %: 0.29916  AVERAGE MISS PENALTY: 172.961
LLC2 RFO       ACCESS:     0  HIT:     0  MISS:     0  HIT %:     0  MISS %:     0  AVERAGE MISS PENALTY: 0
LLC2 PREFETCH  ACCESS: 11985840  HIT: 11816762  MISS: 169078  HIT %: 98.5894  MISS %: 1.41065  AVERAGE MISS PENALTY: 123.782
LLC2 WRITEBACK ACCESS:  5836  HIT:  5829  MISS:     7  HIT %: 99.8801  MISS %: 0.119945  AVERAGE MISS PENALTY: 0
LLC2 PREFETCH  REQUESTED:     0  ISSUED:     0  USEFUL: 35568  USELESS: 133328
 USEFUL LOAD PREFETCHES:      35568 PREFETCH ISSUED TO LOWER LEVEL:     169078  ACCURACY: 21.0364
 TIMELY PREFETCHES:      35568 LATE PREFETCHES: 0 DROPPED PREFETCHES: 0
LLC2 AVERAGE MISS LATENCY: 125.195 cycles
LLC3 TOTAL     ACCESS: 13554655  HIT: 13380449  MISS: 174206  HIT %: 98.7148  MISS %: 1.28521  AVERAGE MISS PENALTY: 125.87
LLC3 LOAD      ACCESS: 1580666  HIT: 1575859  MISS:  4807  HIT %: 99.6959  MISS %: 0.304112  AVERAGE MISS PENALTY: 173.001
LLC3 RFO       ACCESS:     0  HIT:     0  MISS:     0  HIT %:     0  MISS %:     0  AVERAGE MISS PENALTY: 0
LLC3 PREFETCH  ACCESS: 11968101  HIT: 11798710  MISS: 169391  HIT %: 98.5846  MISS %: 1.41535  AVERAGE MISS PENALTY: 124.539
LLC3 WRITEBACK ACCESS:  5888  HIT:  5880  MISS:     8  HIT %: 99.8641  MISS %: 0.13587  AVERAGE MISS PENALTY: 0
LLC3 PREFETCH  REQUESTED:     0  ISSUED:     0  USEFUL: 35894  USELESS: 133295
 USEFUL LOAD PREFETCHES:      35894 PREFETCH ISSUED TO LOWER LEVEL:     169391  ACCURACY: 21.19
 TIMELY PREFETCHES:      35894 LATE PREFETCHES: 0 DROPPED PREFETCHES: 0
LLC3 AVERAGE MISS LATENCY: 125.87 cycles
LLC4 TOTAL     ACCESS: 13477355  HIT: 13303898  MISS: 173457  HIT %: 98.713  MISS %: 1.28703  AVERAGE MISS PENALTY: 125.5
LLC4 LOAD      ACCESS: 1657373  HIT: 1652282  MISS:  5091  HIT %: 99.6928  MISS %: 0.307173  AVERAGE MISS PENALTY: 173.224
LLC4 RFO       ACCESS:     0  HIT:     0  MISS:     0  HIT %:     0  MISS %:     0  AVERAGE MISS PENALTY: 0
LLC4 PREFETCH  ACCESS: 11814076  HIT: 11645711  MISS: 168365  HIT %: 98.5749  MISS %: 1.42512  AVERAGE MISS PENALTY: 124.057
LLC4 WRITEBACK ACCESS:  5906  HIT:  5905  MISS:     1  HIT %: 99.9831  MISS %: 0.0169319  AVERAGE MISS PENALTY: 0
LLC4 PREFETCH  REQUESTED:     0  ISSUED:     0  USEFUL: 35155  USELESS: 133137
 USEFUL LOAD PREFETCHES:      35155 PREFETCH ISSUED TO LOWER LEVEL:     168365  ACCURACY: 20.8802
 TIMELY PREFETCHES:      35155 LATE PREFETCHES: 0 DROPPED PREFETCHES: 0
LLC4 AVERAGE MISS LATENCY: 125.5 cycles
LLC5 TOTAL     ACCESS: 13318317  HIT: 13144006  MISS: 174311  HIT %: 98.6912  MISS %: 1.30881  AVERAGE MISS PENALTY: 126.019
LLC5 LOAD      ACCESS: 1662798  HIT: 1657526  MISS:  5272  HIT %: 99.6829  MISS %: 0.317056  AVERAGE MISS PENALTY: 173.137
LLC5 RFO       ACCESS:     0  HIT:     0  MISS:     0  HIT %:     0  MISS %:     0  AVERAGE MISS PENALTY: 0
LLC5 PREFETCH  ACCESS: 11649634  HIT: 11480597  MISS: 169037  HIT %: 98.549  MISS %: 1.45101  AVERAGE MISS PENALTY: 124.551
LLC5 WRITEBACK ACCESS:  5885  HIT:  5883  MISS:     2  HIT %: 99.966  MISS %: 0.0339847  AVERAGE MISS PENALTY: 0
LLC5 PREFETCH  REQUESTED:     0  ISSUED:     0  USEFUL: 35650  USELESS: 133302
 USEFUL LOAD PREFETCHES:      35650 PREFETCH ISSUED TO LOWER LEVEL:     169037  ACCURACY: 21.0901
 TIMELY PREFETCHES:      35650 LATE PREFETCHES: 0 DROPPED PREFETCHES: 0
LLC5 AVERAGE MISS LATENCY: 126.019 cycles
LLC6 TOTAL     ACCESS: 13084554  HIT: 12910259  MISS: 174295  HIT %: 98.6679  MISS %: 1.33207  AVERAGE MISS PENALTY: 126.571
LLC6 LOAD      ACCESS: 1587057  HIT: 1581693  MISS:  5364  HIT %: 99.662  MISS %: 0.337984  AVERAGE MISS PENALTY: 173.399
LLC6 RFO       ACCESS:     0  HIT:     0  MISS:     0  HIT %:     0  MISS %:     0  AVERAGE MISS PENALTY: 0
LLC6 PREFETCH  ACCESS: 11491641  HIT: 11322719  MISS: 168922  HIT %: 98.53  MISS %: 1.46996  AVERAGE MISS PENALTY: 125.09
LLC6 WRITEBACK ACCESS:  5856  HIT:  5847  MISS:     9  HIT %: 99.8463  MISS %: 0.153689  AVERAGE MISS PENALTY: 0
LLC6 PREFETCH  REQUESTED:     0  ISSUED:     0  USEFUL: 35538  USELESS: 133301
 USEFUL LOAD PREFETCHES:      35538 PREFETCH ISSUED TO LOWER LEVEL:     168922  ACCURACY: 21.0381
 TIMELY PREFETCHES:      35538 LATE PREFETCHES: 0 DROPPED PREFETCHES: 0
LLC6 AVERAGE MISS LATENCY: 126.571 cycles
LLC7 TOTAL     ACCESS: 12858958  HIT: 12685014  MISS: 173944  HIT %: 98.6473  MISS %: 1.35271  AVERAGE MISS PENALTY: 126.478
LLC7 LOAD      ACCESS: 1663539  HIT: 1657718  MISS:  5821  HIT %: 99.6501  MISS %: 0.349917  AVERAGE MISS PENALTY: 173.035
LLC7 RFO       ACCESS:     0  HIT:     0  MISS:     0  HIT %:     0  MISS %:     0  AVERAGE MISS PENALTY: 0
LLC7 PREFETCH  ACCESS: 11189651  HIT: 11021534  MISS: 168117  HIT %: 98.4976  MISS %: 1.50243  AVERAGE MISS PENALTY: 124.871
LLC7 WRITEBACK ACCESS:  5768  HIT:  5762  MISS:     6  HIT %: 99.896  MISS %: 0.104022  AVERAGE MISS PENALTY: 0
LLC7 PREFETCH  REQUESTED:     0  ISSUED:     0  USEFUL: 34837  USELESS: 133136
 USEFUL LOAD PREFETCHES:      34837 PREFETCH ISSUED TO LOWER LEVEL:     168117  ACCURACY: 20.7219
 TIMELY PREFETCHES:      34837 LATE PREFETCHES: 0 DROPPED PREFETCHES: 0
LLC7 AVERAGE MISS LATENCY: 126.478 cycles
ROI Average ROB Stall Cycles:	7.36969
ROI Total ROB Stalls Cycles:	661813627
ROI TOTAL ROB counter      :	89802124
ROI Average Load ROB Stall Cycles:	25.7036
ROI Total Load ROB Stalls Cycle  :	217519571
ROI Total Load ROB stalls Counter:	8462601
Major fault: 0 Minor fault: 33133

