
*** ChampSim Multicore Out-of-Order Simulator ***

Warmup Instructions: 200000000
Simulation Instructions: 200000000
Number of CPUs: 1
threads:1

L1I Configuration:
L1I_SET:64
L1I_WAY:8
L1I_RQ_SIZE:64
L1I_WQ_SIZE:64
L1I_PQ_SIZE:8
L1I_MSHR_SIZE:8

L1D Configuration:
L1D_SET:64
L1D_WAY:12
L1D_RQ_SIZE:64
L1D_WQ_SIZE:64
L1D_PQ_SIZE:8
L1D_MSHR_SIZE:16

L2C Configuration:
L2C_SET:1024
L2C_WAY:8
L2C_RQ_SIZE:32
L2C_WQ_SIZE:32
L2C_PQ_SIZE:16
L2C_MSHR_SIZE:32

LLC Configuration:
LLC_SET:2048
LLC_WAY:16
LLC SLICES:8
LLC_RQ_SIZE:64
LLC_WQ_SIZE:64
LLC_PQ_SIZE:32
LLC_MSHR_SIZE:64

Interconnect OFF
Attacker deprioritize is: OFF
Off-chip DRAM Size: 4096 MB Channels: 1 Width: 64-bit Data Rate: 3200 MT/s
PAGE SIZE in KB: 4.000000 
PAGE SIZE in MB: 0.003906 
PAGE offset in bits: 12 
CEASER-S_LLC:0
MIRAGE : 1
CEASER_LATENCY:3
REMAP : OFF
Partitions : 1
Multi-Step : OFF
BFS : OFF

CPU 0 runs /home/anubhav/gap/pr-14.trace.gz
CPU 0 Bimodal branch predictor
Initialize Hawkeye state
Initialize Hawkeye state
Initialize Hawkeye state
Initialize Hawkeye state
Initialize Hawkeye state
Initialize Hawkeye state
Initialize Hawkeye state
Initialize Hawkeye state
Heartbeat CPU 0 instructions: 10000001 cycles: 3863802 heartbeat IPC: 2.58812 cumulative IPC: 2.58812 (Simulation time: 0 hr 1 min 6 sec) 
 Total Blocks : 262144 Invalid Blocks : 109170
Heartbeat CPU 0 instructions: 20000000 cycles: 13248042 heartbeat IPC: 1.06562 cumulative IPC: 1.50966 (Simulation time: 0 hr 3 min 33 sec) 
 Total Blocks : 262144 Invalid Blocks : 51284
Heartbeat CPU 0 instructions: 30000002 cycles: 23859036 heartbeat IPC: 0.942419 cumulative IPC: 1.25739 (Simulation time: 0 hr 6 min 31 sec) 
 Total Blocks : 262144 Invalid Blocks : 27621
Heartbeat CPU 0 instructions: 40000002 cycles: 34395182 heartbeat IPC: 0.949114 cumulative IPC: 1.16295 (Simulation time: 0 hr 9 min 32 sec) 
 Total Blocks : 262144 Invalid Blocks : 14876
Heartbeat CPU 0 instructions: 50000003 cycles: 44941162 heartbeat IPC: 0.948229 cumulative IPC: 1.11257 (Simulation time: 0 hr 12 min 35 sec) 
 Total Blocks : 262144 Invalid Blocks : 7942
Heartbeat CPU 0 instructions: 60000000 cycles: 55513491 heartbeat IPC: 0.945865 cumulative IPC: 1.08082 (Simulation time: 0 hr 15 min 38 sec) 
 Total Blocks : 262144 Invalid Blocks : 4306
Heartbeat CPU 0 instructions: 70000000 cycles: 66049319 heartbeat IPC: 0.949142 cumulative IPC: 1.05981 (Simulation time: 0 hr 18 min 42 sec) 
 Total Blocks : 262144 Invalid Blocks : 2294
Heartbeat CPU 0 instructions: 80000000 cycles: 76643935 heartbeat IPC: 0.943876 cumulative IPC: 1.04379 (Simulation time: 0 hr 21 min 49 sec) 
 Total Blocks : 262144 Invalid Blocks : 1219
Heartbeat CPU 0 instructions: 90000003 cycles: 87225860 heartbeat IPC: 0.945008 cumulative IPC: 1.0318 (Simulation time: 0 hr 24 min 56 sec) 
 Total Blocks : 262144 Invalid Blocks : 681
Heartbeat CPU 0 instructions: 100000000 cycles: 97717273 heartbeat IPC: 0.95316 cumulative IPC: 1.02336 (Simulation time: 0 hr 28 min 2 sec) 
 Total Blocks : 262144 Invalid Blocks : 380
Heartbeat CPU 0 instructions: 110000000 cycles: 108357365 heartbeat IPC: 0.939842 cumulative IPC: 1.01516 (Simulation time: 0 hr 31 min 12 sec) 
 Total Blocks : 262144 Invalid Blocks : 199
Heartbeat CPU 0 instructions: 120000000 cycles: 118920748 heartbeat IPC: 0.946666 cumulative IPC: 1.00908 (Simulation time: 0 hr 34 min 21 sec) 
 Total Blocks : 262144 Invalid Blocks : 110
Heartbeat CPU 0 instructions: 130000003 cycles: 129474928 heartbeat IPC: 0.947492 cumulative IPC: 1.00406 (Simulation time: 0 hr 37 min 31 sec) 
 Total Blocks : 262144 Invalid Blocks : 56
Heartbeat CPU 0 instructions: 140000001 cycles: 139974949 heartbeat IPC: 0.952379 cumulative IPC: 1.00018 (Simulation time: 0 hr 40 min 43 sec) 
 Total Blocks : 262144 Invalid Blocks : 38
Heartbeat CPU 0 instructions: 150000000 cycles: 150540751 heartbeat IPC: 0.94645 cumulative IPC: 0.996408 (Simulation time: 0 hr 43 min 56 sec) 
 Total Blocks : 262144 Invalid Blocks : 21
Heartbeat CPU 0 instructions: 160000000 cycles: 161070283 heartbeat IPC: 0.94971 cumulative IPC: 0.993355 (Simulation time: 0 hr 47 min 11 sec) 
 Total Blocks : 262144 Invalid Blocks : 10
Heartbeat CPU 0 instructions: 170000002 cycles: 171718425 heartbeat IPC: 0.939131 cumulative IPC: 0.989993 (Simulation time: 0 hr 50 min 29 sec) 
 Total Blocks : 262144 Invalid Blocks : 7
Heartbeat CPU 0 instructions: 180000000 cycles: 182272098 heartbeat IPC: 0.947537 cumulative IPC: 0.987535 (Simulation time: 0 hr 53 min 49 sec) 
 Total Blocks : 262144 Invalid Blocks : 6
Heartbeat CPU 0 instructions: 190000003 cycles: 190722669 heartbeat IPC: 1.18335 cumulative IPC: 0.996211 (Simulation time: 0 hr 56 min 27 sec) 
 Total Blocks : 262144 Invalid Blocks : 4
Heartbeat CPU 0 instructions: 200000001 cycles: 195571786 heartbeat IPC: 2.06223 cumulative IPC: 1.02264 (Simulation time: 0 hr 57 min 45 sec) 
 Total Blocks : 262144 Invalid Blocks : 1

Warmup complete CPU 0 instructions: 200000001 cycles: 195571786 (Simulation time: 0 hr 57 min 45 sec) 

Heartbeat CPU 0 instructions: 210000000 cycles: 314460999 heartbeat IPC: 0.0841119 cumulative IPC: 0.0841119 (Simulation time: 1 hr 8 min 3 sec) 
 Total Blocks : 262144 Invalid Blocks : 1
Heartbeat CPU 0 instructions: 220000000 cycles: 432961466 heartbeat IPC: 0.0843879 cumulative IPC: 0.0842497 (Simulation time: 1 hr 18 min 8 sec) 
 Total Blocks : 262144 Invalid Blocks : 0
Heartbeat CPU 0 instructions: 230000000 cycles: 551735479 heartbeat IPC: 0.0841935 cumulative IPC: 0.0842309 (Simulation time: 1 hr 27 min 43 sec) 
 Total Blocks : 262144 Invalid Blocks : 0
Heartbeat CPU 0 instructions: 240000001 cycles: 669110039 heartbeat IPC: 0.0851973 cumulative IPC: 0.0844705 (Simulation time: 1 hr 36 min 21 sec) 
 Total Blocks : 262144 Invalid Blocks : 0
Heartbeat CPU 0 instructions: 250000002 cycles: 788564453 heartbeat IPC: 0.0837139 cumulative IPC: 0.0843181 (Simulation time: 1 hr 44 min 31 sec) 
 Total Blocks : 262144 Invalid Blocks : 0
Heartbeat CPU 0 instructions: 260000002 cycles: 906646231 heartbeat IPC: 0.0846871 cumulative IPC: 0.0843794 (Simulation time: 1 hr 52 min 30 sec) 
 Total Blocks : 262144 Invalid Blocks : 0
Heartbeat CPU 0 instructions: 270000003 cycles: 1025814935 heartbeat IPC: 0.0839147 cumulative IPC: 0.0843127 (Simulation time: 2 hr 0 min 31 sec) 
 Total Blocks : 262144 Invalid Blocks : 0
Heartbeat CPU 0 instructions: 280000000 cycles: 1143557792 heartbeat IPC: 0.0849308 cumulative IPC: 0.0843894 (Simulation time: 2 hr 8 min 28 sec) 
 Total Blocks : 262144 Invalid Blocks : 0
Heartbeat CPU 0 instructions: 290000000 cycles: 1261448700 heartbeat IPC: 0.0848242 cumulative IPC: 0.0844375 (Simulation time: 2 hr 16 min 24 sec) 
 Total Blocks : 262144 Invalid Blocks : 0
Heartbeat CPU 0 instructions: 300000000 cycles: 1380782402 heartbeat IPC: 0.0837986 cumulative IPC: 0.0843732 (Simulation time: 2 hr 24 min 27 sec) 
 Total Blocks : 262144 Invalid Blocks : 0
Heartbeat CPU 0 instructions: 310000003 cycles: 1500163212 heartbeat IPC: 0.0837656 cumulative IPC: 0.0843176 (Simulation time: 2 hr 32 min 29 sec) 
 Total Blocks : 262144 Invalid Blocks : 0
Heartbeat CPU 0 instructions: 320000000 cycles: 1617293627 heartbeat IPC: 0.0853749 cumulative IPC: 0.0844047 (Simulation time: 2 hr 40 min 23 sec) 
 Total Blocks : 262144 Invalid Blocks : 0
Heartbeat CPU 0 instructions: 330000000 cycles: 1734849079 heartbeat IPC: 0.0850662 cumulative IPC: 0.0844552 (Simulation time: 2 hr 48 min 19 sec) 
 Total Blocks : 262144 Invalid Blocks : 0
Heartbeat CPU 0 instructions: 340000002 cycles: 1854125515 heartbeat IPC: 0.0838389 cumulative IPC: 0.0844109 (Simulation time: 2 hr 56 min 21 sec) 
 Total Blocks : 262144 Invalid Blocks : 0
Heartbeat CPU 0 instructions: 350000002 cycles: 1972554166 heartbeat IPC: 0.084439 cumulative IPC: 0.0844128 (Simulation time: 3 hr 4 min 21 sec) 
 Total Blocks : 262144 Invalid Blocks : 0
Heartbeat CPU 0 instructions: 360000001 cycles: 2091553470 heartbeat IPC: 0.0840341 cumulative IPC: 0.084389 (Simulation time: 3 hr 12 min 21 sec) 
 Total Blocks : 262144 Invalid Blocks : 0
Heartbeat CPU 0 instructions: 370000001 cycles: 2210153079 heartbeat IPC: 0.0843173 cumulative IPC: 0.0843848 (Simulation time: 3 hr 20 min 17 sec) 
 Total Blocks : 262144 Invalid Blocks : 0
Heartbeat CPU 0 instructions: 380000000 cycles: 2258835150 heartbeat IPC: 0.205414 cumulative IPC: 0.0872404 (Simulation time: 3 hr 23 min 54 sec) 
 Total Blocks : 262144 Invalid Blocks : 0
Heartbeat CPU 0 instructions: 390000000 cycles: 2314634283 heartbeat IPC: 0.179214 cumulative IPC: 0.0896623 (Simulation time: 3 hr 27 min 54 sec) 
 Total Blocks : 262144 Invalid Blocks : 0
Heartbeat CPU 0 instructions: 400000000 cycles: 2434241824 heartbeat IPC: 0.0836068 cumulative IPC: 0.0893388 (Simulation time: 3 hr 35 min 47 sec) 
 Total Blocks : 262144 Invalid Blocks : 0
Finished CPU 0 instructions: 200000003 cycles: 2238670109 cumulative IPC: 0.0893388 (Simulation time: 3 hr 35 min 47 sec) 

CPU 0 Branch Prediction Accuracy: 96.4326% MPKI: 6.60449 Average ROB Occupancy at Mispredict: 145.515

ChampSim completed all CPUs

Region of Interest Statistics

CPU 0 cumulative IPC: 0.0893388 instructions: 200000003 cycles: 2238670109
ITLB TOTAL     ACCESS: 34166507  HIT: 34166507  MISS:     0  HIT %:   100  MISS %:     0  AVERAGE MISS PENALTY: 0
ITLB LOAD      ACCESS: 34166507  HIT: 34166507  MISS:     0  HIT %:   100  MISS %:     0  AVERAGE MISS PENALTY: 0
ITLB RFO       ACCESS:     0  HIT:     0  MISS:     0  HIT %:     0  MISS %:     0  AVERAGE MISS PENALTY: 0
ITLB PREFETCH  ACCESS:     0  HIT:     0  MISS:     0  HIT %:     0  MISS %:     0  AVERAGE MISS PENALTY: 0
ITLB WRITEBACK ACCESS:     0  HIT:     0  MISS:     0  HIT %:     0  MISS %:     0  AVERAGE MISS PENALTY: 0
ITLB PREFETCH  REQUESTED:     0  ISSUED:     0  USEFUL:     0  USELESS:     0
 USEFUL LOAD PREFETCHES:          0 PREFETCH ISSUED TO LOWER LEVEL:          0  ACCURACY: -nan
 TIMELY PREFETCHES:          0 LATE PREFETCHES: 0 DROPPED PREFETCHES: 0
ITLB AVERAGE MISS LATENCY: -nan cycles
DTLB TOTAL     ACCESS: 78339512  HIT: 55352548  MISS: 22986964  HIT %: 70.6573  MISS %: 29.3427  AVERAGE MISS PENALTY: 9.18664
DTLB LOAD      ACCESS: 75582012  HIT: 52600658  MISS: 22981354  HIT %: 69.5941  MISS %: 30.4059  AVERAGE MISS PENALTY: 9.18346
DTLB RFO       ACCESS: 2757500  HIT: 2751890  MISS:  5610  HIT %: 99.7966  MISS %: 0.203445  AVERAGE MISS PENALTY: 22.2086
DTLB PREFETCH  ACCESS:     0  HIT:     0  MISS:     0  HIT %:     0  MISS %:     0  AVERAGE MISS PENALTY: 0
DTLB WRITEBACK ACCESS:     0  HIT:     0  MISS:     0  HIT %:     0  MISS %:     0  AVERAGE MISS PENALTY: 0
DTLB PREFETCH  REQUESTED:     0  ISSUED:     0  USEFUL:     0  USELESS:     0
 USEFUL LOAD PREFETCHES:          0 PREFETCH ISSUED TO LOWER LEVEL:          0  ACCURACY: -nan
 TIMELY PREFETCHES:          0 LATE PREFETCHES: 0 DROPPED PREFETCHES: 0
DTLB AVERAGE MISS LATENCY: 9.18664 cycles
STLB TOTAL     ACCESS: 22986964  HIT: 22946145  MISS: 40819  HIT %: 99.8224  MISS %: 0.177575  AVERAGE MISS PENALTY: 100
STLB LOAD      ACCESS: 22981354  HIT: 22941276  MISS: 40078  HIT %: 99.8256  MISS %: 0.174394  AVERAGE MISS PENALTY: 100
STLB RFO       ACCESS:  5610  HIT:  4869  MISS:   741  HIT %: 86.7914  MISS %: 13.2086  AVERAGE MISS PENALTY: 100
STLB PREFETCH  ACCESS:     0  HIT:     0  MISS:     0  HIT %:     0  MISS %:     0  AVERAGE MISS PENALTY: 0
STLB WRITEBACK ACCESS:     0  HIT:     0  MISS:     0  HIT %:     0  MISS %:     0  AVERAGE MISS PENALTY: 0
STLB PREFETCH  REQUESTED:     0  ISSUED:     0  USEFUL:     0  USELESS:     0
 USEFUL LOAD PREFETCHES:          0 PREFETCH ISSUED TO LOWER LEVEL:          0  ACCURACY: -nan
 TIMELY PREFETCHES:          0 LATE PREFETCHES: 0 DROPPED PREFETCHES: 0
STLB AVERAGE MISS LATENCY: 100 cycles
L1D TOTAL     ACCESS: 258330501  HIT: 48469183  MISS: 209861318  HIT %: 18.7625  MISS %: 81.2375  AVERAGE MISS PENALTY: 3.99843e+06
L1D LOAD      ACCESS: 66767635  HIT: 35151763  MISS: 31615872  HIT %: 52.6479  MISS %: 47.3521  AVERAGE MISS PENALTY: 2.65406e+07
L1D RFO       ACCESS: 2745293  HIT: 2679734  MISS: 65559  HIT %: 97.6119  MISS %: 2.38805  AVERAGE MISS PENALTY: 108.168
L1D PREFETCH  ACCESS: 188817573  HIT: 10637686  MISS: 178179887  HIT %: 5.63384  MISS %: 94.3662  AVERAGE MISS PENALTY: 66.6786
L1D WRITEBACK ACCESS:     0  HIT:     0  MISS:     0  HIT %:     0  MISS %:     0  AVERAGE MISS PENALTY: 0
L1D PREFETCH  REQUESTED: 193713253  ISSUED: 192703525  USEFUL: 4199097  USELESS: 173980749
 USEFUL LOAD PREFETCHES:    4199097 PREFETCH ISSUED TO LOWER LEVEL:  181963178  ACCURACY: 2.30766
 TIMELY PREFETCHES:    4199097 LATE PREFETCHES: 632604 DROPPED PREFETCHES: 1009728
L1D AVERAGE MISS LATENCY: 48.9223 cycles
L1I TOTAL     ACCESS: 35909951  HIT: 35909937  MISS:    14  HIT %:   100  MISS %: 3.89864e-05  AVERAGE MISS PENALTY: 124.929
L1I LOAD      ACCESS: 35909951  HIT: 35909937  MISS:    14  HIT %:   100  MISS %: 3.89864e-05  AVERAGE MISS PENALTY: 124.929
L1I RFO       ACCESS:     0  HIT:     0  MISS:     0  HIT %:     0  MISS %:     0  AVERAGE MISS PENALTY: 0
L1I PREFETCH  ACCESS:     0  HIT:     0  MISS:     0  HIT %:     0  MISS %:     0  AVERAGE MISS PENALTY: 0
L1I WRITEBACK ACCESS:     0  HIT:     0  MISS:     0  HIT %:     0  MISS %:     0  AVERAGE MISS PENALTY: 0
L1I PREFETCH  REQUESTED:     0  ISSUED:     0  USEFUL:     0  USELESS:     0
 USEFUL LOAD PREFETCHES:          0 PREFETCH ISSUED TO LOWER LEVEL:          0  ACCURACY: -nan
 TIMELY PREFETCHES:          0 LATE PREFETCHES: 0 DROPPED PREFETCHES: 0
L1I AVERAGE MISS LATENCY: 124.929 cycles
L2C TOTAL     ACCESS: 352083109  HIT: 24873548  MISS: 327209561  HIT %: 7.06468  MISS %: 92.9353  AVERAGE MISS PENALTY: 1.98786e+06
L2C LOAD      ACCESS: 31505748  HIT: 1786032  MISS: 29719716  HIT %: 5.66891  MISS %: 94.3311  AVERAGE MISS PENALTY: 2.18857e+07
L2C RFO       ACCESS: 65559  HIT:    76  MISS: 65483  HIT %: 0.115926  MISS %: 99.8841  AVERAGE MISS PENALTY: 91.1616
L2C PREFETCH  ACCESS: 320275673  HIT: 22851352  MISS: 297424321  HIT %: 7.1349  MISS %: 92.8651  AVERAGE MISS PENALTY: 36.7696
L2C WRITEBACK ACCESS: 236129  HIT: 236088  MISS:    41  HIT %: 99.9826  MISS %: 0.0173634  AVERAGE MISS PENALTY: 0
L2C PREFETCH  REQUESTED: 787312496  ISSUED: 787296723  USEFUL: 1399794  USELESS: 296023578
 USEFUL LOAD PREFETCHES:    1399794 PREFETCH ISSUED TO LOWER LEVEL:  301011640  ACCURACY: 0.46503
 TIMELY PREFETCHES:    1399794 LATE PREFETCHES: 612928 DROPPED PREFETCHES: 15773
L2C AVERAGE MISS LATENCY: 35.4079 cycles
LLC0 TOTAL     ACCESS: 42067550  HIT: 41653538  MISS: 414012  HIT %: 99.0158  MISS %: 0.98416  AVERAGE MISS PENALTY: 134.227
LLC0 LOAD      ACCESS: 3796978  HIT: 3749263  MISS: 47715  HIT %: 98.7433  MISS %: 1.25666  AVERAGE MISS PENALTY: 146.984
LLC0 RFO       ACCESS:  8187  HIT:  5608  MISS:  2579  HIT %: 68.4988  MISS %: 31.5012  AVERAGE MISS PENALTY: 163.263
LLC0 PREFETCH  ACCESS: 38245394  HIT: 37882264  MISS: 363130  HIT %: 99.0505  MISS %: 0.949474  AVERAGE MISS PENALTY: 132.562
LLC0 WRITEBACK ACCESS: 16991  HIT: 16403  MISS:   588  HIT %: 96.5393  MISS %: 3.46066  AVERAGE MISS PENALTY: 0
LLC0 PREFETCH  REQUESTED:     0  ISSUED:     0  USEFUL: 83324  USELESS: 279320
 USEFUL LOAD PREFETCHES:      83324 PREFETCH ISSUED TO LOWER LEVEL:     363130  ACCURACY: 22.9461
 TIMELY PREFETCHES:      83324 LATE PREFETCHES: 0 DROPPED PREFETCHES: 0
LLC0 AVERAGE MISS LATENCY: 134.227 cycles
Deadblocks : 36830 Deadblock percentage : 77.1875

LLC1 TOTAL     ACCESS: 42142882  HIT: 41728889  MISS: 413993  HIT %: 99.0176  MISS %: 0.982356  AVERAGE MISS PENALTY: 135.306
LLC1 LOAD      ACCESS: 3759654  HIT: 3746609  MISS: 13045  HIT %: 99.653  MISS %: 0.346973  AVERAGE MISS PENALTY: 164.895
LLC1 RFO       ACCESS:  8188  HIT:  5608  MISS:  2580  HIT %: 68.4905  MISS %: 31.5095  AVERAGE MISS PENALTY: 171.408
LLC1 PREFETCH  ACCESS: 38358046  HIT: 37960274  MISS: 397772  HIT %: 98.963  MISS %: 1.037  AVERAGE MISS PENALTY: 134.304
LLC1 WRITEBACK ACCESS: 16994  HIT: 16398  MISS:   596  HIT %: 96.4929  MISS %: 3.50712  AVERAGE MISS PENALTY: 0
LLC1 PREFETCH  REQUESTED:     0  ISSUED:     0  USEFUL: 83322  USELESS: 314072
 USEFUL LOAD PREFETCHES:      83322 PREFETCH ISSUED TO LOWER LEVEL:     397772  ACCURACY: 20.9472
 TIMELY PREFETCHES:      83322 LATE PREFETCHES: 0 DROPPED PREFETCHES: 0
LLC1 AVERAGE MISS LATENCY: 135.306 cycles
LLC2 TOTAL     ACCESS: 41818896  HIT: 41405359  MISS: 413537  HIT %: 99.0111  MISS %: 0.988876  AVERAGE MISS PENALTY: 136.257
LLC2 LOAD      ACCESS: 3625428  HIT: 3616977  MISS:  8451  HIT %: 99.7669  MISS %: 0.233104  AVERAGE MISS PENALTY: 174.124
LLC2 RFO       ACCESS:  8184  HIT:  5560  MISS:  2624  HIT %: 67.9374  MISS %: 32.0626  AVERAGE MISS PENALTY: 182.167
LLC2 PREFETCH  ACCESS: 38168292  HIT: 37766399  MISS: 401893  HIT %: 98.9471  MISS %: 1.05295  AVERAGE MISS PENALTY: 135.354
LLC2 WRITEBACK ACCESS: 16992  HIT: 16423  MISS:   569  HIT %: 96.6514  MISS %: 3.34863  AVERAGE MISS PENALTY: 0
LLC2 PREFETCH  REQUESTED:     0  ISSUED:     0  USEFUL: 83135  USELESS: 318297
 USEFUL LOAD PREFETCHES:      83135 PREFETCH ISSUED TO LOWER LEVEL:     401893  ACCURACY: 20.6859
 TIMELY PREFETCHES:      83135 LATE PREFETCHES: 0 DROPPED PREFETCHES: 0
LLC2 AVERAGE MISS LATENCY: 136.257 cycles
LLC3 TOTAL     ACCESS: 41239767  HIT: 40825140  MISS: 414627  HIT %: 98.9946  MISS %: 1.00541  AVERAGE MISS PENALTY: 136.763
LLC3 LOAD      ACCESS: 3718958  HIT: 3710228  MISS:  8730  HIT %: 99.7653  MISS %: 0.234743  AVERAGE MISS PENALTY: 174.291
LLC3 RFO       ACCESS:  8183  HIT:  5608  MISS:  2575  HIT %: 68.5323  MISS %: 31.4677  AVERAGE MISS PENALTY: 175.524
LLC3 PREFETCH  ACCESS: 37495634  HIT: 37092880  MISS: 402754  HIT %: 98.9259  MISS %: 1.07414  AVERAGE MISS PENALTY: 135.895
LLC3 WRITEBACK ACCESS: 16992  HIT: 16424  MISS:   568  HIT %: 96.6573  MISS %: 3.34275  AVERAGE MISS PENALTY: 0
LLC3 PREFETCH  REQUESTED:     0  ISSUED:     0  USEFUL: 83858  USELESS: 318477
 USEFUL LOAD PREFETCHES:      83858 PREFETCH ISSUED TO LOWER LEVEL:     402754  ACCURACY: 20.8211
 TIMELY PREFETCHES:      83858 LATE PREFETCHES: 0 DROPPED PREFETCHES: 0
LLC3 AVERAGE MISS LATENCY: 136.763 cycles
LLC4 TOTAL     ACCESS: 40898475  HIT: 40485062  MISS: 413413  HIT %: 98.9892  MISS %: 1.01083  AVERAGE MISS PENALTY: 136.723
LLC4 LOAD      ACCESS: 3739242  HIT: 3730171  MISS:  9071  HIT %: 99.7574  MISS %: 0.242589  AVERAGE MISS PENALTY: 173.934
LLC4 RFO       ACCESS:  8183  HIT:  5608  MISS:  2575  HIT %: 68.5323  MISS %: 31.4677  AVERAGE MISS PENALTY: 171.013
LLC4 PREFETCH  ACCESS: 37134055  HIT: 36732843  MISS: 401212  HIT %: 98.9196  MISS %: 1.08044  AVERAGE MISS PENALTY: 135.85
LLC4 WRITEBACK ACCESS: 16995  HIT: 16440  MISS:   555  HIT %: 96.7343  MISS %: 3.26567  AVERAGE MISS PENALTY: 0
LLC4 PREFETCH  REQUESTED:     0  ISSUED:     0  USEFUL: 82463  USELESS: 318282
 USEFUL LOAD PREFETCHES:      82463 PREFETCH ISSUED TO LOWER LEVEL:     401212  ACCURACY: 20.5535
 TIMELY PREFETCHES:      82463 LATE PREFETCHES: 0 DROPPED PREFETCHES: 0
LLC4 AVERAGE MISS LATENCY: 136.723 cycles
LLC5 TOTAL     ACCESS: 40486438  HIT: 40072725  MISS: 413713  HIT %: 98.9781  MISS %: 1.02186  AVERAGE MISS PENALTY: 137.379
LLC5 LOAD      ACCESS: 3662187  HIT: 3653189  MISS:  8998  HIT %: 99.7543  MISS %: 0.2457  AVERAGE MISS PENALTY: 174.144
LLC5 RFO       ACCESS:  8185  HIT:  5545  MISS:  2640  HIT %: 67.7459  MISS %: 32.2541  AVERAGE MISS PENALTY: 184.311
LLC5 PREFETCH  ACCESS: 36799073  HIT: 36397581  MISS: 401492  HIT %: 98.909  MISS %: 1.09104  AVERAGE MISS PENALTY: 136.445
LLC5 WRITEBACK ACCESS: 16993  HIT: 16410  MISS:   583  HIT %: 96.5692  MISS %: 3.43082  AVERAGE MISS PENALTY: 0
LLC5 PREFETCH  REQUESTED:     0  ISSUED:     0  USEFUL: 82589  USELESS: 318335
 USEFUL LOAD PREFETCHES:      82589 PREFETCH ISSUED TO LOWER LEVEL:     401492  ACCURACY: 20.5705
 TIMELY PREFETCHES:      82589 LATE PREFETCHES: 0 DROPPED PREFETCHES: 0
LLC5 AVERAGE MISS LATENCY: 137.379 cycles
LLC6 TOTAL     ACCESS: 39705020  HIT: 39291084  MISS: 413936  HIT %: 98.9575  MISS %: 1.04253  AVERAGE MISS PENALTY: 138.039
LLC6 LOAD      ACCESS: 3662046  HIT: 3652568  MISS:  9478  HIT %: 99.7412  MISS %: 0.258817  AVERAGE MISS PENALTY: 174.133
LLC6 RFO       ACCESS:  8186  HIT:  5608  MISS:  2578  HIT %: 68.5072  MISS %: 31.4928  AVERAGE MISS PENALTY: 178.832
LLC6 PREFETCH  ACCESS: 36017794  HIT: 35616473  MISS: 401321  HIT %: 98.8858  MISS %: 1.11423  AVERAGE MISS PENALTY: 137.117
LLC6 WRITEBACK ACCESS: 16994  HIT: 16435  MISS:   559  HIT %: 96.7106  MISS %: 3.2894  AVERAGE MISS PENALTY: 0
LLC6 PREFETCH  REQUESTED:     0  ISSUED:     0  USEFUL: 82369  USELESS: 318550
 USEFUL LOAD PREFETCHES:      82369 PREFETCH ISSUED TO LOWER LEVEL:     401321  ACCURACY: 20.5245
 TIMELY PREFETCHES:      82369 LATE PREFETCHES: 0 DROPPED PREFETCHES: 0
LLC6 AVERAGE MISS LATENCY: 138.039 cycles
LLC7 TOTAL     ACCESS: 38986444  HIT: 38572111  MISS: 414333  HIT %: 98.9372  MISS %: 1.06276  AVERAGE MISS PENALTY: 137.22
LLC7 LOAD      ACCESS: 3668536  HIT: 3658465  MISS: 10071  HIT %: 99.7255  MISS %: 0.274524  AVERAGE MISS PENALTY: 173.846
LLC7 RFO       ACCESS:  8187  HIT:  5568  MISS:  2619  HIT %: 68.0103  MISS %: 31.9897  AVERAGE MISS PENALTY: 164.884
LLC7 PREFETCH  ACCESS: 35292723  HIT: 34891648  MISS: 401075  HIT %: 98.8636  MISS %: 1.13642  AVERAGE MISS PENALTY: 136.314
LLC7 WRITEBACK ACCESS: 16998  HIT: 16430  MISS:   568  HIT %: 96.6584  MISS %: 3.34157  AVERAGE MISS PENALTY: 0
LLC7 PREFETCH  REQUESTED:     0  ISSUED:     0  USEFUL: 82276  USELESS: 318398
 USEFUL LOAD PREFETCHES:      82276 PREFETCH ISSUED TO LOWER LEVEL:     401075  ACCURACY: 20.5139
 TIMELY PREFETCHES:      82276 LATE PREFETCHES: 0 DROPPED PREFETCHES: 0
LLC7 AVERAGE MISS LATENCY: 137.22 cycles
ROI Average ROB Stall Cycles:	51.5849
ROI Total ROB Stalls Cycles:	2200080657
ROI TOTAL ROB counter      :	42649698
ROI Average Load ROB Stall Cycles:	60.2469
ROI Total Load ROB Stalls Cycle  :	2119779795
ROI Total Load ROB stalls Counter:	35184868
Major fault: 0 Minor fault: 34815

