
*** ChampSim Multicore Out-of-Order Simulator ***

Warmup Instructions: 200000000
Simulation Instructions: 200000000
Number of CPUs: 1
threads:1

L1I Configuration:
L1I_SET:64
L1I_WAY:8
L1I_RQ_SIZE:64
L1I_WQ_SIZE:64
L1I_PQ_SIZE:8
L1I_MSHR_SIZE:8

L1D Configuration:
L1D_SET:64
L1D_WAY:12
L1D_RQ_SIZE:64
L1D_WQ_SIZE:64
L1D_PQ_SIZE:8
L1D_MSHR_SIZE:16

L2C Configuration:
L2C_SET:1024
L2C_WAY:8
L2C_RQ_SIZE:32
L2C_WQ_SIZE:32
L2C_PQ_SIZE:16
L2C_MSHR_SIZE:32

LLC Configuration:
LLC_SET:2048
LLC_WAY:16
LLC SLICES:8
LLC_RQ_SIZE:64
LLC_WQ_SIZE:64
LLC_PQ_SIZE:32
LLC_MSHR_SIZE:64

Interconnect OFF
Attacker deprioritize is: OFF
Off-chip DRAM Size: 4096 MB Channels: 1 Width: 64-bit Data Rate: 3200 MT/s
PAGE SIZE in KB: 4.000000 
PAGE SIZE in MB: 0.003906 
PAGE offset in bits: 12 
CEASER-S_LLC:0
MIRAGE : 1
CEASER_LATENCY:3
REMAP : OFF
Partitions : 1
Multi-Step : OFF
BFS : OFF

CPU 0 runs /home/anubhav/gap/pr-10.trace.gz
CPU 0 Bimodal branch predictor
Initialize Hawkeye state
Initialize Hawkeye state
Initialize Hawkeye state
Initialize Hawkeye state
Initialize Hawkeye state
Initialize Hawkeye state
Initialize Hawkeye state
Initialize Hawkeye state
Heartbeat CPU 0 instructions: 10000001 cycles: 3641882 heartbeat IPC: 2.74583 cumulative IPC: 2.74583 (Simulation time: 0 hr 1 min 4 sec) 
 Total Blocks : 262144 Invalid Blocks : 109431
Heartbeat CPU 0 instructions: 20000003 cycles: 12718133 heartbeat IPC: 1.10178 cumulative IPC: 1.57256 (Simulation time: 0 hr 3 min 4 sec) 
 Total Blocks : 262144 Invalid Blocks : 51548
Heartbeat CPU 0 instructions: 30000002 cycles: 23254786 heartbeat IPC: 0.949068 cumulative IPC: 1.29006 (Simulation time: 0 hr 6 min 2 sec) 
 Total Blocks : 262144 Invalid Blocks : 27770
Heartbeat CPU 0 instructions: 40000000 cycles: 33761453 heartbeat IPC: 0.951776 cumulative IPC: 1.18478 (Simulation time: 0 hr 9 min 7 sec) 
 Total Blocks : 262144 Invalid Blocks : 15076
Heartbeat CPU 0 instructions: 50000000 cycles: 44105831 heartbeat IPC: 0.966709 cumulative IPC: 1.13364 (Simulation time: 0 hr 12 min 17 sec) 
 Total Blocks : 262144 Invalid Blocks : 8057
Heartbeat CPU 0 instructions: 60000000 cycles: 54707449 heartbeat IPC: 0.943252 cumulative IPC: 1.09674 (Simulation time: 0 hr 15 min 33 sec) 
 Total Blocks : 262144 Invalid Blocks : 4352
Heartbeat CPU 0 instructions: 70000000 cycles: 65260490 heartbeat IPC: 0.947594 cumulative IPC: 1.07262 (Simulation time: 0 hr 18 min 47 sec) 
 Total Blocks : 262144 Invalid Blocks : 2331
Heartbeat CPU 0 instructions: 80000000 cycles: 75784331 heartbeat IPC: 0.950223 cumulative IPC: 1.05563 (Simulation time: 0 hr 21 min 52 sec) 
 Total Blocks : 262144 Invalid Blocks : 1280
Heartbeat CPU 0 instructions: 90000000 cycles: 86431470 heartbeat IPC: 0.939219 cumulative IPC: 1.04129 (Simulation time: 0 hr 24 min 58 sec) 
 Total Blocks : 262144 Invalid Blocks : 660
Heartbeat CPU 0 instructions: 100000001 cycles: 97023566 heartbeat IPC: 0.9441 cumulative IPC: 1.03068 (Simulation time: 0 hr 28 min 7 sec) 
 Total Blocks : 262144 Invalid Blocks : 351
Heartbeat CPU 0 instructions: 110000000 cycles: 107670663 heartbeat IPC: 0.939223 cumulative IPC: 1.02163 (Simulation time: 0 hr 31 min 20 sec) 
 Total Blocks : 262144 Invalid Blocks : 172
Heartbeat CPU 0 instructions: 120000001 cycles: 118246924 heartbeat IPC: 0.945514 cumulative IPC: 1.01483 (Simulation time: 0 hr 34 min 39 sec) 
 Total Blocks : 262144 Invalid Blocks : 106
Heartbeat CPU 0 instructions: 130000000 cycles: 128613303 heartbeat IPC: 0.964657 cumulative IPC: 1.01078 (Simulation time: 0 hr 37 min 57 sec) 
 Total Blocks : 262144 Invalid Blocks : 57
Heartbeat CPU 0 instructions: 140000003 cycles: 139038935 heartbeat IPC: 0.959175 cumulative IPC: 1.00691 (Simulation time: 0 hr 41 min 16 sec) 
 Total Blocks : 262144 Invalid Blocks : 31
Heartbeat CPU 0 instructions: 150000000 cycles: 149698681 heartbeat IPC: 0.938108 cumulative IPC: 1.00201 (Simulation time: 0 hr 44 min 31 sec) 
 Total Blocks : 262144 Invalid Blocks : 15
Heartbeat CPU 0 instructions: 160000000 cycles: 160279423 heartbeat IPC: 0.945113 cumulative IPC: 0.998257 (Simulation time: 0 hr 47 min 46 sec) 
 Total Blocks : 262144 Invalid Blocks : 9
Heartbeat CPU 0 instructions: 170000000 cycles: 170931779 heartbeat IPC: 0.938759 cumulative IPC: 0.994549 (Simulation time: 0 hr 51 min 2 sec) 
 Total Blocks : 262144 Invalid Blocks : 6
Heartbeat CPU 0 instructions: 180000000 cycles: 181530778 heartbeat IPC: 0.943485 cumulative IPC: 0.991567 (Simulation time: 0 hr 54 min 20 sec) 
 Total Blocks : 262144 Invalid Blocks : 3
Heartbeat CPU 0 instructions: 190000000 cycles: 190087435 heartbeat IPC: 1.16868 cumulative IPC: 0.99954 (Simulation time: 0 hr 56 min 59 sec) 
 Total Blocks : 262144 Invalid Blocks : 2
Heartbeat CPU 0 instructions: 200000002 cycles: 194914002 heartbeat IPC: 2.07187 cumulative IPC: 1.02609 (Simulation time: 0 hr 58 min 16 sec) 
 Total Blocks : 262144 Invalid Blocks : 2

Warmup complete CPU 0 instructions: 200000002 cycles: 194914002 (Simulation time: 0 hr 58 min 16 sec) 

Heartbeat CPU 0 instructions: 210000003 cycles: 313850642 heartbeat IPC: 0.0840784 cumulative IPC: 0.0840784 (Simulation time: 1 hr 8 min 37 sec) 
 Total Blocks : 262144 Invalid Blocks : 2
Heartbeat CPU 0 instructions: 220000000 cycles: 430686874 heartbeat IPC: 0.0855899 cumulative IPC: 0.0848274 (Simulation time: 1 hr 18 min 41 sec) 
 Total Blocks : 262144 Invalid Blocks : 1
Heartbeat CPU 0 instructions: 230000000 cycles: 548433211 heartbeat IPC: 0.0849283 cumulative IPC: 0.084861 (Simulation time: 1 hr 28 min 15 sec) 
 Total Blocks : 262144 Invalid Blocks : 0
Heartbeat CPU 0 instructions: 240000000 cycles: 663509255 heartbeat IPC: 0.0868991 cumulative IPC: 0.0853615 (Simulation time: 1 hr 36 min 44 sec) 
 Total Blocks : 262144 Invalid Blocks : 0
Heartbeat CPU 0 instructions: 250000000 cycles: 782679527 heartbeat IPC: 0.0839135 cumulative IPC: 0.0850679 (Simulation time: 1 hr 44 min 58 sec) 
 Total Blocks : 262144 Invalid Blocks : 0
Heartbeat CPU 0 instructions: 260000003 cycles: 900620299 heartbeat IPC: 0.0847883 cumulative IPC: 0.0850212 (Simulation time: 1 hr 53 min 1 sec) 
 Total Blocks : 262144 Invalid Blocks : 0
Heartbeat CPU 0 instructions: 270000002 cycles: 1019005561 heartbeat IPC: 0.08447 cumulative IPC: 0.084942 (Simulation time: 2 hr 1 min 3 sec) 
 Total Blocks : 262144 Invalid Blocks : 0
Heartbeat CPU 0 instructions: 280000000 cycles: 1138543035 heartbeat IPC: 0.0836558 cumulative IPC: 0.0847791 (Simulation time: 2 hr 9 min 10 sec) 
 Total Blocks : 262144 Invalid Blocks : 0
Heartbeat CPU 0 instructions: 290000000 cycles: 1258406809 heartbeat IPC: 0.083428 cumulative IPC: 0.0846268 (Simulation time: 2 hr 17 min 18 sec) 
 Total Blocks : 262144 Invalid Blocks : 0
Heartbeat CPU 0 instructions: 300000000 cycles: 1377356891 heartbeat IPC: 0.0840689 cumulative IPC: 0.0845707 (Simulation time: 2 hr 25 min 21 sec) 
 Total Blocks : 262144 Invalid Blocks : 0
Heartbeat CPU 0 instructions: 310000003 cycles: 1495827076 heartbeat IPC: 0.0844094 cumulative IPC: 0.084556 (Simulation time: 2 hr 33 min 23 sec) 
 Total Blocks : 262144 Invalid Blocks : 0
Heartbeat CPU 0 instructions: 320000002 cycles: 1608920389 heartbeat IPC: 0.0884226 cumulative IPC: 0.0848652 (Simulation time: 2 hr 41 min 5 sec) 
 Total Blocks : 262144 Invalid Blocks : 0
Heartbeat CPU 0 instructions: 330000000 cycles: 1728059802 heartbeat IPC: 0.0839353 cumulative IPC: 0.084793 (Simulation time: 2 hr 49 min 11 sec) 
 Total Blocks : 262144 Invalid Blocks : 0
Heartbeat CPU 0 instructions: 340000003 cycles: 1848152739 heartbeat IPC: 0.0832689 cumulative IPC: 0.0846823 (Simulation time: 2 hr 57 min 20 sec) 
 Total Blocks : 262144 Invalid Blocks : 0
Heartbeat CPU 0 instructions: 350000003 cycles: 1967460364 heartbeat IPC: 0.0838169 cumulative IPC: 0.084624 (Simulation time: 3 hr 5 min 25 sec) 
 Total Blocks : 262144 Invalid Blocks : 0
Heartbeat CPU 0 instructions: 360000000 cycles: 2088233124 heartbeat IPC: 0.0828001 cumulative IPC: 0.0845077 (Simulation time: 3 hr 13 min 35 sec) 
 Total Blocks : 262144 Invalid Blocks : 0
Heartbeat CPU 0 instructions: 370000002 cycles: 2205566944 heartbeat IPC: 0.0852269 cumulative IPC: 0.0845497 (Simulation time: 3 hr 21 min 30 sec) 
 Total Blocks : 262144 Invalid Blocks : 0
Heartbeat CPU 0 instructions: 380000000 cycles: 2258027029 heartbeat IPC: 0.190621 cumulative IPC: 0.0872468 (Simulation time: 3 hr 25 min 22 sec) 
 Total Blocks : 262144 Invalid Blocks : 0
Heartbeat CPU 0 instructions: 390000000 cycles: 2315106528 heartbeat IPC: 0.175194 cumulative IPC: 0.0896145 (Simulation time: 3 hr 29 min 30 sec) 
 Total Blocks : 262144 Invalid Blocks : 0
Heartbeat CPU 0 instructions: 400000000 cycles: 2433772217 heartbeat IPC: 0.0842704 cumulative IPC: 0.0893312 (Simulation time: 3 hr 37 min 30 sec) 
 Total Blocks : 262144 Invalid Blocks : 0
Finished CPU 0 instructions: 200000003 cycles: 2238858287 cumulative IPC: 0.0893312 (Simulation time: 3 hr 37 min 30 sec) 

CPU 0 Branch Prediction Accuracy: 96.4303% MPKI: 6.60863 Average ROB Occupancy at Mispredict: 145.447

ChampSim completed all CPUs

Region of Interest Statistics

CPU 0 cumulative IPC: 0.0893312 instructions: 200000003 cycles: 2238858287
ITLB TOTAL     ACCESS: 34154738  HIT: 34154738  MISS:     0  HIT %:   100  MISS %:     0  AVERAGE MISS PENALTY: 0
ITLB LOAD      ACCESS: 34154738  HIT: 34154738  MISS:     0  HIT %:   100  MISS %:     0  AVERAGE MISS PENALTY: 0
ITLB RFO       ACCESS:     0  HIT:     0  MISS:     0  HIT %:     0  MISS %:     0  AVERAGE MISS PENALTY: 0
ITLB PREFETCH  ACCESS:     0  HIT:     0  MISS:     0  HIT %:     0  MISS %:     0  AVERAGE MISS PENALTY: 0
ITLB WRITEBACK ACCESS:     0  HIT:     0  MISS:     0  HIT %:     0  MISS %:     0  AVERAGE MISS PENALTY: 0
ITLB PREFETCH  REQUESTED:     0  ISSUED:     0  USEFUL:     0  USELESS:     0
 USEFUL LOAD PREFETCHES:          0 PREFETCH ISSUED TO LOWER LEVEL:          0  ACCURACY: -nan
 TIMELY PREFETCHES:          0 LATE PREFETCHES: 0 DROPPED PREFETCHES: 0
ITLB AVERAGE MISS LATENCY: -nan cycles
DTLB TOTAL     ACCESS: 78210657  HIT: 55253515  MISS: 22957142  HIT %: 70.647  MISS %: 29.353  AVERAGE MISS PENALTY: 9.19252
DTLB LOAD      ACCESS: 75474067  HIT: 52521886  MISS: 22952181  HIT %: 69.5893  MISS %: 30.4107  AVERAGE MISS PENALTY: 9.18639
DTLB RFO       ACCESS: 2736590  HIT: 2731629  MISS:  4961  HIT %: 99.8187  MISS %: 0.181284  AVERAGE MISS PENALTY: 37.5823
DTLB PREFETCH  ACCESS:     0  HIT:     0  MISS:     0  HIT %:     0  MISS %:     0  AVERAGE MISS PENALTY: 0
DTLB WRITEBACK ACCESS:     0  HIT:     0  MISS:     0  HIT %:     0  MISS %:     0  AVERAGE MISS PENALTY: 0
DTLB PREFETCH  REQUESTED:     0  ISSUED:     0  USEFUL:     0  USELESS:     0
 USEFUL LOAD PREFETCHES:          0 PREFETCH ISSUED TO LOWER LEVEL:          0  ACCURACY: -nan
 TIMELY PREFETCHES:          0 LATE PREFETCHES: 0 DROPPED PREFETCHES: 0
DTLB AVERAGE MISS LATENCY: 9.19252 cycles
STLB TOTAL     ACCESS: 22957142  HIT: 22916349  MISS: 40793  HIT %: 99.8223  MISS %: 0.177692  AVERAGE MISS PENALTY: 100
STLB LOAD      ACCESS: 22952181  HIT: 22912108  MISS: 40073  HIT %: 99.8254  MISS %: 0.174593  AVERAGE MISS PENALTY: 100
STLB RFO       ACCESS:  4961  HIT:  4241  MISS:   720  HIT %: 85.4868  MISS %: 14.5132  AVERAGE MISS PENALTY: 100
STLB PREFETCH  ACCESS:     0  HIT:     0  MISS:     0  HIT %:     0  MISS %:     0  AVERAGE MISS PENALTY: 0
STLB WRITEBACK ACCESS:     0  HIT:     0  MISS:     0  HIT %:     0  MISS %:     0  AVERAGE MISS PENALTY: 0
STLB PREFETCH  REQUESTED:     0  ISSUED:     0  USEFUL:     0  USELESS:     0
 USEFUL LOAD PREFETCHES:          0 PREFETCH ISSUED TO LOWER LEVEL:          0  ACCURACY: -nan
 TIMELY PREFETCHES:          0 LATE PREFETCHES: 0 DROPPED PREFETCHES: 0
STLB AVERAGE MISS LATENCY: 100 cycles
L1D TOTAL     ACCESS: 258759745  HIT: 48361461  MISS: 210398284  HIT %: 18.6897  MISS %: 81.3103  AVERAGE MISS PENALTY: 3.72801e+06
L1D LOAD      ACCESS: 66678342  HIT: 35062930  MISS: 31615412  HIT %: 52.5852  MISS %: 47.4148  AVERAGE MISS PENALTY: 2.48093e+07
L1D RFO       ACCESS: 2765394  HIT: 2699834  MISS: 65560  HIT %: 97.6293  MISS %: 2.37073  AVERAGE MISS PENALTY: 107.06
L1D PREFETCH  ACCESS: 189316009  HIT: 10598697  MISS: 178717312  HIT %: 5.59842  MISS %: 94.4016  AVERAGE MISS PENALTY: 66.5966
L1D WRITEBACK ACCESS:     0  HIT:     0  MISS:     0  HIT %:     0  MISS %:     0  AVERAGE MISS PENALTY: 0
L1D PREFETCH  REQUESTED: 194181344  ISSUED: 193264168  USEFUL: 4182732  USELESS: 174534548
 USEFUL LOAD PREFETCHES:    4182732 PREFETCH ISSUED TO LOWER LEVEL:  182441662  ACCURACY: 2.29264
 TIMELY PREFETCHES:    4182732 LATE PREFETCHES: 620214 DROPPED PREFETCHES: 917176
L1D AVERAGE MISS LATENCY: 48.9472 cycles
L1I TOTAL     ACCESS: 35899061  HIT: 35899046  MISS:    15  HIT %:   100  MISS %: 4.17838e-05  AVERAGE MISS PENALTY: 130.2
L1I LOAD      ACCESS: 35899061  HIT: 35899046  MISS:    15  HIT %:   100  MISS %: 4.17838e-05  AVERAGE MISS PENALTY: 130.2
L1I RFO       ACCESS:     0  HIT:     0  MISS:     0  HIT %:     0  MISS %:     0  AVERAGE MISS PENALTY: 0
L1I PREFETCH  ACCESS:     0  HIT:     0  MISS:     0  HIT %:     0  MISS %:     0  AVERAGE MISS PENALTY: 0
L1I WRITEBACK ACCESS:     0  HIT:     0  MISS:     0  HIT %:     0  MISS %:     0  AVERAGE MISS PENALTY: 0
L1I PREFETCH  REQUESTED:     0  ISSUED:     0  USEFUL:     0  USELESS:     0
 USEFUL LOAD PREFETCHES:          0 PREFETCH ISSUED TO LOWER LEVEL:          0  ACCURACY: -nan
 TIMELY PREFETCHES:          0 LATE PREFETCHES: 0 DROPPED PREFETCHES: 0
L1I AVERAGE MISS LATENCY: 130.2 cycles
L2C TOTAL     ACCESS: 352843022  HIT: 24764184  MISS: 328078838  HIT %: 7.01847  MISS %: 92.9815  AVERAGE MISS PENALTY: 1.88378e+06
L2C LOAD      ACCESS: 31507616  HIT: 1782231  MISS: 29725385  HIT %: 5.65651  MISS %: 94.3435  AVERAGE MISS PENALTY: 2.07909e+07
L2C RFO       ACCESS: 65560  HIT:   117  MISS: 65443  HIT %: 0.178462  MISS %: 99.8215  AVERAGE MISS PENALTY: 91.9138
L2C PREFETCH  ACCESS: 321036253  HIT: 22748301  MISS: 298287952  HIT %: 7.0859  MISS %: 92.9141  AVERAGE MISS PENALTY: 36.7602
L2C WRITEBACK ACCESS: 233593  HIT: 233535  MISS:    58  HIT %: 99.9752  MISS %: 0.0248295  AVERAGE MISS PENALTY: 0
L2C PREFETCH  REQUESTED: 790374969  ISSUED: 790359100  USEFUL: 1395352  USELESS: 296891807
 USEFUL LOAD PREFETCHES:    1395352 PREFETCH ISSUED TO LOWER LEVEL:  301811308  ACCURACY: 0.462326
 TIMELY PREFETCHES:    1395352 LATE PREFETCHES: 601382 DROPPED PREFETCHES: 15869
L2C AVERAGE MISS LATENCY: 35.406 cycles
LLC0 TOTAL     ACCESS: 42206552  HIT: 41792936  MISS: 413616  HIT %: 99.02  MISS %: 0.979981  AVERAGE MISS PENALTY: 134.239
LLC0 LOAD      ACCESS: 3871181  HIT: 3823644  MISS: 47537  HIT %: 98.772  MISS %: 1.22797  AVERAGE MISS PENALTY: 148.076
LLC0 RFO       ACCESS:  8184  HIT:  5585  MISS:  2599  HIT %: 68.2429  MISS %: 31.7571  AVERAGE MISS PENALTY: 166.492
LLC0 PREFETCH  ACCESS: 38310193  HIT: 37947263  MISS: 362930  HIT %: 99.0527  MISS %: 0.947346  AVERAGE MISS PENALTY: 132.399
LLC0 WRITEBACK ACCESS: 16994  HIT: 16444  MISS:   550  HIT %: 96.7636  MISS %: 3.23644  AVERAGE MISS PENALTY: 0
LLC0 PREFETCH  REQUESTED:     0  ISSUED:     0  USEFUL: 83287  USELESS: 279423
 USEFUL LOAD PREFETCHES:      83287 PREFETCH ISSUED TO LOWER LEVEL:     362930  ACCURACY: 22.9485
 TIMELY PREFETCHES:      83287 LATE PREFETCHES: 0 DROPPED PREFETCHES: 0
LLC0 AVERAGE MISS LATENCY: 134.239 cycles
Deadblocks : 36846 Deadblock percentage : 77.5101

LLC1 TOTAL     ACCESS: 42218590  HIT: 41805365  MISS: 413225  HIT %: 99.0212  MISS %: 0.978775  AVERAGE MISS PENALTY: 135.484
LLC1 LOAD      ACCESS: 3669559  HIT: 3656537  MISS: 13022  HIT %: 99.6451  MISS %: 0.354866  AVERAGE MISS PENALTY: 165.468
LLC1 RFO       ACCESS:  8184  HIT:  5597  MISS:  2587  HIT %: 68.3895  MISS %: 31.6105  AVERAGE MISS PENALTY: 188.01
LLC1 PREFETCH  ACCESS: 38523853  HIT: 38126793  MISS: 397060  HIT %: 98.9693  MISS %: 1.03069  AVERAGE MISS PENALTY: 134.348
LLC1 WRITEBACK ACCESS: 16994  HIT: 16438  MISS:   556  HIT %: 96.7283  MISS %: 3.27174  AVERAGE MISS PENALTY: 0
LLC1 PREFETCH  REQUESTED:     0  ISSUED:     0  USEFUL: 82637  USELESS: 314012
 USEFUL LOAD PREFETCHES:      82637 PREFETCH ISSUED TO LOWER LEVEL:     397060  ACCURACY: 20.8122
 TIMELY PREFETCHES:      82637 LATE PREFETCHES: 0 DROPPED PREFETCHES: 0
LLC1 AVERAGE MISS LATENCY: 135.484 cycles
LLC2 TOTAL     ACCESS: 41983833  HIT: 41570144  MISS: 413689  HIT %: 99.0146  MISS %: 0.985353  AVERAGE MISS PENALTY: 136.538
LLC2 LOAD      ACCESS: 3729290  HIT: 3720659  MISS:  8631  HIT %: 99.7686  MISS %: 0.231438  AVERAGE MISS PENALTY: 174.304
LLC2 RFO       ACCESS:  8181  HIT:  5565  MISS:  2616  HIT %: 68.0235  MISS %: 31.9765  AVERAGE MISS PENALTY: 180.556
LLC2 PREFETCH  ACCESS: 38229367  HIT: 37827479  MISS: 401888  HIT %: 98.9487  MISS %: 1.05125  AVERAGE MISS PENALTY: 135.628
LLC2 WRITEBACK ACCESS: 16995  HIT: 16441  MISS:   554  HIT %: 96.7402  MISS %: 3.25978  AVERAGE MISS PENALTY: 0
LLC2 PREFETCH  REQUESTED:     0  ISSUED:     0  USEFUL: 83116  USELESS: 318242
 USEFUL LOAD PREFETCHES:      83116 PREFETCH ISSUED TO LOWER LEVEL:     401888  ACCURACY: 20.6814
 TIMELY PREFETCHES:      83116 LATE PREFETCHES: 0 DROPPED PREFETCHES: 0
LLC2 AVERAGE MISS LATENCY: 136.538 cycles
LLC3 TOTAL     ACCESS: 41279636  HIT: 40865554  MISS: 414082  HIT %: 98.9969  MISS %: 1.00311  AVERAGE MISS PENALTY: 136.904
LLC3 LOAD      ACCESS: 3790493  HIT: 3781736  MISS:  8757  HIT %: 99.769  MISS %: 0.231025  AVERAGE MISS PENALTY: 174.195
LLC3 RFO       ACCESS:  8179  HIT:  5658  MISS:  2521  HIT %: 69.1772  MISS %: 30.8228  AVERAGE MISS PENALTY: 179.103
LLC3 PREFETCH  ACCESS: 37463971  HIT: 37061716  MISS: 402255  HIT %: 98.9263  MISS %: 1.07371  AVERAGE MISS PENALTY: 136.015
LLC3 WRITEBACK ACCESS: 16993  HIT: 16444  MISS:   549  HIT %: 96.7693  MISS %: 3.23074  AVERAGE MISS PENALTY: 0
LLC3 PREFETCH  REQUESTED:     0  ISSUED:     0  USEFUL: 83449  USELESS: 318366
 USEFUL LOAD PREFETCHES:      83449 PREFETCH ISSUED TO LOWER LEVEL:     402255  ACCURACY: 20.7453
 TIMELY PREFETCHES:      83449 LATE PREFETCHES: 0 DROPPED PREFETCHES: 0
LLC3 AVERAGE MISS LATENCY: 136.904 cycles
LLC4 TOTAL     ACCESS: 40910725  HIT: 40497085  MISS: 413640  HIT %: 98.9889  MISS %: 1.01108  AVERAGE MISS PENALTY: 136.856
LLC4 LOAD      ACCESS: 3632636  HIT: 3623876  MISS:  8760  HIT %: 99.7589  MISS %: 0.241147  AVERAGE MISS PENALTY: 174.199
LLC4 RFO       ACCESS:  8177  HIT:  5522  MISS:  2655  HIT %: 67.5309  MISS %: 32.4691  AVERAGE MISS PENALTY: 164.624
LLC4 PREFETCH  ACCESS: 37252920  HIT: 36851271  MISS: 401649  HIT %: 98.9218  MISS %: 1.07817  AVERAGE MISS PENALTY: 136.054
LLC4 WRITEBACK ACCESS: 16992  HIT: 16416  MISS:   576  HIT %: 96.6102  MISS %: 3.38983  AVERAGE MISS PENALTY: 0
LLC4 PREFETCH  REQUESTED:     0  ISSUED:     0  USEFUL: 82759  USELESS: 318349
 USEFUL LOAD PREFETCHES:      82759 PREFETCH ISSUED TO LOWER LEVEL:     401649  ACCURACY: 20.6048
 TIMELY PREFETCHES:      82759 LATE PREFETCHES: 0 DROPPED PREFETCHES: 0
LLC4 AVERAGE MISS LATENCY: 136.856 cycles
LLC5 TOTAL     ACCESS: 40543844  HIT: 40130394  MISS: 413450  HIT %: 98.9802  MISS %: 1.01976  AVERAGE MISS PENALTY: 137.616
LLC5 LOAD      ACCESS: 3608219  HIT: 3599393  MISS:  8826  HIT %: 99.7554  MISS %: 0.244608  AVERAGE MISS PENALTY: 173.967
LLC5 RFO       ACCESS:  8177  HIT:  5558  MISS:  2619  HIT %: 67.9711  MISS %: 32.0289  AVERAGE MISS PENALTY: 185.04
LLC5 PREFETCH  ACCESS: 36910457  HIT: 36509003  MISS: 401454  HIT %: 98.9124  MISS %: 1.08764  AVERAGE MISS PENALTY: 136.696
LLC5 WRITEBACK ACCESS: 16991  HIT: 16440  MISS:   551  HIT %: 96.7571  MISS %: 3.24289  AVERAGE MISS PENALTY: 0
LLC5 PREFETCH  REQUESTED:     0  ISSUED:     0  USEFUL: 82772  USELESS: 318234
 USEFUL LOAD PREFETCHES:      82772 PREFETCH ISSUED TO LOWER LEVEL:     401454  ACCURACY: 20.6181
 TIMELY PREFETCHES:      82772 LATE PREFETCHES: 0 DROPPED PREFETCHES: 0
LLC5 AVERAGE MISS LATENCY: 137.616 cycles
LLC6 TOTAL     ACCESS: 39900729  HIT: 39486909  MISS: 413820  HIT %: 98.9629  MISS %: 1.03712  AVERAGE MISS PENALTY: 137.91
LLC6 LOAD      ACCESS: 3695061  HIT: 3685379  MISS:  9682  HIT %: 99.738  MISS %: 0.262025  AVERAGE MISS PENALTY: 174.233
LLC6 RFO       ACCESS:  8180  HIT:  5502  MISS:  2678  HIT %: 67.2616  MISS %: 32.7384  AVERAGE MISS PENALTY: 161.735
LLC6 PREFETCH  ACCESS: 36180493  HIT: 35779626  MISS: 400867  HIT %: 98.892  MISS %: 1.10796  AVERAGE MISS PENALTY: 137.077
LLC6 WRITEBACK ACCESS: 16995  HIT: 16402  MISS:   593  HIT %: 96.5107  MISS %: 3.48926  AVERAGE MISS PENALTY: 0
LLC6 PREFETCH  REQUESTED:     0  ISSUED:     0  USEFUL: 82154  USELESS: 318197
 USEFUL LOAD PREFETCHES:      82154 PREFETCH ISSUED TO LOWER LEVEL:     400867  ACCURACY: 20.4941
 TIMELY PREFETCHES:      82154 LATE PREFETCHES: 0 DROPPED PREFETCHES: 0
LLC6 AVERAGE MISS LATENCY: 137.91 cycles
LLC7 TOTAL     ACCESS: 39170821  HIT: 38757887  MISS: 412934  HIT %: 98.9458  MISS %: 1.05419  AVERAGE MISS PENALTY: 136.52
LLC7 LOAD      ACCESS: 3647639  HIT: 3637758  MISS:  9881  HIT %: 99.7291  MISS %: 0.270888  AVERAGE MISS PENALTY: 174.015
LLC7 RFO       ACCESS:  8181  HIT:  5534  MISS:  2647  HIT %: 67.6445  MISS %: 32.3555  AVERAGE MISS PENALTY: 141.363
LLC7 PREFETCH  ACCESS: 35498009  HIT: 35098196  MISS: 399813  HIT %: 98.8737  MISS %: 1.1263  AVERAGE MISS PENALTY: 135.763
LLC7 WRITEBACK ACCESS: 16992  HIT: 16399  MISS:   593  HIT %: 96.5101  MISS %: 3.48988  AVERAGE MISS PENALTY: 0
LLC7 PREFETCH  REQUESTED:     0  ISSUED:     0  USEFUL: 80996  USELESS: 318397
 USEFUL LOAD PREFETCHES:      80996 PREFETCH ISSUED TO LOWER LEVEL:     399813  ACCURACY: 20.2585
 TIMELY PREFETCHES:      80996 LATE PREFETCHES: 0 DROPPED PREFETCHES: 0
LLC7 AVERAGE MISS LATENCY: 136.52 cycles
ROI Average ROB Stall Cycles:	51.676
ROI Total ROB Stalls Cycles:	2200057620
ROI TOTAL ROB counter      :	42574048
ROI Average Load ROB Stall Cycles:	60.3468
ROI Total Load ROB Stalls Cycle  :	2119826418
ROI Total Load ROB stalls Counter:	35127399
Major fault: 0 Minor fault: 34814

