
*** ChampSim Multicore Out-of-Order Simulator ***

Warmup Instructions: 200000000
Simulation Instructions: 200000000
Number of CPUs: 1
threads:1

L1I Configuration:
L1I_SET:64
L1I_WAY:8
L1I_RQ_SIZE:64
L1I_WQ_SIZE:64
L1I_PQ_SIZE:8
L1I_MSHR_SIZE:8

L1D Configuration:
L1D_SET:64
L1D_WAY:12
L1D_RQ_SIZE:64
L1D_WQ_SIZE:64
L1D_PQ_SIZE:8
L1D_MSHR_SIZE:16

L2C Configuration:
L2C_SET:1024
L2C_WAY:8
L2C_RQ_SIZE:32
L2C_WQ_SIZE:32
L2C_PQ_SIZE:16
L2C_MSHR_SIZE:32

LLC Configuration:
LLC_SET:4096
LLC_WAY:16
LLC SLICES:8
LLC_RQ_SIZE:64
LLC_WQ_SIZE:64
LLC_PQ_SIZE:32
LLC_MSHR_SIZE:64

Interconnect OFF
Attacker deprioritize is: OFF
Off-chip DRAM Size: 4096 MB Channels: 1 Width: 64-bit Data Rate: 3200 MT/s
PAGE SIZE in KB: 4.000000 
PAGE SIZE in MB: 0.003906 
PAGE offset in bits: 12 
CEASER-S_LLC:0
MIRAGE : 1
CEASER_LATENCY:3
REMAP : OFF
Partitions : 1
Multi-Step : OFF
BFS : OFF

CPU 0 runs /home/anubhav/gap/pr-3.trace.gz
CPU 0 Bimodal branch predictor
Initialize Hawkeye state
Initialize Hawkeye state
Initialize Hawkeye state
Initialize Hawkeye state
Initialize Hawkeye state
Initialize Hawkeye state
Initialize Hawkeye state
Initialize Hawkeye state
Heartbeat CPU 0 instructions: 10000001 cycles: 3641882 heartbeat IPC: 2.74583 cumulative IPC: 2.74583 (Simulation time: 0 hr 3 min 21 sec) 
 Total Blocks : 524288 Invalid Blocks : 339108
Heartbeat CPU 0 instructions: 20000001 cycles: 12464971 heartbeat IPC: 1.13339 cumulative IPC: 1.6045 (Simulation time: 0 hr 7 min 51 sec) 
 Total Blocks : 524288 Invalid Blocks : 249245
Heartbeat CPU 0 instructions: 30000000 cycles: 22760063 heartbeat IPC: 0.971337 cumulative IPC: 1.3181 (Simulation time: 0 hr 15 min 54 sec) 
 Total Blocks : 524288 Invalid Blocks : 192593
Heartbeat CPU 0 instructions: 40000000 cycles: 33228651 heartbeat IPC: 0.955239 cumulative IPC: 1.20378 (Simulation time: 0 hr 24 min 33 sec) 
 Total Blocks : 524288 Invalid Blocks : 148489
Heartbeat CPU 0 instructions: 50000000 cycles: 43719696 heartbeat IPC: 0.953194 cumulative IPC: 1.14365 (Simulation time: 0 hr 33 min 7 sec) 
 Total Blocks : 524288 Invalid Blocks : 114250
Heartbeat CPU 0 instructions: 60000002 cycles: 53990285 heartbeat IPC: 0.973654 cumulative IPC: 1.11131 (Simulation time: 0 hr 41 min 29 sec) 
 Total Blocks : 524288 Invalid Blocks : 87759
Heartbeat CPU 0 instructions: 70000000 cycles: 64421699 heartbeat IPC: 0.958643 cumulative IPC: 1.08659 (Simulation time: 0 hr 50 min 2 sec) 
 Total Blocks : 524288 Invalid Blocks : 67349
Heartbeat CPU 0 instructions: 80000002 cycles: 74894884 heartbeat IPC: 0.95482 cumulative IPC: 1.06816 (Simulation time: 0 hr 57 min 32 sec) 
 Total Blocks : 524288 Invalid Blocks : 51851
Heartbeat CPU 0 instructions: 90000000 cycles: 85347242 heartbeat IPC: 0.956722 cumulative IPC: 1.05452 (Simulation time: 1 hr 4 min 42 sec) 
 Total Blocks : 524288 Invalid Blocks : 39596
Heartbeat CPU 0 instructions: 100000001 cycles: 95818712 heartbeat IPC: 0.954976 cumulative IPC: 1.04364 (Simulation time: 1 hr 11 min 48 sec) 
 Total Blocks : 524288 Invalid Blocks : 30334
Heartbeat CPU 0 instructions: 110000000 cycles: 106242077 heartbeat IPC: 0.959383 cumulative IPC: 1.03537 (Simulation time: 1 hr 19 min 15 sec) 
 Total Blocks : 524288 Invalid Blocks : 23253
Heartbeat CPU 0 instructions: 120000000 cycles: 116653748 heartbeat IPC: 0.960461 cumulative IPC: 1.02869 (Simulation time: 1 hr 26 min 22 sec) 
 Total Blocks : 524288 Invalid Blocks : 17804
Heartbeat CPU 0 instructions: 130000000 cycles: 127092346 heartbeat IPC: 0.957983 cumulative IPC: 1.02288 (Simulation time: 1 hr 33 min 32 sec) 
 Total Blocks : 524288 Invalid Blocks : 13609
Heartbeat CPU 0 instructions: 140000001 cycles: 137583804 heartbeat IPC: 0.953156 cumulative IPC: 1.01756 (Simulation time: 1 hr 40 min 29 sec) 
 Total Blocks : 524288 Invalid Blocks : 10413
Heartbeat CPU 0 instructions: 150000000 cycles: 148034286 heartbeat IPC: 0.956894 cumulative IPC: 1.01328 (Simulation time: 1 hr 47 min 4 sec) 
 Total Blocks : 524288 Invalid Blocks : 7941
Heartbeat CPU 0 instructions: 160000001 cycles: 158535029 heartbeat IPC: 0.952314 cumulative IPC: 1.00924 (Simulation time: 1 hr 53 min 44 sec) 
 Total Blocks : 524288 Invalid Blocks : 6038
Heartbeat CPU 0 instructions: 170000002 cycles: 169004261 heartbeat IPC: 0.95518 cumulative IPC: 1.00589 (Simulation time: 2 hr 0 min 7 sec) 
 Total Blocks : 524288 Invalid Blocks : 4604
Heartbeat CPU 0 instructions: 180000001 cycles: 179567706 heartbeat IPC: 0.946661 cumulative IPC: 1.00241 (Simulation time: 2 hr 6 min 35 sec) 
 Total Blocks : 524288 Invalid Blocks : 3518
Heartbeat CPU 0 instructions: 190000002 cycles: 188032920 heartbeat IPC: 1.18131 cumulative IPC: 1.01046 (Simulation time: 2 hr 11 min 22 sec) 
 Total Blocks : 524288 Invalid Blocks : 2648
Heartbeat CPU 0 instructions: 200000000 cycles: 192743460 heartbeat IPC: 2.1229 cumulative IPC: 1.03765 (Simulation time: 2 hr 13 min 39 sec) 
 Total Blocks : 524288 Invalid Blocks : 1997

Warmup complete CPU 0 instructions: 200000001 cycles: 192743461 (Simulation time: 2 hr 13 min 39 sec) 

Heartbeat CPU 0 instructions: 210000002 cycles: 317273151 heartbeat IPC: 0.0803021 cumulative IPC: 0.0803021 (Simulation time: 2 hr 31 min 44 sec) 
 Total Blocks : 524288 Invalid Blocks : 1553
Heartbeat CPU 0 instructions: 220000000 cycles: 440779592 heartbeat IPC: 0.0809674 cumulative IPC: 0.0806334 (Simulation time: 2 hr 45 min 37 sec) 
 Total Blocks : 524288 Invalid Blocks : 1210
Heartbeat CPU 0 instructions: 230000003 cycles: 567022937 heartbeat IPC: 0.0792121 cumulative IPC: 0.080154 (Simulation time: 2 hr 57 min 37 sec) 
 Total Blocks : 524288 Invalid Blocks : 946
Heartbeat CPU 0 instructions: 240000002 cycles: 691201701 heartbeat IPC: 0.0805291 cumulative IPC: 0.0802474 (Simulation time: 3 hr 5 min 59 sec) 
 Total Blocks : 524288 Invalid Blocks : 723
Heartbeat CPU 0 instructions: 250000000 cycles: 812645465 heartbeat IPC: 0.0823426 cumulative IPC: 0.0806579 (Simulation time: 3 hr 15 min 56 sec) 
 Total Blocks : 524288 Invalid Blocks : 580
Heartbeat CPU 0 instructions: 260000001 cycles: 935481693 heartbeat IPC: 0.0814092 cumulative IPC: 0.0807822 (Simulation time: 3 hr 28 min 43 sec) 
 Total Blocks : 524288 Invalid Blocks : 444
Heartbeat CPU 0 instructions: 270000000 cycles: 1060486234 heartbeat IPC: 0.0799971 cumulative IPC: 0.0806691 (Simulation time: 3 hr 37 min 8 sec) 
 Total Blocks : 524288 Invalid Blocks : 339
Heartbeat CPU 0 instructions: 280000002 cycles: 1184805171 heartbeat IPC: 0.0804383 cumulative IPC: 0.0806401 (Simulation time: 3 hr 45 min 13 sec) 
 Total Blocks : 524288 Invalid Blocks : 266
Heartbeat CPU 0 instructions: 290000002 cycles: 1306691041 heartbeat IPC: 0.082044 cumulative IPC: 0.0807937 (Simulation time: 3 hr 53 min 8 sec) 
 Total Blocks : 524288 Invalid Blocks : 207
Heartbeat CPU 0 instructions: 300000002 cycles: 1432820801 heartbeat IPC: 0.0792834 cumulative IPC: 0.0806401 (Simulation time: 4 hr 1 min 17 sec) 
 Total Blocks : 524288 Invalid Blocks : 156
Heartbeat CPU 0 instructions: 310000000 cycles: 1556541923 heartbeat IPC: 0.0808269 cumulative IPC: 0.0806571 (Simulation time: 4 hr 9 min 17 sec) 
 Total Blocks : 524288 Invalid Blocks : 111
Heartbeat CPU 0 instructions: 320000000 cycles: 1680414122 heartbeat IPC: 0.0807284 cumulative IPC: 0.080663 (Simulation time: 4 hr 17 min 18 sec) 
 Total Blocks : 524288 Invalid Blocks : 89
Heartbeat CPU 0 instructions: 330000000 cycles: 1803165316 heartbeat IPC: 0.0814656 cumulative IPC: 0.0807242 (Simulation time: 4 hr 25 min 13 sec) 
 Total Blocks : 524288 Invalid Blocks : 69
Heartbeat CPU 0 instructions: 340000000 cycles: 1928747251 heartbeat IPC: 0.0796293 cumulative IPC: 0.080645 (Simulation time: 4 hr 33 min 18 sec) 
 Total Blocks : 524288 Invalid Blocks : 53
Heartbeat CPU 0 instructions: 350000003 cycles: 2053783941 heartbeat IPC: 0.0799766 cumulative IPC: 0.0806001 (Simulation time: 4 hr 41 min 18 sec) 
 Total Blocks : 524288 Invalid Blocks : 46
Heartbeat CPU 0 instructions: 360000000 cycles: 2178836977 heartbeat IPC: 0.079966 cumulative IPC: 0.0805602 (Simulation time: 4 hr 49 min 15 sec) 
 Total Blocks : 524288 Invalid Blocks : 40
Heartbeat CPU 0 instructions: 370000001 cycles: 2304101494 heartbeat IPC: 0.0798311 cumulative IPC: 0.0805169 (Simulation time: 4 hr 57 min 12 sec) 
 Total Blocks : 524288 Invalid Blocks : 33
Heartbeat CPU 0 instructions: 380000002 cycles: 2359354755 heartbeat IPC: 0.180985 cumulative IPC: 0.083079 (Simulation time: 5 hr 1 min 0 sec) 
 Total Blocks : 524288 Invalid Blocks : 30
Heartbeat CPU 0 instructions: 390000000 cycles: 2418207272 heartbeat IPC: 0.169916 cumulative IPC: 0.0853755 (Simulation time: 5 hr 5 min 2 sec) 
 Total Blocks : 524288 Invalid Blocks : 22
Heartbeat CPU 0 instructions: 400000001 cycles: 2542225336 heartbeat IPC: 0.0806334 cumulative IPC: 0.0851251 (Simulation time: 5 hr 12 min 49 sec) 
 Total Blocks : 524288 Invalid Blocks : 17
Finished CPU 0 instructions: 200000000 cycles: 2349481875 cumulative IPC: 0.0851251 (Simulation time: 5 hr 12 min 49 sec) 

CPU 0 Branch Prediction Accuracy: 96.43% MPKI: 6.60878 Average ROB Occupancy at Mispredict: 145.886

ChampSim completed all CPUs

Region of Interest Statistics

CPU 0 cumulative IPC: 0.0851251 instructions: 200000000 cycles: 2349481875
ITLB TOTAL     ACCESS: 34146824  HIT: 34146824  MISS:     0  HIT %:   100  MISS %:     0  AVERAGE MISS PENALTY: 0
ITLB LOAD      ACCESS: 34146824  HIT: 34146824  MISS:     0  HIT %:   100  MISS %:     0  AVERAGE MISS PENALTY: 0
ITLB RFO       ACCESS:     0  HIT:     0  MISS:     0  HIT %:     0  MISS %:     0  AVERAGE MISS PENALTY: 0
ITLB PREFETCH  ACCESS:     0  HIT:     0  MISS:     0  HIT %:     0  MISS %:     0  AVERAGE MISS PENALTY: 0
ITLB WRITEBACK ACCESS:     0  HIT:     0  MISS:     0  HIT %:     0  MISS %:     0  AVERAGE MISS PENALTY: 0
ITLB PREFETCH  REQUESTED:     0  ISSUED:     0  USEFUL:     0  USELESS:     0
 USEFUL LOAD PREFETCHES:          0 PREFETCH ISSUED TO LOWER LEVEL:          0  ACCURACY: -nan
 TIMELY PREFETCHES:          0 LATE PREFETCHES: 0 DROPPED PREFETCHES: 0
ITLB AVERAGE MISS LATENCY: -nan cycles
DTLB TOTAL     ACCESS: 78323154  HIT: 55396410  MISS: 22926744  HIT %: 70.728  MISS %: 29.272  AVERAGE MISS PENALTY: 9.18669
DTLB LOAD      ACCESS: 75585628  HIT: 52663828  MISS: 22921800  HIT %: 69.6744  MISS %: 30.3256  AVERAGE MISS PENALTY: 9.18332
DTLB RFO       ACCESS: 2737526  HIT: 2732582  MISS:  4944  HIT %: 99.8194  MISS %: 0.180601  AVERAGE MISS PENALTY: 24.8157
DTLB PREFETCH  ACCESS:     0  HIT:     0  MISS:     0  HIT %:     0  MISS %:     0  AVERAGE MISS PENALTY: 0
DTLB WRITEBACK ACCESS:     0  HIT:     0  MISS:     0  HIT %:     0  MISS %:     0  AVERAGE MISS PENALTY: 0
DTLB PREFETCH  REQUESTED:     0  ISSUED:     0  USEFUL:     0  USELESS:     0
 USEFUL LOAD PREFETCHES:          0 PREFETCH ISSUED TO LOWER LEVEL:          0  ACCURACY: -nan
 TIMELY PREFETCHES:          0 LATE PREFETCHES: 0 DROPPED PREFETCHES: 0
DTLB AVERAGE MISS LATENCY: 9.18669 cycles
STLB TOTAL     ACCESS: 22926744  HIT: 22885930  MISS: 40814  HIT %: 99.822  MISS %: 0.178019  AVERAGE MISS PENALTY: 100
STLB LOAD      ACCESS: 22921800  HIT: 22881761  MISS: 40039  HIT %: 99.8253  MISS %: 0.174677  AVERAGE MISS PENALTY: 100
STLB RFO       ACCESS:  4944  HIT:  4169  MISS:   775  HIT %: 84.3244  MISS %: 15.6756  AVERAGE MISS PENALTY: 100
STLB PREFETCH  ACCESS:     0  HIT:     0  MISS:     0  HIT %:     0  MISS %:     0  AVERAGE MISS PENALTY: 0
STLB WRITEBACK ACCESS:     0  HIT:     0  MISS:     0  HIT %:     0  MISS %:     0  AVERAGE MISS PENALTY: 0
STLB PREFETCH  REQUESTED:     0  ISSUED:     0  USEFUL:     0  USELESS:     0
 USEFUL LOAD PREFETCHES:          0 PREFETCH ISSUED TO LOWER LEVEL:          0  ACCURACY: -nan
 TIMELY PREFETCHES:          0 LATE PREFETCHES: 0 DROPPED PREFETCHES: 0
STLB AVERAGE MISS LATENCY: 100 cycles
L1D TOTAL     ACCESS: 258343948  HIT: 48440033  MISS: 209903915  HIT %: 18.7502  MISS %: 81.2498  AVERAGE MISS PENALTY: 4.09349e+06
L1D LOAD      ACCESS: 66655588  HIT: 35003081  MISS: 31652507  HIT %: 52.5133  MISS %: 47.4867  AVERAGE MISS PENALTY: 2.71456e+07
L1D RFO       ACCESS: 2771523  HIT: 2705963  MISS: 65560  HIT %: 97.6345  MISS %: 2.36549  AVERAGE MISS PENALTY: 81.6874
L1D PREFETCH  ACCESS: 188916837  HIT: 10730989  MISS: 178185848  HIT %: 5.68027  MISS %: 94.3197  AVERAGE MISS PENALTY: 68.8852
L1D WRITEBACK ACCESS:     0  HIT:     0  MISS:     0  HIT %:     0  MISS %:     0  AVERAGE MISS PENALTY: 0
L1D PREFETCH  REQUESTED: 193796627  ISSUED: 192834725  USEFUL: 4192734  USELESS: 173993073
 USEFUL LOAD PREFETCHES:    4192734 PREFETCH ISSUED TO LOWER LEVEL:  181909756  ACCURACY: 2.30484
 TIMELY PREFETCHES:    4192734 LATE PREFETCHES: 634342 DROPPED PREFETCHES: 961902
L1D AVERAGE MISS LATENCY: 52.4405 cycles
L1I TOTAL     ACCESS: 35893153  HIT: 35893140  MISS:    13  HIT %:   100  MISS %: 3.62186e-05  AVERAGE MISS PENALTY: 138.385
L1I LOAD      ACCESS: 35893153  HIT: 35893140  MISS:    13  HIT %:   100  MISS %: 3.62186e-05  AVERAGE MISS PENALTY: 138.385
L1I RFO       ACCESS:     0  HIT:     0  MISS:     0  HIT %:     0  MISS %:     0  AVERAGE MISS PENALTY: 0
L1I PREFETCH  ACCESS:     0  HIT:     0  MISS:     0  HIT %:     0  MISS %:     0  AVERAGE MISS PENALTY: 0
L1I WRITEBACK ACCESS:     0  HIT:     0  MISS:     0  HIT %:     0  MISS %:     0  AVERAGE MISS PENALTY: 0
L1I PREFETCH  REQUESTED:     0  ISSUED:     0  USEFUL:     0  USELESS:     0
 USEFUL LOAD PREFETCHES:          0 PREFETCH ISSUED TO LOWER LEVEL:          0  ACCURACY: -nan
 TIMELY PREFETCHES:          0 LATE PREFETCHES: 0 DROPPED PREFETCHES: 0
L1I AVERAGE MISS LATENCY: 138.385 cycles
L2C TOTAL     ACCESS: 351677751  HIT: 25047961  MISS: 326629790  HIT %: 7.12242  MISS %: 92.8776  AVERAGE MISS PENALTY: 2.19123e+06
L2C LOAD      ACCESS: 31580574  HIT: 1843811  MISS: 29736763  HIT %: 5.83843  MISS %: 94.1616  AVERAGE MISS PENALTY: 2.40681e+07
L2C RFO       ACCESS: 65560  HIT:    89  MISS: 65471  HIT %: 0.135754  MISS %: 99.8642  AVERAGE MISS PENALTY: 66.747
L2C PREFETCH  ACCESS: 319794293  HIT: 22966789  MISS: 296827504  HIT %: 7.18174  MISS %: 92.8183  AVERAGE MISS PENALTY: 39.7669
L2C WRITEBACK ACCESS: 237324  HIT: 237272  MISS:    52  HIT %: 99.9781  MISS %: 0.021911  AVERAGE MISS PENALTY: 0
L2C PREFETCH  REQUESTED: 786752932  ISSUED: 786736803  USEFUL: 1392072  USELESS: 295434580
 USEFUL LOAD PREFETCHES:    1392072 PREFETCH ISSUED TO LOWER LEVEL:  300514250  ACCURACY: 0.46323
 TIMELY PREFETCHES:    1392072 LATE PREFETCHES: 650157 DROPPED PREFETCHES: 16129
L2C AVERAGE MISS LATENCY: 39.0685 cycles
LLC0 TOTAL     ACCESS: 41987079  HIT: 41640941  MISS: 346138  HIT %: 99.1756  MISS %: 0.824392  AVERAGE MISS PENALTY: 120.532
LLC0 LOAD      ACCESS: 3746910  HIT: 3705386  MISS: 41524  HIT %: 98.8918  MISS %: 1.10822  AVERAGE MISS PENALTY: 132.66
LLC0 RFO       ACCESS:  8187  HIT:  6900  MISS:  1287  HIT %: 84.28  MISS %: 15.72  AVERAGE MISS PENALTY: 156.644
LLC0 PREFETCH  ACCESS: 38214968  HIT: 37911872  MISS: 303096  HIT %: 99.2069  MISS %: 0.793134  AVERAGE MISS PENALTY: 118.809
LLC0 WRITEBACK ACCESS: 17014  HIT: 16783  MISS:   231  HIT %: 98.6423  MISS %: 1.35771  AVERAGE MISS PENALTY: 0
LLC0 PREFETCH  REQUESTED:     0  ISSUED:     0  USEFUL: 36453  USELESS: 264121
 USEFUL LOAD PREFETCHES:      36453 PREFETCH ISSUED TO LOWER LEVEL:     303096  ACCURACY: 12.0269
 TIMELY PREFETCHES:      36453 LATE PREFETCHES: 0 DROPPED PREFETCHES: 0
LLC0 AVERAGE MISS LATENCY: 120.532 cycles
Deadblocks : 36409 Deadblock percentage : 87.6818

LLC1 TOTAL     ACCESS: 42112842  HIT: 41766205  MISS: 346637  HIT %: 99.1769  MISS %: 0.823115  AVERAGE MISS PENALTY: 121.424
LLC1 LOAD      ACCESS: 3828742  HIT: 3820637  MISS:  8105  HIT %: 99.7883  MISS %: 0.211688  AVERAGE MISS PENALTY: 152.777
LLC1 RFO       ACCESS:  8187  HIT:  6846  MISS:  1341  HIT %: 83.6204  MISS %: 16.3796  AVERAGE MISS PENALTY: 159.05
LLC1 PREFETCH  ACCESS: 38258901  HIT: 37921932  MISS: 336969  HIT %: 99.1192  MISS %: 0.88076  AVERAGE MISS PENALTY: 120.6
LLC1 WRITEBACK ACCESS: 17012  HIT: 16790  MISS:   222  HIT %: 98.695  MISS %: 1.30496  AVERAGE MISS PENALTY: 0
LLC1 PREFETCH  REQUESTED:     0  ISSUED:     0  USEFUL: 36786  USELESS: 297254
 USEFUL LOAD PREFETCHES:      36786 PREFETCH ISSUED TO LOWER LEVEL:     336969  ACCURACY: 10.9167
 TIMELY PREFETCHES:      36786 LATE PREFETCHES: 0 DROPPED PREFETCHES: 0
LLC1 AVERAGE MISS LATENCY: 121.424 cycles
LLC2 TOTAL     ACCESS: 41595962  HIT: 41249344  MISS: 346618  HIT %: 99.1667  MISS %: 0.833297  AVERAGE MISS PENALTY: 122.198
LLC2 LOAD      ACCESS: 3589514  HIT: 3585972  MISS:  3542  HIT %: 99.9013  MISS %: 0.0986763  AVERAGE MISS PENALTY: 177.977
LLC2 RFO       ACCESS:  8185  HIT:  6826  MISS:  1359  HIT %: 83.3965  MISS %: 16.6035  AVERAGE MISS PENALTY: 162.315
LLC2 PREFETCH  ACCESS: 37981248  HIT: 37639779  MISS: 341469  HIT %: 99.101  MISS %: 0.899046  AVERAGE MISS PENALTY: 121.549
LLC2 WRITEBACK ACCESS: 17015  HIT: 16767  MISS:   248  HIT %: 98.5425  MISS %: 1.45754  AVERAGE MISS PENALTY: 0
LLC2 PREFETCH  REQUESTED:     0  ISSUED:     0  USEFUL: 36564  USELESS: 301664
 USEFUL LOAD PREFETCHES:      36564 PREFETCH ISSUED TO LOWER LEVEL:     341469  ACCURACY: 10.7079
 TIMELY PREFETCHES:      36564 LATE PREFETCHES: 0 DROPPED PREFETCHES: 0
LLC2 AVERAGE MISS LATENCY: 122.198 cycles
LLC3 TOTAL     ACCESS: 41080355  HIT: 40733541  MISS: 346814  HIT %: 99.1558  MISS %: 0.844233  AVERAGE MISS PENALTY: 122.738
LLC3 LOAD      ACCESS: 3772607  HIT: 3768977  MISS:  3630  HIT %: 99.9038  MISS %: 0.0962199  AVERAGE MISS PENALTY: 177.746
LLC3 RFO       ACCESS:  8184  HIT:  6882  MISS:  1302  HIT %: 84.0909  MISS %: 15.9091  AVERAGE MISS PENALTY: 158.251
LLC3 PREFETCH  ACCESS: 37282551  HIT: 36940918  MISS: 341633  HIT %: 99.0837  MISS %: 0.916335  AVERAGE MISS PENALTY: 122.108
LLC3 WRITEBACK ACCESS: 17013  HIT: 16764  MISS:   249  HIT %: 98.5364  MISS %: 1.46359  AVERAGE MISS PENALTY: 0
LLC3 PREFETCH  REQUESTED:     0  ISSUED:     0  USEFUL: 36857  USELESS: 301759
 USEFUL LOAD PREFETCHES:      36857 PREFETCH ISSUED TO LOWER LEVEL:     341633  ACCURACY: 10.7885
 TIMELY PREFETCHES:      36857 LATE PREFETCHES: 0 DROPPED PREFETCHES: 0
LLC3 AVERAGE MISS LATENCY: 122.738 cycles
LLC4 TOTAL     ACCESS: 40800648  HIT: 40454006  MISS: 346642  HIT %: 99.1504  MISS %: 0.849599  AVERAGE MISS PENALTY: 122.989
LLC4 LOAD      ACCESS: 3519563  HIT: 3516030  MISS:  3533  HIT %: 99.8996  MISS %: 0.100382  AVERAGE MISS PENALTY: 177.689
LLC4 RFO       ACCESS:  8183  HIT:  6837  MISS:  1346  HIT %: 83.5513  MISS %: 16.4487  AVERAGE MISS PENALTY: 156.194
LLC4 PREFETCH  ACCESS: 37255884  HIT: 36914368  MISS: 341516  HIT %: 99.0833  MISS %: 0.916677  AVERAGE MISS PENALTY: 122.381
LLC4 WRITEBACK ACCESS: 17018  HIT: 16771  MISS:   247  HIT %: 98.5486  MISS %: 1.4514  AVERAGE MISS PENALTY: 0
LLC4 PREFETCH  REQUESTED:     0  ISSUED:     0  USEFUL: 36558  USELESS: 301954
 USEFUL LOAD PREFETCHES:      36558 PREFETCH ISSUED TO LOWER LEVEL:     341516  ACCURACY: 10.7046
 TIMELY PREFETCHES:      36558 LATE PREFETCHES: 0 DROPPED PREFETCHES: 0
LLC4 AVERAGE MISS LATENCY: 122.989 cycles
LLC5 TOTAL     ACCESS: 40518906  HIT: 40172336  MISS: 346570  HIT %: 99.1447  MISS %: 0.855329  AVERAGE MISS PENALTY: 123.488
LLC5 LOAD      ACCESS: 3761333  HIT: 3757380  MISS:  3953  HIT %: 99.8949  MISS %: 0.105096  AVERAGE MISS PENALTY: 177.927
LLC5 RFO       ACCESS:  8181  HIT:  6794  MISS:  1387  HIT %: 83.0461  MISS %: 16.9539  AVERAGE MISS PENALTY: 161.348
LLC5 PREFETCH  ACCESS: 36732379  HIT: 36391406  MISS: 340973  HIT %: 99.0717  MISS %: 0.928263  AVERAGE MISS PENALTY: 122.796
LLC5 WRITEBACK ACCESS: 17013  HIT: 16756  MISS:   257  HIT %: 98.4894  MISS %: 1.51061  AVERAGE MISS PENALTY: 0
LLC5 PREFETCH  REQUESTED:     0  ISSUED:     0  USEFUL: 36301  USELESS: 301735
 USEFUL LOAD PREFETCHES:      36301 PREFETCH ISSUED TO LOWER LEVEL:     340973  ACCURACY: 10.6463
 TIMELY PREFETCHES:      36301 LATE PREFETCHES: 0 DROPPED PREFETCHES: 0
LLC5 AVERAGE MISS LATENCY: 123.488 cycles
LLC6 TOTAL     ACCESS: 39696140  HIT: 39349655  MISS: 346485  HIT %: 99.1272  MISS %: 0.872843  AVERAGE MISS PENALTY: 123.526
LLC6 LOAD      ACCESS: 3785702  HIT: 3781620  MISS:  4082  HIT %: 99.8922  MISS %: 0.107827  AVERAGE MISS PENALTY: 177.215
LLC6 RFO       ACCESS:  8182  HIT:  6894  MISS:  1288  HIT %: 84.2581  MISS %: 15.7419  AVERAGE MISS PENALTY: 154.165
LLC6 PREFETCH  ACCESS: 35885244  HIT: 35544361  MISS: 340883  HIT %: 99.0501  MISS %: 0.949925  AVERAGE MISS PENALTY: 122.851
LLC6 WRITEBACK ACCESS: 17012  HIT: 16780  MISS:   232  HIT %: 98.6363  MISS %: 1.36374  AVERAGE MISS PENALTY: 0
LLC6 PREFETCH  REQUESTED:     0  ISSUED:     0  USEFUL: 36124  USELESS: 301785
 USEFUL LOAD PREFETCHES:      36124 PREFETCH ISSUED TO LOWER LEVEL:     340883  ACCURACY: 10.5972
 TIMELY PREFETCHES:      36124 LATE PREFETCHES: 0 DROPPED PREFETCHES: 0
LLC6 AVERAGE MISS LATENCY: 123.526 cycles
LLC7 TOTAL     ACCESS: 38973915  HIT: 38627338  MISS: 346577  HIT %: 99.1107  MISS %: 0.889254  AVERAGE MISS PENALTY: 123.506
LLC7 LOAD      ACCESS: 3647243  HIT: 3642979  MISS:  4264  HIT %: 99.8831  MISS %: 0.11691  AVERAGE MISS PENALTY: 178.183
LLC7 RFO       ACCESS:  8182  HIT:  6836  MISS:  1346  HIT %: 83.5493  MISS %: 16.4507  AVERAGE MISS PENALTY: 158.042
LLC7 PREFETCH  ACCESS: 35301478  HIT: 34960740  MISS: 340738  HIT %: 99.0348  MISS %: 0.965223  AVERAGE MISS PENALTY: 122.769
LLC7 WRITEBACK ACCESS: 17012  HIT: 16783  MISS:   229  HIT %: 98.6539  MISS %: 1.34611  AVERAGE MISS PENALTY: 0
LLC7 PREFETCH  REQUESTED:     0  ISSUED:     0  USEFUL: 35916  USELESS: 301821
 USEFUL LOAD PREFETCHES:      35916 PREFETCH ISSUED TO LOWER LEVEL:     340738  ACCURACY: 10.5407
 TIMELY PREFETCHES:      35916 LATE PREFETCHES: 0 DROPPED PREFETCHES: 0
LLC7 AVERAGE MISS LATENCY: 123.506 cycles
ROI Average ROB Stall Cycles:	54.2805
ROI Total ROB Stalls Cycles:	2310887597
ROI TOTAL ROB counter      :	42573038
ROI Average Load ROB Stall Cycles:	63.4002
ROI Total Load ROB Stalls Cycle  :	2228734398
ROI Total Load ROB stalls Counter:	35153425
Major fault: 0 Minor fault: 34813

