
*** ChampSim Multicore Out-of-Order Simulator ***

Warmup Instructions: 200000000
Simulation Instructions: 200000000
Number of CPUs: 1
threads:1

L1I Configuration:
L1I_SET:64
L1I_WAY:8
L1I_RQ_SIZE:64
L1I_WQ_SIZE:64
L1I_PQ_SIZE:8
L1I_MSHR_SIZE:8

L1D Configuration:
L1D_SET:64
L1D_WAY:12
L1D_RQ_SIZE:64
L1D_WQ_SIZE:64
L1D_PQ_SIZE:8
L1D_MSHR_SIZE:16

L2C Configuration:
L2C_SET:1024
L2C_WAY:8
L2C_RQ_SIZE:32
L2C_WQ_SIZE:32
L2C_PQ_SIZE:16
L2C_MSHR_SIZE:32

LLC Configuration:
LLC_SET:2048
LLC_WAY:16
LLC SLICES:8
LLC_RQ_SIZE:64
LLC_WQ_SIZE:64
LLC_PQ_SIZE:32
LLC_MSHR_SIZE:64

Interconnect OFF
Attacker deprioritize is: OFF
Off-chip DRAM Size: 4096 MB Channels: 1 Width: 64-bit Data Rate: 3200 MT/s
PAGE SIZE in KB: 4.000000 
PAGE SIZE in MB: 0.003906 
PAGE offset in bits: 12 
CEASER-S_LLC:0
MIRAGE : 1
CEASER_LATENCY:3
REMAP : OFF
Partitions : 1
Multi-Step : OFF
BFS : OFF

CPU 0 runs /home/anubhav/gap/sssp-5.trace.gz
CPU 0 Bimodal branch predictor
Initialize Hawkeye state
Initialize Hawkeye state
Initialize Hawkeye state
Initialize Hawkeye state
Initialize Hawkeye state
Initialize Hawkeye state
Initialize Hawkeye state
Initialize Hawkeye state
Heartbeat CPU 0 instructions: 10000000 cycles: 7152658 heartbeat IPC: 1.39808 cumulative IPC: 1.39808 (Simulation time: 0 hr 0 min 55 sec) 
 Total Blocks : 262144 Invalid Blocks : 160192
Heartbeat CPU 0 instructions: 20000003 cycles: 15371379 heartbeat IPC: 1.21673 cumulative IPC: 1.30112 (Simulation time: 0 hr 2 min 9 sec) 
 Total Blocks : 262144 Invalid Blocks : 116231
Heartbeat CPU 0 instructions: 30000002 cycles: 22937306 heartbeat IPC: 1.32171 cumulative IPC: 1.30791 (Simulation time: 0 hr 3 min 28 sec) 
 Total Blocks : 262144 Invalid Blocks : 84588
Heartbeat CPU 0 instructions: 40000003 cycles: 29973187 heartbeat IPC: 1.42129 cumulative IPC: 1.33453 (Simulation time: 0 hr 4 min 50 sec) 
 Total Blocks : 262144 Invalid Blocks : 60818
Heartbeat CPU 0 instructions: 50000002 cycles: 36752949 heartbeat IPC: 1.47498 cumulative IPC: 1.36044 (Simulation time: 0 hr 6 min 11 sec) 
 Total Blocks : 262144 Invalid Blocks : 43550
Heartbeat CPU 0 instructions: 60000001 cycles: 43218430 heartbeat IPC: 1.54668 cumulative IPC: 1.3883 (Simulation time: 0 hr 7 min 36 sec) 
 Total Blocks : 262144 Invalid Blocks : 31107
Heartbeat CPU 0 instructions: 70000000 cycles: 49525519 heartbeat IPC: 1.58552 cumulative IPC: 1.41341 (Simulation time: 0 hr 9 min 2 sec) 
 Total Blocks : 262144 Invalid Blocks : 22289
Heartbeat CPU 0 instructions: 80000003 cycles: 55830505 heartbeat IPC: 1.58605 cumulative IPC: 1.43291 (Simulation time: 0 hr 10 min 25 sec) 
 Total Blocks : 262144 Invalid Blocks : 15878
Heartbeat CPU 0 instructions: 90000000 cycles: 61818867 heartbeat IPC: 1.66991 cumulative IPC: 1.45587 (Simulation time: 0 hr 11 min 55 sec) 
 Total Blocks : 262144 Invalid Blocks : 11163
Heartbeat CPU 0 instructions: 100000000 cycles: 67738976 heartbeat IPC: 1.68916 cumulative IPC: 1.47625 (Simulation time: 0 hr 13 min 26 sec) 
 Total Blocks : 262144 Invalid Blocks : 8018
Heartbeat CPU 0 instructions: 110000000 cycles: 73527262 heartbeat IPC: 1.72763 cumulative IPC: 1.49604 (Simulation time: 0 hr 15 min 1 sec) 
 Total Blocks : 262144 Invalid Blocks : 5590
Heartbeat CPU 0 instructions: 120000002 cycles: 79248711 heartbeat IPC: 1.74781 cumulative IPC: 1.51422 (Simulation time: 0 hr 16 min 37 sec) 
 Total Blocks : 262144 Invalid Blocks : 3988
Heartbeat CPU 0 instructions: 130000000 cycles: 84970674 heartbeat IPC: 1.74765 cumulative IPC: 1.52994 (Simulation time: 0 hr 18 min 10 sec) 
 Total Blocks : 262144 Invalid Blocks : 2844
Heartbeat CPU 0 instructions: 140000003 cycles: 90600012 heartbeat IPC: 1.77641 cumulative IPC: 1.54525 (Simulation time: 0 hr 19 min 48 sec) 
 Total Blocks : 262144 Invalid Blocks : 2002
Heartbeat CPU 0 instructions: 150000003 cycles: 96164519 heartbeat IPC: 1.7971 cumulative IPC: 1.55983 (Simulation time: 0 hr 21 min 28 sec) 
 Total Blocks : 262144 Invalid Blocks : 1409
Heartbeat CPU 0 instructions: 160000003 cycles: 101684883 heartbeat IPC: 1.81147 cumulative IPC: 1.57349 (Simulation time: 0 hr 23 min 10 sec) 
 Total Blocks : 262144 Invalid Blocks : 970
Heartbeat CPU 0 instructions: 170000000 cycles: 107162015 heartbeat IPC: 1.82577 cumulative IPC: 1.58638 (Simulation time: 0 hr 24 min 54 sec) 
 Total Blocks : 262144 Invalid Blocks : 690
Heartbeat CPU 0 instructions: 180000003 cycles: 112611448 heartbeat IPC: 1.83505 cumulative IPC: 1.59842 (Simulation time: 0 hr 26 min 39 sec) 
 Total Blocks : 262144 Invalid Blocks : 476
Heartbeat CPU 0 instructions: 190000000 cycles: 118043124 heartbeat IPC: 1.84105 cumulative IPC: 1.60958 (Simulation time: 0 hr 28 min 23 sec) 
 Total Blocks : 262144 Invalid Blocks : 339
Heartbeat CPU 0 instructions: 200000000 cycles: 123408624 heartbeat IPC: 1.86376 cumulative IPC: 1.62063 (Simulation time: 0 hr 30 min 12 sec) 
 Total Blocks : 262144 Invalid Blocks : 230

Warmup complete CPU 0 instructions: 200000004 cycles: 123408625 (Simulation time: 0 hr 30 min 12 sec) 

Heartbeat CPU 0 instructions: 210000000 cycles: 138028564 heartbeat IPC: 0.683997 cumulative IPC: 0.683997 (Simulation time: 0 hr 32 min 44 sec) 
 Total Blocks : 262144 Invalid Blocks : 160
Heartbeat CPU 0 instructions: 220000000 cycles: 152828594 heartbeat IPC: 0.675674 cumulative IPC: 0.67981 (Simulation time: 0 hr 35 min 22 sec) 
 Total Blocks : 262144 Invalid Blocks : 102
Heartbeat CPU 0 instructions: 230000000 cycles: 167504727 heartbeat IPC: 0.681378 cumulative IPC: 0.680332 (Simulation time: 0 hr 37 min 59 sec) 
 Total Blocks : 262144 Invalid Blocks : 77
Heartbeat CPU 0 instructions: 240000002 cycles: 181893284 heartbeat IPC: 0.694997 cumulative IPC: 0.68394 (Simulation time: 0 hr 40 min 34 sec) 
 Total Blocks : 262144 Invalid Blocks : 52
Heartbeat CPU 0 instructions: 250000003 cycles: 196451635 heartbeat IPC: 0.686891 cumulative IPC: 0.684528 (Simulation time: 0 hr 43 min 14 sec) 
 Total Blocks : 262144 Invalid Blocks : 33
Heartbeat CPU 0 instructions: 260000002 cycles: 211069377 heartbeat IPC: 0.6841 cumulative IPC: 0.684457 (Simulation time: 0 hr 45 min 54 sec) 
 Total Blocks : 262144 Invalid Blocks : 21
Heartbeat CPU 0 instructions: 270000000 cycles: 225773351 heartbeat IPC: 0.680088 cumulative IPC: 0.683829 (Simulation time: 0 hr 48 min 38 sec) 
 Total Blocks : 262144 Invalid Blocks : 12
Heartbeat CPU 0 instructions: 280000001 cycles: 240399183 heartbeat IPC: 0.683722 cumulative IPC: 0.683816 (Simulation time: 0 hr 51 min 23 sec) 
 Total Blocks : 262144 Invalid Blocks : 11
Heartbeat CPU 0 instructions: 290000000 cycles: 254957489 heartbeat IPC: 0.686893 cumulative IPC: 0.684156 (Simulation time: 0 hr 54 min 7 sec) 
 Total Blocks : 262144 Invalid Blocks : 6
Heartbeat CPU 0 instructions: 300000001 cycles: 269757554 heartbeat IPC: 0.675673 cumulative IPC: 0.683298 (Simulation time: 0 hr 56 min 55 sec) 
 Total Blocks : 262144 Invalid Blocks : 3
Heartbeat CPU 0 instructions: 310000002 cycles: 284385475 heartbeat IPC: 0.683624 cumulative IPC: 0.683328 (Simulation time: 0 hr 59 min 41 sec) 
 Total Blocks : 262144 Invalid Blocks : 3
Heartbeat CPU 0 instructions: 320000003 cycles: 299232318 heartbeat IPC: 0.673544 cumulative IPC: 0.682502 (Simulation time: 1 hr 2 min 29 sec) 
 Total Blocks : 262144 Invalid Blocks : 1
Heartbeat CPU 0 instructions: 330000000 cycles: 314027831 heartbeat IPC: 0.67588 cumulative IPC: 0.681988 (Simulation time: 1 hr 5 min 17 sec) 
 Total Blocks : 262144 Invalid Blocks : 1
Heartbeat CPU 0 instructions: 340000002 cycles: 329033023 heartbeat IPC: 0.666436 cumulative IPC: 0.680853 (Simulation time: 1 hr 8 min 12 sec) 
 Total Blocks : 262144 Invalid Blocks : 1
Heartbeat CPU 0 instructions: 350000001 cycles: 343861978 heartbeat IPC: 0.674356 cumulative IPC: 0.680416 (Simulation time: 1 hr 11 min 8 sec) 
 Total Blocks : 262144 Invalid Blocks : 1
Heartbeat CPU 0 instructions: 360000001 cycles: 358802313 heartbeat IPC: 0.669329 cumulative IPC: 0.679712 (Simulation time: 1 hr 14 min 4 sec) 
 Total Blocks : 262144 Invalid Blocks : 1
Heartbeat CPU 0 instructions: 370000000 cycles: 373796762 heartbeat IPC: 0.666913 cumulative IPC: 0.678946 (Simulation time: 1 hr 16 min 54 sec) 
 Total Blocks : 262144 Invalid Blocks : 0
Heartbeat CPU 0 instructions: 380000000 cycles: 389006118 heartbeat IPC: 0.65749 cumulative IPC: 0.677717 (Simulation time: 1 hr 19 min 46 sec) 
 Total Blocks : 262144 Invalid Blocks : 0
Heartbeat CPU 0 instructions: 390000000 cycles: 404197544 heartbeat IPC: 0.658266 cumulative IPC: 0.676665 (Simulation time: 1 hr 22 min 34 sec) 
 Total Blocks : 262144 Invalid Blocks : 0
Heartbeat CPU 0 instructions: 400000002 cycles: 419562043 heartbeat IPC: 0.650851 cumulative IPC: 0.675326 (Simulation time: 1 hr 25 min 19 sec) 
 Total Blocks : 262144 Invalid Blocks : 0
Finished CPU 0 instructions: 200000002 cycles: 296153419 cumulative IPC: 0.675326 (Simulation time: 1 hr 25 min 19 sec) 

CPU 0 Branch Prediction Accuracy: 98.7969% MPKI: 1.79561 Average ROB Occupancy at Mispredict: 259.778

ChampSim completed all CPUs

Region of Interest Statistics

CPU 0 cumulative IPC: 0.675326 instructions: 200000002 cycles: 296153419
ITLB TOTAL     ACCESS: 31240841  HIT: 31240841  MISS:     0  HIT %:   100  MISS %:     0  AVERAGE MISS PENALTY: 0
ITLB LOAD      ACCESS: 31240841  HIT: 31240841  MISS:     0  HIT %:   100  MISS %:     0  AVERAGE MISS PENALTY: 0
ITLB RFO       ACCESS:     0  HIT:     0  MISS:     0  HIT %:     0  MISS %:     0  AVERAGE MISS PENALTY: 0
ITLB PREFETCH  ACCESS:     0  HIT:     0  MISS:     0  HIT %:     0  MISS %:     0  AVERAGE MISS PENALTY: 0
ITLB WRITEBACK ACCESS:     0  HIT:     0  MISS:     0  HIT %:     0  MISS %:     0  AVERAGE MISS PENALTY: 0
ITLB PREFETCH  REQUESTED:     0  ISSUED:     0  USEFUL:     0  USELESS:     0
 USEFUL LOAD PREFETCHES:          0 PREFETCH ISSUED TO LOWER LEVEL:          0  ACCURACY: -nan
 TIMELY PREFETCHES:          0 LATE PREFETCHES: 0 DROPPED PREFETCHES: 0
ITLB AVERAGE MISS LATENCY: -nan cycles
DTLB TOTAL     ACCESS: 55234682  HIT: 48686934  MISS: 6547748  HIT %: 88.1456  MISS %: 11.8544  AVERAGE MISS PENALTY: 10.852
DTLB LOAD      ACCESS: 54191636  HIT: 47943588  MISS: 6248048  HIT %: 88.4705  MISS %: 11.5295  AVERAGE MISS PENALTY: 10.6507
DTLB RFO       ACCESS: 1043046  HIT: 743346  MISS: 299700  HIT %: 71.2668  MISS %: 28.7332  AVERAGE MISS PENALTY: 15.0493
DTLB PREFETCH  ACCESS:     0  HIT:     0  MISS:     0  HIT %:     0  MISS %:     0  AVERAGE MISS PENALTY: 0
DTLB WRITEBACK ACCESS:     0  HIT:     0  MISS:     0  HIT %:     0  MISS %:     0  AVERAGE MISS PENALTY: 0
DTLB PREFETCH  REQUESTED:     0  ISSUED:     0  USEFUL:     0  USELESS:     0
 USEFUL LOAD PREFETCHES:          0 PREFETCH ISSUED TO LOWER LEVEL:          0  ACCURACY: -nan
 TIMELY PREFETCHES:          0 LATE PREFETCHES: 0 DROPPED PREFETCHES: 0
DTLB AVERAGE MISS LATENCY: 10.852 cycles
STLB TOTAL     ACCESS: 6547748  HIT: 6452659  MISS: 95089  HIT %: 98.5478  MISS %: 1.45224  AVERAGE MISS PENALTY: 100
STLB LOAD      ACCESS: 6248048  HIT: 6171022  MISS: 77026  HIT %: 98.7672  MISS %: 1.2328  AVERAGE MISS PENALTY: 100
STLB RFO       ACCESS: 299700  HIT: 281637  MISS: 18063  HIT %: 93.973  MISS %: 6.02703  AVERAGE MISS PENALTY: 100
STLB PREFETCH  ACCESS:     0  HIT:     0  MISS:     0  HIT %:     0  MISS %:     0  AVERAGE MISS PENALTY: 0
STLB WRITEBACK ACCESS:     0  HIT:     0  MISS:     0  HIT %:     0  MISS %:     0  AVERAGE MISS PENALTY: 0
STLB PREFETCH  REQUESTED:     0  ISSUED:     0  USEFUL:     0  USELESS:     0
 USEFUL LOAD PREFETCHES:          0 PREFETCH ISSUED TO LOWER LEVEL:          0  ACCURACY: -nan
 TIMELY PREFETCHES:          0 LATE PREFETCHES: 0 DROPPED PREFETCHES: 0
STLB AVERAGE MISS LATENCY: 100 cycles
L1D TOTAL     ACCESS: 84560017  HIT: 42120866  MISS: 42439151  HIT %: 49.8118  MISS %: 50.1882  AVERAGE MISS PENALTY: 748130
L1D LOAD      ACCESS: 45679111  HIT: 35838903  MISS: 9840208  HIT %: 78.458  MISS %: 21.542  AVERAGE MISS PENALTY: 3.22634e+06
L1D RFO       ACCESS: 1048778  HIT: 726895  MISS: 321883  HIT %: 69.3088  MISS %: 30.6912  AVERAGE MISS PENALTY: 71.8302
L1D PREFETCH  ACCESS: 37832128  HIT: 5555068  MISS: 32277060  HIT %: 14.6835  MISS %: 85.3165  AVERAGE MISS PENALTY: 66.2836
L1D WRITEBACK ACCESS:     0  HIT:     0  MISS:     0  HIT %:     0  MISS %:     0  AVERAGE MISS PENALTY: 0
L1D PREFETCH  REQUESTED: 60681952  ISSUED: 38915312  USEFUL: 1248710  USELESS: 31028366
 USEFUL LOAD PREFETCHES:    1248710 PREFETCH ISSUED TO LOWER LEVEL:   98544746  ACCURACY: 1.26715
 TIMELY PREFETCHES:    1248710 LATE PREFETCHES: 301721 DROPPED PREFETCHES: 21766640
L1D AVERAGE MISS LATENCY: 47.7242 cycles
L1I TOTAL     ACCESS: 45193312  HIT: 45193312  MISS:     0  HIT %:   100  MISS %:     0  AVERAGE MISS PENALTY: 0
L1I LOAD      ACCESS: 45193312  HIT: 45193312  MISS:     0  HIT %:   100  MISS %:     0  AVERAGE MISS PENALTY: 0
L1I RFO       ACCESS:     0  HIT:     0  MISS:     0  HIT %:     0  MISS %:     0  AVERAGE MISS PENALTY: 0
L1I PREFETCH  ACCESS:     0  HIT:     0  MISS:     0  HIT %:     0  MISS %:     0  AVERAGE MISS PENALTY: 0
L1I WRITEBACK ACCESS:     0  HIT:     0  MISS:     0  HIT %:     0  MISS %:     0  AVERAGE MISS PENALTY: 0
L1I PREFETCH  REQUESTED:     0  ISSUED:     0  USEFUL:     0  USELESS:     0
 USEFUL LOAD PREFETCHES:          0 PREFETCH ISSUED TO LOWER LEVEL:          0  ACCURACY: -nan
 TIMELY PREFETCHES:          0 LATE PREFETCHES: 0 DROPPED PREFETCHES: 0
L1I AVERAGE MISS LATENCY: -nan cycles
L2C TOTAL     ACCESS: 78470128  HIT: 12315900  MISS: 66154228  HIT %: 15.695  MISS %: 84.305  AVERAGE MISS PENALTY: 438356
L2C LOAD      ACCESS: 9817783  HIT: 1168463  MISS: 8649320  HIT %: 11.9015  MISS %: 88.0985  AVERAGE MISS PENALTY: 3.35251e+06
L2C RFO       ACCESS: 321876  HIT: 84693  MISS: 237183  HIT %: 26.3123  MISS %: 73.6877  AVERAGE MISS PENALTY: 76.7622
L2C PREFETCH  ACCESS: 67429264  HIT: 10161844  MISS: 57267420  HIT %: 15.0704  MISS %: 84.9296  AVERAGE MISS PENALTY: 38.8
L2C WRITEBACK ACCESS: 901205  HIT: 900900  MISS:   305  HIT %: 99.9662  MISS %: 0.0338436  AVERAGE MISS PENALTY: 0
L2C PREFETCH  REQUESTED: 142891305  ISSUED: 131498775  USEFUL: 516156  USELESS: 56751321
 USEFUL LOAD PREFETCHES:     516156 PREFETCH ISSUED TO LOWER LEVEL:   61048044  ACCURACY: 0.845491
 TIMELY PREFETCHES:     516156 LATE PREFETCHES: 621490 DROPPED PREFETCHES: 11392530
L2C AVERAGE MISS LATENCY: 38.8406 cycles
LLC0 TOTAL     ACCESS: 8503992  HIT: 8254138  MISS: 249854  HIT %: 97.0619  MISS %: 2.93808  AVERAGE MISS PENALTY: 145.108
LLC0 LOAD      ACCESS: 1112228  HIT: 1076401  MISS: 35827  HIT %: 96.7788  MISS %: 3.22119  AVERAGE MISS PENALTY: 162.374
LLC0 RFO       ACCESS: 29984  HIT: 24445  MISS:  5539  HIT %: 81.5268  MISS %: 18.4732  AVERAGE MISS PENALTY: 224.241
LLC0 PREFETCH  ACCESS: 7275111  HIT: 7066765  MISS: 208346  HIT %: 97.1362  MISS %: 2.86382  AVERAGE MISS PENALTY: 140.134
LLC0 WRITEBACK ACCESS: 86669  HIT: 86527  MISS:   142  HIT %: 99.8362  MISS %: 0.163842  AVERAGE MISS PENALTY: 0
LLC0 PREFETCH  REQUESTED:     0  ISSUED:     0  USEFUL: 47599  USELESS: 160573
 USEFUL LOAD PREFETCHES:      47599 PREFETCH ISSUED TO LOWER LEVEL:     208346  ACCURACY: 22.8461
 TIMELY PREFETCHES:      47599 LATE PREFETCHES: 0 DROPPED PREFETCHES: 0
LLC0 AVERAGE MISS LATENCY: 145.108 cycles
Deadblocks : 27403 Deadblock percentage : 76.487

LLC1 TOTAL     ACCESS: 8494063  HIT: 8243384  MISS: 250679  HIT %: 97.0488  MISS %: 2.95123  AVERAGE MISS PENALTY: 145.665
LLC1 LOAD      ACCESS: 1058753  HIT: 1041218  MISS: 17535  HIT %: 98.3438  MISS %: 1.65619  AVERAGE MISS PENALTY: 172.605
LLC1 RFO       ACCESS: 29921  HIT: 24406  MISS:  5515  HIT %: 81.5681  MISS %: 18.4319  AVERAGE MISS PENALTY: 225.903
LLC1 PREFETCH  ACCESS: 7318882  HIT: 7091367  MISS: 227515  HIT %: 96.8914  MISS %: 3.1086  AVERAGE MISS PENALTY: 141.716
LLC1 WRITEBACK ACCESS: 86507  HIT: 86393  MISS:   114  HIT %: 99.8682  MISS %: 0.131781  AVERAGE MISS PENALTY: 0
LLC1 PREFETCH  REQUESTED:     0  ISSUED:     0  USEFUL: 47490  USELESS: 180146
 USEFUL LOAD PREFETCHES:      47490 PREFETCH ISSUED TO LOWER LEVEL:     227515  ACCURACY: 20.8733
 TIMELY PREFETCHES:      47490 LATE PREFETCHES: 0 DROPPED PREFETCHES: 0
LLC1 AVERAGE MISS LATENCY: 145.665 cycles
LLC2 TOTAL     ACCESS: 8481856  HIT: 8230905  MISS: 250951  HIT %: 97.0413  MISS %: 2.95868  AVERAGE MISS PENALTY: 146.106
LLC2 LOAD      ACCESS: 1079553  HIT: 1062026  MISS: 17527  HIT %: 98.3765  MISS %: 1.62354  AVERAGE MISS PENALTY: 173.057
LLC2 RFO       ACCESS: 29869  HIT: 24335  MISS:  5534  HIT %: 81.4724  MISS %: 18.5276  AVERAGE MISS PENALTY: 224.856
LLC2 PREFETCH  ACCESS: 7286167  HIT: 7058380  MISS: 227787  HIT %: 96.8737  MISS %: 3.12629  AVERAGE MISS PENALTY: 142.185
LLC2 WRITEBACK ACCESS: 86267  HIT: 86164  MISS:   103  HIT %: 99.8806  MISS %: 0.119397  AVERAGE MISS PENALTY: 0
LLC2 PREFETCH  REQUESTED:     0  ISSUED:     0  USEFUL: 47424  USELESS: 180549
 USEFUL LOAD PREFETCHES:      47424 PREFETCH ISSUED TO LOWER LEVEL:     227788  ACCURACY: 20.8194
 TIMELY PREFETCHES:      47424 LATE PREFETCHES: 0 DROPPED PREFETCHES: 0
LLC2 AVERAGE MISS LATENCY: 146.106 cycles
LLC3 TOTAL     ACCESS: 8454209  HIT: 8202643  MISS: 251566  HIT %: 97.0244  MISS %: 2.97563  AVERAGE MISS PENALTY: 146.674
LLC3 LOAD      ACCESS: 1080107  HIT: 1062444  MISS: 17663  HIT %: 98.3647  MISS %: 1.6353  AVERAGE MISS PENALTY: 173.552
LLC3 RFO       ACCESS: 29709  HIT: 24194  MISS:  5515  HIT %: 81.4366  MISS %: 18.5634  AVERAGE MISS PENALTY: 226.492
LLC3 PREFETCH  ACCESS: 7258267  HIT: 7029992  MISS: 228275  HIT %: 96.855  MISS %: 3.14503  AVERAGE MISS PENALTY: 142.738
LLC3 WRITEBACK ACCESS: 86126  HIT: 86013  MISS:   113  HIT %: 99.8688  MISS %: 0.131203  AVERAGE MISS PENALTY: 0
LLC3 PREFETCH  REQUESTED:     0  ISSUED:     0  USEFUL: 47485  USELESS: 180969
 USEFUL LOAD PREFETCHES:      47485 PREFETCH ISSUED TO LOWER LEVEL:     228275  ACCURACY: 20.8017
 TIMELY PREFETCHES:      47485 LATE PREFETCHES: 0 DROPPED PREFETCHES: 0
LLC3 AVERAGE MISS LATENCY: 146.674 cycles
LLC4 TOTAL     ACCESS: 8385546  HIT: 8133347  MISS: 252199  HIT %: 96.9925  MISS %: 3.00754  AVERAGE MISS PENALTY: 147.106
LLC4 LOAD      ACCESS: 1050188  HIT: 1032557  MISS: 17631  HIT %: 98.3212  MISS %: 1.67884  AVERAGE MISS PENALTY: 173.884
LLC4 RFO       ACCESS: 29677  HIT: 24144  MISS:  5533  HIT %: 81.3559  MISS %: 18.6441  AVERAGE MISS PENALTY: 226.395
LLC4 PREFETCH  ACCESS: 7219734  HIT: 6990797  MISS: 228937  HIT %: 96.829  MISS %: 3.17099  AVERAGE MISS PENALTY: 143.191
LLC4 WRITEBACK ACCESS: 85947  HIT: 85849  MISS:    98  HIT %: 99.886  MISS %: 0.114024  AVERAGE MISS PENALTY: 0
LLC4 PREFETCH  REQUESTED:     0  ISSUED:     0  USEFUL: 47632  USELESS: 181495
 USEFUL LOAD PREFETCHES:      47632 PREFETCH ISSUED TO LOWER LEVEL:     228937  ACCURACY: 20.8057
 TIMELY PREFETCHES:      47632 LATE PREFETCHES: 0 DROPPED PREFETCHES: 0
LLC4 AVERAGE MISS LATENCY: 147.106 cycles
LLC5 TOTAL     ACCESS: 8321912  HIT: 8069151  MISS: 252761  HIT %: 96.9627  MISS %: 3.03729  AVERAGE MISS PENALTY: 147.32
LLC5 LOAD      ACCESS: 1102240  HIT: 1084187  MISS: 18053  HIT %: 98.3622  MISS %: 1.63785  AVERAGE MISS PENALTY: 174.307
LLC5 RFO       ACCESS: 29464  HIT: 23993  MISS:  5471  HIT %: 81.4316  MISS %: 18.5684  AVERAGE MISS PENALTY: 224.334
LLC5 PREFETCH  ACCESS: 7105175  HIT: 6876044  MISS: 229131  HIT %: 96.7752  MISS %: 3.22485  AVERAGE MISS PENALTY: 143.423
LLC5 WRITEBACK ACCESS: 85033  HIT: 84927  MISS:   106  HIT %: 99.8753  MISS %: 0.124657  AVERAGE MISS PENALTY: 0
LLC5 PREFETCH  REQUESTED:     0  ISSUED:     0  USEFUL: 47541  USELESS: 181609
 USEFUL LOAD PREFETCHES:      47541 PREFETCH ISSUED TO LOWER LEVEL:     229131  ACCURACY: 20.7484
 TIMELY PREFETCHES:      47541 LATE PREFETCHES: 0 DROPPED PREFETCHES: 0
LLC5 AVERAGE MISS LATENCY: 147.32 cycles
LLC6 TOTAL     ACCESS: 8169577  HIT: 7916889  MISS: 252688  HIT %: 96.907  MISS %: 3.09304  AVERAGE MISS PENALTY: 147.588
LLC6 LOAD      ACCESS: 1068040  HIT: 1049717  MISS: 18323  HIT %: 98.2844  MISS %: 1.71557  AVERAGE MISS PENALTY: 174.405
LLC6 RFO       ACCESS: 29254  HIT: 23833  MISS:  5421  HIT %: 81.4692  MISS %: 18.5308  AVERAGE MISS PENALTY: 225.054
LLC6 PREFETCH  ACCESS: 6988013  HIT: 6759179  MISS: 228834  HIT %: 96.7253  MISS %: 3.27466  AVERAGE MISS PENALTY: 143.676
LLC6 WRITEBACK ACCESS: 84270  HIT: 84160  MISS:   110  HIT %: 99.8695  MISS %: 0.130533  AVERAGE MISS PENALTY: 0
LLC6 PREFETCH  REQUESTED:     0  ISSUED:     0  USEFUL: 47169  USELESS: 181776
 USEFUL LOAD PREFETCHES:      47169 PREFETCH ISSUED TO LOWER LEVEL:     228834  ACCURACY: 20.6128
 TIMELY PREFETCHES:      47169 LATE PREFETCHES: 0 DROPPED PREFETCHES: 0
LLC6 AVERAGE MISS LATENCY: 147.588 cycles
LLC7 TOTAL     ACCESS: 8030989  HIT: 7777468  MISS: 253521  HIT %: 96.8432  MISS %: 3.15678  AVERAGE MISS PENALTY: 148.055
LLC7 LOAD      ACCESS: 1060954  HIT: 1041982  MISS: 18972  HIT %: 98.2118  MISS %: 1.7882  AVERAGE MISS PENALTY: 174.885
LLC7 RFO       ACCESS: 29280  HIT: 23721  MISS:  5559  HIT %: 81.0143  MISS %: 18.9857  AVERAGE MISS PENALTY: 223.14
LLC7 PREFETCH  ACCESS: 6853327  HIT: 6624458  MISS: 228869  HIT %: 96.6605  MISS %: 3.33953  AVERAGE MISS PENALTY: 144.085
LLC7 WRITEBACK ACCESS: 87428  HIT: 87307  MISS:   121  HIT %: 99.8616  MISS %: 0.1384  AVERAGE MISS PENALTY: 0
LLC7 PREFETCH  REQUESTED:     0  ISSUED:     0  USEFUL: 46778  USELESS: 182181
 USEFUL LOAD PREFETCHES:      46778 PREFETCH ISSUED TO LOWER LEVEL:     228869  ACCURACY: 20.4388
 TIMELY PREFETCHES:      46778 LATE PREFETCHES: 0 DROPPED PREFETCHES: 0
LLC7 AVERAGE MISS LATENCY: 148.055 cycles
ROI Average ROB Stall Cycles:	7.59558
ROI Total ROB Stalls Cycles:	253919475
ROI TOTAL ROB counter      :	33429904
ROI Average Load ROB Stall Cycles:	31.6247
ROI Total Load ROB Stalls Cycle  :	166959977
ROI Total Load ROB stalls Counter:	5279417
Major fault: 0 Minor fault: 58341

