
*** ChampSim Multicore Out-of-Order Simulator ***

Warmup Instructions: 200000000
Simulation Instructions: 200000000
Number of CPUs: 1
threads:1

L1I Configuration:
L1I_SET:64
L1I_WAY:8
L1I_RQ_SIZE:64
L1I_WQ_SIZE:64
L1I_PQ_SIZE:8
L1I_MSHR_SIZE:8

L1D Configuration:
L1D_SET:64
L1D_WAY:12
L1D_RQ_SIZE:64
L1D_WQ_SIZE:64
L1D_PQ_SIZE:8
L1D_MSHR_SIZE:16

L2C Configuration:
L2C_SET:1024
L2C_WAY:8
L2C_RQ_SIZE:32
L2C_WQ_SIZE:32
L2C_PQ_SIZE:16
L2C_MSHR_SIZE:32

LLC Configuration:
LLC_SET:2048
LLC_WAY:16
LLC SLICES:8
LLC_RQ_SIZE:64
LLC_WQ_SIZE:64
LLC_PQ_SIZE:32
LLC_MSHR_SIZE:64

Interconnect OFF
Attacker deprioritize is: OFF
Off-chip DRAM Size: 4096 MB Channels: 1 Width: 64-bit Data Rate: 3200 MT/s
PAGE SIZE in KB: 4.000000 
PAGE SIZE in MB: 0.003906 
PAGE offset in bits: 12 
CEASER-S_LLC:0
MIRAGE : 1
CEASER_LATENCY:3
REMAP : OFF
Partitions : 1
Multi-Step : OFF
BFS : OFF

CPU 0 runs /home/anubhav/gap/sssp-10.trace.gz
CPU 0 Bimodal branch predictor
Initialize Hawkeye state
Initialize Hawkeye state
Initialize Hawkeye state
Initialize Hawkeye state
Initialize Hawkeye state
Initialize Hawkeye state
Initialize Hawkeye state
Initialize Hawkeye state
Heartbeat CPU 0 instructions: 10000000 cycles: 7184765 heartbeat IPC: 1.39183 cumulative IPC: 1.39183 (Simulation time: 0 hr 0 min 56 sec) 
 Total Blocks : 262144 Invalid Blocks : 160536
Heartbeat CPU 0 instructions: 20000000 cycles: 15453535 heartbeat IPC: 1.20937 cumulative IPC: 1.2942 (Simulation time: 0 hr 2 min 5 sec) 
 Total Blocks : 262144 Invalid Blocks : 116789
Heartbeat CPU 0 instructions: 30000002 cycles: 23062022 heartbeat IPC: 1.31432 cumulative IPC: 1.30084 (Simulation time: 0 hr 3 min 23 sec) 
 Total Blocks : 262144 Invalid Blocks : 85283
Heartbeat CPU 0 instructions: 40000003 cycles: 30133710 heartbeat IPC: 1.41409 cumulative IPC: 1.32742 (Simulation time: 0 hr 4 min 43 sec) 
 Total Blocks : 262144 Invalid Blocks : 61611
Heartbeat CPU 0 instructions: 50000000 cycles: 36880559 heartbeat IPC: 1.48217 cumulative IPC: 1.35573 (Simulation time: 0 hr 6 min 3 sec) 
 Total Blocks : 262144 Invalid Blocks : 44522
Heartbeat CPU 0 instructions: 60000003 cycles: 43331809 heartbeat IPC: 1.55009 cumulative IPC: 1.38466 (Simulation time: 0 hr 7 min 29 sec) 
 Total Blocks : 262144 Invalid Blocks : 31819
Heartbeat CPU 0 instructions: 70000003 cycles: 49576525 heartbeat IPC: 1.60135 cumulative IPC: 1.41196 (Simulation time: 0 hr 8 min 59 sec) 
 Total Blocks : 262144 Invalid Blocks : 22674
Heartbeat CPU 0 instructions: 80000000 cycles: 55658098 heartbeat IPC: 1.64431 cumulative IPC: 1.43735 (Simulation time: 0 hr 10 min 34 sec) 
 Total Blocks : 262144 Invalid Blocks : 16049
Heartbeat CPU 0 instructions: 90000000 cycles: 61798309 heartbeat IPC: 1.62861 cumulative IPC: 1.45635 (Simulation time: 0 hr 12 min 4 sec) 
 Total Blocks : 262144 Invalid Blocks : 11435
Heartbeat CPU 0 instructions: 100000002 cycles: 67652428 heartbeat IPC: 1.7082 cumulative IPC: 1.47814 (Simulation time: 0 hr 13 min 44 sec) 
 Total Blocks : 262144 Invalid Blocks : 8024
Heartbeat CPU 0 instructions: 110000000 cycles: 73429270 heartbeat IPC: 1.73105 cumulative IPC: 1.49804 (Simulation time: 0 hr 15 min 24 sec) 
 Total Blocks : 262144 Invalid Blocks : 5694
Heartbeat CPU 0 instructions: 120000002 cycles: 79180169 heartbeat IPC: 1.73886 cumulative IPC: 1.51553 (Simulation time: 0 hr 17 min 2 sec) 
 Total Blocks : 262144 Invalid Blocks : 4041
Heartbeat CPU 0 instructions: 130000001 cycles: 84818730 heartbeat IPC: 1.7735 cumulative IPC: 1.53268 (Simulation time: 0 hr 18 min 46 sec) 
 Total Blocks : 262144 Invalid Blocks : 2787
Heartbeat CPU 0 instructions: 140000001 cycles: 90421699 heartbeat IPC: 1.78477 cumulative IPC: 1.5483 (Simulation time: 0 hr 20 min 30 sec) 
 Total Blocks : 262144 Invalid Blocks : 1978
Heartbeat CPU 0 instructions: 150000003 cycles: 96019974 heartbeat IPC: 1.78626 cumulative IPC: 1.56218 (Simulation time: 0 hr 22 min 12 sec) 
 Total Blocks : 262144 Invalid Blocks : 1369
Heartbeat CPU 0 instructions: 160000000 cycles: 101527448 heartbeat IPC: 1.81571 cumulative IPC: 1.57593 (Simulation time: 0 hr 23 min 59 sec) 
 Total Blocks : 262144 Invalid Blocks : 972
Heartbeat CPU 0 instructions: 170000001 cycles: 107015542 heartbeat IPC: 1.82213 cumulative IPC: 1.58855 (Simulation time: 0 hr 25 min 46 sec) 
 Total Blocks : 262144 Invalid Blocks : 686
Heartbeat CPU 0 instructions: 180000000 cycles: 112490809 heartbeat IPC: 1.82639 cumulative IPC: 1.60013 (Simulation time: 0 hr 27 min 32 sec) 
 Total Blocks : 262144 Invalid Blocks : 464
Heartbeat CPU 0 instructions: 190000000 cycles: 117916005 heartbeat IPC: 1.84325 cumulative IPC: 1.61132 (Simulation time: 0 hr 29 min 17 sec) 
 Total Blocks : 262144 Invalid Blocks : 324
Heartbeat CPU 0 instructions: 200000002 cycles: 123265979 heartbeat IPC: 1.86917 cumulative IPC: 1.62251 (Simulation time: 0 hr 31 min 11 sec) 
 Total Blocks : 262144 Invalid Blocks : 236

Warmup complete CPU 0 instructions: 200000002 cycles: 123265979 (Simulation time: 0 hr 31 min 11 sec) 

Heartbeat CPU 0 instructions: 210000003 cycles: 138067335 heartbeat IPC: 0.675614 cumulative IPC: 0.675614 (Simulation time: 0 hr 33 min 50 sec) 
 Total Blocks : 262144 Invalid Blocks : 159
Heartbeat CPU 0 instructions: 220000000 cycles: 152758216 heartbeat IPC: 0.680694 cumulative IPC: 0.678145 (Simulation time: 0 hr 36 min 29 sec) 
 Total Blocks : 262144 Invalid Blocks : 111
Heartbeat CPU 0 instructions: 230000000 cycles: 167280372 heartbeat IPC: 0.688603 cumulative IPC: 0.681595 (Simulation time: 0 hr 39 min 8 sec) 
 Total Blocks : 262144 Invalid Blocks : 82
Heartbeat CPU 0 instructions: 240000000 cycles: 181831375 heartbeat IPC: 0.687238 cumulative IPC: 0.682997 (Simulation time: 0 hr 41 min 49 sec) 
 Total Blocks : 262144 Invalid Blocks : 58
Heartbeat CPU 0 instructions: 250000000 cycles: 196421886 heartbeat IPC: 0.685377 cumulative IPC: 0.683472 (Simulation time: 0 hr 44 min 32 sec) 
 Total Blocks : 262144 Invalid Blocks : 41
Heartbeat CPU 0 instructions: 260000001 cycles: 210892680 heartbeat IPC: 0.691047 cumulative IPC: 0.684723 (Simulation time: 0 hr 47 min 14 sec) 
 Total Blocks : 262144 Invalid Blocks : 28
Heartbeat CPU 0 instructions: 270000003 cycles: 225623933 heartbeat IPC: 0.678829 cumulative IPC: 0.683875 (Simulation time: 0 hr 50 min 3 sec) 
 Total Blocks : 262144 Invalid Blocks : 17
Heartbeat CPU 0 instructions: 280000000 cycles: 240099367 heartbeat IPC: 0.690825 cumulative IPC: 0.684736 (Simulation time: 0 hr 52 min 50 sec) 
 Total Blocks : 262144 Invalid Blocks : 12
Heartbeat CPU 0 instructions: 290000003 cycles: 254694554 heartbeat IPC: 0.685158 cumulative IPC: 0.684783 (Simulation time: 0 hr 55 min 39 sec) 
 Total Blocks : 262144 Invalid Blocks : 11
Heartbeat CPU 0 instructions: 300000001 cycles: 269356671 heartbeat IPC: 0.68203 cumulative IPC: 0.684506 (Simulation time: 0 hr 58 min 28 sec) 
 Total Blocks : 262144 Invalid Blocks : 5
Heartbeat CPU 0 instructions: 310000003 cycles: 283918993 heartbeat IPC: 0.686704 cumulative IPC: 0.684705 (Simulation time: 1 hr 1 min 17 sec) 
 Total Blocks : 262144 Invalid Blocks : 5
Heartbeat CPU 0 instructions: 320000001 cycles: 298636227 heartbeat IPC: 0.679475 cumulative IPC: 0.684267 (Simulation time: 1 hr 4 min 8 sec) 
 Total Blocks : 262144 Invalid Blocks : 2
Heartbeat CPU 0 instructions: 330000000 cycles: 313371258 heartbeat IPC: 0.678655 cumulative IPC: 0.683832 (Simulation time: 1 hr 6 min 58 sec) 
 Total Blocks : 262144 Invalid Blocks : 1
Heartbeat CPU 0 instructions: 340000000 cycles: 328247009 heartbeat IPC: 0.672235 cumulative IPC: 0.68299 (Simulation time: 1 hr 9 min 53 sec) 
 Total Blocks : 262144 Invalid Blocks : 1
Heartbeat CPU 0 instructions: 350000001 cycles: 343028116 heartbeat IPC: 0.676539 cumulative IPC: 0.682556 (Simulation time: 1 hr 12 min 44 sec) 
 Total Blocks : 262144 Invalid Blocks : 0
Heartbeat CPU 0 instructions: 360000001 cycles: 357977974 heartbeat IPC: 0.668903 cumulative IPC: 0.681687 (Simulation time: 1 hr 15 min 36 sec) 
 Total Blocks : 262144 Invalid Blocks : 0
Heartbeat CPU 0 instructions: 370000000 cycles: 373013362 heartbeat IPC: 0.665097 cumulative IPC: 0.680688 (Simulation time: 1 hr 18 min 26 sec) 
 Total Blocks : 262144 Invalid Blocks : 0
Heartbeat CPU 0 instructions: 380000002 cycles: 388189172 heartbeat IPC: 0.658944 cumulative IPC: 0.679442 (Simulation time: 1 hr 21 min 14 sec) 
 Total Blocks : 262144 Invalid Blocks : 0
Heartbeat CPU 0 instructions: 390000000 cycles: 403287166 heartbeat IPC: 0.66234 cumulative IPC: 0.67852 (Simulation time: 1 hr 23 min 57 sec) 
 Total Blocks : 262144 Invalid Blocks : 0
Heartbeat CPU 0 instructions: 400000003 cycles: 418551142 heartbeat IPC: 0.655137 cumulative IPC: 0.677311 (Simulation time: 1 hr 26 min 37 sec) 
 Total Blocks : 262144 Invalid Blocks : 0
Finished CPU 0 instructions: 200000001 cycles: 295285163 cumulative IPC: 0.677311 (Simulation time: 1 hr 26 min 37 sec) 

CPU 0 Branch Prediction Accuracy: 98.7894% MPKI: 1.80684 Average ROB Occupancy at Mispredict: 260.007

ChampSim completed all CPUs

Region of Interest Statistics

CPU 0 cumulative IPC: 0.677311 instructions: 200000001 cycles: 295285163
ITLB TOTAL     ACCESS: 31149666  HIT: 31149666  MISS:     0  HIT %:   100  MISS %:     0  AVERAGE MISS PENALTY: 0
ITLB LOAD      ACCESS: 31149666  HIT: 31149666  MISS:     0  HIT %:   100  MISS %:     0  AVERAGE MISS PENALTY: 0
ITLB RFO       ACCESS:     0  HIT:     0  MISS:     0  HIT %:     0  MISS %:     0  AVERAGE MISS PENALTY: 0
ITLB PREFETCH  ACCESS:     0  HIT:     0  MISS:     0  HIT %:     0  MISS %:     0  AVERAGE MISS PENALTY: 0
ITLB WRITEBACK ACCESS:     0  HIT:     0  MISS:     0  HIT %:     0  MISS %:     0  AVERAGE MISS PENALTY: 0
ITLB PREFETCH  REQUESTED:     0  ISSUED:     0  USEFUL:     0  USELESS:     0
 USEFUL LOAD PREFETCHES:          0 PREFETCH ISSUED TO LOWER LEVEL:          0  ACCURACY: -nan
 TIMELY PREFETCHES:          0 LATE PREFETCHES: 0 DROPPED PREFETCHES: 0
ITLB AVERAGE MISS LATENCY: -nan cycles
DTLB TOTAL     ACCESS: 55220415  HIT: 48724069  MISS: 6496346  HIT %: 88.2356  MISS %: 11.7644  AVERAGE MISS PENALTY: 10.8424
DTLB LOAD      ACCESS: 54169146  HIT: 47974973  MISS: 6194173  HIT %: 88.5651  MISS %: 11.4349  AVERAGE MISS PENALTY: 10.638
DTLB RFO       ACCESS: 1051269  HIT: 749096  MISS: 302173  HIT %: 71.2564  MISS %: 28.7436  AVERAGE MISS PENALTY: 15.0328
DTLB PREFETCH  ACCESS:     0  HIT:     0  MISS:     0  HIT %:     0  MISS %:     0  AVERAGE MISS PENALTY: 0
DTLB WRITEBACK ACCESS:     0  HIT:     0  MISS:     0  HIT %:     0  MISS %:     0  AVERAGE MISS PENALTY: 0
DTLB PREFETCH  REQUESTED:     0  ISSUED:     0  USEFUL:     0  USELESS:     0
 USEFUL LOAD PREFETCHES:          0 PREFETCH ISSUED TO LOWER LEVEL:          0  ACCURACY: -nan
 TIMELY PREFETCHES:          0 LATE PREFETCHES: 0 DROPPED PREFETCHES: 0
DTLB AVERAGE MISS LATENCY: 10.8424 cycles
STLB TOTAL     ACCESS: 6496346  HIT: 6402562  MISS: 93784  HIT %: 98.5564  MISS %: 1.44364  AVERAGE MISS PENALTY: 100
STLB LOAD      ACCESS: 6194173  HIT: 6118552  MISS: 75621  HIT %: 98.7792  MISS %: 1.22084  AVERAGE MISS PENALTY: 100
STLB RFO       ACCESS: 302173  HIT: 284010  MISS: 18163  HIT %: 93.9892  MISS %: 6.0108  AVERAGE MISS PENALTY: 100
STLB PREFETCH  ACCESS:     0  HIT:     0  MISS:     0  HIT %:     0  MISS %:     0  AVERAGE MISS PENALTY: 0
STLB WRITEBACK ACCESS:     0  HIT:     0  MISS:     0  HIT %:     0  MISS %:     0  AVERAGE MISS PENALTY: 0
STLB PREFETCH  REQUESTED:     0  ISSUED:     0  USEFUL:     0  USELESS:     0
 USEFUL LOAD PREFETCHES:          0 PREFETCH ISSUED TO LOWER LEVEL:          0  ACCURACY: -nan
 TIMELY PREFETCHES:          0 LATE PREFETCHES: 0 DROPPED PREFETCHES: 0
STLB AVERAGE MISS LATENCY: 100 cycles
L1D TOTAL     ACCESS: 84514310  HIT: 42172483  MISS: 42341827  HIT %: 49.8998  MISS %: 50.1002  AVERAGE MISS PENALTY: 823352
L1D LOAD      ACCESS: 45682655  HIT: 35868338  MISS: 9814317  HIT %: 78.5163  MISS %: 21.4837  AVERAGE MISS PENALTY: 3.5519e+06
L1D RFO       ACCESS: 1056948  HIT: 732451  MISS: 324497  HIT %: 69.2987  MISS %: 30.7013  AVERAGE MISS PENALTY: 71.5885
L1D PREFETCH  ACCESS: 37774707  HIT: 5571694  MISS: 32203013  HIT %: 14.7498  MISS %: 85.2502  AVERAGE MISS PENALTY: 85.413
L1D WRITEBACK ACCESS:     0  HIT:     0  MISS:     0  HIT %:     0  MISS %:     0  AVERAGE MISS PENALTY: 0
L1D PREFETCH  REQUESTED: 60743262  ISSUED: 38951931  USEFUL: 1258735  USELESS: 30944275
 USEFUL LOAD PREFETCHES:    1258735 PREFETCH ISSUED TO LOWER LEVEL:   98363163  ACCURACY: 1.27968
 TIMELY PREFETCHES:    1258735 LATE PREFETCHES: 330935 DROPPED PREFETCHES: 21791331
L1D AVERAGE MISS LATENCY: 47.695 cycles
L1I TOTAL     ACCESS: 45067388  HIT: 45067388  MISS:     0  HIT %:   100  MISS %:     0  AVERAGE MISS PENALTY: 0
L1I LOAD      ACCESS: 45067388  HIT: 45067388  MISS:     0  HIT %:   100  MISS %:     0  AVERAGE MISS PENALTY: 0
L1I RFO       ACCESS:     0  HIT:     0  MISS:     0  HIT %:     0  MISS %:     0  AVERAGE MISS PENALTY: 0
L1I PREFETCH  ACCESS:     0  HIT:     0  MISS:     0  HIT %:     0  MISS %:     0  AVERAGE MISS PENALTY: 0
L1I WRITEBACK ACCESS:     0  HIT:     0  MISS:     0  HIT %:     0  MISS %:     0  AVERAGE MISS PENALTY: 0
L1I PREFETCH  REQUESTED:     0  ISSUED:     0  USEFUL:     0  USELESS:     0
 USEFUL LOAD PREFETCHES:          0 PREFETCH ISSUED TO LOWER LEVEL:          0  ACCURACY: -nan
 TIMELY PREFETCHES:          0 LATE PREFETCHES: 0 DROPPED PREFETCHES: 0
L1I AVERAGE MISS LATENCY: -nan cycles
L2C TOTAL     ACCESS: 78248816  HIT: 12289823  MISS: 65958993  HIT %: 15.7061  MISS %: 84.2939  AVERAGE MISS PENALTY: 475678
L2C LOAD      ACCESS: 9788662  HIT: 1165657  MISS: 8623005  HIT %: 11.9082  MISS %: 88.0918  AVERAGE MISS PENALTY: 3.63828e+06
L2C RFO       ACCESS: 324483  HIT: 86428  MISS: 238055  HIT %: 26.6356  MISS %: 73.3644  AVERAGE MISS PENALTY: 76.8142
L2C PREFETCH  ACCESS: 67241384  HIT: 10143783  MISS: 57097601  HIT %: 15.0856  MISS %: 84.9144  AVERAGE MISS PENALTY: 40.9512
L2C WRITEBACK ACCESS: 894287  HIT: 893955  MISS:   332  HIT %: 99.9629  MISS %: 0.0371245  AVERAGE MISS PENALTY: 0
L2C PREFETCH  REQUESTED: 142642017  ISSUED: 131234989  USEFUL: 515464  USELESS: 56582142
 USEFUL LOAD PREFETCHES:     515464 PREFETCH ISSUED TO LOWER LEVEL:   60968081  ACCURACY: 0.845465
 TIMELY PREFETCHES:     515464 LATE PREFETCHES: 663204 DROPPED PREFETCHES: 11407028
L2C AVERAGE MISS LATENCY: 38.8341 cycles
LLC0 TOTAL     ACCESS: 8462255  HIT: 8213311  MISS: 248944  HIT %: 97.0582  MISS %: 2.94182  AVERAGE MISS PENALTY: 145.045
LLC0 LOAD      ACCESS: 1082633  HIT: 1047189  MISS: 35444  HIT %: 96.7261  MISS %: 3.27387  AVERAGE MISS PENALTY: 162.101
LLC0 RFO       ACCESS: 30116  HIT: 24625  MISS:  5491  HIT %: 81.7672  MISS %: 18.2328  AVERAGE MISS PENALTY: 226.641
LLC0 PREFETCH  ACCESS: 7264854  HIT: 7056945  MISS: 207909  HIT %: 97.1382  MISS %: 2.86185  AVERAGE MISS PENALTY: 140.052
LLC0 WRITEBACK ACCESS: 84652  HIT: 84552  MISS:   100  HIT %: 99.8819  MISS %: 0.118131  AVERAGE MISS PENALTY: 0
LLC0 PREFETCH  REQUESTED:     0  ISSUED:     0  USEFUL: 47576  USELESS: 160176
 USEFUL LOAD PREFETCHES:      47576 PREFETCH ISSUED TO LOWER LEVEL:     207909  ACCURACY: 22.8831
 TIMELY PREFETCHES:      47576 LATE PREFETCHES: 0 DROPPED PREFETCHES: 0
LLC0 AVERAGE MISS LATENCY: 145.045 cycles
Deadblocks : 27063 Deadblock percentage : 76.3542

LLC1 TOTAL     ACCESS: 8476419  HIT: 8227238  MISS: 249181  HIT %: 97.0603  MISS %: 2.9397  AVERAGE MISS PENALTY: 145.573
LLC1 LOAD      ACCESS: 1087226  HIT: 1070000  MISS: 17226  HIT %: 98.4156  MISS %: 1.5844  AVERAGE MISS PENALTY: 172.915
LLC1 RFO       ACCESS: 29851  HIT: 24379  MISS:  5472  HIT %: 81.669  MISS %: 18.331  AVERAGE MISS PENALTY: 227.79
LLC1 PREFETCH  ACCESS: 7274478  HIT: 7048083  MISS: 226395  HIT %: 96.8878  MISS %: 3.11218  AVERAGE MISS PENALTY: 141.562
LLC1 WRITEBACK ACCESS: 84864  HIT: 84776  MISS:    88  HIT %: 99.8963  MISS %: 0.103695  AVERAGE MISS PENALTY: 0
LLC1 PREFETCH  REQUESTED:     0  ISSUED:     0  USEFUL: 47387  USELESS: 179170
 USEFUL LOAD PREFETCHES:      47387 PREFETCH ISSUED TO LOWER LEVEL:     226395  ACCURACY: 20.9311
 TIMELY PREFETCHES:      47387 LATE PREFETCHES: 0 DROPPED PREFETCHES: 0
LLC1 AVERAGE MISS LATENCY: 145.573 cycles
LLC2 TOTAL     ACCESS: 8449748  HIT: 8199682  MISS: 250066  HIT %: 97.0406  MISS %: 2.95945  AVERAGE MISS PENALTY: 146.126
LLC2 LOAD      ACCESS: 1086771  HIT: 1069269  MISS: 17502  HIT %: 98.3895  MISS %: 1.61046  AVERAGE MISS PENALTY: 172.946
LLC2 RFO       ACCESS: 30055  HIT: 24549  MISS:  5506  HIT %: 81.6803  MISS %: 18.3197  AVERAGE MISS PENALTY: 226.382
LLC2 PREFETCH  ACCESS: 7247947  HIT: 7020989  MISS: 226958  HIT %: 96.8687  MISS %: 3.13134  AVERAGE MISS PENALTY: 142.175
LLC2 WRITEBACK ACCESS: 84975  HIT: 84875  MISS:   100  HIT %: 99.8823  MISS %: 0.117682  AVERAGE MISS PENALTY: 0
LLC2 PREFETCH  REQUESTED:     0  ISSUED:     0  USEFUL: 47386  USELESS: 179570
 USEFUL LOAD PREFETCHES:      47386 PREFETCH ISSUED TO LOWER LEVEL:     226958  ACCURACY: 20.8788
 TIMELY PREFETCHES:      47386 LATE PREFETCHES: 0 DROPPED PREFETCHES: 0
LLC2 AVERAGE MISS LATENCY: 146.126 cycles
LLC3 TOTAL     ACCESS: 8407543  HIT: 8157089  MISS: 250454  HIT %: 97.0211  MISS %: 2.97892  AVERAGE MISS PENALTY: 146.635
LLC3 LOAD      ACCESS: 1059862  HIT: 1042421  MISS: 17441  HIT %: 98.3544  MISS %: 1.64559  AVERAGE MISS PENALTY: 173.082
LLC3 RFO       ACCESS: 29811  HIT: 24316  MISS:  5495  HIT %: 81.5672  MISS %: 18.4328  AVERAGE MISS PENALTY: 227.434
LLC3 PREFETCH  ACCESS: 7233428  HIT: 7006032  MISS: 227396  HIT %: 96.8563  MISS %: 3.14368  AVERAGE MISS PENALTY: 142.733
LLC3 WRITEBACK ACCESS: 84442  HIT: 84320  MISS:   122  HIT %: 99.8555  MISS %: 0.144478  AVERAGE MISS PENALTY: 0
LLC3 PREFETCH  REQUESTED:     0  ISSUED:     0  USEFUL: 47277  USELESS: 180191
 USEFUL LOAD PREFETCHES:      47277 PREFETCH ISSUED TO LOWER LEVEL:     227396  ACCURACY: 20.7906
 TIMELY PREFETCHES:      47277 LATE PREFETCHES: 0 DROPPED PREFETCHES: 0
LLC3 AVERAGE MISS LATENCY: 146.635 cycles
LLC4 TOTAL     ACCESS: 8350657  HIT: 8099706  MISS: 250951  HIT %: 96.9948  MISS %: 3.00516  AVERAGE MISS PENALTY: 146.798
LLC4 LOAD      ACCESS: 1055171  HIT: 1037570  MISS: 17601  HIT %: 98.3319  MISS %: 1.66807  AVERAGE MISS PENALTY: 173.578
LLC4 RFO       ACCESS: 29816  HIT: 24301  MISS:  5515  HIT %: 81.5032  MISS %: 18.4968  AVERAGE MISS PENALTY: 227.777
LLC4 PREFETCH  ACCESS: 7181537  HIT: 6953797  MISS: 227740  HIT %: 96.8288  MISS %: 3.17119  AVERAGE MISS PENALTY: 142.828
LLC4 WRITEBACK ACCESS: 84133  HIT: 84038  MISS:    95  HIT %: 99.8871  MISS %: 0.112916  AVERAGE MISS PENALTY: 0
LLC4 PREFETCH  REQUESTED:     0  ISSUED:     0  USEFUL: 47330  USELESS: 180583
 USEFUL LOAD PREFETCHES:      47330 PREFETCH ISSUED TO LOWER LEVEL:     227741  ACCURACY: 20.7824
 TIMELY PREFETCHES:      47330 LATE PREFETCHES: 0 DROPPED PREFETCHES: 0
LLC4 AVERAGE MISS LATENCY: 146.798 cycles
LLC5 TOTAL     ACCESS: 8286141  HIT: 8034335  MISS: 251806  HIT %: 96.9611  MISS %: 3.03888  AVERAGE MISS PENALTY: 147.21
LLC5 LOAD      ACCESS: 1075572  HIT: 1057620  MISS: 17952  HIT %: 98.3309  MISS %: 1.66907  AVERAGE MISS PENALTY: 173.824
LLC5 RFO       ACCESS: 29611  HIT: 24030  MISS:  5581  HIT %: 81.1523  MISS %: 18.8477  AVERAGE MISS PENALTY: 223.514
LLC5 PREFETCH  ACCESS: 7097779  HIT: 6869638  MISS: 228141  HIT %: 96.7857  MISS %: 3.21426  AVERAGE MISS PENALTY: 143.334
LLC5 WRITEBACK ACCESS: 83179  HIT: 83047  MISS:   132  HIT %: 99.8413  MISS %: 0.158694  AVERAGE MISS PENALTY: 0
LLC5 PREFETCH  REQUESTED:     0  ISSUED:     0  USEFUL: 47203  USELESS: 181048
 USEFUL LOAD PREFETCHES:      47203 PREFETCH ISSUED TO LOWER LEVEL:     228141  ACCURACY: 20.6903
 TIMELY PREFETCHES:      47203 LATE PREFETCHES: 0 DROPPED PREFETCHES: 0
LLC5 AVERAGE MISS LATENCY: 147.21 cycles
LLC6 TOTAL     ACCESS: 8162335  HIT: 7910350  MISS: 251985  HIT %: 96.9128  MISS %: 3.08717  AVERAGE MISS PENALTY: 147.681
LLC6 LOAD      ACCESS: 1061379  HIT: 1043290  MISS: 18089  HIT %: 98.2957  MISS %: 1.70429  AVERAGE MISS PENALTY: 174.661
LLC6 RFO       ACCESS: 29520  HIT: 23989  MISS:  5531  HIT %: 81.2636  MISS %: 18.7364  AVERAGE MISS PENALTY: 225.389
LLC6 PREFETCH  ACCESS: 6988663  HIT: 6760431  MISS: 228232  HIT %: 96.7343  MISS %: 3.26575  AVERAGE MISS PENALTY: 143.745
LLC6 WRITEBACK ACCESS: 82773  HIT: 82640  MISS:   133  HIT %: 99.8393  MISS %: 0.16068  AVERAGE MISS PENALTY: 0
LLC6 PREFETCH  REQUESTED:     0  ISSUED:     0  USEFUL: 46982  USELESS: 181295
 USEFUL LOAD PREFETCHES:      46982 PREFETCH ISSUED TO LOWER LEVEL:     228232  ACCURACY: 20.5852
 TIMELY PREFETCHES:      46982 LATE PREFETCHES: 0 DROPPED PREFETCHES: 0
LLC6 AVERAGE MISS LATENCY: 147.681 cycles
LLC7 TOTAL     ACCESS: 8035267  HIT: 7783173  MISS: 252094  HIT %: 96.8627  MISS %: 3.13734  AVERAGE MISS PENALTY: 147.914
LLC7 LOAD      ACCESS: 1074413  HIT: 1055917  MISS: 18496  HIT %: 98.2785  MISS %: 1.7215  AVERAGE MISS PENALTY: 174.775
LLC7 RFO       ACCESS: 29266  HIT: 23747  MISS:  5519  HIT %: 81.1419  MISS %: 18.8581  AVERAGE MISS PENALTY: 224.663
LLC7 PREFETCH  ACCESS: 6848887  HIT: 6620921  MISS: 227966  HIT %: 96.6715  MISS %: 3.32851  AVERAGE MISS PENALTY: 143.95
LLC7 WRITEBACK ACCESS: 82701  HIT: 82588  MISS:   113  HIT %: 99.8634  MISS %: 0.136637  AVERAGE MISS PENALTY: 0
LLC7 PREFETCH  REQUESTED:     0  ISSUED:     0  USEFUL: 46617  USELESS: 181454
 USEFUL LOAD PREFETCHES:      46617 PREFETCH ISSUED TO LOWER LEVEL:     227966  ACCURACY: 20.4491
 TIMELY PREFETCHES:      46617 LATE PREFETCHES: 0 DROPPED PREFETCHES: 0
LLC7 AVERAGE MISS LATENCY: 147.914 cycles
ROI Average ROB Stall Cycles:	7.57144
ROI Total ROB Stalls Cycles:	253008755
ROI TOTAL ROB counter      :	33416210
ROI Average Load ROB Stall Cycles:	31.6153
ROI Total Load ROB Stalls Cycle  :	166156501
ROI Total Load ROB stalls Counter:	5255578
Major fault: 0 Minor fault: 58068

