
*** ChampSim Multicore Out-of-Order Simulator ***

Warmup Instructions: 200000000
Simulation Instructions: 200000000
Number of CPUs: 1
threads:1

L1I Configuration:
L1I_SET:64
L1I_WAY:8
L1I_RQ_SIZE:64
L1I_WQ_SIZE:64
L1I_PQ_SIZE:8
L1I_MSHR_SIZE:8

L1D Configuration:
L1D_SET:64
L1D_WAY:12
L1D_RQ_SIZE:64
L1D_WQ_SIZE:64
L1D_PQ_SIZE:8
L1D_MSHR_SIZE:16

L2C Configuration:
L2C_SET:1024
L2C_WAY:8
L2C_RQ_SIZE:32
L2C_WQ_SIZE:32
L2C_PQ_SIZE:16
L2C_MSHR_SIZE:32

LLC Configuration:
LLC_SET:4096
LLC_WAY:16
LLC SLICES:8
LLC_RQ_SIZE:64
LLC_WQ_SIZE:64
LLC_PQ_SIZE:32
LLC_MSHR_SIZE:64

Interconnect OFF
Attacker deprioritize is: OFF
Off-chip DRAM Size: 4096 MB Channels: 1 Width: 64-bit Data Rate: 3200 MT/s
PAGE SIZE in KB: 4.000000 
PAGE SIZE in MB: 0.003906 
PAGE offset in bits: 12 
CEASER-S_LLC:0
MIRAGE : 1
CEASER_LATENCY:3
REMAP : OFF
Partitions : 1
Multi-Step : OFF
BFS : OFF

CPU 0 runs /home/anubhav/gap/sssp-14.trace.gz
CPU 0 Bimodal branch predictor
Initialize Hawkeye state
Initialize Hawkeye state
Initialize Hawkeye state
Initialize Hawkeye state
Initialize Hawkeye state
Initialize Hawkeye state
Initialize Hawkeye state
Initialize Hawkeye state
Heartbeat CPU 0 instructions: 10000000 cycles: 7219148 heartbeat IPC: 1.38521 cumulative IPC: 1.38521 (Simulation time: 0 hr 2 min 42 sec) 
 Total Blocks : 524288 Invalid Blocks : 417644
Heartbeat CPU 0 instructions: 20000002 cycles: 15535992 heartbeat IPC: 1.20238 cumulative IPC: 1.28733 (Simulation time: 0 hr 5 min 56 sec) 
 Total Blocks : 524288 Invalid Blocks : 367268
Heartbeat CPU 0 instructions: 30000000 cycles: 23077949 heartbeat IPC: 1.32592 cumulative IPC: 1.29994 (Simulation time: 0 hr 9 min 40 sec) 
 Total Blocks : 524288 Invalid Blocks : 321852
Heartbeat CPU 0 instructions: 40000002 cycles: 30161053 heartbeat IPC: 1.41181 cumulative IPC: 1.32621 (Simulation time: 0 hr 13 min 23 sec) 
 Total Blocks : 524288 Invalid Blocks : 281336
Heartbeat CPU 0 instructions: 50000003 cycles: 36846401 heartbeat IPC: 1.49581 cumulative IPC: 1.35698 (Simulation time: 0 hr 16 min 34 sec) 
 Total Blocks : 524288 Invalid Blocks : 244831
Heartbeat CPU 0 instructions: 60000001 cycles: 43420924 heartbeat IPC: 1.52102 cumulative IPC: 1.38182 (Simulation time: 0 hr 19 min 37 sec) 
 Total Blocks : 524288 Invalid Blocks : 213511
Heartbeat CPU 0 instructions: 70000000 cycles: 49750391 heartbeat IPC: 1.57991 cumulative IPC: 1.40702 (Simulation time: 0 hr 22 min 39 sec) 
 Total Blocks : 524288 Invalid Blocks : 185702
Heartbeat CPU 0 instructions: 80000002 cycles: 55826152 heartbeat IPC: 1.64588 cumulative IPC: 1.43302 (Simulation time: 0 hr 26 min 12 sec) 
 Total Blocks : 524288 Invalid Blocks : 160482
Heartbeat CPU 0 instructions: 90000002 cycles: 61775965 heartbeat IPC: 1.68073 cumulative IPC: 1.45688 (Simulation time: 0 hr 29 min 34 sec) 
 Total Blocks : 524288 Invalid Blocks : 138936
Heartbeat CPU 0 instructions: 100000001 cycles: 67640487 heartbeat IPC: 1.70517 cumulative IPC: 1.4784 (Simulation time: 0 hr 33 min 4 sec) 
 Total Blocks : 524288 Invalid Blocks : 120239
Heartbeat CPU 0 instructions: 110000000 cycles: 73458808 heartbeat IPC: 1.71871 cumulative IPC: 1.49744 (Simulation time: 0 hr 36 min 31 sec) 
 Total Blocks : 524288 Invalid Blocks : 104145
Heartbeat CPU 0 instructions: 120000001 cycles: 79174748 heartbeat IPC: 1.74949 cumulative IPC: 1.51563 (Simulation time: 0 hr 40 min 9 sec) 
 Total Blocks : 524288 Invalid Blocks : 89969
Heartbeat CPU 0 instructions: 130000002 cycles: 84792486 heartbeat IPC: 1.78008 cumulative IPC: 1.53315 (Simulation time: 0 hr 44 min 3 sec) 
 Total Blocks : 524288 Invalid Blocks : 77719
Heartbeat CPU 0 instructions: 140000002 cycles: 90436095 heartbeat IPC: 1.77192 cumulative IPC: 1.54805 (Simulation time: 0 hr 47 min 43 sec) 
 Total Blocks : 524288 Invalid Blocks : 67411
Heartbeat CPU 0 instructions: 150000003 cycles: 95982315 heartbeat IPC: 1.80303 cumulative IPC: 1.56279 (Simulation time: 0 hr 51 min 27 sec) 
 Total Blocks : 524288 Invalid Blocks : 57772
Heartbeat CPU 0 instructions: 160000001 cycles: 101491513 heartbeat IPC: 1.81515 cumulative IPC: 1.57649 (Simulation time: 0 hr 54 min 50 sec) 
 Total Blocks : 524288 Invalid Blocks : 49828
Heartbeat CPU 0 instructions: 170000001 cycles: 106971439 heartbeat IPC: 1.82484 cumulative IPC: 1.58921 (Simulation time: 0 hr 58 min 33 sec) 
 Total Blocks : 524288 Invalid Blocks : 43133
Heartbeat CPU 0 instructions: 180000002 cycles: 112405113 heartbeat IPC: 1.84038 cumulative IPC: 1.60135 (Simulation time: 1 hr 2 min 18 sec) 
 Total Blocks : 524288 Invalid Blocks : 37049
Heartbeat CPU 0 instructions: 190000000 cycles: 117812878 heartbeat IPC: 1.84919 cumulative IPC: 1.61273 (Simulation time: 1 hr 6 min 15 sec) 
 Total Blocks : 524288 Invalid Blocks : 31815
Heartbeat CPU 0 instructions: 200000000 cycles: 123198337 heartbeat IPC: 1.85685 cumulative IPC: 1.6234 (Simulation time: 1 hr 10 min 19 sec) 
 Total Blocks : 524288 Invalid Blocks : 27342

Warmup complete CPU 0 instructions: 200000004 cycles: 123198338 (Simulation time: 1 hr 10 min 19 sec) 

Heartbeat CPU 0 instructions: 210000002 cycles: 137802827 heartbeat IPC: 0.684721 cumulative IPC: 0.684721 (Simulation time: 1 hr 15 min 57 sec) 
 Total Blocks : 524288 Invalid Blocks : 23428
Heartbeat CPU 0 instructions: 220000000 cycles: 152693338 heartbeat IPC: 0.671569 cumulative IPC: 0.678081 (Simulation time: 1 hr 21 min 58 sec) 
 Total Blocks : 524288 Invalid Blocks : 20146
Heartbeat CPU 0 instructions: 230000000 cycles: 167358445 heartbeat IPC: 0.681891 cumulative IPC: 0.679346 (Simulation time: 1 hr 27 min 54 sec) 
 Total Blocks : 524288 Invalid Blocks : 17322
Heartbeat CPU 0 instructions: 240000003 cycles: 182210208 heartbeat IPC: 0.673321 cumulative IPC: 0.67783 (Simulation time: 1 hr 33 min 39 sec) 
 Total Blocks : 524288 Invalid Blocks : 14682
Heartbeat CPU 0 instructions: 250000000 cycles: 197051983 heartbeat IPC: 0.673774 cumulative IPC: 0.677015 (Simulation time: 1 hr 39 min 16 sec) 
 Total Blocks : 524288 Invalid Blocks : 12521
Heartbeat CPU 0 instructions: 260000000 cycles: 211907164 heartbeat IPC: 0.673166 cumulative IPC: 0.67637 (Simulation time: 1 hr 44 min 56 sec) 
 Total Blocks : 524288 Invalid Blocks : 10721
Heartbeat CPU 0 instructions: 270000001 cycles: 226709525 heartbeat IPC: 0.675568 cumulative IPC: 0.676255 (Simulation time: 1 hr 50 min 22 sec) 
 Total Blocks : 524288 Invalid Blocks : 9159
Heartbeat CPU 0 instructions: 280000000 cycles: 241632221 heartbeat IPC: 0.67012 cumulative IPC: 0.675482 (Simulation time: 1 hr 55 min 58 sec) 
 Total Blocks : 524288 Invalid Blocks : 7763
Heartbeat CPU 0 instructions: 290000002 cycles: 256361322 heartbeat IPC: 0.678928 cumulative IPC: 0.675864 (Simulation time: 2 hr 1 min 17 sec) 
 Total Blocks : 524288 Invalid Blocks : 6673
Heartbeat CPU 0 instructions: 300000001 cycles: 271273192 heartbeat IPC: 0.670607 cumulative IPC: 0.675334 (Simulation time: 2 hr 6 min 34 sec) 
 Total Blocks : 524288 Invalid Blocks : 5594
Heartbeat CPU 0 instructions: 310000002 cycles: 286066185 heartbeat IPC: 0.675996 cumulative IPC: 0.675394 (Simulation time: 2 hr 11 min 21 sec) 
 Total Blocks : 524288 Invalid Blocks : 4771
Heartbeat CPU 0 instructions: 320000001 cycles: 301115102 heartbeat IPC: 0.6645 cumulative IPC: 0.674473 (Simulation time: 2 hr 16 min 0 sec) 
 Total Blocks : 524288 Invalid Blocks : 4058
Heartbeat CPU 0 instructions: 330000000 cycles: 316028910 heartbeat IPC: 0.670519 cumulative IPC: 0.674167 (Simulation time: 2 hr 20 min 33 sec) 
 Total Blocks : 524288 Invalid Blocks : 3385
Heartbeat CPU 0 instructions: 340000002 cycles: 331017254 heartbeat IPC: 0.667185 cumulative IPC: 0.673663 (Simulation time: 2 hr 25 min 6 sec) 
 Total Blocks : 524288 Invalid Blocks : 2886
Heartbeat CPU 0 instructions: 350000000 cycles: 345980674 heartbeat IPC: 0.668296 cumulative IPC: 0.673303 (Simulation time: 2 hr 29 min 21 sec) 
 Total Blocks : 524288 Invalid Blocks : 2415
Heartbeat CPU 0 instructions: 360000000 cycles: 361047275 heartbeat IPC: 0.66372 cumulative IPC: 0.672696 (Simulation time: 2 hr 33 min 15 sec) 
 Total Blocks : 524288 Invalid Blocks : 2020
Heartbeat CPU 0 instructions: 370000003 cycles: 376286862 heartbeat IPC: 0.656186 cumulative IPC: 0.671702 (Simulation time: 2 hr 37 min 8 sec) 
 Total Blocks : 524288 Invalid Blocks : 1704
Heartbeat CPU 0 instructions: 380000001 cycles: 391449931 heartbeat IPC: 0.659497 cumulative IPC: 0.671012 (Simulation time: 2 hr 40 min 55 sec) 
 Total Blocks : 524288 Invalid Blocks : 1411
Heartbeat CPU 0 instructions: 390000000 cycles: 406726914 heartbeat IPC: 0.654579 cumulative IPC: 0.670126 (Simulation time: 2 hr 44 min 21 sec) 
 Total Blocks : 524288 Invalid Blocks : 1208
Heartbeat CPU 0 instructions: 400000001 cycles: 422016169 heartbeat IPC: 0.654054 cumulative IPC: 0.669304 (Simulation time: 2 hr 47 min 2 sec) 
 Total Blocks : 524288 Invalid Blocks : 1001
Finished CPU 0 instructions: 200000002 cycles: 298817833 cumulative IPC: 0.669304 (Simulation time: 2 hr 47 min 2 sec) 

CPU 0 Branch Prediction Accuracy: 98.7741% MPKI: 1.82943 Average ROB Occupancy at Mispredict: 256.73

ChampSim completed all CPUs

Region of Interest Statistics

CPU 0 cumulative IPC: 0.669304 instructions: 200000002 cycles: 298817833
ITLB TOTAL     ACCESS: 31196559  HIT: 31196559  MISS:     0  HIT %:   100  MISS %:     0  AVERAGE MISS PENALTY: 0
ITLB LOAD      ACCESS: 31196559  HIT: 31196559  MISS:     0  HIT %:   100  MISS %:     0  AVERAGE MISS PENALTY: 0
ITLB RFO       ACCESS:     0  HIT:     0  MISS:     0  HIT %:     0  MISS %:     0  AVERAGE MISS PENALTY: 0
ITLB PREFETCH  ACCESS:     0  HIT:     0  MISS:     0  HIT %:     0  MISS %:     0  AVERAGE MISS PENALTY: 0
ITLB WRITEBACK ACCESS:     0  HIT:     0  MISS:     0  HIT %:     0  MISS %:     0  AVERAGE MISS PENALTY: 0
ITLB PREFETCH  REQUESTED:     0  ISSUED:     0  USEFUL:     0  USELESS:     0
 USEFUL LOAD PREFETCHES:          0 PREFETCH ISSUED TO LOWER LEVEL:          0  ACCURACY: -nan
 TIMELY PREFETCHES:          0 LATE PREFETCHES: 0 DROPPED PREFETCHES: 0
ITLB AVERAGE MISS LATENCY: -nan cycles
DTLB TOTAL     ACCESS: 55303137  HIT: 48779064  MISS: 6524073  HIT %: 88.2031  MISS %: 11.7969  AVERAGE MISS PENALTY: 10.8447
DTLB LOAD      ACCESS: 54241539  HIT: 48019437  MISS: 6222102  HIT %: 88.5289  MISS %: 11.4711  AVERAGE MISS PENALTY: 10.6507
DTLB RFO       ACCESS: 1061598  HIT: 759627  MISS: 301971  HIT %: 71.5551  MISS %: 28.4449  AVERAGE MISS PENALTY: 14.8421
DTLB PREFETCH  ACCESS:     0  HIT:     0  MISS:     0  HIT %:     0  MISS %:     0  AVERAGE MISS PENALTY: 0
DTLB WRITEBACK ACCESS:     0  HIT:     0  MISS:     0  HIT %:     0  MISS %:     0  AVERAGE MISS PENALTY: 0
DTLB PREFETCH  REQUESTED:     0  ISSUED:     0  USEFUL:     0  USELESS:     0
 USEFUL LOAD PREFETCHES:          0 PREFETCH ISSUED TO LOWER LEVEL:          0  ACCURACY: -nan
 TIMELY PREFETCHES:          0 LATE PREFETCHES: 0 DROPPED PREFETCHES: 0
DTLB AVERAGE MISS LATENCY: 10.8447 cycles
STLB TOTAL     ACCESS: 6524073  HIT: 6429608  MISS: 94465  HIT %: 98.5521  MISS %: 1.44795  AVERAGE MISS PENALTY: 100
STLB LOAD      ACCESS: 6222102  HIT: 6145208  MISS: 76894  HIT %: 98.7642  MISS %: 1.23582  AVERAGE MISS PENALTY: 100
STLB RFO       ACCESS: 301971  HIT: 284400  MISS: 17571  HIT %: 94.1812  MISS %: 5.81877  AVERAGE MISS PENALTY: 100
STLB PREFETCH  ACCESS:     0  HIT:     0  MISS:     0  HIT %:     0  MISS %:     0  AVERAGE MISS PENALTY: 0
STLB WRITEBACK ACCESS:     0  HIT:     0  MISS:     0  HIT %:     0  MISS %:     0  AVERAGE MISS PENALTY: 0
STLB PREFETCH  REQUESTED:     0  ISSUED:     0  USEFUL:     0  USELESS:     0
 USEFUL LOAD PREFETCHES:          0 PREFETCH ISSUED TO LOWER LEVEL:          0  ACCURACY: -nan
 TIMELY PREFETCHES:          0 LATE PREFETCHES: 0 DROPPED PREFETCHES: 0
STLB AVERAGE MISS LATENCY: 100 cycles
L1D TOTAL     ACCESS: 84676372  HIT: 42678797  MISS: 41997575  HIT %: 50.4023  MISS %: 49.5977  AVERAGE MISS PENALTY: 785666
L1D LOAD      ACCESS: 46156146  HIT: 36338070  MISS: 9818076  HIT %: 78.7286  MISS %: 21.2714  AVERAGE MISS PENALTY: 3.36046e+06
L1D RFO       ACCESS: 1063934  HIT: 740038  MISS: 323896  HIT %: 69.5568  MISS %: 30.4432  AVERAGE MISS PENALTY: 70.2962
L1D PREFETCH  ACCESS: 37456292  HIT: 5600689  MISS: 31855603  HIT %: 14.9526  MISS %: 85.0474  AVERAGE MISS PENALTY: 88.2712
L1D WRITEBACK ACCESS:     0  HIT:     0  MISS:     0  HIT %:     0  MISS %:     0  AVERAGE MISS PENALTY: 0
L1D PREFETCH  REQUESTED: 60681841  ISSUED: 38631566  USEFUL: 1260002  USELESS: 30595597
 USEFUL LOAD PREFETCHES:    1260002 PREFETCH ISSUED TO LOWER LEVEL:  104242407  ACCURACY: 1.20872
 TIMELY PREFETCHES:    1260002 LATE PREFETCHES: 319380 DROPPED PREFETCHES: 22050275
L1D AVERAGE MISS LATENCY: 50.2187 cycles
L1I TOTAL     ACCESS: 45111823  HIT: 45111823  MISS:     0  HIT %:   100  MISS %:     0  AVERAGE MISS PENALTY: 0
L1I LOAD      ACCESS: 45111823  HIT: 45111823  MISS:     0  HIT %:   100  MISS %:     0  AVERAGE MISS PENALTY: 0
L1I RFO       ACCESS:     0  HIT:     0  MISS:     0  HIT %:     0  MISS %:     0  AVERAGE MISS PENALTY: 0
L1I PREFETCH  ACCESS:     0  HIT:     0  MISS:     0  HIT %:     0  MISS %:     0  AVERAGE MISS PENALTY: 0
L1I WRITEBACK ACCESS:     0  HIT:     0  MISS:     0  HIT %:     0  MISS %:     0  AVERAGE MISS PENALTY: 0
L1I PREFETCH  REQUESTED:     0  ISSUED:     0  USEFUL:     0  USELESS:     0
 USEFUL LOAD PREFETCHES:          0 PREFETCH ISSUED TO LOWER LEVEL:          0  ACCURACY: -nan
 TIMELY PREFETCHES:          0 LATE PREFETCHES: 0 DROPPED PREFETCHES: 0
L1I AVERAGE MISS LATENCY: -nan cycles
L2C TOTAL     ACCESS: 77997510  HIT: 12328149  MISS: 65669361  HIT %: 15.8058  MISS %: 84.1942  AVERAGE MISS PENALTY: 477073
L2C LOAD      ACCESS: 9793212  HIT: 1156695  MISS: 8636517  HIT %: 11.8112  MISS %: 88.1888  AVERAGE MISS PENALTY: 3.62722e+06
L2C RFO       ACCESS: 323883  HIT: 87889  MISS: 235994  HIT %: 27.136  MISS %: 72.864  AVERAGE MISS PENALTY: 75.5373
L2C PREFETCH  ACCESS: 66980573  HIT: 10184170  MISS: 56796403  HIT %: 15.2047  MISS %: 84.7953  AVERAGE MISS PENALTY: 44.0404
L2C WRITEBACK ACCESS: 899842  HIT: 899395  MISS:   447  HIT %: 99.9503  MISS %: 0.0496754  AVERAGE MISS PENALTY: 0
L2C PREFETCH  REQUESTED: 141171718  ISSUED: 129941714  USEFUL: 519462  USELESS: 56276938
 USEFUL LOAD PREFETCHES:     519462 PREFETCH ISSUED TO LOWER LEVEL:   61247058  ACCURACY: 0.848142
 TIMELY PREFETCHES:     519462 LATE PREFETCHES: 650328 DROPPED PREFETCHES: 11230004
L2C AVERAGE MISS LATENCY: 41.911 cycles
LLC0 TOTAL     ACCESS: 8433726  HIT: 8222362  MISS: 211364  HIT %: 97.4938  MISS %: 2.50618  AVERAGE MISS PENALTY: 131.937
LLC0 LOAD      ACCESS: 1106137  HIT: 1074804  MISS: 31333  HIT %: 97.1673  MISS %: 2.83265  AVERAGE MISS PENALTY: 156.168
LLC0 RFO       ACCESS: 29583  HIT: 24602  MISS:  4981  HIT %: 83.1626  MISS %: 16.8374  AVERAGE MISS PENALTY: 212.7
LLC0 PREFETCH  ACCESS: 7213289  HIT: 7038286  MISS: 175003  HIT %: 97.5739  MISS %: 2.42612  AVERAGE MISS PENALTY: 125.336
LLC0 WRITEBACK ACCESS: 84717  HIT: 84670  MISS:    47  HIT %: 99.9445  MISS %: 0.0554788  AVERAGE MISS PENALTY: 0
LLC0 PREFETCH  REQUESTED:     0  ISSUED:     0  USEFUL: 22455  USELESS: 149595
 USEFUL LOAD PREFETCHES:      22455 PREFETCH ISSUED TO LOWER LEVEL:     175003  ACCURACY: 12.8312
 TIMELY PREFETCHES:      22455 LATE PREFETCHES: 0 DROPPED PREFETCHES: 0
LLC0 AVERAGE MISS LATENCY: 131.937 cycles
Deadblocks : 26862 Deadblock percentage : 85.7307

LLC1 TOTAL     ACCESS: 8421234  HIT: 8208881  MISS: 212353  HIT %: 97.4784  MISS %: 2.52164  AVERAGE MISS PENALTY: 132.724
LLC1 LOAD      ACCESS: 1052877  HIT: 1040017  MISS: 12860  HIT %: 98.7786  MISS %: 1.22142  AVERAGE MISS PENALTY: 175.072
LLC1 RFO       ACCESS: 29577  HIT: 24571  MISS:  5006  HIT %: 83.0747  MISS %: 16.9253  AVERAGE MISS PENALTY: 216.362
LLC1 PREFETCH  ACCESS: 7252329  HIT: 7057885  MISS: 194444  HIT %: 97.3189  MISS %: 2.68112  AVERAGE MISS PENALTY: 127.799
LLC1 WRITEBACK ACCESS: 86451  HIT: 86408  MISS:    43  HIT %: 99.9503  MISS %: 0.0497392  AVERAGE MISS PENALTY: 0
LLC1 PREFETCH  REQUESTED:     0  ISSUED:     0  USEFUL: 22894  USELESS: 168575
 USEFUL LOAD PREFETCHES:      22894 PREFETCH ISSUED TO LOWER LEVEL:     194445  ACCURACY: 11.774
 TIMELY PREFETCHES:      22894 LATE PREFETCHES: 0 DROPPED PREFETCHES: 0
LLC1 AVERAGE MISS LATENCY: 132.724 cycles
LLC2 TOTAL     ACCESS: 8425982  HIT: 8213016  MISS: 212966  HIT %: 97.4725  MISS %: 2.52749  AVERAGE MISS PENALTY: 133.288
LLC2 LOAD      ACCESS: 1074057  HIT: 1061024  MISS: 13033  HIT %: 98.7866  MISS %: 1.21344  AVERAGE MISS PENALTY: 174.708
LLC2 RFO       ACCESS: 29747  HIT: 24716  MISS:  5031  HIT %: 83.0874  MISS %: 16.9126  AVERAGE MISS PENALTY: 216.935
LLC2 PREFETCH  ACCESS: 7235386  HIT: 7040543  MISS: 194843  HIT %: 97.3071  MISS %: 2.69292  AVERAGE MISS PENALTY: 128.398
LLC2 WRITEBACK ACCESS: 86792  HIT: 86733  MISS:    59  HIT %: 99.932  MISS %: 0.0679786  AVERAGE MISS PENALTY: 0
LLC2 PREFETCH  REQUESTED:     0  ISSUED:     0  USEFUL: 22842  USELESS: 169100
 USEFUL LOAD PREFETCHES:      22842 PREFETCH ISSUED TO LOWER LEVEL:     194843  ACCURACY: 11.7233
 TIMELY PREFETCHES:      22842 LATE PREFETCHES: 0 DROPPED PREFETCHES: 0
LLC2 AVERAGE MISS LATENCY: 133.288 cycles
LLC3 TOTAL     ACCESS: 8397879  HIT: 8184668  MISS: 213211  HIT %: 97.4611  MISS %: 2.53887  AVERAGE MISS PENALTY: 133.751
LLC3 LOAD      ACCESS: 1085030  HIT: 1071983  MISS: 13047  HIT %: 98.7975  MISS %: 1.20246  AVERAGE MISS PENALTY: 174.723
LLC3 RFO       ACCESS: 29630  HIT: 24604  MISS:  5026  HIT %: 83.0375  MISS %: 16.9625  AVERAGE MISS PENALTY: 217.146
LLC3 PREFETCH  ACCESS: 7196880  HIT: 7001789  MISS: 195091  HIT %: 97.2892  MISS %: 2.71077  AVERAGE MISS PENALTY: 128.894
LLC3 WRITEBACK ACCESS: 86339  HIT: 86292  MISS:    47  HIT %: 99.9456  MISS %: 0.0544366  AVERAGE MISS PENALTY: 0
LLC3 PREFETCH  REQUESTED:     0  ISSUED:     0  USEFUL: 22776  USELESS: 169423
 USEFUL LOAD PREFETCHES:      22776 PREFETCH ISSUED TO LOWER LEVEL:     195091  ACCURACY: 11.6746
 TIMELY PREFETCHES:      22776 LATE PREFETCHES: 0 DROPPED PREFETCHES: 0
LLC3 AVERAGE MISS LATENCY: 133.751 cycles
LLC4 TOTAL     ACCESS: 8331205  HIT: 8117230  MISS: 213975  HIT %: 97.4316  MISS %: 2.56836  AVERAGE MISS PENALTY: 134.272
LLC4 LOAD      ACCESS: 1072264  HIT: 1059203  MISS: 13061  HIT %: 98.7819  MISS %: 1.21808  AVERAGE MISS PENALTY: 174.749
LLC4 RFO       ACCESS: 29686  HIT: 24691  MISS:  4995  HIT %: 83.1739  MISS %: 16.8261  AVERAGE MISS PENALTY: 216.502
LLC4 PREFETCH  ACCESS: 7142811  HIT: 6946931  MISS: 195880  HIT %: 97.2577  MISS %: 2.74234  AVERAGE MISS PENALTY: 129.503
LLC4 WRITEBACK ACCESS: 86444  HIT: 86405  MISS:    39  HIT %: 99.9549  MISS %: 0.0451159  AVERAGE MISS PENALTY: 0
LLC4 PREFETCH  REQUESTED:     0  ISSUED:     0  USEFUL: 23049  USELESS: 170018
 USEFUL LOAD PREFETCHES:      23049 PREFETCH ISSUED TO LOWER LEVEL:     195880  ACCURACY: 11.7669
 TIMELY PREFETCHES:      23049 LATE PREFETCHES: 0 DROPPED PREFETCHES: 0
LLC4 AVERAGE MISS LATENCY: 134.272 cycles
LLC5 TOTAL     ACCESS: 8242643  HIT: 8028354  MISS: 214289  HIT %: 97.4002  MISS %: 2.59976  AVERAGE MISS PENALTY: 134.264
LLC5 LOAD      ACCESS: 1073550  HIT: 1060346  MISS: 13204  HIT %: 98.7701  MISS %: 1.22994  AVERAGE MISS PENALTY: 175.28
LLC5 RFO       ACCESS: 29596  HIT: 24639  MISS:  4957  HIT %: 83.2511  MISS %: 16.7489  AVERAGE MISS PENALTY: 215.719
LLC5 PREFETCH  ACCESS: 7053785  HIT: 6857702  MISS: 196083  HIT %: 97.2202  MISS %: 2.77983  AVERAGE MISS PENALTY: 129.474
LLC5 WRITEBACK ACCESS: 85712  HIT: 85667  MISS:    45  HIT %: 99.9475  MISS %: 0.0525014  AVERAGE MISS PENALTY: 0
LLC5 PREFETCH  REQUESTED:     0  ISSUED:     0  USEFUL: 22988  USELESS: 170154
 USEFUL LOAD PREFETCHES:      22988 PREFETCH ISSUED TO LOWER LEVEL:     196083  ACCURACY: 11.7236
 TIMELY PREFETCHES:      22988 LATE PREFETCHES: 0 DROPPED PREFETCHES: 0
LLC5 AVERAGE MISS LATENCY: 134.264 cycles
LLC6 TOTAL     ACCESS: 8121537  HIT: 7906958  MISS: 214579  HIT %: 97.3579  MISS %: 2.6421  AVERAGE MISS PENALTY: 134.9
LLC6 LOAD      ACCESS: 1070342  HIT: 1056858  MISS: 13484  HIT %: 98.7402  MISS %: 1.25978  AVERAGE MISS PENALTY: 175.871
LLC6 RFO       ACCESS: 29265  HIT: 24267  MISS:  4998  HIT %: 82.9216  MISS %: 17.0784  AVERAGE MISS PENALTY: 217.843
LLC6 PREFETCH  ACCESS: 6936427  HIT: 6740376  MISS: 196051  HIT %: 97.1736  MISS %: 2.8264  AVERAGE MISS PENALTY: 130
LLC6 WRITEBACK ACCESS: 85503  HIT: 85457  MISS:    46  HIT %: 99.9462  MISS %: 0.0537993  AVERAGE MISS PENALTY: 0
LLC6 PREFETCH  REQUESTED:     0  ISSUED:     0  USEFUL: 22507  USELESS: 170570
 USEFUL LOAD PREFETCHES:      22507 PREFETCH ISSUED TO LOWER LEVEL:     196051  ACCURACY: 11.4802
 TIMELY PREFETCHES:      22507 LATE PREFETCHES: 0 DROPPED PREFETCHES: 0
LLC6 AVERAGE MISS LATENCY: 134.9 cycles
LLC7 TOTAL     ACCESS: 7981113  HIT: 7766003  MISS: 215110  HIT %: 97.3048  MISS %: 2.69524  AVERAGE MISS PENALTY: 135.278
LLC7 LOAD      ACCESS: 1064382  HIT: 1050462  MISS: 13920  HIT %: 98.6922  MISS %: 1.3078  AVERAGE MISS PENALTY: 175.821
LLC7 RFO       ACCESS: 28901  HIT: 23914  MISS:  4987  HIT %: 82.7445  MISS %: 17.2555  AVERAGE MISS PENALTY: 215.296
LLC7 PREFETCH  ACCESS: 6803370  HIT: 6607236  MISS: 196134  HIT %: 97.1171  MISS %: 2.88289  AVERAGE MISS PENALTY: 130.414
LLC7 WRITEBACK ACCESS: 84460  HIT: 84391  MISS:    69  HIT %: 99.9183  MISS %: 0.0816955  AVERAGE MISS PENALTY: 0
LLC7 PREFETCH  REQUESTED:     0  ISSUED:     0  USEFUL: 22379  USELESS: 170875
 USEFUL LOAD PREFETCHES:      22379 PREFETCH ISSUED TO LOWER LEVEL:     196134  ACCURACY: 11.4101
 TIMELY PREFETCHES:      22379 LATE PREFETCHES: 0 DROPPED PREFETCHES: 0
LLC7 AVERAGE MISS LATENCY: 135.278 cycles
ROI Average ROB Stall Cycles:	7.65615
ROI Total ROB Stalls Cycles:	256485781
ROI TOTAL ROB counter      :	33500628
ROI Average Load ROB Stall Cycles:	31.8255
ROI Total Load ROB Stalls Cycle  :	168563534
ROI Total Load ROB stalls Counter:	5296497
Major fault: 0 Minor fault: 58148

