
*** ChampSim Multicore Out-of-Order Simulator ***

Warmup Instructions: 200000000
Simulation Instructions: 200000000
Number of CPUs: 1
threads:1

L1I Configuration:
L1I_SET:64
L1I_WAY:8
L1I_RQ_SIZE:64
L1I_WQ_SIZE:64
L1I_PQ_SIZE:8
L1I_MSHR_SIZE:8

L1D Configuration:
L1D_SET:64
L1D_WAY:12
L1D_RQ_SIZE:64
L1D_WQ_SIZE:64
L1D_PQ_SIZE:8
L1D_MSHR_SIZE:16

L2C Configuration:
L2C_SET:1024
L2C_WAY:8
L2C_RQ_SIZE:32
L2C_WQ_SIZE:32
L2C_PQ_SIZE:16
L2C_MSHR_SIZE:32

LLC Configuration:
LLC_SET:2048
LLC_WAY:16
LLC SLICES:1
LLC_RQ_SIZE:64
LLC_WQ_SIZE:64
LLC_PQ_SIZE:32
LLC_MSHR_SIZE:64

Interconnect OFF
Attacker deprioritize is: OFF
Off-chip DRAM Size: 4096 MB Channels: 1 Width: 64-bit Data Rate: 3200 MT/s
PAGE SIZE in KB: 4.000000 
PAGE SIZE in MB: 0.003906 
PAGE offset in bits: 12 
CEASER-S_LLC:0
MIRAGE : 0
CEASER_LATENCY:3
REMAP : OFF
Partitions : 1
Multi-Step : OFF
BFS : OFF

CPU 0 runs /home/anubhav/gap/cc-5.trace.gz
CPU 0 Bimodal branch predictor
Initialize SRRIP state
Heartbeat CPU 0 instructions: 10000000 cycles: 10434174 heartbeat IPC: 0.958389 cumulative IPC: 0.958389 (Simulation time: 0 hr 1 min 26 sec) 
 Total Blocks : 32768 Invalid Blocks : 0
Heartbeat CPU 0 instructions: 20000000 cycles: 19672105 heartbeat IPC: 1.08249 cumulative IPC: 1.01667 (Simulation time: 0 hr 3 min 13 sec) 
 Total Blocks : 32768 Invalid Blocks : 0
Heartbeat CPU 0 instructions: 30000002 cycles: 28225463 heartbeat IPC: 1.16913 cumulative IPC: 1.06287 (Simulation time: 0 hr 6 min 29 sec) 
 Total Blocks : 32768 Invalid Blocks : 0
Heartbeat CPU 0 instructions: 40000003 cycles: 36554471 heartbeat IPC: 1.20062 cumulative IPC: 1.09426 (Simulation time: 0 hr 9 min 57 sec) 
 Total Blocks : 32768 Invalid Blocks : 0
Heartbeat CPU 0 instructions: 50000001 cycles: 44470520 heartbeat IPC: 1.26326 cumulative IPC: 1.12434 (Simulation time: 0 hr 13 min 20 sec) 
 Total Blocks : 32768 Invalid Blocks : 0
Heartbeat CPU 0 instructions: 60000000 cycles: 52828973 heartbeat IPC: 1.19639 cumulative IPC: 1.13574 (Simulation time: 0 hr 16 min 57 sec) 
 Total Blocks : 32768 Invalid Blocks : 0
Heartbeat CPU 0 instructions: 70000001 cycles: 60730553 heartbeat IPC: 1.26557 cumulative IPC: 1.15263 (Simulation time: 0 hr 20 min 25 sec) 
 Total Blocks : 32768 Invalid Blocks : 0
Heartbeat CPU 0 instructions: 80000000 cycles: 68758394 heartbeat IPC: 1.24566 cumulative IPC: 1.16349 (Simulation time: 0 hr 23 min 56 sec) 
 Total Blocks : 32768 Invalid Blocks : 0
Heartbeat CPU 0 instructions: 90000003 cycles: 76955475 heartbeat IPC: 1.21995 cumulative IPC: 1.16951 (Simulation time: 0 hr 27 min 22 sec) 
 Total Blocks : 32768 Invalid Blocks : 0
Heartbeat CPU 0 instructions: 100000001 cycles: 84829372 heartbeat IPC: 1.27002 cumulative IPC: 1.17884 (Simulation time: 0 hr 30 min 56 sec) 
 Total Blocks : 32768 Invalid Blocks : 0
Heartbeat CPU 0 instructions: 110000000 cycles: 92801949 heartbeat IPC: 1.2543 cumulative IPC: 1.18532 (Simulation time: 0 hr 34 min 29 sec) 
 Total Blocks : 32768 Invalid Blocks : 0
Heartbeat CPU 0 instructions: 120000000 cycles: 100758673 heartbeat IPC: 1.2568 cumulative IPC: 1.19096 (Simulation time: 0 hr 38 min 3 sec) 
 Total Blocks : 32768 Invalid Blocks : 0
Heartbeat CPU 0 instructions: 130000003 cycles: 108174039 heartbeat IPC: 1.34855 cumulative IPC: 1.20177 (Simulation time: 0 hr 41 min 39 sec) 
 Total Blocks : 32768 Invalid Blocks : 0
Heartbeat CPU 0 instructions: 140000001 cycles: 116087327 heartbeat IPC: 1.2637 cumulative IPC: 1.20599 (Simulation time: 0 hr 45 min 7 sec) 
 Total Blocks : 32768 Invalid Blocks : 0
Heartbeat CPU 0 instructions: 150000000 cycles: 123916158 heartbeat IPC: 1.27733 cumulative IPC: 1.2105 (Simulation time: 0 hr 48 min 50 sec) 
 Total Blocks : 32768 Invalid Blocks : 0
Heartbeat CPU 0 instructions: 160000000 cycles: 131845144 heartbeat IPC: 1.2612 cumulative IPC: 1.21354 (Simulation time: 0 hr 52 min 24 sec) 
 Total Blocks : 32768 Invalid Blocks : 0
Heartbeat CPU 0 instructions: 170000003 cycles: 139723029 heartbeat IPC: 1.26938 cumulative IPC: 1.21669 (Simulation time: 0 hr 56 min 0 sec) 
 Total Blocks : 32768 Invalid Blocks : 0
Heartbeat CPU 0 instructions: 180000001 cycles: 147712312 heartbeat IPC: 1.25168 cumulative IPC: 1.21858 (Simulation time: 0 hr 59 min 42 sec) 
 Total Blocks : 32768 Invalid Blocks : 0
Heartbeat CPU 0 instructions: 190000002 cycles: 155530927 heartbeat IPC: 1.279 cumulative IPC: 1.22162 (Simulation time: 1 hr 3 min 34 sec) 
 Total Blocks : 32768 Invalid Blocks : 0
Heartbeat CPU 0 instructions: 200000003 cycles: 163346954 heartbeat IPC: 1.27942 cumulative IPC: 1.22439 (Simulation time: 1 hr 7 min 34 sec) 
 Total Blocks : 32768 Invalid Blocks : 0

Warmup complete CPU 0 instructions: 200000003 cycles: 163346954 (Simulation time: 1 hr 7 min 34 sec) 

Heartbeat CPU 0 instructions: 210000002 cycles: 209132517 heartbeat IPC: 0.218409 cumulative IPC: 0.218409 (Simulation time: 1 hr 17 min 9 sec) 
 Total Blocks : 32768 Invalid Blocks : 0
Heartbeat CPU 0 instructions: 220000000 cycles: 254302458 heartbeat IPC: 0.221386 cumulative IPC: 0.219888 (Simulation time: 1 hr 26 min 32 sec) 
 Total Blocks : 32768 Invalid Blocks : 0
Heartbeat CPU 0 instructions: 230000000 cycles: 299369337 heartbeat IPC: 0.221892 cumulative IPC: 0.220552 (Simulation time: 1 hr 36 min 10 sec) 
 Total Blocks : 32768 Invalid Blocks : 0
Heartbeat CPU 0 instructions: 240000001 cycles: 344010633 heartbeat IPC: 0.224008 cumulative IPC: 0.221406 (Simulation time: 1 hr 45 min 48 sec) 
 Total Blocks : 32768 Invalid Blocks : 0
Heartbeat CPU 0 instructions: 250000002 cycles: 387946650 heartbeat IPC: 0.227604 cumulative IPC: 0.222618 (Simulation time: 1 hr 55 min 31 sec) 
 Total Blocks : 32768 Invalid Blocks : 0
Heartbeat CPU 0 instructions: 260000000 cycles: 431611885 heartbeat IPC: 0.229015 cumulative IPC: 0.223659 (Simulation time: 2 hr 4 min 55 sec) 
 Total Blocks : 32768 Invalid Blocks : 0
Heartbeat CPU 0 instructions: 270000000 cycles: 476332954 heartbeat IPC: 0.223608 cumulative IPC: 0.223652 (Simulation time: 2 hr 14 min 31 sec) 
 Total Blocks : 32768 Invalid Blocks : 0
Heartbeat CPU 0 instructions: 280000001 cycles: 522524966 heartbeat IPC: 0.216488 cumulative IPC: 0.222731 (Simulation time: 2 hr 24 min 5 sec) 
 Total Blocks : 32768 Invalid Blocks : 0
Heartbeat CPU 0 instructions: 290000002 cycles: 568207822 heartbeat IPC: 0.218901 cumulative IPC: 0.222299 (Simulation time: 2 hr 33 min 34 sec) 
 Total Blocks : 32768 Invalid Blocks : 0
Heartbeat CPU 0 instructions: 300000002 cycles: 614142956 heartbeat IPC: 0.217698 cumulative IPC: 0.22183 (Simulation time: 2 hr 42 min 47 sec) 
 Total Blocks : 32768 Invalid Blocks : 0
Heartbeat CPU 0 instructions: 310000001 cycles: 659069364 heartbeat IPC: 0.222586 cumulative IPC: 0.221898 (Simulation time: 2 hr 51 min 38 sec) 
 Total Blocks : 32768 Invalid Blocks : 0
Heartbeat CPU 0 instructions: 320000003 cycles: 704012475 heartbeat IPC: 0.222504 cumulative IPC: 0.221949 (Simulation time: 3 hr 0 min 31 sec) 
 Total Blocks : 32768 Invalid Blocks : 0
Heartbeat CPU 0 instructions: 330000000 cycles: 750259960 heartbeat IPC: 0.216228 cumulative IPC: 0.221498 (Simulation time: 3 hr 9 min 25 sec) 
 Total Blocks : 32768 Invalid Blocks : 0
Heartbeat CPU 0 instructions: 340000001 cycles: 795846954 heartbeat IPC: 0.219361 cumulative IPC: 0.221344 (Simulation time: 3 hr 18 min 17 sec) 
 Total Blocks : 32768 Invalid Blocks : 0
Heartbeat CPU 0 instructions: 350000001 cycles: 840297655 heartbeat IPC: 0.224968 cumulative IPC: 0.221582 (Simulation time: 3 hr 26 min 50 sec) 
 Total Blocks : 32768 Invalid Blocks : 0
Heartbeat CPU 0 instructions: 360000001 cycles: 885778101 heartbeat IPC: 0.219875 cumulative IPC: 0.221474 (Simulation time: 3 hr 35 min 3 sec) 
 Total Blocks : 32768 Invalid Blocks : 0
Heartbeat CPU 0 instructions: 370000000 cycles: 930137598 heartbeat IPC: 0.225431 cumulative IPC: 0.221703 (Simulation time: 3 hr 42 min 53 sec) 
 Total Blocks : 32768 Invalid Blocks : 0
Heartbeat CPU 0 instructions: 380000002 cycles: 975424961 heartbeat IPC: 0.220812 cumulative IPC: 0.221654 (Simulation time: 3 hr 50 min 36 sec) 
 Total Blocks : 32768 Invalid Blocks : 0
Heartbeat CPU 0 instructions: 390000003 cycles: 1020044430 heartbeat IPC: 0.224117 cumulative IPC: 0.221782 (Simulation time: 3 hr 58 min 17 sec) 
 Total Blocks : 32768 Invalid Blocks : 0
Heartbeat CPU 0 instructions: 400000000 cycles: 1064742110 heartbeat IPC: 0.223725 cumulative IPC: 0.221878 (Simulation time: 4 hr 5 min 43 sec) 
 Total Blocks : 32768 Invalid Blocks : 0
Finished CPU 0 instructions: 200000000 cycles: 901395174 cumulative IPC: 0.221878 (Simulation time: 4 hr 5 min 43 sec) 

CPU 0 Branch Prediction Accuracy: 93.0717% MPKI: 13.9943 Average ROB Occupancy at Mispredict: 54.7538

ChampSim completed all CPUs

Region of Interest Statistics

CPU 0 cumulative IPC: 0.221878 instructions: 200000000 cycles: 901395174
ITLB TOTAL     ACCESS: 31102041  HIT: 31102041  MISS:     0  HIT %:   100  MISS %:     0  AVERAGE MISS PENALTY: 0
ITLB LOAD      ACCESS: 31102041  HIT: 31102041  MISS:     0  HIT %:   100  MISS %:     0  AVERAGE MISS PENALTY: 0
ITLB RFO       ACCESS:     0  HIT:     0  MISS:     0  HIT %:     0  MISS %:     0  AVERAGE MISS PENALTY: 0
ITLB PREFETCH  ACCESS:     0  HIT:     0  MISS:     0  HIT %:     0  MISS %:     0  AVERAGE MISS PENALTY: 0
ITLB WRITEBACK ACCESS:     0  HIT:     0  MISS:     0  HIT %:     0  MISS %:     0  AVERAGE MISS PENALTY: 0
ITLB PREFETCH  REQUESTED:     0  ISSUED:     0  USEFUL:     0  USELESS:     0
 USEFUL LOAD PREFETCHES:          0 PREFETCH ISSUED TO LOWER LEVEL:          0  ACCURACY: -nan
 TIMELY PREFETCHES:          0 LATE PREFETCHES: 0 DROPPED PREFETCHES: 0
ITLB AVERAGE MISS LATENCY: -nan cycles
DTLB TOTAL     ACCESS: 45143065  HIT: 35618284  MISS: 9524781  HIT %: 78.9009  MISS %: 21.0991  AVERAGE MISS PENALTY: 9.66082
DTLB LOAD      ACCESS: 45076498  HIT: 35551717  MISS: 9524781  HIT %: 78.8697  MISS %: 21.1303  AVERAGE MISS PENALTY: 9.66082
DTLB RFO       ACCESS: 66567  HIT: 66567  MISS:     0  HIT %:   100  MISS %:     0  AVERAGE MISS PENALTY: 0
DTLB PREFETCH  ACCESS:     0  HIT:     0  MISS:     0  HIT %:     0  MISS %:     0  AVERAGE MISS PENALTY: 0
DTLB WRITEBACK ACCESS:     0  HIT:     0  MISS:     0  HIT %:     0  MISS %:     0  AVERAGE MISS PENALTY: 0
DTLB PREFETCH  REQUESTED:     0  ISSUED:     0  USEFUL:     0  USELESS:     0
 USEFUL LOAD PREFETCHES:          0 PREFETCH ISSUED TO LOWER LEVEL:          0  ACCURACY: -nan
 TIMELY PREFETCHES:          0 LATE PREFETCHES: 0 DROPPED PREFETCHES: 0
DTLB AVERAGE MISS LATENCY: 9.66082 cycles
STLB TOTAL     ACCESS: 9524781  HIT: 9510428  MISS: 14353  HIT %: 99.8493  MISS %: 0.150691  AVERAGE MISS PENALTY: 100
STLB LOAD      ACCESS: 9524781  HIT: 9510428  MISS: 14353  HIT %: 99.8493  MISS %: 0.150691  AVERAGE MISS PENALTY: 100
STLB RFO       ACCESS:     0  HIT:     0  MISS:     0  HIT %:     0  MISS %:     0  AVERAGE MISS PENALTY: 0
STLB PREFETCH  ACCESS:     0  HIT:     0  MISS:     0  HIT %:     0  MISS %:     0  AVERAGE MISS PENALTY: 0
STLB WRITEBACK ACCESS:     0  HIT:     0  MISS:     0  HIT %:     0  MISS %:     0  AVERAGE MISS PENALTY: 0
STLB PREFETCH  REQUESTED:     0  ISSUED:     0  USEFUL:     0  USELESS:     0
 USEFUL LOAD PREFETCHES:          0 PREFETCH ISSUED TO LOWER LEVEL:          0  ACCURACY: -nan
 TIMELY PREFETCHES:          0 LATE PREFETCHES: 0 DROPPED PREFETCHES: 0
STLB AVERAGE MISS LATENCY: 100 cycles
L1D TOTAL     ACCESS: 40924421  HIT: 26180421  MISS: 14744000  HIT %: 63.9726  MISS %: 36.0274  AVERAGE MISS PENALTY: 93.2101
L1D LOAD      ACCESS: 40857850  HIT: 26113850  MISS: 14744000  HIT %: 63.9139  MISS %: 36.0861  AVERAGE MISS PENALTY: 93.2101
L1D RFO       ACCESS: 66571  HIT: 66571  MISS:     0  HIT %:   100  MISS %:     0  AVERAGE MISS PENALTY: 0
L1D PREFETCH  ACCESS:     0  HIT:     0  MISS:     0  HIT %:     0  MISS %:     0  AVERAGE MISS PENALTY: 0
L1D WRITEBACK ACCESS:     0  HIT:     0  MISS:     0  HIT %:     0  MISS %:     0  AVERAGE MISS PENALTY: 0
L1D PREFETCH  REQUESTED:     0  ISSUED:     0  USEFUL:     0  USELESS:     0
 USEFUL LOAD PREFETCHES:          0 PREFETCH ISSUED TO LOWER LEVEL:          0  ACCURACY: -nan
 TIMELY PREFETCHES:          0 LATE PREFETCHES: 0 DROPPED PREFETCHES: 0
L1D AVERAGE MISS LATENCY: 82.1313 cycles
L1I TOTAL     ACCESS: 42346513  HIT: 42346513  MISS:     0  HIT %:   100  MISS %:     0  AVERAGE MISS PENALTY: 0
L1I LOAD      ACCESS: 42346513  HIT: 42346513  MISS:     0  HIT %:   100  MISS %:     0  AVERAGE MISS PENALTY: 0
L1I RFO       ACCESS:     0  HIT:     0  MISS:     0  HIT %:     0  MISS %:     0  AVERAGE MISS PENALTY: 0
L1I PREFETCH  ACCESS:     0  HIT:     0  MISS:     0  HIT %:     0  MISS %:     0  AVERAGE MISS PENALTY: 0
L1I WRITEBACK ACCESS:     0  HIT:     0  MISS:     0  HIT %:     0  MISS %:     0  AVERAGE MISS PENALTY: 0
L1I PREFETCH  REQUESTED:     0  ISSUED:     0  USEFUL:     0  USELESS:     0
 USEFUL LOAD PREFETCHES:          0 PREFETCH ISSUED TO LOWER LEVEL:          0  ACCURACY: -nan
 TIMELY PREFETCHES:          0 LATE PREFETCHES: 0 DROPPED PREFETCHES: 0
L1I AVERAGE MISS LATENCY: -nan cycles
L2C TOTAL     ACCESS: 14799676  HIT: 4570618  MISS: 10229058  HIT %: 30.8832  MISS %: 69.1168  AVERAGE MISS PENALTY: 112.343
L2C LOAD      ACCESS: 14744000  HIT: 4515036  MISS: 10228964  HIT %: 30.6229  MISS %: 69.3771  AVERAGE MISS PENALTY: 112.344
L2C RFO       ACCESS:     0  HIT:     0  MISS:     0  HIT %:     0  MISS %:     0  AVERAGE MISS PENALTY: 0
L2C PREFETCH  ACCESS:     0  HIT:     0  MISS:     0  HIT %:     0  MISS %:     0  AVERAGE MISS PENALTY: 0
L2C WRITEBACK ACCESS: 55676  HIT: 55582  MISS:    94  HIT %: 99.8312  MISS %: 0.168834  AVERAGE MISS PENALTY: 0
L2C PREFETCH  REQUESTED:     0  ISSUED:     0  USEFUL:     0  USELESS:     0
 USEFUL LOAD PREFETCHES:          0 PREFETCH ISSUED TO LOWER LEVEL:          0  ACCURACY: -nan
 TIMELY PREFETCHES:          0 LATE PREFETCHES: 0 DROPPED PREFETCHES: 0
L2C AVERAGE MISS LATENCY: 96.3738 cycles
LLC0 TOTAL     ACCESS: 10284663  HIT: 6429377  MISS: 3855286  HIT %: 62.5142  MISS %: 37.4858  AVERAGE MISS PENALTY: 207.802
LLC0 LOAD      ACCESS: 10228964  HIT: 6373889  MISS: 3855075  HIT %: 62.3122  MISS %: 37.6878  AVERAGE MISS PENALTY: 207.813
LLC0 RFO       ACCESS:     0  HIT:     0  MISS:     0  HIT %:     0  MISS %:     0  AVERAGE MISS PENALTY: 0
LLC0 PREFETCH  ACCESS:     0  HIT:     0  MISS:     0  HIT %:     0  MISS %:     0  AVERAGE MISS PENALTY: 0
LLC0 WRITEBACK ACCESS: 55699  HIT: 55488  MISS:   211  HIT %: 99.6212  MISS %: 0.378822  AVERAGE MISS PENALTY: 0
LLC0 PREFETCH  REQUESTED:     0  ISSUED:     0  USEFUL:     0  USELESS:     0
 USEFUL LOAD PREFETCHES:          0 PREFETCH ISSUED TO LOWER LEVEL:          0  ACCURACY: -nan
 TIMELY PREFETCHES:          0 LATE PREFETCHES: 0 DROPPED PREFETCHES: 0
LLC0 AVERAGE MISS LATENCY: 165.432 cycles
Deadblocks : 3115336 Deadblock percentage : 80.8113

ROI Average ROB Stall Cycles:	10.3223
ROI Total ROB Stalls Cycles:	826348472
ROI TOTAL ROB counter      :	80054474
ROI Average Load ROB Stall Cycles:	58.1854
ROI Total Load ROB Stalls Cycle  :	375513839
ROI Total Load ROB stalls Counter:	6453743
Major fault: 0 Minor fault: 29430
Interconnect Stats 
LINK 0 BW : 0
DRAM Statistics
 CHANNEL 0
 RQ ROW_BUFFER_HIT: 666866  ROW_BUFFER_MISS: 3188206
 DBUS_CONGESTED: 542740
 WQ ROW_BUFFER_HIT: 15192  ROW_BUFFER_MISS: 39297  FULL:     0

 AVG_CONGESTED_CYCLE: 4
DRAM PAGES: 1048576
Allocated PAGES: 29430
L2C destructor called
L1D destructor called
L1I destructor called
STLB destructor called
DTLB destructor called
ITLB destructor called
