
*** ChampSim Multicore Out-of-Order Simulator ***

Warmup Instructions: 200000000
Simulation Instructions: 200000000
Number of CPUs: 1
threads:1

L1I Configuration:
L1I_SET:64
L1I_WAY:8
L1I_RQ_SIZE:64
L1I_WQ_SIZE:64
L1I_PQ_SIZE:8
L1I_MSHR_SIZE:8

L1D Configuration:
L1D_SET:64
L1D_WAY:12
L1D_RQ_SIZE:64
L1D_WQ_SIZE:64
L1D_PQ_SIZE:8
L1D_MSHR_SIZE:16

L2C Configuration:
L2C_SET:1024
L2C_WAY:8
L2C_RQ_SIZE:32
L2C_WQ_SIZE:32
L2C_PQ_SIZE:16
L2C_MSHR_SIZE:32

LLC Configuration:
LLC_SET:2048
LLC_WAY:16
LLC SLICES:1
LLC_RQ_SIZE:64
LLC_WQ_SIZE:64
LLC_PQ_SIZE:32
LLC_MSHR_SIZE:64

Interconnect OFF
Attacker deprioritize is: OFF
Off-chip DRAM Size: 4096 MB Channels: 1 Width: 64-bit Data Rate: 3200 MT/s
PAGE SIZE in KB: 4.000000 
PAGE SIZE in MB: 0.003906 
PAGE offset in bits: 12 
CEASER-S_LLC:0
MIRAGE : 0
CEASER_LATENCY:3
REMAP : OFF
Partitions : 1
Multi-Step : OFF
BFS : OFF

CPU 0 runs /home/anubhav/gap/sssp-10.trace.gz
CPU 0 Bimodal branch predictor
Initialize SRRIP state
Heartbeat CPU 0 instructions: 10000000 cycles: 7201024 heartbeat IPC: 1.38869 cumulative IPC: 1.38869 (Simulation time: 0 hr 1 min 50 sec) 
 Total Blocks : 32768 Invalid Blocks : 0
Heartbeat CPU 0 instructions: 20000000 cycles: 15533925 heartbeat IPC: 1.20006 cumulative IPC: 1.2875 (Simulation time: 0 hr 4 min 16 sec) 
 Total Blocks : 32768 Invalid Blocks : 0
Heartbeat CPU 0 instructions: 30000002 cycles: 23203021 heartbeat IPC: 1.30393 cumulative IPC: 1.29294 (Simulation time: 0 hr 8 min 14 sec) 
 Total Blocks : 32768 Invalid Blocks : 0
Heartbeat CPU 0 instructions: 40000003 cycles: 30318912 heartbeat IPC: 1.40531 cumulative IPC: 1.31931 (Simulation time: 0 hr 12 min 16 sec) 
 Total Blocks : 32768 Invalid Blocks : 0
Heartbeat CPU 0 instructions: 50000000 cycles: 37109198 heartbeat IPC: 1.47269 cumulative IPC: 1.34737 (Simulation time: 0 hr 16 min 36 sec) 
 Total Blocks : 32768 Invalid Blocks : 0
Heartbeat CPU 0 instructions: 60000003 cycles: 43583545 heartbeat IPC: 1.54456 cumulative IPC: 1.37667 (Simulation time: 0 hr 20 min 55 sec) 
 Total Blocks : 32768 Invalid Blocks : 0
Heartbeat CPU 0 instructions: 70000003 cycles: 49838624 heartbeat IPC: 1.5987 cumulative IPC: 1.40453 (Simulation time: 0 hr 25 min 37 sec) 
 Total Blocks : 32768 Invalid Blocks : 0
Heartbeat CPU 0 instructions: 80000000 cycles: 55924616 heartbeat IPC: 1.64312 cumulative IPC: 1.4305 (Simulation time: 0 hr 30 min 46 sec) 
 Total Blocks : 32768 Invalid Blocks : 0
Heartbeat CPU 0 instructions: 90000000 cycles: 62093259 heartbeat IPC: 1.6211 cumulative IPC: 1.44943 (Simulation time: 0 hr 35 min 57 sec) 
 Total Blocks : 32768 Invalid Blocks : 0
Heartbeat CPU 0 instructions: 100000002 cycles: 67944125 heartbeat IPC: 1.70915 cumulative IPC: 1.4718 (Simulation time: 0 hr 40 min 58 sec) 
 Total Blocks : 32768 Invalid Blocks : 0
Heartbeat CPU 0 instructions: 110000000 cycles: 73715621 heartbeat IPC: 1.73265 cumulative IPC: 1.49222 (Simulation time: 0 hr 46 min 17 sec) 
 Total Blocks : 32768 Invalid Blocks : 0
Heartbeat CPU 0 instructions: 120000002 cycles: 79471162 heartbeat IPC: 1.73746 cumulative IPC: 1.50998 (Simulation time: 0 hr 51 min 46 sec) 
 Total Blocks : 32768 Invalid Blocks : 0
Heartbeat CPU 0 instructions: 130000001 cycles: 85099290 heartbeat IPC: 1.77679 cumulative IPC: 1.52763 (Simulation time: 0 hr 57 min 32 sec) 
 Total Blocks : 32768 Invalid Blocks : 0
Heartbeat CPU 0 instructions: 140000001 cycles: 90693918 heartbeat IPC: 1.78743 cumulative IPC: 1.54365 (Simulation time: 1 hr 3 min 18 sec) 
 Total Blocks : 32768 Invalid Blocks : 0
Heartbeat CPU 0 instructions: 150000003 cycles: 96293120 heartbeat IPC: 1.78597 cumulative IPC: 1.55774 (Simulation time: 1 hr 8 min 53 sec) 
 Total Blocks : 32768 Invalid Blocks : 0
Heartbeat CPU 0 instructions: 160000000 cycles: 101791241 heartbeat IPC: 1.8188 cumulative IPC: 1.57184 (Simulation time: 1 hr 14 min 46 sec) 
 Total Blocks : 32768 Invalid Blocks : 0
Heartbeat CPU 0 instructions: 170000001 cycles: 107271852 heartbeat IPC: 1.82461 cumulative IPC: 1.58476 (Simulation time: 1 hr 20 min 45 sec) 
 Total Blocks : 32768 Invalid Blocks : 0
Heartbeat CPU 0 instructions: 180000000 cycles: 112745716 heartbeat IPC: 1.82686 cumulative IPC: 1.59651 (Simulation time: 1 hr 26 min 40 sec) 
 Total Blocks : 32768 Invalid Blocks : 0
Heartbeat CPU 0 instructions: 190000000 cycles: 118170978 heartbeat IPC: 1.84323 cumulative IPC: 1.60784 (Simulation time: 1 hr 32 min 31 sec) 
 Total Blocks : 32768 Invalid Blocks : 0
Heartbeat CPU 0 instructions: 200000002 cycles: 123505030 heartbeat IPC: 1.87475 cumulative IPC: 1.61937 (Simulation time: 1 hr 38 min 58 sec) 
 Total Blocks : 32768 Invalid Blocks : 0

Warmup complete CPU 0 instructions: 200000002 cycles: 123505030 (Simulation time: 1 hr 38 min 58 sec) 

Heartbeat CPU 0 instructions: 210000003 cycles: 153858401 heartbeat IPC: 0.329453 cumulative IPC: 0.329453 (Simulation time: 1 hr 50 min 15 sec) 
 Total Blocks : 32768 Invalid Blocks : 0
Heartbeat CPU 0 instructions: 220000000 cycles: 184126056 heartbeat IPC: 0.330386 cumulative IPC: 0.329919 (Simulation time: 2 hr 1 min 41 sec) 
 Total Blocks : 32768 Invalid Blocks : 0
Heartbeat CPU 0 instructions: 230000000 cycles: 214092649 heartbeat IPC: 0.333705 cumulative IPC: 0.331171 (Simulation time: 2 hr 13 min 4 sec) 
 Total Blocks : 32768 Invalid Blocks : 0
Heartbeat CPU 0 instructions: 240000000 cycles: 243968974 heartbeat IPC: 0.334713 cumulative IPC: 0.33205 (Simulation time: 2 hr 24 min 46 sec) 
 Total Blocks : 32768 Invalid Blocks : 0
Heartbeat CPU 0 instructions: 250000000 cycles: 273860954 heartbeat IPC: 0.334538 cumulative IPC: 0.332544 (Simulation time: 2 hr 36 min 26 sec) 
 Total Blocks : 32768 Invalid Blocks : 0
Heartbeat CPU 0 instructions: 260000001 cycles: 303588157 heartbeat IPC: 0.336392 cumulative IPC: 0.333179 (Simulation time: 2 hr 47 min 53 sec) 
 Total Blocks : 32768 Invalid Blocks : 0
Heartbeat CPU 0 instructions: 270000003 cycles: 333647760 heartbeat IPC: 0.332672 cumulative IPC: 0.333107 (Simulation time: 2 hr 59 min 15 sec) 
 Total Blocks : 32768 Invalid Blocks : 0
Heartbeat CPU 0 instructions: 280000000 cycles: 363224460 heartbeat IPC: 0.338104 cumulative IPC: 0.333723 (Simulation time: 3 hr 10 min 1 sec) 
 Total Blocks : 32768 Invalid Blocks : 0
Heartbeat CPU 0 instructions: 290000003 cycles: 392977227 heartbeat IPC: 0.336103 cumulative IPC: 0.333986 (Simulation time: 3 hr 20 min 51 sec) 
 Total Blocks : 32768 Invalid Blocks : 0
Heartbeat CPU 0 instructions: 300000001 cycles: 422801530 heartbeat IPC: 0.335297 cumulative IPC: 0.334117 (Simulation time: 3 hr 31 min 26 sec) 
 Total Blocks : 32768 Invalid Blocks : 0
Heartbeat CPU 0 instructions: 310000003 cycles: 452488161 heartbeat IPC: 0.336852 cumulative IPC: 0.334364 (Simulation time: 3 hr 41 min 33 sec) 
 Total Blocks : 32768 Invalid Blocks : 0
Heartbeat CPU 0 instructions: 320000001 cycles: 482357504 heartbeat IPC: 0.334791 cumulative IPC: 0.334399 (Simulation time: 3 hr 51 min 17 sec) 
 Total Blocks : 32768 Invalid Blocks : 0
Heartbeat CPU 0 instructions: 330000000 cycles: 512247392 heartbeat IPC: 0.334561 cumulative IPC: 0.334412 (Simulation time: 4 hr 0 min 56 sec) 
 Total Blocks : 32768 Invalid Blocks : 0
Heartbeat CPU 0 instructions: 340000000 cycles: 542146122 heartbeat IPC: 0.334462 cumulative IPC: 0.334415 (Simulation time: 4 hr 10 min 13 sec) 
 Total Blocks : 32768 Invalid Blocks : 0
Heartbeat CPU 0 instructions: 350000001 cycles: 571997953 heartbeat IPC: 0.334988 cumulative IPC: 0.334453 (Simulation time: 4 hr 19 min 0 sec) 
 Total Blocks : 32768 Invalid Blocks : 0
Heartbeat CPU 0 instructions: 360000001 cycles: 601955358 heartbeat IPC: 0.333807 cumulative IPC: 0.334413 (Simulation time: 4 hr 27 min 23 sec) 
 Total Blocks : 32768 Invalid Blocks : 0
Heartbeat CPU 0 instructions: 370000000 cycles: 632017343 heartbeat IPC: 0.332646 cumulative IPC: 0.334309 (Simulation time: 4 hr 35 min 22 sec) 
 Total Blocks : 32768 Invalid Blocks : 0
Heartbeat CPU 0 instructions: 380000002 cycles: 662194507 heartbeat IPC: 0.331376 cumulative IPC: 0.334144 (Simulation time: 4 hr 43 min 11 sec) 
 Total Blocks : 32768 Invalid Blocks : 0
Heartbeat CPU 0 instructions: 390000000 cycles: 692347358 heartbeat IPC: 0.331644 cumulative IPC: 0.334012 (Simulation time: 4 hr 50 min 38 sec) 
 Total Blocks : 32768 Invalid Blocks : 0
Heartbeat CPU 0 instructions: 400000003 cycles: 722588208 heartbeat IPC: 0.330679 cumulative IPC: 0.333843 (Simulation time: 4 hr 57 min 37 sec) 
 Total Blocks : 32768 Invalid Blocks : 0
Finished CPU 0 instructions: 200000001 cycles: 599083178 cumulative IPC: 0.333843 (Simulation time: 4 hr 57 min 37 sec) 

CPU 0 Branch Prediction Accuracy: 98.7894% MPKI: 1.80684 Average ROB Occupancy at Mispredict: 260.048

ChampSim completed all CPUs

Region of Interest Statistics

CPU 0 cumulative IPC: 0.333843 instructions: 200000001 cycles: 599083178
ITLB TOTAL     ACCESS: 31165774  HIT: 31165774  MISS:     0  HIT %:   100  MISS %:     0  AVERAGE MISS PENALTY: 0
ITLB LOAD      ACCESS: 31165774  HIT: 31165774  MISS:     0  HIT %:   100  MISS %:     0  AVERAGE MISS PENALTY: 0
ITLB RFO       ACCESS:     0  HIT:     0  MISS:     0  HIT %:     0  MISS %:     0  AVERAGE MISS PENALTY: 0
ITLB PREFETCH  ACCESS:     0  HIT:     0  MISS:     0  HIT %:     0  MISS %:     0  AVERAGE MISS PENALTY: 0
ITLB WRITEBACK ACCESS:     0  HIT:     0  MISS:     0  HIT %:     0  MISS %:     0  AVERAGE MISS PENALTY: 0
ITLB PREFETCH  REQUESTED:     0  ISSUED:     0  USEFUL:     0  USELESS:     0
 USEFUL LOAD PREFETCHES:          0 PREFETCH ISSUED TO LOWER LEVEL:          0  ACCURACY: -nan
 TIMELY PREFETCHES:          0 LATE PREFETCHES: 0 DROPPED PREFETCHES: 0
ITLB AVERAGE MISS LATENCY: -nan cycles
DTLB TOTAL     ACCESS: 55245816  HIT: 48748436  MISS: 6497380  HIT %: 88.2391  MISS %: 11.7609  AVERAGE MISS PENALTY: 11.0806
DTLB LOAD      ACCESS: 54199288  HIT: 48004203  MISS: 6195085  HIT %: 88.5698  MISS %: 11.4302  AVERAGE MISS PENALTY: 10.8876
DTLB RFO       ACCESS: 1046528  HIT: 744233  MISS: 302295  HIT %: 71.1145  MISS %: 28.8855  AVERAGE MISS PENALTY: 15.0358
DTLB PREFETCH  ACCESS:     0  HIT:     0  MISS:     0  HIT %:     0  MISS %:     0  AVERAGE MISS PENALTY: 0
DTLB WRITEBACK ACCESS:     0  HIT:     0  MISS:     0  HIT %:     0  MISS %:     0  AVERAGE MISS PENALTY: 0
DTLB PREFETCH  REQUESTED:     0  ISSUED:     0  USEFUL:     0  USELESS:     0
 USEFUL LOAD PREFETCHES:          0 PREFETCH ISSUED TO LOWER LEVEL:          0  ACCURACY: -nan
 TIMELY PREFETCHES:          0 LATE PREFETCHES: 0 DROPPED PREFETCHES: 0
DTLB AVERAGE MISS LATENCY: 11.0806 cycles
STLB TOTAL     ACCESS: 6497380  HIT: 6403606  MISS: 93774  HIT %: 98.5567  MISS %: 1.44326  AVERAGE MISS PENALTY: 100
STLB LOAD      ACCESS: 6195085  HIT: 6119474  MISS: 75611  HIT %: 98.7795  MISS %: 1.2205  AVERAGE MISS PENALTY: 100
STLB RFO       ACCESS: 302295  HIT: 284132  MISS: 18163  HIT %: 93.9916  MISS %: 6.00837  AVERAGE MISS PENALTY: 100
STLB PREFETCH  ACCESS:     0  HIT:     0  MISS:     0  HIT %:     0  MISS %:     0  AVERAGE MISS PENALTY: 0
STLB WRITEBACK ACCESS:     0  HIT:     0  MISS:     0  HIT %:     0  MISS %:     0  AVERAGE MISS PENALTY: 0
STLB PREFETCH  REQUESTED:     0  ISSUED:     0  USEFUL:     0  USELESS:     0
 USEFUL LOAD PREFETCHES:          0 PREFETCH ISSUED TO LOWER LEVEL:          0  ACCURACY: -nan
 TIMELY PREFETCHES:          0 LATE PREFETCHES: 0 DROPPED PREFETCHES: 0
STLB AVERAGE MISS LATENCY: 100 cycles
L1D TOTAL     ACCESS: 42015596  HIT: 30986762  MISS: 11028834  HIT %: 73.7506  MISS %: 26.2494  AVERAGE MISS PENALTY: 96.8213
L1D LOAD      ACCESS: 40957755  HIT: 30200939  MISS: 10756816  HIT %: 73.7368  MISS %: 26.2632  AVERAGE MISS PENALTY: 97.5753
L1D RFO       ACCESS: 1057841  HIT: 785823  MISS: 272018  HIT %: 74.2855  MISS %: 25.7145  AVERAGE MISS PENALTY: 67.0044
L1D PREFETCH  ACCESS:     0  HIT:     0  MISS:     0  HIT %:     0  MISS %:     0  AVERAGE MISS PENALTY: 0
L1D WRITEBACK ACCESS:     0  HIT:     0  MISS:     0  HIT %:     0  MISS %:     0  AVERAGE MISS PENALTY: 0
L1D PREFETCH  REQUESTED:     0  ISSUED:     0  USEFUL:     0  USELESS:     0
 USEFUL LOAD PREFETCHES:          0 PREFETCH ISSUED TO LOWER LEVEL:          0  ACCURACY: -nan
 TIMELY PREFETCHES:          0 LATE PREFETCHES: 0 DROPPED PREFETCHES: 0
L1D AVERAGE MISS LATENCY: 96.8213 cycles
L1I TOTAL     ACCESS: 44326545  HIT: 44326545  MISS:     0  HIT %:   100  MISS %:     0  AVERAGE MISS PENALTY: 0
L1I LOAD      ACCESS: 44326545  HIT: 44326545  MISS:     0  HIT %:   100  MISS %:     0  AVERAGE MISS PENALTY: 0
L1I RFO       ACCESS:     0  HIT:     0  MISS:     0  HIT %:     0  MISS %:     0  AVERAGE MISS PENALTY: 0
L1I PREFETCH  ACCESS:     0  HIT:     0  MISS:     0  HIT %:     0  MISS %:     0  AVERAGE MISS PENALTY: 0
L1I WRITEBACK ACCESS:     0  HIT:     0  MISS:     0  HIT %:     0  MISS %:     0  AVERAGE MISS PENALTY: 0
L1I PREFETCH  REQUESTED:     0  ISSUED:     0  USEFUL:     0  USELESS:     0
 USEFUL LOAD PREFETCHES:          0 PREFETCH ISSUED TO LOWER LEVEL:          0  ACCURACY: -nan
 TIMELY PREFETCHES:          0 LATE PREFETCHES: 0 DROPPED PREFETCHES: 0
L1I AVERAGE MISS LATENCY: -nan cycles
L2C TOTAL     ACCESS: 11784934  HIT: 3777888  MISS: 8007046  HIT %: 32.0569  MISS %: 67.9431  AVERAGE MISS PENALTY: 112.159
L2C LOAD      ACCESS: 10756814  HIT: 2862848  MISS: 7893966  HIT %: 26.6143  MISS %: 73.3857  AVERAGE MISS PENALTY: 111.98
L2C RFO       ACCESS: 272012  HIT: 159260  MISS: 112752  HIT %: 58.5489  MISS %: 41.4511  AVERAGE MISS PENALTY: 125.021
L2C PREFETCH  ACCESS:     0  HIT:     0  MISS:     0  HIT %:     0  MISS %:     0  AVERAGE MISS PENALTY: 0
L2C WRITEBACK ACCESS: 756108  HIT: 755780  MISS:   328  HIT %: 99.9566  MISS %: 0.04338  AVERAGE MISS PENALTY: 0
L2C PREFETCH  REQUESTED:     0  ISSUED:     0  USEFUL:     0  USELESS:     0
 USEFUL LOAD PREFETCHES:          0 PREFETCH ISSUED TO LOWER LEVEL:          0  ACCURACY: -nan
 TIMELY PREFETCHES:          0 LATE PREFETCHES: 0 DROPPED PREFETCHES: 0
L2C AVERAGE MISS LATENCY: 112.159 cycles
LLC0 TOTAL     ACCESS: 8466388  HIT: 4748228  MISS: 3718160  HIT %: 56.0833  MISS %: 43.9167  AVERAGE MISS PENALTY: 167.967
LLC0 LOAD      ACCESS: 7893966  HIT: 4233476  MISS: 3660490  HIT %: 53.6293  MISS %: 46.3707  AVERAGE MISS PENALTY: 167.833
LLC0 RFO       ACCESS: 112751  HIT: 60722  MISS: 52029  HIT %: 53.855  MISS %: 46.145  AVERAGE MISS PENALTY: 195.621
LLC0 PREFETCH  ACCESS:     0  HIT:     0  MISS:     0  HIT %:     0  MISS %:     0  AVERAGE MISS PENALTY: 0
LLC0 WRITEBACK ACCESS: 459671  HIT: 454030  MISS:  5641  HIT %: 98.7728  MISS %: 1.22718  AVERAGE MISS PENALTY: 0
LLC0 PREFETCH  REQUESTED:     0  ISSUED:     0  USEFUL:     0  USELESS:     0
 USEFUL LOAD PREFETCHES:          0 PREFETCH ISSUED TO LOWER LEVEL:          0  ACCURACY: -nan
 TIMELY PREFETCHES:          0 LATE PREFETCHES: 0 DROPPED PREFETCHES: 0
LLC0 AVERAGE MISS LATENCY: 167.967 cycles
Deadblocks : 3055120 Deadblock percentage : 83.4621

ROI Average ROB Stall Cycles:	16.5068
ROI Total ROB Stalls Cycles:	556820567
ROI TOTAL ROB counter      :	33732857
ROI Average Load ROB Stall Cycles:	88.0129
ROI Total Load ROB Stalls Cycle  :	474290982
ROI Total Load ROB stalls Counter:	5388882
Major fault: 0 Minor fault: 58068
Interconnect Stats 
LINK 0 BW : 0
DRAM Statistics
 CHANNEL 0
 RQ ROW_BUFFER_HIT: 597017  ROW_BUFFER_MISS: 3115491
 DBUS_CONGESTED: 552111
 WQ ROW_BUFFER_HIT: 160371  ROW_BUFFER_MISS: 177124  FULL:     0

 AVG_CONGESTED_CYCLE: 5
DRAM PAGES: 1048576
Allocated PAGES: 58068
L2C destructor called
L1D destructor called
L1I destructor called
STLB destructor called
DTLB destructor called
ITLB destructor called
