
*** ChampSim Multicore Out-of-Order Simulator ***

Warmup Instructions: 200000000
Simulation Instructions: 200000000
Number of CPUs: 1
threads:1

L1I Configuration:
L1I_SET:64
L1I_WAY:8
L1I_RQ_SIZE:64
L1I_WQ_SIZE:64
L1I_PQ_SIZE:8
L1I_MSHR_SIZE:8

L1D Configuration:
L1D_SET:64
L1D_WAY:12
L1D_RQ_SIZE:64
L1D_WQ_SIZE:64
L1D_PQ_SIZE:8
L1D_MSHR_SIZE:16

L2C Configuration:
L2C_SET:1024
L2C_WAY:8
L2C_RQ_SIZE:32
L2C_WQ_SIZE:32
L2C_PQ_SIZE:16
L2C_MSHR_SIZE:32

LLC Configuration:
LLC_SET:2048
LLC_WAY:16
LLC SLICES:1
LLC_RQ_SIZE:64
LLC_WQ_SIZE:64
LLC_PQ_SIZE:32
LLC_MSHR_SIZE:64

Interconnect OFF
Attacker deprioritize is: OFF
Off-chip DRAM Size: 4096 MB Channels: 1 Width: 64-bit Data Rate: 3200 MT/s
PAGE SIZE in KB: 4.000000 
PAGE SIZE in MB: 0.003906 
PAGE offset in bits: 12 
CEASER-S_LLC:0
MIRAGE : 1
CEASER_LATENCY:3
REMAP : OFF
Partitions : 1
Multi-Step : OFF
BFS : OFF

CPU 0 runs /home/anubhav/spec_2017/600.perlbench_s-570B.champsimtrace.xz
CPU 0 Bimodal branch predictor
Initialize SRRIP state
Heartbeat CPU 0 instructions: 10000002 cycles: 4996877 heartbeat IPC: 2.00125 cumulative IPC: 2.00125 (Simulation time: 0 hr 4 min 19 sec) 
 Total Blocks : 32768 Invalid Blocks : 30723
Heartbeat CPU 0 instructions: 20000002 cycles: 9929648 heartbeat IPC: 2.02726 cumulative IPC: 2.01417 (Simulation time: 0 hr 8 min 37 sec) 
 Total Blocks : 32768 Invalid Blocks : 29987
Heartbeat CPU 0 instructions: 30000000 cycles: 15054678 heartbeat IPC: 1.95121 cumulative IPC: 1.99274 (Simulation time: 0 hr 13 min 8 sec) 
 Total Blocks : 32768 Invalid Blocks : 29012
Heartbeat CPU 0 instructions: 40000001 cycles: 19999117 heartbeat IPC: 2.02247 cumulative IPC: 2.00009 (Simulation time: 0 hr 17 min 25 sec) 
 Total Blocks : 32768 Invalid Blocks : 28143
Heartbeat CPU 0 instructions: 50000002 cycles: 24958897 heartbeat IPC: 2.01622 cumulative IPC: 2.00329 (Simulation time: 0 hr 21 min 29 sec) 
 Total Blocks : 32768 Invalid Blocks : 27371
Heartbeat CPU 0 instructions: 60000000 cycles: 29885647 heartbeat IPC: 2.02974 cumulative IPC: 2.00765 (Simulation time: 0 hr 25 min 44 sec) 
 Total Blocks : 32768 Invalid Blocks : 26804
Heartbeat CPU 0 instructions: 70000001 cycles: 36355051 heartbeat IPC: 1.54574 cumulative IPC: 1.92545 (Simulation time: 0 hr 29 min 52 sec) 
 Total Blocks : 32768 Invalid Blocks : 15784
Heartbeat CPU 0 instructions: 80000000 cycles: 43080354 heartbeat IPC: 1.48692 cumulative IPC: 1.85699 (Simulation time: 0 hr 34 min 21 sec) 
 Total Blocks : 32768 Invalid Blocks : 9567
Heartbeat CPU 0 instructions: 90000000 cycles: 50830644 heartbeat IPC: 1.29027 cumulative IPC: 1.77059 (Simulation time: 0 hr 38 min 25 sec) 
 Total Blocks : 32768 Invalid Blocks : 4436
Heartbeat CPU 0 instructions: 100000002 cycles: 55835832 heartbeat IPC: 1.99793 cumulative IPC: 1.79096 (Simulation time: 0 hr 42 min 40 sec) 
 Total Blocks : 32768 Invalid Blocks : 3835
Heartbeat CPU 0 instructions: 110000000 cycles: 60925335 heartbeat IPC: 1.96483 cumulative IPC: 1.80549 (Simulation time: 0 hr 46 min 49 sec) 
 Total Blocks : 32768 Invalid Blocks : 3305
Heartbeat CPU 0 instructions: 120000001 cycles: 66048739 heartbeat IPC: 1.95183 cumulative IPC: 1.81684 (Simulation time: 0 hr 51 min 19 sec) 
 Total Blocks : 32768 Invalid Blocks : 2719
Heartbeat CPU 0 instructions: 130000000 cycles: 71129620 heartbeat IPC: 1.96816 cumulative IPC: 1.82765 (Simulation time: 0 hr 55 min 29 sec) 
 Total Blocks : 32768 Invalid Blocks : 2257
Heartbeat CPU 0 instructions: 140000003 cycles: 78782812 heartbeat IPC: 1.30664 cumulative IPC: 1.77704 (Simulation time: 0 hr 59 min 18 sec) 
 Total Blocks : 32768 Invalid Blocks : 1037
Heartbeat CPU 0 instructions: 150000001 cycles: 86863788 heartbeat IPC: 1.23747 cumulative IPC: 1.72684 (Simulation time: 1 hr 3 min 8 sec) 
 Total Blocks : 32768 Invalid Blocks : 683
Heartbeat CPU 0 instructions: 160000000 cycles: 93214347 heartbeat IPC: 1.57466 cumulative IPC: 1.71647 (Simulation time: 1 hr 7 min 16 sec) 
 Total Blocks : 32768 Invalid Blocks : 400
Heartbeat CPU 0 instructions: 170000001 cycles: 98510425 heartbeat IPC: 1.88819 cumulative IPC: 1.72571 (Simulation time: 1 hr 11 min 28 sec) 
 Total Blocks : 32768 Invalid Blocks : 308
Heartbeat CPU 0 instructions: 180000003 cycles: 104527930 heartbeat IPC: 1.66182 cumulative IPC: 1.72203 (Simulation time: 1 hr 15 min 31 sec) 
 Total Blocks : 32768 Invalid Blocks : 178
Heartbeat CPU 0 instructions: 190000001 cycles: 112334596 heartbeat IPC: 1.28096 cumulative IPC: 1.69138 (Simulation time: 1 hr 19 min 18 sec) 
 Total Blocks : 32768 Invalid Blocks : 86
Heartbeat CPU 0 instructions: 200000001 cycles: 120535561 heartbeat IPC: 1.21937 cumulative IPC: 1.65926 (Simulation time: 1 hr 23 min 3 sec) 
 Total Blocks : 32768 Invalid Blocks : 65

Warmup complete CPU 0 instructions: 200000001 cycles: 120535561 (Simulation time: 1 hr 23 min 3 sec) 

Heartbeat CPU 0 instructions: 210000000 cycles: 140792606 heartbeat IPC: 0.493655 cumulative IPC: 0.493655 (Simulation time: 1 hr 30 min 17 sec) 
 Total Blocks : 32768 Invalid Blocks : 39
Heartbeat CPU 0 instructions: 220000000 cycles: 155467823 heartbeat IPC: 0.681421 cumulative IPC: 0.572537 (Simulation time: 1 hr 37 min 38 sec) 
 Total Blocks : 32768 Invalid Blocks : 33
Heartbeat CPU 0 instructions: 230000003 cycles: 169037902 heartbeat IPC: 0.736916 cumulative IPC: 0.618527 (Simulation time: 1 hr 44 min 17 sec) 
 Total Blocks : 32768 Invalid Blocks : 33
Heartbeat CPU 0 instructions: 240000001 cycles: 183539285 heartbeat IPC: 0.689589 cumulative IPC: 0.634883 (Simulation time: 1 hr 51 min 17 sec) 
 Total Blocks : 32768 Invalid Blocks : 29
Heartbeat CPU 0 instructions: 250000002 cycles: 198959991 heartbeat IPC: 0.648479 cumulative IPC: 0.637556 (Simulation time: 1 hr 58 min 20 sec) 
 Total Blocks : 32768 Invalid Blocks : 24
Heartbeat CPU 0 instructions: 260000002 cycles: 213791298 heartbeat IPC: 0.674249 cumulative IPC: 0.643392 (Simulation time: 2 hr 5 min 36 sec) 
 Total Blocks : 32768 Invalid Blocks : 21
Heartbeat CPU 0 instructions: 270000001 cycles: 228960943 heartbeat IPC: 0.659211 cumulative IPC: 0.645605 (Simulation time: 2 hr 12 min 59 sec) 
 Total Blocks : 32768 Invalid Blocks : 19
Heartbeat CPU 0 instructions: 280000002 cycles: 244079859 heartbeat IPC: 0.661423 cumulative IPC: 0.647541 (Simulation time: 2 hr 19 min 57 sec) 
 Total Blocks : 32768 Invalid Blocks : 16
Heartbeat CPU 0 instructions: 290000001 cycles: 263181051 heartbeat IPC: 0.523528 cumulative IPC: 0.630935 (Simulation time: 2 hr 27 min 25 sec) 
 Total Blocks : 32768 Invalid Blocks : 15
Heartbeat CPU 0 instructions: 300000001 cycles: 290616907 heartbeat IPC: 0.364487 cumulative IPC: 0.587954 (Simulation time: 2 hr 34 min 56 sec) 
 Total Blocks : 32768 Invalid Blocks : 8
Heartbeat CPU 0 instructions: 310000001 cycles: 317867872 heartbeat IPC: 0.366959 cumulative IPC: 0.557435 (Simulation time: 2 hr 42 min 31 sec) 
 Total Blocks : 32768 Invalid Blocks : 6
Heartbeat CPU 0 instructions: 320000002 cycles: 339353916 heartbeat IPC: 0.465418 cumulative IPC: 0.5484 (Simulation time: 2 hr 49 min 38 sec) 
 Total Blocks : 32768 Invalid Blocks : 2
Heartbeat CPU 0 instructions: 330000000 cycles: 353091560 heartbeat IPC: 0.727927 cumulative IPC: 0.559005 (Simulation time: 2 hr 55 min 57 sec) 
 Total Blocks : 32768 Invalid Blocks : 2
Heartbeat CPU 0 instructions: 340000003 cycles: 367739778 heartbeat IPC: 0.682677 cumulative IPC: 0.566333 (Simulation time: 3 hr 2 min 36 sec) 
 Total Blocks : 32768 Invalid Blocks : 2
Heartbeat CPU 0 instructions: 350000001 cycles: 382277527 heartbeat IPC: 0.687864 cumulative IPC: 0.573084 (Simulation time: 3 hr 8 min 51 sec) 
 Total Blocks : 32768 Invalid Blocks : 2
Heartbeat CPU 0 instructions: 360000001 cycles: 397008110 heartbeat IPC: 0.67886 cumulative IPC: 0.578719 (Simulation time: 3 hr 15 min 5 sec) 
 Total Blocks : 32768 Invalid Blocks : 1
Heartbeat CPU 0 instructions: 370000001 cycles: 425020954 heartbeat IPC: 0.356979 cumulative IPC: 0.558319 (Simulation time: 3 hr 22 min 11 sec) 
 Total Blocks : 32768 Invalid Blocks : 1
Heartbeat CPU 0 instructions: 380000000 cycles: 451611843 heartbeat IPC: 0.376069 cumulative IPC: 0.543681 (Simulation time: 3 hr 28 min 50 sec) 
 Total Blocks : 32768 Invalid Blocks : 0
Heartbeat CPU 0 instructions: 390000003 cycles: 473769686 heartbeat IPC: 0.451308 cumulative IPC: 0.537887 (Simulation time: 3 hr 35 min 11 sec) 
 Total Blocks : 32768 Invalid Blocks : 0
Heartbeat CPU 0 instructions: 400000000 cycles: 486345253 heartbeat IPC: 0.795193 cumulative IPC: 0.546732 (Simulation time: 3 hr 40 min 41 sec) 
 Total Blocks : 32768 Invalid Blocks : 0
Finished CPU 0 instructions: 200000000 cycles: 365809700 cumulative IPC: 0.546732 (Simulation time: 3 hr 40 min 41 sec) 

CPU 0 Branch Prediction Accuracy: 96.1878% MPKI: 5.40214 Average ROB Occupancy at Mispredict: 136.35

ChampSim completed all CPUs

Region of Interest Statistics

CPU 0 cumulative IPC: 0.546732 instructions: 200000000 cycles: 365809700
ITLB TOTAL     ACCESS: 31134712  HIT: 31091553  MISS: 43159  HIT %: 99.8614  MISS %: 0.13862  AVERAGE MISS PENALTY: 10.8737
ITLB LOAD      ACCESS: 31134712  HIT: 31091553  MISS: 43159  HIT %: 99.8614  MISS %: 0.13862  AVERAGE MISS PENALTY: 10.8737
ITLB RFO       ACCESS:     0  HIT:     0  MISS:     0  HIT %:     0  MISS %:     0  AVERAGE MISS PENALTY: 0
ITLB PREFETCH  ACCESS:     0  HIT:     0  MISS:     0  HIT %:     0  MISS %:     0  AVERAGE MISS PENALTY: 0
ITLB WRITEBACK ACCESS:     0  HIT:     0  MISS:     0  HIT %:     0  MISS %:     0  AVERAGE MISS PENALTY: 0
ITLB PREFETCH  REQUESTED:     0  ISSUED:     0  USEFUL:     0  USELESS:     0
 USEFUL LOAD PREFETCHES:          0 PREFETCH ISSUED TO LOWER LEVEL:          0  ACCURACY: -nan
 TIMELY PREFETCHES:          0 LATE PREFETCHES: 0 DROPPED PREFETCHES: 0
ITLB AVERAGE MISS LATENCY: 10.8737 cycles
DTLB TOTAL     ACCESS: 52193066  HIT: 51746956  MISS: 446110  HIT %: 99.1453  MISS %: 0.85473  AVERAGE MISS PENALTY: 13.2208
DTLB LOAD      ACCESS: 30713688  HIT: 30305827  MISS: 407861  HIT %: 98.6721  MISS %: 1.32795  AVERAGE MISS PENALTY: 13.107
DTLB RFO       ACCESS: 21479378  HIT: 21441129  MISS: 38249  HIT %: 99.8219  MISS %: 0.178073  AVERAGE MISS PENALTY: 14.4353
DTLB PREFETCH  ACCESS:     0  HIT:     0  MISS:     0  HIT %:     0  MISS %:     0  AVERAGE MISS PENALTY: 0
DTLB WRITEBACK ACCESS:     0  HIT:     0  MISS:     0  HIT %:     0  MISS %:     0  AVERAGE MISS PENALTY: 0
DTLB PREFETCH  REQUESTED:     0  ISSUED:     0  USEFUL:     0  USELESS:     0
 USEFUL LOAD PREFETCHES:          0 PREFETCH ISSUED TO LOWER LEVEL:          0  ACCURACY: -nan
 TIMELY PREFETCHES:          0 LATE PREFETCHES: 0 DROPPED PREFETCHES: 0
DTLB AVERAGE MISS LATENCY: 13.2208 cycles
STLB TOTAL     ACCESS: 489269  HIT: 470921  MISS: 18348  HIT %: 96.2499  MISS %: 3.75008  AVERAGE MISS PENALTY: 100
STLB LOAD      ACCESS: 451020  HIT: 434640  MISS: 16380  HIT %: 96.3682  MISS %: 3.63177  AVERAGE MISS PENALTY: 100
STLB RFO       ACCESS: 38249  HIT: 36281  MISS:  1968  HIT %: 94.8548  MISS %: 5.14523  AVERAGE MISS PENALTY: 100
STLB PREFETCH  ACCESS:     0  HIT:     0  MISS:     0  HIT %:     0  MISS %:     0  AVERAGE MISS PENALTY: 0
STLB WRITEBACK ACCESS:     0  HIT:     0  MISS:     0  HIT %:     0  MISS %:     0  AVERAGE MISS PENALTY: 0
STLB PREFETCH  REQUESTED:     0  ISSUED:     0  USEFUL:     0  USELESS:     0
 USEFUL LOAD PREFETCHES:          0 PREFETCH ISSUED TO LOWER LEVEL:          0  ACCURACY: -nan
 TIMELY PREFETCHES:          0 LATE PREFETCHES: 0 DROPPED PREFETCHES: 0
STLB AVERAGE MISS LATENCY: 100 cycles
L1D TOTAL     ACCESS: 74010294  HIT: 73591325  MISS: 418969  HIT %: 99.4339  MISS %: 0.566096  AVERAGE MISS PENALTY: 88.4548
L1D LOAD      ACCESS: 33917140  HIT: 33530997  MISS: 386143  HIT %: 98.8615  MISS %: 1.13849  AVERAGE MISS PENALTY: 90.103
L1D RFO       ACCESS: 40093154  HIT: 40060328  MISS: 32826  HIT %: 99.9181  MISS %: 0.0818743  AVERAGE MISS PENALTY: 69.0657
L1D PREFETCH  ACCESS:     0  HIT:     0  MISS:     0  HIT %:     0  MISS %:     0  AVERAGE MISS PENALTY: 0
L1D WRITEBACK ACCESS:     0  HIT:     0  MISS:     0  HIT %:     0  MISS %:     0  AVERAGE MISS PENALTY: 0
L1D PREFETCH  REQUESTED:     0  ISSUED:     0  USEFUL:     0  USELESS:     0
 USEFUL LOAD PREFETCHES:          0 PREFETCH ISSUED TO LOWER LEVEL:          0  ACCURACY: -nan
 TIMELY PREFETCHES:          0 LATE PREFETCHES: 0 DROPPED PREFETCHES: 0
L1D AVERAGE MISS LATENCY: 88.4548 cycles
L1I TOTAL     ACCESS: 42972647  HIT: 42334177  MISS: 638470  HIT %: 98.5142  MISS %: 1.48576  AVERAGE MISS PENALTY: 15.6946
L1I LOAD      ACCESS: 42972647  HIT: 42334177  MISS: 638470  HIT %: 98.5142  MISS %: 1.48576  AVERAGE MISS PENALTY: 15.6946
L1I RFO       ACCESS:     0  HIT:     0  MISS:     0  HIT %:     0  MISS %:     0  AVERAGE MISS PENALTY: 0
L1I PREFETCH  ACCESS:     0  HIT:     0  MISS:     0  HIT %:     0  MISS %:     0  AVERAGE MISS PENALTY: 0
L1I WRITEBACK ACCESS:     0  HIT:     0  MISS:     0  HIT %:     0  MISS %:     0  AVERAGE MISS PENALTY: 0
L1I PREFETCH  REQUESTED:     0  ISSUED:     0  USEFUL:     0  USELESS:     0
 USEFUL LOAD PREFETCHES:          0 PREFETCH ISSUED TO LOWER LEVEL:          0  ACCURACY: -nan
 TIMELY PREFETCHES:          0 LATE PREFETCHES: 0 DROPPED PREFETCHES: 0
L1I AVERAGE MISS LATENCY: 15.6946 cycles
L2C TOTAL     ACCESS: 1168115  HIT: 947869  MISS: 220246  HIT %: 81.1452  MISS %: 18.8548  AVERAGE MISS PENALTY: 152.057
L2C LOAD      ACCESS: 1024612  HIT: 817338  MISS: 207274  HIT %: 79.7705  MISS %: 20.2295  AVERAGE MISS PENALTY: 153.027
L2C RFO       ACCESS: 32826  HIT: 20458  MISS: 12368  HIT %: 62.3225  MISS %: 37.6775  AVERAGE MISS PENALTY: 143.231
L2C PREFETCH  ACCESS:     0  HIT:     0  MISS:     0  HIT %:     0  MISS %:     0  AVERAGE MISS PENALTY: 0
L2C WRITEBACK ACCESS: 110677  HIT: 110073  MISS:   604  HIT %: 99.4543  MISS %: 0.545732  AVERAGE MISS PENALTY: 0
L2C PREFETCH  REQUESTED:     0  ISSUED:     0  USEFUL:     0  USELESS:     0
 USEFUL LOAD PREFETCHES:          0 PREFETCH ISSUED TO LOWER LEVEL:          0  ACCURACY: -nan
 TIMELY PREFETCHES:          0 LATE PREFETCHES: 0 DROPPED PREFETCHES: 0
L2C AVERAGE MISS LATENCY: 152.057 cycles
LLC0 TOTAL     ACCESS: 264010  HIT: 95598  MISS: 168412  HIT %: 36.21  MISS %: 63.79  AVERAGE MISS PENALTY: 148.798
LLC0 LOAD      ACCESS: 207274  HIT: 54184  MISS: 153090  HIT %: 26.1412  MISS %: 73.8588  AVERAGE MISS PENALTY: 155.232
LLC0 RFO       ACCESS: 12368  HIT:  4232  MISS:  8136  HIT %: 34.2173  MISS %: 65.7827  AVERAGE MISS PENALTY: 159.172
LLC0 PREFETCH  ACCESS:     0  HIT:     0  MISS:     0  HIT %:     0  MISS %:     0  AVERAGE MISS PENALTY: 0
LLC0 WRITEBACK ACCESS: 44368  HIT: 37182  MISS:  7186  HIT %: 83.8036  MISS %: 16.1964  AVERAGE MISS PENALTY: 0
LLC0 PREFETCH  REQUESTED:     0  ISSUED:     0  USEFUL:     0  USELESS:     0
 USEFUL LOAD PREFETCHES:          0 PREFETCH ISSUED TO LOWER LEVEL:          0  ACCURACY: -nan
 TIMELY PREFETCHES:          0 LATE PREFETCHES: 0 DROPPED PREFETCHES: 0
LLC0 AVERAGE MISS LATENCY: 148.798 cycles
Deadblocks : 121840 Deadblock percentage : 79.5872

ROI Average ROB Stall Cycles:	7.30915
ROI Total ROB Stalls Cycles:	314199239
ROI TOTAL ROB counter      :	42987107
ROI Average Load ROB Stall Cycles:	10.7865
ROI Total Load ROB Stalls Cycle  :	69483881
ROI Total Load ROB stalls Counter:	6441759
Major fault: 0 Minor fault: 5898
Interconnect Stats 
LINK 0 BW : 0
DRAM Statistics
 CHANNEL 0
 RQ ROW_BUFFER_HIT: 39812  ROW_BUFFER_MISS: 121414
 DBUS_CONGESTED: 11490
 WQ ROW_BUFFER_HIT:  7143  ROW_BUFFER_MISS: 24998  FULL:     0

 AVG_CONGESTED_CYCLE: 6
DRAM PAGES: 1048576
Allocated PAGES: 5898
L2C destructor called
L1D destructor called
L1I destructor called
STLB destructor called
DTLB destructor called
ITLB destructor called
