
*** ChampSim Multicore Out-of-Order Simulator ***

Warmup Instructions: 200000000
Simulation Instructions: 200000000
Number of CPUs: 1
threads:1

L1I Configuration:
L1I_SET:64
L1I_WAY:8
L1I_RQ_SIZE:64
L1I_WQ_SIZE:64
L1I_PQ_SIZE:8
L1I_MSHR_SIZE:8

L1D Configuration:
L1D_SET:64
L1D_WAY:12
L1D_RQ_SIZE:64
L1D_WQ_SIZE:64
L1D_PQ_SIZE:8
L1D_MSHR_SIZE:16

L2C Configuration:
L2C_SET:1024
L2C_WAY:8
L2C_RQ_SIZE:32
L2C_WQ_SIZE:32
L2C_PQ_SIZE:16
L2C_MSHR_SIZE:32

LLC Configuration:
LLC_SET:2048
LLC_WAY:16
LLC SLICES:1
LLC_RQ_SIZE:64
LLC_WQ_SIZE:64
LLC_PQ_SIZE:32
LLC_MSHR_SIZE:64

Interconnect OFF
Attacker deprioritize is: OFF
Off-chip DRAM Size: 4096 MB Channels: 1 Width: 64-bit Data Rate: 3200 MT/s
PAGE SIZE in KB: 4.000000 
PAGE SIZE in MB: 0.003906 
PAGE offset in bits: 12 
CEASER-S_LLC:0
MIRAGE : 1
CEASER_LATENCY:3
REMAP : OFF
Partitions : 1
Multi-Step : OFF
BFS : OFF

CPU 0 runs /home/anubhav/spec_2017/603.bwaves_s-2609B.champsimtrace.xz
CPU 0 Bimodal branch predictor
Initialize SRRIP state
Heartbeat CPU 0 instructions: 10000001 cycles: 5306809 heartbeat IPC: 1.88437 cumulative IPC: 1.88437 (Simulation time: 0 hr 4 min 53 sec) 
 Total Blocks : 32768 Invalid Blocks : 99
Heartbeat CPU 0 instructions: 20000000 cycles: 10613603 heartbeat IPC: 1.88438 cumulative IPC: 1.88437 (Simulation time: 0 hr 10 min 8 sec) 
 Total Blocks : 32768 Invalid Blocks : 0
Heartbeat CPU 0 instructions: 30000000 cycles: 15919642 heartbeat IPC: 1.88464 cumulative IPC: 1.88446 (Simulation time: 0 hr 15 min 24 sec) 
 Total Blocks : 32768 Invalid Blocks : 0
Heartbeat CPU 0 instructions: 40000001 cycles: 21225836 heartbeat IPC: 1.88459 cumulative IPC: 1.8845 (Simulation time: 0 hr 21 min 5 sec) 
 Total Blocks : 32768 Invalid Blocks : 0
Heartbeat CPU 0 instructions: 50000001 cycles: 26532942 heartbeat IPC: 1.88427 cumulative IPC: 1.88445 (Simulation time: 0 hr 26 min 58 sec) 
 Total Blocks : 32768 Invalid Blocks : 0
Heartbeat CPU 0 instructions: 60000001 cycles: 31839707 heartbeat IPC: 1.88439 cumulative IPC: 1.88444 (Simulation time: 0 hr 33 min 13 sec) 
 Total Blocks : 32768 Invalid Blocks : 0
Heartbeat CPU 0 instructions: 70000000 cycles: 37145991 heartbeat IPC: 1.88456 cumulative IPC: 1.88446 (Simulation time: 0 hr 39 min 59 sec) 
 Total Blocks : 32768 Invalid Blocks : 0
Heartbeat CPU 0 instructions: 80000003 cycles: 42452529 heartbeat IPC: 1.88447 cumulative IPC: 1.88446 (Simulation time: 0 hr 46 min 46 sec) 
 Total Blocks : 32768 Invalid Blocks : 0
Heartbeat CPU 0 instructions: 90000002 cycles: 47759343 heartbeat IPC: 1.88437 cumulative IPC: 1.88445 (Simulation time: 0 hr 53 min 53 sec) 
 Total Blocks : 32768 Invalid Blocks : 0
Heartbeat CPU 0 instructions: 100000002 cycles: 53065473 heartbeat IPC: 1.88461 cumulative IPC: 1.88446 (Simulation time: 1 hr 1 min 39 sec) 
 Total Blocks : 32768 Invalid Blocks : 0
Heartbeat CPU 0 instructions: 110000000 cycles: 58371339 heartbeat IPC: 1.88471 cumulative IPC: 1.88449 (Simulation time: 1 hr 9 min 24 sec) 
 Total Blocks : 32768 Invalid Blocks : 0
Heartbeat CPU 0 instructions: 120000003 cycles: 63678491 heartbeat IPC: 1.88425 cumulative IPC: 1.88447 (Simulation time: 1 hr 17 min 30 sec) 
 Total Blocks : 32768 Invalid Blocks : 0
Heartbeat CPU 0 instructions: 130000001 cycles: 68985524 heartbeat IPC: 1.88429 cumulative IPC: 1.88445 (Simulation time: 1 hr 26 min 1 sec) 
 Total Blocks : 32768 Invalid Blocks : 0
Heartbeat CPU 0 instructions: 140000001 cycles: 74291716 heartbeat IPC: 1.88459 cumulative IPC: 1.88446 (Simulation time: 1 hr 34 min 49 sec) 
 Total Blocks : 32768 Invalid Blocks : 0
Heartbeat CPU 0 instructions: 150000002 cycles: 79598190 heartbeat IPC: 1.88449 cumulative IPC: 1.88446 (Simulation time: 1 hr 43 min 46 sec) 
 Total Blocks : 32768 Invalid Blocks : 0
Heartbeat CPU 0 instructions: 160000002 cycles: 84904843 heartbeat IPC: 1.88443 cumulative IPC: 1.88446 (Simulation time: 1 hr 52 min 55 sec) 
 Total Blocks : 32768 Invalid Blocks : 0
Heartbeat CPU 0 instructions: 170000002 cycles: 90211264 heartbeat IPC: 1.88451 cumulative IPC: 1.88447 (Simulation time: 2 hr 1 min 59 sec) 
 Total Blocks : 32768 Invalid Blocks : 0
Heartbeat CPU 0 instructions: 180000000 cycles: 95517127 heartbeat IPC: 1.88471 cumulative IPC: 1.88448 (Simulation time: 2 hr 11 min 51 sec) 
 Total Blocks : 32768 Invalid Blocks : 0
Heartbeat CPU 0 instructions: 190000003 cycles: 100824045 heartbeat IPC: 1.88433 cumulative IPC: 1.88447 (Simulation time: 2 hr 22 min 4 sec) 
 Total Blocks : 32768 Invalid Blocks : 0
Heartbeat CPU 0 instructions: 200000003 cycles: 106131160 heartbeat IPC: 1.88426 cumulative IPC: 1.88446 (Simulation time: 2 hr 32 min 9 sec) 
 Total Blocks : 32768 Invalid Blocks : 0

Warmup complete CPU 0 instructions: 200000003 cycles: 106131160 (Simulation time: 2 hr 32 min 9 sec) 

Heartbeat CPU 0 instructions: 210000002 cycles: 121967164 heartbeat IPC: 0.631472 cumulative IPC: 0.631472 (Simulation time: 2 hr 45 min 13 sec) 
 Total Blocks : 32768 Invalid Blocks : 0
Heartbeat CPU 0 instructions: 220000000 cycles: 137800723 heartbeat IPC: 0.63157 cumulative IPC: 0.631521 (Simulation time: 2 hr 58 min 28 sec) 
 Total Blocks : 32768 Invalid Blocks : 0
Heartbeat CPU 0 instructions: 230000001 cycles: 153647263 heartbeat IPC: 0.631053 cumulative IPC: 0.631365 (Simulation time: 3 hr 11 min 31 sec) 
 Total Blocks : 32768 Invalid Blocks : 0
Heartbeat CPU 0 instructions: 240000003 cycles: 169484885 heartbeat IPC: 0.631408 cumulative IPC: 0.631376 (Simulation time: 3 hr 24 min 38 sec) 
 Total Blocks : 32768 Invalid Blocks : 0
Heartbeat CPU 0 instructions: 250000001 cycles: 185301924 heartbeat IPC: 0.632229 cumulative IPC: 0.631546 (Simulation time: 3 hr 37 min 19 sec) 
 Total Blocks : 32768 Invalid Blocks : 0
Heartbeat CPU 0 instructions: 260000002 cycles: 201132448 heartbeat IPC: 0.631691 cumulative IPC: 0.63157 (Simulation time: 3 hr 49 min 33 sec) 
 Total Blocks : 32768 Invalid Blocks : 0
Heartbeat CPU 0 instructions: 270000003 cycles: 216951840 heartbeat IPC: 0.632136 cumulative IPC: 0.631651 (Simulation time: 4 hr 1 min 41 sec) 
 Total Blocks : 32768 Invalid Blocks : 0
Heartbeat CPU 0 instructions: 280000002 cycles: 232786674 heartbeat IPC: 0.631519 cumulative IPC: 0.631635 (Simulation time: 4 hr 13 min 29 sec) 
 Total Blocks : 32768 Invalid Blocks : 0
Heartbeat CPU 0 instructions: 290000002 cycles: 248612260 heartbeat IPC: 0.631888 cumulative IPC: 0.631663 (Simulation time: 4 hr 24 min 32 sec) 
 Total Blocks : 32768 Invalid Blocks : 0
Heartbeat CPU 0 instructions: 300000001 cycles: 264451891 heartbeat IPC: 0.631328 cumulative IPC: 0.631629 (Simulation time: 4 hr 35 min 7 sec) 
 Total Blocks : 32768 Invalid Blocks : 0
Heartbeat CPU 0 instructions: 310000001 cycles: 280291768 heartbeat IPC: 0.631318 cumulative IPC: 0.631601 (Simulation time: 4 hr 45 min 16 sec) 
 Total Blocks : 32768 Invalid Blocks : 0
Heartbeat CPU 0 instructions: 320000003 cycles: 296114789 heartbeat IPC: 0.631991 cumulative IPC: 0.631633 (Simulation time: 4 hr 55 min 9 sec) 
 Total Blocks : 32768 Invalid Blocks : 0
Heartbeat CPU 0 instructions: 330000000 cycles: 311933366 heartbeat IPC: 0.632168 cumulative IPC: 0.631674 (Simulation time: 5 hr 3 min 47 sec) 
 Total Blocks : 32768 Invalid Blocks : 0
Heartbeat CPU 0 instructions: 340000002 cycles: 327755691 heartbeat IPC: 0.632019 cumulative IPC: 0.631699 (Simulation time: 5 hr 11 min 59 sec) 
 Total Blocks : 32768 Invalid Blocks : 0
Heartbeat CPU 0 instructions: 350000000 cycles: 343585929 heartbeat IPC: 0.631702 cumulative IPC: 0.631699 (Simulation time: 5 hr 19 min 42 sec) 
 Total Blocks : 32768 Invalid Blocks : 0
Heartbeat CPU 0 instructions: 360000002 cycles: 359418068 heartbeat IPC: 0.631627 cumulative IPC: 0.631695 (Simulation time: 5 hr 27 min 20 sec) 
 Total Blocks : 32768 Invalid Blocks : 0
Heartbeat CPU 0 instructions: 370000002 cycles: 375258507 heartbeat IPC: 0.631296 cumulative IPC: 0.631671 (Simulation time: 5 hr 34 min 43 sec) 
 Total Blocks : 32768 Invalid Blocks : 0
Heartbeat CPU 0 instructions: 380000000 cycles: 391109167 heartbeat IPC: 0.630888 cumulative IPC: 0.631628 (Simulation time: 5 hr 41 min 41 sec) 
 Total Blocks : 32768 Invalid Blocks : 0
Heartbeat CPU 0 instructions: 390000003 cycles: 406937181 heartbeat IPC: 0.631791 cumulative IPC: 0.631636 (Simulation time: 5 hr 48 min 26 sec) 
 Total Blocks : 32768 Invalid Blocks : 0
Heartbeat CPU 0 instructions: 400000003 cycles: 422759102 heartbeat IPC: 0.632034 cumulative IPC: 0.631656 (Simulation time: 5 hr 55 min 16 sec) 
 Total Blocks : 32768 Invalid Blocks : 0
Finished CPU 0 instructions: 200000000 cycles: 316627942 cumulative IPC: 0.631656 (Simulation time: 5 hr 55 min 16 sec) 

CPU 0 Branch Prediction Accuracy: 81.2318% MPKI: 4.68481 Average ROB Occupancy at Mispredict: 219.939

ChampSim completed all CPUs

Region of Interest Statistics

CPU 0 cumulative IPC: 0.631656 instructions: 200000000 cycles: 316627942
ITLB TOTAL     ACCESS: 18215489  HIT: 18215489  MISS:     0  HIT %:   100  MISS %:     0  AVERAGE MISS PENALTY: 0
ITLB LOAD      ACCESS: 18215489  HIT: 18215489  MISS:     0  HIT %:   100  MISS %:     0  AVERAGE MISS PENALTY: 0
ITLB RFO       ACCESS:     0  HIT:     0  MISS:     0  HIT %:     0  MISS %:     0  AVERAGE MISS PENALTY: 0
ITLB PREFETCH  ACCESS:     0  HIT:     0  MISS:     0  HIT %:     0  MISS %:     0  AVERAGE MISS PENALTY: 0
ITLB WRITEBACK ACCESS:     0  HIT:     0  MISS:     0  HIT %:     0  MISS %:     0  AVERAGE MISS PENALTY: 0
ITLB PREFETCH  REQUESTED:     0  ISSUED:     0  USEFUL:     0  USELESS:     0
 USEFUL LOAD PREFETCHES:          0 PREFETCH ISSUED TO LOWER LEVEL:          0  ACCURACY: -nan
 TIMELY PREFETCHES:          0 LATE PREFETCHES: 0 DROPPED PREFETCHES: 0
ITLB AVERAGE MISS LATENCY: -nan cycles
DTLB TOTAL     ACCESS: 64891250  HIT: 64772458  MISS: 118792  HIT %: 99.8169  MISS %: 0.183063  AVERAGE MISS PENALTY: 204.336
DTLB LOAD      ACCESS: 59956048  HIT: 59850943  MISS: 105105  HIT %: 99.8247  MISS %: 0.175303  AVERAGE MISS PENALTY: 228.324
DTLB RFO       ACCESS: 4935202  HIT: 4921515  MISS: 13687  HIT %: 99.7227  MISS %: 0.277334  AVERAGE MISS PENALTY: 20.1276
DTLB PREFETCH  ACCESS:     0  HIT:     0  MISS:     0  HIT %:     0  MISS %:     0  AVERAGE MISS PENALTY: 0
DTLB WRITEBACK ACCESS:     0  HIT:     0  MISS:     0  HIT %:     0  MISS %:     0  AVERAGE MISS PENALTY: 0
DTLB PREFETCH  REQUESTED:     0  ISSUED:     0  USEFUL:     0  USELESS:     0
 USEFUL LOAD PREFETCHES:          0 PREFETCH ISSUED TO LOWER LEVEL:          0  ACCURACY: -nan
 TIMELY PREFETCHES:          0 LATE PREFETCHES: 0 DROPPED PREFETCHES: 0
DTLB AVERAGE MISS LATENCY: 204.336 cycles
STLB TOTAL     ACCESS: 118792  HIT: 59410  MISS: 59382  HIT %: 50.0118  MISS %: 49.9882  AVERAGE MISS PENALTY: 100
STLB LOAD      ACCESS: 105105  HIT: 47246  MISS: 57859  HIT %: 44.9512  MISS %: 55.0488  AVERAGE MISS PENALTY: 100
STLB RFO       ACCESS: 13687  HIT: 12164  MISS:  1523  HIT %: 88.8727  MISS %: 11.1273  AVERAGE MISS PENALTY: 100
STLB PREFETCH  ACCESS:     0  HIT:     0  MISS:     0  HIT %:     0  MISS %:     0  AVERAGE MISS PENALTY: 0
STLB WRITEBACK ACCESS:     0  HIT:     0  MISS:     0  HIT %:     0  MISS %:     0  AVERAGE MISS PENALTY: 0
STLB PREFETCH  REQUESTED:     0  ISSUED:     0  USEFUL:     0  USELESS:     0
 USEFUL LOAD PREFETCHES:          0 PREFETCH ISSUED TO LOWER LEVEL:          0  ACCURACY: -nan
 TIMELY PREFETCHES:          0 LATE PREFETCHES: 0 DROPPED PREFETCHES: 0
STLB AVERAGE MISS LATENCY: 100 cycles
L1D TOTAL     ACCESS: 70768980  HIT: 66770606  MISS: 3998374  HIT %: 94.3501  MISS %: 5.6499  AVERAGE MISS PENALTY: 318.788
L1D LOAD      ACCESS: 59563446  HIT: 55662521  MISS: 3900925  HIT %: 93.4508  MISS %: 6.54919  AVERAGE MISS PENALTY: 321.666
L1D RFO       ACCESS: 11205534  HIT: 11108085  MISS: 97449  HIT %: 99.1303  MISS %: 0.869651  AVERAGE MISS PENALTY: 203.597
L1D PREFETCH  ACCESS:     0  HIT:     0  MISS:     0  HIT %:     0  MISS %:     0  AVERAGE MISS PENALTY: 0
L1D WRITEBACK ACCESS:     0  HIT:     0  MISS:     0  HIT %:     0  MISS %:     0  AVERAGE MISS PENALTY: 0
L1D PREFETCH  REQUESTED:     0  ISSUED:     0  USEFUL:     0  USELESS:     0
 USEFUL LOAD PREFETCHES:          0 PREFETCH ISSUED TO LOWER LEVEL:          0  ACCURACY: -nan
 TIMELY PREFETCHES:          0 LATE PREFETCHES: 0 DROPPED PREFETCHES: 0
L1D AVERAGE MISS LATENCY: 318.788 cycles
L1I TOTAL     ACCESS: 30417368  HIT: 30417368  MISS:     0  HIT %:   100  MISS %:     0  AVERAGE MISS PENALTY: 0
L1I LOAD      ACCESS: 30417368  HIT: 30417368  MISS:     0  HIT %:   100  MISS %:     0  AVERAGE MISS PENALTY: 0
L1I RFO       ACCESS:     0  HIT:     0  MISS:     0  HIT %:     0  MISS %:     0  AVERAGE MISS PENALTY: 0
L1I PREFETCH  ACCESS:     0  HIT:     0  MISS:     0  HIT %:     0  MISS %:     0  AVERAGE MISS PENALTY: 0
L1I WRITEBACK ACCESS:     0  HIT:     0  MISS:     0  HIT %:     0  MISS %:     0  AVERAGE MISS PENALTY: 0
L1I PREFETCH  REQUESTED:     0  ISSUED:     0  USEFUL:     0  USELESS:     0
 USEFUL LOAD PREFETCHES:          0 PREFETCH ISSUED TO LOWER LEVEL:          0  ACCURACY: -nan
 TIMELY PREFETCHES:          0 LATE PREFETCHES: 0 DROPPED PREFETCHES: 0
L1I AVERAGE MISS LATENCY: -nan cycles
L2C TOTAL     ACCESS: 4097301  HIT: 296766  MISS: 3800535  HIT %: 7.24296  MISS %: 92.757  AVERAGE MISS PENALTY: 317.693
L2C LOAD      ACCESS: 3900925  HIT: 197839  MISS: 3703086  HIT %: 5.07159  MISS %: 94.9284  AVERAGE MISS PENALTY: 321.118
L2C RFO       ACCESS: 97449  HIT:     0  MISS: 97449  HIT %:     0  MISS %:   100  AVERAGE MISS PENALTY: 187.549
L2C PREFETCH  ACCESS:     0  HIT:     0  MISS:     0  HIT %:     0  MISS %:     0  AVERAGE MISS PENALTY: 0
L2C WRITEBACK ACCESS: 98927  HIT: 98927  MISS:     0  HIT %:   100  MISS %:     0  AVERAGE MISS PENALTY: 0
L2C PREFETCH  REQUESTED:     0  ISSUED:     0  USEFUL:     0  USELESS:     0
 USEFUL LOAD PREFETCHES:          0 PREFETCH ISSUED TO LOWER LEVEL:          0  ACCURACY: -nan
 TIMELY PREFETCHES:          0 LATE PREFETCHES: 0 DROPPED PREFETCHES: 0
L2C AVERAGE MISS LATENCY: 317.693 cycles
LLC0 TOTAL     ACCESS: 3897984  HIT: 78106  MISS: 3819878  HIT %: 2.00375  MISS %: 97.9962  AVERAGE MISS PENALTY: 277.326
LLC0 LOAD      ACCESS: 3703087  HIT:     6  MISS: 3703081  HIT %: 0.000162027  MISS %: 99.9998  AVERAGE MISS PENALTY: 282.156
LLC0 RFO       ACCESS: 97449  HIT:     0  MISS: 97449  HIT %:     0  MISS %:   100  AVERAGE MISS PENALTY: 148.838
LLC0 PREFETCH  ACCESS:     0  HIT:     0  MISS:     0  HIT %:     0  MISS %:     0  AVERAGE MISS PENALTY: 0
LLC0 WRITEBACK ACCESS: 97448  HIT: 78100  MISS: 19348  HIT %: 80.1453  MISS %: 19.8547  AVERAGE MISS PENALTY: 0
LLC0 PREFETCH  REQUESTED:     0  ISSUED:     0  USEFUL:     0  USELESS:     0
 USEFUL LOAD PREFETCHES:          0 PREFETCH ISSUED TO LOWER LEVEL:          0  ACCURACY: -nan
 TIMELY PREFETCHES:          0 LATE PREFETCHES: 0 DROPPED PREFETCHES: 0
LLC0 AVERAGE MISS LATENCY: 277.326 cycles
Deadblocks : 3703076 Deadblock percentage : 99.9999

ROI Average ROB Stall Cycles:	9.13298
ROI Total ROB Stalls Cycles:	274756896
ROI TOTAL ROB counter      :	30084043
ROI Average Load ROB Stall Cycles:	34.1102
ROI Total Load ROB Stalls Cycle  :	170532915
ROI Total Load ROB stalls Counter:	4999463
Major fault: 0 Minor fault: 112961
Interconnect Stats 
LINK 0 BW : 0
DRAM Statistics
 CHANNEL 0
 RQ ROW_BUFFER_HIT: 2914006  ROW_BUFFER_MISS: 886525
 DBUS_CONGESTED: 156418
 WQ ROW_BUFFER_HIT: 18819  ROW_BUFFER_MISS: 78656  FULL:     0

 AVG_CONGESTED_CYCLE: 4
DRAM PAGES: 1048576
Allocated PAGES: 112961
L2C destructor called
L1D destructor called
L1I destructor called
STLB destructor called
DTLB destructor called
ITLB destructor called
