
*** ChampSim Multicore Out-of-Order Simulator ***

Warmup Instructions: 200000000
Simulation Instructions: 200000000
Number of CPUs: 1
threads:1

L1I Configuration:
L1I_SET:64
L1I_WAY:8
L1I_RQ_SIZE:64
L1I_WQ_SIZE:64
L1I_PQ_SIZE:8
L1I_MSHR_SIZE:8

L1D Configuration:
L1D_SET:64
L1D_WAY:12
L1D_RQ_SIZE:64
L1D_WQ_SIZE:64
L1D_PQ_SIZE:8
L1D_MSHR_SIZE:16

L2C Configuration:
L2C_SET:1024
L2C_WAY:8
L2C_RQ_SIZE:32
L2C_WQ_SIZE:32
L2C_PQ_SIZE:16
L2C_MSHR_SIZE:32

LLC Configuration:
LLC_SET:2048
LLC_WAY:16
LLC SLICES:1
LLC_RQ_SIZE:64
LLC_WQ_SIZE:64
LLC_PQ_SIZE:32
LLC_MSHR_SIZE:64

Interconnect OFF
Attacker deprioritize is: OFF
Off-chip DRAM Size: 4096 MB Channels: 1 Width: 64-bit Data Rate: 3200 MT/s
PAGE SIZE in KB: 4.000000 
PAGE SIZE in MB: 0.003906 
PAGE offset in bits: 12 
CEASER-S_LLC:0
MIRAGE : 1
CEASER_LATENCY:3
REMAP : OFF
Partitions : 1
Multi-Step : OFF
BFS : OFF

CPU 0 runs /home/anubhav/spec_2017/605.mcf_s-665B.champsimtrace.xz
CPU 0 Bimodal branch predictor
Initialize SRRIP state
Heartbeat CPU 0 instructions: 10000001 cycles: 11674930 heartbeat IPC: 0.856536 cumulative IPC: 0.856536 (Simulation time: 0 hr 3 min 25 sec) 
 Total Blocks : 32768 Invalid Blocks : 184
Heartbeat CPU 0 instructions: 20000001 cycles: 23313463 heartbeat IPC: 0.859215 cumulative IPC: 0.857873 (Simulation time: 0 hr 7 min 8 sec) 
 Total Blocks : 32768 Invalid Blocks : 1
Heartbeat CPU 0 instructions: 30000001 cycles: 34937468 heartbeat IPC: 0.860289 cumulative IPC: 0.858677 (Simulation time: 0 hr 10 min 41 sec) 
 Total Blocks : 32768 Invalid Blocks : 0
Heartbeat CPU 0 instructions: 40000000 cycles: 46628217 heartbeat IPC: 0.855377 cumulative IPC: 0.85785 (Simulation time: 0 hr 14 min 23 sec) 
 Total Blocks : 32768 Invalid Blocks : 0
Heartbeat CPU 0 instructions: 50000003 cycles: 58363478 heartbeat IPC: 0.852133 cumulative IPC: 0.8567 (Simulation time: 0 hr 18 min 3 sec) 
 Total Blocks : 32768 Invalid Blocks : 0
Heartbeat CPU 0 instructions: 60000002 cycles: 70064684 heartbeat IPC: 0.854613 cumulative IPC: 0.856352 (Simulation time: 0 hr 22 min 3 sec) 
 Total Blocks : 32768 Invalid Blocks : 0
Heartbeat CPU 0 instructions: 70000002 cycles: 81871220 heartbeat IPC: 0.846988 cumulative IPC: 0.855001 (Simulation time: 0 hr 26 min 9 sec) 
 Total Blocks : 32768 Invalid Blocks : 0
Heartbeat CPU 0 instructions: 80000001 cycles: 93589108 heartbeat IPC: 0.853396 cumulative IPC: 0.8548 (Simulation time: 0 hr 30 min 13 sec) 
 Total Blocks : 32768 Invalid Blocks : 0
Heartbeat CPU 0 instructions: 90000001 cycles: 105362213 heartbeat IPC: 0.849394 cumulative IPC: 0.854196 (Simulation time: 0 hr 33 min 59 sec) 
 Total Blocks : 32768 Invalid Blocks : 0
Heartbeat CPU 0 instructions: 100000001 cycles: 117321783 heartbeat IPC: 0.83615 cumulative IPC: 0.852357 (Simulation time: 0 hr 37 min 48 sec) 
 Total Blocks : 32768 Invalid Blocks : 0
Heartbeat CPU 0 instructions: 110000000 cycles: 129206638 heartbeat IPC: 0.841407 cumulative IPC: 0.851349 (Simulation time: 0 hr 41 min 47 sec) 
 Total Blocks : 32768 Invalid Blocks : 0
Heartbeat CPU 0 instructions: 120000000 cycles: 141146350 heartbeat IPC: 0.837541 cumulative IPC: 0.850181 (Simulation time: 0 hr 45 min 57 sec) 
 Total Blocks : 32768 Invalid Blocks : 0
Heartbeat CPU 0 instructions: 130000001 cycles: 153057346 heartbeat IPC: 0.83956 cumulative IPC: 0.849355 (Simulation time: 0 hr 50 min 3 sec) 
 Total Blocks : 32768 Invalid Blocks : 0
Heartbeat CPU 0 instructions: 140000001 cycles: 165056432 heartbeat IPC: 0.833397 cumulative IPC: 0.848195 (Simulation time: 0 hr 54 min 16 sec) 
 Total Blocks : 32768 Invalid Blocks : 0
Heartbeat CPU 0 instructions: 150000000 cycles: 177075625 heartbeat IPC: 0.832003 cumulative IPC: 0.847096 (Simulation time: 0 hr 58 min 5 sec) 
 Total Blocks : 32768 Invalid Blocks : 0
Heartbeat CPU 0 instructions: 160000000 cycles: 189040286 heartbeat IPC: 0.835795 cumulative IPC: 0.84638 (Simulation time: 1 hr 1 min 57 sec) 
 Total Blocks : 32768 Invalid Blocks : 0
Heartbeat CPU 0 instructions: 170000003 cycles: 201108712 heartbeat IPC: 0.828609 cumulative IPC: 0.845314 (Simulation time: 1 hr 6 min 5 sec) 
 Total Blocks : 32768 Invalid Blocks : 0
Heartbeat CPU 0 instructions: 180000002 cycles: 213207955 heartbeat IPC: 0.826498 cumulative IPC: 0.844246 (Simulation time: 1 hr 10 min 0 sec) 
 Total Blocks : 32768 Invalid Blocks : 0
Heartbeat CPU 0 instructions: 190000001 cycles: 225172487 heartbeat IPC: 0.835804 cumulative IPC: 0.843798 (Simulation time: 1 hr 14 min 19 sec) 
 Total Blocks : 32768 Invalid Blocks : 0
Heartbeat CPU 0 instructions: 200000000 cycles: 237125609 heartbeat IPC: 0.836601 cumulative IPC: 0.843435 (Simulation time: 1 hr 18 min 24 sec) 
 Total Blocks : 32768 Invalid Blocks : 0

Warmup complete CPU 0 instructions: 200000003 cycles: 237125610 (Simulation time: 1 hr 18 min 24 sec) 

Heartbeat CPU 0 instructions: 210000002 cycles: 280945343 heartbeat IPC: 0.228208 cumulative IPC: 0.228208 (Simulation time: 1 hr 27 min 3 sec) 
 Total Blocks : 32768 Invalid Blocks : 0
Heartbeat CPU 0 instructions: 220000000 cycles: 323822510 heartbeat IPC: 0.233224 cumulative IPC: 0.230689 (Simulation time: 1 hr 35 min 28 sec) 
 Total Blocks : 32768 Invalid Blocks : 0
Heartbeat CPU 0 instructions: 230000002 cycles: 368219918 heartbeat IPC: 0.225238 cumulative IPC: 0.228843 (Simulation time: 1 hr 44 min 25 sec) 
 Total Blocks : 32768 Invalid Blocks : 0
Heartbeat CPU 0 instructions: 240000002 cycles: 410961926 heartbeat IPC: 0.233962 cumulative IPC: 0.230102 (Simulation time: 1 hr 52 min 58 sec) 
 Total Blocks : 32768 Invalid Blocks : 0
Heartbeat CPU 0 instructions: 250000001 cycles: 454338999 heartbeat IPC: 0.230537 cumulative IPC: 0.230188 (Simulation time: 2 hr 1 min 45 sec) 
 Total Blocks : 32768 Invalid Blocks : 0
Heartbeat CPU 0 instructions: 260000003 cycles: 497879050 heartbeat IPC: 0.229674 cumulative IPC: 0.230102 (Simulation time: 2 hr 10 min 38 sec) 
 Total Blocks : 32768 Invalid Blocks : 0
Heartbeat CPU 0 instructions: 270000003 cycles: 541394838 heartbeat IPC: 0.229802 cumulative IPC: 0.230059 (Simulation time: 2 hr 19 min 40 sec) 
 Total Blocks : 32768 Invalid Blocks : 0
Heartbeat CPU 0 instructions: 280000000 cycles: 584966904 heartbeat IPC: 0.229505 cumulative IPC: 0.22999 (Simulation time: 2 hr 28 min 45 sec) 
 Total Blocks : 32768 Invalid Blocks : 0
Heartbeat CPU 0 instructions: 290000001 cycles: 627781349 heartbeat IPC: 0.233566 cumulative IPC: 0.230382 (Simulation time: 2 hr 37 min 19 sec) 
 Total Blocks : 32768 Invalid Blocks : 0
Heartbeat CPU 0 instructions: 300000000 cycles: 670795269 heartbeat IPC: 0.232483 cumulative IPC: 0.23059 (Simulation time: 2 hr 45 min 46 sec) 
 Total Blocks : 32768 Invalid Blocks : 0
Heartbeat CPU 0 instructions: 310000001 cycles: 711824479 heartbeat IPC: 0.243729 cumulative IPC: 0.231726 (Simulation time: 2 hr 53 min 44 sec) 
 Total Blocks : 32768 Invalid Blocks : 0
Heartbeat CPU 0 instructions: 320000000 cycles: 754092451 heartbeat IPC: 0.236586 cumulative IPC: 0.232123 (Simulation time: 3 hr 1 min 53 sec) 
 Total Blocks : 32768 Invalid Blocks : 0
Heartbeat CPU 0 instructions: 330000000 cycles: 795917802 heartbeat IPC: 0.239089 cumulative IPC: 0.232645 (Simulation time: 3 hr 10 min 2 sec) 
 Total Blocks : 32768 Invalid Blocks : 0
Heartbeat CPU 0 instructions: 340000002 cycles: 837572256 heartbeat IPC: 0.24007 cumulative IPC: 0.23316 (Simulation time: 3 hr 18 min 5 sec) 
 Total Blocks : 32768 Invalid Blocks : 0
Heartbeat CPU 0 instructions: 350000002 cycles: 879282437 heartbeat IPC: 0.23975 cumulative IPC: 0.233588 (Simulation time: 3 hr 25 min 55 sec) 
 Total Blocks : 32768 Invalid Blocks : 0
Heartbeat CPU 0 instructions: 360000000 cycles: 920714048 heartbeat IPC: 0.241362 cumulative IPC: 0.234059 (Simulation time: 3 hr 33 min 21 sec) 
 Total Blocks : 32768 Invalid Blocks : 0
Heartbeat CPU 0 instructions: 370000001 cycles: 962180820 heartbeat IPC: 0.241157 cumulative IPC: 0.234465 (Simulation time: 3 hr 40 min 30 sec) 
 Total Blocks : 32768 Invalid Blocks : 0
Heartbeat CPU 0 instructions: 380000000 cycles: 1004075218 heartbeat IPC: 0.238695 cumulative IPC: 0.234696 (Simulation time: 3 hr 47 min 35 sec) 
 Total Blocks : 32768 Invalid Blocks : 0
Heartbeat CPU 0 instructions: 390000002 cycles: 1045803151 heartbeat IPC: 0.239648 cumulative IPC: 0.234951 (Simulation time: 3 hr 54 min 36 sec) 
 Total Blocks : 32768 Invalid Blocks : 0
Heartbeat CPU 0 instructions: 400000003 cycles: 1087449658 heartbeat IPC: 0.240116 cumulative IPC: 0.235204 (Simulation time: 4 hr 1 min 38 sec) 
 Total Blocks : 32768 Invalid Blocks : 0
Finished CPU 0 instructions: 200000000 cycles: 850324048 cumulative IPC: 0.235204 (Simulation time: 4 hr 1 min 38 sec) 

CPU 0 Branch Prediction Accuracy: 85.1426% MPKI: 28.3064 Average ROB Occupancy at Mispredict: 34.7579

ChampSim completed all CPUs

Region of Interest Statistics

CPU 0 cumulative IPC: 0.235204 instructions: 200000000 cycles: 850324048
ITLB TOTAL     ACCESS: 31839694  HIT: 31839694  MISS:     0  HIT %:   100  MISS %:     0  AVERAGE MISS PENALTY: 0
ITLB LOAD      ACCESS: 31839694  HIT: 31839694  MISS:     0  HIT %:   100  MISS %:     0  AVERAGE MISS PENALTY: 0
ITLB RFO       ACCESS:     0  HIT:     0  MISS:     0  HIT %:     0  MISS %:     0  AVERAGE MISS PENALTY: 0
ITLB PREFETCH  ACCESS:     0  HIT:     0  MISS:     0  HIT %:     0  MISS %:     0  AVERAGE MISS PENALTY: 0
ITLB WRITEBACK ACCESS:     0  HIT:     0  MISS:     0  HIT %:     0  MISS %:     0  AVERAGE MISS PENALTY: 0
ITLB PREFETCH  REQUESTED:     0  ISSUED:     0  USEFUL:     0  USELESS:     0
 USEFUL LOAD PREFETCHES:          0 PREFETCH ISSUED TO LOWER LEVEL:          0  ACCURACY: -nan
 TIMELY PREFETCHES:          0 LATE PREFETCHES: 0 DROPPED PREFETCHES: 0
ITLB AVERAGE MISS LATENCY: -nan cycles
DTLB TOTAL     ACCESS: 60479268  HIT: 57779906  MISS: 2699362  HIT %: 95.5367  MISS %: 4.46328  AVERAGE MISS PENALTY: 10.4211
DTLB LOAD      ACCESS: 46208980  HIT: 43900129  MISS: 2308851  HIT %: 95.0035  MISS %: 4.99654  AVERAGE MISS PENALTY: 10.5995
DTLB RFO       ACCESS: 14270288  HIT: 13879777  MISS: 390511  HIT %: 97.2635  MISS %: 2.73653  AVERAGE MISS PENALTY: 9.36637
DTLB PREFETCH  ACCESS:     0  HIT:     0  MISS:     0  HIT %:     0  MISS %:     0  AVERAGE MISS PENALTY: 0
DTLB WRITEBACK ACCESS:     0  HIT:     0  MISS:     0  HIT %:     0  MISS %:     0  AVERAGE MISS PENALTY: 0
DTLB PREFETCH  REQUESTED:     0  ISSUED:     0  USEFUL:     0  USELESS:     0
 USEFUL LOAD PREFETCHES:          0 PREFETCH ISSUED TO LOWER LEVEL:          0  ACCURACY: -nan
 TIMELY PREFETCHES:          0 LATE PREFETCHES: 0 DROPPED PREFETCHES: 0
DTLB AVERAGE MISS LATENCY: 10.4211 cycles
STLB TOTAL     ACCESS: 2699362  HIT: 2665013  MISS: 34349  HIT %: 98.7275  MISS %: 1.27249  AVERAGE MISS PENALTY: 100
STLB LOAD      ACCESS: 2308851  HIT: 2275012  MISS: 33839  HIT %: 98.5344  MISS %: 1.46562  AVERAGE MISS PENALTY: 100
STLB RFO       ACCESS: 390511  HIT: 390001  MISS:   510  HIT %: 99.8694  MISS %: 0.130598  AVERAGE MISS PENALTY: 100
STLB PREFETCH  ACCESS:     0  HIT:     0  MISS:     0  HIT %:     0  MISS %:     0  AVERAGE MISS PENALTY: 0
STLB WRITEBACK ACCESS:     0  HIT:     0  MISS:     0  HIT %:     0  MISS %:     0  AVERAGE MISS PENALTY: 0
STLB PREFETCH  REQUESTED:     0  ISSUED:     0  USEFUL:     0  USELESS:     0
 USEFUL LOAD PREFETCHES:          0 PREFETCH ISSUED TO LOWER LEVEL:          0  ACCURACY: -nan
 TIMELY PREFETCHES:          0 LATE PREFETCHES: 0 DROPPED PREFETCHES: 0
STLB AVERAGE MISS LATENCY: 100 cycles
L1D TOTAL     ACCESS: 79670357  HIT: 72905594  MISS: 6764763  HIT %: 91.5091  MISS %: 8.49094  AVERAGE MISS PENALTY: 85.9636
L1D LOAD      ACCESS: 56972687  HIT: 50958366  MISS: 6014321  HIT %: 89.4435  MISS %: 10.5565  AVERAGE MISS PENALTY: 92.1835
L1D RFO       ACCESS: 22697670  HIT: 21947228  MISS: 750442  HIT %: 96.6937  MISS %: 3.30625  AVERAGE MISS PENALTY: 36.1147
L1D PREFETCH  ACCESS:     0  HIT:     0  MISS:     0  HIT %:     0  MISS %:     0  AVERAGE MISS PENALTY: 0
L1D WRITEBACK ACCESS:     0  HIT:     0  MISS:     0  HIT %:     0  MISS %:     0  AVERAGE MISS PENALTY: 0
L1D PREFETCH  REQUESTED:     0  ISSUED:     0  USEFUL:     0  USELESS:     0
 USEFUL LOAD PREFETCHES:          0 PREFETCH ISSUED TO LOWER LEVEL:          0  ACCURACY: -nan
 TIMELY PREFETCHES:          0 LATE PREFETCHES: 0 DROPPED PREFETCHES: 0
L1D AVERAGE MISS LATENCY: 85.9636 cycles
L1I TOTAL     ACCESS: 42718977  HIT: 42718977  MISS:     0  HIT %:   100  MISS %:     0  AVERAGE MISS PENALTY: 0
L1I LOAD      ACCESS: 42718977  HIT: 42718977  MISS:     0  HIT %:   100  MISS %:     0  AVERAGE MISS PENALTY: 0
L1I RFO       ACCESS:     0  HIT:     0  MISS:     0  HIT %:     0  MISS %:     0  AVERAGE MISS PENALTY: 0
L1I PREFETCH  ACCESS:     0  HIT:     0  MISS:     0  HIT %:     0  MISS %:     0  AVERAGE MISS PENALTY: 0
L1I WRITEBACK ACCESS:     0  HIT:     0  MISS:     0  HIT %:     0  MISS %:     0  AVERAGE MISS PENALTY: 0
L1I PREFETCH  REQUESTED:     0  ISSUED:     0  USEFUL:     0  USELESS:     0
 USEFUL LOAD PREFETCHES:          0 PREFETCH ISSUED TO LOWER LEVEL:          0  ACCURACY: -nan
 TIMELY PREFETCHES:          0 LATE PREFETCHES: 0 DROPPED PREFETCHES: 0
L1I AVERAGE MISS LATENCY: -nan cycles
L2C TOTAL     ACCESS: 7861783  HIT: 3899585  MISS: 3962198  HIT %: 49.6018  MISS %: 50.3982  AVERAGE MISS PENALTY: 120.628
L2C LOAD      ACCESS: 6014303  HIT: 2344530  MISS: 3669773  HIT %: 38.9826  MISS %: 61.0174  AVERAGE MISS PENALTY: 125.949
L2C RFO       ACCESS: 750422  HIT: 458531  MISS: 291891  HIT %: 61.1031  MISS %: 38.8969  AVERAGE MISS PENALTY: 53.9525
L2C PREFETCH  ACCESS:     0  HIT:     0  MISS:     0  HIT %:     0  MISS %:     0  AVERAGE MISS PENALTY: 0
L2C WRITEBACK ACCESS: 1097058  HIT: 1096524  MISS:   534  HIT %: 99.9513  MISS %: 0.0486756  AVERAGE MISS PENALTY: 0
L2C PREFETCH  REQUESTED:     0  ISSUED:     0  USEFUL:     0  USELESS:     0
 USEFUL LOAD PREFETCHES:          0 PREFETCH ISSUED TO LOWER LEVEL:          0  ACCURACY: -nan
 TIMELY PREFETCHES:          0 LATE PREFETCHES: 0 DROPPED PREFETCHES: 0
L2C AVERAGE MISS LATENCY: 120.628 cycles
LLC0 TOTAL     ACCESS: 4485250  HIT: 2294925  MISS: 2190325  HIT %: 51.166  MISS %: 48.834  AVERAGE MISS PENALTY: 149.149
LLC0 LOAD      ACCESS: 3669770  HIT: 1598512  MISS: 2071258  HIT %: 43.5589  MISS %: 56.4411  AVERAGE MISS PENALTY: 155.543
LLC0 RFO       ACCESS: 291868  HIT: 267521  MISS: 24347  HIT %: 91.6582  MISS %: 8.34178  AVERAGE MISS PENALTY: 185.462
LLC0 PREFETCH  ACCESS:     0  HIT:     0  MISS:     0  HIT %:     0  MISS %:     0  AVERAGE MISS PENALTY: 0
LLC0 WRITEBACK ACCESS: 523612  HIT: 428892  MISS: 94720  HIT %: 81.9103  MISS %: 18.0897  AVERAGE MISS PENALTY: 0
LLC0 PREFETCH  REQUESTED:     0  ISSUED:     0  USEFUL:     0  USELESS:     0
 USEFUL LOAD PREFETCHES:          0 PREFETCH ISSUED TO LOWER LEVEL:          0  ACCURACY: -nan
 TIMELY PREFETCHES:          0 LATE PREFETCHES: 0 DROPPED PREFETCHES: 0
LLC0 AVERAGE MISS LATENCY: 149.149 cycles
Deadblocks : 1432738 Deadblock percentage : 69.1724

ROI Average ROB Stall Cycles:	10.7392
ROI Total ROB Stalls Cycles:	721708030
ROI TOTAL ROB counter      :	67202869
ROI Average Load ROB Stall Cycles:	15.9436
ROI Total Load ROB Stalls Cycle  :	306679003
ROI Total Load ROB stalls Counter:	19235294
Major fault: 0 Minor fault: 44570
Interconnect Stats 
LINK 0 BW : 0
DRAM Statistics
 CHANNEL 0
 RQ ROW_BUFFER_HIT: 573033  ROW_BUFFER_MISS: 1522522
 DBUS_CONGESTED: 409719
 WQ ROW_BUFFER_HIT: 46743  ROW_BUFFER_MISS: 100958  FULL:     0

 AVG_CONGESTED_CYCLE: 5
DRAM PAGES: 1048576
Allocated PAGES: 44570
L2C destructor called
L1D destructor called
L1I destructor called
STLB destructor called
DTLB destructor called
ITLB destructor called
