
*** ChampSim Multicore Out-of-Order Simulator ***

Warmup Instructions: 200000000
Simulation Instructions: 200000000
Number of CPUs: 1
threads:1

L1I Configuration:
L1I_SET:64
L1I_WAY:8
L1I_RQ_SIZE:64
L1I_WQ_SIZE:64
L1I_PQ_SIZE:8
L1I_MSHR_SIZE:8

L1D Configuration:
L1D_SET:64
L1D_WAY:12
L1D_RQ_SIZE:64
L1D_WQ_SIZE:64
L1D_PQ_SIZE:8
L1D_MSHR_SIZE:16

L2C Configuration:
L2C_SET:1024
L2C_WAY:8
L2C_RQ_SIZE:32
L2C_WQ_SIZE:32
L2C_PQ_SIZE:16
L2C_MSHR_SIZE:32

LLC Configuration:
LLC_SET:2048
LLC_WAY:16
LLC SLICES:1
LLC_RQ_SIZE:64
LLC_WQ_SIZE:64
LLC_PQ_SIZE:32
LLC_MSHR_SIZE:64

Interconnect OFF
Attacker deprioritize is: OFF
Off-chip DRAM Size: 4096 MB Channels: 1 Width: 64-bit Data Rate: 3200 MT/s
PAGE SIZE in KB: 4.000000 
PAGE SIZE in MB: 0.003906 
PAGE offset in bits: 12 
CEASER-S_LLC:0
MIRAGE : 1
CEASER_LATENCY:3
REMAP : OFF
Partitions : 1
Multi-Step : OFF
BFS : OFF

CPU 0 runs /home/anubhav/spec_2017/605.mcf_s-472B.champsimtrace.xz
CPU 0 Bimodal branch predictor
Initialize SRRIP state
Heartbeat CPU 0 instructions: 10000000 cycles: 5633603 heartbeat IPC: 1.77506 cumulative IPC: 1.77506 (Simulation time: 0 hr 6 min 40 sec) 
 Total Blocks : 32768 Invalid Blocks : 1
Heartbeat CPU 0 instructions: 20000003 cycles: 11346517 heartbeat IPC: 1.75042 cumulative IPC: 1.76266 (Simulation time: 0 hr 13 min 56 sec) 
 Total Blocks : 32768 Invalid Blocks : 0
Heartbeat CPU 0 instructions: 30000001 cycles: 17057719 heartbeat IPC: 1.75094 cumulative IPC: 1.75873 (Simulation time: 0 hr 21 min 31 sec) 
 Total Blocks : 32768 Invalid Blocks : 0
Heartbeat CPU 0 instructions: 40000003 cycles: 22704704 heartbeat IPC: 1.77086 cumulative IPC: 1.76175 (Simulation time: 0 hr 28 min 45 sec) 
 Total Blocks : 32768 Invalid Blocks : 0
Heartbeat CPU 0 instructions: 50000000 cycles: 28349897 heartbeat IPC: 1.77142 cumulative IPC: 1.76367 (Simulation time: 0 hr 35 min 42 sec) 
 Total Blocks : 32768 Invalid Blocks : 0
Heartbeat CPU 0 instructions: 60000001 cycles: 33989954 heartbeat IPC: 1.77303 cumulative IPC: 1.76523 (Simulation time: 0 hr 42 min 45 sec) 
 Total Blocks : 32768 Invalid Blocks : 0
Heartbeat CPU 0 instructions: 70000002 cycles: 39667379 heartbeat IPC: 1.76136 cumulative IPC: 1.76467 (Simulation time: 0 hr 50 min 11 sec) 
 Total Blocks : 32768 Invalid Blocks : 0
Heartbeat CPU 0 instructions: 80000002 cycles: 45395561 heartbeat IPC: 1.74575 cumulative IPC: 1.76229 (Simulation time: 0 hr 57 min 59 sec) 
 Total Blocks : 32768 Invalid Blocks : 0
Heartbeat CPU 0 instructions: 90000000 cycles: 51031307 heartbeat IPC: 1.77439 cumulative IPC: 1.76362 (Simulation time: 1 hr 5 min 18 sec) 
 Total Blocks : 32768 Invalid Blocks : 0
Heartbeat CPU 0 instructions: 100000001 cycles: 56698618 heartbeat IPC: 1.76451 cumulative IPC: 1.76371 (Simulation time: 1 hr 12 min 43 sec) 
 Total Blocks : 32768 Invalid Blocks : 0
Heartbeat CPU 0 instructions: 110000000 cycles: 62331660 heartbeat IPC: 1.77524 cumulative IPC: 1.76475 (Simulation time: 1 hr 20 min 24 sec) 
 Total Blocks : 32768 Invalid Blocks : 0
Heartbeat CPU 0 instructions: 120000001 cycles: 68011245 heartbeat IPC: 1.76069 cumulative IPC: 1.76441 (Simulation time: 1 hr 28 min 39 sec) 
 Total Blocks : 32768 Invalid Blocks : 0
Heartbeat CPU 0 instructions: 130000002 cycles: 73654429 heartbeat IPC: 1.77205 cumulative IPC: 1.765 (Simulation time: 1 hr 36 min 31 sec) 
 Total Blocks : 32768 Invalid Blocks : 0
Heartbeat CPU 0 instructions: 140000003 cycles: 79347644 heartbeat IPC: 1.75648 cumulative IPC: 1.76439 (Simulation time: 1 hr 44 min 24 sec) 
 Total Blocks : 32768 Invalid Blocks : 0
Heartbeat CPU 0 instructions: 150000001 cycles: 84992194 heartbeat IPC: 1.77162 cumulative IPC: 1.76487 (Simulation time: 1 hr 52 min 21 sec) 
 Total Blocks : 32768 Invalid Blocks : 0
Heartbeat CPU 0 instructions: 160000001 cycles: 90704643 heartbeat IPC: 1.75056 cumulative IPC: 1.76397 (Simulation time: 2 hr 0 min 56 sec) 
 Total Blocks : 32768 Invalid Blocks : 0
Heartbeat CPU 0 instructions: 170000001 cycles: 96395453 heartbeat IPC: 1.75722 cumulative IPC: 1.76357 (Simulation time: 2 hr 9 min 57 sec) 
 Total Blocks : 32768 Invalid Blocks : 0
Heartbeat CPU 0 instructions: 180000001 cycles: 102053293 heartbeat IPC: 1.76746 cumulative IPC: 1.76378 (Simulation time: 2 hr 17 min 8 sec) 
 Total Blocks : 32768 Invalid Blocks : 0
Heartbeat CPU 0 instructions: 190000000 cycles: 107735471 heartbeat IPC: 1.75989 cumulative IPC: 1.76358 (Simulation time: 2 hr 25 min 38 sec) 
 Total Blocks : 32768 Invalid Blocks : 0
Heartbeat CPU 0 instructions: 200000000 cycles: 113413426 heartbeat IPC: 1.7612 cumulative IPC: 1.76346 (Simulation time: 2 hr 33 min 18 sec) 
 Total Blocks : 32768 Invalid Blocks : 0

Warmup complete CPU 0 instructions: 200000004 cycles: 113413427 (Simulation time: 2 hr 33 min 18 sec) 

Heartbeat CPU 0 instructions: 210000000 cycles: 153451446 heartbeat IPC: 0.249763 cumulative IPC: 0.249763 (Simulation time: 2 hr 48 min 32 sec) 
 Total Blocks : 32768 Invalid Blocks : 0
Heartbeat CPU 0 instructions: 220000000 cycles: 196626341 heartbeat IPC: 0.231616 cumulative IPC: 0.240347 (Simulation time: 3 hr 3 min 22 sec) 
 Total Blocks : 32768 Invalid Blocks : 0
Heartbeat CPU 0 instructions: 230000001 cycles: 238849273 heartbeat IPC: 0.236838 cumulative IPC: 0.239166 (Simulation time: 3 hr 17 min 36 sec) 
 Total Blocks : 32768 Invalid Blocks : 0
Heartbeat CPU 0 instructions: 240000001 cycles: 277081744 heartbeat IPC: 0.261558 cumulative IPC: 0.244397 (Simulation time: 3 hr 38 min 17 sec) 
 Total Blocks : 32768 Invalid Blocks : 0
Heartbeat CPU 0 instructions: 250000000 cycles: 296017230 heartbeat IPC: 0.528109 cumulative IPC: 0.273817 (Simulation time: 4 hr 9 min 38 sec) 
 Total Blocks : 32768 Invalid Blocks : 0
Heartbeat CPU 0 instructions: 260000001 cycles: 316104648 heartbeat IPC: 0.497824 cumulative IPC: 0.296017 (Simulation time: 4 hr 42 min 9 sec) 
 Total Blocks : 32768 Invalid Blocks : 0
Heartbeat CPU 0 instructions: 270000000 cycles: 347939440 heartbeat IPC: 0.314122 cumulative IPC: 0.298474 (Simulation time: 5 hr 8 min 47 sec) 
 Total Blocks : 32768 Invalid Blocks : 0
Heartbeat CPU 0 instructions: 280000000 cycles: 387112380 heartbeat IPC: 0.255278 cumulative IPC: 0.292292 (Simulation time: 5 hr 30 min 44 sec) 
 Total Blocks : 32768 Invalid Blocks : 0
Heartbeat CPU 0 instructions: 290000000 cycles: 425453124 heartbeat IPC: 0.260819 cumulative IPC: 0.288425 (Simulation time: 5 hr 36 min 38 sec) 
 Total Blocks : 32768 Invalid Blocks : 0
Heartbeat CPU 0 instructions: 300000001 cycles: 466145210 heartbeat IPC: 0.245748 cumulative IPC: 0.283502 (Simulation time: 5 hr 42 min 34 sec) 
 Total Blocks : 32768 Invalid Blocks : 0
Heartbeat CPU 0 instructions: 310000001 cycles: 511737954 heartbeat IPC: 0.219333 cumulative IPC: 0.276157 (Simulation time: 5 hr 48 min 22 sec) 
 Total Blocks : 32768 Invalid Blocks : 0
Heartbeat CPU 0 instructions: 320000001 cycles: 562797205 heartbeat IPC: 0.195851 cumulative IPC: 0.267032 (Simulation time: 5 hr 54 min 36 sec) 
 Total Blocks : 32768 Invalid Blocks : 0
Heartbeat CPU 0 instructions: 330000000 cycles: 606944062 heartbeat IPC: 0.226517 cumulative IPC: 0.263408 (Simulation time: 6 hr 1 min 29 sec) 
 Total Blocks : 32768 Invalid Blocks : 0
Heartbeat CPU 0 instructions: 340000000 cycles: 643567356 heartbeat IPC: 0.27305 cumulative IPC: 0.264074 (Simulation time: 6 hr 7 min 2 sec) 
 Total Blocks : 32768 Invalid Blocks : 0
Heartbeat CPU 0 instructions: 350000003 cycles: 694598861 heartbeat IPC: 0.195957 cumulative IPC: 0.258093 (Simulation time: 6 hr 10 min 55 sec) 
 Total Blocks : 32768 Invalid Blocks : 0
Heartbeat CPU 0 instructions: 360000001 cycles: 744378897 heartbeat IPC: 0.200884 cumulative IPC: 0.25358 (Simulation time: 6 hr 15 min 3 sec) 
 Total Blocks : 32768 Invalid Blocks : 0
Heartbeat CPU 0 instructions: 370000003 cycles: 787041089 heartbeat IPC: 0.2344 cumulative IPC: 0.252365 (Simulation time: 6 hr 18 min 53 sec) 
 Total Blocks : 32768 Invalid Blocks : 0
Heartbeat CPU 0 instructions: 380000000 cycles: 828471347 heartbeat IPC: 0.241369 cumulative IPC: 0.251728 (Simulation time: 6 hr 22 min 54 sec) 
 Total Blocks : 32768 Invalid Blocks : 0
Heartbeat CPU 0 instructions: 390000002 cycles: 872389643 heartbeat IPC: 0.227696 cumulative IPC: 0.250337 (Simulation time: 6 hr 26 min 24 sec) 
 Total Blocks : 32768 Invalid Blocks : 0
Heartbeat CPU 0 instructions: 400000001 cycles: 919155867 heartbeat IPC: 0.21383 cumulative IPC: 0.248218 (Simulation time: 6 hr 30 min 33 sec) 
 Total Blocks : 32768 Invalid Blocks : 0
Finished CPU 0 instructions: 200000000 cycles: 805742441 cumulative IPC: 0.248218 (Simulation time: 6 hr 30 min 33 sec) 

CPU 0 Branch Prediction Accuracy: 98.3213% MPKI: 2.87133 Average ROB Occupancy at Mispredict: 136.224

ChampSim completed all CPUs

Region of Interest Statistics

CPU 0 cumulative IPC: 0.248218 instructions: 200000000 cycles: 805742441
ITLB TOTAL     ACCESS: 49965290  HIT: 49965290  MISS:     0  HIT %:   100  MISS %:     0  AVERAGE MISS PENALTY: 0
ITLB LOAD      ACCESS: 49965290  HIT: 49965290  MISS:     0  HIT %:   100  MISS %:     0  AVERAGE MISS PENALTY: 0
ITLB RFO       ACCESS:     0  HIT:     0  MISS:     0  HIT %:     0  MISS %:     0  AVERAGE MISS PENALTY: 0
ITLB PREFETCH  ACCESS:     0  HIT:     0  MISS:     0  HIT %:     0  MISS %:     0  AVERAGE MISS PENALTY: 0
ITLB WRITEBACK ACCESS:     0  HIT:     0  MISS:     0  HIT %:     0  MISS %:     0  AVERAGE MISS PENALTY: 0
ITLB PREFETCH  REQUESTED:     0  ISSUED:     0  USEFUL:     0  USELESS:     0
 USEFUL LOAD PREFETCHES:          0 PREFETCH ISSUED TO LOWER LEVEL:          0  ACCURACY: -nan
 TIMELY PREFETCHES:          0 LATE PREFETCHES: 0 DROPPED PREFETCHES: 0
ITLB AVERAGE MISS LATENCY: -nan cycles
DTLB TOTAL     ACCESS: 59822589  HIT: 58955704  MISS: 866885  HIT %: 98.5509  MISS %: 1.44909  AVERAGE MISS PENALTY: 41.8019
DTLB LOAD      ACCESS: 45032376  HIT: 44185243  MISS: 847133  HIT %: 98.1188  MISS %: 1.88116  AVERAGE MISS PENALTY: 41.8139
DTLB RFO       ACCESS: 14790213  HIT: 14770461  MISS: 19752  HIT %: 99.8665  MISS %: 0.133548  AVERAGE MISS PENALTY: 41.2878
DTLB PREFETCH  ACCESS:     0  HIT:     0  MISS:     0  HIT %:     0  MISS %:     0  AVERAGE MISS PENALTY: 0
DTLB WRITEBACK ACCESS:     0  HIT:     0  MISS:     0  HIT %:     0  MISS %:     0  AVERAGE MISS PENALTY: 0
DTLB PREFETCH  REQUESTED:     0  ISSUED:     0  USEFUL:     0  USELESS:     0
 USEFUL LOAD PREFETCHES:          0 PREFETCH ISSUED TO LOWER LEVEL:          0  ACCURACY: -nan
 TIMELY PREFETCHES:          0 LATE PREFETCHES: 0 DROPPED PREFETCHES: 0
DTLB AVERAGE MISS LATENCY: 41.8019 cycles
STLB TOTAL     ACCESS: 866885  HIT: 583355  MISS: 283530  HIT %: 67.2932  MISS %: 32.7068  AVERAGE MISS PENALTY: 100
STLB LOAD      ACCESS: 847133  HIT: 569714  MISS: 277419  HIT %: 67.252  MISS %: 32.748  AVERAGE MISS PENALTY: 100
STLB RFO       ACCESS: 19752  HIT: 13641  MISS:  6111  HIT %: 69.0614  MISS %: 30.9386  AVERAGE MISS PENALTY: 100
STLB PREFETCH  ACCESS:     0  HIT:     0  MISS:     0  HIT %:     0  MISS %:     0  AVERAGE MISS PENALTY: 0
STLB WRITEBACK ACCESS:     0  HIT:     0  MISS:     0  HIT %:     0  MISS %:     0  AVERAGE MISS PENALTY: 0
STLB PREFETCH  REQUESTED:     0  ISSUED:     0  USEFUL:     0  USELESS:     0
 USEFUL LOAD PREFETCHES:          0 PREFETCH ISSUED TO LOWER LEVEL:          0  ACCURACY: -nan
 TIMELY PREFETCHES:          0 LATE PREFETCHES: 0 DROPPED PREFETCHES: 0
STLB AVERAGE MISS LATENCY: 100 cycles
L1D TOTAL     ACCESS: 80783864  HIT: 68044404  MISS: 12739460  HIT %: 84.2302  MISS %: 15.7698  AVERAGE MISS PENALTY: 168.305
L1D LOAD      ACCESS: 47012308  HIT: 34671094  MISS: 12341214  HIT %: 73.749  MISS %: 26.251  AVERAGE MISS PENALTY: 166.367
L1D RFO       ACCESS: 33771556  HIT: 33373310  MISS: 398246  HIT %: 98.8208  MISS %: 1.17923  AVERAGE MISS PENALTY: 228.372
L1D PREFETCH  ACCESS:     0  HIT:     0  MISS:     0  HIT %:     0  MISS %:     0  AVERAGE MISS PENALTY: 0
L1D WRITEBACK ACCESS:     0  HIT:     0  MISS:     0  HIT %:     0  MISS %:     0  AVERAGE MISS PENALTY: 0
L1D PREFETCH  REQUESTED:     0  ISSUED:     0  USEFUL:     0  USELESS:     0
 USEFUL LOAD PREFETCHES:          0 PREFETCH ISSUED TO LOWER LEVEL:          0  ACCURACY: -nan
 TIMELY PREFETCHES:          0 LATE PREFETCHES: 0 DROPPED PREFETCHES: 0
L1D AVERAGE MISS LATENCY: 168.305 cycles
L1I TOTAL     ACCESS: 61608767  HIT: 61608757  MISS:    10  HIT %:   100  MISS %: 1.62315e-05  AVERAGE MISS PENALTY: 223.4
L1I LOAD      ACCESS: 61608767  HIT: 61608757  MISS:    10  HIT %:   100  MISS %: 1.62315e-05  AVERAGE MISS PENALTY: 223.4
L1I RFO       ACCESS:     0  HIT:     0  MISS:     0  HIT %:     0  MISS %:     0  AVERAGE MISS PENALTY: 0
L1I PREFETCH  ACCESS:     0  HIT:     0  MISS:     0  HIT %:     0  MISS %:     0  AVERAGE MISS PENALTY: 0
L1I WRITEBACK ACCESS:     0  HIT:     0  MISS:     0  HIT %:     0  MISS %:     0  AVERAGE MISS PENALTY: 0
L1I PREFETCH  REQUESTED:     0  ISSUED:     0  USEFUL:     0  USELESS:     0
 USEFUL LOAD PREFETCHES:          0 PREFETCH ISSUED TO LOWER LEVEL:          0  ACCURACY: -nan
 TIMELY PREFETCHES:          0 LATE PREFETCHES: 0 DROPPED PREFETCHES: 0
L1I AVERAGE MISS LATENCY: 223.4 cycles
L2C TOTAL     ACCESS: 13525564  HIT: 895201  MISS: 12630363  HIT %: 6.61859  MISS %: 93.3814  AVERAGE MISS PENALTY: 153.2
L2C LOAD      ACCESS: 12341185  HIT: 105465  MISS: 12235720  HIT %: 0.854578  MISS %: 99.1454  AVERAGE MISS PENALTY: 151.225
L2C RFO       ACCESS: 398235  HIT:  7671  MISS: 390564  HIT %: 1.92625  MISS %: 98.0738  AVERAGE MISS PENALTY: 216.687
L2C PREFETCH  ACCESS:     0  HIT:     0  MISS:     0  HIT %:     0  MISS %:     0  AVERAGE MISS PENALTY: 0
L2C WRITEBACK ACCESS: 786144  HIT: 782065  MISS:  4079  HIT %: 99.4811  MISS %: 0.518862  AVERAGE MISS PENALTY: 0
L2C PREFETCH  REQUESTED:     0  ISSUED:     0  USEFUL:     0  USELESS:     0
 USEFUL LOAD PREFETCHES:          0 PREFETCH ISSUED TO LOWER LEVEL:          0  ACCURACY: -nan
 TIMELY PREFETCHES:          0 LATE PREFETCHES: 0 DROPPED PREFETCHES: 0
L2C AVERAGE MISS LATENCY: 153.2 cycles
LLC0 TOTAL     ACCESS: 13333331  HIT: 1514500  MISS: 11818831  HIT %: 11.3588  MISS %: 88.6412  AVERAGE MISS PENALTY: 121.166
LLC0 LOAD      ACCESS: 12235720  HIT: 964667  MISS: 11271053  HIT %: 7.88402  MISS %: 92.116  AVERAGE MISS PENALTY: 120.885
LLC0 RFO       ACCESS: 390564  HIT:   286  MISS: 390278  HIT %: 0.0732274  MISS %: 99.9268  AVERAGE MISS PENALTY: 178.174
LLC0 PREFETCH  ACCESS:     0  HIT:     0  MISS:     0  HIT %:     0  MISS %:     0  AVERAGE MISS PENALTY: 0
LLC0 WRITEBACK ACCESS: 707047  HIT: 549547  MISS: 157500  HIT %: 77.7243  MISS %: 22.2757  AVERAGE MISS PENALTY: 0
LLC0 PREFETCH  REQUESTED:     0  ISSUED:     0  USEFUL:     0  USELESS:     0
 USEFUL LOAD PREFETCHES:          0 PREFETCH ISSUED TO LOWER LEVEL:          0  ACCURACY: -nan
 TIMELY PREFETCHES:          0 LATE PREFETCHES: 0 DROPPED PREFETCHES: 0
LLC0 AVERAGE MISS LATENCY: 121.166 cycles
Deadblocks : 10489902 Deadblock percentage : 93.0694

ROI Average ROB Stall Cycles:	11.8527
ROI Total ROB Stalls Cycles:	767743321
ROI TOTAL ROB counter      :	64773629
ROI Average Load ROB Stall Cycles:	35.8941
ROI Total Load ROB Stalls Cycle  :	343042614
ROI Total Load ROB stalls Counter:	9557081
Major fault: 0 Minor fault: 117061
Interconnect Stats 
LINK 0 BW : 0
DRAM Statistics
 CHANNEL 0
 RQ ROW_BUFFER_HIT: 8009880  ROW_BUFFER_MISS: 3651450
 DBUS_CONGESTED: 4190736
 WQ ROW_BUFFER_HIT: 374465  ROW_BUFFER_MISS: 329151  FULL:     0

 AVG_CONGESTED_CYCLE: 6
DRAM PAGES: 1048576
Allocated PAGES: 117061
L2C destructor called
L1D destructor called
L1I destructor called
STLB destructor called
DTLB destructor called
ITLB destructor called
