
*** ChampSim Multicore Out-of-Order Simulator ***

Warmup Instructions: 200000000
Simulation Instructions: 200000000
Number of CPUs: 1
threads:1

L1I Configuration:
L1I_SET:64
L1I_WAY:8
L1I_RQ_SIZE:64
L1I_WQ_SIZE:64
L1I_PQ_SIZE:8
L1I_MSHR_SIZE:8

L1D Configuration:
L1D_SET:64
L1D_WAY:12
L1D_RQ_SIZE:64
L1D_WQ_SIZE:64
L1D_PQ_SIZE:8
L1D_MSHR_SIZE:16

L2C Configuration:
L2C_SET:1024
L2C_WAY:8
L2C_RQ_SIZE:32
L2C_WQ_SIZE:32
L2C_PQ_SIZE:16
L2C_MSHR_SIZE:32

LLC Configuration:
LLC_SET:2048
LLC_WAY:16
LLC SLICES:1
LLC_RQ_SIZE:64
LLC_WQ_SIZE:64
LLC_PQ_SIZE:32
LLC_MSHR_SIZE:64

Interconnect OFF
Attacker deprioritize is: OFF
Off-chip DRAM Size: 4096 MB Channels: 1 Width: 64-bit Data Rate: 3200 MT/s
PAGE SIZE in KB: 4.000000 
PAGE SIZE in MB: 0.003906 
PAGE offset in bits: 12 
CEASER-S_LLC:0
MIRAGE : 0
CEASER_LATENCY:3
REMAP : OFF
Partitions : 1
Multi-Step : OFF
BFS : OFF

CPU 0 runs /home/anubhav/gap/cc-14.trace.gz
CPU 0 Bimodal branch predictor
Initialize SRRIP state
Heartbeat CPU 0 instructions: 10000000 cycles: 10866533 heartbeat IPC: 0.920257 cumulative IPC: 0.920257 (Simulation time: 0 hr 1 min 36 sec) 
 Total Blocks : 32768 Invalid Blocks : 0
Heartbeat CPU 0 instructions: 20000000 cycles: 21586841 heartbeat IPC: 0.932809 cumulative IPC: 0.92649 (Simulation time: 0 hr 3 min 36 sec) 
 Total Blocks : 32768 Invalid Blocks : 0
Heartbeat CPU 0 instructions: 30000000 cycles: 31504512 heartbeat IPC: 1.0083 cumulative IPC: 0.952245 (Simulation time: 0 hr 6 min 52 sec) 
 Total Blocks : 32768 Invalid Blocks : 0
Heartbeat CPU 0 instructions: 40000002 cycles: 41046758 heartbeat IPC: 1.04797 cumulative IPC: 0.974498 (Simulation time: 0 hr 10 min 8 sec) 
 Total Blocks : 32768 Invalid Blocks : 0
Heartbeat CPU 0 instructions: 50000001 cycles: 50508431 heartbeat IPC: 1.0569 cumulative IPC: 0.989934 (Simulation time: 0 hr 13 min 35 sec) 
 Total Blocks : 32768 Invalid Blocks : 0
Heartbeat CPU 0 instructions: 60000002 cycles: 59806203 heartbeat IPC: 1.07553 cumulative IPC: 1.00324 (Simulation time: 0 hr 17 min 13 sec) 
 Total Blocks : 32768 Invalid Blocks : 0
Heartbeat CPU 0 instructions: 70000001 cycles: 69048085 heartbeat IPC: 1.08203 cumulative IPC: 1.01379 (Simulation time: 0 hr 20 min 49 sec) 
 Total Blocks : 32768 Invalid Blocks : 0
Heartbeat CPU 0 instructions: 80000000 cycles: 78529861 heartbeat IPC: 1.05465 cumulative IPC: 1.01872 (Simulation time: 0 hr 24 min 20 sec) 
 Total Blocks : 32768 Invalid Blocks : 0
Heartbeat CPU 0 instructions: 90000000 cycles: 87558138 heartbeat IPC: 1.10763 cumulative IPC: 1.02789 (Simulation time: 0 hr 28 min 3 sec) 
 Total Blocks : 32768 Invalid Blocks : 0
Heartbeat CPU 0 instructions: 100000002 cycles: 96634572 heartbeat IPC: 1.10175 cumulative IPC: 1.03483 (Simulation time: 0 hr 31 min 39 sec) 
 Total Blocks : 32768 Invalid Blocks : 0
Heartbeat CPU 0 instructions: 110000000 cycles: 105927269 heartbeat IPC: 1.07611 cumulative IPC: 1.03845 (Simulation time: 0 hr 35 min 29 sec) 
 Total Blocks : 32768 Invalid Blocks : 0
Heartbeat CPU 0 instructions: 120000000 cycles: 115359955 heartbeat IPC: 1.06014 cumulative IPC: 1.04022 (Simulation time: 0 hr 39 min 8 sec) 
 Total Blocks : 32768 Invalid Blocks : 0
Heartbeat CPU 0 instructions: 130000002 cycles: 124966533 heartbeat IPC: 1.04095 cumulative IPC: 1.04028 (Simulation time: 0 hr 42 min 44 sec) 
 Total Blocks : 32768 Invalid Blocks : 0
Heartbeat CPU 0 instructions: 140000000 cycles: 134202474 heartbeat IPC: 1.08273 cumulative IPC: 1.0432 (Simulation time: 0 hr 46 min 16 sec) 
 Total Blocks : 32768 Invalid Blocks : 0
Heartbeat CPU 0 instructions: 150000000 cycles: 143207816 heartbeat IPC: 1.11045 cumulative IPC: 1.04743 (Simulation time: 0 hr 49 min 58 sec) 
 Total Blocks : 32768 Invalid Blocks : 0
Heartbeat CPU 0 instructions: 160000002 cycles: 152379509 heartbeat IPC: 1.09031 cumulative IPC: 1.05001 (Simulation time: 0 hr 53 min 37 sec) 
 Total Blocks : 32768 Invalid Blocks : 0
Heartbeat CPU 0 instructions: 170000001 cycles: 161939528 heartbeat IPC: 1.04602 cumulative IPC: 1.04977 (Simulation time: 0 hr 57 min 23 sec) 
 Total Blocks : 32768 Invalid Blocks : 0
Heartbeat CPU 0 instructions: 180000001 cycles: 171178357 heartbeat IPC: 1.08239 cumulative IPC: 1.05153 (Simulation time: 1 hr 1 min 5 sec) 
 Total Blocks : 32768 Invalid Blocks : 0
Heartbeat CPU 0 instructions: 190000001 cycles: 180201480 heartbeat IPC: 1.10826 cumulative IPC: 1.05438 (Simulation time: 1 hr 4 min 52 sec) 
 Total Blocks : 32768 Invalid Blocks : 0
Heartbeat CPU 0 instructions: 200000000 cycles: 189544506 heartbeat IPC: 1.07032 cumulative IPC: 1.05516 (Simulation time: 1 hr 8 min 40 sec) 
 Total Blocks : 32768 Invalid Blocks : 0

Warmup complete CPU 0 instructions: 200000001 cycles: 189544507 (Simulation time: 1 hr 8 min 40 sec) 

Heartbeat CPU 0 instructions: 210000000 cycles: 242082357 heartbeat IPC: 0.190339 cumulative IPC: 0.190339 (Simulation time: 1 hr 18 min 3 sec) 
 Total Blocks : 32768 Invalid Blocks : 0
Heartbeat CPU 0 instructions: 220000000 cycles: 293938533 heartbeat IPC: 0.192841 cumulative IPC: 0.191582 (Simulation time: 1 hr 27 min 30 sec) 
 Total Blocks : 32768 Invalid Blocks : 0
Heartbeat CPU 0 instructions: 230000002 cycles: 347761445 heartbeat IPC: 0.185795 cumulative IPC: 0.189613 (Simulation time: 1 hr 36 min 49 sec) 
 Total Blocks : 32768 Invalid Blocks : 0
Heartbeat CPU 0 instructions: 240000002 cycles: 399823661 heartbeat IPC: 0.192078 cumulative IPC: 0.190223 (Simulation time: 1 hr 46 min 20 sec) 
 Total Blocks : 32768 Invalid Blocks : 0
Heartbeat CPU 0 instructions: 250000001 cycles: 451937732 heartbeat IPC: 0.191887 cumulative IPC: 0.190554 (Simulation time: 1 hr 55 min 58 sec) 
 Total Blocks : 32768 Invalid Blocks : 0
Heartbeat CPU 0 instructions: 260000000 cycles: 504910290 heartbeat IPC: 0.188777 cumulative IPC: 0.190255 (Simulation time: 2 hr 5 min 43 sec) 
 Total Blocks : 32768 Invalid Blocks : 0
Heartbeat CPU 0 instructions: 270000001 cycles: 556623089 heartbeat IPC: 0.193376 cumulative IPC: 0.190695 (Simulation time: 2 hr 15 min 22 sec) 
 Total Blocks : 32768 Invalid Blocks : 0
Heartbeat CPU 0 instructions: 280000001 cycles: 609043437 heartbeat IPC: 0.190766 cumulative IPC: 0.190704 (Simulation time: 2 hr 24 min 53 sec) 
 Total Blocks : 32768 Invalid Blocks : 0
Heartbeat CPU 0 instructions: 290000002 cycles: 663205958 heartbeat IPC: 0.18463 cumulative IPC: 0.190009 (Simulation time: 2 hr 34 min 5 sec) 
 Total Blocks : 32768 Invalid Blocks : 0
Heartbeat CPU 0 instructions: 300000002 cycles: 714881742 heartbeat IPC: 0.193514 cumulative IPC: 0.190354 (Simulation time: 2 hr 43 min 26 sec) 
 Total Blocks : 32768 Invalid Blocks : 0
Heartbeat CPU 0 instructions: 310000001 cycles: 763923830 heartbeat IPC: 0.203906 cumulative IPC: 0.191511 (Simulation time: 2 hr 52 min 48 sec) 
 Total Blocks : 32768 Invalid Blocks : 0
Heartbeat CPU 0 instructions: 320000001 cycles: 815828740 heartbeat IPC: 0.19266 cumulative IPC: 0.191606 (Simulation time: 3 hr 1 min 37 sec) 
 Total Blocks : 32768 Invalid Blocks : 0
Heartbeat CPU 0 instructions: 330000000 cycles: 868104048 heartbeat IPC: 0.191295 cumulative IPC: 0.191582 (Simulation time: 3 hr 10 min 36 sec) 
 Total Blocks : 32768 Invalid Blocks : 0
Heartbeat CPU 0 instructions: 340000000 cycles: 920465719 heartbeat IPC: 0.190979 cumulative IPC: 0.191539 (Simulation time: 3 hr 19 min 28 sec) 
 Total Blocks : 32768 Invalid Blocks : 0
Heartbeat CPU 0 instructions: 350000001 cycles: 972983102 heartbeat IPC: 0.190413 cumulative IPC: 0.191464 (Simulation time: 3 hr 28 min 4 sec) 
 Total Blocks : 32768 Invalid Blocks : 0
Heartbeat CPU 0 instructions: 360000000 cycles: 1025643601 heartbeat IPC: 0.189896 cumulative IPC: 0.191365 (Simulation time: 3 hr 36 min 12 sec) 
 Total Blocks : 32768 Invalid Blocks : 0
Heartbeat CPU 0 instructions: 370000002 cycles: 1076944989 heartbeat IPC: 0.194927 cumulative IPC: 0.191571 (Simulation time: 3 hr 44 min 11 sec) 
 Total Blocks : 32768 Invalid Blocks : 0
Heartbeat CPU 0 instructions: 380000002 cycles: 1127437191 heartbeat IPC: 0.19805 cumulative IPC: 0.19192 (Simulation time: 3 hr 51 min 54 sec) 
 Total Blocks : 32768 Invalid Blocks : 0
Heartbeat CPU 0 instructions: 390000003 cycles: 1179277701 heartbeat IPC: 0.192899 cumulative IPC: 0.191971 (Simulation time: 3 hr 59 min 33 sec) 
 Total Blocks : 32768 Invalid Blocks : 0
Heartbeat CPU 0 instructions: 400000000 cycles: 1229573293 heartbeat IPC: 0.198825 cumulative IPC: 0.192302 (Simulation time: 4 hr 7 min 2 sec) 
 Total Blocks : 32768 Invalid Blocks : 0
Finished CPU 0 instructions: 200000000 cycles: 1040028788 cumulative IPC: 0.192302 (Simulation time: 4 hr 7 min 2 sec) 

CPU 0 Branch Prediction Accuracy: 90.7092% MPKI: 18.9196 Average ROB Occupancy at Mispredict: 42.5006

ChampSim completed all CPUs

Region of Interest Statistics

CPU 0 cumulative IPC: 0.192302 instructions: 200000000 cycles: 1040028788
ITLB TOTAL     ACCESS: 29966107  HIT: 29966107  MISS:     0  HIT %:   100  MISS %:     0  AVERAGE MISS PENALTY: 0
ITLB LOAD      ACCESS: 29966107  HIT: 29966107  MISS:     0  HIT %:   100  MISS %:     0  AVERAGE MISS PENALTY: 0
ITLB RFO       ACCESS:     0  HIT:     0  MISS:     0  HIT %:     0  MISS %:     0  AVERAGE MISS PENALTY: 0
ITLB PREFETCH  ACCESS:     0  HIT:     0  MISS:     0  HIT %:     0  MISS %:     0  AVERAGE MISS PENALTY: 0
ITLB WRITEBACK ACCESS:     0  HIT:     0  MISS:     0  HIT %:     0  MISS %:     0  AVERAGE MISS PENALTY: 0
ITLB PREFETCH  REQUESTED:     0  ISSUED:     0  USEFUL:     0  USELESS:     0
 USEFUL LOAD PREFETCHES:          0 PREFETCH ISSUED TO LOWER LEVEL:          0  ACCURACY: -nan
 TIMELY PREFETCHES:          0 LATE PREFETCHES: 0 DROPPED PREFETCHES: 0
ITLB AVERAGE MISS LATENCY: -nan cycles
DTLB TOTAL     ACCESS: 45999746  HIT: 36187296  MISS: 9812450  HIT %: 78.6685  MISS %: 21.3315  AVERAGE MISS PENALTY: 9.61597
DTLB LOAD      ACCESS: 45935009  HIT: 36122559  MISS: 9812450  HIT %: 78.6384  MISS %: 21.3616  AVERAGE MISS PENALTY: 9.61597
DTLB RFO       ACCESS: 64737  HIT: 64737  MISS:     0  HIT %:   100  MISS %:     0  AVERAGE MISS PENALTY: 0
DTLB PREFETCH  ACCESS:     0  HIT:     0  MISS:     0  HIT %:     0  MISS %:     0  AVERAGE MISS PENALTY: 0
DTLB WRITEBACK ACCESS:     0  HIT:     0  MISS:     0  HIT %:     0  MISS %:     0  AVERAGE MISS PENALTY: 0
DTLB PREFETCH  REQUESTED:     0  ISSUED:     0  USEFUL:     0  USELESS:     0
 USEFUL LOAD PREFETCHES:          0 PREFETCH ISSUED TO LOWER LEVEL:          0  ACCURACY: -nan
 TIMELY PREFETCHES:          0 LATE PREFETCHES: 0 DROPPED PREFETCHES: 0
DTLB AVERAGE MISS LATENCY: 9.61597 cycles
STLB TOTAL     ACCESS: 9812450  HIT: 9797689  MISS: 14761  HIT %: 99.8496  MISS %: 0.150431  AVERAGE MISS PENALTY: 100
STLB LOAD      ACCESS: 9812450  HIT: 9797689  MISS: 14761  HIT %: 99.8496  MISS %: 0.150431  AVERAGE MISS PENALTY: 100
STLB RFO       ACCESS:     0  HIT:     0  MISS:     0  HIT %:     0  MISS %:     0  AVERAGE MISS PENALTY: 0
STLB PREFETCH  ACCESS:     0  HIT:     0  MISS:     0  HIT %:     0  MISS %:     0  AVERAGE MISS PENALTY: 0
STLB WRITEBACK ACCESS:     0  HIT:     0  MISS:     0  HIT %:     0  MISS %:     0  AVERAGE MISS PENALTY: 0
STLB PREFETCH  REQUESTED:     0  ISSUED:     0  USEFUL:     0  USELESS:     0
 USEFUL LOAD PREFETCHES:          0 PREFETCH ISSUED TO LOWER LEVEL:          0  ACCURACY: -nan
 TIMELY PREFETCHES:          0 LATE PREFETCHES: 0 DROPPED PREFETCHES: 0
STLB AVERAGE MISS LATENCY: 100 cycles
L1D TOTAL     ACCESS: 42065603  HIT: 27082407  MISS: 14983196  HIT %: 64.3814  MISS %: 35.6186  AVERAGE MISS PENALTY: 82.4337
L1D LOAD      ACCESS: 42000862  HIT: 27017666  MISS: 14983196  HIT %: 64.3265  MISS %: 35.6735  AVERAGE MISS PENALTY: 82.4337
L1D RFO       ACCESS: 64741  HIT: 64741  MISS:     0  HIT %:   100  MISS %:     0  AVERAGE MISS PENALTY: 0
L1D PREFETCH  ACCESS:     0  HIT:     0  MISS:     0  HIT %:     0  MISS %:     0  AVERAGE MISS PENALTY: 0
L1D WRITEBACK ACCESS:     0  HIT:     0  MISS:     0  HIT %:     0  MISS %:     0  AVERAGE MISS PENALTY: 0
L1D PREFETCH  REQUESTED:     0  ISSUED:     0  USEFUL:     0  USELESS:     0
 USEFUL LOAD PREFETCHES:          0 PREFETCH ISSUED TO LOWER LEVEL:          0  ACCURACY: -nan
 TIMELY PREFETCHES:          0 LATE PREFETCHES: 0 DROPPED PREFETCHES: 0
L1D AVERAGE MISS LATENCY: 82.4337 cycles
L1I TOTAL     ACCESS: 42088950  HIT: 42088950  MISS:     0  HIT %:   100  MISS %:     0  AVERAGE MISS PENALTY: 0
L1I LOAD      ACCESS: 42088950  HIT: 42088950  MISS:     0  HIT %:   100  MISS %:     0  AVERAGE MISS PENALTY: 0
L1I RFO       ACCESS:     0  HIT:     0  MISS:     0  HIT %:     0  MISS %:     0  AVERAGE MISS PENALTY: 0
L1I PREFETCH  ACCESS:     0  HIT:     0  MISS:     0  HIT %:     0  MISS %:     0  AVERAGE MISS PENALTY: 0
L1I WRITEBACK ACCESS:     0  HIT:     0  MISS:     0  HIT %:     0  MISS %:     0  AVERAGE MISS PENALTY: 0
L1I PREFETCH  REQUESTED:     0  ISSUED:     0  USEFUL:     0  USELESS:     0
 USEFUL LOAD PREFETCHES:          0 PREFETCH ISSUED TO LOWER LEVEL:          0  ACCURACY: -nan
 TIMELY PREFETCHES:          0 LATE PREFETCHES: 0 DROPPED PREFETCHES: 0
L1I AVERAGE MISS LATENCY: -nan cycles
L2C TOTAL     ACCESS: 15037733  HIT: 4577067  MISS: 10460666  HIT %: 30.4372  MISS %: 69.5628  AVERAGE MISS PENALTY: 96.2472
L2C LOAD      ACCESS: 14983197  HIT: 4522609  MISS: 10460588  HIT %: 30.1845  MISS %: 69.8155  AVERAGE MISS PENALTY: 96.2479
L2C RFO       ACCESS:     0  HIT:     0  MISS:     0  HIT %:     0  MISS %:     0  AVERAGE MISS PENALTY: 0
L2C PREFETCH  ACCESS:     0  HIT:     0  MISS:     0  HIT %:     0  MISS %:     0  AVERAGE MISS PENALTY: 0
L2C WRITEBACK ACCESS: 54536  HIT: 54458  MISS:    78  HIT %: 99.857  MISS %: 0.143025  AVERAGE MISS PENALTY: 0
L2C PREFETCH  REQUESTED:     0  ISSUED:     0  USEFUL:     0  USELESS:     0
 USEFUL LOAD PREFETCHES:          0 PREFETCH ISSUED TO LOWER LEVEL:          0  ACCURACY: -nan
 TIMELY PREFETCHES:          0 LATE PREFETCHES: 0 DROPPED PREFETCHES: 0
L2C AVERAGE MISS LATENCY: 96.2472 cycles
LLC0 TOTAL     ACCESS: 10515138  HIT: 6560750  MISS: 3954388  HIT %: 62.3934  MISS %: 37.6066  AVERAGE MISS PENALTY: 164.614
LLC0 LOAD      ACCESS: 10460590  HIT: 6506412  MISS: 3954178  HIT %: 62.1993  MISS %: 37.8007  AVERAGE MISS PENALTY: 164.623
LLC0 RFO       ACCESS:     0  HIT:     0  MISS:     0  HIT %:     0  MISS %:     0  AVERAGE MISS PENALTY: 0
LLC0 PREFETCH  ACCESS:     0  HIT:     0  MISS:     0  HIT %:     0  MISS %:     0  AVERAGE MISS PENALTY: 0
LLC0 WRITEBACK ACCESS: 54548  HIT: 54338  MISS:   210  HIT %: 99.615  MISS %: 0.384982  AVERAGE MISS PENALTY: 0
LLC0 PREFETCH  REQUESTED:     0  ISSUED:     0  USEFUL:     0  USELESS:     0
 USEFUL LOAD PREFETCHES:          0 PREFETCH ISSUED TO LOWER LEVEL:          0  ACCURACY: -nan
 TIMELY PREFETCHES:          0 LATE PREFETCHES: 0 DROPPED PREFETCHES: 0
LLC0 AVERAGE MISS LATENCY: 164.614 cycles
Deadblocks : 3195250 Deadblock percentage : 80.8069

ROI Average ROB Stall Cycles:	11.0349
ROI Total ROB Stalls Cycles:	945698813
ROI TOTAL ROB counter      :	85700627
ROI Average Load ROB Stall Cycles:	58.4015
ROI Total Load ROB Stalls Cycle  :	428781358
ROI Total Load ROB stalls Counter:	7341961
Major fault: 0 Minor fault: 30182
Interconnect Stats 
LINK 0 BW : 0
DRAM Statistics
 CHANNEL 0
 RQ ROW_BUFFER_HIT: 673872  ROW_BUFFER_MISS: 3280305
 DBUS_CONGESTED: 502512
 WQ ROW_BUFFER_HIT: 14503  ROW_BUFFER_MISS: 39045  FULL:     0

 AVG_CONGESTED_CYCLE: 4
DRAM PAGES: 1048576
Allocated PAGES: 30182
L2C destructor called
L1D destructor called
L1I destructor called
STLB destructor called
DTLB destructor called
ITLB destructor called
