
*** ChampSim Multicore Out-of-Order Simulator ***

Warmup Instructions: 200000000
Simulation Instructions: 200000000
Number of CPUs: 1
threads:1

L1I Configuration:
L1I_SET:64
L1I_WAY:8
L1I_RQ_SIZE:64
L1I_WQ_SIZE:64
L1I_PQ_SIZE:8
L1I_MSHR_SIZE:8

L1D Configuration:
L1D_SET:64
L1D_WAY:12
L1D_RQ_SIZE:64
L1D_WQ_SIZE:64
L1D_PQ_SIZE:8
L1D_MSHR_SIZE:16

L2C Configuration:
L2C_SET:1024
L2C_WAY:8
L2C_RQ_SIZE:32
L2C_WQ_SIZE:32
L2C_PQ_SIZE:16
L2C_MSHR_SIZE:32

LLC Configuration:
LLC_SET:2048
LLC_WAY:16
LLC SLICES:1
LLC_RQ_SIZE:64
LLC_WQ_SIZE:64
LLC_PQ_SIZE:32
LLC_MSHR_SIZE:64

Interconnect OFF
Attacker deprioritize is: OFF
Off-chip DRAM Size: 4096 MB Channels: 1 Width: 64-bit Data Rate: 3200 MT/s
PAGE SIZE in KB: 4.000000 
PAGE SIZE in MB: 0.003906 
PAGE offset in bits: 12 
CEASER-S_LLC:0
MIRAGE : 0
CEASER_LATENCY:3
REMAP : OFF
Partitions : 1
Multi-Step : OFF
BFS : OFF

CPU 0 runs /home/anubhav/spec_2017/605.mcf_s-782B.champsimtrace.xz
CPU 0 Bimodal branch predictor
Initialize SRRIP state
Heartbeat CPU 0 instructions: 10000000 cycles: 8756358 heartbeat IPC: 1.14203 cumulative IPC: 1.14203 (Simulation time: 0 hr 2 min 1 sec) 
 Total Blocks : 32768 Invalid Blocks : 0
Heartbeat CPU 0 instructions: 20000003 cycles: 17094918 heartbeat IPC: 1.19925 cumulative IPC: 1.16994 (Simulation time: 0 hr 5 min 23 sec) 
 Total Blocks : 32768 Invalid Blocks : 0
Heartbeat CPU 0 instructions: 30000000 cycles: 25837783 heartbeat IPC: 1.14379 cumulative IPC: 1.16109 (Simulation time: 0 hr 15 min 56 sec) 
 Total Blocks : 32768 Invalid Blocks : 0
Heartbeat CPU 0 instructions: 40000001 cycles: 34418366 heartbeat IPC: 1.16542 cumulative IPC: 1.16217 (Simulation time: 0 hr 30 min 26 sec) 
 Total Blocks : 32768 Invalid Blocks : 0
Heartbeat CPU 0 instructions: 50000000 cycles: 43106782 heartbeat IPC: 1.15096 cumulative IPC: 1.15991 (Simulation time: 0 hr 47 min 44 sec) 
 Total Blocks : 32768 Invalid Blocks : 0
Heartbeat CPU 0 instructions: 60000002 cycles: 51472771 heartbeat IPC: 1.19532 cumulative IPC: 1.16566 (Simulation time: 1 hr 7 min 22 sec) 
 Total Blocks : 32768 Invalid Blocks : 0
Heartbeat CPU 0 instructions: 70000001 cycles: 59860785 heartbeat IPC: 1.19218 cumulative IPC: 1.16938 (Simulation time: 1 hr 29 min 28 sec) 
 Total Blocks : 32768 Invalid Blocks : 0
Heartbeat CPU 0 instructions: 80000001 cycles: 68338107 heartbeat IPC: 1.17962 cumulative IPC: 1.17065 (Simulation time: 1 hr 54 min 11 sec) 
 Total Blocks : 32768 Invalid Blocks : 0
Heartbeat CPU 0 instructions: 90000002 cycles: 77143801 heartbeat IPC: 1.13563 cumulative IPC: 1.16665 (Simulation time: 2 hr 21 min 58 sec) 
 Total Blocks : 32768 Invalid Blocks : 0
Heartbeat CPU 0 instructions: 100000000 cycles: 86127717 heartbeat IPC: 1.1131 cumulative IPC: 1.16107 (Simulation time: 2 hr 50 min 47 sec) 
 Total Blocks : 32768 Invalid Blocks : 0
Heartbeat CPU 0 instructions: 110000000 cycles: 95302106 heartbeat IPC: 1.08999 cumulative IPC: 1.15422 (Simulation time: 3 hr 20 min 34 sec) 
 Total Blocks : 32768 Invalid Blocks : 0
Heartbeat CPU 0 instructions: 120000003 cycles: 104284591 heartbeat IPC: 1.11328 cumulative IPC: 1.1507 (Simulation time: 3 hr 49 min 59 sec) 
 Total Blocks : 32768 Invalid Blocks : 0
Heartbeat CPU 0 instructions: 130000002 cycles: 112686405 heartbeat IPC: 1.19022 cumulative IPC: 1.15364 (Simulation time: 4 hr 20 min 36 sec) 
 Total Blocks : 32768 Invalid Blocks : 0
Heartbeat CPU 0 instructions: 140000000 cycles: 121065149 heartbeat IPC: 1.1935 cumulative IPC: 1.1564 (Simulation time: 4 hr 46 min 26 sec) 
 Total Blocks : 32768 Invalid Blocks : 0
Heartbeat CPU 0 instructions: 150000003 cycles: 129543003 heartbeat IPC: 1.17954 cumulative IPC: 1.15792 (Simulation time: 5 hr 10 min 14 sec) 
 Total Blocks : 32768 Invalid Blocks : 0
Heartbeat CPU 0 instructions: 160000001 cycles: 138008088 heartbeat IPC: 1.18132 cumulative IPC: 1.15935 (Simulation time: 5 hr 30 min 43 sec) 
 Total Blocks : 32768 Invalid Blocks : 0
Heartbeat CPU 0 instructions: 170000000 cycles: 146454202 heartbeat IPC: 1.18398 cumulative IPC: 1.16077 (Simulation time: 5 hr 50 min 12 sec) 
 Total Blocks : 32768 Invalid Blocks : 0
Heartbeat CPU 0 instructions: 180000001 cycles: 154846943 heartbeat IPC: 1.19151 cumulative IPC: 1.16244 (Simulation time: 6 hr 8 min 39 sec) 
 Total Blocks : 32768 Invalid Blocks : 0
Heartbeat CPU 0 instructions: 190000000 cycles: 163734987 heartbeat IPC: 1.12511 cumulative IPC: 1.16041 (Simulation time: 6 hr 30 min 7 sec) 
 Total Blocks : 32768 Invalid Blocks : 0
Heartbeat CPU 0 instructions: 200000001 cycles: 172664448 heartbeat IPC: 1.11989 cumulative IPC: 1.15832 (Simulation time: 6 hr 47 min 44 sec) 
 Total Blocks : 32768 Invalid Blocks : 0

Warmup complete CPU 0 instructions: 200000001 cycles: 172664448 (Simulation time: 6 hr 47 min 44 sec) 

Heartbeat CPU 0 instructions: 210000002 cycles: 244646653 heartbeat IPC: 0.138923 cumulative IPC: 0.138923 (Simulation time: 7 hr 8 min 1 sec) 
 Total Blocks : 32768 Invalid Blocks : 0
Heartbeat CPU 0 instructions: 220000000 cycles: 315708060 heartbeat IPC: 0.140723 cumulative IPC: 0.139817 (Simulation time: 7 hr 28 min 49 sec) 
 Total Blocks : 32768 Invalid Blocks : 0
Heartbeat CPU 0 instructions: 230000000 cycles: 386229470 heartbeat IPC: 0.141801 cumulative IPC: 0.140472 (Simulation time: 7 hr 51 min 1 sec) 
 Total Blocks : 32768 Invalid Blocks : 0
Heartbeat CPU 0 instructions: 240000000 cycles: 456022479 heartbeat IPC: 0.143281 cumulative IPC: 0.141164 (Simulation time: 8 hr 13 min 28 sec) 
 Total Blocks : 32768 Invalid Blocks : 0
Heartbeat CPU 0 instructions: 250000002 cycles: 524200374 heartbeat IPC: 0.146675 cumulative IPC: 0.142233 (Simulation time: 8 hr 36 min 14 sec) 
 Total Blocks : 32768 Invalid Blocks : 0
Heartbeat CPU 0 instructions: 260000001 cycles: 591451213 heartbeat IPC: 0.148697 cumulative IPC: 0.143271 (Simulation time: 8 hr 59 min 23 sec) 
 Total Blocks : 32768 Invalid Blocks : 0
Heartbeat CPU 0 instructions: 270000001 cycles: 656880759 heartbeat IPC: 0.152836 cumulative IPC: 0.144563 (Simulation time: 9 hr 23 min 33 sec) 
 Total Blocks : 32768 Invalid Blocks : 0
Heartbeat CPU 0 instructions: 280000000 cycles: 725406565 heartbeat IPC: 0.14593 cumulative IPC: 0.144733 (Simulation time: 9 hr 47 min 28 sec) 
 Total Blocks : 32768 Invalid Blocks : 0
Heartbeat CPU 0 instructions: 290000001 cycles: 790873257 heartbeat IPC: 0.152749 cumulative IPC: 0.145582 (Simulation time: 10 hr 13 min 11 sec) 
 Total Blocks : 32768 Invalid Blocks : 0
Heartbeat CPU 0 instructions: 300000000 cycles: 857250975 heartbeat IPC: 0.150653 cumulative IPC: 0.146074 (Simulation time: 10 hr 38 min 20 sec) 
 Total Blocks : 32768 Invalid Blocks : 0
Heartbeat CPU 0 instructions: 310000001 cycles: 923041052 heartbeat IPC: 0.151999 cumulative IPC: 0.146593 (Simulation time: 11 hr 3 min 51 sec) 
 Total Blocks : 32768 Invalid Blocks : 0
Heartbeat CPU 0 instructions: 320000001 cycles: 986581673 heartbeat IPC: 0.15738 cumulative IPC: 0.147435 (Simulation time: 11 hr 31 min 9 sec) 
 Total Blocks : 32768 Invalid Blocks : 0
Heartbeat CPU 0 instructions: 330000000 cycles: 1050483009 heartbeat IPC: 0.156491 cumulative IPC: 0.148094 (Simulation time: 11 hr 59 min 9 sec) 
 Total Blocks : 32768 Invalid Blocks : 0
Heartbeat CPU 0 instructions: 340000000 cycles: 1119034589 heartbeat IPC: 0.145876 cumulative IPC: 0.147934 (Simulation time: 12 hr 27 min 4 sec) 
 Total Blocks : 32768 Invalid Blocks : 0
Heartbeat CPU 0 instructions: 350000000 cycles: 1184081374 heartbeat IPC: 0.153736 cumulative IPC: 0.148307 (Simulation time: 12 hr 56 min 41 sec) 
 Total Blocks : 32768 Invalid Blocks : 0
Heartbeat CPU 0 instructions: 360000000 cycles: 1248871403 heartbeat IPC: 0.154345 cumulative IPC: 0.14867 (Simulation time: 13 hr 27 min 13 sec) 
 Total Blocks : 32768 Invalid Blocks : 0
Heartbeat CPU 0 instructions: 370000001 cycles: 1312970367 heartbeat IPC: 0.156009 cumulative IPC: 0.149083 (Simulation time: 13 hr 57 min 41 sec) 
 Total Blocks : 32768 Invalid Blocks : 0
Heartbeat CPU 0 instructions: 380000000 cycles: 1383300662 heartbeat IPC: 0.142186 cumulative IPC: 0.148682 (Simulation time: 14 hr 27 min 58 sec) 
 Total Blocks : 32768 Invalid Blocks : 0
Heartbeat CPU 0 instructions: 390000001 cycles: 1452026836 heartbeat IPC: 0.145505 cumulative IPC: 0.148511 (Simulation time: 14 hr 57 min 1 sec) 
 Total Blocks : 32768 Invalid Blocks : 0
Heartbeat CPU 0 instructions: 400000000 cycles: 1514120536 heartbeat IPC: 0.161047 cumulative IPC: 0.149092 (Simulation time: 15 hr 25 min 55 sec) 
 Total Blocks : 32768 Invalid Blocks : 0
Finished CPU 0 instructions: 200000002 cycles: 1341456090 cumulative IPC: 0.149092 (Simulation time: 15 hr 25 min 55 sec) 

CPU 0 Branch Prediction Accuracy: 96.2028% MPKI: 11.179 Average ROB Occupancy at Mispredict: 70.9233

ChampSim completed all CPUs

Region of Interest Statistics

CPU 0 cumulative IPC: 0.149092 instructions: 200000002 cycles: 1341456090
ITLB TOTAL     ACCESS: 30390482  HIT: 30390482  MISS:     0  HIT %:   100  MISS %:     0  AVERAGE MISS PENALTY: 0
ITLB LOAD      ACCESS: 30390482  HIT: 30390482  MISS:     0  HIT %:   100  MISS %:     0  AVERAGE MISS PENALTY: 0
ITLB RFO       ACCESS:     0  HIT:     0  MISS:     0  HIT %:     0  MISS %:     0  AVERAGE MISS PENALTY: 0
ITLB PREFETCH  ACCESS:     0  HIT:     0  MISS:     0  HIT %:     0  MISS %:     0  AVERAGE MISS PENALTY: 0
ITLB WRITEBACK ACCESS:     0  HIT:     0  MISS:     0  HIT %:     0  MISS %:     0  AVERAGE MISS PENALTY: 0
ITLB PREFETCH  REQUESTED:     0  ISSUED:     0  USEFUL:     0  USELESS:     0
 USEFUL LOAD PREFETCHES:          0 PREFETCH ISSUED TO LOWER LEVEL:          0  ACCURACY: -nan
 TIMELY PREFETCHES:          0 LATE PREFETCHES: 0 DROPPED PREFETCHES: 0
ITLB AVERAGE MISS LATENCY: -nan cycles
DTLB TOTAL     ACCESS: 41693760  HIT: 24512173  MISS: 17181587  HIT %: 58.791  MISS %: 41.209  AVERAGE MISS PENALTY: 10.6145
DTLB LOAD      ACCESS: 39088822  HIT: 22019898  MISS: 17068924  HIT %: 56.333  MISS %: 43.667  AVERAGE MISS PENALTY: 10.6019
DTLB RFO       ACCESS: 2604938  HIT: 2492275  MISS: 112663  HIT %: 95.675  MISS %: 4.32498  AVERAGE MISS PENALTY: 12.5273
DTLB PREFETCH  ACCESS:     0  HIT:     0  MISS:     0  HIT %:     0  MISS %:     0  AVERAGE MISS PENALTY: 0
DTLB WRITEBACK ACCESS:     0  HIT:     0  MISS:     0  HIT %:     0  MISS %:     0  AVERAGE MISS PENALTY: 0
DTLB PREFETCH  REQUESTED:     0  ISSUED:     0  USEFUL:     0  USELESS:     0
 USEFUL LOAD PREFETCHES:          0 PREFETCH ISSUED TO LOWER LEVEL:          0  ACCURACY: -nan
 TIMELY PREFETCHES:          0 LATE PREFETCHES: 0 DROPPED PREFETCHES: 0
DTLB AVERAGE MISS LATENCY: 10.6145 cycles
STLB TOTAL     ACCESS: 17181587  HIT: 16941719  MISS: 239868  HIT %: 98.6039  MISS %: 1.39608  AVERAGE MISS PENALTY: 100
STLB LOAD      ACCESS: 17068924  HIT: 16832807  MISS: 236117  HIT %: 98.6167  MISS %: 1.38332  AVERAGE MISS PENALTY: 100
STLB RFO       ACCESS: 112663  HIT: 108912  MISS:  3751  HIT %: 96.6706  MISS %: 3.3294  AVERAGE MISS PENALTY: 100
STLB PREFETCH  ACCESS:     0  HIT:     0  MISS:     0  HIT %:     0  MISS %:     0  AVERAGE MISS PENALTY: 0
STLB WRITEBACK ACCESS:     0  HIT:     0  MISS:     0  HIT %:     0  MISS %:     0  AVERAGE MISS PENALTY: 0
STLB PREFETCH  REQUESTED:     0  ISSUED:     0  USEFUL:     0  USELESS:     0
 USEFUL LOAD PREFETCHES:          0 PREFETCH ISSUED TO LOWER LEVEL:          0  ACCURACY: -nan
 TIMELY PREFETCHES:          0 LATE PREFETCHES: 0 DROPPED PREFETCHES: 0
STLB AVERAGE MISS LATENCY: 100 cycles
L1D TOTAL     ACCESS: 46298507  HIT: 16221991  MISS: 30076516  HIT %: 35.0378  MISS %: 64.9622  AVERAGE MISS PENALTY: 111.165
L1D LOAD      ACCESS: 42463485  HIT: 12474017  MISS: 29989468  HIT %: 29.3759  MISS %: 70.6241  AVERAGE MISS PENALTY: 111.333
L1D RFO       ACCESS: 3835022  HIT: 3747974  MISS: 87048  HIT %: 97.7302  MISS %: 2.26982  AVERAGE MISS PENALTY: 53.2612
L1D PREFETCH  ACCESS:     0  HIT:     0  MISS:     0  HIT %:     0  MISS %:     0  AVERAGE MISS PENALTY: 0
L1D WRITEBACK ACCESS:     0  HIT:     0  MISS:     0  HIT %:     0  MISS %:     0  AVERAGE MISS PENALTY: 0
L1D PREFETCH  REQUESTED:     0  ISSUED:     0  USEFUL:     0  USELESS:     0
 USEFUL LOAD PREFETCHES:          0 PREFETCH ISSUED TO LOWER LEVEL:          0  ACCURACY: -nan
 TIMELY PREFETCHES:          0 LATE PREFETCHES: 0 DROPPED PREFETCHES: 0
L1D AVERAGE MISS LATENCY: 105.424 cycles
L1I TOTAL     ACCESS: 32613651  HIT: 32613651  MISS:     0  HIT %:   100  MISS %:     0  AVERAGE MISS PENALTY: 0
L1I LOAD      ACCESS: 32613651  HIT: 32613651  MISS:     0  HIT %:   100  MISS %:     0  AVERAGE MISS PENALTY: 0
L1I RFO       ACCESS:     0  HIT:     0  MISS:     0  HIT %:     0  MISS %:     0  AVERAGE MISS PENALTY: 0
L1I PREFETCH  ACCESS:     0  HIT:     0  MISS:     0  HIT %:     0  MISS %:     0  AVERAGE MISS PENALTY: 0
L1I WRITEBACK ACCESS:     0  HIT:     0  MISS:     0  HIT %:     0  MISS %:     0  AVERAGE MISS PENALTY: 0
L1I PREFETCH  REQUESTED:     0  ISSUED:     0  USEFUL:     0  USELESS:     0
 USEFUL LOAD PREFETCHES:          0 PREFETCH ISSUED TO LOWER LEVEL:          0  ACCURACY: -nan
 TIMELY PREFETCHES:          0 LATE PREFETCHES: 0 DROPPED PREFETCHES: 0
L1I AVERAGE MISS LATENCY: -nan cycles
L2C TOTAL     ACCESS: 30644478  HIT: 3810471  MISS: 26834007  HIT %: 12.4344  MISS %: 87.5656  AVERAGE MISS PENALTY: 100.55
L2C LOAD      ACCESS: 29989448  HIT: 3225347  MISS: 26764101  HIT %: 10.7549  MISS %: 89.2451  AVERAGE MISS PENALTY: 100.688
L2C RFO       ACCESS: 87048  HIT: 17159  MISS: 69889  HIT %: 19.7121  MISS %: 80.2879  AVERAGE MISS PENALTY: 47.5067
L2C PREFETCH  ACCESS:     0  HIT:     0  MISS:     0  HIT %:     0  MISS %:     0  AVERAGE MISS PENALTY: 0
L2C WRITEBACK ACCESS: 567982  HIT: 567965  MISS:    17  HIT %: 99.997  MISS %: 0.00299305  AVERAGE MISS PENALTY: 0
L2C PREFETCH  REQUESTED:     0  ISSUED:     0  USEFUL:     0  USELESS:     0
 USEFUL LOAD PREFETCHES:          0 PREFETCH ISSUED TO LOWER LEVEL:          0  ACCURACY: -nan
 TIMELY PREFETCHES:          0 LATE PREFETCHES: 0 DROPPED PREFETCHES: 0
L2C AVERAGE MISS LATENCY: 100.55 cycles
LLC0 TOTAL     ACCESS: 27358046  HIT: 13292005  MISS: 14066041  HIT %: 48.5854  MISS %: 51.4146  AVERAGE MISS PENALTY: 126.128
LLC0 LOAD      ACCESS: 26764092  HIT: 12705961  MISS: 14058131  HIT %: 47.4739  MISS %: 52.5261  AVERAGE MISS PENALTY: 126.134
LLC0 RFO       ACCESS: 69889  HIT: 64522  MISS:  5367  HIT %: 92.3207  MISS %: 7.67932  AVERAGE MISS PENALTY: 170.751
LLC0 PREFETCH  ACCESS:     0  HIT:     0  MISS:     0  HIT %:     0  MISS %:     0  AVERAGE MISS PENALTY: 0
LLC0 WRITEBACK ACCESS: 524065  HIT: 521522  MISS:  2543  HIT %: 99.5148  MISS %: 0.485245  AVERAGE MISS PENALTY: 0
LLC0 PREFETCH  REQUESTED:     0  ISSUED:     0  USEFUL:     0  USELESS:     0
 USEFUL LOAD PREFETCHES:          0 PREFETCH ISSUED TO LOWER LEVEL:          0  ACCURACY: -nan
 TIMELY PREFETCHES:          0 LATE PREFETCHES: 0 DROPPED PREFETCHES: 0
LLC0 AVERAGE MISS LATENCY: 126.128 cycles
Deadblocks : 12998471 Deadblock percentage : 92.4623

ROI Average ROB Stall Cycles:	16.7237
ROI Total ROB Stalls Cycles:	1282423915
ROI TOTAL ROB counter      :	76682818
ROI Average Load ROB Stall Cycles:	78.4687
ROI Total Load ROB Stalls Cycle  :	800097639
ROI Total Load ROB stalls Counter:	10196396
Major fault: 0 Minor fault: 341292
Interconnect Stats 
LINK 0 BW : 0
DRAM Statistics
 CHANNEL 0
 RQ ROW_BUFFER_HIT: 8028309  ROW_BUFFER_MISS: 6035157
 DBUS_CONGESTED: 4575688
 WQ ROW_BUFFER_HIT: 27116  ROW_BUFFER_MISS: 131376  FULL:     0

 AVG_CONGESTED_CYCLE: 5
DRAM PAGES: 1048576
Allocated PAGES: 341292
L2C destructor called
L1D destructor called
L1I destructor called
STLB destructor called
DTLB destructor called
ITLB destructor called
