
*** ChampSim Multicore Out-of-Order Simulator ***

Warmup Instructions: 200000000
Simulation Instructions: 200000000
Number of CPUs: 1
threads:1

L1I Configuration:
L1I_SET:64
L1I_WAY:8
L1I_RQ_SIZE:64
L1I_WQ_SIZE:64
L1I_PQ_SIZE:8
L1I_MSHR_SIZE:8

L1D Configuration:
L1D_SET:64
L1D_WAY:12
L1D_RQ_SIZE:64
L1D_WQ_SIZE:64
L1D_PQ_SIZE:8
L1D_MSHR_SIZE:16

L2C Configuration:
L2C_SET:1024
L2C_WAY:8
L2C_RQ_SIZE:32
L2C_WQ_SIZE:32
L2C_PQ_SIZE:16
L2C_MSHR_SIZE:32

LLC Configuration:
LLC_SET:2048
LLC_WAY:16
LLC SLICES:1
LLC_RQ_SIZE:64
LLC_WQ_SIZE:64
LLC_PQ_SIZE:32
LLC_MSHR_SIZE:64

Interconnect OFF
Attacker deprioritize is: OFF
Off-chip DRAM Size: 4096 MB Channels: 1 Width: 64-bit Data Rate: 3200 MT/s
PAGE SIZE in KB: 4.000000 
PAGE SIZE in MB: 0.003906 
PAGE offset in bits: 12 
CEASER-S_LLC:0
MIRAGE : 0
CEASER_LATENCY:3
REMAP : OFF
Partitions : 1
Multi-Step : OFF
BFS : OFF

CPU 0 runs /home/anubhav/spec_2017/649.fotonik3d_s-1176B.champsimtrace.xz
CPU 0 Bimodal branch predictor
Initialize SRRIP state
Heartbeat CPU 0 instructions: 10000003 cycles: 4221052 heartbeat IPC: 2.36908 cumulative IPC: 2.36908 (Simulation time: 0 hr 1 min 57 sec) 
 Total Blocks : 32768 Invalid Blocks : 0
Heartbeat CPU 0 instructions: 20000003 cycles: 8443444 heartbeat IPC: 2.36833 cumulative IPC: 2.3687 (Simulation time: 0 hr 3 min 59 sec) 
 Total Blocks : 32768 Invalid Blocks : 0
Heartbeat CPU 0 instructions: 30000000 cycles: 12665786 heartbeat IPC: 2.36835 cumulative IPC: 2.36859 (Simulation time: 0 hr 6 min 49 sec) 
 Total Blocks : 32768 Invalid Blocks : 0
Heartbeat CPU 0 instructions: 40000003 cycles: 16888408 heartbeat IPC: 2.3682 cumulative IPC: 2.36849 (Simulation time: 0 hr 12 min 27 sec) 
 Total Blocks : 32768 Invalid Blocks : 0
Heartbeat CPU 0 instructions: 50000001 cycles: 21110801 heartbeat IPC: 2.36832 cumulative IPC: 2.36846 (Simulation time: 0 hr 17 min 54 sec) 
 Total Blocks : 32768 Invalid Blocks : 0
Heartbeat CPU 0 instructions: 60000001 cycles: 25333302 heartbeat IPC: 2.36826 cumulative IPC: 2.36842 (Simulation time: 0 hr 23 min 38 sec) 
 Total Blocks : 32768 Invalid Blocks : 0
Heartbeat CPU 0 instructions: 70000003 cycles: 29555966 heartbeat IPC: 2.36817 cumulative IPC: 2.36839 (Simulation time: 0 hr 29 min 38 sec) 
 Total Blocks : 32768 Invalid Blocks : 0
Heartbeat CPU 0 instructions: 80000001 cycles: 33778541 heartbeat IPC: 2.36822 cumulative IPC: 2.36837 (Simulation time: 0 hr 35 min 36 sec) 
 Total Blocks : 32768 Invalid Blocks : 0
Heartbeat CPU 0 instructions: 90000002 cycles: 38000918 heartbeat IPC: 2.36833 cumulative IPC: 2.36836 (Simulation time: 0 hr 41 min 32 sec) 
 Total Blocks : 32768 Invalid Blocks : 0
Heartbeat CPU 0 instructions: 100000000 cycles: 42223470 heartbeat IPC: 2.36824 cumulative IPC: 2.36835 (Simulation time: 0 hr 47 min 52 sec) 
 Total Blocks : 32768 Invalid Blocks : 0
Heartbeat CPU 0 instructions: 110000000 cycles: 46446041 heartbeat IPC: 2.36823 cumulative IPC: 2.36834 (Simulation time: 0 hr 54 min 8 sec) 
 Total Blocks : 32768 Invalid Blocks : 0
Heartbeat CPU 0 instructions: 120000001 cycles: 50668537 heartbeat IPC: 2.36827 cumulative IPC: 2.36833 (Simulation time: 1 hr 0 min 32 sec) 
 Total Blocks : 32768 Invalid Blocks : 0
Heartbeat CPU 0 instructions: 130000002 cycles: 54891024 heartbeat IPC: 2.36827 cumulative IPC: 2.36833 (Simulation time: 1 hr 6 min 52 sec) 
 Total Blocks : 32768 Invalid Blocks : 0
Heartbeat CPU 0 instructions: 140000003 cycles: 59113591 heartbeat IPC: 2.36823 cumulative IPC: 2.36832 (Simulation time: 1 hr 13 min 5 sec) 
 Total Blocks : 32768 Invalid Blocks : 0
Heartbeat CPU 0 instructions: 150000001 cycles: 63336049 heartbeat IPC: 2.36829 cumulative IPC: 2.36832 (Simulation time: 1 hr 19 min 36 sec) 
 Total Blocks : 32768 Invalid Blocks : 0
Heartbeat CPU 0 instructions: 160000000 cycles: 67558523 heartbeat IPC: 2.36828 cumulative IPC: 2.36832 (Simulation time: 1 hr 25 min 54 sec) 
 Total Blocks : 32768 Invalid Blocks : 0
Heartbeat CPU 0 instructions: 170000001 cycles: 71780941 heartbeat IPC: 2.36831 cumulative IPC: 2.36832 (Simulation time: 1 hr 31 min 56 sec) 
 Total Blocks : 32768 Invalid Blocks : 0
Heartbeat CPU 0 instructions: 180000000 cycles: 76003259 heartbeat IPC: 2.36837 cumulative IPC: 2.36832 (Simulation time: 1 hr 38 min 20 sec) 
 Total Blocks : 32768 Invalid Blocks : 0
Heartbeat CPU 0 instructions: 190000000 cycles: 80225714 heartbeat IPC: 2.36829 cumulative IPC: 2.36832 (Simulation time: 1 hr 44 min 52 sec) 
 Total Blocks : 32768 Invalid Blocks : 0
Heartbeat CPU 0 instructions: 200000003 cycles: 84448277 heartbeat IPC: 2.36823 cumulative IPC: 2.36831 (Simulation time: 1 hr 51 min 22 sec) 
 Total Blocks : 32768 Invalid Blocks : 0

Warmup complete CPU 0 instructions: 200000003 cycles: 84448277 (Simulation time: 1 hr 51 min 22 sec) 

Heartbeat CPU 0 instructions: 210000002 cycles: 102634738 heartbeat IPC: 0.54986 cumulative IPC: 0.54986 (Simulation time: 2 hr 0 min 40 sec) 
 Total Blocks : 32768 Invalid Blocks : 0
Heartbeat CPU 0 instructions: 220000000 cycles: 120846195 heartbeat IPC: 0.549105 cumulative IPC: 0.549482 (Simulation time: 2 hr 10 min 3 sec) 
 Total Blocks : 32768 Invalid Blocks : 0
Heartbeat CPU 0 instructions: 230000001 cycles: 139022082 heartbeat IPC: 0.55018 cumulative IPC: 0.549714 (Simulation time: 2 hr 19 min 33 sec) 
 Total Blocks : 32768 Invalid Blocks : 0
Heartbeat CPU 0 instructions: 240000001 cycles: 157215235 heartbeat IPC: 0.549657 cumulative IPC: 0.5497 (Simulation time: 2 hr 29 min 11 sec) 
 Total Blocks : 32768 Invalid Blocks : 0
Heartbeat CPU 0 instructions: 250000003 cycles: 175429265 heartbeat IPC: 0.549027 cumulative IPC: 0.549565 (Simulation time: 2 hr 38 min 41 sec) 
 Total Blocks : 32768 Invalid Blocks : 0
Heartbeat CPU 0 instructions: 260000003 cycles: 193616503 heartbeat IPC: 0.549836 cumulative IPC: 0.54961 (Simulation time: 2 hr 48 min 16 sec) 
 Total Blocks : 32768 Invalid Blocks : 0
Heartbeat CPU 0 instructions: 270000000 cycles: 212030785 heartbeat IPC: 0.543057 cumulative IPC: 0.548665 (Simulation time: 2 hr 56 min 57 sec) 
 Total Blocks : 32768 Invalid Blocks : 0
Heartbeat CPU 0 instructions: 280000000 cycles: 230290686 heartbeat IPC: 0.547648 cumulative IPC: 0.548537 (Simulation time: 3 hr 5 min 32 sec) 
 Total Blocks : 32768 Invalid Blocks : 0
Heartbeat CPU 0 instructions: 290000001 cycles: 248452636 heartbeat IPC: 0.550602 cumulative IPC: 0.548766 (Simulation time: 3 hr 14 min 37 sec) 
 Total Blocks : 32768 Invalid Blocks : 0
Heartbeat CPU 0 instructions: 300000002 cycles: 266638687 heartbeat IPC: 0.549872 cumulative IPC: 0.548876 (Simulation time: 3 hr 23 min 37 sec) 
 Total Blocks : 32768 Invalid Blocks : 0
Heartbeat CPU 0 instructions: 310000003 cycles: 284816960 heartbeat IPC: 0.550107 cumulative IPC: 0.548988 (Simulation time: 3 hr 32 min 17 sec) 
 Total Blocks : 32768 Invalid Blocks : 0
Heartbeat CPU 0 instructions: 320000003 cycles: 302987776 heartbeat IPC: 0.550333 cumulative IPC: 0.5491 (Simulation time: 3 hr 40 min 38 sec) 
 Total Blocks : 32768 Invalid Blocks : 0
Heartbeat CPU 0 instructions: 330000000 cycles: 321162156 heartbeat IPC: 0.550225 cumulative IPC: 0.549186 (Simulation time: 3 hr 48 min 45 sec) 
 Total Blocks : 32768 Invalid Blocks : 0
Heartbeat CPU 0 instructions: 340000001 cycles: 339344161 heartbeat IPC: 0.549994 cumulative IPC: 0.549244 (Simulation time: 3 hr 56 min 52 sec) 
 Total Blocks : 32768 Invalid Blocks : 0
Heartbeat CPU 0 instructions: 350000002 cycles: 357538222 heartbeat IPC: 0.54963 cumulative IPC: 0.54927 (Simulation time: 4 hr 4 min 54 sec) 
 Total Blocks : 32768 Invalid Blocks : 0
Heartbeat CPU 0 instructions: 360000000 cycles: 375701176 heartbeat IPC: 0.550571 cumulative IPC: 0.549351 (Simulation time: 4 hr 12 min 38 sec) 
 Total Blocks : 32768 Invalid Blocks : 0
Heartbeat CPU 0 instructions: 370000000 cycles: 393908388 heartbeat IPC: 0.549233 cumulative IPC: 0.549344 (Simulation time: 4 hr 20 min 15 sec) 
 Total Blocks : 32768 Invalid Blocks : 0
Heartbeat CPU 0 instructions: 380000002 cycles: 412047601 heartbeat IPC: 0.551292 cumulative IPC: 0.549452 (Simulation time: 4 hr 27 min 32 sec) 
 Total Blocks : 32768 Invalid Blocks : 0
Heartbeat CPU 0 instructions: 390000002 cycles: 430257020 heartbeat IPC: 0.549166 cumulative IPC: 0.549437 (Simulation time: 4 hr 34 min 52 sec) 
 Total Blocks : 32768 Invalid Blocks : 0
Heartbeat CPU 0 instructions: 400000003 cycles: 448405126 heartbeat IPC: 0.551022 cumulative IPC: 0.549516 (Simulation time: 4 hr 41 min 58 sec) 
 Total Blocks : 32768 Invalid Blocks : 0
Finished CPU 0 instructions: 200000000 cycles: 363956849 cumulative IPC: 0.549516 (Simulation time: 4 hr 41 min 58 sec) 

CPU 0 Branch Prediction Accuracy: 99.5695% MPKI: 0.083275 Average ROB Occupancy at Mispredict: 209.003

ChampSim completed all CPUs

Region of Interest Statistics

CPU 0 cumulative IPC: 0.549516 instructions: 200000000 cycles: 363956849
ITLB TOTAL     ACCESS: 32812761  HIT: 32812750  MISS:    11  HIT %:   100  MISS %: 3.35235e-05  AVERAGE MISS PENALTY: 127
ITLB LOAD      ACCESS: 32812761  HIT: 32812750  MISS:    11  HIT %:   100  MISS %: 3.35235e-05  AVERAGE MISS PENALTY: 127
ITLB RFO       ACCESS:     0  HIT:     0  MISS:     0  HIT %:     0  MISS %:     0  AVERAGE MISS PENALTY: 0
ITLB PREFETCH  ACCESS:     0  HIT:     0  MISS:     0  HIT %:     0  MISS %:     0  AVERAGE MISS PENALTY: 0
ITLB WRITEBACK ACCESS:     0  HIT:     0  MISS:     0  HIT %:     0  MISS %:     0  AVERAGE MISS PENALTY: 0
ITLB PREFETCH  REQUESTED:     0  ISSUED:     0  USEFUL:     0  USELESS:     0
 USEFUL LOAD PREFETCHES:          0 PREFETCH ISSUED TO LOWER LEVEL:          0  ACCURACY: -nan
 TIMELY PREFETCHES:          0 LATE PREFETCHES: 0 DROPPED PREFETCHES: 0
ITLB AVERAGE MISS LATENCY: 127 cycles
DTLB TOTAL     ACCESS: 33834952  HIT: 33788793  MISS: 46159  HIT %: 99.8636  MISS %: 0.136424  AVERAGE MISS PENALTY: 67.5984
DTLB LOAD      ACCESS: 28707278  HIT: 28661570  MISS: 45708  HIT %: 99.8408  MISS %: 0.159221  AVERAGE MISS PENALTY: 68.1766
DTLB RFO       ACCESS: 5127674  HIT: 5127223  MISS:   451  HIT %: 99.9912  MISS %: 0.00879541  AVERAGE MISS PENALTY: 9
DTLB PREFETCH  ACCESS:     0  HIT:     0  MISS:     0  HIT %:     0  MISS %:     0  AVERAGE MISS PENALTY: 0
DTLB WRITEBACK ACCESS:     0  HIT:     0  MISS:     0  HIT %:     0  MISS %:     0  AVERAGE MISS PENALTY: 0
DTLB PREFETCH  REQUESTED:     0  ISSUED:     0  USEFUL:     0  USELESS:     0
 USEFUL LOAD PREFETCHES:          0 PREFETCH ISSUED TO LOWER LEVEL:          0  ACCURACY: -nan
 TIMELY PREFETCHES:          0 LATE PREFETCHES: 0 DROPPED PREFETCHES: 0
DTLB AVERAGE MISS LATENCY: 67.5985 cycles
STLB TOTAL     ACCESS: 46170  HIT: 19159  MISS: 27011  HIT %: 41.4966  MISS %: 58.5034  AVERAGE MISS PENALTY: 100
STLB LOAD      ACCESS: 45719  HIT: 18708  MISS: 27011  HIT %: 40.9195  MISS %: 59.0805  AVERAGE MISS PENALTY: 100
STLB RFO       ACCESS:   451  HIT:   451  MISS:     0  HIT %:   100  MISS %:     0  AVERAGE MISS PENALTY: 0
STLB PREFETCH  ACCESS:     0  HIT:     0  MISS:     0  HIT %:     0  MISS %:     0  AVERAGE MISS PENALTY: 0
STLB WRITEBACK ACCESS:     0  HIT:     0  MISS:     0  HIT %:     0  MISS %:     0  AVERAGE MISS PENALTY: 0
STLB PREFETCH  REQUESTED:     0  ISSUED:     0  USEFUL:     0  USELESS:     0
 USEFUL LOAD PREFETCHES:          0 PREFETCH ISSUED TO LOWER LEVEL:          0  ACCURACY: -nan
 TIMELY PREFETCHES:          0 LATE PREFETCHES: 0 DROPPED PREFETCHES: 0
STLB AVERAGE MISS LATENCY: 100 cycles
L1D TOTAL     ACCESS: 39938930  HIT: 37334761  MISS: 2604169  HIT %: 93.4796  MISS %: 6.52038  AVERAGE MISS PENALTY: 147.425
L1D LOAD      ACCESS: 25801830  HIT: 23202683  MISS: 2599147  HIT %: 89.9265  MISS %: 10.0735  AVERAGE MISS PENALTY: 147.68
L1D RFO       ACCESS: 14137100  HIT: 14132078  MISS:  5022  HIT %: 99.9645  MISS %: 0.0355236  AVERAGE MISS PENALTY: 15.2935
L1D PREFETCH  ACCESS:     0  HIT:     0  MISS:     0  HIT %:     0  MISS %:     0  AVERAGE MISS PENALTY: 0
L1D WRITEBACK ACCESS:     0  HIT:     0  MISS:     0  HIT %:     0  MISS %:     0  AVERAGE MISS PENALTY: 0
L1D PREFETCH  REQUESTED:     0  ISSUED:     0  USEFUL:     0  USELESS:     0
 USEFUL LOAD PREFETCHES:          0 PREFETCH ISSUED TO LOWER LEVEL:          0  ACCURACY: -nan
 TIMELY PREFETCHES:          0 LATE PREFETCHES: 0 DROPPED PREFETCHES: 0
L1D AVERAGE MISS LATENCY: 147.425 cycles
L1I TOTAL     ACCESS: 43854376  HIT: 43854099  MISS:   277  HIT %: 99.9994  MISS %: 0.000631636  AVERAGE MISS PENALTY: 226.917
L1I LOAD      ACCESS: 43854376  HIT: 43854099  MISS:   277  HIT %: 99.9994  MISS %: 0.000631636  AVERAGE MISS PENALTY: 226.917
L1I RFO       ACCESS:     0  HIT:     0  MISS:     0  HIT %:     0  MISS %:     0  AVERAGE MISS PENALTY: 0
L1I PREFETCH  ACCESS:     0  HIT:     0  MISS:     0  HIT %:     0  MISS %:     0  AVERAGE MISS PENALTY: 0
L1I WRITEBACK ACCESS:     0  HIT:     0  MISS:     0  HIT %:     0  MISS %:     0  AVERAGE MISS PENALTY: 0
L1I PREFETCH  REQUESTED:     0  ISSUED:     0  USEFUL:     0  USELESS:     0
 USEFUL LOAD PREFETCHES:          0 PREFETCH ISSUED TO LOWER LEVEL:          0  ACCURACY: -nan
 TIMELY PREFETCHES:          0 LATE PREFETCHES: 0 DROPPED PREFETCHES: 0
L1I AVERAGE MISS LATENCY: 226.917 cycles
L2C TOTAL     ACCESS: 4333102  HIT: 2605921  MISS: 1727181  HIT %: 60.1398  MISS %: 39.8602  AVERAGE MISS PENALTY: 199.497
L2C LOAD      ACCESS: 2599424  HIT: 872253  MISS: 1727171  HIT %: 33.5556  MISS %: 66.4444  AVERAGE MISS PENALTY: 199.497
L2C RFO       ACCESS:  5022  HIT:  5012  MISS:    10  HIT %: 99.8009  MISS %: 0.199124  AVERAGE MISS PENALTY: 147.4
L2C PREFETCH  ACCESS:     0  HIT:     0  MISS:     0  HIT %:     0  MISS %:     0  AVERAGE MISS PENALTY: 0
L2C WRITEBACK ACCESS: 1728656  HIT: 1728656  MISS:     0  HIT %:   100  MISS %:     0  AVERAGE MISS PENALTY: 0
L2C PREFETCH  REQUESTED:     0  ISSUED:     0  USEFUL:     0  USELESS:     0
 USEFUL LOAD PREFETCHES:          0 PREFETCH ISSUED TO LOWER LEVEL:          0  ACCURACY: -nan
 TIMELY PREFETCHES:          0 LATE PREFETCHES: 0 DROPPED PREFETCHES: 0
L2C AVERAGE MISS LATENCY: 199.497 cycles
LLC0 TOTAL     ACCESS: 3450107  HIT: 1321248  MISS: 2128859  HIT %: 38.2959  MISS %: 61.7041  AVERAGE MISS PENALTY: 134.246
LLC0 LOAD      ACCESS: 1727171  HIT:   987  MISS: 1726184  HIT %: 0.0571455  MISS %: 99.9429  AVERAGE MISS PENALTY: 165.561
LLC0 RFO       ACCESS:    10  HIT:     4  MISS:     6  HIT %:    40  MISS %:    60  AVERAGE MISS PENALTY: 174
LLC0 PREFETCH  ACCESS:     0  HIT:     0  MISS:     0  HIT %:     0  MISS %:     0  AVERAGE MISS PENALTY: 0
LLC0 WRITEBACK ACCESS: 1722926  HIT: 1320257  MISS: 402669  HIT %: 76.6288  MISS %: 23.3712  AVERAGE MISS PENALTY: 0
LLC0 PREFETCH  REQUESTED:     0  ISSUED:     0  USEFUL:     0  USELESS:     0
 USEFUL LOAD PREFETCHES:          0 PREFETCH ISSUED TO LOWER LEVEL:          0  ACCURACY: -nan
 TIMELY PREFETCHES:          0 LATE PREFETCHES: 0 DROPPED PREFETCHES: 0
LLC0 AVERAGE MISS LATENCY: 134.246 cycles
Deadblocks : 1725906 Deadblock percentage : 99.9839

ROI Average ROB Stall Cycles:	25.8949
ROI Total ROB Stalls Cycles:	317747137
ROI TOTAL ROB counter      :	12270656
ROI Average Load ROB Stall Cycles:	74.7626
ROI Total Load ROB Stalls Cycle  :	241826452
ROI Total Load ROB stalls Counter:	3234593
Major fault: 0 Minor fault: 54494
Interconnect Stats 
LINK 0 BW : 0
DRAM Statistics
 CHANNEL 0
 RQ ROW_BUFFER_HIT: 146330  ROW_BUFFER_MISS: 1579860
 DBUS_CONGESTED: 491676
 WQ ROW_BUFFER_HIT: 1129307  ROW_BUFFER_MISS: 593243  FULL:     0

 AVG_CONGESTED_CYCLE: 6
DRAM PAGES: 1048576
Allocated PAGES: 54494
L2C destructor called
L1D destructor called
L1I destructor called
STLB destructor called
DTLB destructor called
ITLB destructor called
