
*** ChampSim Multicore Out-of-Order Simulator ***

Warmup Instructions: 200000000
Simulation Instructions: 200000000
Number of CPUs: 8
threads:1

L1I Configuration:
L1I_SET:64
L1I_WAY:8
L1I_RQ_SIZE:64
L1I_WQ_SIZE:64
L1I_PQ_SIZE:8
L1I_MSHR_SIZE:8

L1D Configuration:
L1D_SET:64
L1D_WAY:12
L1D_RQ_SIZE:64
L1D_WQ_SIZE:64
L1D_PQ_SIZE:8
L1D_MSHR_SIZE:16

L2C Configuration:
L2C_SET:1024
L2C_WAY:8
L2C_RQ_SIZE:32
L2C_WQ_SIZE:32
L2C_PQ_SIZE:16
L2C_MSHR_SIZE:32

LLC Configuration:
LLC_SET:2048
LLC_WAY:12
LLC SLICES:8
LLC_RQ_SIZE:64
LLC_WQ_SIZE:64
LLC_PQ_SIZE:32
LLC_MSHR_SIZE:64

Interconnect OFF
Attacker deprioritize is: OFF
Off-chip DRAM Size: 8192 MB Channels: 2 Width: 64-bit Data Rate: 3200 MT/s
PAGE SIZE in KB: 4.000000 
PAGE SIZE in MB: 0.003906 
PAGE offset in bits: 12 
CEASER-S_LLC:0
MIRAGE : 1
CEASER_LATENCY:3
REMAP : OFF
Partitions : 1
Multi-Step : OFF
BFS : OFF

CPU 0 runs /home/anubhav/gap/bc-0.trace.gz
CPU 1 runs /home/anubhav/gap/bc-0.trace.gz
CPU 2 runs /home/anubhav/gap/bc-0.trace.gz
CPU 3 runs /home/anubhav/gap/bc-0.trace.gz
CPU 4 runs /home/anubhav/gap/bc-0.trace.gz
CPU 5 runs /home/anubhav/gap/bc-0.trace.gz
CPU 6 runs /home/anubhav/gap/bc-0.trace.gz
CPU 7 runs /home/anubhav/gap/bc-0.trace.gz
CPU 0 Bimodal branch predictor
Initialize Hawkeye state
Initialize Hawkeye state
Initialize Hawkeye state
Initialize Hawkeye state
Initialize Hawkeye state
Initialize Hawkeye state
Initialize Hawkeye state
Initialize Hawkeye state
CPU 1 Bimodal branch predictor
Initialize Hawkeye state
Initialize Hawkeye state
Initialize Hawkeye state
Initialize Hawkeye state
Initialize Hawkeye state
Initialize Hawkeye state
Initialize Hawkeye state
Initialize Hawkeye state
CPU 2 Bimodal branch predictor
Initialize Hawkeye state
Initialize Hawkeye state
Initialize Hawkeye state
Initialize Hawkeye state
Initialize Hawkeye state
Initialize Hawkeye state
Initialize Hawkeye state
Initialize Hawkeye state
CPU 3 Bimodal branch predictor
Initialize Hawkeye state
Initialize Hawkeye state
Initialize Hawkeye state
Initialize Hawkeye state
Initialize Hawkeye state
Initialize Hawkeye state
Initialize Hawkeye state
Initialize Hawkeye state
CPU 4 Bimodal branch predictor
Initialize Hawkeye state
Initialize Hawkeye state
Initialize Hawkeye state
Initialize Hawkeye state
Initialize Hawkeye state
Initialize Hawkeye state
Initialize Hawkeye state
Initialize Hawkeye state
CPU 5 Bimodal branch predictor
Initialize Hawkeye state
Initialize Hawkeye state
Initialize Hawkeye state
Initialize Hawkeye state
Initialize Hawkeye state
Initialize Hawkeye state
Initialize Hawkeye state
Initialize Hawkeye state
CPU 6 Bimodal branch predictor
Initialize Hawkeye state
Initialize Hawkeye state
Initialize Hawkeye state
Initialize Hawkeye state
Initialize Hawkeye state
Initialize Hawkeye state
Initialize Hawkeye state
Initialize Hawkeye state
CPU 7 Bimodal branch predictor
Initialize Hawkeye state
Initialize Hawkeye state
Initialize Hawkeye state
Initialize Hawkeye state
Initialize Hawkeye state
Initialize Hawkeye state
Initialize Hawkeye state
Initialize Hawkeye state
FILL
Heartbeat CPU 0 instructions: 10000002 cycles: 10598995 heartbeat IPC: 0.943486 cumulative IPC: 0.943486 (Simulation time: 1 hr 5 min 6 sec) 
 Total Blocks : 196608 Invalid Blocks : 0 Valid Blocks : 196608
 Total Tags : 491520 Threshold : 12288 Invalid Tags : 196609 Pr0 Tags : 98303 Pr1 Tags : 196608 num_pr0 : 12288
 SAE Count : 0
 Inter-Core Inteference in Data Store : 4061663
Heartbeat CPU 1 instructions: 10000002 cycles: 10599656 heartbeat IPC: 0.943427 cumulative IPC: 0.943427 (Simulation time: 1 hr 5 min 6 sec) 
 Total Blocks : 196608 Invalid Blocks : 0 Valid Blocks : 196608
 Total Tags : 491520 Threshold : 12288 Invalid Tags : 196609 Pr0 Tags : 98303 Pr1 Tags : 196608 num_pr0 : 12288
 SAE Count : 0
 Inter-Core Inteference in Data Store : 4061774
Heartbeat CPU 2 instructions: 10000002 cycles: 10599904 heartbeat IPC: 0.943405 cumulative IPC: 0.943405 (Simulation time: 1 hr 5 min 6 sec) 
 Total Blocks : 196608 Invalid Blocks : 0 Valid Blocks : 196608
 Total Tags : 491520 Threshold : 12288 Invalid Tags : 196608 Pr0 Tags : 98304 Pr1 Tags : 196608 num_pr0 : 12288
 SAE Count : 0
 Inter-Core Inteference in Data Store : 4061826
Heartbeat CPU 3 instructions: 10000002 cycles: 10601546 heartbeat IPC: 0.943259 cumulative IPC: 0.943259 (Simulation time: 1 hr 5 min 7 sec) 
 Total Blocks : 196608 Invalid Blocks : 0 Valid Blocks : 196608
 Total Tags : 491520 Threshold : 12288 Invalid Tags : 196609 Pr0 Tags : 98303 Pr1 Tags : 196608 num_pr0 : 12288
 SAE Count : 0
 Inter-Core Inteference in Data Store : 4062153
Heartbeat CPU 5 instructions: 10000002 cycles: 10603076 heartbeat IPC: 0.943123 cumulative IPC: 0.943123 (Simulation time: 1 hr 5 min 7 sec) 
 Total Blocks : 196608 Invalid Blocks : 0 Valid Blocks : 196608
 Total Tags : 491520 Threshold : 12288 Invalid Tags : 196611 Pr0 Tags : 98301 Pr1 Tags : 196608 num_pr0 : 12288
 SAE Count : 0
 Inter-Core Inteference in Data Store : 4062419
Heartbeat CPU 4 instructions: 10000002 cycles: 10603197 heartbeat IPC: 0.943112 cumulative IPC: 0.943112 (Simulation time: 1 hr 5 min 7 sec) 
 Total Blocks : 196608 Invalid Blocks : 0 Valid Blocks : 196608
 Total Tags : 491520 Threshold : 12288 Invalid Tags : 196609 Pr0 Tags : 98303 Pr1 Tags : 196608 num_pr0 : 12288
 SAE Count : 0
 Inter-Core Inteference in Data Store : 4062432
Heartbeat CPU 6 instructions: 10000002 cycles: 10604435 heartbeat IPC: 0.943002 cumulative IPC: 0.943002 (Simulation time: 1 hr 5 min 7 sec) 
 Total Blocks : 196608 Invalid Blocks : 0 Valid Blocks : 196608
 Total Tags : 491520 Threshold : 12288 Invalid Tags : 196609 Pr0 Tags : 98303 Pr1 Tags : 196608 num_pr0 : 12287
 SAE Count : 0
 Inter-Core Inteference in Data Store : 4062661
Heartbeat CPU 7 instructions: 10000002 cycles: 10604926 heartbeat IPC: 0.942958 cumulative IPC: 0.942958 (Simulation time: 1 hr 5 min 8 sec) 
 Total Blocks : 196608 Invalid Blocks : 0 Valid Blocks : 196608
 Total Tags : 491520 Threshold : 12288 Invalid Tags : 196608 Pr0 Tags : 98304 Pr1 Tags : 196608 num_pr0 : 12288
 SAE Count : 0
 Inter-Core Inteference in Data Store : 4062742
Heartbeat CPU 0 instructions: 20000001 cycles: 23910354 heartbeat IPC: 0.751238 cumulative IPC: 0.836458 (Simulation time: 2 hr 12 min 30 sec) 
 Total Blocks : 196608 Invalid Blocks : 0 Valid Blocks : 196608
 Total Tags : 491520 Threshold : 12288 Invalid Tags : 196608 Pr0 Tags : 98304 Pr1 Tags : 196608 num_pr0 : 12288
 SAE Count : 0
 Inter-Core Inteference in Data Store : 8255769
Heartbeat CPU 1 instructions: 20000001 cycles: 23913637 heartbeat IPC: 0.75109 cumulative IPC: 0.836343 (Simulation time: 2 hr 12 min 31 sec) 
 Total Blocks : 196608 Invalid Blocks : 0 Valid Blocks : 196608
 Total Tags : 491520 Threshold : 12288 Invalid Tags : 196608 Pr0 Tags : 98304 Pr1 Tags : 196608 num_pr0 : 12288
 SAE Count : 0
 Inter-Core Inteference in Data Store : 8256802
Heartbeat CPU 2 instructions: 20000001 cycles: 23917213 heartbeat IPC: 0.750902 cumulative IPC: 0.836218 (Simulation time: 2 hr 12 min 33 sec) 
 Total Blocks : 196608 Invalid Blocks : 0 Valid Blocks : 196608
 Total Tags : 491520 Threshold : 12288 Invalid Tags : 196608 Pr0 Tags : 98304 Pr1 Tags : 196608 num_pr0 : 12288
 SAE Count : 0
 Inter-Core Inteference in Data Store : 8257931
Heartbeat CPU 3 instructions: 20000001 cycles: 23920886 heartbeat IPC: 0.750788 cumulative IPC: 0.836089 (Simulation time: 2 hr 12 min 34 sec) 
 Total Blocks : 196608 Invalid Blocks : 0 Valid Blocks : 196608
 Total Tags : 491520 Threshold : 12288 Invalid Tags : 196608 Pr0 Tags : 98304 Pr1 Tags : 196608 num_pr0 : 12288
 SAE Count : 0
 Inter-Core Inteference in Data Store : 8259090
Heartbeat CPU 4 instructions: 20000001 cycles: 23926149 heartbeat IPC: 0.750584 cumulative IPC: 0.835906 (Simulation time: 2 hr 12 min 36 sec) 
 Total Blocks : 196608 Invalid Blocks : 0 Valid Blocks : 196608
 Total Tags : 491520 Threshold : 12288 Invalid Tags : 196608 Pr0 Tags : 98304 Pr1 Tags : 196608 num_pr0 : 12288
 SAE Count : 0
 Inter-Core Inteference in Data Store : 8260766
Heartbeat CPU 5 instructions: 20000001 cycles: 23927776 heartbeat IPC: 0.750486 cumulative IPC: 0.835849 (Simulation time: 2 hr 12 min 37 sec) 
 Total Blocks : 196608 Invalid Blocks : 0 Valid Blocks : 196608
 Total Tags : 491520 Threshold : 12288 Invalid Tags : 196609 Pr0 Tags : 98303 Pr1 Tags : 196608 num_pr0 : 12287
 SAE Count : 0
 Inter-Core Inteference in Data Store : 8261353
Heartbeat CPU 6 instructions: 20000001 cycles: 23931775 heartbeat IPC: 0.750337 cumulative IPC: 0.835709 (Simulation time: 2 hr 12 min 38 sec) 
 Total Blocks : 196608 Invalid Blocks : 0 Valid Blocks : 196608
 Total Tags : 491520 Threshold : 12288 Invalid Tags : 196608 Pr0 Tags : 98304 Pr1 Tags : 196608 num_pr0 : 12288
 SAE Count : 0
 Inter-Core Inteference in Data Store : 8262681
Heartbeat CPU 7 instructions: 20000001 cycles: 23934057 heartbeat IPC: 0.750236 cumulative IPC: 0.835629 (Simulation time: 2 hr 12 min 39 sec) 
 Total Blocks : 196608 Invalid Blocks : 0 Valid Blocks : 196608
 Total Tags : 491520 Threshold : 12288 Invalid Tags : 196608 Pr0 Tags : 98304 Pr1 Tags : 196608 num_pr0 : 12288
 SAE Count : 0
 Inter-Core Inteference in Data Store : 8263503
Heartbeat CPU 0 instructions: 30000000 cycles: 36651256 heartbeat IPC: 0.784874 cumulative IPC: 0.818526 (Simulation time: 3 hr 23 min 28 sec) 
 Total Blocks : 196608 Invalid Blocks : 0 Valid Blocks : 196608
 Total Tags : 491520 Threshold : 12288 Invalid Tags : 196609 Pr0 Tags : 98303 Pr1 Tags : 196608 num_pr0 : 12288
 SAE Count : 0
 Inter-Core Inteference in Data Store : 12437546
Heartbeat CPU 1 instructions: 30000000 cycles: 36657926 heartbeat IPC: 0.784665 cumulative IPC: 0.818377 (Simulation time: 3 hr 23 min 32 sec) 
 Total Blocks : 196608 Invalid Blocks : 0 Valid Blocks : 196608
 Total Tags : 491520 Threshold : 12288 Invalid Tags : 196609 Pr0 Tags : 98303 Pr1 Tags : 196608 num_pr0 : 12288
 SAE Count : 0
 Inter-Core Inteference in Data Store : 12440809
Heartbeat CPU 2 instructions: 30000000 cycles: 36664797 heartbeat IPC: 0.784462 cumulative IPC: 0.818224 (Simulation time: 3 hr 23 min 35 sec) 
 Total Blocks : 196608 Invalid Blocks : 0 Valid Blocks : 196608
 Total Tags : 491520 Threshold : 12288 Invalid Tags : 196608 Pr0 Tags : 98304 Pr1 Tags : 196608 num_pr0 : 12288
 SAE Count : 0
 Inter-Core Inteference in Data Store : 12444008
Heartbeat CPU 3 instructions: 30000000 cycles: 36671654 heartbeat IPC: 0.784266 cumulative IPC: 0.818071 (Simulation time: 3 hr 23 min 37 sec) 
 Total Blocks : 196608 Invalid Blocks : 0 Valid Blocks : 196608
 Total Tags : 491520 Threshold : 12288 Invalid Tags : 196608 Pr0 Tags : 98304 Pr1 Tags : 196608 num_pr0 : 12288
 SAE Count : 0
 Inter-Core Inteference in Data Store : 12447285
Heartbeat CPU 4 instructions: 30000000 cycles: 36680305 heartbeat IPC: 0.784058 cumulative IPC: 0.817878 (Simulation time: 3 hr 23 min 40 sec) 
 Total Blocks : 196608 Invalid Blocks : 0 Valid Blocks : 196608
 Total Tags : 491520 Threshold : 12288 Invalid Tags : 196608 Pr0 Tags : 98304 Pr1 Tags : 196608 num_pr0 : 12288
 SAE Count : 0
 Inter-Core Inteference in Data Store : 12451111
Heartbeat CPU 5 instructions: 30000000 cycles: 36684884 heartbeat IPC: 0.783877 cumulative IPC: 0.817775 (Simulation time: 3 hr 23 min 42 sec) 
 Total Blocks : 196608 Invalid Blocks : 0 Valid Blocks : 196608
 Total Tags : 491520 Threshold : 12288 Invalid Tags : 196610 Pr0 Tags : 98302 Pr1 Tags : 196608 num_pr0 : 12288
 SAE Count : 0
 Inter-Core Inteference in Data Store : 12453068
Heartbeat CPU 6 instructions: 30000000 cycles: 36690823 heartbeat IPC: 0.783757 cumulative IPC: 0.817643 (Simulation time: 3 hr 23 min 44 sec) 
 Total Blocks : 196608 Invalid Blocks : 0 Valid Blocks : 196608
 Total Tags : 491520 Threshold : 12288 Invalid Tags : 196609 Pr0 Tags : 98303 Pr1 Tags : 196608 num_pr0 : 12288
 SAE Count : 0
 Inter-Core Inteference in Data Store : 12455631
Heartbeat CPU 7 instructions: 30000000 cycles: 36695810 heartbeat IPC: 0.783591 cumulative IPC: 0.817532 (Simulation time: 3 hr 23 min 45 sec) 
 Total Blocks : 196608 Invalid Blocks : 0 Valid Blocks : 196608
 Total Tags : 491520 Threshold : 12288 Invalid Tags : 196609 Pr0 Tags : 98303 Pr1 Tags : 196608 num_pr0 : 12288
 SAE Count : 0
 Inter-Core Inteference in Data Store : 12457639
Heartbeat CPU 0 instructions: 40000001 cycles: 49164829 heartbeat IPC: 0.799132 cumulative IPC: 0.81359 (Simulation time: 4 hr 29 min 21 sec) 
 Total Blocks : 196608 Invalid Blocks : 0 Valid Blocks : 196608
 Total Tags : 491520 Threshold : 12288 Invalid Tags : 196609 Pr0 Tags : 98303 Pr1 Tags : 196608 num_pr0 : 12288
 SAE Count : 0
 Inter-Core Inteference in Data Store : 16385825
Heartbeat CPU 1 instructions: 40000001 cycles: 49175059 heartbeat IPC: 0.798905 cumulative IPC: 0.81342 (Simulation time: 4 hr 29 min 25 sec) 
 Total Blocks : 196608 Invalid Blocks : 0 Valid Blocks : 196608
 Total Tags : 491520 Threshold : 12288 Invalid Tags : 196608 Pr0 Tags : 98304 Pr1 Tags : 196608 num_pr0 : 12288
 SAE Count : 0
 Inter-Core Inteference in Data Store : 16390680
Heartbeat CPU 2 instructions: 40000001 cycles: 49184535 heartbeat IPC: 0.798739 cumulative IPC: 0.813264 (Simulation time: 4 hr 29 min 28 sec) 
 Total Blocks : 196608 Invalid Blocks : 0 Valid Blocks : 196608
 Total Tags : 491520 Threshold : 12288 Invalid Tags : 196608 Pr0 Tags : 98304 Pr1 Tags : 196608 num_pr0 : 12288
 SAE Count : 0
 Inter-Core Inteference in Data Store : 16395216
Heartbeat CPU 3 instructions: 40000001 cycles: 49194179 heartbeat IPC: 0.798561 cumulative IPC: 0.813104 (Simulation time: 4 hr 29 min 31 sec) 
 Total Blocks : 196608 Invalid Blocks : 0 Valid Blocks : 196608
 Total Tags : 491520 Threshold : 12288 Invalid Tags : 196608 Pr0 Tags : 98304 Pr1 Tags : 196608 num_pr0 : 12288
 SAE Count : 0
 Inter-Core Inteference in Data Store : 16400044
Heartbeat CPU 4 instructions: 40000001 cycles: 49206188 heartbeat IPC: 0.798347 cumulative IPC: 0.812906 (Simulation time: 4 hr 29 min 35 sec) 
 Total Blocks : 196608 Invalid Blocks : 0 Valid Blocks : 196608
 Total Tags : 491520 Threshold : 12288 Invalid Tags : 196608 Pr0 Tags : 98304 Pr1 Tags : 196608 num_pr0 : 12288
 SAE Count : 0
 Inter-Core Inteference in Data Store : 16405906
Heartbeat CPU 5 instructions: 40000001 cycles: 49212553 heartbeat IPC: 0.798233 cumulative IPC: 0.812801 (Simulation time: 4 hr 29 min 37 sec) 
 Total Blocks : 196608 Invalid Blocks : 0 Valid Blocks : 196608
 Total Tags : 491520 Threshold : 12288 Invalid Tags : 196608 Pr0 Tags : 98304 Pr1 Tags : 196608 num_pr0 : 12288
 SAE Count : 0
 Inter-Core Inteference in Data Store : 16408843
Heartbeat CPU 6 instructions: 40000001 cycles: 49221228 heartbeat IPC: 0.798059 cumulative IPC: 0.812658 (Simulation time: 4 hr 29 min 40 sec) 
 Total Blocks : 196608 Invalid Blocks : 0 Valid Blocks : 196608
 Total Tags : 491520 Threshold : 12288 Invalid Tags : 196608 Pr0 Tags : 98304 Pr1 Tags : 196608 num_pr0 : 12288
 SAE Count : 0
 Inter-Core Inteference in Data Store : 16413029
Heartbeat CPU 7 instructions: 40000001 cycles: 49229178 heartbeat IPC: 0.79787 cumulative IPC: 0.812526 (Simulation time: 4 hr 29 min 44 sec) 
 Total Blocks : 196608 Invalid Blocks : 0 Valid Blocks : 196608
 Total Tags : 491520 Threshold : 12288 Invalid Tags : 196610 Pr0 Tags : 98302 Pr1 Tags : 196608 num_pr0 : 12287
 SAE Count : 0
 Inter-Core Inteference in Data Store : 16416628
Heartbeat CPU 0 instructions: 50000000 cycles: 61550347 heartbeat IPC: 0.807395 cumulative IPC: 0.812343 (Simulation time: 5 hr 35 min 14 sec) 
 Total Blocks : 196608 Invalid Blocks : 0 Valid Blocks : 196608
 Total Tags : 491520 Threshold : 12288 Invalid Tags : 196610 Pr0 Tags : 98302 Pr1 Tags : 196608 num_pr0 : 12288
 SAE Count : 0
 Inter-Core Inteference in Data Store : 20138597
Heartbeat CPU 1 instructions: 50000000 cycles: 61563646 heartbeat IPC: 0.807194 cumulative IPC: 0.812168 (Simulation time: 5 hr 35 min 19 sec) 
 Total Blocks : 196608 Invalid Blocks : 0 Valid Blocks : 196608
 Total Tags : 491520 Threshold : 12288 Invalid Tags : 196609 Pr0 Tags : 98303 Pr1 Tags : 196608 num_pr0 : 12288
 SAE Count : 0
 Inter-Core Inteference in Data Store : 20145008
Heartbeat CPU 2 instructions: 50000000 cycles: 61576196 heartbeat IPC: 0.806994 cumulative IPC: 0.812002 (Simulation time: 5 hr 35 min 25 sec) 
 Total Blocks : 196608 Invalid Blocks : 0 Valid Blocks : 196608
 Total Tags : 491520 Threshold : 12288 Invalid Tags : 196608 Pr0 Tags : 98304 Pr1 Tags : 196608 num_pr0 : 12288
 SAE Count : 0
 Inter-Core Inteference in Data Store : 20150869
Heartbeat CPU 3 instructions: 50000000 cycles: 61588583 heartbeat IPC: 0.806816 cumulative IPC: 0.811839 (Simulation time: 5 hr 35 min 30 sec) 
 Total Blocks : 196608 Invalid Blocks : 0 Valid Blocks : 196608
 Total Tags : 491520 Threshold : 12288 Invalid Tags : 196609 Pr0 Tags : 98303 Pr1 Tags : 196608 num_pr0 : 12288
 SAE Count : 0
 Inter-Core Inteference in Data Store : 20156926
Heartbeat CPU 4 instructions: 50000000 cycles: 61604180 heartbeat IPC: 0.806582 cumulative IPC: 0.811633 (Simulation time: 5 hr 35 min 36 sec) 
 Total Blocks : 196608 Invalid Blocks : 0 Valid Blocks : 196608
 Total Tags : 491520 Threshold : 12288 Invalid Tags : 196608 Pr0 Tags : 98304 Pr1 Tags : 196608 num_pr0 : 12288
 SAE Count : 0
 Inter-Core Inteference in Data Store : 20164512
Heartbeat CPU 5 instructions: 50000000 cycles: 61612310 heartbeat IPC: 0.806467 cumulative IPC: 0.811526 (Simulation time: 5 hr 35 min 39 sec) 
 Total Blocks : 196608 Invalid Blocks : 0 Valid Blocks : 196608
 Total Tags : 491520 Threshold : 12288 Invalid Tags : 196610 Pr0 Tags : 98302 Pr1 Tags : 196608 num_pr0 : 12288
 SAE Count : 0
 Inter-Core Inteference in Data Store : 20168291
Heartbeat CPU 6 instructions: 50000000 cycles: 61623411 heartbeat IPC: 0.80631 cumulative IPC: 0.81138 (Simulation time: 5 hr 35 min 44 sec) 
 Total Blocks : 196608 Invalid Blocks : 0 Valid Blocks : 196608
 Total Tags : 491520 Threshold : 12288 Invalid Tags : 196608 Pr0 Tags : 98304 Pr1 Tags : 196608 num_pr0 : 12288
 SAE Count : 0
 Inter-Core Inteference in Data Store : 20173285
Heartbeat CPU 7 instructions: 50000000 cycles: 61633571 heartbeat IPC: 0.806166 cumulative IPC: 0.811246 (Simulation time: 5 hr 35 min 49 sec) 
 Total Blocks : 196608 Invalid Blocks : 0 Valid Blocks : 196608
 Total Tags : 491520 Threshold : 12288 Invalid Tags : 196608 Pr0 Tags : 98304 Pr1 Tags : 196608 num_pr0 : 12288
 SAE Count : 0
 Inter-Core Inteference in Data Store : 20177689
Heartbeat CPU 0 instructions: 60000000 cycles: 73833721 heartbeat IPC: 0.814109 cumulative IPC: 0.812637 (Simulation time: 6 hr 41 min 18 sec) 
 Total Blocks : 196608 Invalid Blocks : 0 Valid Blocks : 196608
 Total Tags : 491520 Threshold : 12288 Invalid Tags : 196609 Pr0 Tags : 98303 Pr1 Tags : 196608 num_pr0 : 12288
 SAE Count : 0
 Inter-Core Inteference in Data Store : 23926047
Heartbeat CPU 1 instructions: 60000000 cycles: 73851281 heartbeat IPC: 0.813826 cumulative IPC: 0.812444 (Simulation time: 6 hr 41 min 25 sec) 
 Total Blocks : 196608 Invalid Blocks : 0 Valid Blocks : 196608
 Total Tags : 491520 Threshold : 12288 Invalid Tags : 196608 Pr0 Tags : 98304 Pr1 Tags : 196608 num_pr0 : 12288
 SAE Count : 0
 Inter-Core Inteference in Data Store : 23933021
Heartbeat CPU 2 instructions: 60000000 cycles: 73865995 heartbeat IPC: 0.813683 cumulative IPC: 0.812282 (Simulation time: 6 hr 41 min 31 sec) 
 Total Blocks : 196608 Invalid Blocks : 0 Valid Blocks : 196608
 Total Tags : 491520 Threshold : 12288 Invalid Tags : 196608 Pr0 Tags : 98304 Pr1 Tags : 196608 num_pr0 : 12288
 SAE Count : 0
 Inter-Core Inteference in Data Store : 23938366
Heartbeat CPU 3 instructions: 60000000 cycles: 73881716 heartbeat IPC: 0.813462 cumulative IPC: 0.812109 (Simulation time: 6 hr 41 min 35 sec) 
 Total Blocks : 196608 Invalid Blocks : 0 Valid Blocks : 196608
 Total Tags : 491520 Threshold : 12288 Invalid Tags : 196609 Pr0 Tags : 98303 Pr1 Tags : 196608 num_pr0 : 12287
 SAE Count : 0
 Inter-Core Inteference in Data Store : 23943207
Heartbeat CPU 4 instructions: 60000000 cycles: 73900692 heartbeat IPC: 0.813239 cumulative IPC: 0.8119 (Simulation time: 6 hr 41 min 41 sec) 
 Total Blocks : 196608 Invalid Blocks : 0 Valid Blocks : 196608
 Total Tags : 491520 Threshold : 12288 Invalid Tags : 196608 Pr0 Tags : 98304 Pr1 Tags : 196608 num_pr0 : 12288
 SAE Count : 0
 Inter-Core Inteference in Data Store : 23948196
Heartbeat CPU 5 instructions: 60000000 cycles: 73910307 heartbeat IPC: 0.813141 cumulative IPC: 0.811795 (Simulation time: 6 hr 41 min 43 sec) 
 Total Blocks : 196608 Invalid Blocks : 0 Valid Blocks : 196608
 Total Tags : 491520 Threshold : 12288 Invalid Tags : 196608 Pr0 Tags : 98304 Pr1 Tags : 196608 num_pr0 : 12288
 SAE Count : 0
 Inter-Core Inteference in Data Store : 23950521
Heartbeat CPU 6 instructions: 60000000 cycles: 73924407 heartbeat IPC: 0.812942 cumulative IPC: 0.81164 (Simulation time: 6 hr 41 min 46 sec) 
 Total Blocks : 196608 Invalid Blocks : 0 Valid Blocks : 196608
 Total Tags : 491520 Threshold : 12288 Invalid Tags : 196608 Pr0 Tags : 98304 Pr1 Tags : 196608 num_pr0 : 12288
 SAE Count : 0
 Inter-Core Inteference in Data Store : 23953708
Heartbeat CPU 7 instructions: 60000000 cycles: 73936071 heartbeat IPC: 0.812843 cumulative IPC: 0.811512 (Simulation time: 6 hr 41 min 51 sec) 
 Total Blocks : 196608 Invalid Blocks : 0 Valid Blocks : 196608
 Total Tags : 491520 Threshold : 12288 Invalid Tags : 196608 Pr0 Tags : 98304 Pr1 Tags : 196608 num_pr0 : 12288
 SAE Count : 0
 Inter-Core Inteference in Data Store : 23956279
Heartbeat CPU 0 instructions: 70000000 cycles: 86058341 heartbeat IPC: 0.818021 cumulative IPC: 0.813402 (Simulation time: 7 hr 48 min 8 sec) 
 Total Blocks : 196608 Invalid Blocks : 0 Valid Blocks : 196608
 Total Tags : 491520 Threshold : 12288 Invalid Tags : 196608 Pr0 Tags : 98304 Pr1 Tags : 196608 num_pr0 : 12288
 SAE Count : 0
 Inter-Core Inteference in Data Store : 27575882
Heartbeat CPU 1 instructions: 70000000 cycles: 86079042 heartbeat IPC: 0.817811 cumulative IPC: 0.813206 (Simulation time: 7 hr 48 min 13 sec) 
 Total Blocks : 196608 Invalid Blocks : 0 Valid Blocks : 196608
 Total Tags : 491520 Threshold : 12288 Invalid Tags : 196610 Pr0 Tags : 98302 Pr1 Tags : 196608 num_pr0 : 12288
 SAE Count : 0
 Inter-Core Inteference in Data Store : 27580825
Heartbeat CPU 2 instructions: 70000000 cycles: 86097753 heartbeat IPC: 0.817544 cumulative IPC: 0.813029 (Simulation time: 7 hr 48 min 17 sec) 
 Total Blocks : 196608 Invalid Blocks : 0 Valid Blocks : 196608
 Total Tags : 491520 Threshold : 12288 Invalid Tags : 196611 Pr0 Tags : 98301 Pr1 Tags : 196608 num_pr0 : 12288
 SAE Count : 0
 Inter-Core Inteference in Data Store : 27584906
Heartbeat CPU 3 instructions: 70000000 cycles: 86115834 heartbeat IPC: 0.817386 cumulative IPC: 0.812859 (Simulation time: 7 hr 48 min 22 sec) 
 Total Blocks : 196608 Invalid Blocks : 0 Valid Blocks : 196608
 Total Tags : 491520 Threshold : 12288 Invalid Tags : 196609 Pr0 Tags : 98303 Pr1 Tags : 196608 num_pr0 : 12288
 SAE Count : 0
 Inter-Core Inteference in Data Store : 27588629
Heartbeat CPU 4 instructions: 70000000 cycles: 86137393 heartbeat IPC: 0.817214 cumulative IPC: 0.812655 (Simulation time: 7 hr 48 min 27 sec) 
 Total Blocks : 196608 Invalid Blocks : 0 Valid Blocks : 196608
 Total Tags : 491520 Threshold : 12288 Invalid Tags : 196608 Pr0 Tags : 98304 Pr1 Tags : 196608 num_pr0 : 12288
 SAE Count : 0
 Inter-Core Inteference in Data Store : 27592906
Heartbeat CPU 5 instructions: 70000000 cycles: 86149400 heartbeat IPC: 0.817054 cumulative IPC: 0.812542 (Simulation time: 7 hr 48 min 31 sec) 
 Total Blocks : 196608 Invalid Blocks : 0 Valid Blocks : 196608
 Total Tags : 491520 Threshold : 12288 Invalid Tags : 196608 Pr0 Tags : 98304 Pr1 Tags : 196608 num_pr0 : 12288
 SAE Count : 0
 Inter-Core Inteference in Data Store : 27595206
Heartbeat CPU 6 instructions: 70000000 cycles: 86166144 heartbeat IPC: 0.816878 cumulative IPC: 0.812384 (Simulation time: 7 hr 48 min 35 sec) 
 Total Blocks : 196608 Invalid Blocks : 0 Valid Blocks : 196608
 Total Tags : 491520 Threshold : 12288 Invalid Tags : 196608 Pr0 Tags : 98304 Pr1 Tags : 196608 num_pr0 : 12288
 SAE Count : 0
 Inter-Core Inteference in Data Store : 27598470
Heartbeat CPU 7 instructions: 70000000 cycles: 86179045 heartbeat IPC: 0.816795 cumulative IPC: 0.812262 (Simulation time: 7 hr 48 min 41 sec) 
 Total Blocks : 196608 Invalid Blocks : 0 Valid Blocks : 196608
 Total Tags : 491520 Threshold : 12288 Invalid Tags : 196608 Pr0 Tags : 98304 Pr1 Tags : 196608 num_pr0 : 12288
 SAE Count : 0
 Inter-Core Inteference in Data Store : 27601185
Heartbeat CPU 0 instructions: 80000000 cycles: 98142047 heartbeat IPC: 0.827561 cumulative IPC: 0.815145 (Simulation time: 8 hr 56 min 36 sec) 
 Total Blocks : 196608 Invalid Blocks : 0 Valid Blocks : 196608
 Total Tags : 491520 Threshold : 12288 Invalid Tags : 196609 Pr0 Tags : 98303 Pr1 Tags : 196608 num_pr0 : 12288
 SAE Count : 0
 Inter-Core Inteference in Data Store : 31654688
Heartbeat CPU 1 instructions: 80000000 cycles: 98166916 heartbeat IPC: 0.827275 cumulative IPC: 0.814938 (Simulation time: 8 hr 56 min 48 sec) 
 Total Blocks : 196608 Invalid Blocks : 0 Valid Blocks : 196608
 Total Tags : 491520 Threshold : 12288 Invalid Tags : 196608 Pr0 Tags : 98304 Pr1 Tags : 196608 num_pr0 : 12288
 SAE Count : 0
 Inter-Core Inteference in Data Store : 31667128
Heartbeat CPU 2 instructions: 80000000 cycles: 98188698 heartbeat IPC: 0.827065 cumulative IPC: 0.814758 (Simulation time: 8 hr 56 min 58 sec) 
 Total Blocks : 196608 Invalid Blocks : 0 Valid Blocks : 196608
 Total Tags : 491520 Threshold : 12288 Invalid Tags : 196609 Pr0 Tags : 98303 Pr1 Tags : 196608 num_pr0 : 12288
 SAE Count : 0
 Inter-Core Inteference in Data Store : 31677655
Heartbeat CPU 3 instructions: 80000000 cycles: 98210026 heartbeat IPC: 0.826843 cumulative IPC: 0.814581 (Simulation time: 8 hr 57 min 8 sec) 
 Total Blocks : 196608 Invalid Blocks : 0 Valid Blocks : 196608
 Total Tags : 491520 Threshold : 12288 Invalid Tags : 196609 Pr0 Tags : 98303 Pr1 Tags : 196608 num_pr0 : 12288
 SAE Count : 0
 Inter-Core Inteference in Data Store : 31687583
Heartbeat CPU 4 instructions: 80000000 cycles: 98234207 heartbeat IPC: 0.826664 cumulative IPC: 0.81438 (Simulation time: 8 hr 57 min 17 sec) 
 Total Blocks : 196608 Invalid Blocks : 0 Valid Blocks : 196608
 Total Tags : 491520 Threshold : 12288 Invalid Tags : 196609 Pr0 Tags : 98303 Pr1 Tags : 196608 num_pr0 : 12288
 SAE Count : 0
 Inter-Core Inteference in Data Store : 31698347
Heartbeat CPU 5 instructions: 80000000 cycles: 98249115 heartbeat IPC: 0.826466 cumulative IPC: 0.814257 (Simulation time: 8 hr 57 min 23 sec) 
 Total Blocks : 196608 Invalid Blocks : 0 Valid Blocks : 196608
 Total Tags : 491520 Threshold : 12288 Invalid Tags : 196611 Pr0 Tags : 98301 Pr1 Tags : 196608 num_pr0 : 12287
 SAE Count : 0
 Inter-Core Inteference in Data Store : 31704928
Heartbeat CPU 6 instructions: 80000000 cycles: 98269123 heartbeat IPC: 0.826243 cumulative IPC: 0.814091 (Simulation time: 8 hr 57 min 31 sec) 
 Total Blocks : 196608 Invalid Blocks : 0 Valid Blocks : 196608
 Total Tags : 491520 Threshold : 12288 Invalid Tags : 196608 Pr0 Tags : 98304 Pr1 Tags : 196608 num_pr0 : 12288
 SAE Count : 0
 Inter-Core Inteference in Data Store : 31713802
Heartbeat CPU 7 instructions: 80000000 cycles: 98284120 heartbeat IPC: 0.8261 cumulative IPC: 0.813967 (Simulation time: 8 hr 57 min 37 sec) 
 Total Blocks : 196608 Invalid Blocks : 0 Valid Blocks : 196608
 Total Tags : 491520 Threshold : 12288 Invalid Tags : 196608 Pr0 Tags : 98304 Pr1 Tags : 196608 num_pr0 : 12288
 SAE Count : 0
 Inter-Core Inteference in Data Store : 31720487
Heartbeat CPU 0 instructions: 90000001 cycles: 110283026 heartbeat IPC: 0.823657 cumulative IPC: 0.816082 (Simulation time: 10 hr 2 min 54 sec) 
 Total Blocks : 196608 Invalid Blocks : 0 Valid Blocks : 196608
 Total Tags : 491520 Threshold : 12288 Invalid Tags : 196610 Pr0 Tags : 98302 Pr1 Tags : 196608 num_pr0 : 12288
 SAE Count : 0
 Inter-Core Inteference in Data Store : 35491993
Heartbeat CPU 1 instructions: 90000001 cycles: 110311440 heartbeat IPC: 0.823416 cumulative IPC: 0.815872 (Simulation time: 10 hr 3 min 4 sec) 
 Total Blocks : 196608 Invalid Blocks : 0 Valid Blocks : 196608
 Total Tags : 491520 Threshold : 12288 Invalid Tags : 196608 Pr0 Tags : 98304 Pr1 Tags : 196608 num_pr0 : 12288
 SAE Count : 0
 Inter-Core Inteference in Data Store : 35504444
Heartbeat CPU 2 instructions: 90000001 cycles: 110336197 heartbeat IPC: 0.823215 cumulative IPC: 0.815689 (Simulation time: 10 hr 3 min 14 sec) 
 Total Blocks : 196608 Invalid Blocks : 0 Valid Blocks : 196608
 Total Tags : 491520 Threshold : 12288 Invalid Tags : 196608 Pr0 Tags : 98304 Pr1 Tags : 196608 num_pr0 : 12288
 SAE Count : 0
 Inter-Core Inteference in Data Store : 35515063
Heartbeat CPU 3 instructions: 90000001 cycles: 110360625 heartbeat IPC: 0.823005 cumulative IPC: 0.815508 (Simulation time: 10 hr 3 min 23 sec) 
 Total Blocks : 196608 Invalid Blocks : 0 Valid Blocks : 196608
 Total Tags : 491520 Threshold : 12288 Invalid Tags : 196609 Pr0 Tags : 98303 Pr1 Tags : 196608 num_pr0 : 12288
 SAE Count : 0
 Inter-Core Inteference in Data Store : 35524860
Heartbeat CPU 4 instructions: 90000001 cycles: 110388324 heartbeat IPC: 0.822767 cumulative IPC: 0.815304 (Simulation time: 10 hr 3 min 33 sec) 
 Total Blocks : 196608 Invalid Blocks : 0 Valid Blocks : 196608
 Total Tags : 491520 Threshold : 12288 Invalid Tags : 196609 Pr0 Tags : 98303 Pr1 Tags : 196608 num_pr0 : 12288
 SAE Count : 0
 Inter-Core Inteference in Data Store : 35535683
Heartbeat CPU 5 instructions: 90000001 cycles: 110405057 heartbeat IPC: 0.822643 cumulative IPC: 0.81518 (Simulation time: 10 hr 3 min 39 sec) 
 Total Blocks : 196608 Invalid Blocks : 0 Valid Blocks : 196608
 Total Tags : 491520 Threshold : 12288 Invalid Tags : 196608 Pr0 Tags : 98304 Pr1 Tags : 196608 num_pr0 : 12288
 SAE Count : 0
 Inter-Core Inteference in Data Store : 35542683
Heartbeat CPU 6 instructions: 90000001 cycles: 110427808 heartbeat IPC: 0.822457 cumulative IPC: 0.815012 (Simulation time: 10 hr 3 min 46 sec) 
 Total Blocks : 196608 Invalid Blocks : 0 Valid Blocks : 196608
 Total Tags : 491520 Threshold : 12288 Invalid Tags : 196609 Pr0 Tags : 98303 Pr1 Tags : 196608 num_pr0 : 12288
 SAE Count : 0
 Inter-Core Inteference in Data Store : 35552040
Heartbeat CPU 7 instructions: 90000001 cycles: 110444568 heartbeat IPC: 0.822338 cumulative IPC: 0.814888 (Simulation time: 10 hr 3 min 51 sec) 
 Total Blocks : 196608 Invalid Blocks : 0 Valid Blocks : 196608
 Total Tags : 491520 Threshold : 12288 Invalid Tags : 196611 Pr0 Tags : 98301 Pr1 Tags : 196608 num_pr0 : 12288
 SAE Count : 0
 Inter-Core Inteference in Data Store : 35559079
Heartbeat CPU 0 instructions: 100000000 cycles: 122291776 heartbeat IPC: 0.832726 cumulative IPC: 0.817716 (Simulation time: 11 hr 12 min 58 sec) 
 Total Blocks : 196608 Invalid Blocks : 0 Valid Blocks : 196608
 Total Tags : 491520 Threshold : 12288 Invalid Tags : 196609 Pr0 Tags : 98303 Pr1 Tags : 196608 num_pr0 : 12288
 SAE Count : 0
 Inter-Core Inteference in Data Store : 39776182
Heartbeat CPU 1 instructions: 100000000 cycles: 122324874 heartbeat IPC: 0.832401 cumulative IPC: 0.817495 (Simulation time: 11 hr 13 min 8 sec) 
 Total Blocks : 196608 Invalid Blocks : 0 Valid Blocks : 196608
 Total Tags : 491520 Threshold : 12288 Invalid Tags : 196609 Pr0 Tags : 98303 Pr1 Tags : 196608 num_pr0 : 12288
 SAE Count : 0
 Inter-Core Inteference in Data Store : 39786507
Heartbeat CPU 2 instructions: 100000000 cycles: 122352578 heartbeat IPC: 0.832197 cumulative IPC: 0.81731 (Simulation time: 11 hr 13 min 17 sec) 
 Total Blocks : 196608 Invalid Blocks : 0 Valid Blocks : 196608
 Total Tags : 491520 Threshold : 12288 Invalid Tags : 196609 Pr0 Tags : 98303 Pr1 Tags : 196608 num_pr0 : 12287
 SAE Count : 0
 Inter-Core Inteference in Data Store : 39794088
Heartbeat CPU 3 instructions: 100000000 cycles: 122380297 heartbeat IPC: 0.831969 cumulative IPC: 0.817125 (Simulation time: 11 hr 13 min 24 sec) 
 Total Blocks : 196608 Invalid Blocks : 0 Valid Blocks : 196608
 Total Tags : 491520 Threshold : 12288 Invalid Tags : 196610 Pr0 Tags : 98302 Pr1 Tags : 196608 num_pr0 : 12287
 SAE Count : 0
 Inter-Core Inteference in Data Store : 39801183
Heartbeat CPU 4 instructions: 100000000 cycles: 122411042 heartbeat IPC: 0.831759 cumulative IPC: 0.81692 (Simulation time: 11 hr 13 min 33 sec) 
 Total Blocks : 196608 Invalid Blocks : 0 Valid Blocks : 196608
 Total Tags : 491520 Threshold : 12288 Invalid Tags : 196610 Pr0 Tags : 98302 Pr1 Tags : 196608 num_pr0 : 12288
 SAE Count : 0
 Inter-Core Inteference in Data Store : 39808367
Heartbeat CPU 5 instructions: 100000000 cycles: 122430824 heartbeat IPC: 0.831548 cumulative IPC: 0.816788 (Simulation time: 11 hr 13 min 39 sec) 
 Total Blocks : 196608 Invalid Blocks : 0 Valid Blocks : 196608
 Total Tags : 491520 Threshold : 12288 Invalid Tags : 196609 Pr0 Tags : 98303 Pr1 Tags : 196608 num_pr0 : 12288
 SAE Count : 0
 Inter-Core Inteference in Data Store : 39812977
Heartbeat CPU 6 instructions: 100000000 cycles: 122456198 heartbeat IPC: 0.831366 cumulative IPC: 0.816619 (Simulation time: 11 hr 13 min 47 sec) 
 Total Blocks : 196608 Invalid Blocks : 0 Valid Blocks : 196608
 Total Tags : 491520 Threshold : 12288 Invalid Tags : 196611 Pr0 Tags : 98301 Pr1 Tags : 196608 num_pr0 : 12287
 SAE Count : 0
 Inter-Core Inteference in Data Store : 39819477
Heartbeat CPU 7 instructions: 100000000 cycles: 122475602 heartbeat IPC: 0.831184 cumulative IPC: 0.816489 (Simulation time: 11 hr 13 min 53 sec) 
 Total Blocks : 196608 Invalid Blocks : 0 Valid Blocks : 196608
 Total Tags : 491520 Threshold : 12288 Invalid Tags : 196609 Pr0 Tags : 98303 Pr1 Tags : 196608 num_pr0 : 12288
 SAE Count : 0
 Inter-Core Inteference in Data Store : 39825049
Heartbeat CPU 0 instructions: 110000000 cycles: 134243151 heartbeat IPC: 0.836724 cumulative IPC: 0.819409 (Simulation time: 12 hr 26 min 32 sec) 
 Total Blocks : 196608 Invalid Blocks : 0 Valid Blocks : 196608
 Total Tags : 491520 Threshold : 12288 Invalid Tags : 196608 Pr0 Tags : 98304 Pr1 Tags : 196608 num_pr0 : 12288
 SAE Count : 0
 Inter-Core Inteference in Data Store : 44432325
Heartbeat CPU 1 instructions: 110000000 cycles: 134280877 heartbeat IPC: 0.8364 cumulative IPC: 0.819178 (Simulation time: 12 hr 26 min 46 sec) 
 Total Blocks : 196608 Invalid Blocks : 0 Valid Blocks : 196608
 Total Tags : 491520 Threshold : 12288 Invalid Tags : 196608 Pr0 Tags : 98304 Pr1 Tags : 196608 num_pr0 : 12288
 SAE Count : 0
 Inter-Core Inteference in Data Store : 44449290
Heartbeat CPU 2 instructions: 110000000 cycles: 134311190 heartbeat IPC: 0.836217 cumulative IPC: 0.818994 (Simulation time: 12 hr 26 min 55 sec) 
 Total Blocks : 196608 Invalid Blocks : 0 Valid Blocks : 196608
 Total Tags : 491520 Threshold : 12288 Invalid Tags : 196608 Pr0 Tags : 98304 Pr1 Tags : 196608 num_pr0 : 12288
 SAE Count : 0
 Inter-Core Inteference in Data Store : 44462534
Heartbeat CPU 3 instructions: 110000000 cycles: 134343389 heartbeat IPC: 0.835904 cumulative IPC: 0.818797 (Simulation time: 12 hr 27 min 7 sec) 
 Total Blocks : 196608 Invalid Blocks : 0 Valid Blocks : 196608
 Total Tags : 491520 Threshold : 12288 Invalid Tags : 196608 Pr0 Tags : 98304 Pr1 Tags : 196608 num_pr0 : 12288
 SAE Count : 0
 Inter-Core Inteference in Data Store : 44475918
Heartbeat CPU 4 instructions: 110000000 cycles: 134377541 heartbeat IPC: 0.835666 cumulative IPC: 0.818589 (Simulation time: 12 hr 27 min 19 sec) 
 Total Blocks : 196608 Invalid Blocks : 0 Valid Blocks : 196608
 Total Tags : 491520 Threshold : 12288 Invalid Tags : 196610 Pr0 Tags : 98302 Pr1 Tags : 196608 num_pr0 : 12288
 SAE Count : 0
 Inter-Core Inteference in Data Store : 44489683
Heartbeat CPU 5 instructions: 110000000 cycles: 134400990 heartbeat IPC: 0.83541 cumulative IPC: 0.818446 (Simulation time: 12 hr 27 min 28 sec) 
 Total Blocks : 196608 Invalid Blocks : 0 Valid Blocks : 196608
 Total Tags : 491520 Threshold : 12288 Invalid Tags : 196608 Pr0 Tags : 98304 Pr1 Tags : 196608 num_pr0 : 12288
 SAE Count : 0
 Inter-Core Inteference in Data Store : 44498635
Heartbeat CPU 6 instructions: 110000000 cycles: 134428562 heartbeat IPC: 0.835257 cumulative IPC: 0.818278 (Simulation time: 12 hr 27 min 38 sec) 
 Total Blocks : 196608 Invalid Blocks : 0 Valid Blocks : 196608
 Total Tags : 491520 Threshold : 12288 Invalid Tags : 196608 Pr0 Tags : 98304 Pr1 Tags : 196608 num_pr0 : 12288
 SAE Count : 0
 Inter-Core Inteference in Data Store : 44509599
Heartbeat CPU 7 instructions: 110000000 cycles: 134451238 heartbeat IPC: 0.835029 cumulative IPC: 0.818141 (Simulation time: 12 hr 27 min 47 sec) 
 Total Blocks : 196608 Invalid Blocks : 0 Valid Blocks : 196608
 Total Tags : 491520 Threshold : 12288 Invalid Tags : 196609 Pr0 Tags : 98303 Pr1 Tags : 196608 num_pr0 : 12288
 SAE Count : 0
 Inter-Core Inteference in Data Store : 44519073
Heartbeat CPU 0 instructions: 120000000 cycles: 146059047 heartbeat IPC: 0.846318 cumulative IPC: 0.821586 (Simulation time: 13 hr 43 min 7 sec) 
 Total Blocks : 196608 Invalid Blocks : 0 Valid Blocks : 196608
 Total Tags : 491520 Threshold : 12288 Invalid Tags : 196608 Pr0 Tags : 98304 Pr1 Tags : 196608 num_pr0 : 12288
 SAE Count : 0
 Inter-Core Inteference in Data Store : 49593032
Heartbeat CPU 1 instructions: 120000000 cycles: 146101678 heartbeat IPC: 0.845966 cumulative IPC: 0.821346 (Simulation time: 13 hr 43 min 25 sec) 
 Total Blocks : 196608 Invalid Blocks : 0 Valid Blocks : 196608
 Total Tags : 491520 Threshold : 12288 Invalid Tags : 196608 Pr0 Tags : 98304 Pr1 Tags : 196608 num_pr0 : 12288
 SAE Count : 0
 Inter-Core Inteference in Data Store : 49611994
Heartbeat CPU 2 instructions: 120000000 cycles: 146135867 heartbeat IPC: 0.845689 cumulative IPC: 0.821154 (Simulation time: 13 hr 43 min 37 sec) 
 Total Blocks : 196608 Invalid Blocks : 0 Valid Blocks : 196608
 Total Tags : 491520 Threshold : 12288 Invalid Tags : 196608 Pr0 Tags : 98304 Pr1 Tags : 196608 num_pr0 : 12288
 SAE Count : 0
 Inter-Core Inteference in Data Store : 49627508
Heartbeat CPU 3 instructions: 120000000 cycles: 146170923 heartbeat IPC: 0.845485 cumulative IPC: 0.820957 (Simulation time: 13 hr 43 min 51 sec) 
 Total Blocks : 196608 Invalid Blocks : 0 Valid Blocks : 196608
 Total Tags : 491520 Threshold : 12288 Invalid Tags : 196608 Pr0 Tags : 98304 Pr1 Tags : 196608 num_pr0 : 12288
 SAE Count : 0
 Inter-Core Inteference in Data Store : 49644032
Heartbeat CPU 4 instructions: 120000000 cycles: 146209220 heartbeat IPC: 0.845189 cumulative IPC: 0.820742 (Simulation time: 13 hr 44 min 11 sec) 
 Total Blocks : 196608 Invalid Blocks : 0 Valid Blocks : 196608
 Total Tags : 491520 Threshold : 12288 Invalid Tags : 196609 Pr0 Tags : 98303 Pr1 Tags : 196608 num_pr0 : 12288
 SAE Count : 0
 Inter-Core Inteference in Data Store : 49662593
Heartbeat CPU 5 instructions: 120000000 cycles: 146236246 heartbeat IPC: 0.844933 cumulative IPC: 0.82059 (Simulation time: 13 hr 44 min 24 sec) 
 Total Blocks : 196608 Invalid Blocks : 0 Valid Blocks : 196608
 Total Tags : 491520 Threshold : 12288 Invalid Tags : 196608 Pr0 Tags : 98304 Pr1 Tags : 196608 num_pr0 : 12288
 SAE Count : 0
 Inter-Core Inteference in Data Store : 49675321
Heartbeat CPU 6 instructions: 120000000 cycles: 146266996 heartbeat IPC: 0.844706 cumulative IPC: 0.820417 (Simulation time: 13 hr 44 min 36 sec) 
 Total Blocks : 196608 Invalid Blocks : 0 Valid Blocks : 196608
 Total Tags : 491520 Threshold : 12288 Invalid Tags : 196608 Pr0 Tags : 98304 Pr1 Tags : 196608 num_pr0 : 12288
 SAE Count : 0
 Inter-Core Inteference in Data Store : 49689418
Heartbeat CPU 7 instructions: 120000000 cycles: 146292860 heartbeat IPC: 0.844479 cumulative IPC: 0.820272 (Simulation time: 13 hr 44 min 47 sec) 
 Total Blocks : 196608 Invalid Blocks : 0 Valid Blocks : 196608
 Total Tags : 491520 Threshold : 12288 Invalid Tags : 196608 Pr0 Tags : 98304 Pr1 Tags : 196608 num_pr0 : 12288
 SAE Count : 0
 Inter-Core Inteference in Data Store : 49701222
Heartbeat CPU 0 instructions: 130000001 cycles: 157884058 heartbeat IPC: 0.845665 cumulative IPC: 0.823389 (Simulation time: 14 hr 55 min 50 sec) 
 Total Blocks : 196608 Invalid Blocks : 0 Valid Blocks : 196608
 Total Tags : 491520 Threshold : 12288 Invalid Tags : 196608 Pr0 Tags : 98304 Pr1 Tags : 196608 num_pr0 : 12288
 SAE Count : 0
 Inter-Core Inteference in Data Store : 54600706
Heartbeat CPU 1 instructions: 130000001 cycles: 157931268 heartbeat IPC: 0.845338 cumulative IPC: 0.823143 (Simulation time: 14 hr 56 min 9 sec) 
 Total Blocks : 196608 Invalid Blocks : 0 Valid Blocks : 196608
 Total Tags : 491520 Threshold : 12288 Invalid Tags : 196609 Pr0 Tags : 98303 Pr1 Tags : 196608 num_pr0 : 12288
 SAE Count : 0
 Inter-Core Inteference in Data Store : 54622066
Heartbeat CPU 2 instructions: 130000001 cycles: 157969411 heartbeat IPC: 0.845055 cumulative IPC: 0.822944 (Simulation time: 14 hr 56 min 24 sec) 
 Total Blocks : 196608 Invalid Blocks : 0 Valid Blocks : 196608
 Total Tags : 491520 Threshold : 12288 Invalid Tags : 196609 Pr0 Tags : 98303 Pr1 Tags : 196608 num_pr0 : 12288
 SAE Count : 0
 Inter-Core Inteference in Data Store : 54638446
Heartbeat CPU 3 instructions: 130000001 cycles: 158007165 heartbeat IPC: 0.844863 cumulative IPC: 0.822748 (Simulation time: 14 hr 56 min 39 sec) 
 Total Blocks : 196608 Invalid Blocks : 0 Valid Blocks : 196608
 Total Tags : 491520 Threshold : 12288 Invalid Tags : 196608 Pr0 Tags : 98304 Pr1 Tags : 196608 num_pr0 : 12288
 SAE Count : 0
 Inter-Core Inteference in Data Store : 54654145
Heartbeat CPU 4 instructions: 130000001 cycles: 158049533 heartbeat IPC: 0.844572 cumulative IPC: 0.822527 (Simulation time: 14 hr 56 min 55 sec) 
 Total Blocks : 196608 Invalid Blocks : 0 Valid Blocks : 196608
 Total Tags : 491520 Threshold : 12288 Invalid Tags : 196608 Pr0 Tags : 98304 Pr1 Tags : 196608 num_pr0 : 12288
 SAE Count : 0
 Inter-Core Inteference in Data Store : 54671670
Heartbeat CPU 5 instructions: 130000001 cycles: 158079706 heartbeat IPC: 0.844348 cumulative IPC: 0.82237 (Simulation time: 14 hr 57 min 5 sec) 
 Total Blocks : 196608 Invalid Blocks : 0 Valid Blocks : 196608
 Total Tags : 491520 Threshold : 12288 Invalid Tags : 196609 Pr0 Tags : 98303 Pr1 Tags : 196608 num_pr0 : 12288
 SAE Count : 0
 Inter-Core Inteference in Data Store : 54684161
Heartbeat CPU 6 instructions: 130000001 cycles: 158113453 heartbeat IPC: 0.844134 cumulative IPC: 0.822194 (Simulation time: 14 hr 57 min 16 sec) 
 Total Blocks : 196608 Invalid Blocks : 0 Valid Blocks : 196608
 Total Tags : 491520 Threshold : 12288 Invalid Tags : 196608 Pr0 Tags : 98304 Pr1 Tags : 196608 num_pr0 : 12288
 SAE Count : 0
 Inter-Core Inteference in Data Store : 54699062
Heartbeat CPU 7 instructions: 130000001 cycles: 158143354 heartbeat IPC: 0.843847 cumulative IPC: 0.822039 (Simulation time: 14 hr 57 min 27 sec) 
 Total Blocks : 196608 Invalid Blocks : 0 Valid Blocks : 196608
 Total Tags : 491520 Threshold : 12288 Invalid Tags : 196608 Pr0 Tags : 98304 Pr1 Tags : 196608 num_pr0 : 12288
 SAE Count : 0
 Inter-Core Inteference in Data Store : 54712455
Heartbeat CPU 0 instructions: 140000000 cycles: 169700779 heartbeat IPC: 0.846258 cumulative IPC: 0.824982 (Simulation time: 16 hr 5 min 22 sec) 
 Total Blocks : 196608 Invalid Blocks : 0 Valid Blocks : 196608
 Total Tags : 491520 Threshold : 12288 Invalid Tags : 196608 Pr0 Tags : 98304 Pr1 Tags : 196608 num_pr0 : 12288
 SAE Count : 0
 Inter-Core Inteference in Data Store : 59614738
Heartbeat CPU 1 instructions: 140000000 cycles: 169751747 heartbeat IPC: 0.845989 cumulative IPC: 0.824734 (Simulation time: 16 hr 5 min 40 sec) 
 Total Blocks : 196608 Invalid Blocks : 0 Valid Blocks : 196608
 Total Tags : 491520 Threshold : 12288 Invalid Tags : 196608 Pr0 Tags : 98304 Pr1 Tags : 196608 num_pr0 : 12288
 SAE Count : 0
 Inter-Core Inteference in Data Store : 59638186
Heartbeat CPU 2 instructions: 140000000 cycles: 169794154 heartbeat IPC: 0.845684 cumulative IPC: 0.824528 (Simulation time: 16 hr 5 min 54 sec) 
 Total Blocks : 196608 Invalid Blocks : 0 Valid Blocks : 196608
 Total Tags : 491520 Threshold : 12288 Invalid Tags : 196608 Pr0 Tags : 98304 Pr1 Tags : 196608 num_pr0 : 12288
 SAE Count : 0
 Inter-Core Inteference in Data Store : 59657352
Heartbeat CPU 3 instructions: 140000000 cycles: 169835298 heartbeat IPC: 0.845442 cumulative IPC: 0.824328 (Simulation time: 16 hr 6 min 9 sec) 
 Total Blocks : 196608 Invalid Blocks : 0 Valid Blocks : 196608
 Total Tags : 491520 Threshold : 12288 Invalid Tags : 196608 Pr0 Tags : 98304 Pr1 Tags : 196608 num_pr0 : 12288
 SAE Count : 0
 Inter-Core Inteference in Data Store : 59675554
Heartbeat CPU 4 instructions: 140000000 cycles: 169881712 heartbeat IPC: 0.845153 cumulative IPC: 0.824103 (Simulation time: 16 hr 6 min 24 sec) 
 Total Blocks : 196608 Invalid Blocks : 0 Valid Blocks : 196608
 Total Tags : 491520 Threshold : 12288 Invalid Tags : 196608 Pr0 Tags : 98304 Pr1 Tags : 196608 num_pr0 : 12288
 SAE Count : 0
 Inter-Core Inteference in Data Store : 59695032
Heartbeat CPU 5 instructions: 140000000 cycles: 169914758 heartbeat IPC: 0.844948 cumulative IPC: 0.823943 (Simulation time: 16 hr 6 min 33 sec) 
 Total Blocks : 196608 Invalid Blocks : 0 Valid Blocks : 196608
 Total Tags : 491520 Threshold : 12288 Invalid Tags : 196608 Pr0 Tags : 98304 Pr1 Tags : 196608 num_pr0 : 12288
 SAE Count : 0
 Inter-Core Inteference in Data Store : 59708375
Heartbeat CPU 6 instructions: 140000000 cycles: 169952044 heartbeat IPC: 0.844695 cumulative IPC: 0.823762 (Simulation time: 16 hr 6 min 44 sec) 
 Total Blocks : 196608 Invalid Blocks : 0 Valid Blocks : 196608
 Total Tags : 491520 Threshold : 12288 Invalid Tags : 196609 Pr0 Tags : 98303 Pr1 Tags : 196608 num_pr0 : 12288
 SAE Count : 0
 Inter-Core Inteference in Data Store : 59722974
Heartbeat CPU 7 instructions: 140000000 cycles: 169985020 heartbeat IPC: 0.844476 cumulative IPC: 0.823602 (Simulation time: 16 hr 6 min 51 sec) 
 Total Blocks : 196608 Invalid Blocks : 0 Valid Blocks : 196608
 Total Tags : 491520 Threshold : 12288 Invalid Tags : 196609 Pr0 Tags : 98303 Pr1 Tags : 196608 num_pr0 : 12288
 SAE Count : 0
 Inter-Core Inteference in Data Store : 59734835
Heartbeat CPU 0 instructions: 150000003 cycles: 181504763 heartbeat IPC: 0.847172 cumulative IPC: 0.826425 (Simulation time: 17 hr 12 min 24 sec) 
 Total Blocks : 196608 Invalid Blocks : 0 Valid Blocks : 196608
 Total Tags : 491520 Threshold : 12288 Invalid Tags : 196608 Pr0 Tags : 98304 Pr1 Tags : 196608 num_pr0 : 12288
 SAE Count : 0
 Inter-Core Inteference in Data Store : 64762094
Heartbeat CPU 1 instructions: 150000003 cycles: 181560116 heartbeat IPC: 0.846857 cumulative IPC: 0.826173 (Simulation time: 17 hr 12 min 45 sec) 
 Total Blocks : 196608 Invalid Blocks : 0 Valid Blocks : 196608
 Total Tags : 491520 Threshold : 12288 Invalid Tags : 196610 Pr0 Tags : 98302 Pr1 Tags : 196608 num_pr0 : 12288
 SAE Count : 0
 Inter-Core Inteference in Data Store : 64786918
Heartbeat CPU 2 instructions: 150000003 cycles: 181606935 heartbeat IPC: 0.846541 cumulative IPC: 0.82596 (Simulation time: 17 hr 13 min 1 sec) 
 Total Blocks : 196608 Invalid Blocks : 0 Valid Blocks : 196608
 Total Tags : 491520 Threshold : 12288 Invalid Tags : 196608 Pr0 Tags : 98304 Pr1 Tags : 196608 num_pr0 : 12288
 SAE Count : 0
 Inter-Core Inteference in Data Store : 64808390
Heartbeat CPU 3 instructions: 150000003 cycles: 181651087 heartbeat IPC: 0.846325 cumulative IPC: 0.825759 (Simulation time: 17 hr 13 min 16 sec) 
 Total Blocks : 196608 Invalid Blocks : 0 Valid Blocks : 196608
 Total Tags : 491520 Threshold : 12288 Invalid Tags : 196608 Pr0 Tags : 98304 Pr1 Tags : 196608 num_pr0 : 12288
 SAE Count : 0
 Inter-Core Inteference in Data Store : 64829552
Heartbeat CPU 4 instructions: 150000003 cycles: 181701758 heartbeat IPC: 0.846021 cumulative IPC: 0.825529 (Simulation time: 17 hr 13 min 33 sec) 
 Total Blocks : 196608 Invalid Blocks : 0 Valid Blocks : 196608
 Total Tags : 491520 Threshold : 12288 Invalid Tags : 196608 Pr0 Tags : 98304 Pr1 Tags : 196608 num_pr0 : 12288
 SAE Count : 0
 Inter-Core Inteference in Data Store : 64854023
Heartbeat CPU 5 instructions: 150000003 cycles: 181737575 heartbeat IPC: 0.845822 cumulative IPC: 0.825366 (Simulation time: 17 hr 13 min 46 sec) 
 Total Blocks : 196608 Invalid Blocks : 0 Valid Blocks : 196608
 Total Tags : 491520 Threshold : 12288 Invalid Tags : 196608 Pr0 Tags : 98304 Pr1 Tags : 196608 num_pr0 : 12288
 SAE Count : 0
 Inter-Core Inteference in Data Store : 64872648
Heartbeat CPU 6 instructions: 150000003 cycles: 181778966 heartbeat IPC: 0.845529 cumulative IPC: 0.825178 (Simulation time: 17 hr 14 min 0 sec) 
 Total Blocks : 196608 Invalid Blocks : 0 Valid Blocks : 196608
 Total Tags : 491520 Threshold : 12288 Invalid Tags : 196609 Pr0 Tags : 98303 Pr1 Tags : 196608 num_pr0 : 12288
 SAE Count : 0
 Inter-Core Inteference in Data Store : 64894128
Heartbeat CPU 7 instructions: 150000003 cycles: 181815327 heartbeat IPC: 0.845287 cumulative IPC: 0.825013 (Simulation time: 17 hr 14 min 14 sec) 
 Total Blocks : 196608 Invalid Blocks : 0 Valid Blocks : 196608
 Total Tags : 491520 Threshold : 12288 Invalid Tags : 196608 Pr0 Tags : 98304 Pr1 Tags : 196608 num_pr0 : 12288
 SAE Count : 0
 Inter-Core Inteference in Data Store : 64913116
FILL
Heartbeat CPU 0 instructions: 160000000 cycles: 193130571 heartbeat IPC: 0.860155 cumulative IPC: 0.828455 (Simulation time: 18 hr 18 min 18 sec) 
 Total Blocks : 196608 Invalid Blocks : 0 Valid Blocks : 196608
 Total Tags : 491520 Threshold : 12288 Invalid Tags : 196609 Pr0 Tags : 98303 Pr1 Tags : 196608 num_pr0 : 12288
 SAE Count : 0
 Inter-Core Inteference in Data Store : 70430363
Heartbeat CPU 1 instructions: 160000000 cycles: 193190466 heartbeat IPC: 0.859819 cumulative IPC: 0.828198 (Simulation time: 18 hr 18 min 39 sec) 
 Total Blocks : 196608 Invalid Blocks : 0 Valid Blocks : 196608
 Total Tags : 491520 Threshold : 12288 Invalid Tags : 196609 Pr0 Tags : 98303 Pr1 Tags : 196608 num_pr0 : 12287
 SAE Count : 0
 Inter-Core Inteference in Data Store : 70459484
Heartbeat CPU 2 instructions: 160000000 cycles: 193240776 heartbeat IPC: 0.859561 cumulative IPC: 0.827983 (Simulation time: 18 hr 18 min 57 sec) 
 Total Blocks : 196608 Invalid Blocks : 0 Valid Blocks : 196608
 Total Tags : 491520 Threshold : 12288 Invalid Tags : 196610 Pr0 Tags : 98302 Pr1 Tags : 196608 num_pr0 : 12288
 SAE Count : 0
 Inter-Core Inteference in Data Store : 70483156
Heartbeat CPU 3 instructions: 160000000 cycles: 193289099 heartbeat IPC: 0.859253 cumulative IPC: 0.827776 (Simulation time: 18 hr 19 min 12 sec) 
 Total Blocks : 196608 Invalid Blocks : 0 Valid Blocks : 196608
 Total Tags : 491520 Threshold : 12288 Invalid Tags : 196608 Pr0 Tags : 98304 Pr1 Tags : 196608 num_pr0 : 12288
 SAE Count : 0
 Inter-Core Inteference in Data Store : 70505812
Heartbeat CPU 4 instructions: 160000000 cycles: 193344970 heartbeat IPC: 0.858869 cumulative IPC: 0.827536 (Simulation time: 18 hr 19 min 31 sec) 
 Total Blocks : 196608 Invalid Blocks : 0 Valid Blocks : 196608
 Total Tags : 491520 Threshold : 12288 Invalid Tags : 196608 Pr0 Tags : 98304 Pr1 Tags : 196608 num_pr0 : 12288
 SAE Count : 0
 Inter-Core Inteference in Data Store : 70533459
Heartbeat CPU 5 instructions: 160000000 cycles: 193383241 heartbeat IPC: 0.858688 cumulative IPC: 0.827373 (Simulation time: 18 hr 19 min 44 sec) 
 Total Blocks : 196608 Invalid Blocks : 0 Valid Blocks : 196608
 Total Tags : 491520 Threshold : 12288 Invalid Tags : 196608 Pr0 Tags : 98304 Pr1 Tags : 196608 num_pr0 : 12288
 SAE Count : 0
 Inter-Core Inteference in Data Store : 70552364
Heartbeat CPU 6 instructions: 160000000 cycles: 193428488 heartbeat IPC: 0.858404 cumulative IPC: 0.827179 (Simulation time: 18 hr 19 min 59 sec) 
 Total Blocks : 196608 Invalid Blocks : 0 Valid Blocks : 196608
 Total Tags : 491520 Threshold : 12288 Invalid Tags : 196608 Pr0 Tags : 98304 Pr1 Tags : 196608 num_pr0 : 12288
 SAE Count : 0
 Inter-Core Inteference in Data Store : 70574477
Heartbeat CPU 7 instructions: 160000000 cycles: 193468112 heartbeat IPC: 0.858164 cumulative IPC: 0.82701 (Simulation time: 18 hr 20 min 9 sec) 
 Total Blocks : 196608 Invalid Blocks : 0 Valid Blocks : 196608
 Total Tags : 491520 Threshold : 12288 Invalid Tags : 196608 Pr0 Tags : 98304 Pr1 Tags : 196608 num_pr0 : 12288
 SAE Count : 0
 Inter-Core Inteference in Data Store : 70593522
Heartbeat CPU 0 instructions: 170000000 cycles: 204778455 heartbeat IPC: 0.858525 cumulative IPC: 0.830165 (Simulation time: 19 hr 20 min 44 sec) 
 Total Blocks : 196608 Invalid Blocks : 0 Valid Blocks : 196608
 Total Tags : 491520 Threshold : 12288 Invalid Tags : 196609 Pr0 Tags : 98303 Pr1 Tags : 196608 num_pr0 : 12288
 SAE Count : 0
 Inter-Core Inteference in Data Store : 75955639
Heartbeat CPU 1 instructions: 170000000 cycles: 204843099 heartbeat IPC: 0.858175 cumulative IPC: 0.829903 (Simulation time: 19 hr 21 min 8 sec) 
 Total Blocks : 196608 Invalid Blocks : 0 Valid Blocks : 196608
 Total Tags : 491520 Threshold : 12288 Invalid Tags : 196608 Pr0 Tags : 98304 Pr1 Tags : 196608 num_pr0 : 12288
 SAE Count : 0
 Inter-Core Inteference in Data Store : 75985618
Heartbeat CPU 2 instructions: 170000000 cycles: 204896880 heartbeat IPC: 0.85792 cumulative IPC: 0.829686 (Simulation time: 19 hr 21 min 24 sec) 
 Total Blocks : 196608 Invalid Blocks : 0 Valid Blocks : 196608
 Total Tags : 491520 Threshold : 12288 Invalid Tags : 196610 Pr0 Tags : 98302 Pr1 Tags : 196608 num_pr0 : 12288
 SAE Count : 0
 Inter-Core Inteference in Data Store : 76011141
Heartbeat CPU 3 instructions: 170000000 cycles: 204948776 heartbeat IPC: 0.857657 cumulative IPC: 0.829476 (Simulation time: 19 hr 21 min 40 sec) 
 Total Blocks : 196608 Invalid Blocks : 0 Valid Blocks : 196608
 Total Tags : 491520 Threshold : 12288 Invalid Tags : 196608 Pr0 Tags : 98304 Pr1 Tags : 196608 num_pr0 : 12288
 SAE Count : 0
 Inter-Core Inteference in Data Store : 76035362
Heartbeat CPU 4 instructions: 170000000 cycles: 205008860 heartbeat IPC: 0.857347 cumulative IPC: 0.829232 (Simulation time: 19 hr 21 min 58 sec) 
 Total Blocks : 196608 Invalid Blocks : 0 Valid Blocks : 196608
 Total Tags : 491520 Threshold : 12288 Invalid Tags : 196608 Pr0 Tags : 98304 Pr1 Tags : 196608 num_pr0 : 12288
 SAE Count : 0
 Inter-Core Inteference in Data Store : 76063942
Heartbeat CPU 5 instructions: 170000000 cycles: 205050668 heartbeat IPC: 0.857087 cumulative IPC: 0.829063 (Simulation time: 19 hr 22 min 10 sec) 
 Total Blocks : 196608 Invalid Blocks : 0 Valid Blocks : 196608
 Total Tags : 491520 Threshold : 12288 Invalid Tags : 196608 Pr0 Tags : 98304 Pr1 Tags : 196608 num_pr0 : 12288
 SAE Count : 0
 Inter-Core Inteference in Data Store : 76084246
Heartbeat CPU 6 instructions: 170000000 cycles: 205099757 heartbeat IPC: 0.856805 cumulative IPC: 0.828865 (Simulation time: 19 hr 22 min 25 sec) 
 Total Blocks : 196608 Invalid Blocks : 0 Valid Blocks : 196608
 Total Tags : 491520 Threshold : 12288 Invalid Tags : 196609 Pr0 Tags : 98303 Pr1 Tags : 196608 num_pr0 : 12288
 SAE Count : 0
 Inter-Core Inteference in Data Store : 76107541
Heartbeat CPU 7 instructions: 170000000 cycles: 205142473 heartbeat IPC: 0.856578 cumulative IPC: 0.828692 (Simulation time: 19 hr 22 min 36 sec) 
 Total Blocks : 196608 Invalid Blocks : 0 Valid Blocks : 196608
 Total Tags : 491520 Threshold : 12288 Invalid Tags : 196608 Pr0 Tags : 98304 Pr1 Tags : 196608 num_pr0 : 12288
 SAE Count : 0
 Inter-Core Inteference in Data Store : 76128090
Heartbeat CPU 0 instructions: 180000000 cycles: 216420792 heartbeat IPC: 0.858934 cumulative IPC: 0.831713 (Simulation time: 20 hr 22 min 43 sec) 
 Total Blocks : 196608 Invalid Blocks : 0 Valid Blocks : 196608
 Total Tags : 491520 Threshold : 12288 Invalid Tags : 196608 Pr0 Tags : 98304 Pr1 Tags : 196608 num_pr0 : 12288
 SAE Count : 0
 Inter-Core Inteference in Data Store : 81513735
Heartbeat CPU 1 instructions: 180000000 cycles: 216489446 heartbeat IPC: 0.858638 cumulative IPC: 0.831449 (Simulation time: 20 hr 23 min 8 sec) 
 Total Blocks : 196608 Invalid Blocks : 0 Valid Blocks : 196608
 Total Tags : 491520 Threshold : 12288 Invalid Tags : 196608 Pr0 Tags : 98304 Pr1 Tags : 196608 num_pr0 : 12288
 SAE Count : 0
 Inter-Core Inteference in Data Store : 81548476
Heartbeat CPU 2 instructions: 180000000 cycles: 216547556 heartbeat IPC: 0.858319 cumulative IPC: 0.831226 (Simulation time: 20 hr 23 min 29 sec) 
 Total Blocks : 196608 Invalid Blocks : 0 Valid Blocks : 196608
 Total Tags : 491520 Threshold : 12288 Invalid Tags : 196609 Pr0 Tags : 98303 Pr1 Tags : 196608 num_pr0 : 12287
 SAE Count : 0
 Inter-Core Inteference in Data Store : 81578068
Heartbeat CPU 3 instructions: 180000000 cycles: 216603461 heartbeat IPC: 0.858024 cumulative IPC: 0.831012 (Simulation time: 20 hr 23 min 46 sec) 
 Total Blocks : 196608 Invalid Blocks : 0 Valid Blocks : 196608
 Total Tags : 491520 Threshold : 12288 Invalid Tags : 196608 Pr0 Tags : 98304 Pr1 Tags : 196608 num_pr0 : 12288
 SAE Count : 0
 Inter-Core Inteference in Data Store : 81606272
Heartbeat CPU 4 instructions: 180000000 cycles: 216667981 heartbeat IPC: 0.857698 cumulative IPC: 0.830764 (Simulation time: 20 hr 24 min 6 sec) 
 Total Blocks : 196608 Invalid Blocks : 0 Valid Blocks : 196608
 Total Tags : 491520 Threshold : 12288 Invalid Tags : 196609 Pr0 Tags : 98303 Pr1 Tags : 196608 num_pr0 : 12288
 SAE Count : 0
 Inter-Core Inteference in Data Store : 81637839
Heartbeat CPU 5 instructions: 180000000 cycles: 216712548 heartbeat IPC: 0.857495 cumulative IPC: 0.830593 (Simulation time: 20 hr 24 min 20 sec) 
 Total Blocks : 196608 Invalid Blocks : 0 Valid Blocks : 196608
 Total Tags : 491520 Threshold : 12288 Invalid Tags : 196608 Pr0 Tags : 98304 Pr1 Tags : 196608 num_pr0 : 12288
 SAE Count : 0
 Inter-Core Inteference in Data Store : 81659563
Heartbeat CPU 6 instructions: 180000000 cycles: 216765276 heartbeat IPC: 0.857227 cumulative IPC: 0.830391 (Simulation time: 20 hr 24 min 34 sec) 
 Total Blocks : 196608 Invalid Blocks : 0 Valid Blocks : 196608
 Total Tags : 491520 Threshold : 12288 Invalid Tags : 196609 Pr0 Tags : 98303 Pr1 Tags : 196608 num_pr0 : 12288
 SAE Count : 0
 Inter-Core Inteference in Data Store : 81684352
Heartbeat CPU 7 instructions: 180000000 cycles: 216811526 heartbeat IPC: 0.856968 cumulative IPC: 0.830214 (Simulation time: 20 hr 24 min 48 sec) 
 Total Blocks : 196608 Invalid Blocks : 0 Valid Blocks : 196608
 Total Tags : 491520 Threshold : 12288 Invalid Tags : 196609 Pr0 Tags : 98303 Pr1 Tags : 196608 num_pr0 : 12288
 SAE Count : 0
 Inter-Core Inteference in Data Store : 81706261
Heartbeat CPU 0 instructions: 190000003 cycles: 228053664 heartbeat IPC: 0.859633 cumulative IPC: 0.833137 (Simulation time: 21 hr 26 min 5 sec) 
 Total Blocks : 196608 Invalid Blocks : 0 Valid Blocks : 196608
 Total Tags : 491520 Threshold : 12288 Invalid Tags : 196608 Pr0 Tags : 98304 Pr1 Tags : 196608 num_pr0 : 12288
 SAE Count : 0
 Inter-Core Inteference in Data Store : 87139330
Heartbeat CPU 1 instructions: 190000003 cycles: 228126722 heartbeat IPC: 0.859308 cumulative IPC: 0.83287 (Simulation time: 21 hr 26 min 31 sec) 
 Total Blocks : 196608 Invalid Blocks : 0 Valid Blocks : 196608
 Total Tags : 491520 Threshold : 12288 Invalid Tags : 196608 Pr0 Tags : 98304 Pr1 Tags : 196608 num_pr0 : 12288
 SAE Count : 0
 Inter-Core Inteference in Data Store : 87177544
Heartbeat CPU 2 instructions: 190000003 cycles: 228189422 heartbeat IPC: 0.858969 cumulative IPC: 0.832642 (Simulation time: 21 hr 26 min 50 sec) 
 Total Blocks : 196608 Invalid Blocks : 0 Valid Blocks : 196608
 Total Tags : 491520 Threshold : 12288 Invalid Tags : 196609 Pr0 Tags : 98303 Pr1 Tags : 196608 num_pr0 : 12288
 SAE Count : 0
 Inter-Core Inteference in Data Store : 87210410
Heartbeat CPU 3 instructions: 190000003 cycles: 228248930 heartbeat IPC: 0.858703 cumulative IPC: 0.832425 (Simulation time: 21 hr 27 min 11 sec) 
 Total Blocks : 196608 Invalid Blocks : 0 Valid Blocks : 196608
 Total Tags : 491520 Threshold : 12288 Invalid Tags : 196608 Pr0 Tags : 98304 Pr1 Tags : 196608 num_pr0 : 12288
 SAE Count : 0
 Inter-Core Inteference in Data Store : 87241433
Heartbeat CPU 4 instructions: 190000003 cycles: 228317502 heartbeat IPC: 0.858405 cumulative IPC: 0.832174 (Simulation time: 21 hr 27 min 34 sec) 
 Total Blocks : 196608 Invalid Blocks : 0 Valid Blocks : 196608
 Total Tags : 491520 Threshold : 12288 Invalid Tags : 196608 Pr0 Tags : 98304 Pr1 Tags : 196608 num_pr0 : 12288
 SAE Count : 0
 Inter-Core Inteference in Data Store : 87277178
Heartbeat CPU 5 instructions: 190000003 cycles: 228365225 heartbeat IPC: 0.858172 cumulative IPC: 0.832001 (Simulation time: 21 hr 27 min 50 sec) 
 Total Blocks : 196608 Invalid Blocks : 0 Valid Blocks : 196608
 Total Tags : 491520 Threshold : 12288 Invalid Tags : 196608 Pr0 Tags : 98304 Pr1 Tags : 196608 num_pr0 : 12288
 SAE Count : 0
 Inter-Core Inteference in Data Store : 87302025
Heartbeat CPU 6 instructions: 190000003 cycles: 228421761 heartbeat IPC: 0.857892 cumulative IPC: 0.831795 (Simulation time: 21 hr 28 min 10 sec) 
 Total Blocks : 196608 Invalid Blocks : 0 Valid Blocks : 196608
 Total Tags : 491520 Threshold : 12288 Invalid Tags : 196609 Pr0 Tags : 98303 Pr1 Tags : 196608 num_pr0 : 12288
 SAE Count : 0
 Inter-Core Inteference in Data Store : 87331278
Heartbeat CPU 7 instructions: 190000003 cycles: 228472181 heartbeat IPC: 0.857585 cumulative IPC: 0.831611 (Simulation time: 21 hr 28 min 27 sec) 
 Total Blocks : 196608 Invalid Blocks : 0 Valid Blocks : 196608
 Total Tags : 491520 Threshold : 12288 Invalid Tags : 196608 Pr0 Tags : 98304 Pr1 Tags : 196608 num_pr0 : 12288
 SAE Count : 0
 Inter-Core Inteference in Data Store : 87356648
Heartbeat CPU 0 instructions: 200000002 cycles: 239714559 heartbeat IPC: 0.857567 cumulative IPC: 0.834326 (Simulation time: 22 hr 29 min 41 sec) 
 Total Blocks : 196608 Invalid Blocks : 0 Valid Blocks : 196608
 Total Tags : 491520 Threshold : 12288 Invalid Tags : 196608 Pr0 Tags : 98304 Pr1 Tags : 196608 num_pr0 : 12288
 SAE Count : 0
 Inter-Core Inteference in Data Store : 92591486
Heartbeat CPU 1 instructions: 200000002 cycles: 239792175 heartbeat IPC: 0.857232 cumulative IPC: 0.834056 (Simulation time: 22 hr 30 min 9 sec) 
 Total Blocks : 196608 Invalid Blocks : 0 Valid Blocks : 196608
 Total Tags : 491520 Threshold : 12288 Invalid Tags : 196610 Pr0 Tags : 98302 Pr1 Tags : 196608 num_pr0 : 12288
 SAE Count : 0
 Inter-Core Inteference in Data Store : 92630510
Heartbeat CPU 2 instructions: 200000002 cycles: 239859171 heartbeat IPC: 0.856916 cumulative IPC: 0.833823 (Simulation time: 22 hr 30 min 31 sec) 
 Total Blocks : 196608 Invalid Blocks : 0 Valid Blocks : 196608
 Total Tags : 491520 Threshold : 12288 Invalid Tags : 196610 Pr0 Tags : 98302 Pr1 Tags : 196608 num_pr0 : 12288
 SAE Count : 0
 Inter-Core Inteference in Data Store : 92664970
Heartbeat CPU 3 instructions: 200000002 cycles: 239922784 heartbeat IPC: 0.856615 cumulative IPC: 0.833602 (Simulation time: 22 hr 30 min 53 sec) 
 Total Blocks : 196608 Invalid Blocks : 0 Valid Blocks : 196608
 Total Tags : 491520 Threshold : 12288 Invalid Tags : 196609 Pr0 Tags : 98303 Pr1 Tags : 196608 num_pr0 : 12288
 SAE Count : 0
 Inter-Core Inteference in Data Store : 92698618
Heartbeat CPU 4 instructions: 200000002 cycles: 239995004 heartbeat IPC: 0.856347 cumulative IPC: 0.833351 (Simulation time: 22 hr 31 min 20 sec) 
 Total Blocks : 196608 Invalid Blocks : 0 Valid Blocks : 196608
 Total Tags : 491520 Threshold : 12288 Invalid Tags : 196608 Pr0 Tags : 98304 Pr1 Tags : 196608 num_pr0 : 12288
 SAE Count : 0
 Inter-Core Inteference in Data Store : 92736669
Heartbeat CPU 5 instructions: 200000002 cycles: 240046048 heartbeat IPC: 0.856104 cumulative IPC: 0.833173 (Simulation time: 22 hr 31 min 39 sec) 
 Total Blocks : 196608 Invalid Blocks : 0 Valid Blocks : 196608
 Total Tags : 491520 Threshold : 12288 Invalid Tags : 196610 Pr0 Tags : 98302 Pr1 Tags : 196608 num_pr0 : 12288
 SAE Count : 0
 Inter-Core Inteference in Data Store : 92763637
Heartbeat CPU 6 instructions: 200000002 cycles: 240105960 heartbeat IPC: 0.855857 cumulative IPC: 0.832966 (Simulation time: 22 hr 32 min 1 sec) 
 Total Blocks : 196608 Invalid Blocks : 0 Valid Blocks : 196608
 Total Tags : 491520 Threshold : 12288 Invalid Tags : 196608 Pr0 Tags : 98304 Pr1 Tags : 196608 num_pr0 : 12288
 SAE Count : 0
 Inter-Core Inteference in Data Store : 92795490
Heartbeat CPU 7 instructions: 200000002 cycles: 240159819 heartbeat IPC: 0.855605 cumulative IPC: 0.832779 (Simulation time: 22 hr 32 min 24 sec) 
 Total Blocks : 196608 Invalid Blocks : 0 Valid Blocks : 196608
 Total Tags : 491520 Threshold : 12288 Invalid Tags : 196610 Pr0 Tags : 98302 Pr1 Tags : 196608 num_pr0 : 12288
 SAE Count : 0
 Inter-Core Inteference in Data Store : 92824017

Warmup complete CPU 0 instructions: 200392881 cycles: 240159819 (Simulation time: 22 hr 32 min 24 sec) 
Warmup complete CPU 1 instructions: 200324449 cycles: 240159819 (Simulation time: 22 hr 32 min 24 sec) 
Warmup complete CPU 2 instructions: 200264902 cycles: 240159819 (Simulation time: 22 hr 32 min 24 sec) 
Warmup complete CPU 3 instructions: 200208516 cycles: 240159819 (Simulation time: 22 hr 32 min 24 sec) 
Warmup complete CPU 4 instructions: 200145165 cycles: 240159819 (Simulation time: 22 hr 32 min 24 sec) 
Warmup complete CPU 5 instructions: 200099728 cycles: 240159819 (Simulation time: 22 hr 32 min 24 sec) 
Warmup complete CPU 6 instructions: 200047857 cycles: 240159819 (Simulation time: 22 hr 32 min 24 sec) 
Warmup complete CPU 7 instructions: 200000002 cycles: 240159819 (Simulation time: 22 hr 32 min 24 sec) 

Heartbeat CPU 0 instructions: 210000001 cycles: 465250822 heartbeat IPC: 0.0443388 cumulative IPC: 0.042681 (Simulation time: 25 hr 12 min 37 sec) 
 Total Blocks : 196608 Invalid Blocks : 0 Valid Blocks : 196608
 Total Tags : 491520 Threshold : 12288 Invalid Tags : 196609 Pr0 Tags : 98303 Pr1 Tags : 196608 num_pr0 : 12288
 SAE Count : 0
 Inter-Core Inteference in Data Store : 4544351
Heartbeat CPU 1 instructions: 210000001 cycles: 466945613 heartbeat IPC: 0.0440231 cumulative IPC: 0.0426638 (Simulation time: 25 hr 13 min 44 sec) 
 Total Blocks : 196608 Invalid Blocks : 0 Valid Blocks : 196608
 Total Tags : 491520 Threshold : 12288 Invalid Tags : 196608 Pr0 Tags : 98304 Pr1 Tags : 196608 num_pr0 : 12288
 SAE Count : 0
 Inter-Core Inteference in Data Store : 4578594
Heartbeat CPU 2 instructions: 210000001 cycles: 468296412 heartbeat IPC: 0.0437757 cumulative IPC: 0.0426722 (Simulation time: 25 hr 14 min 39 sec) 
 Total Blocks : 196608 Invalid Blocks : 0 Valid Blocks : 196608
 Total Tags : 491520 Threshold : 12288 Invalid Tags : 196608 Pr0 Tags : 98304 Pr1 Tags : 196608 num_pr0 : 12288
 SAE Count : 0
 Inter-Core Inteference in Data Store : 4605445
Heartbeat CPU 3 instructions: 210000001 cycles: 469679503 heartbeat IPC: 0.0435243 cumulative IPC: 0.0426608 (Simulation time: 25 hr 15 min 37 sec) 
 Total Blocks : 196608 Invalid Blocks : 0 Valid Blocks : 196608
 Total Tags : 491520 Threshold : 12288 Invalid Tags : 196609 Pr0 Tags : 98303 Pr1 Tags : 196608 num_pr0 : 12288
 SAE Count : 0
 Inter-Core Inteference in Data Store : 4633857
Heartbeat CPU 4 instructions: 210000001 cycles: 471446354 heartbeat IPC: 0.0432056 cumulative IPC: 0.0426088 (Simulation time: 25 hr 16 min 50 sec) 
 Total Blocks : 196608 Invalid Blocks : 0 Valid Blocks : 196608
 Total Tags : 491520 Threshold : 12288 Invalid Tags : 196608 Pr0 Tags : 98304 Pr1 Tags : 196608 num_pr0 : 12288
 SAE Count : 0
 Inter-Core Inteference in Data Store : 4670249
Heartbeat CPU 5 instructions: 210000001 cycles: 472169762 heartbeat IPC: 0.0430805 cumulative IPC: 0.0426718 (Simulation time: 25 hr 17 min 22 sec) 
 Total Blocks : 196608 Invalid Blocks : 0 Valid Blocks : 196608
 Total Tags : 491520 Threshold : 12288 Invalid Tags : 196608 Pr0 Tags : 98304 Pr1 Tags : 196608 num_pr0 : 12288
 SAE Count : 0
 Inter-Core Inteference in Data Store : 4685250
Heartbeat CPU 6 instructions: 210000001 cycles: 473403538 heartbeat IPC: 0.0428637 cumulative IPC: 0.0426684 (Simulation time: 25 hr 18 min 18 sec) 
 Total Blocks : 196608 Invalid Blocks : 0 Valid Blocks : 196608
 Total Tags : 491520 Threshold : 12288 Invalid Tags : 196610 Pr0 Tags : 98302 Pr1 Tags : 196608 num_pr0 : 12288
 SAE Count : 0
 Inter-Core Inteference in Data Store : 4710988
Heartbeat CPU 7 instructions: 210000003 cycles: 474329574 heartbeat IPC: 0.0427041 cumulative IPC: 0.0427041 (Simulation time: 25 hr 18 min 58 sec) 
 Total Blocks : 196608 Invalid Blocks : 0 Valid Blocks : 196608
 Total Tags : 491520 Threshold : 12288 Invalid Tags : 196608 Pr0 Tags : 98304 Pr1 Tags : 196608 num_pr0 : 12288
 SAE Count : 0
 Inter-Core Inteference in Data Store : 4730179
Heartbeat CPU 0 instructions: 220000000 cycles: 698911359 heartbeat IPC: 0.0427971 cumulative IPC: 0.0427402 (Simulation time: 27 hr 42 min 3 sec) 
 Total Blocks : 196608 Invalid Blocks : 0 Valid Blocks : 196608
 Total Tags : 491520 Threshold : 12288 Invalid Tags : 196608 Pr0 Tags : 98304 Pr1 Tags : 196608 num_pr0 : 12288
 SAE Count : 0
 Inter-Core Inteference in Data Store : 9360683
Heartbeat CPU 1 instructions: 220000000 cycles: 700348139 heartbeat IPC: 0.0428444 cumulative IPC: 0.0427554 (Simulation time: 27 hr 42 min 51 sec) 
 Total Blocks : 196608 Invalid Blocks : 0 Valid Blocks : 196608
 Total Tags : 491520 Threshold : 12288 Invalid Tags : 196609 Pr0 Tags : 98303 Pr1 Tags : 196608 num_pr0 : 12288
 SAE Count : 0
 Inter-Core Inteference in Data Store : 9392698
Heartbeat CPU 2 instructions: 220000000 cycles: 701555191 heartbeat IPC: 0.0428708 cumulative IPC: 0.0427726 (Simulation time: 27 hr 43 min 32 sec) 
 Total Blocks : 196608 Invalid Blocks : 0 Valid Blocks : 196608
 Total Tags : 491520 Threshold : 12288 Invalid Tags : 196608 Pr0 Tags : 98304 Pr1 Tags : 196608 num_pr0 : 12288
 SAE Count : 0
 Inter-Core Inteference in Data Store : 9419595
Heartbeat CPU 3 instructions: 220000000 cycles: 703977124 heartbeat IPC: 0.0426808 cumulative IPC: 0.0426709 (Simulation time: 27 hr 44 min 56 sec) 
 Total Blocks : 196608 Invalid Blocks : 0 Valid Blocks : 196608
 Total Tags : 491520 Threshold : 12288 Invalid Tags : 196608 Pr0 Tags : 98304 Pr1 Tags : 196608 num_pr0 : 12288
 SAE Count : 0
 Inter-Core Inteference in Data Store : 9473554
Heartbeat CPU 5 instructions: 220000000 cycles: 705022388 heartbeat IPC: 0.0429456 cumulative IPC: 0.0428089 (Simulation time: 27 hr 45 min 32 sec) 
 Total Blocks : 196608 Invalid Blocks : 0 Valid Blocks : 196608
 Total Tags : 491520 Threshold : 12288 Invalid Tags : 196608 Pr0 Tags : 98304 Pr1 Tags : 196608 num_pr0 : 12288
 SAE Count : 0
 Inter-Core Inteference in Data Store : 9496946
Heartbeat CPU 4 instructions: 220000000 cycles: 705410769 heartbeat IPC: 0.0427415 cumulative IPC: 0.0426755 (Simulation time: 27 hr 45 min 44 sec) 
 Total Blocks : 196608 Invalid Blocks : 0 Valid Blocks : 196608
 Total Tags : 491520 Threshold : 12288 Invalid Tags : 196609 Pr0 Tags : 98303 Pr1 Tags : 196608 num_pr0 : 12288
 SAE Count : 0
 Inter-Core Inteference in Data Store : 9505670
Heartbeat CPU 6 instructions: 220000000 cycles: 706255884 heartbeat IPC: 0.0429457 cumulative IPC: 0.0428069 (Simulation time: 27 hr 46 min 11 sec) 
 Total Blocks : 196608 Invalid Blocks : 0 Valid Blocks : 196608
 Total Tags : 491520 Threshold : 12288 Invalid Tags : 196608 Pr0 Tags : 98304 Pr1 Tags : 196608 num_pr0 : 12288
 SAE Count : 0
 Inter-Core Inteference in Data Store : 9524662
Heartbeat CPU 7 instructions: 220000000 cycles: 707501389 heartbeat IPC: 0.0428868 cumulative IPC: 0.0427952 (Simulation time: 27 hr 46 min 52 sec) 
 Total Blocks : 196608 Invalid Blocks : 0 Valid Blocks : 196608
 Total Tags : 491520 Threshold : 12288 Invalid Tags : 196608 Pr0 Tags : 98304 Pr1 Tags : 196608 num_pr0 : 12288
 SAE Count : 0
 Inter-Core Inteference in Data Store : 9552514
Heartbeat CPU 0 instructions: 230000001 cycles: 931670375 heartbeat IPC: 0.0429629 cumulative IPC: 0.0428151 (Simulation time: 29 hr 53 min 7 sec) 
 Total Blocks : 196608 Invalid Blocks : 0 Valid Blocks : 196608
 Total Tags : 491520 Threshold : 12288 Invalid Tags : 196612 Pr0 Tags : 98300 Pr1 Tags : 196608 num_pr0 : 12288
 SAE Count : 0
 Inter-Core Inteference in Data Store : 14378965
Heartbeat CPU 1 instructions: 230000000 cycles: 933467930 heartbeat IPC: 0.0428964 cumulative IPC: 0.0428028 (Simulation time: 29 hr 54 min 5 sec) 
 Total Blocks : 196608 Invalid Blocks : 0 Valid Blocks : 196608
 Total Tags : 491520 Threshold : 12288 Invalid Tags : 196608 Pr0 Tags : 98304 Pr1 Tags : 196608 num_pr0 : 12288
 SAE Count : 0
 Inter-Core Inteference in Data Store : 14418521
Heartbeat CPU 2 instructions: 230000000 cycles: 933978375 heartbeat IPC: 0.043025 cumulative IPC: 0.0428572 (Simulation time: 29 hr 54 min 23 sec) 
 Total Blocks : 196608 Invalid Blocks : 0 Valid Blocks : 196608
 Total Tags : 491520 Threshold : 12288 Invalid Tags : 196608 Pr0 Tags : 98304 Pr1 Tags : 196608 num_pr0 : 12288
 SAE Count : 0
 Inter-Core Inteference in Data Store : 14430112
Heartbeat CPU 3 instructions: 230000001 cycles: 936514275 heartbeat IPC: 0.0430039 cumulative IPC: 0.0427821 (Simulation time: 29 hr 55 min 47 sec) 
 Total Blocks : 196608 Invalid Blocks : 0 Valid Blocks : 196608
 Total Tags : 491520 Threshold : 12288 Invalid Tags : 196609 Pr0 Tags : 98303 Pr1 Tags : 196608 num_pr0 : 12288
 SAE Count : 0
 Inter-Core Inteference in Data Store : 14487174
Heartbeat CPU 4 instructions: 230000000 cycles: 938218054 heartbeat IPC: 0.042954 cumulative IPC: 0.0427684 (Simulation time: 29 hr 56 min 40 sec) 
 Total Blocks : 196608 Invalid Blocks : 0 Valid Blocks : 196608
 Total Tags : 491520 Threshold : 12288 Invalid Tags : 196609 Pr0 Tags : 98303 Pr1 Tags : 196608 num_pr0 : 12287
 SAE Count : 0
 Inter-Core Inteference in Data Store : 14525396
Heartbeat CPU 5 instructions: 230000001 cycles: 938472871 heartbeat IPC: 0.0428356 cumulative IPC: 0.0428179 (Simulation time: 29 hr 56 min 49 sec) 
 Total Blocks : 196608 Invalid Blocks : 0 Valid Blocks : 196608
 Total Tags : 491520 Threshold : 12288 Invalid Tags : 196609 Pr0 Tags : 98303 Pr1 Tags : 196608 num_pr0 : 12288
 SAE Count : 0
 Inter-Core Inteference in Data Store : 14531034
Heartbeat CPU 6 instructions: 230000001 cycles: 939243551 heartbeat IPC: 0.0429207 cumulative IPC: 0.0428449 (Simulation time: 29 hr 57 min 15 sec) 
 Total Blocks : 196608 Invalid Blocks : 0 Valid Blocks : 196608
 Total Tags : 491520 Threshold : 12288 Invalid Tags : 196609 Pr0 Tags : 98303 Pr1 Tags : 196608 num_pr0 : 12288
 SAE Count : 0
 Inter-Core Inteference in Data Store : 14548295
Heartbeat CPU 7 instructions: 230000001 cycles: 940808572 heartbeat IPC: 0.0428619 cumulative IPC: 0.0428175 (Simulation time: 29 hr 58 min 6 sec) 
 Total Blocks : 196608 Invalid Blocks : 0 Valid Blocks : 196608
 Total Tags : 491520 Threshold : 12288 Invalid Tags : 196608 Pr0 Tags : 98304 Pr1 Tags : 196608 num_pr0 : 12288
 SAE Count : 0
 Inter-Core Inteference in Data Store : 14582683
FILL
Heartbeat CPU 0 instructions: 240000002 cycles: 1164626068 heartbeat IPC: 0.0429266 cumulative IPC: 0.0428432 (Simulation time: 32 hr 0 min 49 sec) 
 Total Blocks : 196608 Invalid Blocks : 0 Valid Blocks : 196608
 Total Tags : 491520 Threshold : 12288 Invalid Tags : 196608 Pr0 Tags : 98304 Pr1 Tags : 196608 num_pr0 : 12288
 SAE Count : 0
 Inter-Core Inteference in Data Store : 19472845
Heartbeat CPU 1 instructions: 240000001 cycles: 1165917560 heartbeat IPC: 0.0430201 cumulative IPC: 0.0428574 (Simulation time: 32 hr 1 min 29 sec) 
 Total Blocks : 196608 Invalid Blocks : 0 Valid Blocks : 196608
 Total Tags : 491520 Threshold : 12288 Invalid Tags : 196608 Pr0 Tags : 98304 Pr1 Tags : 196608 num_pr0 : 12288
 SAE Count : 0
 Inter-Core Inteference in Data Store : 19501290
Heartbeat CPU 2 instructions: 240000002 cycles: 1166418219 heartbeat IPC: 0.0430219 cumulative IPC: 0.0428985 (Simulation time: 32 hr 1 min 45 sec) 
 Total Blocks : 196608 Invalid Blocks : 0 Valid Blocks : 196608
 Total Tags : 491520 Threshold : 12288 Invalid Tags : 196609 Pr0 Tags : 98303 Pr1 Tags : 196608 num_pr0 : 12288
 SAE Count : 0
 Inter-Core Inteference in Data Store : 19512415
Heartbeat CPU 3 instructions: 240000002 cycles: 1169043352 heartbeat IPC: 0.0430054 cumulative IPC: 0.042838 (Simulation time: 32 hr 3 min 12 sec) 
 Total Blocks : 196608 Invalid Blocks : 0 Valid Blocks : 196608
 Total Tags : 491520 Threshold : 12288 Invalid Tags : 196608 Pr0 Tags : 98304 Pr1 Tags : 196608 num_pr0 : 12288
 SAE Count : 0
 Inter-Core Inteference in Data Store : 19570499
Heartbeat CPU 5 instructions: 240000002 cycles: 1170808489 heartbeat IPC: 0.0430412 cumulative IPC: 0.0428736 (Simulation time: 32 hr 4 min 9 sec) 
 Total Blocks : 196608 Invalid Blocks : 0 Valid Blocks : 196608
 Total Tags : 491520 Threshold : 12288 Invalid Tags : 196608 Pr0 Tags : 98304 Pr1 Tags : 196608 num_pr0 : 12288
 SAE Count : 0
 Inter-Core Inteference in Data Store : 19609340
Heartbeat CPU 4 instructions: 240000001 cycles: 1171031313 heartbeat IPC: 0.0429529 cumulative IPC: 0.0428145 (Simulation time: 32 hr 4 min 16 sec) 
 Total Blocks : 196608 Invalid Blocks : 0 Valid Blocks : 196608
 Total Tags : 491520 Threshold : 12288 Invalid Tags : 196608 Pr0 Tags : 98304 Pr1 Tags : 196608 num_pr0 : 12288
 SAE Count : 0
 Inter-Core Inteference in Data Store : 19614116
Heartbeat CPU 6 instructions: 240000001 cycles: 1171820037 heartbeat IPC: 0.0429966 cumulative IPC: 0.0428827 (Simulation time: 32 hr 4 min 37 sec) 
 Total Blocks : 196608 Invalid Blocks : 0 Valid Blocks : 196608
 Total Tags : 491520 Threshold : 12288 Invalid Tags : 196608 Pr0 Tags : 98304 Pr1 Tags : 196608 num_pr0 : 12288
 SAE Count : 0
 Inter-Core Inteference in Data Store : 19631564
Heartbeat CPU 7 instructions: 240000001 cycles: 1173585839 heartbeat IPC: 0.0429595 cumulative IPC: 0.0428529 (Simulation time: 32 hr 5 min 35 sec) 
 Total Blocks : 196608 Invalid Blocks : 0 Valid Blocks : 196608
 Total Tags : 491520 Threshold : 12288 Invalid Tags : 196612 Pr0 Tags : 98300 Pr1 Tags : 196608 num_pr0 : 12287
 SAE Count : 0
 Inter-Core Inteference in Data Store : 19670567
Heartbeat CPU 0 instructions: 250000002 cycles: 1397073738 heartbeat IPC: 0.0430204 cumulative IPC: 0.0428788 (Simulation time: 79 hr 22 min 49 sec) 
 Total Blocks : 196608 Invalid Blocks : 0 Valid Blocks : 196608
 Total Tags : 491520 Threshold : 12288 Invalid Tags : 196609 Pr0 Tags : 98303 Pr1 Tags : 196608 num_pr0 : 12288
 SAE Count : 0
 Inter-Core Inteference in Data Store : 24571718
Heartbeat CPU 1 instructions: 250000002 cycles: 1397726089 heartbeat IPC: 0.0431391 cumulative IPC: 0.0429138 (Simulation time: 79 hr 26 min 4 sec) 
 Total Blocks : 196608 Invalid Blocks : 0 Valid Blocks : 196608
 Total Tags : 491520 Threshold : 12288 Invalid Tags : 196608 Pr0 Tags : 98304 Pr1 Tags : 196608 num_pr0 : 12288
 SAE Count : 0
 Inter-Core Inteference in Data Store : 24585739
Heartbeat CPU 2 instructions: 250000002 cycles: 1398666820 heartbeat IPC: 0.0430573 cumulative IPC: 0.0429303 (Simulation time: 79 hr 30 min 40 sec) 
 Total Blocks : 196608 Invalid Blocks : 0 Valid Blocks : 196608
 Total Tags : 491520 Threshold : 12288 Invalid Tags : 196608 Pr0 Tags : 98304 Pr1 Tags : 196608 num_pr0 : 12288
 SAE Count : 0
 Inter-Core Inteference in Data Store : 24606687
Heartbeat CPU 3 instructions: 250000002 cycles: 1401162038 heartbeat IPC: 0.0430814 cumulative IPC: 0.0428866 (Simulation time: 79 hr 42 min 0 sec) 
 Total Blocks : 196608 Invalid Blocks : 0 Valid Blocks : 196608
 Total Tags : 491520 Threshold : 12288 Invalid Tags : 196608 Pr0 Tags : 98304 Pr1 Tags : 196608 num_pr0 : 12288
 SAE Count : 0
 Inter-Core Inteference in Data Store : 24661799
Heartbeat CPU 4 instructions: 250000003 cycles: 1403080118 heartbeat IPC: 0.0430944 cumulative IPC: 0.0428704 (Simulation time: 79 hr 52 min 17 sec) 
 Total Blocks : 196608 Invalid Blocks : 0 Valid Blocks : 196608
 Total Tags : 491520 Threshold : 12288 Invalid Tags : 196608 Pr0 Tags : 98304 Pr1 Tags : 196608 num_pr0 : 12288
 SAE Count : 0
 Inter-Core Inteference in Data Store : 24704200
[...]
LLC4 RFO       ACCESS:  1697  HIT:   145  MISS:  1552  HIT %: 8.54449  MISS %: 91.4555  AVERAGE MISS PENALTY: 686.113
LLC4 PREFETCH  ACCESS: 8779032  HIT: 3459156  MISS: 5319876  HIT %: 39.4025  MISS %: 60.5975  AVERAGE MISS PENALTY: 718.898
LLC4 WRITEBACK ACCESS: 382150  HIT: 74057  MISS: 308093  HIT %: 19.379  MISS %: 80.621  AVERAGE MISS PENALTY: 0
LLC4 PREFETCH  REQUESTED:     0  ISSUED:     0  USEFUL: 1833494  USELESS: 7350148
 USEFUL LOAD PREFETCHES:    1833494 PREFETCH ISSUED TO LOWER LEVEL:  874090289  ACCURACY: 0.20976
 TIMELY PREFETCHES:    1833494 LATE PREFETCHES: 0 DROPPED PREFETCHES: 0
LLC4 AVERAGE MISS LATENCY: 682.783 cycles

LLC4 Set Associative Eviction Count : 0
LLC4 Priority 0 entries : 12288
LLC4 Inter-Core Interference : 12035681
LLC5 TOTAL     ACCESS: 11170659  HIT: 4382500  MISS: 6788159  HIT %: 39.2322  MISS %: 60.7678  AVERAGE MISS PENALTY: 650.991
LLC5 LOAD      ACCESS: 2157075  HIT: 871898  MISS: 1285177  HIT %: 40.4204  MISS %: 59.5796  AVERAGE MISS PENALTY: 657.929
LLC5 RFO       ACCESS:  1698  HIT:   151  MISS:  1547  HIT %: 8.89282  MISS %: 91.1072  AVERAGE MISS PENALTY: 640.445
LLC5 PREFETCH  ACCESS: 8640030  HIT: 3438549  MISS: 5201481  HIT %: 39.7979  MISS %: 60.2021  AVERAGE MISS PENALTY: 686.821
LLC5 WRITEBACK ACCESS: 371856  HIT: 71902  MISS: 299954  HIT %: 19.336  MISS %: 80.664  AVERAGE MISS PENALTY: 0
LLC5 PREFETCH  REQUESTED:     0  ISSUED:     0  USEFUL: 1811800  USELESS: 7217973
 USEFUL LOAD PREFETCHES:    1811800 PREFETCH ISSUED TO LOWER LEVEL:  629951011  ACCURACY: 0.28761
 TIMELY PREFETCHES:    1811800 LATE PREFETCHES: 0 DROPPED PREFETCHES: 0
LLC5 AVERAGE MISS LATENCY: 650.991 cycles

LLC5 Set Associative Eviction Count : 0
LLC5 Priority 0 entries : 12288
LLC5 Inter-Core Interference : 11840695
LLC6 TOTAL     ACCESS: 10962529  HIT: 4335368  MISS: 6627161  HIT %: 39.5472  MISS %: 60.4528  AVERAGE MISS PENALTY: 671.959
LLC6 LOAD      ACCESS: 2123764  HIT: 833101  MISS: 1290663  HIT %: 39.2276  MISS %: 60.7724  AVERAGE MISS PENALTY: 690.278
LLC6 RFO       ACCESS:  1678  HIT:   123  MISS:  1555  HIT %: 7.33015  MISS %: 92.6698  AVERAGE MISS PENALTY: 652.543
LLC6 PREFETCH  ACCESS: 8460679  HIT: 3427824  MISS: 5032855  HIT %: 40.5148  MISS %: 59.4852  AVERAGE MISS PENALTY: 707.6
LLC6 WRITEBACK ACCESS: 376408  HIT: 74320  MISS: 302088  HIT %: 19.7445  MISS %: 80.2555  AVERAGE MISS PENALTY: 0
LLC6 PREFETCH  REQUESTED:     0  ISSUED:     0  USEFUL: 1782113  USELESS: 7101179
 USEFUL LOAD PREFETCHES:    1782113 PREFETCH ISSUED TO LOWER LEVEL: 1234796283  ACCURACY: 0.144324
 TIMELY PREFETCHES:    1782113 LATE PREFETCHES: 0 DROPPED PREFETCHES: 0
LLC6 AVERAGE MISS LATENCY: 671.959 cycles

LLC6 Set Associative Eviction Count : 0
LLC6 Priority 0 entries : 12288
LLC6 Inter-Core Interference : 11706503
LLC7 TOTAL     ACCESS: 10784806  HIT: 4336179  MISS: 6448627  HIT %: 40.2064  MISS %: 59.7936  AVERAGE MISS PENALTY: 643.888
LLC7 LOAD      ACCESS: 2194608  HIT: 894513  MISS: 1300095  HIT %: 40.7596  MISS %: 59.2404  AVERAGE MISS PENALTY: 649.758
LLC7 RFO       ACCESS:  1672  HIT:   120  MISS:  1552  HIT %: 7.17703  MISS %: 92.823  AVERAGE MISS PENALTY: 623.893
LLC7 PREFETCH  ACCESS: 8208648  HIT: 3366802  MISS: 4841846  HIT %: 41.0153  MISS %: 58.9847  AVERAGE MISS PENALTY: 682.896
LLC7 WRITEBACK ACCESS: 379878  HIT: 74744  MISS: 305134  HIT %: 19.6758  MISS %: 80.3242  AVERAGE MISS PENALTY: 0
LLC7 PREFETCH  REQUESTED:     0  ISSUED:     0  USEFUL: 1756872  USELESS: 6992343
 USEFUL LOAD PREFETCHES:    1756872 PREFETCH ISSUED TO LOWER LEVEL:  862236948  ACCURACY: 0.203757
 TIMELY PREFETCHES:    1756872 LATE PREFETCHES: 0 DROPPED PREFETCHES: 0
LLC7 AVERAGE MISS LATENCY: 643.888 cycles

LLC7 Set Associative Eviction Count : 0
LLC7 Priority 0 entries : 12288
LLC7 Inter-Core Interference : 11658883
ROI Average ROB Stall Cycles:	71.2843
ROI Total ROB Stalls Cycles:	4048984970
ROI TOTAL ROB counter      :	56800506
ROI Average Load ROB Stall Cycles:	467.9
ROI Total Load ROB Stalls Cycle  :	3254428175
ROI Total Load ROB stalls Counter:	6955398
Major fault: 0 Minor fault: 37417

CPU 7 cumulative IPC: 0.0484897 instructions: 200000002 cycles: 4124583978
ITLB TOTAL     ACCESS: 32113444  HIT: 32113444  MISS:     0  HIT %:   100  MISS %:     0  AVERAGE MISS PENALTY: 0
ITLB LOAD      ACCESS: 32113444  HIT: 32113444  MISS:     0  HIT %:   100  MISS %:     0  AVERAGE MISS PENALTY: 0
ITLB RFO       ACCESS:     0  HIT:     0  MISS:     0  HIT %:     0  MISS %:     0  AVERAGE MISS PENALTY: 0
ITLB PREFETCH  ACCESS:     0  HIT:     0  MISS:     0  HIT %:     0  MISS %:     0  AVERAGE MISS PENALTY: 0
ITLB WRITEBACK ACCESS:     0  HIT:     0  MISS:     0  HIT %:     0  MISS %:     0  AVERAGE MISS PENALTY: 0
ITLB PREFETCH  REQUESTED:     0  ISSUED:     0  USEFUL:     0  USELESS:     0
 USEFUL LOAD PREFETCHES:          0 PREFETCH ISSUED TO LOWER LEVEL:          0  ACCURACY: -nan
 TIMELY PREFETCHES:          0 LATE PREFETCHES: 0 DROPPED PREFETCHES: 0
ITLB AVERAGE MISS LATENCY: -nan cycles

ITLB Set Associative Eviction Count : 0
ITLB Priority 0 entries : 0
ITLB Inter-Core Interference : 0
DTLB TOTAL     ACCESS: 44225538  HIT: 29693691  MISS: 14531847  HIT %: 67.1415  MISS %: 32.8585  AVERAGE MISS PENALTY: 37.6292
DTLB LOAD      ACCESS: 38530873  HIT: 26457126  MISS: 12073747  HIT %: 68.6647  MISS %: 31.3353  AVERAGE MISS PENALTY: 30.2887
DTLB RFO       ACCESS: 5694665  HIT: 3236565  MISS: 2458100  HIT %: 56.835  MISS %: 43.165  AVERAGE MISS PENALTY: 73.6847
DTLB PREFETCH  ACCESS:     0  HIT:     0  MISS:     0  HIT %:     0  MISS %:     0  AVERAGE MISS PENALTY: 0
DTLB WRITEBACK ACCESS:     0  HIT:     0  MISS:     0  HIT %:     0  MISS %:     0  AVERAGE MISS PENALTY: 0
DTLB PREFETCH  REQUESTED:     0  ISSUED:     0  USEFUL:     0  USELESS:     0
 USEFUL LOAD PREFETCHES:          0 PREFETCH ISSUED TO LOWER LEVEL:          0  ACCURACY: -nan
 TIMELY PREFETCHES:          0 LATE PREFETCHES: 0 DROPPED PREFETCHES: 0
DTLB AVERAGE MISS LATENCY: 37.6292 cycles

DTLB Set Associative Eviction Count : 0
DTLB Priority 0 entries : 0
DTLB Inter-Core Interference : 0
STLB TOTAL     ACCESS: 14531847  HIT: 12306783  MISS: 2225064  HIT %: 84.6884  MISS %: 15.3116  AVERAGE MISS PENALTY: 100
STLB LOAD      ACCESS: 12073747  HIT: 11033817  MISS: 1039930  HIT %: 91.3868  MISS %: 8.61315  AVERAGE MISS PENALTY: 100
STLB RFO       ACCESS: 2458100  HIT: 1272966  MISS: 1185134  HIT %: 51.7866  MISS %: 48.2134  AVERAGE MISS PENALTY: 100
STLB PREFETCH  ACCESS:     0  HIT:     0  MISS:     0  HIT %:     0  MISS %:     0  AVERAGE MISS PENALTY: 0
STLB WRITEBACK ACCESS:     0  HIT:     0  MISS:     0  HIT %:     0  MISS %:     0  AVERAGE MISS PENALTY: 0
STLB PREFETCH  REQUESTED:     0  ISSUED:     0  USEFUL:     0  USELESS:     0
 USEFUL LOAD PREFETCHES:          0 PREFETCH ISSUED TO LOWER LEVEL:          0  ACCURACY: -nan
 TIMELY PREFETCHES:          0 LATE PREFETCHES: 0 DROPPED PREFETCHES: 0
STLB AVERAGE MISS LATENCY: 100 cycles

STLB Set Associative Eviction Count : 0
STLB Priority 0 entries : 0
STLB Inter-Core Interference : 0
L1D TOTAL     ACCESS: 88855338  HIT: 30485106  MISS: 58370232  HIT %: 34.3087  MISS %: 65.6913  AVERAGE MISS PENALTY: 1.56579e+06
L1D LOAD      ACCESS: 40424838  HIT: 22882295  MISS: 17542543  HIT %: 56.6045  MISS %: 43.3955  AVERAGE MISS PENALTY: 5.20882e+06
L1D RFO       ACCESS: 6048359  HIT: 6008929  MISS: 39430  HIT %: 99.3481  MISS %: 0.651912  AVERAGE MISS PENALTY: 247.592
L1D PREFETCH  ACCESS: 42382141  HIT: 1593882  MISS: 40788259  HIT %: 3.76074  MISS %: 96.2393  AVERAGE MISS PENALTY: 477.204
L1D WRITEBACK ACCESS:     0  HIT:     0  MISS:     0  HIT %:     0  MISS %:     0  AVERAGE MISS PENALTY: 0
L1D PREFETCH  REQUESTED: 60208819  ISSUED: 42671471  USEFUL: 916165  USELESS: 39872185
 USEFUL LOAD PREFETCHES:     916165 PREFETCH ISSUED TO LOWER LEVEL:  631055625  ACCURACY: 0.14518
 TIMELY PREFETCHES:     916165 LATE PREFETCHES: 117790 DROPPED PREFETCHES: 17537348
L1D AVERAGE MISS LATENCY: 482.514 cycles

L1D Set Associative Eviction Count : 0
L1D Priority 0 entries : 0
L1D Inter-Core Interference : 0
L1I TOTAL     ACCESS: 47866418  HIT: 47866418  MISS:     0  HIT %:   100  MISS %:     0  AVERAGE MISS PENALTY: 0
L1I LOAD      ACCESS: 47866418  HIT: 47866418  MISS:     0  HIT %:   100  MISS %:     0  AVERAGE MISS PENALTY: 0
L1I RFO       ACCESS:     0  HIT:     0  MISS:     0  HIT %:     0  MISS %:     0  AVERAGE MISS PENALTY: 0
L1I PREFETCH  ACCESS:     0  HIT:     0  MISS:     0  HIT %:     0  MISS %:     0  AVERAGE MISS PENALTY: 0
L1I WRITEBACK ACCESS:     0  HIT:     0  MISS:     0  HIT %:     0  MISS %:     0  AVERAGE MISS PENALTY: 0
L1I PREFETCH  REQUESTED:     0  ISSUED:     0  USEFUL:     0  USELESS:     0
 USEFUL LOAD PREFETCHES:          0 PREFETCH ISSUED TO LOWER LEVEL:          0  ACCURACY: -nan
 TIMELY PREFETCHES:          0 LATE PREFETCHES: 0 DROPPED PREFETCHES: 0
L1I AVERAGE MISS LATENCY: -nan cycles

L1I Set Associative Eviction Count : 0
L1I Priority 0 entries : 0
L1I Inter-Core Interference : 0
L2C TOTAL     ACCESS: 95176977  HIT: 5613359  MISS: 89563618  HIT %: 5.89781  MISS %: 94.1022  AVERAGE MISS PENALTY: 887166
L2C LOAD      ACCESS: 17541611  HIT: 201284  MISS: 17340327  HIT %: 1.14747  MISS %: 98.8525  AVERAGE MISS PENALTY: 4.58024e+06
L2C RFO       ACCESS: 39419  HIT: 26772  MISS: 12647  HIT %: 67.9165  MISS %: 32.0835  AVERAGE MISS PENALTY: 718.673
L2C PREFETCH  ACCESS: 74517267  HIT: 4418949  MISS: 70098318  HIT %: 5.9301  MISS %: 94.0699  AVERAGE MISS PENALTY: 498.427
L2C WRITEBACK ACCESS: 3078680  HIT: 966354  MISS: 2112326  HIT %: 31.3886  MISS %: 68.6114  AVERAGE MISS PENALTY: 0
L2C PREFETCH  REQUESTED: 96377131  ISSUED: 95820184  USEFUL: 94742  USELESS: 70005727
 USEFUL LOAD PREFETCHES:      94742 PREFETCH ISSUED TO LOWER LEVEL:  102886771  ACCURACY: 0.0920838
 TIMELY PREFETCHES:      94742 LATE PREFETCHES: 267622 DROPPED PREFETCHES: 556947
L2C AVERAGE MISS LATENCY: 483.16 cycles

L2C Set Associative Eviction Count : 0
L2C Priority 0 entries : 0
L2C Inter-Core Interference : 0
LLC0 TOTAL     ACCESS: 11502241  HIT: 4476065  MISS: 7026176  HIT %: 38.9147  MISS %: 61.0853  AVERAGE MISS PENALTY: 765.794
LLC0 LOAD      ACCESS: 2164783  HIT: 870280  MISS: 1294503  HIT %: 40.2017  MISS %: 59.7983  AVERAGE MISS PENALTY: 786.879
LLC0 RFO       ACCESS:  1570  HIT:    30  MISS:  1540  HIT %: 1.91083  MISS %: 98.0892  AVERAGE MISS PENALTY: 751.439
LLC0 PREFETCH  ACCESS: 8955242  HIT: 3534240  MISS: 5421002  HIT %: 39.4656  MISS %: 60.5344  AVERAGE MISS PENALTY: 804.432
LLC0 WRITEBACK ACCESS: 380646  HIT: 71515  MISS: 309131  HIT %: 18.7878  MISS %: 81.2122  AVERAGE MISS PENALTY: 0
LLC0 PREFETCH  REQUESTED:     0  ISSUED:     0  USEFUL: 1859589  USELESS: 7720670
 USEFUL LOAD PREFETCHES:    1859589 PREFETCH ISSUED TO LOWER LEVEL:  393764985  ACCURACY: 0.472259
 TIMELY PREFETCHES:    1859589 LATE PREFETCHES: 0 DROPPED PREFETCHES: 0
LLC0 AVERAGE MISS LATENCY: 765.794 cycles

LLC0 Set Associative Eviction Count : 0
LLC0 Priority 0 entries : 12288
LLC0 Inter-Core Interference : 12375437
LLC1 TOTAL     ACCESS: 11685880  HIT: 4496442  MISS: 7189438  HIT %: 38.4776  MISS %: 61.5224  AVERAGE MISS PENALTY: 764.387
LLC1 LOAD      ACCESS: 2102965  HIT: 818997  MISS: 1283968  HIT %: 38.9449  MISS %: 61.0551  AVERAGE MISS PENALTY: 786.111
LLC1 RFO       ACCESS:  1593  HIT:    53  MISS:  1540  HIT %: 3.32706  MISS %: 96.6729  AVERAGE MISS PENALTY: 751.63
LLC1 PREFETCH  ACCESS: 9197426  HIT: 3605210  MISS: 5592216  HIT %: 39.198  MISS %: 60.802  AVERAGE MISS PENALTY: 802.01
LLC1 WRITEBACK ACCESS: 383896  HIT: 72182  MISS: 311714  HIT %: 18.8025  MISS %: 81.1975  AVERAGE MISS PENALTY: 0
LLC1 PREFETCH  REQUESTED:     0  ISSUED:     0  USEFUL: 1864237  USELESS: 7878862
 USEFUL LOAD PREFETCHES:    1864237 PREFETCH ISSUED TO LOWER LEVEL:  311441991  ACCURACY: 0.598582
 TIMELY PREFETCHES:    1864237 LATE PREFETCHES: 0 DROPPED PREFETCHES: 0
LLC1 AVERAGE MISS LATENCY: 764.387 cycles

LLC1 Set Associative Eviction Count : 0
LLC1 Priority 0 entries : 12288
LLC1 Inter-Core Interference : 12505911
LLC2 TOTAL     ACCESS: 11690663  HIT: 4494412  MISS: 7196251  HIT %: 38.4445  MISS %: 61.5555  AVERAGE MISS PENALTY: 755.417
LLC2 LOAD      ACCESS: 2271258  HIT: 958443  MISS: 1312815  HIT %: 42.1988  MISS %: 57.8012  AVERAGE MISS PENALTY: 785.162
LLC2 RFO       ACCESS:  1589  HIT:    43  MISS:  1546  HIT %: 2.7061  MISS %: 97.2939  AVERAGE MISS PENALTY: 721.6
LLC2 PREFETCH  ACCESS: 9035760  HIT: 3463802  MISS: 5571958  HIT %: 38.3344  MISS %: 61.6656  AVERAGE MISS PENALTY: 790.436
LLC2 WRITEBACK ACCESS: 382056  HIT: 72124  MISS: 309932  HIT %: 18.8779  MISS %: 81.1221  AVERAGE MISS PENALTY: 0
LLC2 PREFETCH  REQUESTED:     0  ISSUED:     0  USEFUL: 1857301  USELESS: 7700880
 USEFUL LOAD PREFETCHES:    1857301 PREFETCH ISSUED TO LOWER LEVEL:  597180093  ACCURACY: 0.311012
 TIMELY PREFETCHES:    1857301 LATE PREFETCHES: 0 DROPPED PREFETCHES: 0
LLC2 AVERAGE MISS LATENCY: 755.416 cycles

LLC2 Set Associative Eviction Count : 0
LLC2 Priority 0 entries : 12288
LLC2 Inter-Core Interference : 12431662
LLC3 TOTAL     ACCESS: 11373220  HIT: 4339584  MISS: 7033636  HIT %: 38.1562  MISS %: 61.8438  AVERAGE MISS PENALTY: 755.206
LLC3 LOAD      ACCESS: 2132273  HIT: 828295  MISS: 1303978  HIT %: 38.8456  MISS %: 61.1544  AVERAGE MISS PENALTY: 784.188
LLC3 RFO       ACCESS:  1581  HIT:    41  MISS:  1540  HIT %: 2.5933  MISS %: 97.4067  AVERAGE MISS PENALTY: 750.043
LLC3 PREFETCH  ACCESS: 8858383  HIT: 3437724  MISS: 5420659  HIT %: 38.8076  MISS %: 61.1924  AVERAGE MISS PENALTY: 791.071
LLC3 WRITEBACK ACCESS: 380983  HIT: 73524  MISS: 307459  HIT %: 19.2985  MISS %: 80.7015  AVERAGE MISS PENALTY: 0
LLC3 PREFETCH  REQUESTED:     0  ISSUED:     0  USEFUL: 1845134  USELESS: 7457349
 USEFUL LOAD PREFETCHES:    1845134 PREFETCH ISSUED TO LOWER LEVEL:  443349634  ACCURACY: 0.41618
 TIMELY PREFETCHES:    1845134 LATE PREFETCHES: 0 DROPPED PREFETCHES: 0
LLC3 AVERAGE MISS LATENCY: 755.206 cycles

LLC3 Set Associative Eviction Count : 0
LLC3 Priority 0 entries : 12288
LLC3 Inter-Core Interference : 12117470
LLC4 TOTAL     ACCESS: 11315735  HIT: 4373531  MISS: 6942204  HIT %: 38.65  MISS %: 61.35  AVERAGE MISS PENALTY: 682.93
LLC4 LOAD      ACCESS: 2152209  HIT: 840936  MISS: 1311273  HIT %: 39.0732  MISS %: 60.9268  AVERAGE MISS PENALTY: 696.495
LLC4 RFO       ACCESS:  1587  HIT:    46  MISS:  1541  HIT %: 2.89855  MISS %: 97.1014  AVERAGE MISS PENALTY: 680.393
LLC4 PREFETCH  ACCESS: 8779872  HIT: 3458920  MISS: 5320952  HIT %: 39.396  MISS %: 60.604  AVERAGE MISS PENALTY: 719.175
LLC4 WRITEBACK ACCESS: 382067  HIT: 73629  MISS: 308438  HIT %: 19.2712  MISS %: 80.7288  AVERAGE MISS PENALTY: 0
LLC4 PREFETCH  REQUESTED:     0  ISSUED:     0  USEFUL: 1833494  USELESS: 7350148
 USEFUL LOAD PREFETCHES:    1833494 PREFETCH ISSUED TO LOWER LEVEL:  874090289  ACCURACY: 0.20976
 TIMELY PREFETCHES:    1833494 LATE PREFETCHES: 0 DROPPED PREFETCHES: 0
LLC4 AVERAGE MISS LATENCY: 682.93 cycles

LLC4 Set Associative Eviction Count : 0
LLC4 Priority 0 entries : 12288
LLC4 Inter-Core Interference : 12035681
LLC5 TOTAL     ACCESS: 11171043  HIT: 4381635  MISS: 6789408  HIT %: 39.2232  MISS %: 60.7768  AVERAGE MISS PENALTY: 650.661
LLC5 LOAD      ACCESS: 2157438  HIT: 871799  MISS: 1285639  HIT %: 40.409  MISS %: 59.591  AVERAGE MISS PENALTY: 657.906
LLC5 RFO       ACCESS:  1575  HIT:    40  MISS:  1535  HIT %: 2.53968  MISS %: 97.4603  AVERAGE MISS PENALTY: 615.713
LLC5 PREFETCH  ACCESS: 8640274  HIT: 3437851  MISS: 5202423  HIT %: 39.7887  MISS %: 60.2113  AVERAGE MISS PENALTY: 686.378
LLC5 WRITEBACK ACCESS: 371756  HIT: 71945  MISS: 299811  HIT %: 19.3527  MISS %: 80.6473  AVERAGE MISS PENALTY: 0
LLC5 PREFETCH  REQUESTED:     0  ISSUED:     0  USEFUL: 1811800  USELESS: 7217973
 USEFUL LOAD PREFETCHES:    1811800 PREFETCH ISSUED TO LOWER LEVEL:  629951011  ACCURACY: 0.28761
 TIMELY PREFETCHES:    1811800 LATE PREFETCHES: 0 DROPPED PREFETCHES: 0
LLC5 AVERAGE MISS LATENCY: 650.661 cycles

LLC5 Set Associative Eviction Count : 0
LLC5 Priority 0 entries : 12288
LLC5 Inter-Core Interference : 11840695
LLC6 TOTAL     ACCESS: 10962679  HIT: 4334564  MISS: 6628115  HIT %: 39.5393  MISS %: 60.4607  AVERAGE MISS PENALTY: 671.758
LLC6 LOAD      ACCESS: 2124055  HIT: 833004  MISS: 1291051  HIT %: 39.2176  MISS %: 60.7824  AVERAGE MISS PENALTY: 690.602
LLC6 RFO       ACCESS:  1575  HIT:    34  MISS:  1541  HIT %: 2.15873  MISS %: 97.8413  AVERAGE MISS PENALTY: 668.223
LLC6 PREFETCH  ACCESS: 8460759  HIT: 3427826  MISS: 5032933  HIT %: 40.5144  MISS %: 59.4856  AVERAGE MISS PENALTY: 707.312
LLC6 WRITEBACK ACCESS: 376290  HIT: 73700  MISS: 302590  HIT %: 19.586  MISS %: 80.414  AVERAGE MISS PENALTY: 0
LLC6 PREFETCH  REQUESTED:     0  ISSUED:     0  USEFUL: 1782113  USELESS: 7101179
 USEFUL LOAD PREFETCHES:    1782113 PREFETCH ISSUED TO LOWER LEVEL: 1234796283  ACCURACY: 0.144324
 TIMELY PREFETCHES:    1782113 LATE PREFETCHES: 0 DROPPED PREFETCHES: 0
LLC6 AVERAGE MISS LATENCY: 671.758 cycles

LLC6 Set Associative Eviction Count : 0
LLC6 Priority 0 entries : 12288
LLC6 Inter-Core Interference : 11706503
LLC7 TOTAL     ACCESS: 10787313  HIT: 4337023  MISS: 6450290  HIT %: 40.2048  MISS %: 59.7952  AVERAGE MISS PENALTY: 643.76
LLC7 LOAD      ACCESS: 2194894  HIT: 894402  MISS: 1300492  HIT %: 40.7492  MISS %: 59.2508  AVERAGE MISS PENALTY: 649.734
LLC7 RFO       ACCESS:  1577  HIT:    35  MISS:  1542  HIT %: 2.2194  MISS %: 97.7806  AVERAGE MISS PENALTY: 611.661
LLC7 PREFETCH  ACCESS: 8211054  HIT: 3367768  MISS: 4843286  HIT %: 41.0151  MISS %: 58.9849  AVERAGE MISS PENALTY: 682.703
LLC7 WRITEBACK ACCESS: 379788  HIT: 74818  MISS: 304970  HIT %: 19.6999  MISS %: 80.3001  AVERAGE MISS PENALTY: 0
LLC7 PREFETCH  REQUESTED:     0  ISSUED:     0  USEFUL: 1756872  USELESS: 6992343
 USEFUL LOAD PREFETCHES:    1756872 PREFETCH ISSUED TO LOWER LEVEL:  862236948  ACCURACY: 0.203757
 TIMELY PREFETCHES:    1756872 LATE PREFETCHES: 0 DROPPED PREFETCHES: 0
LLC7 AVERAGE MISS LATENCY: 643.76 cycles

LLC7 Set Associative Eviction Count : 0
LLC7 Priority 0 entries : 12288
LLC7 Inter-Core Interference : 11658883
ROI Average ROB Stall Cycles:	71.3223
ROI Total ROB Stalls Cycles:	4051528171
ROI TOTAL ROB counter      :	56805899
ROI Average Load ROB Stall Cycles:	468.271
ROI Total Load ROB Stalls Cycle  :	3256761228
ROI Total Load ROB stalls Counter:	6954866
Major fault: 0 Minor fault: 37417








Interconnect Stats 
LINK 0 BW : 0LINK 1 BW : 0LINK 2 BW : 0LINK 3 BW : 0LINK 4 BW : 0LINK 5 BW : 0LINK 6 BW : 0LINK 7 BW : 0
DRAM Statistics
 CHANNEL 0
 RQ ROW_BUFFER_HIT: 62522300  ROW_BUFFER_MISS: 149927482
 DBUS_CONGESTED: 117871040
 WQ ROW_BUFFER_HIT: 416275  ROW_BUFFER_MISS: 10163354  FULL:     0

 CHANNEL 1
 RQ ROW_BUFFER_HIT: 61071190  ROW_BUFFER_MISS: 148830288
 DBUS_CONGESTED: 117871040
 WQ ROW_BUFFER_HIT: 415542  ROW_BUFFER_MISS: 10127982  FULL:     0

 AVG_CONGESTED_CYCLE: 5
DRAM PAGES: 2097152
Allocated PAGES: 299336
L2C destructor called
L1D destructor called
L1I destructor called
STLB destructor called
DTLB destructor called
ITLB destructor called
L2C destructor called
L1D destructor called
L1I destructor called
STLB destructor called
DTLB destructor called
ITLB destructor called
L2C destructor called
L1D destructor called
L1I destructor called
STLB destructor called
DTLB destructor called
ITLB destructor called
L2C destructor called
L1D destructor called
L1I destructor called
STLB destructor called
DTLB destructor called
ITLB destructor called
L2C destructor called
L1D destructor called
L1I destructor called
STLB destructor called
DTLB destructor called
ITLB destructor called
L2C destructor called
L1D destructor called
L1I destructor called
STLB destructor called
DTLB destructor called
ITLB destructor called
L2C destructor called
L1D destructor called
L1I destructor called
STLB destructor called
DTLB destructor called
ITLB destructor called
L2C destructor called
L1D destructor called
L1I destructor called
STLB destructor called
DTLB destructor called
ITLB destructor called
