
*** ChampSim Multicore Out-of-Order Simulator ***

Warmup Instructions: 200000000
Simulation Instructions: 200000000
Number of CPUs: 8
threads:1

L1I Configuration:
L1I_SET:64
L1I_WAY:8
L1I_RQ_SIZE:64
L1I_WQ_SIZE:64
L1I_PQ_SIZE:8
L1I_MSHR_SIZE:8

L1D Configuration:
L1D_SET:64
L1D_WAY:12
L1D_RQ_SIZE:64
L1D_WQ_SIZE:64
L1D_PQ_SIZE:8
L1D_MSHR_SIZE:16

L2C Configuration:
L2C_SET:1024
L2C_WAY:8
L2C_RQ_SIZE:32
L2C_WQ_SIZE:32
L2C_PQ_SIZE:16
L2C_MSHR_SIZE:32

LLC Configuration:
LLC_SET:2048
LLC_WAY:12
LLC SLICES:8
LLC_RQ_SIZE:64
LLC_WQ_SIZE:64
LLC_PQ_SIZE:32
LLC_MSHR_SIZE:64

Interconnect OFF
Attacker deprioritize is: OFF
Off-chip DRAM Size: 8192 MB Channels: 2 Width: 64-bit Data Rate: 3200 MT/s
PAGE SIZE in KB: 4.000000 
PAGE SIZE in MB: 0.003906 
PAGE offset in bits: 12 
CEASER-S_LLC:0
MIRAGE : 1
CEASER_LATENCY:3
REMAP : OFF
Partitions : 1
Multi-Step : OFF
BFS : OFF

CPU 0 runs /home/anubhav/gap/bc-3.trace.gz
CPU 1 runs /home/anubhav/gap/bc-3.trace.gz
CPU 2 runs /home/anubhav/gap/bc-3.trace.gz
CPU 3 runs /home/anubhav/gap/bc-3.trace.gz
CPU 4 runs /home/anubhav/gap/bc-3.trace.gz
CPU 5 runs /home/anubhav/gap/bc-3.trace.gz
CPU 6 runs /home/anubhav/gap/bc-3.trace.gz
CPU 7 runs /home/anubhav/gap/bc-3.trace.gz
CPU 0 Bimodal branch predictor
Initialize Hawkeye state
Initialize Hawkeye state
Initialize Hawkeye state
Initialize Hawkeye state
Initialize Hawkeye state
Initialize Hawkeye state
Initialize Hawkeye state
Initialize Hawkeye state
CPU 1 Bimodal branch predictor
Initialize Hawkeye state
Initialize Hawkeye state
Initialize Hawkeye state
Initialize Hawkeye state
Initialize Hawkeye state
Initialize Hawkeye state
Initialize Hawkeye state
Initialize Hawkeye state
CPU 2 Bimodal branch predictor
Initialize Hawkeye state
Initialize Hawkeye state
Initialize Hawkeye state
Initialize Hawkeye state
Initialize Hawkeye state
Initialize Hawkeye state
Initialize Hawkeye state
Initialize Hawkeye state
CPU 3 Bimodal branch predictor
Initialize Hawkeye state
Initialize Hawkeye state
Initialize Hawkeye state
Initialize Hawkeye state
Initialize Hawkeye state
Initialize Hawkeye state
Initialize Hawkeye state
Initialize Hawkeye state
CPU 4 Bimodal branch predictor
Initialize Hawkeye state
Initialize Hawkeye state
Initialize Hawkeye state
Initialize Hawkeye state
Initialize Hawkeye state
Initialize Hawkeye state
Initialize Hawkeye state
Initialize Hawkeye state
CPU 5 Bimodal branch predictor
Initialize Hawkeye state
Initialize Hawkeye state
Initialize Hawkeye state
Initialize Hawkeye state
Initialize Hawkeye state
Initialize Hawkeye state
Initialize Hawkeye state
Initialize Hawkeye state
CPU 6 Bimodal branch predictor
Initialize Hawkeye state
Initialize Hawkeye state
Initialize Hawkeye state
Initialize Hawkeye state
Initialize Hawkeye state
Initialize Hawkeye state
Initialize Hawkeye state
Initialize Hawkeye state
CPU 7 Bimodal branch predictor
Initialize Hawkeye state
Initialize Hawkeye state
Initialize Hawkeye state
Initialize Hawkeye state
Initialize Hawkeye state
Initialize Hawkeye state
Initialize Hawkeye state
Initialize Hawkeye state
FILL
Heartbeat CPU 0 instructions: 10000001 cycles: 7916668 heartbeat IPC: 1.26316 cumulative IPC: 1.26316 (Simulation time: 1 hr 2 min 52 sec) 
 Total Blocks : 196608 Invalid Blocks : 0 Valid Blocks : 196608
 Total Tags : 491520 Threshold : 12288 Invalid Tags : 196610 Pr0 Tags : 98302 Pr1 Tags : 196608 num_pr0 : 12287
 SAE Count : 0
 Inter-Core Inteference in Data Store : 3770440
Heartbeat CPU 1 instructions: 10000001 cycles: 7917695 heartbeat IPC: 1.26299 cumulative IPC: 1.26299 (Simulation time: 1 hr 2 min 52 sec) 
 Total Blocks : 196608 Invalid Blocks : 0 Valid Blocks : 196608
 Total Tags : 491520 Threshold : 12288 Invalid Tags : 196609 Pr0 Tags : 98303 Pr1 Tags : 196608 num_pr0 : 12288
 SAE Count : 0
 Inter-Core Inteference in Data Store : 3770597
Heartbeat CPU 2 instructions: 10000001 cycles: 7918209 heartbeat IPC: 1.26291 cumulative IPC: 1.26291 (Simulation time: 1 hr 2 min 52 sec) 
 Total Blocks : 196608 Invalid Blocks : 0 Valid Blocks : 196608
 Total Tags : 491520 Threshold : 12288 Invalid Tags : 196611 Pr0 Tags : 98301 Pr1 Tags : 196608 num_pr0 : 12288
 SAE Count : 0
 Inter-Core Inteference in Data Store : 3770662
Heartbeat CPU 3 instructions: 10000001 cycles: 7919383 heartbeat IPC: 1.26272 cumulative IPC: 1.26272 (Simulation time: 1 hr 2 min 52 sec) 
 Total Blocks : 196608 Invalid Blocks : 0 Valid Blocks : 196608
 Total Tags : 491520 Threshold : 12288 Invalid Tags : 196609 Pr0 Tags : 98303 Pr1 Tags : 196608 num_pr0 : 12288
 SAE Count : 0
 Inter-Core Inteference in Data Store : 3770824
Heartbeat CPU 4 instructions: 10000001 cycles: 7919439 heartbeat IPC: 1.26272 cumulative IPC: 1.26272 (Simulation time: 1 hr 2 min 52 sec) 
 Total Blocks : 196608 Invalid Blocks : 0 Valid Blocks : 196608
 Total Tags : 491520 Threshold : 12288 Invalid Tags : 196608 Pr0 Tags : 98304 Pr1 Tags : 196608 num_pr0 : 12288
 SAE Count : 0
 Inter-Core Inteference in Data Store : 3770827
Heartbeat CPU 5 instructions: 10000001 cycles: 7920158 heartbeat IPC: 1.2626 cumulative IPC: 1.2626 (Simulation time: 1 hr 2 min 53 sec) 
 Total Blocks : 196608 Invalid Blocks : 0 Valid Blocks : 196608
 Total Tags : 491520 Threshold : 12288 Invalid Tags : 196608 Pr0 Tags : 98304 Pr1 Tags : 196608 num_pr0 : 12288
 SAE Count : 0
 Inter-Core Inteference in Data Store : 3770916
Heartbeat CPU 6 instructions: 10000001 cycles: 7920820 heartbeat IPC: 1.2625 cumulative IPC: 1.2625 (Simulation time: 1 hr 2 min 53 sec) 
 Total Blocks : 196608 Invalid Blocks : 0 Valid Blocks : 196608
 Total Tags : 491520 Threshold : 12288 Invalid Tags : 196608 Pr0 Tags : 98304 Pr1 Tags : 196608 num_pr0 : 12288
 SAE Count : 0
 Inter-Core Inteference in Data Store : 3770991
Heartbeat CPU 7 instructions: 10000001 cycles: 7921208 heartbeat IPC: 1.26243 cumulative IPC: 1.26243 (Simulation time: 1 hr 2 min 53 sec) 
 Total Blocks : 196608 Invalid Blocks : 0 Valid Blocks : 196608
 Total Tags : 491520 Threshold : 12288 Invalid Tags : 196610 Pr0 Tags : 98302 Pr1 Tags : 196608 num_pr0 : 12288
 SAE Count : 0
 Inter-Core Inteference in Data Store : 3771061
Heartbeat CPU 0 instructions: 20000002 cycles: 19890310 heartbeat IPC: 0.835168 cumulative IPC: 1.00551 (Simulation time: 2 hr 2 min 17 sec) 
 Total Blocks : 196608 Invalid Blocks : 0 Valid Blocks : 196608
 Total Tags : 491520 Threshold : 12288 Invalid Tags : 196608 Pr0 Tags : 98304 Pr1 Tags : 196608 num_pr0 : 12288
 SAE Count : 0
 Inter-Core Inteference in Data Store : 6931439
Heartbeat CPU 1 instructions: 20000002 cycles: 19892997 heartbeat IPC: 0.835052 cumulative IPC: 1.00538 (Simulation time: 2 hr 2 min 19 sec) 
 Total Blocks : 196608 Invalid Blocks : 0 Valid Blocks : 196608
 Total Tags : 491520 Threshold : 12288 Invalid Tags : 196609 Pr0 Tags : 98303 Pr1 Tags : 196608 num_pr0 : 12288
 SAE Count : 0
 Inter-Core Inteference in Data Store : 6932175
Heartbeat CPU 2 instructions: 20000000 cycles: 19896144 heartbeat IPC: 0.834868 cumulative IPC: 1.00522 (Simulation time: 2 hr 2 min 21 sec) 
 Total Blocks : 196608 Invalid Blocks : 0 Valid Blocks : 196608
 Total Tags : 491520 Threshold : 12288 Invalid Tags : 196609 Pr0 Tags : 98303 Pr1 Tags : 196608 num_pr0 : 12288
 SAE Count : 0
 Inter-Core Inteference in Data Store : 6932986
Heartbeat CPU 3 instructions: 20000002 cycles: 19899702 heartbeat IPC: 0.834702 cumulative IPC: 1.00504 (Simulation time: 2 hr 2 min 22 sec) 
 Total Blocks : 196608 Invalid Blocks : 0 Valid Blocks : 196608
 Total Tags : 491520 Threshold : 12288 Invalid Tags : 196608 Pr0 Tags : 98304 Pr1 Tags : 196608 num_pr0 : 12288
 SAE Count : 0
 Inter-Core Inteference in Data Store : 6934020
Heartbeat CPU 4 instructions: 20000002 cycles: 19901051 heartbeat IPC: 0.834612 cumulative IPC: 1.00497 (Simulation time: 2 hr 2 min 22 sec) 
 Total Blocks : 196608 Invalid Blocks : 0 Valid Blocks : 196608
 Total Tags : 491520 Threshold : 12288 Invalid Tags : 196609 Pr0 Tags : 98303 Pr1 Tags : 196608 num_pr0 : 12288
 SAE Count : 0
 Inter-Core Inteference in Data Store : 6934408
Heartbeat CPU 5 instructions: 20000002 cycles: 19904157 heartbeat IPC: 0.834446 cumulative IPC: 1.00482 (Simulation time: 2 hr 2 min 23 sec) 
 Total Blocks : 196608 Invalid Blocks : 0 Valid Blocks : 196608
 Total Tags : 491520 Threshold : 12288 Invalid Tags : 196608 Pr0 Tags : 98304 Pr1 Tags : 196608 num_pr0 : 12288
 SAE Count : 0
 Inter-Core Inteference in Data Store : 6935410
Heartbeat CPU 6 instructions: 20000002 cycles: 19906889 heartbeat IPC: 0.834302 cumulative IPC: 1.00468 (Simulation time: 2 hr 2 min 24 sec) 
 Total Blocks : 196608 Invalid Blocks : 0 Valid Blocks : 196608
 Total Tags : 491520 Threshold : 12288 Invalid Tags : 196609 Pr0 Tags : 98303 Pr1 Tags : 196608 num_pr0 : 12288
 SAE Count : 0
 Inter-Core Inteference in Data Store : 6936304
Heartbeat CPU 7 instructions: 20000002 cycles: 19908163 heartbeat IPC: 0.83424 cumulative IPC: 1.00461 (Simulation time: 2 hr 2 min 25 sec) 
 Total Blocks : 196608 Invalid Blocks : 0 Valid Blocks : 196608
 Total Tags : 491520 Threshold : 12288 Invalid Tags : 196608 Pr0 Tags : 98304 Pr1 Tags : 196608 num_pr0 : 12288
 SAE Count : 0
 Inter-Core Inteference in Data Store : 6936732
Heartbeat CPU 0 instructions: 30000001 cycles: 30373891 heartbeat IPC: 0.953872 cumulative IPC: 0.98769 (Simulation time: 3 hr 10 min 56 sec) 
 Total Blocks : 196608 Invalid Blocks : 0 Valid Blocks : 196608
 Total Tags : 491520 Threshold : 12288 Invalid Tags : 196610 Pr0 Tags : 98302 Pr1 Tags : 196608 num_pr0 : 12287
 SAE Count : 0
 Inter-Core Inteference in Data Store : 11360267
Heartbeat CPU 1 instructions: 30000001 cycles: 30380643 heartbeat IPC: 0.953503 cumulative IPC: 0.987471 (Simulation time: 3 hr 10 min 59 sec) 
 Total Blocks : 196608 Invalid Blocks : 0 Valid Blocks : 196608
 Total Tags : 491520 Threshold : 12288 Invalid Tags : 196609 Pr0 Tags : 98303 Pr1 Tags : 196608 num_pr0 : 12288
 SAE Count : 0
 Inter-Core Inteference in Data Store : 11363256
Heartbeat CPU 2 instructions: 30000001 cycles: 30386901 heartbeat IPC: 0.95322 cumulative IPC: 0.987268 (Simulation time: 3 hr 11 min 1 sec) 
 Total Blocks : 196608 Invalid Blocks : 0 Valid Blocks : 196608
 Total Tags : 491520 Threshold : 12288 Invalid Tags : 196610 Pr0 Tags : 98302 Pr1 Tags : 196608 num_pr0 : 12288
 SAE Count : 0
 Inter-Core Inteference in Data Store : 11366010
Heartbeat CPU 3 instructions: 30000001 cycles: 30394018 heartbeat IPC: 0.952897 cumulative IPC: 0.987036 (Simulation time: 3 hr 11 min 4 sec) 
 Total Blocks : 196608 Invalid Blocks : 0 Valid Blocks : 196608
 Total Tags : 491520 Threshold : 12288 Invalid Tags : 196608 Pr0 Tags : 98304 Pr1 Tags : 196608 num_pr0 : 12288
 SAE Count : 0
 Inter-Core Inteference in Data Store : 11369127
Heartbeat CPU 4 instructions: 30000001 cycles: 30398636 heartbeat IPC: 0.9526 cumulative IPC: 0.986886 (Simulation time: 3 hr 11 min 6 sec) 
 Total Blocks : 196608 Invalid Blocks : 0 Valid Blocks : 196608
 Total Tags : 491520 Threshold : 12288 Invalid Tags : 196609 Pr0 Tags : 98303 Pr1 Tags : 196608 num_pr0 : 12288
 SAE Count : 0
 Inter-Core Inteference in Data Store : 11371094
Heartbeat CPU 5 instructions: 30000001 cycles: 30405292 heartbeat IPC: 0.952278 cumulative IPC: 0.98667 (Simulation time: 3 hr 11 min 9 sec) 
 Total Blocks : 196608 Invalid Blocks : 0 Valid Blocks : 196608
 Total Tags : 491520 Threshold : 12288 Invalid Tags : 196609 Pr0 Tags : 98303 Pr1 Tags : 196608 num_pr0 : 12288
 SAE Count : 0
 Inter-Core Inteference in Data Store : 11374060
Heartbeat CPU 6 instructions: 30000001 cycles: 30410383 heartbeat IPC: 0.952064 cumulative IPC: 0.986505 (Simulation time: 3 hr 11 min 11 sec) 
 Total Blocks : 196608 Invalid Blocks : 0 Valid Blocks : 196608
 Total Tags : 491520 Threshold : 12288 Invalid Tags : 196609 Pr0 Tags : 98303 Pr1 Tags : 196608 num_pr0 : 12288
 SAE Count : 0
 Inter-Core Inteference in Data Store : 11376316
Heartbeat CPU 7 instructions: 30000001 cycles: 30415080 heartbeat IPC: 0.951754 cumulative IPC: 0.986353 (Simulation time: 3 hr 11 min 12 sec) 
 Total Blocks : 196608 Invalid Blocks : 0 Valid Blocks : 196608
 Total Tags : 491520 Threshold : 12288 Invalid Tags : 196609 Pr0 Tags : 98303 Pr1 Tags : 196608 num_pr0 : 12288
 SAE Count : 0
 Inter-Core Inteference in Data Store : 11378499
Heartbeat CPU 0 instructions: 40000003 cycles: 40417828 heartbeat IPC: 0.995626 cumulative IPC: 0.989662 (Simulation time: 4 hr 20 min 55 sec) 
 Total Blocks : 196608 Invalid Blocks : 0 Valid Blocks : 196608
 Total Tags : 491520 Threshold : 12288 Invalid Tags : 196608 Pr0 Tags : 98304 Pr1 Tags : 196608 num_pr0 : 12288
 SAE Count : 0
 Inter-Core Inteference in Data Store : 16196827
Heartbeat CPU 1 instructions: 40000003 cycles: 40429069 heartbeat IPC: 0.995181 cumulative IPC: 0.989387 (Simulation time: 4 hr 20 min 59 sec) 
 Total Blocks : 196608 Invalid Blocks : 0 Valid Blocks : 196608
 Total Tags : 491520 Threshold : 12288 Invalid Tags : 196608 Pr0 Tags : 98304 Pr1 Tags : 196608 num_pr0 : 12288
 SAE Count : 0
 Inter-Core Inteference in Data Store : 16202152
Heartbeat CPU 2 instructions: 40000003 cycles: 40439170 heartbeat IPC: 0.9948 cumulative IPC: 0.98914 (Simulation time: 4 hr 21 min 3 sec) 
 Total Blocks : 196608 Invalid Blocks : 0 Valid Blocks : 196608
 Total Tags : 491520 Threshold : 12288 Invalid Tags : 196608 Pr0 Tags : 98304 Pr1 Tags : 196608 num_pr0 : 12288
 SAE Count : 0
 Inter-Core Inteference in Data Store : 16207053
Heartbeat CPU 3 instructions: 40000003 cycles: 40450487 heartbeat IPC: 0.994385 cumulative IPC: 0.988863 (Simulation time: 4 hr 21 min 7 sec) 
 Total Blocks : 196608 Invalid Blocks : 0 Valid Blocks : 196608
 Total Tags : 491520 Threshold : 12288 Invalid Tags : 196608 Pr0 Tags : 98304 Pr1 Tags : 196608 num_pr0 : 12288
 SAE Count : 0
 Inter-Core Inteference in Data Store : 16212359
Heartbeat CPU 4 instructions: 40000003 cycles: 40457605 heartbeat IPC: 0.994138 cumulative IPC: 0.988689 (Simulation time: 4 hr 21 min 10 sec) 
 Total Blocks : 196608 Invalid Blocks : 0 Valid Blocks : 196608
 Total Tags : 491520 Threshold : 12288 Invalid Tags : 196609 Pr0 Tags : 98303 Pr1 Tags : 196608 num_pr0 : 12288
 SAE Count : 0
 Inter-Core Inteference in Data Store : 16215678
Heartbeat CPU 5 instructions: 40000003 cycles: 40468344 heartbeat IPC: 0.993734 cumulative IPC: 0.988427 (Simulation time: 4 hr 21 min 13 sec) 
 Total Blocks : 196608 Invalid Blocks : 0 Valid Blocks : 196608
 Total Tags : 491520 Threshold : 12288 Invalid Tags : 196608 Pr0 Tags : 98304 Pr1 Tags : 196608 num_pr0 : 12288
 SAE Count : 0
 Inter-Core Inteference in Data Store : 16220591
Heartbeat CPU 6 instructions: 40000003 cycles: 40476526 heartbeat IPC: 0.993429 cumulative IPC: 0.988227 (Simulation time: 4 hr 21 min 16 sec) 
 Total Blocks : 196608 Invalid Blocks : 0 Valid Blocks : 196608
 Total Tags : 491520 Threshold : 12288 Invalid Tags : 196608 Pr0 Tags : 98304 Pr1 Tags : 196608 num_pr0 : 12288
 SAE Count : 0
 Inter-Core Inteference in Data Store : 16224493
Heartbeat CPU 7 instructions: 40000003 cycles: 40484183 heartbeat IPC: 0.993137 cumulative IPC: 0.98804 (Simulation time: 4 hr 21 min 20 sec) 
 Total Blocks : 196608 Invalid Blocks : 0 Valid Blocks : 196608
 Total Tags : 491520 Threshold : 12288 Invalid Tags : 196608 Pr0 Tags : 98304 Pr1 Tags : 196608 num_pr0 : 12288
 SAE Count : 0
 Inter-Core Inteference in Data Store : 16228268
Heartbeat CPU 0 instructions: 50000000 cycles: 50424123 heartbeat IPC: 0.999371 cumulative IPC: 0.991589 (Simulation time: 5 hr 30 min 58 sec) 
 Total Blocks : 196608 Invalid Blocks : 0 Valid Blocks : 196608
 Total Tags : 491520 Threshold : 12288 Invalid Tags : 196608 Pr0 Tags : 98304 Pr1 Tags : 196608 num_pr0 : 12288
 SAE Count : 0
 Inter-Core Inteference in Data Store : 20826666
Heartbeat CPU 1 instructions: 50000000 cycles: 50440536 heartbeat IPC: 0.998854 cumulative IPC: 0.991266 (Simulation time: 5 hr 31 min 7 sec) 
 Total Blocks : 196608 Invalid Blocks : 0 Valid Blocks : 196608
 Total Tags : 491520 Threshold : 12288 Invalid Tags : 196609 Pr0 Tags : 98303 Pr1 Tags : 196608 num_pr0 : 12288
 SAE Count : 0
 Inter-Core Inteference in Data Store : 20836565
Heartbeat CPU 2 instructions: 50000000 cycles: 50454181 heartbeat IPC: 0.998501 cumulative IPC: 0.990998 (Simulation time: 5 hr 31 min 15 sec) 
 Total Blocks : 196608 Invalid Blocks : 0 Valid Blocks : 196608
 Total Tags : 491520 Threshold : 12288 Invalid Tags : 196608 Pr0 Tags : 98304 Pr1 Tags : 196608 num_pr0 : 12288
 SAE Count : 0
 Inter-Core Inteference in Data Store : 20845099
Heartbeat CPU 3 instructions: 50000000 cycles: 50469365 heartbeat IPC: 0.998115 cumulative IPC: 0.9907 (Simulation time: 5 hr 31 min 23 sec) 
 Total Blocks : 196608 Invalid Blocks : 0 Valid Blocks : 196608
 Total Tags : 491520 Threshold : 12288 Invalid Tags : 196608 Pr0 Tags : 98304 Pr1 Tags : 196608 num_pr0 : 12288
 SAE Count : 0
 Inter-Core Inteference in Data Store : 20854389
Heartbeat CPU 4 instructions: 50000000 cycles: 50479176 heartbeat IPC: 0.997847 cumulative IPC: 0.990507 (Simulation time: 5 hr 31 min 28 sec) 
 Total Blocks : 196608 Invalid Blocks : 0 Valid Blocks : 196608
 Total Tags : 491520 Threshold : 12288 Invalid Tags : 196610 Pr0 Tags : 98302 Pr1 Tags : 196608 num_pr0 : 12288
 SAE Count : 0
 Inter-Core Inteference in Data Store : 20860085
Heartbeat CPU 5 instructions: 50000000 cycles: 50493664 heartbeat IPC: 0.997474 cumulative IPC: 0.990223 (Simulation time: 5 hr 31 min 35 sec) 
 Total Blocks : 196608 Invalid Blocks : 0 Valid Blocks : 196608
 Total Tags : 491520 Threshold : 12288 Invalid Tags : 196608 Pr0 Tags : 98304 Pr1 Tags : 196608 num_pr0 : 12288
 SAE Count : 0
 Inter-Core Inteference in Data Store : 20868554
Heartbeat CPU 6 instructions: 50000000 cycles: 50504856 heartbeat IPC: 0.997175 cumulative IPC: 0.990004 (Simulation time: 5 hr 31 min 41 sec) 
 Total Blocks : 196608 Invalid Blocks : 0 Valid Blocks : 196608
 Total Tags : 491520 Threshold : 12288 Invalid Tags : 196608 Pr0 Tags : 98304 Pr1 Tags : 196608 num_pr0 : 12288
 SAE Count : 0
 Inter-Core Inteference in Data Store : 20874647
Heartbeat CPU 7 instructions: 50000000 cycles: 50514770 heartbeat IPC: 0.99695 cumulative IPC: 0.98981 (Simulation time: 5 hr 31 min 46 sec) 
 Total Blocks : 196608 Invalid Blocks : 0 Valid Blocks : 196608
 Total Tags : 491520 Threshold : 12288 Invalid Tags : 196608 Pr0 Tags : 98304 Pr1 Tags : 196608 num_pr0 : 12288
 SAE Count : 0
 Inter-Core Inteference in Data Store : 20879979
Heartbeat CPU 0 instructions: 60000000 cycles: 60412795 heartbeat IPC: 1.00113 cumulative IPC: 0.993167 (Simulation time: 6 hr 38 min 43 sec) 
 Total Blocks : 196608 Invalid Blocks : 0 Valid Blocks : 196608
 Total Tags : 491520 Threshold : 12288 Invalid Tags : 196609 Pr0 Tags : 98303 Pr1 Tags : 196608 num_pr0 : 12288
 SAE Count : 0
 Inter-Core Inteference in Data Store : 25247252
Heartbeat CPU 1 instructions: 60000000 cycles: 60434019 heartbeat IPC: 1.00065 cumulative IPC: 0.992818 (Simulation time: 6 hr 38 min 53 sec) 
 Total Blocks : 196608 Invalid Blocks : 0 Valid Blocks : 196608
 Total Tags : 491520 Threshold : 12288 Invalid Tags : 196608 Pr0 Tags : 98304 Pr1 Tags : 196608 num_pr0 : 12288
 SAE Count : 0
 Inter-Core Inteference in Data Store : 25256825
Heartbeat CPU 2 instructions: 60000000 cycles: 60450660 heartbeat IPC: 1.00035 cumulative IPC: 0.992545 (Simulation time: 6 hr 38 min 59 sec) 
 Total Blocks : 196608 Invalid Blocks : 0 Valid Blocks : 196608
 Total Tags : 491520 Threshold : 12288 Invalid Tags : 196609 Pr0 Tags : 98303 Pr1 Tags : 196608 num_pr0 : 12288
 SAE Count : 0
 Inter-Core Inteference in Data Store : 25264250
Heartbeat CPU 3 instructions: 60000000 cycles: 60469731 heartbeat IPC: 0.999963 cumulative IPC: 0.992232 (Simulation time: 6 hr 39 min 7 sec) 
 Total Blocks : 196608 Invalid Blocks : 0 Valid Blocks : 196608
 Total Tags : 491520 Threshold : 12288 Invalid Tags : 196608 Pr0 Tags : 98304 Pr1 Tags : 196608 num_pr0 : 12288
 SAE Count : 0
 Inter-Core Inteference in Data Store : 25273103
Heartbeat CPU 4 instructions: 60000000 cycles: 60482282 heartbeat IPC: 0.99969 cumulative IPC: 0.992026 (Simulation time: 6 hr 39 min 13 sec) 
 Total Blocks : 196608 Invalid Blocks : 0 Valid Blocks : 196608
 Total Tags : 491520 Threshold : 12288 Invalid Tags : 196608 Pr0 Tags : 98304 Pr1 Tags : 196608 num_pr0 : 12288
 SAE Count : 0
 Inter-Core Inteference in Data Store : 25279348
Heartbeat CPU 5 instructions: 60000000 cycles: 60500322 heartbeat IPC: 0.999335 cumulative IPC: 0.99173 (Simulation time: 6 hr 39 min 20 sec) 
 Total Blocks : 196608 Invalid Blocks : 0 Valid Blocks : 196608
 Total Tags : 491520 Threshold : 12288 Invalid Tags : 196608 Pr0 Tags : 98304 Pr1 Tags : 196608 num_pr0 : 12288
 SAE Count : 0
 Inter-Core Inteference in Data Store : 25288537
Heartbeat CPU 6 instructions: 60000000 cycles: 60514782 heartbeat IPC: 0.999008 cumulative IPC: 0.991493 (Simulation time: 6 hr 39 min 26 sec) 
 Total Blocks : 196608 Invalid Blocks : 0 Valid Blocks : 196608
 Total Tags : 491520 Threshold : 12288 Invalid Tags : 196608 Pr0 Tags : 98304 Pr1 Tags : 196608 num_pr0 : 12288
 SAE Count : 0
 Inter-Core Inteference in Data Store : 25296340
Heartbeat CPU 7 instructions: 60000000 cycles: 60525937 heartbeat IPC: 0.998885 cumulative IPC: 0.991311 (Simulation time: 6 hr 39 min 31 sec) 
 Total Blocks : 196608 Invalid Blocks : 0 Valid Blocks : 196608
 Total Tags : 491520 Threshold : 12288 Invalid Tags : 196608 Pr0 Tags : 98304 Pr1 Tags : 196608 num_pr0 : 12288
 SAE Count : 0
 Inter-Core Inteference in Data Store : 25302451
Heartbeat CPU 0 instructions: 70000002 cycles: 70313189 heartbeat IPC: 1.01006 cumulative IPC: 0.995546 (Simulation time: 7 hr 48 min 32 sec) 
 Total Blocks : 196608 Invalid Blocks : 0 Valid Blocks : 196608
 Total Tags : 491520 Threshold : 12288 Invalid Tags : 196608 Pr0 Tags : 98304 Pr1 Tags : 196608 num_pr0 : 12288
 SAE Count : 0
 Inter-Core Inteference in Data Store : 29663612
Heartbeat CPU 1 instructions: 70000002 cycles: 70339017 heartbeat IPC: 1.00959 cumulative IPC: 0.99518 (Simulation time: 7 hr 48 min 43 sec) 
 Total Blocks : 196608 Invalid Blocks : 0 Valid Blocks : 196608
 Total Tags : 491520 Threshold : 12288 Invalid Tags : 196608 Pr0 Tags : 98304 Pr1 Tags : 196608 num_pr0 : 12288
 SAE Count : 0
 Inter-Core Inteference in Data Store : 29676263
Heartbeat CPU 2 instructions: 70000002 cycles: 70359627 heartbeat IPC: 1.00919 cumulative IPC: 0.994889 (Simulation time: 7 hr 48 min 50 sec) 
 Total Blocks : 196608 Invalid Blocks : 0 Valid Blocks : 196608
 Total Tags : 491520 Threshold : 12288 Invalid Tags : 196609 Pr0 Tags : 98303 Pr1 Tags : 196608 num_pr0 : 12288
 SAE Count : 0
 Inter-Core Inteference in Data Store : 29686406
Heartbeat CPU 3 instructions: 70000002 cycles: 70382250 heartbeat IPC: 1.00883 cumulative IPC: 0.994569 (Simulation time: 7 hr 49 min 1 sec) 
 Total Blocks : 196608 Invalid Blocks : 0 Valid Blocks : 196608
 Total Tags : 491520 Threshold : 12288 Invalid Tags : 196609 Pr0 Tags : 98303 Pr1 Tags : 196608 num_pr0 : 12288
 SAE Count : 0
 Inter-Core Inteference in Data Store : 29697630
Heartbeat CPU 4 instructions: 70000002 cycles: 70397422 heartbeat IPC: 1.00856 cumulative IPC: 0.994355 (Simulation time: 7 hr 49 min 8 sec) 
 Total Blocks : 196608 Invalid Blocks : 0 Valid Blocks : 196608
 Total Tags : 491520 Threshold : 12288 Invalid Tags : 196608 Pr0 Tags : 98304 Pr1 Tags : 196608 num_pr0 : 12288
 SAE Count : 0
 Inter-Core Inteference in Data Store : 29705809
Heartbeat CPU 5 instructions: 70000002 cycles: 70418629 heartbeat IPC: 1.00824 cumulative IPC: 0.994055 (Simulation time: 7 hr 49 min 19 sec) 
 Total Blocks : 196608 Invalid Blocks : 0 Valid Blocks : 196608
 Total Tags : 491520 Threshold : 12288 Invalid Tags : 196608 Pr0 Tags : 98304 Pr1 Tags : 196608 num_pr0 : 12288
 SAE Count : 0
 Inter-Core Inteference in Data Store : 29717026
Heartbeat CPU 6 instructions: 70000002 cycles: 70436459 heartbeat IPC: 1.00789 cumulative IPC: 0.993804 (Simulation time: 7 hr 49 min 29 sec) 
 Total Blocks : 196608 Invalid Blocks : 0 Valid Blocks : 196608
 Total Tags : 491520 Threshold : 12288 Invalid Tags : 196608 Pr0 Tags : 98304 Pr1 Tags : 196608 num_pr0 : 12288
 SAE Count : 0
 Inter-Core Inteference in Data Store : 29726262
Heartbeat CPU 7 instructions: 70000002 cycles: 70449766 heartbeat IPC: 1.00768 cumulative IPC: 0.993616 (Simulation time: 7 hr 49 min 35 sec) 
 Total Blocks : 196608 Invalid Blocks : 0 Valid Blocks : 196608
 Total Tags : 491520 Threshold : 12288 Invalid Tags : 196608 Pr0 Tags : 98304 Pr1 Tags : 196608 num_pr0 : 12288
 SAE Count : 0
 Inter-Core Inteference in Data Store : 29733205
Heartbeat CPU 0 instructions: 80000003 cycles: 80150352 heartbeat IPC: 1.01655 cumulative IPC: 0.998124 (Simulation time: 8 hr 59 min 9 sec) 
 Total Blocks : 196608 Invalid Blocks : 0 Valid Blocks : 196608
 Total Tags : 491520 Threshold : 12288 Invalid Tags : 196608 Pr0 Tags : 98304 Pr1 Tags : 196608 num_pr0 : 12288
 SAE Count : 0
 Inter-Core Inteference in Data Store : 34191329
Heartbeat CPU 1 instructions: 80000003 cycles: 80180808 heartbeat IPC: 1.01608 cumulative IPC: 0.997745 (Simulation time: 8 hr 59 min 21 sec) 
 Total Blocks : 196608 Invalid Blocks : 0 Valid Blocks : 196608
 Total Tags : 491520 Threshold : 12288 Invalid Tags : 196608 Pr0 Tags : 98304 Pr1 Tags : 196608 num_pr0 : 12288
 SAE Count : 0
 Inter-Core Inteference in Data Store : 34206767
Heartbeat CPU 2 instructions: 80000003 cycles: 80206200 heartbeat IPC: 1.01558 cumulative IPC: 0.997429 (Simulation time: 8 hr 59 min 33 sec) 
 Total Blocks : 196608 Invalid Blocks : 0 Valid Blocks : 196608
 Total Tags : 491520 Threshold : 12288 Invalid Tags : 196608 Pr0 Tags : 98304 Pr1 Tags : 196608 num_pr0 : 12288
 SAE Count : 0
 Inter-Core Inteference in Data Store : 34218593
Heartbeat CPU 3 instructions: 80000003 cycles: 80232055 heartbeat IPC: 1.01525 cumulative IPC: 0.997108 (Simulation time: 8 hr 59 min 43 sec) 
 Total Blocks : 196608 Invalid Blocks : 0 Valid Blocks : 196608
 Total Tags : 491520 Threshold : 12288 Invalid Tags : 196608 Pr0 Tags : 98304 Pr1 Tags : 196608 num_pr0 : 12288
 SAE Count : 0
 Inter-Core Inteference in Data Store : 34229998
Heartbeat CPU 4 instructions: 80000003 cycles: 80249609 heartbeat IPC: 1.015 cumulative IPC: 0.99689 (Simulation time: 8 hr 59 min 49 sec) 
 Total Blocks : 196608 Invalid Blocks : 0 Valid Blocks : 196608
 Total Tags : 491520 Threshold : 12288 Invalid Tags : 196610 Pr0 Tags : 98302 Pr1 Tags : 196608 num_pr0 : 12288
 SAE Count : 0
 Inter-Core Inteference in Data Store : 34237706
Heartbeat CPU 5 instructions: 80000003 cycles: 80274257 heartbeat IPC: 1.01465 cumulative IPC: 0.996584 (Simulation time: 8 hr 59 min 58 sec) 
 Total Blocks : 196608 Invalid Blocks : 0 Valid Blocks : 196608
 Total Tags : 491520 Threshold : 12288 Invalid Tags : 196608 Pr0 Tags : 98304 Pr1 Tags : 196608 num_pr0 : 12288
 SAE Count : 0
 Inter-Core Inteference in Data Store : 34247033
Heartbeat CPU 6 instructions: 80000003 cycles: 80295476 heartbeat IPC: 1.0143 cumulative IPC: 0.99632 (Simulation time: 9 hr 0 min 5 sec) 
 Total Blocks : 196608 Invalid Blocks : 0 Valid Blocks : 196608
 Total Tags : 491520 Threshold : 12288 Invalid Tags : 196608 Pr0 Tags : 98304 Pr1 Tags : 196608 num_pr0 : 12288
 SAE Count : 0
 Inter-Core Inteference in Data Store : 34254063
Heartbeat CPU 7 instructions: 80000003 cycles: 80310141 heartbeat IPC: 1.01416 cumulative IPC: 0.996138 (Simulation time: 9 hr 0 min 11 sec) 
 Total Blocks : 196608 Invalid Blocks : 0 Valid Blocks : 196608
 Total Tags : 491520 Threshold : 12288 Invalid Tags : 196608 Pr0 Tags : 98304 Pr1 Tags : 196608 num_pr0 : 12288
 SAE Count : 0
 Inter-Core Inteference in Data Store : 34258564
Heartbeat CPU 0 instructions: 90000000 cycles: 89932161 heartbeat IPC: 1.02231 cumulative IPC: 1.00075 (Simulation time: 10 hr 8 min 19 sec) 
 Total Blocks : 196608 Invalid Blocks : 0 Valid Blocks : 196608
 Total Tags : 491520 Threshold : 12288 Invalid Tags : 196608 Pr0 Tags : 98304 Pr1 Tags : 196608 num_pr0 : 12288
 SAE Count : 0
 Inter-Core Inteference in Data Store : 38676860
Heartbeat CPU 1 instructions: 90000000 cycles: 89967589 heartbeat IPC: 1.02179 cumulative IPC: 1.00036 (Simulation time: 10 hr 8 min 35 sec) 
 Total Blocks : 196608 Invalid Blocks : 0 Valid Blocks : 196608
 Total Tags : 491520 Threshold : 12288 Invalid Tags : 196608 Pr0 Tags : 98304 Pr1 Tags : 196608 num_pr0 : 12288
 SAE Count : 0
 Inter-Core Inteference in Data Store : 38693842
Heartbeat CPU 2 instructions: 90000000 cycles: 89997307 heartbeat IPC: 1.02133 cumulative IPC: 1.00003 (Simulation time: 10 hr 8 min 49 sec) 
 Total Blocks : 196608 Invalid Blocks : 0 Valid Blocks : 196608
 Total Tags : 491520 Threshold : 12288 Invalid Tags : 196609 Pr0 Tags : 98303 Pr1 Tags : 196608 num_pr0 : 12288
 SAE Count : 0
 Inter-Core Inteference in Data Store : 38706058
Heartbeat CPU 3 instructions: 90000000 cycles: 90026321 heartbeat IPC: 1.02101 cumulative IPC: 0.999708 (Simulation time: 10 hr 9 min 2 sec) 
 Total Blocks : 196608 Invalid Blocks : 0 Valid Blocks : 196608
 Total Tags : 491520 Threshold : 12288 Invalid Tags : 196608 Pr0 Tags : 98304 Pr1 Tags : 196608 num_pr0 : 12288
 SAE Count : 0
 Inter-Core Inteference in Data Store : 38716471
Heartbeat CPU 4 instructions: 90000000 cycles: 90047274 heartbeat IPC: 1.02065 cumulative IPC: 0.999475 (Simulation time: 10 hr 9 min 10 sec) 
 Total Blocks : 196608 Invalid Blocks : 0 Valid Blocks : 196608
 Total Tags : 491520 Threshold : 12288 Invalid Tags : 196608 Pr0 Tags : 98304 Pr1 Tags : 196608 num_pr0 : 12288
 SAE Count : 0
 Inter-Core Inteference in Data Store : 38723455
Heartbeat CPU 5 instructions: 90000000 cycles: 90075734 heartbeat IPC: 1.02025 cumulative IPC: 0.999159 (Simulation time: 10 hr 9 min 23 sec) 
 Total Blocks : 196608 Invalid Blocks : 0 Valid Blocks : 196608
 Total Tags : 491520 Threshold : 12288 Invalid Tags : 196608 Pr0 Tags : 98304 Pr1 Tags : 196608 num_pr0 : 12288
 SAE Count : 0
 Inter-Core Inteference in Data Store : 38733094
Heartbeat CPU 6 instructions: 90000000 cycles: 90100081 heartbeat IPC: 1.01993 cumulative IPC: 0.998889 (Simulation time: 10 hr 9 min 34 sec) 
 Total Blocks : 196608 Invalid Blocks : 0 Valid Blocks : 196608
 Total Tags : 491520 Threshold : 12288 Invalid Tags : 196609 Pr0 Tags : 98303 Pr1 Tags : 196608 num_pr0 : 12288
 SAE Count : 0
 Inter-Core Inteference in Data Store : 38741375
Heartbeat CPU 7 instructions: 90000000 cycles: 90116337 heartbeat IPC: 1.01976 cumulative IPC: 0.998709 (Simulation time: 10 hr 9 min 44 sec) 
 Total Blocks : 196608 Invalid Blocks : 0 Valid Blocks : 196608
 Total Tags : 491520 Threshold : 12288 Invalid Tags : 196608 Pr0 Tags : 98304 Pr1 Tags : 196608 num_pr0 : 12288
 SAE Count : 0
 Inter-Core Inteference in Data Store : 38746948
Heartbeat CPU 0 instructions: 100000002 cycles: 99612050 heartbeat IPC: 1.03307 cumulative IPC: 1.00389 (Simulation time: 11 hr 23 min 54 sec) 
 Total Blocks : 196608 Invalid Blocks : 0 Valid Blocks : 196608
 Total Tags : 491520 Threshold : 12288 Invalid Tags : 196608 Pr0 Tags : 98304 Pr1 Tags : 196608 num_pr0 : 12288
 SAE Count : 0
 Inter-Core Inteference in Data Store : 43298391
Heartbeat CPU 1 instructions: 100000002 cycles: 99652588 heartbeat IPC: 1.03252 cumulative IPC: 1.00349 (Simulation time: 11 hr 24 min 14 sec) 
 Total Blocks : 196608 Invalid Blocks : 0 Valid Blocks : 196608
 Total Tags : 491520 Threshold : 12288 Invalid Tags : 196608 Pr0 Tags : 98304 Pr1 Tags : 196608 num_pr0 : 12288
 SAE Count : 0
 Inter-Core Inteference in Data Store : 43318836
Heartbeat CPU 2 instructions: 100000002 cycles: 99686516 heartbeat IPC: 1.03208 cumulative IPC: 1.00314 (Simulation time: 11 hr 24 min 27 sec) 
 Total Blocks : 196608 Invalid Blocks : 0 Valid Blocks : 196608
 Total Tags : 491520 Threshold : 12288 Invalid Tags : 196609 Pr0 Tags : 98303 Pr1 Tags : 196608 num_pr0 : 12288
 SAE Count : 0
 Inter-Core Inteference in Data Store : 43335593
Heartbeat CPU 3 instructions: 100000002 cycles: 99719700 heartbeat IPC: 1.03163 cumulative IPC: 1.00281 (Simulation time: 11 hr 24 min 41 sec) 
 Total Blocks : 196608 Invalid Blocks : 0 Valid Blocks : 196608
 Total Tags : 491520 Threshold : 12288 Invalid Tags : 196608 Pr0 Tags : 98304 Pr1 Tags : 196608 num_pr0 : 12288
 SAE Count : 0
 Inter-Core Inteference in Data Store : 43352530
Heartbeat CPU 4 instructions: 100000002 cycles: 99744097 heartbeat IPC: 1.03127 cumulative IPC: 1.00257 (Simulation time: 11 hr 24 min 54 sec) 
 Total Blocks : 196608 Invalid Blocks : 0 Valid Blocks : 196608
 Total Tags : 491520 Threshold : 12288 Invalid Tags : 196608 Pr0 Tags : 98304 Pr1 Tags : 196608 num_pr0 : 12288
 SAE Count : 0
 Inter-Core Inteference in Data Store : 43365291
Heartbeat CPU 5 instructions: 100000002 cycles: 99774868 heartbeat IPC: 1.03102 cumulative IPC: 1.00226 (Simulation time: 11 hr 25 min 9 sec) 
 Total Blocks : 196608 Invalid Blocks : 0 Valid Blocks : 196608
 Total Tags : 491520 Threshold : 12288 Invalid Tags : 196609 Pr0 Tags : 98303 Pr1 Tags : 196608 num_pr0 : 12288
 SAE Count : 0
 Inter-Core Inteference in Data Store : 43381017
Heartbeat CPU 6 instructions: 100000002 cycles: 99802875 heartbeat IPC: 1.03063 cumulative IPC: 1.00198 (Simulation time: 11 hr 25 min 21 sec) 
 Total Blocks : 196608 Invalid Blocks : 0 Valid Blocks : 196608
 Total Tags : 491520 Threshold : 12288 Invalid Tags : 196609 Pr0 Tags : 98303 Pr1 Tags : 196608 num_pr0 : 12287
 SAE Count : 0
 Inter-Core Inteference in Data Store : 43394477
Heartbeat CPU 7 instructions: 100000002 cycles: 99821885 heartbeat IPC: 1.03034 cumulative IPC: 1.00178 (Simulation time: 11 hr 25 min 31 sec) 
 Total Blocks : 196608 Invalid Blocks : 0 Valid Blocks : 196608
 Total Tags : 491520 Threshold : 12288 Invalid Tags : 196609 Pr0 Tags : 98303 Pr1 Tags : 196608 num_pr0 : 12288
 SAE Count : 0
 Inter-Core Inteference in Data Store : 43403528
Heartbeat CPU 0 instructions: 110000000 cycles: 109318903 heartbeat IPC: 1.0302 cumulative IPC: 1.00623 (Simulation time: 12 hr 40 min 5 sec) 
 Total Blocks : 196608 Invalid Blocks : 0 Valid Blocks : 196608
 Total Tags : 491520 Threshold : 12288 Invalid Tags : 196609 Pr0 Tags : 98303 Pr1 Tags : 196608 num_pr0 : 12288
 SAE Count : 0
 Inter-Core Inteference in Data Store : 47855392
Heartbeat CPU 1 instructions: 110000000 cycles: 109364228 heartbeat IPC: 1.02969 cumulative IPC: 1.00581 (Simulation time: 12 hr 40 min 28 sec) 
 Total Blocks : 196608 Invalid Blocks : 0 Valid Blocks : 196608
 Total Tags : 491520 Threshold : 12288 Invalid Tags : 196608 Pr0 Tags : 98304 Pr1 Tags : 196608 num_pr0 : 12288
 SAE Count : 0
 Inter-Core Inteference in Data Store : 47878592
Heartbeat CPU 2 instructions: 110000000 cycles: 109401928 heartbeat IPC: 1.02929 cumulative IPC: 1.00547 (Simulation time: 12 hr 40 min 48 sec) 
 Total Blocks : 196608 Invalid Blocks : 0 Valid Blocks : 196608
 Total Tags : 491520 Threshold : 12288 Invalid Tags : 196608 Pr0 Tags : 98304 Pr1 Tags : 196608 num_pr0 : 12288
 SAE Count : 0
 Inter-Core Inteference in Data Store : 47896417
Heartbeat CPU 3 instructions: 110000000 cycles: 109439362 heartbeat IPC: 1.02884 cumulative IPC: 1.00512 (Simulation time: 12 hr 41 min 4 sec) 
 Total Blocks : 196608 Invalid Blocks : 0 Valid Blocks : 196608
 Total Tags : 491520 Threshold : 12288 Invalid Tags : 196608 Pr0 Tags : 98304 Pr1 Tags : 196608 num_pr0 : 12288
 SAE Count : 0
 Inter-Core Inteference in Data Store : 47912986
Heartbeat CPU 4 instructions: 110000000 cycles: 109466389 heartbeat IPC: 1.02856 cumulative IPC: 1.00487 (Simulation time: 12 hr 41 min 17 sec) 
 Total Blocks : 196608 Invalid Blocks : 0 Valid Blocks : 196608
 Total Tags : 491520 Threshold : 12288 Invalid Tags : 196609 Pr0 Tags : 98303 Pr1 Tags : 196608 num_pr0 : 12288
 SAE Count : 0
 Inter-Core Inteference in Data Store : 47924259
Heartbeat CPU 5 instructions: 110000000 cycles: 109500729 heartbeat IPC: 1.02819 cumulative IPC: 1.00456 (Simulation time: 12 hr 41 min 34 sec) 
 Total Blocks : 196608 Invalid Blocks : 0 Valid Blocks : 196608
 Total Tags : 491520 Threshold : 12288 Invalid Tags : 196608 Pr0 Tags : 98304 Pr1 Tags : 196608 num_pr0 : 12288
 SAE Count : 0
 Inter-Core Inteference in Data Store : 47939034
Heartbeat CPU 6 instructions: 110000000 cycles: 109532149 heartbeat IPC: 1.02783 cumulative IPC: 1.00427 (Simulation time: 12 hr 41 min 49 sec) 
 Total Blocks : 196608 Invalid Blocks : 0 Valid Blocks : 196608
 Total Tags : 491520 Threshold : 12288 Invalid Tags : 196608 Pr0 Tags : 98304 Pr1 Tags : 196608 num_pr0 : 12288
 SAE Count : 0
 Inter-Core Inteference in Data Store : 47951275
Heartbeat CPU 7 instructions: 110000000 cycles: 109552982 heartbeat IPC: 1.02763 cumulative IPC: 1.00408 (Simulation time: 12 hr 41 min 58 sec) 
 Total Blocks : 196608 Invalid Blocks : 0 Valid Blocks : 196608
 Total Tags : 491520 Threshold : 12288 Invalid Tags : 196608 Pr0 Tags : 98304 Pr1 Tags : 196608 num_pr0 : 12288
 SAE Count : 0
 Inter-Core Inteference in Data Store : 47959168
Heartbeat CPU 0 instructions: 120000000 cycles: 118856385 heartbeat IPC: 1.04849 cumulative IPC: 1.00962 (Simulation time: 13 hr 59 min 29 sec) 
 Total Blocks : 196608 Invalid Blocks : 0 Valid Blocks : 196608
 Total Tags : 491520 Threshold : 12288 Invalid Tags : 196608 Pr0 Tags : 98304 Pr1 Tags : 196608 num_pr0 : 12288
 SAE Count : 0
 Inter-Core Inteference in Data Store : 52640417
Heartbeat CPU 1 instructions: 120000000 cycles: 118906551 heartbeat IPC: 1.04796 cumulative IPC: 1.0092 (Simulation time: 13 hr 59 min 55 sec) 
 Total Blocks : 196608 Invalid Blocks : 0 Valid Blocks : 196608
 Total Tags : 491520 Threshold : 12288 Invalid Tags : 196609 Pr0 Tags : 98303 Pr1 Tags : 196608 num_pr0 : 12288
 SAE Count : 0
 Inter-Core Inteference in Data Store : 52667666
Heartbeat CPU 2 instructions: 120000000 cycles: 118949229 heartbeat IPC: 1.04742 cumulative IPC: 1.00883 (Simulation time: 14 hr 0 min 18 sec) 
 Total Blocks : 196608 Invalid Blocks : 0 Valid Blocks : 196608
 Total Tags : 491520 Threshold : 12288 Invalid Tags : 196608 Pr0 Tags : 98304 Pr1 Tags : 196608 num_pr0 : 12288
 SAE Count : 0
 Inter-Core Inteference in Data Store : 52691530
Heartbeat CPU 3 instructions: 120000000 cycles: 118989999 heartbeat IPC: 1.04705 cumulative IPC: 1.00849 (Simulation time: 14 hr 0 min 37 sec) 
 Total Blocks : 196608 Invalid Blocks : 0 Valid Blocks : 196608
 Total Tags : 491520 Threshold : 12288 Invalid Tags : 196609 Pr0 Tags : 98303 Pr1 Tags : 196608 num_pr0 : 12288
 SAE Count : 0
 Inter-Core Inteference in Data Store : 52713157
Heartbeat CPU 4 instructions: 120000000 cycles: 119021123 heartbeat IPC: 1.0466 cumulative IPC: 1.00822 (Simulation time: 14 hr 0 min 53 sec) 
 Total Blocks : 196608 Invalid Blocks : 0 Valid Blocks : 196608
 Total Tags : 491520 Threshold : 12288 Invalid Tags : 196608 Pr0 Tags : 98304 Pr1 Tags : 196608 num_pr0 : 12288
 SAE Count : 0
 Inter-Core Inteference in Data Store : 52729729
Heartbeat CPU 5 instructions: 120000000 cycles: 119058538 heartbeat IPC: 1.04626 cumulative IPC: 1.00791 (Simulation time: 14 hr 1 min 10 sec) 
 Total Blocks : 196608 Invalid Blocks : 0 Valid Blocks : 196608
 Total Tags : 491520 Threshold : 12288 Invalid Tags : 196608 Pr0 Tags : 98304 Pr1 Tags : 196608 num_pr0 : 12288
 SAE Count : 0
 Inter-Core Inteference in Data Store : 52748056
Heartbeat CPU 6 instructions: 120000000 cycles: 119093503 heartbeat IPC: 1.04588 cumulative IPC: 1.00761 (Simulation time: 14 hr 1 min 25 sec) 
 Total Blocks : 196608 Invalid Blocks : 0 Valid Blocks : 196608
 Total Tags : 491520 Threshold : 12288 Invalid Tags : 196609 Pr0 Tags : 98303 Pr1 Tags : 196608 num_pr0 : 12288
 SAE Count : 0
 Inter-Core Inteference in Data Store : 52763788
Heartbeat CPU 7 instructions: 120000000 cycles: 119116985 heartbeat IPC: 1.04559 cumulative IPC: 1.00741 (Simulation time: 14 hr 1 min 36 sec) 
 Total Blocks : 196608 Invalid Blocks : 0 Valid Blocks : 196608
 Total Tags : 491520 Threshold : 12288 Invalid Tags : 196609 Pr0 Tags : 98303 Pr1 Tags : 196608 num_pr0 : 12288
 SAE Count : 0
 Inter-Core Inteference in Data Store : 52774206
Heartbeat CPU 0 instructions: 130000001 cycles: 128521612 heartbeat IPC: 1.03464 cumulative IPC: 1.0115 (Simulation time: 15 hr 14 min 15 sec) 
 Total Blocks : 196608 Invalid Blocks : 0 Valid Blocks : 196608
 Total Tags : 491520 Threshold : 12288 Invalid Tags : 196608 Pr0 Tags : 98304 Pr1 Tags : 196608 num_pr0 : 12288
 SAE Count : 0
 Inter-Core Inteference in Data Store : 57098039
Heartbeat CPU 1 instructions: 130000001 cycles: 128576443 heartbeat IPC: 1.03414 cumulative IPC: 1.01107 (Simulation time: 15 hr 14 min 31 sec) 
 Total Blocks : 196608 Invalid Blocks : 0 Valid Blocks : 196608
 Total Tags : 491520 Threshold : 12288 Invalid Tags : 196609 Pr0 Tags : 98303 Pr1 Tags : 196608 num_pr0 : 12288
 SAE Count : 0
 Inter-Core Inteference in Data Store : 57109684
Heartbeat CPU 2 instructions: 130000001 cycles: 128623024 heartbeat IPC: 1.03372 cumulative IPC: 1.01071 (Simulation time: 15 hr 14 min 46 sec) 
 Total Blocks : 196608 Invalid Blocks : 0 Valid Blocks : 196608
 Total Tags : 491520 Threshold : 12288 Invalid Tags : 196609 Pr0 Tags : 98303 Pr1 Tags : 196608 num_pr0 : 12288
 SAE Count : 0
 Inter-Core Inteference in Data Store : 57119852
Heartbeat CPU 3 instructions: 130000001 cycles: 128667189 heartbeat IPC: 1.03336 cumulative IPC: 1.01036 (Simulation time: 15 hr 15 min 0 sec) 
 Total Blocks : 196608 Invalid Blocks : 0 Valid Blocks : 196608
 Total Tags : 491520 Threshold : 12288 Invalid Tags : 196609 Pr0 Tags : 98303 Pr1 Tags : 196608 num_pr0 : 12288
 SAE Count : 0
 Inter-Core Inteference in Data Store : 57130705
Heartbeat CPU 4 instructions: 130000001 cycles: 128701817 heartbeat IPC: 1.03298 cumulative IPC: 1.01009 (Simulation time: 15 hr 15 min 12 sec) 
 Total Blocks : 196608 Invalid Blocks : 0 Valid Blocks : 196608
 Total Tags : 491520 Threshold : 12288 Invalid Tags : 196610 Pr0 Tags : 98302 Pr1 Tags : 196608 num_pr0 : 12288
 SAE Count : 0
 Inter-Core Inteference in Data Store : 57140642
Heartbeat CPU 5 instructions: 130000001 cycles: 128742515 heartbeat IPC: 1.03263 cumulative IPC: 1.00977 (Simulation time: 15 hr 15 min 29 sec) 
 Total Blocks : 196608 Invalid Blocks : 0 Valid Blocks : 196608
 Total Tags : 491520 Threshold : 12288 Invalid Tags : 196609 Pr0 Tags : 98303 Pr1 Tags : 196608 num_pr0 : 12288
 SAE Count : 0
 Inter-Core Inteference in Data Store : 57153100
Heartbeat CPU 6 instructions: 130000001 cycles: 128780815 heartbeat IPC: 1.03228 cumulative IPC: 1.00947 (Simulation time: 15 hr 15 min 42 sec) 
 Total Blocks : 196608 Invalid Blocks : 0 Valid Blocks : 196608
 Total Tags : 491520 Threshold : 12288 Invalid Tags : 196608 Pr0 Tags : 98304 Pr1 Tags : 196608 num_pr0 : 12288
 SAE Count : 0
 Inter-Core Inteference in Data Store : 57166271
Heartbeat CPU 7 instructions: 130000001 cycles: 128806912 heartbeat IPC: 1.032 cumulative IPC: 1.00926 (Simulation time: 15 hr 15 min 52 sec) 
 Total Blocks : 196608 Invalid Blocks : 0 Valid Blocks : 196608
 Total Tags : 491520 Threshold : 12288 Invalid Tags : 196608 Pr0 Tags : 98304 Pr1 Tags : 196608 num_pr0 : 12288
 SAE Count : 0
 Inter-Core Inteference in Data Store : 57176430
Heartbeat CPU 0 instructions: 140000000 cycles: 138114722 heartbeat IPC: 1.04241 cumulative IPC: 1.01365 (Simulation time: 16 hr 28 min 10 sec) 
 Total Blocks : 196608 Invalid Blocks : 0 Valid Blocks : 196608
 Total Tags : 491520 Threshold : 12288 Invalid Tags : 196608 Pr0 Tags : 98304 Pr1 Tags : 196608 num_pr0 : 12288
 SAE Count : 0
 Inter-Core Inteference in Data Store : 61732700
Heartbeat CPU 1 instructions: 140000000 cycles: 138173845 heartbeat IPC: 1.04195 cumulative IPC: 1.01322 (Simulation time: 16 hr 28 min 31 sec) 
 Total Blocks : 196608 Invalid Blocks : 0 Valid Blocks : 196608
 Total Tags : 491520 Threshold : 12288 Invalid Tags : 196608 Pr0 Tags : 98304 Pr1 Tags : 196608 num_pr0 : 12288
 SAE Count : 0
 Inter-Core Inteference in Data Store : 61757709
Heartbeat CPU 2 instructions: 140000000 cycles: 138225258 heartbeat IPC: 1.04142 cumulative IPC: 1.01284 (Simulation time: 16 hr 28 min 52 sec) 
 Total Blocks : 196608 Invalid Blocks : 0 Valid Blocks : 196608
 Total Tags : 491520 Threshold : 12288 Invalid Tags : 196608 Pr0 Tags : 98304 Pr1 Tags : 196608 num_pr0 : 12288
 SAE Count : 0
 Inter-Core Inteference in Data Store : 61779372
Heartbeat CPU 3 instructions: 140000000 cycles: 138273251 heartbeat IPC: 1.04101 cumulative IPC: 1.01249 (Simulation time: 16 hr 29 min 14 sec) 
 Total Blocks : 196608 Invalid Blocks : 0 Valid Blocks : 196608
 Total Tags : 491520 Threshold : 12288 Invalid Tags : 196608 Pr0 Tags : 98304 Pr1 Tags : 196608 num_pr0 : 12288
 SAE Count : 0
 Inter-Core Inteference in Data Store : 61798952
Heartbeat CPU 4 instructions: 140000000 cycles: 138311071 heartbeat IPC: 1.04066 cumulative IPC: 1.01221 (Simulation time: 16 hr 29 min 28 sec) 
 Total Blocks : 196608 Invalid Blocks : 0 Valid Blocks : 196608
 Total Tags : 491520 Threshold : 12288 Invalid Tags : 196608 Pr0 Tags : 98304 Pr1 Tags : 196608 num_pr0 : 12288
 SAE Count : 0
 Inter-Core Inteference in Data Store : 61815149
Heartbeat CPU 5 instructions: 140000000 cycles: 138355508 heartbeat IPC: 1.04026 cumulative IPC: 1.01189 (Simulation time: 16 hr 29 min 48 sec) 
 Total Blocks : 196608 Invalid Blocks : 0 Valid Blocks : 196608
 Total Tags : 491520 Threshold : 12288 Invalid Tags : 196608 Pr0 Tags : 98304 Pr1 Tags : 196608 num_pr0 : 12288
 SAE Count : 0
 Inter-Core Inteference in Data Store : 61834467
Heartbeat CPU 6 instructions: 140000000 cycles: 138397488 heartbeat IPC: 1.03986 cumulative IPC: 1.01158 (Simulation time: 16 hr 30 min 11 sec) 
 Total Blocks : 196608 Invalid Blocks : 0 Valid Blocks : 196608
 Total Tags : 491520 Threshold : 12288 Invalid Tags : 196608 Pr0 Tags : 98304 Pr1 Tags : 196608 num_pr0 : 12288
 SAE Count : 0
 Inter-Core Inteference in Data Store : 61854847
Heartbeat CPU 7 instructions: 140000000 cycles: 138426559 heartbeat IPC: 1.03954 cumulative IPC: 1.01137 (Simulation time: 16 hr 30 min 26 sec) 
 Total Blocks : 196608 Invalid Blocks : 0 Valid Blocks : 196608
 Total Tags : 491520 Threshold : 12288 Invalid Tags : 196609 Pr0 Tags : 98303 Pr1 Tags : 196608 num_pr0 : 12287
 SAE Count : 0
 Inter-Core Inteference in Data Store : 61870617
Heartbeat CPU 0 instructions: 150000000 cycles: 147703779 heartbeat IPC: 1.04286 cumulative IPC: 1.01555 (Simulation time: 17 hr 38 min 37 sec) 
 Total Blocks : 196608 Invalid Blocks : 0 Valid Blocks : 196608
 Total Tags : 491520 Threshold : 12288 Invalid Tags : 196610 Pr0 Tags : 98302 Pr1 Tags : 196608 num_pr0 : 12288
 SAE Count : 0
 Inter-Core Inteference in Data Store : 66316360
Heartbeat CPU 1 instructions: 150000000 cycles: 147766842 heartbeat IPC: 1.04243 cumulative IPC: 1.01511 (Simulation time: 17 hr 39 min 8 sec) 
 Total Blocks : 196608 Invalid Blocks : 0 Valid Blocks : 196608
 Total Tags : 491520 Threshold : 12288 Invalid Tags : 196608 Pr0 Tags : 98304 Pr1 Tags : 196608 num_pr0 : 12288
 SAE Count : 0
 Inter-Core Inteference in Data Store : 66347497
Heartbeat CPU 2 instructions: 150000000 cycles: 147822668 heartbeat IPC: 1.04195 cumulative IPC: 1.01473 (Simulation time: 17 hr 39 min 29 sec) 
 Total Blocks : 196608 Invalid Blocks : 0 Valid Blocks : 196608
 Total Tags : 491520 Threshold : 12288 Invalid Tags : 196608 Pr0 Tags : 98304 Pr1 Tags : 196608 num_pr0 : 12288
 SAE Count : 0
 Inter-Core Inteference in Data Store : 66372205
Heartbeat CPU 3 instructions: 150000000 cycles: 147874564 heartbeat IPC: 1.04152 cumulative IPC: 1.01437 (Simulation time: 17 hr 39 min 48 sec) 
 Total Blocks : 196608 Invalid Blocks : 0 Valid Blocks : 196608
 Total Tags : 491520 Threshold : 12288 Invalid Tags : 196609 Pr0 Tags : 98303 Pr1 Tags : 196608 num_pr0 : 12287
 SAE Count : 0
 Inter-Core Inteference in Data Store : 66394492
Heartbeat CPU 4 instructions: 150000000 cycles: 147915451 heartbeat IPC: 1.04119 cumulative IPC: 1.01409 (Simulation time: 17 hr 40 min 6 sec) 
 Total Blocks : 196608 Invalid Blocks : 0 Valid Blocks : 196608
 Total Tags : 491520 Threshold : 12288 Invalid Tags : 196609 Pr0 Tags : 98303 Pr1 Tags : 196608 num_pr0 : 12288
 SAE Count : 0
 Inter-Core Inteference in Data Store : 66412802
Heartbeat CPU 5 instructions: 150000000 cycles: 147963758 heartbeat IPC: 1.04077 cumulative IPC: 1.01376 (Simulation time: 17 hr 40 min 26 sec) 
 Total Blocks : 196608 Invalid Blocks : 0 Valid Blocks : 196608
 Total Tags : 491520 Threshold : 12288 Invalid Tags : 196609 Pr0 Tags : 98303 Pr1 Tags : 196608 num_pr0 : 12288
 SAE Count : 0
 Inter-Core Inteference in Data Store : 66433073
Heartbeat CPU 6 instructions: 150000000 cycles: 148009198 heartbeat IPC: 1.0404 cumulative IPC: 1.01345 (Simulation time: 17 hr 40 min 45 sec) 
 Total Blocks : 196608 Invalid Blocks : 0 Valid Blocks : 196608
 Total Tags : 491520 Threshold : 12288 Invalid Tags : 196609 Pr0 Tags : 98303 Pr1 Tags : 196608 num_pr0 : 12288
 SAE Count : 0
 Inter-Core Inteference in Data Store : 66452778
Heartbeat CPU 7 instructions: 150000000 cycles: 148040938 heartbeat IPC: 1.04011 cumulative IPC: 1.01323 (Simulation time: 17 hr 40 min 59 sec) 
 Total Blocks : 196608 Invalid Blocks : 0 Valid Blocks : 196608
 Total Tags : 491520 Threshold : 12288 Invalid Tags : 196608 Pr0 Tags : 98304 Pr1 Tags : 196608 num_pr0 : 12288
 SAE Count : 0
 Inter-Core Inteference in Data Store : 66467159
Heartbeat CPU 0 instructions: 160000000 cycles: 157071828 heartbeat IPC: 1.06746 cumulative IPC: 1.01864 (Simulation time: 18 hr 51 min 42 sec) 
 Total Blocks : 196608 Invalid Blocks : 0 Valid Blocks : 196608
 Total Tags : 491520 Threshold : 12288 Invalid Tags : 196608 Pr0 Tags : 98304 Pr1 Tags : 196608 num_pr0 : 12288
 SAE Count : 0
 Inter-Core Inteference in Data Store : 71411543
Heartbeat CPU 1 instructions: 160000000 cycles: 157140107 heartbeat IPC: 1.06686 cumulative IPC: 1.0182 (Simulation time: 18 hr 52 min 11 sec) 
 Total Blocks : 196608 Invalid Blocks : 0 Valid Blocks : 196608
 Total Tags : 491520 Threshold : 12288 Invalid Tags : 196608 Pr0 Tags : 98304 Pr1 Tags : 196608 num_pr0 : 12288
 SAE Count : 0
 Inter-Core Inteference in Data Store : 71449676
Heartbeat CPU 2 instructions: 160000000 cycles: 157199905 heartbeat IPC: 1.06641 cumulative IPC: 1.01781 (Simulation time: 18 hr 52 min 33 sec) 
 Total Blocks : 196608 Invalid Blocks : 0 Valid Blocks : 196608
 Total Tags : 491520 Threshold : 12288 Invalid Tags : 196610 Pr0 Tags : 98302 Pr1 Tags : 196608 num_pr0 : 12288
 SAE Count : 0
 Inter-Core Inteference in Data Store : 71483600
Heartbeat CPU 3 instructions: 160000000 cycles: 157256085 heartbeat IPC: 1.06593 cumulative IPC: 1.01745 (Simulation time: 18 hr 52 min 56 sec) 
 Total Blocks : 196608 Invalid Blocks : 0 Valid Blocks : 196608
 Total Tags : 491520 Threshold : 12288 Invalid Tags : 196608 Pr0 Tags : 98304 Pr1 Tags : 196608 num_pr0 : 12288
 SAE Count : 0
 Inter-Core Inteference in Data Store : 71514867
Heartbeat CPU 4 instructions: 160000000 cycles: 157300619 heartbeat IPC: 1.06551 cumulative IPC: 1.01716 (Simulation time: 18 hr 53 min 14 sec) 
 Total Blocks : 196608 Invalid Blocks : 0 Valid Blocks : 196608
 Total Tags : 491520 Threshold : 12288 Invalid Tags : 196609 Pr0 Tags : 98303 Pr1 Tags : 196608 num_pr0 : 12288
 SAE Count : 0
 Inter-Core Inteference in Data Store : 71538664
Heartbeat CPU 5 instructions: 160000000 cycles: 157353501 heartbeat IPC: 1.06499 cumulative IPC: 1.01682 (Simulation time: 18 hr 53 min 35 sec) 
 Total Blocks : 196608 Invalid Blocks : 0 Valid Blocks : 196608
 Total Tags : 491520 Threshold : 12288 Invalid Tags : 196609 Pr0 Tags : 98303 Pr1 Tags : 196608 num_pr0 : 12288
 SAE Count : 0
 Inter-Core Inteference in Data Store : 71567308
Heartbeat CPU 6 instructions: 160000000 cycles: 157402407 heartbeat IPC: 1.0646 cumulative IPC: 1.0165 (Simulation time: 18 hr 53 min 59 sec) 
 Total Blocks : 196608 Invalid Blocks : 0 Valid Blocks : 196608
 Total Tags : 491520 Threshold : 12288 Invalid Tags : 196608 Pr0 Tags : 98304 Pr1 Tags : 196608 num_pr0 : 12288
 SAE Count : 0
 Inter-Core Inteference in Data Store : 71594754
Heartbeat CPU 7 instructions: 160000000 cycles: 157437006 heartbeat IPC: 1.06428 cumulative IPC: 1.01628 (Simulation time: 18 hr 54 min 14 sec) 
 Total Blocks : 196608 Invalid Blocks : 0 Valid Blocks : 196608
 Total Tags : 491520 Threshold : 12288 Invalid Tags : 196609 Pr0 Tags : 98303 Pr1 Tags : 196608 num_pr0 : 12288
 SAE Count : 0
 Inter-Core Inteference in Data Store : 71614520
Heartbeat CPU 0 instructions: 170000000 cycles: 166295305 heartbeat IPC: 1.08419 cumulative IPC: 1.02228 (Simulation time: 20 hr 0 min 51 sec) 
 Total Blocks : 196608 Invalid Blocks : 0 Valid Blocks : 196608
 Total Tags : 491520 Threshold : 12288 Invalid Tags : 196608 Pr0 Tags : 98304 Pr1 Tags : 196608 num_pr0 : 12288
 SAE Count : 0
 Inter-Core Inteference in Data Store : 76894156
Heartbeat CPU 1 instructions: 170000000 cycles: 166368708 heartbeat IPC: 1.08359 cumulative IPC: 1.02183 (Simulation time: 20 hr 1 min 21 sec) 
 Total Blocks : 196608 Invalid Blocks : 0 Valid Blocks : 196608
 Total Tags : 491520 Threshold : 12288 Invalid Tags : 196608 Pr0 Tags : 98304 Pr1 Tags : 196608 num_pr0 : 12288
 SAE Count : 0
 Inter-Core Inteference in Data Store : 76936218
Heartbeat CPU 2 instructions: 170000000 cycles: 166432992 heartbeat IPC: 1.08306 cumulative IPC: 1.02143 (Simulation time: 20 hr 1 min 48 sec) 
 Total Blocks : 196608 Invalid Blocks : 0 Valid Blocks : 196608
 Total Tags : 491520 Threshold : 12288 Invalid Tags : 196609 Pr0 Tags : 98303 Pr1 Tags : 196608 num_pr0 : 12288
 SAE Count : 0
 Inter-Core Inteference in Data Store : 76974871
Heartbeat CPU 3 instructions: 170000000 cycles: 166493604 heartbeat IPC: 1.08254 cumulative IPC: 1.02106 (Simulation time: 20 hr 2 min 15 sec) 
 Total Blocks : 196608 Invalid Blocks : 0 Valid Blocks : 196608
 Total Tags : 491520 Threshold : 12288 Invalid Tags : 196608 Pr0 Tags : 98304 Pr1 Tags : 196608 num_pr0 : 12288
 SAE Count : 0
 Inter-Core Inteference in Data Store : 77010729
Heartbeat CPU 4 instructions: 170000000 cycles: 166541751 heartbeat IPC: 1.08212 cumulative IPC: 1.02077 (Simulation time: 20 hr 2 min 36 sec) 
 Total Blocks : 196608 Invalid Blocks : 0 Valid Blocks : 196608
 Total Tags : 491520 Threshold : 12288 Invalid Tags : 196608 Pr0 Tags : 98304 Pr1 Tags : 196608 num_pr0 : 12288
 SAE Count : 0
 Inter-Core Inteference in Data Store : 77040177
Heartbeat CPU 5 instructions: 170000000 cycles: 166599376 heartbeat IPC: 1.08156 cumulative IPC: 1.02041 (Simulation time: 20 hr 3 min 2 sec) 
 Total Blocks : 196608 Invalid Blocks : 0 Valid Blocks : 196608
 Total Tags : 491520 Threshold : 12288 Invalid Tags : 196608 Pr0 Tags : 98304 Pr1 Tags : 196608 num_pr0 : 12288
 SAE Count : 0
 Inter-Core Inteference in Data Store : 77074996
Heartbeat CPU 6 instructions: 170000000 cycles: 166651321 heartbeat IPC: 1.08121 cumulative IPC: 1.02009 (Simulation time: 20 hr 3 min 21 sec) 
 Total Blocks : 196608 Invalid Blocks : 0 Valid Blocks : 196608
 Total Tags : 491520 Threshold : 12288 Invalid Tags : 196608 Pr0 Tags : 98304 Pr1 Tags : 196608 num_pr0 : 12288
 SAE Count : 0
 Inter-Core Inteference in Data Store : 77106567
Heartbeat CPU 7 instructions: 170000000 cycles: 166690114 heartbeat IPC: 1.08072 cumulative IPC: 1.01986 (Simulation time: 20 hr 3 min 36 sec) 
 Total Blocks : 196608 Invalid Blocks : 0 Valid Blocks : 196608
 Total Tags : 491520 Threshold : 12288 Invalid Tags : 196608 Pr0 Tags : 98304 Pr1 Tags : 196608 num_pr0 : 12288
 SAE Count : 0
 Inter-Core Inteference in Data Store : 77130198
FILL
Heartbeat CPU 0 instructions: 180000003 cycles: 175338616 heartbeat IPC: 1.10579 cumulative IPC: 1.02659 (Simulation time: 20 hr 56 min 1 sec) 
 Total Blocks : 196608 Invalid Blocks : 0 Valid Blocks : 196608
 Total Tags : 491520 Threshold : 12288 Invalid Tags : 196608 Pr0 Tags : 98304 Pr1 Tags : 196608 num_pr0 : 12288
 SAE Count : 0
 Inter-Core Inteference in Data Store : 82560291
Heartbeat CPU 1 instructions: 180000003 cycles: 175416476 heartbeat IPC: 1.10525 cumulative IPC: 1.02613 (Simulation time: 20 hr 56 min 25 sec) 
 Total Blocks : 196608 Invalid Blocks : 0 Valid Blocks : 196608
 Total Tags : 491520 Threshold : 12288 Invalid Tags : 196608 Pr0 Tags : 98304 Pr1 Tags : 196608 num_pr0 : 12288
 SAE Count : 0
 Inter-Core Inteference in Data Store : 82608768
Heartbeat CPU 2 instructions: 180000003 cycles: 175485125 heartbeat IPC: 1.10471 cumulative IPC: 1.02573 (Simulation time: 20 hr 56 min 49 sec) 
 Total Blocks : 196608 Invalid Blocks : 0 Valid Blocks : 196608
 Total Tags : 491520 Threshold : 12288 Invalid Tags : 196609 Pr0 Tags : 98303 Pr1 Tags : 196608 num_pr0 : 12288
 SAE Count : 0
 Inter-Core Inteference in Data Store : 82651374
Heartbeat CPU 3 instructions: 180000003 cycles: 175549738 heartbeat IPC: 1.10422 cumulative IPC: 1.02535 (Simulation time: 20 hr 57 min 12 sec) 
 Total Blocks : 196608 Invalid Blocks : 0 Valid Blocks : 196608
 Total Tags : 491520 Threshold : 12288 Invalid Tags : 196608 Pr0 Tags : 98304 Pr1 Tags : 196608 num_pr0 : 12288
 SAE Count : 0
 Inter-Core Inteference in Data Store : 82693699
Heartbeat CPU 4 instructions: 180000003 cycles: 175601437 heartbeat IPC: 1.10379 cumulative IPC: 1.02505 (Simulation time: 20 hr 57 min 30 sec) 
 Total Blocks : 196608 Invalid Blocks : 0 Valid Blocks : 196608
 Total Tags : 491520 Threshold : 12288 Invalid Tags : 196608 Pr0 Tags : 98304 Pr1 Tags : 196608 num_pr0 : 12288
 SAE Count : 0
 Inter-Core Inteference in Data Store : 82727269
Heartbeat CPU 5 instructions: 180000003 cycles: 175664331 heartbeat IPC: 1.10315 cumulative IPC: 1.02468 (Simulation time: 20 hr 57 min 52 sec) 
 Total Blocks : 196608 Invalid Blocks : 0 Valid Blocks : 196608
 Total Tags : 491520 Threshold : 12288 Invalid Tags : 196611 Pr0 Tags : 98301 Pr1 Tags : 196608 num_pr0 : 12288
 SAE Count : 0
 Inter-Core Inteference in Data Store : 82767495
Heartbeat CPU 6 instructions: 180000003 cycles: 175719215 heartbeat IPC: 1.10279 cumulative IPC: 1.02436 (Simulation time: 20 hr 58 min 9 sec) 
 Total Blocks : 196608 Invalid Blocks : 0 Valid Blocks : 196608
 Total Tags : 491520 Threshold : 12288 Invalid Tags : 196608 Pr0 Tags : 98304 Pr1 Tags : 196608 num_pr0 : 12288
 SAE Count : 0
 Inter-Core Inteference in Data Store : 82802724
Heartbeat CPU 7 instructions: 180000003 cycles: 175761597 heartbeat IPC: 1.10236 cumulative IPC: 1.02411 (Simulation time: 20 hr 58 min 23 sec) 
 Total Blocks : 196608 Invalid Blocks : 0 Valid Blocks : 196608
 Total Tags : 491520 Threshold : 12288 Invalid Tags : 196609 Pr0 Tags : 98303 Pr1 Tags : 196608 num_pr0 : 12288
 SAE Count : 0
 Inter-Core Inteference in Data Store : 82829790
Heartbeat CPU 0 instructions: 190000002 cycles: 184326059 heartbeat IPC: 1.11266 cumulative IPC: 1.03078 (Simulation time: 21 hr 45 min 13 sec) 
 Total Blocks : 196608 Invalid Blocks : 0 Valid Blocks : 196608
 Total Tags : 491520 Threshold : 12288 Invalid Tags : 196608 Pr0 Tags : 98304 Pr1 Tags : 196608 num_pr0 : 12288
 SAE Count : 0
 Inter-Core Inteference in Data Store : 88243987
Heartbeat CPU 1 instructions: 190000002 cycles: 184408415 heartbeat IPC: 1.11211 cumulative IPC: 1.03032 (Simulation time: 21 hr 45 min 44 sec) 
 Total Blocks : 196608 Invalid Blocks : 0 Valid Blocks : 196608
 Total Tags : 491520 Threshold : 12288 Invalid Tags : 196608 Pr0 Tags : 98304 Pr1 Tags : 196608 num_pr0 : 12288
 SAE Count : 0
 Inter-Core Inteference in Data Store : 88296308
Heartbeat CPU 2 instructions: 190000002 cycles: 184481505 heartbeat IPC: 1.11156 cumulative IPC: 1.02991 (Simulation time: 21 hr 46 min 10 sec) 
 Total Blocks : 196608 Invalid Blocks : 0 Valid Blocks : 196608
 Total Tags : 491520 Threshold : 12288 Invalid Tags : 196608 Pr0 Tags : 98304 Pr1 Tags : 196608 num_pr0 : 12288
 SAE Count : 0
 Inter-Core Inteference in Data Store : 88342114
Heartbeat CPU 3 instructions: 190000002 cycles: 184550230 heartbeat IPC: 1.11105 cumulative IPC: 1.02953 (Simulation time: 21 hr 46 min 34 sec) 
 Total Blocks : 196608 Invalid Blocks : 0 Valid Blocks : 196608
 Total Tags : 491520 Threshold : 12288 Invalid Tags : 196608 Pr0 Tags : 98304 Pr1 Tags : 196608 num_pr0 : 12288
 SAE Count : 0
 Inter-Core Inteference in Data Store : 88386879
Heartbeat CPU 4 instructions: 190000002 cycles: 184605090 heartbeat IPC: 1.11066 cumulative IPC: 1.02922 (Simulation time: 21 hr 46 min 54 sec) 
 Total Blocks : 196608 Invalid Blocks : 0 Valid Blocks : 196608
 Total Tags : 491520 Threshold : 12288 Invalid Tags : 196608 Pr0 Tags : 98304 Pr1 Tags : 196608 num_pr0 : 12288
 SAE Count : 0
 Inter-Core Inteference in Data Store : 88423045
Heartbeat CPU 5 instructions: 190000002 cycles: 184672378 heartbeat IPC: 1.11012 cumulative IPC: 1.02885 (Simulation time: 21 hr 47 min 15 sec) 
 Total Blocks : 196608 Invalid Blocks : 0 Valid Blocks : 196608
 Total Tags : 491520 Threshold : 12288 Invalid Tags : 196610 Pr0 Tags : 98302 Pr1 Tags : 196608 num_pr0 : 12288
 SAE Count : 0
 Inter-Core Inteference in Data Store : 88466853
Heartbeat CPU 6 instructions: 190000002 cycles: 184731832 heartbeat IPC: 1.10956 cumulative IPC: 1.02852 (Simulation time: 21 hr 47 min 35 sec) 
 Total Blocks : 196608 Invalid Blocks : 0 Valid Blocks : 196608
 Total Tags : 491520 Threshold : 12288 Invalid Tags : 196609 Pr0 Tags : 98303 Pr1 Tags : 196608 num_pr0 : 12288
 SAE Count : 0
 Inter-Core Inteference in Data Store : 88505789
Heartbeat CPU 7 instructions: 190000002 cycles: 184776223 heartbeat IPC: 1.10931 cumulative IPC: 1.02827 (Simulation time: 21 hr 47 min 49 sec) 
 Total Blocks : 196608 Invalid Blocks : 0 Valid Blocks : 196608
 Total Tags : 491520 Threshold : 12288 Invalid Tags : 196608 Pr0 Tags : 98304 Pr1 Tags : 196608 num_pr0 : 12288
 SAE Count : 0
 Inter-Core Inteference in Data Store : 88534576
Heartbeat CPU 0 instructions: 200000002 cycles: 193277217 heartbeat IPC: 1.11717 cumulative IPC: 1.03478 (Simulation time: 22 hr 35 min 6 sec) 
 Total Blocks : 196608 Invalid Blocks : 0 Valid Blocks : 196608
 Total Tags : 491520 Threshold : 12288 Invalid Tags : 196608 Pr0 Tags : 98304 Pr1 Tags : 196608 num_pr0 : 12288
 SAE Count : 0
 Inter-Core Inteference in Data Store : 93947395
Heartbeat CPU 1 instructions: 200000002 cycles: 193364353 heartbeat IPC: 1.11658 cumulative IPC: 1.03432 (Simulation time: 22 hr 35 min 36 sec) 
 Total Blocks : 196608 Invalid Blocks : 0 Valid Blocks : 196608
 Total Tags : 491520 Threshold : 12288 Invalid Tags : 196609 Pr0 Tags : 98303 Pr1 Tags : 196608 num_pr0 : 12288
 SAE Count : 0
 Inter-Core Inteference in Data Store : 94002180
Heartbeat CPU 2 instructions: 200000002 cycles: 193441285 heartbeat IPC: 1.1161 cumulative IPC: 1.03391 (Simulation time: 22 hr 36 min 0 sec) 
 Total Blocks : 196608 Invalid Blocks : 0 Valid Blocks : 196608
 Total Tags : 491520 Threshold : 12288 Invalid Tags : 196608 Pr0 Tags : 98304 Pr1 Tags : 196608 num_pr0 : 12288
 SAE Count : 0
 Inter-Core Inteference in Data Store : 94050984
Heartbeat CPU 3 instructions: 200000002 cycles: 193513978 heartbeat IPC: 1.1156 cumulative IPC: 1.03352 (Simulation time: 22 hr 36 min 26 sec) 
 Total Blocks : 196608 Invalid Blocks : 0 Valid Blocks : 196608
 Total Tags : 491520 Threshold : 12288 Invalid Tags : 196608 Pr0 Tags : 98304 Pr1 Tags : 196608 num_pr0 : 12288
 SAE Count : 0
 Inter-Core Inteference in Data Store : 94097470
Heartbeat CPU 4 instructions: 200000002 cycles: 193571895 heartbeat IPC: 1.11522 cumulative IPC: 1.03321 (Simulation time: 22 hr 36 min 46 sec) 
 Total Blocks : 196608 Invalid Blocks : 0 Valid Blocks : 196608
 Total Tags : 491520 Threshold : 12288 Invalid Tags : 196608 Pr0 Tags : 98304 Pr1 Tags : 196608 num_pr0 : 12288
 SAE Count : 0
 Inter-Core Inteference in Data Store : 94135117
Heartbeat CPU 5 instructions: 200000002 cycles: 193643186 heartbeat IPC: 1.11473 cumulative IPC: 1.03283 (Simulation time: 22 hr 37 min 7 sec) 
 Total Blocks : 196608 Invalid Blocks : 0 Valid Blocks : 196608
 Total Tags : 491520 Threshold : 12288 Invalid Tags : 196608 Pr0 Tags : 98304 Pr1 Tags : 196608 num_pr0 : 12288
 SAE Count : 0
 Inter-Core Inteference in Data Store : 94180964
Heartbeat CPU 6 instructions: 200000002 cycles: 193707690 heartbeat IPC: 1.1141 cumulative IPC: 1.03248 (Simulation time: 22 hr 37 min 27 sec) 
 Total Blocks : 196608 Invalid Blocks : 0 Valid Blocks : 196608
 Total Tags : 491520 Threshold : 12288 Invalid Tags : 196608 Pr0 Tags : 98304 Pr1 Tags : 196608 num_pr0 : 12288
 SAE Count : 0
 Inter-Core Inteference in Data Store : 94221895
Heartbeat CPU 7 instructions: 200000002 cycles: 193753874 heartbeat IPC: 1.11388 cumulative IPC: 1.03224 (Simulation time: 22 hr 37 min 42 sec) 
 Total Blocks : 196608 Invalid Blocks : 0 Valid Blocks : 196608
 Total Tags : 491520 Threshold : 12288 Invalid Tags : 196608 Pr0 Tags : 98304 Pr1 Tags : 196608 num_pr0 : 12288
 SAE Count : 0
 Inter-Core Inteference in Data Store : 94251100

Warmup complete CPU 0 instructions: 200532411 cycles: 193753874 (Simulation time: 22 hr 37 min 42 sec) 
Warmup complete CPU 1 instructions: 200436224 cycles: 193753874 (Simulation time: 22 hr 37 min 42 sec) 
Warmup complete CPU 2 instructions: 200349792 cycles: 193753874 (Simulation time: 22 hr 37 min 42 sec) 
Warmup complete CPU 3 instructions: 200264247 cycles: 193753874 (Simulation time: 22 hr 37 min 42 sec) 
Warmup complete CPU 4 instructions: 200200472 cycles: 193753874 (Simulation time: 22 hr 37 min 42 sec) 
Warmup complete CPU 5 instructions: 200125984 cycles: 193753874 (Simulation time: 22 hr 37 min 42 sec) 
Warmup complete CPU 6 instructions: 200052868 cycles: 193753874 (Simulation time: 22 hr 37 min 42 sec) 
Warmup complete CPU 7 instructions: 200000002 cycles: 193753874 (Simulation time: 22 hr 37 min 42 sec) 

Heartbeat CPU 0 instructions: 210000002 cycles: 387640318 heartbeat IPC: 0.0514501 cumulative IPC: 0.0488306 (Simulation time: 25 hr 14 min 27 sec) 
 Total Blocks : 196608 Invalid Blocks : 0 Valid Blocks : 196608
 Total Tags : 491520 Threshold : 12288 Invalid Tags : 196609 Pr0 Tags : 98303 Pr1 Tags : 196608 num_pr0 : 12288
 SAE Count : 0
 Inter-Core Inteference in Data Store : 4665051
Heartbeat CPU 1 instructions: 210000002 cycles: 389777455 heartbeat IPC: 0.0509131 cumulative IPC: 0.0487889 (Simulation time: 25 hr 16 min 7 sec) 
 Total Blocks : 196608 Invalid Blocks : 0 Valid Blocks : 196608
 Total Tags : 491520 Threshold : 12288 Invalid Tags : 196611 Pr0 Tags : 98301 Pr1 Tags : 196608 num_pr0 : 12288
 SAE Count : 0
 Inter-Core Inteference in Data Store : 4714884
Heartbeat CPU 2 instructions: 210000002 cycles: 391665435 heartbeat IPC: 0.0504479 cumulative IPC: 0.0487602 (Simulation time: 25 hr 17 min 38 sec) 
 Total Blocks : 196608 Invalid Blocks : 0 Valid Blocks : 196608
 Total Tags : 491520 Threshold : 12288 Invalid Tags : 196609 Pr0 Tags : 98303 Pr1 Tags : 196608 num_pr0 : 12287
 SAE Count : 0
 Inter-Core Inteference in Data Store : 4759352
Heartbeat CPU 3 instructions: 210000002 cycles: 392878637 heartbeat IPC: 0.0501593 cumulative IPC: 0.0488927 (Simulation time: 25 hr 18 min 35 sec) 
 Total Blocks : 196608 Invalid Blocks : 0 Valid Blocks : 196608
 Total Tags : 491520 Threshold : 12288 Invalid Tags : 196608 Pr0 Tags : 98304 Pr1 Tags : 196608 num_pr0 : 12288
 SAE Count : 0
 Inter-Core Inteference in Data Store : 4787890
Heartbeat CPU 4 instructions: 210000002 cycles: 394572469 heartbeat IPC: 0.0497511 cumulative IPC: 0.0487979 (Simulation time: 25 hr 19 min 57 sec) 
 Total Blocks : 196608 Invalid Blocks : 0 Valid Blocks : 196608
 Total Tags : 491520 Threshold : 12288 Invalid Tags : 196610 Pr0 Tags : 98302 Pr1 Tags : 196608 num_pr0 : 12288
 SAE Count : 0
 Inter-Core Inteference in Data Store : 4827459
Heartbeat CPU 5 instructions: 210000003 cycles: 396109686 heartbeat IPC: 0.0493909 cumulative IPC: 0.0487953 (Simulation time: 25 hr 21 min 8 sec) 
 Total Blocks : 196608 Invalid Blocks : 0 Valid Blocks : 196608
 Total Tags : 491520 Threshold : 12288 Invalid Tags : 196609 Pr0 Tags : 98303 Pr1 Tags : 196608 num_pr0 : 12288
 SAE Count : 0
 Inter-Core Inteference in Data Store : 4863911
Heartbeat CPU 6 instructions: 210000002 cycles: 397884855 heartbeat IPC: 0.0489771 cumulative IPC: 0.0487292 (Simulation time: 25 hr 22 min 36 sec) 
 Total Blocks : 196608 Invalid Blocks : 0 Valid Blocks : 196608
 Total Tags : 491520 Threshold : 12288 Invalid Tags : 196608 Pr0 Tags : 98304 Pr1 Tags : 196608 num_pr0 : 12288
 SAE Count : 0
 Inter-Core Inteference in Data Store : 4905756
Heartbeat CPU 7 instructions: 210000002 cycles: 398088981 heartbeat IPC: 0.0489392 cumulative IPC: 0.0489392 (Simulation time: 25 hr 22 min 46 sec) 
 Total Blocks : 196608 Invalid Blocks : 0 Valid Blocks : 196608
 Total Tags : 491520 Threshold : 12288 Invalid Tags : 196608 Pr0 Tags : 98304 Pr1 Tags : 196608 num_pr0 : 12288
 SAE Count : 0
 Inter-Core Inteference in Data Store : 4910582
Heartbeat CPU 0 instructions: 220000000 cycles: 592457983 heartbeat IPC: 0.0488239 cumulative IPC: 0.0488272 (Simulation time: 27 hr 49 min 21 sec) 
 Total Blocks : 196608 Invalid Blocks : 0 Valid Blocks : 196608
 Total Tags : 491520 Threshold : 12288 Invalid Tags : 196608 Pr0 Tags : 98304 Pr1 Tags : 196608 num_pr0 : 12288
 SAE Count : 0
 Inter-Core Inteference in Data Store : 9543572
Heartbeat CPU 1 instructions: 220000000 cycles: 595115148 heartbeat IPC: 0.0487003 cumulative IPC: 0.0487436 (Simulation time: 27 hr 51 min 3 sec) 
 Total Blocks : 196608 Invalid Blocks : 0 Valid Blocks : 196608
 Total Tags : 491520 Threshold : 12288 Invalid Tags : 196609 Pr0 Tags : 98303 Pr1 Tags : 196608 num_pr0 : 12288
 SAE Count : 0
 Inter-Core Inteference in Data Store : 9606335
Heartbeat CPU 2 instructions: 220000000 cycles: 596359188 heartbeat IPC: 0.0488535 cumulative IPC: 0.0488076 (Simulation time: 27 hr 51 min 51 sec) 
 Total Blocks : 196608 Invalid Blocks : 0 Valid Blocks : 196608
 Total Tags : 491520 Threshold : 12288 Invalid Tags : 196608 Pr0 Tags : 98304 Pr1 Tags : 196608 num_pr0 : 12288
 SAE Count : 0
 Inter-Core Inteference in Data Store : 9634993
Heartbeat CPU 3 instructions: 220000000 cycles: 597934948 heartbeat IPC: 0.0487671 cumulative IPC: 0.048829 (Simulation time: 27 hr 52 min 55 sec) 
 Total Blocks : 196608 Invalid Blocks : 0 Valid Blocks : 196608
 Total Tags : 491520 Threshold : 12288 Invalid Tags : 196608 Pr0 Tags : 98304 Pr1 Tags : 196608 num_pr0 : 12288
 SAE Count : 0
 Inter-Core Inteference in Data Store : 9672424
Heartbeat CPU 4 instructions: 220000000 cycles: 599027772 heartbeat IPC: 0.0489104 cumulative IPC: 0.0488547 (Simulation time: 27 hr 53 min 44 sec) 
 Total Blocks : 196608 Invalid Blocks : 0 Valid Blocks : 196608
 Total Tags : 491520 Threshold : 12288 Invalid Tags : 196608 Pr0 Tags : 98304 Pr1 Tags : 196608 num_pr0 : 12288
 SAE Count : 0
 Inter-Core Inteference in Data Store : 9697863
Heartbeat CPU 5 instructions: 220000000 cycles: 600896783 heartbeat IPC: 0.0488312 cumulative IPC: 0.0488134 (Simulation time: 27 hr 54 min 59 sec) 
 Total Blocks : 196608 Invalid Blocks : 0 Valid Blocks : 196608
 Total Tags : 491520 Threshold : 12288 Invalid Tags : 196608 Pr0 Tags : 98304 Pr1 Tags : 196608 num_pr0 : 12288
 SAE Count : 0
 Inter-Core Inteference in Data Store : 9740839
Heartbeat CPU 6 instructions: 220000000 cycles: 602970240 heartbeat IPC: 0.0487602 cumulative IPC: 0.0487447 (Simulation time: 27 hr 56 min 23 sec) 
 Total Blocks : 196608 Invalid Blocks : 0 Valid Blocks : 196608
 Total Tags : 491520 Threshold : 12288 Invalid Tags : 196608 Pr0 Tags : 98304 Pr1 Tags : 196608 num_pr0 : 12288
 SAE Count : 0
 Inter-Core Inteference in Data Store : 9789642
Heartbeat CPU 7 instructions: 220000000 cycles: 603038527 heartbeat IPC: 0.0487925 cumulative IPC: 0.0488657 (Simulation time: 27 hr 56 min 26 sec) 
 Total Blocks : 196608 Invalid Blocks : 0 Valid Blocks : 196608
 Total Tags : 491520 Threshold : 12288 Invalid Tags : 196608 Pr0 Tags : 98304 Pr1 Tags : 196608 num_pr0 : 12288
 SAE Count : 0
 Inter-Core Inteference in Data Store : 9791307
Heartbeat CPU 0 instructions: 230000001 cycles: 797661944 heartbeat IPC: 0.048732 cumulative IPC: 0.0487948 (Simulation time: 30 hr 10 min 19 sec) 
 Total Blocks : 196608 Invalid Blocks : 0 Valid Blocks : 196608
 Total Tags : 491520 Threshold : 12288 Invalid Tags : 196609 Pr0 Tags : 98303 Pr1 Tags : 196608 num_pr0 : 12288
 SAE Count : 0
 Inter-Core Inteference in Data Store : 14429486
Heartbeat CPU 1 instructions: 230000000 cycles: 799808123 heartbeat IPC: 0.0488537 cumulative IPC: 0.0487807 (Simulation time: 30 hr 11 min 51 sec) 
 Total Blocks : 196608 Invalid Blocks : 0 Valid Blocks : 196608
 Total Tags : 491520 Threshold : 12288 Invalid Tags : 196608 Pr0 Tags : 98304 Pr1 Tags : 196608 num_pr0 : 12288
 SAE Count : 0
 Inter-Core Inteference in Data Store : 14481086
Heartbeat CPU 2 instructions: 230000000 cycles: 801333928 heartbeat IPC: 0.0487865 cumulative IPC: 0.0488005 (Simulation time: 30 hr 12 min 55 sec) 
 Total Blocks : 196608 Invalid Blocks : 0 Valid Blocks : 196608
 Total Tags : 491520 Threshold : 12288 Invalid Tags : 196608 Pr0 Tags : 98304 Pr1 Tags : 196608 num_pr0 : 12288
 SAE Count : 0
 Inter-Core Inteference in Data Store : 14518066
Heartbeat CPU 3 instructions: 230000000 cycles: 802875824 heartbeat IPC: 0.0487946 cumulative IPC: 0.0488174 (Simulation time: 30 hr 13 min 58 sec) 
 Total Blocks : 196608 Invalid Blocks : 0 Valid Blocks : 196608
 Total Tags : 491520 Threshold : 12288 Invalid Tags : 196608 Pr0 Tags : 98304 Pr1 Tags : 196608 num_pr0 : 12288
 SAE Count : 0
 Inter-Core Inteference in Data Store : 14555337
Heartbeat CPU 4 instructions: 230000000 cycles: 803799620 heartbeat IPC: 0.0488348 cumulative IPC: 0.048848 (Simulation time: 30 hr 14 min 36 sec) 
 Total Blocks : 196608 Invalid Blocks : 0 Valid Blocks : 196608
 Total Tags : 491520 Threshold : 12288 Invalid Tags : 196609 Pr0 Tags : 98303 Pr1 Tags : 196608 num_pr0 : 12287
 SAE Count : 0
 Inter-Core Inteference in Data Store : 14578131
Heartbeat CPU 5 instructions: 230000000 cycles: 805542263 heartbeat IPC: 0.048865 cumulative IPC: 0.0488306 (Simulation time: 30 hr 15 min 47 sec) 
 Total Blocks : 196608 Invalid Blocks : 0 Valid Blocks : 196608
 Total Tags : 491520 Threshold : 12288 Invalid Tags : 196608 Pr0 Tags : 98304 Pr1 Tags : 196608 num_pr0 : 12288
 SAE Count : 0
 Inter-Core Inteference in Data Store : 14620388
Heartbeat CPU 7 instructions: 230000000 cycles: 807585785 heartbeat IPC: 0.0488885 cumulative IPC: 0.0488733 (Simulation time: 30 hr 17 min 12 sec) 
 Total Blocks : 196608 Invalid Blocks : 0 Valid Blocks : 196608
 Total Tags : 491520 Threshold : 12288 Invalid Tags : 196609 Pr0 Tags : 98303 Pr1 Tags : 196608 num_pr0 : 12288
 SAE Count : 0
 Inter-Core Inteference in Data Store : 14669982
Heartbeat CPU 6 instructions: 230000000 cycles: 807985885 heartbeat IPC: 0.0487768 cumulative IPC: 0.0487554 (Simulation time: 30 hr 17 min 27 sec) 
 Total Blocks : 196608 Invalid Blocks : 0 Valid Blocks : 196608
 Total Tags : 491520 Threshold : 12288 Invalid Tags : 196610 Pr0 Tags : 98302 Pr1 Tags : 196608 num_pr0 : 12287
 SAE Count : 0
 Inter-Core Inteference in Data Store : 14679790
Heartbeat CPU 0 instructions: 240000001 cycles: 1002365137 heartbeat IPC: 0.0488512 cumulative IPC: 0.0488091 (Simulation time: 43 hr 3 min 57 sec) 
 Total Blocks : 196608 Invalid Blocks : 0 Valid Blocks : 196608
 Total Tags : 491520 Threshold : 12288 Invalid Tags : 196608 Pr0 Tags : 98304 Pr1 Tags : 196608 num_pr0 : 12288
 SAE Count : 0
 Inter-Core Inteference in Data Store : 19289278
Heartbeat CPU 1 instructions: 240000001 cycles: 1004354829 heartbeat IPC: 0.0488886 cumulative IPC: 0.048808 (Simulation time: 44 hr 4 min 13 sec) 
 Total Blocks : 196608 Invalid Blocks : 0 Valid Blocks : 196608
 Total Tags : 491520 Threshold : 12288 Invalid Tags : 196609 Pr0 Tags : 98303 Pr1 Tags : 196608 num_pr0 : 12288
 SAE Count : 0
 Inter-Core Inteference in Data Store : 19337389
Heartbeat CPU 2 instructions: 240000001 cycles: 1005656169 heartbeat IPC: 0.0489423 cumulative IPC: 0.0488362 (Simulation time: 44 hr 35 min 40 sec) 
 Total Blocks : 196608 Invalid Blocks : 0 Valid Blocks : 196608
 Total Tags : 491520 Threshold : 12288 Invalid Tags : 196608 Pr0 Tags : 98304 Pr1 Tags : 196608 num_pr0 : 12288
 SAE Count : 0
 Inter-Core Inteference in Data Store : 19369030
Heartbeat CPU 3 instructions: 240000001 cycles: 1007124986 heartbeat IPC: 0.0489598 cumulative IPC: 0.0488532 (Simulation time: 45 hr 14 min 13 sec) 
 Total Blocks : 196608 Invalid Blocks : 0 Valid Blocks : 196608
 Total Tags : 491520 Threshold : 12288 Invalid Tags : 196608 Pr0 Tags : 98304 Pr1 Tags : 196608 num_pr0 : 12288
 SAE Count : 0
 Inter-Core Inteference in Data Store : 19405156
Heartbeat CPU 4 instructions: 240000001 cycles: 1007763259 heartbeat IPC: 0.0490284 cumulative IPC: 0.0488932 (Simulation time: 45 hr 31 min 9 sec) 
 Total Blocks : 196608 Invalid Blocks : 0 Valid Blocks : 196608
 Total Tags : 491520 Threshold : 12288 Invalid Tags : 196609 Pr0 Tags : 98303 Pr1 Tags : 196608 num_pr0 : 12287
 SAE Count : 0
 Inter-Core Inteference in Data Store : 19420607
Heartbeat CPU 5 instructions: 240000001 cycles: 1009369897 heartbeat IPC: 0.0490611 cumulative IPC: 0.0488882 (Simulation time: 46 hr 9 min 25 sec) 
 Total Blocks : 196608 Invalid Blocks : 0 Valid Blocks : 196608
 Total Tags : 491520 Threshold : 12288 Invalid Tags : 196609 Pr0 Tags : 98303 Pr1 Tags : 196608 num_pr0 : 12288
 SAE Count : 0
 Inter-Core Inteference in Data Store : 19459474
Heartbeat CPU 7 instructions: 240000001 cycles: 1011491992 heartbeat IPC: 0.0490422 cumulative IPC: 0.0489154 (Simulation time: 46 hr 58 min 9 sec) 
 Total Blocks : 196608 Invalid Blocks : 0 Valid Blocks : 196608
 Total Tags : 491520 Threshold : 12288 Invalid Tags : 196609 Pr0 Tags : 98303 Pr1 Tags : 196608 num_pr0 : 12288
 SAE Count : 0
 Inter-Core Inteference in Data Store : 19510515
Heartbeat CPU 6 instructions: 240000001 cycles: 1012590529 heartbeat IPC: 0.0488748 cumulative IPC: 0.0487852 (Simulation time: 47 hr 20 min 59 sec) 
 Total Blocks : 196608 Invalid Blocks : 0 Valid Blocks : 196608
 Total Tags : 491520 Threshold : 12288 Invalid Tags : 196608 Pr0 Tags : 98304 Pr1 Tags : 196608 num_pr0 : 12288
 SAE Count : 0
 Inter-Core Inteference in Data Store : 19537001
Heartbeat CPU 0 instructions: 250000001 cycles: 1207070857 heartbeat IPC: 0.0488506 cumulative IPC: 0.0488175 (Simulation time: 81 hr 24 min 32 sec) 
 Total Blocks : 196608 Invalid Blocks : 0 Valid Blocks : 196608
 Total Tags : 491520 Threshold : 12288 Invalid Tags : 196609 Pr0 Tags : 98303 Pr1 Tags : 196608 num_pr0 : 12287
 SAE Count : 0
 Inter-Core Inteference in Data Store : 24180722
Heartbeat CPU 1 instructions: 250000001 cycles: 1209216086 heartbeat IPC: 0.0488135 cumulative IPC: 0.0488091 (Simulation time: 81 hr 36 min 7 sec) 
 Total Blocks : 196608 Invalid Blocks : 0 Valid Blocks : 196608
 Total Tags : 491520 Threshold : 12288 Invalid Tags : 196610 Pr0 Tags : 98302 Pr1 Tags : 196608 num_pr0 : 12288
 SAE Count : 0
 Inter-Core Inteference in Data Store : 24233017
Heartbeat CPU 2 instructions: 250000001 cycles: 1210179924 heartbeat IPC: 0.0488941 cumulative IPC: 0.0488478 (Simulation time: 81 hr 42 min 24 sec) 
 Total Blocks : 196608 Invalid Blocks : 0 Valid Blocks : 196608
 Total Tags : 491520 Threshold : 12288 Invalid Tags : 196610 Pr0 Tags : 98302 Pr1 Tags : 196608 num_pr0 : 12288
 SAE Count : 0
 Inter-Core Inteference in Data Store : 24256436
Heartbeat CPU 3 instructions: 250000002 cycles: 1211772285 heartbeat IPC: 0.0488646 cumulative IPC: 0.0488555 (Simulation time: 81 hr 51 min 40 sec) 
 Total Blocks : 196608 Invalid Blocks : 0 Valid Blocks : 196608
 Total Tags : 491520 Threshold : 12288 Invalid Tags : 196608 Pr0 Tags : 98304 Pr1 Tags : 196608 num_pr0 : 12288
 SAE Count : 0
 Inter-Core Inteference in Data Store : 24295024
Heartbeat CPU 4 instructions: 250000001 cycles: 1212189465 heartbeat IPC: 0.0489174 cumulative IPC: 0.0488981 (Simulation time: 81 hr 54 min 13 sec) 
 Total Blocks : 196608 Invalid Blocks : 0 Valid Blocks : 196608
 Total Tags : 491520 Threshold : 12288 Invalid Tags : 196608 Pr0 Tags : 98304 Pr1 Tags : 196608 num_pr0 : 12288
 SAE Count : 0
 Inter-Core Inteference in Data Store : 24305380
Heartbeat CPU 5 instructions: 250000001 cycles: 1213719314 heartbeat IPC: 0.0489358 cumulative IPC: 0.0488978 (Simulation time: 82 hr 3 min 52 sec) 
 Total Blocks : 196608 Invalid Blocks : 0 Valid Blocks : 196608
 Total Tags : 491520 Threshold : 12288 Invalid Tags : 196608 Pr0 Tags : 98304 Pr1 Tags : 196608 num_pr0 : 12288
 SAE Count : 0
[...]
LLC4 RFO       ACCESS:  1963  HIT:   657  MISS:  1306  HIT %: 33.4692  MISS %: 66.5308  AVERAGE MISS PENALTY: 685.718
LLC4 PREFETCH  ACCESS: 8506883  HIT: 3503464  MISS: 5003419  HIT %: 41.1839  MISS %: 58.8161  AVERAGE MISS PENALTY: 733.767
LLC4 WRITEBACK ACCESS: 302217  HIT: 48064  MISS: 254153  HIT %: 15.9038  MISS %: 84.0962  AVERAGE MISS PENALTY: 0
LLC4 PREFETCH  REQUESTED:     0  ISSUED:     0  USEFUL: 1922699  USELESS: 7103357
 USEFUL LOAD PREFETCHES:    1922699 PREFETCH ISSUED TO LOWER LEVEL:  698453587  ACCURACY: 0.275279
 TIMELY PREFETCHES:    1922699 LATE PREFETCHES: 0 DROPPED PREFETCHES: 0
LLC4 AVERAGE MISS LATENCY: 699.498 cycles

LLC4 Set Associative Eviction Count : 0
LLC4 Priority 0 entries : 12288
LLC4 Inter-Core Interference : 11560399
LLC5 TOTAL     ACCESS: 10853413  HIT: 4426969  MISS: 6426444  HIT %: 40.7887  MISS %: 59.2113  AVERAGE MISS PENALTY: 670.165
LLC5 LOAD      ACCESS: 2191407  HIT: 928943  MISS: 1262464  HIT %: 42.3903  MISS %: 57.6097  AVERAGE MISS PENALTY: 671.129
LLC5 RFO       ACCESS:  1995  HIT:   689  MISS:  1306  HIT %: 34.5363  MISS %: 65.4637  AVERAGE MISS PENALTY: 677.789
LLC5 PREFETCH  ACCESS: 8355171  HIT: 3447772  MISS: 4907399  HIT %: 41.2651  MISS %: 58.7349  AVERAGE MISS PENALTY: 704.775
LLC5 WRITEBACK ACCESS: 304840  HIT: 49565  MISS: 255275  HIT %: 16.2593  MISS %: 83.7407  AVERAGE MISS PENALTY: 0
LLC5 PREFETCH  REQUESTED:     0  ISSUED:     0  USEFUL: 1863712  USELESS: 7030792
 USEFUL LOAD PREFETCHES:    1863712 PREFETCH ISSUED TO LOWER LEVEL:  554254268  ACCURACY: 0.336256
 TIMELY PREFETCHES:    1863712 LATE PREFETCHES: 0 DROPPED PREFETCHES: 0
LLC5 AVERAGE MISS LATENCY: 670.165 cycles

LLC5 Set Associative Eviction Count : 0
LLC5 Priority 0 entries : 12288
LLC5 Inter-Core Interference : 11436917
LLC6 TOTAL     ACCESS: 10627339  HIT: 4348239  MISS: 6279100  HIT %: 40.9156  MISS %: 59.0844  AVERAGE MISS PENALTY: 691.537
LLC6 LOAD      ACCESS: 2183048  HIT: 898139  MISS: 1284909  HIT %: 41.1415  MISS %: 58.8585  AVERAGE MISS PENALTY: 701.152
LLC6 RFO       ACCESS:  1934  HIT:   631  MISS:  1303  HIT %: 32.6267  MISS %: 67.3733  AVERAGE MISS PENALTY: 693.231
LLC6 PREFETCH  ACCESS: 8136091  HIT: 3399987  MISS: 4736104  HIT %: 41.789  MISS %: 58.211  AVERAGE MISS PENALTY: 726.422
LLC6 WRITEBACK ACCESS: 306266  HIT: 49482  MISS: 256784  HIT %: 16.1565  MISS %: 83.8435  AVERAGE MISS PENALTY: 0
LLC6 PREFETCH  REQUESTED:     0  ISSUED:     0  USEFUL: 1855392  USELESS: 6851388
 USEFUL LOAD PREFETCHES:    1855392 PREFETCH ISSUED TO LOWER LEVEL:  914845293  ACCURACY: 0.202809
 TIMELY PREFETCHES:    1855392 LATE PREFETCHES: 0 DROPPED PREFETCHES: 0
LLC6 AVERAGE MISS LATENCY: 691.537 cycles

LLC6 Set Associative Eviction Count : 0
LLC6 Priority 0 entries : 12288
LLC6 Inter-Core Interference : 11308358
LLC7 TOTAL     ACCESS: 10411620  HIT: 4339189  MISS: 6072431  HIT %: 41.6764  MISS %: 58.3236  AVERAGE MISS PENALTY: 666.959
LLC7 LOAD      ACCESS: 2175103  HIT: 912908  MISS: 1262195  HIT %: 41.9708  MISS %: 58.0292  AVERAGE MISS PENALTY: 665.153
LLC7 RFO       ACCESS:  1866  HIT:   556  MISS:  1310  HIT %: 29.7964  MISS %: 70.2036  AVERAGE MISS PENALTY: 651.378
LLC7 PREFETCH  ACCESS: 7931801  HIT: 3376838  MISS: 4554963  HIT %: 42.5734  MISS %: 57.4266  AVERAGE MISS PENALTY: 704.651
LLC7 WRITEBACK ACCESS: 302850  HIT: 48887  MISS: 253963  HIT %: 16.1423  MISS %: 83.8577  AVERAGE MISS PENALTY: 0
LLC7 PREFETCH  REQUESTED:     0  ISSUED:     0  USEFUL: 1825745  USELESS: 6817225
 USEFUL LOAD PREFETCHES:    1825745 PREFETCH ISSUED TO LOWER LEVEL:  708103197  ACCURACY: 0.257836
 TIMELY PREFETCHES:    1825745 LATE PREFETCHES: 0 DROPPED PREFETCHES: 0
LLC7 AVERAGE MISS LATENCY: 666.959 cycles

LLC7 Set Associative Eviction Count : 0
LLC7 Priority 0 entries : 12288
LLC7 Inter-Core Interference : 11204486
ROI Average ROB Stall Cycles:	67.8967
ROI Total ROB Stalls Cycles:	3819847317
ROI TOTAL ROB counter      :	56259691
ROI Average Load ROB Stall Cycles:	484.679
ROI Total Load ROB Stalls Cycle  :	3103733588
ROI Total Load ROB stalls Counter:	6403695
Major fault: 0 Minor fault: 37418

CPU 7 cumulative IPC: 0.051534 instructions: 200000003 cycles: 3880932238
ITLB TOTAL     ACCESS: 29464968  HIT: 29464968  MISS:     0  HIT %:   100  MISS %:     0  AVERAGE MISS PENALTY: 0
ITLB LOAD      ACCESS: 29464968  HIT: 29464968  MISS:     0  HIT %:   100  MISS %:     0  AVERAGE MISS PENALTY: 0
ITLB RFO       ACCESS:     0  HIT:     0  MISS:     0  HIT %:     0  MISS %:     0  AVERAGE MISS PENALTY: 0
ITLB PREFETCH  ACCESS:     0  HIT:     0  MISS:     0  HIT %:     0  MISS %:     0  AVERAGE MISS PENALTY: 0
ITLB WRITEBACK ACCESS:     0  HIT:     0  MISS:     0  HIT %:     0  MISS %:     0  AVERAGE MISS PENALTY: 0
ITLB PREFETCH  REQUESTED:     0  ISSUED:     0  USEFUL:     0  USELESS:     0
 USEFUL LOAD PREFETCHES:          0 PREFETCH ISSUED TO LOWER LEVEL:          0  ACCURACY: -nan
 TIMELY PREFETCHES:          0 LATE PREFETCHES: 0 DROPPED PREFETCHES: 0
ITLB AVERAGE MISS LATENCY: -nan cycles

ITLB Set Associative Eviction Count : 0
ITLB Priority 0 entries : 0
ITLB Inter-Core Interference : 0
DTLB TOTAL     ACCESS: 42318886  HIT: 27376797  MISS: 14942089  HIT %: 64.6917  MISS %: 35.3083  AVERAGE MISS PENALTY: 32.4531
DTLB LOAD      ACCESS: 37571207  HIT: 24753856  MISS: 12817351  HIT %: 65.8852  MISS %: 34.1148  AVERAGE MISS PENALTY: 26.5672
DTLB RFO       ACCESS: 4747679  HIT: 2622941  MISS: 2124738  HIT %: 55.2468  MISS %: 44.7532  AVERAGE MISS PENALTY: 67.959
DTLB PREFETCH  ACCESS:     0  HIT:     0  MISS:     0  HIT %:     0  MISS %:     0  AVERAGE MISS PENALTY: 0
DTLB WRITEBACK ACCESS:     0  HIT:     0  MISS:     0  HIT %:     0  MISS %:     0  AVERAGE MISS PENALTY: 0
DTLB PREFETCH  REQUESTED:     0  ISSUED:     0  USEFUL:     0  USELESS:     0
 USEFUL LOAD PREFETCHES:          0 PREFETCH ISSUED TO LOWER LEVEL:          0  ACCURACY: -nan
 TIMELY PREFETCHES:          0 LATE PREFETCHES: 0 DROPPED PREFETCHES: 0
DTLB AVERAGE MISS LATENCY: 32.4531 cycles

DTLB Set Associative Eviction Count : 0
DTLB Priority 0 entries : 0
DTLB Inter-Core Interference : 0
STLB TOTAL     ACCESS: 14942089  HIT: 13115536  MISS: 1826553  HIT %: 87.7758  MISS %: 12.2242  AVERAGE MISS PENALTY: 100
STLB LOAD      ACCESS: 12817351  HIT: 12062764  MISS: 754587  HIT %: 94.1128  MISS %: 5.88723  AVERAGE MISS PENALTY: 100
STLB RFO       ACCESS: 2124738  HIT: 1052772  MISS: 1071966  HIT %: 49.5483  MISS %: 50.4517  AVERAGE MISS PENALTY: 100
STLB PREFETCH  ACCESS:     0  HIT:     0  MISS:     0  HIT %:     0  MISS %:     0  AVERAGE MISS PENALTY: 0
STLB WRITEBACK ACCESS:     0  HIT:     0  MISS:     0  HIT %:     0  MISS %:     0  AVERAGE MISS PENALTY: 0
STLB PREFETCH  REQUESTED:     0  ISSUED:     0  USEFUL:     0  USELESS:     0
 USEFUL LOAD PREFETCHES:          0 PREFETCH ISSUED TO LOWER LEVEL:          0  ACCURACY: -nan
 TIMELY PREFETCHES:          0 LATE PREFETCHES: 0 DROPPED PREFETCHES: 0
STLB AVERAGE MISS LATENCY: 100 cycles

STLB Set Associative Eviction Count : 0
STLB Priority 0 entries : 0
STLB Inter-Core Interference : 0
L1D TOTAL     ACCESS: 83591332  HIT: 26973070  MISS: 56618262  HIT %: 32.2678  MISS %: 67.7322  AVERAGE MISS PENALTY: 1.29603e+06
L1D LOAD      ACCESS: 38089222  HIT: 20449523  MISS: 17639699  HIT %: 53.6885  MISS %: 46.3115  AVERAGE MISS PENALTY: 4.15884e+06
L1D RFO       ACCESS: 4848389  HIT: 4811601  MISS: 36788  HIT %: 99.2412  MISS %: 0.758767  AVERAGE MISS PENALTY: 237.549
L1D PREFETCH  ACCESS: 40653721  HIT: 1711946  MISS: 38941775  HIT %: 4.21104  MISS %: 95.789  AVERAGE MISS PENALTY: 465.288
L1D WRITEBACK ACCESS:     0  HIT:     0  MISS:     0  HIT %:     0  MISS %:     0  AVERAGE MISS PENALTY: 0
L1D PREFETCH  REQUESTED: 61919132  ISSUED: 40913902  USEFUL: 939218  USELESS: 38002612
 USEFUL LOAD PREFETCHES:     939218 PREFETCH ISSUED TO LOWER LEVEL:  663778356  ACCURACY: 0.141496
 TIMELY PREFETCHES:     939218 LATE PREFETCHES: 108545 DROPPED PREFETCHES: 21005230
L1D AVERAGE MISS LATENCY: 471.45 cycles

L1D Set Associative Eviction Count : 0
L1D Priority 0 entries : 0
L1D Inter-Core Interference : 0
L1I TOTAL     ACCESS: 45174686  HIT: 45174686  MISS:     0  HIT %:   100  MISS %:     0  AVERAGE MISS PENALTY: 0
L1I LOAD      ACCESS: 45174686  HIT: 45174686  MISS:     0  HIT %:   100  MISS %:     0  AVERAGE MISS PENALTY: 0
L1I RFO       ACCESS:     0  HIT:     0  MISS:     0  HIT %:     0  MISS %:     0  AVERAGE MISS PENALTY: 0
L1I PREFETCH  ACCESS:     0  HIT:     0  MISS:     0  HIT %:     0  MISS %:     0  AVERAGE MISS PENALTY: 0
L1I WRITEBACK ACCESS:     0  HIT:     0  MISS:     0  HIT %:     0  MISS %:     0  AVERAGE MISS PENALTY: 0
L1I PREFETCH  REQUESTED:     0  ISSUED:     0  USEFUL:     0  USELESS:     0
 USEFUL LOAD PREFETCHES:          0 PREFETCH ISSUED TO LOWER LEVEL:          0  ACCURACY: -nan
 TIMELY PREFETCHES:          0 LATE PREFETCHES: 0 DROPPED PREFETCHES: 0
L1I AVERAGE MISS LATENCY: -nan cycles

L1I Set Associative Eviction Count : 0
L1I Priority 0 entries : 0
L1I Inter-Core Interference : 0
L2C TOTAL     ACCESS: 92918590  HIT: 7774940  MISS: 85143650  HIT %: 8.36748  MISS %: 91.6325  AVERAGE MISS PENALTY: 779093
L2C LOAD      ACCESS: 17638989  HIT: 303615  MISS: 17335374  HIT %: 1.72127  MISS %: 98.2787  AVERAGE MISS PENALTY: 3.82464e+06
L2C RFO       ACCESS: 36780  HIT: 24533  MISS: 12247  HIT %: 66.702  MISS %: 33.298  AVERAGE MISS PENALTY: 663.987
L2C PREFETCH  ACCESS: 72789526  HIT: 5049785  MISS: 67739741  HIT %: 6.93752  MISS %: 93.0625  AVERAGE MISS PENALTY: 492.016
L2C WRITEBACK ACCESS: 2453295  HIT: 2397007  MISS: 56288  HIT %: 97.7056  MISS %: 2.29438  AVERAGE MISS PENALTY: 0
L2C PREFETCH  REQUESTED: 92723279  ISSUED: 92059432  USEFUL: 176446  USELESS: 67564800
 USEFUL LOAD PREFETCHES:     176446 PREFETCH ISSUED TO LOWER LEVEL:   97743069  ACCURACY: 0.18052
 TIMELY PREFETCHES:     176446 LATE PREFETCHES: 270610 DROPPED PREFETCHES: 663847
L2C AVERAGE MISS LATENCY: 488.081 cycles

L2C Set Associative Eviction Count : 0
L2C Priority 0 entries : 0
L2C Inter-Core Interference : 0
LLC0 TOTAL     ACCESS: 11153428  HIT: 4510260  MISS: 6643168  HIT %: 40.4383  MISS %: 59.5617  AVERAGE MISS PENALTY: 781.979
LLC0 LOAD      ACCESS: 2196683  HIT: 912667  MISS: 1284016  HIT %: 41.5475  MISS %: 58.4525  AVERAGE MISS PENALTY: 796.592
LLC0 RFO       ACCESS:  1537  HIT:   232  MISS:  1305  HIT %: 15.0943  MISS %: 84.9057  AVERAGE MISS PENALTY: 753.051
LLC0 PREFETCH  ACCESS: 8656899  HIT: 3559556  MISS: 5097343  HIT %: 41.1181  MISS %: 58.8819  AVERAGE MISS PENALTY: 818.27
LLC0 WRITEBACK ACCESS: 298309  HIT: 37805  MISS: 260504  HIT %: 12.6731  MISS %: 87.3269  AVERAGE MISS PENALTY: 0
LLC0 PREFETCH  REQUESTED:     0  ISSUED:     0  USEFUL: 1948391  USELESS: 7531976
 USEFUL LOAD PREFETCHES:    1948391 PREFETCH ISSUED TO LOWER LEVEL:  388516542  ACCURACY: 0.501495
 TIMELY PREFETCHES:    1948391 LATE PREFETCHES: 0 DROPPED PREFETCHES: 0
LLC0 AVERAGE MISS LATENCY: 781.979 cycles

LLC0 Set Associative Eviction Count : 0
LLC0 Priority 0 entries : 12288
LLC0 Inter-Core Interference : 12005524
LLC1 TOTAL     ACCESS: 11314178  HIT: 4550909  MISS: 6763269  HIT %: 40.2231  MISS %: 59.7769  AVERAGE MISS PENALTY: 778.945
LLC1 LOAD      ACCESS: 2151931  HIT: 876331  MISS: 1275600  HIT %: 40.723  MISS %: 59.277  AVERAGE MISS PENALTY: 794.986
LLC1 RFO       ACCESS:  1560  HIT:   252  MISS:  1308  HIT %: 16.1538  MISS %: 83.8462  AVERAGE MISS PENALTY: 775.875
LLC1 PREFETCH  ACCESS: 8859656  HIT: 3636314  MISS: 5223342  HIT %: 41.0435  MISS %: 58.9565  AVERAGE MISS PENALTY: 814.252
LLC1 WRITEBACK ACCESS: 301031  HIT: 38012  MISS: 263019  HIT %: 12.6273  MISS %: 87.3727  AVERAGE MISS PENALTY: 0
LLC1 PREFETCH  REQUESTED:     0  ISSUED:     0  USEFUL: 1948263  USELESS: 7649323
 USEFUL LOAD PREFETCHES:    1948263 PREFETCH ISSUED TO LOWER LEVEL:  330215634  ACCURACY: 0.589997
 TIMELY PREFETCHES:    1948263 LATE PREFETCHES: 0 DROPPED PREFETCHES: 0
LLC1 AVERAGE MISS LATENCY: 778.945 cycles

LLC1 Set Associative Eviction Count : 0
LLC1 Priority 0 entries : 12288
LLC1 Inter-Core Interference : 12092508
LLC2 TOTAL     ACCESS: 11273797  HIT: 4540276  MISS: 6733521  HIT %: 40.2728  MISS %: 59.7272  AVERAGE MISS PENALTY: 772.766
LLC2 LOAD      ACCESS: 2143911  HIT: 887618  MISS: 1256293  HIT %: 41.4018  MISS %: 58.5982  AVERAGE MISS PENALTY: 794.348
LLC2 RFO       ACCESS:  1561  HIT:   254  MISS:  1307  HIT %: 16.2716  MISS %: 83.7284  AVERAGE MISS PENALTY: 771.034
LLC2 PREFETCH  ACCESS: 8829296  HIT: 3614240  MISS: 5215056  HIT %: 40.9346  MISS %: 59.0654  AVERAGE MISS PENALTY: 806.223
LLC2 WRITEBACK ACCESS: 299029  HIT: 38164  MISS: 260865  HIT %: 12.7626  MISS %: 87.2374  AVERAGE MISS PENALTY: 0
LLC2 PREFETCH  REQUESTED:     0  ISSUED:     0  USEFUL: 1910034  USELESS: 7569289
 USEFUL LOAD PREFETCHES:    1910034 PREFETCH ISSUED TO LOWER LEVEL:  527013354  ACCURACY: 0.362426
 TIMELY PREFETCHES:    1910034 LATE PREFETCHES: 0 DROPPED PREFETCHES: 0
LLC2 AVERAGE MISS LATENCY: 772.766 cycles

LLC2 Set Associative Eviction Count : 0
LLC2 Priority 0 entries : 12288
LLC2 Inter-Core Interference : 11955648
LLC3 TOTAL     ACCESS: 11055046  HIT: 4460298  MISS: 6594748  HIT %: 40.3463  MISS %: 59.6537  AVERAGE MISS PENALTY: 770.065
LLC3 LOAD      ACCESS: 2160937  HIT: 899779  MISS: 1261158  HIT %: 41.6384  MISS %: 58.3616  AVERAGE MISS PENALTY: 791.027
LLC3 RFO       ACCESS:  1514  HIT:   207  MISS:  1307  HIT %: 13.6724  MISS %: 86.3276  AVERAGE MISS PENALTY: 757.235
LLC3 PREFETCH  ACCESS: 8594385  HIT: 3521474  MISS: 5072911  HIT %: 40.9741  MISS %: 59.0259  AVERAGE MISS PENALTY: 804.229
LLC3 WRITEBACK ACCESS: 298210  HIT: 38838  MISS: 259372  HIT %: 13.0237  MISS %: 86.9763  AVERAGE MISS PENALTY: 0
LLC3 PREFETCH  REQUESTED:     0  ISSUED:     0  USEFUL: 1908448  USELESS: 7257957
 USEFUL LOAD PREFETCHES:    1908448 PREFETCH ISSUED TO LOWER LEVEL:  425005404  ACCURACY: 0.449041
 TIMELY PREFETCHES:    1908448 LATE PREFETCHES: 0 DROPPED PREFETCHES: 0
LLC3 AVERAGE MISS LATENCY: 770.065 cycles

LLC3 Set Associative Eviction Count : 0
LLC3 Priority 0 entries : 12288
LLC3 Inter-Core Interference : 11679266
LLC4 TOTAL     ACCESS: 10924455  HIT: 4410416  MISS: 6514039  HIT %: 40.372  MISS %: 59.628  AVERAGE MISS PENALTY: 698.727
LLC4 LOAD      ACCESS: 2143457  HIT: 876456  MISS: 1267001  HIT %: 40.8898  MISS %: 59.1102  AVERAGE MISS PENALTY: 704.219
LLC4 RFO       ACCESS:  1528  HIT:   219  MISS:  1309  HIT %: 14.3325  MISS %: 85.6675  AVERAGE MISS PENALTY: 721.96
LLC4 PREFETCH  ACCESS: 8479945  HIT: 3493669  MISS: 4986276  HIT %: 41.1992  MISS %: 58.8008  AVERAGE MISS PENALTY: 733.683
LLC4 WRITEBACK ACCESS: 299525  HIT: 40072  MISS: 259453  HIT %: 13.3785  MISS %: 86.6215  AVERAGE MISS PENALTY: 0
LLC4 PREFETCH  REQUESTED:     0  ISSUED:     0  USEFUL: 1922699  USELESS: 7103357
 USEFUL LOAD PREFETCHES:    1922699 PREFETCH ISSUED TO LOWER LEVEL:  698453587  ACCURACY: 0.275279
 TIMELY PREFETCHES:    1922699 LATE PREFETCHES: 0 DROPPED PREFETCHES: 0
LLC4 AVERAGE MISS LATENCY: 698.728 cycles

LLC4 Set Associative Eviction Count : 0
LLC4 Priority 0 entries : 12288
LLC4 Inter-Core Interference : 11560399
LLC5 TOTAL     ACCESS: 10812086  HIT: 4392867  MISS: 6419219  HIT %: 40.6292  MISS %: 59.3708  AVERAGE MISS PENALTY: 669.098
LLC5 LOAD      ACCESS: 2179586  HIT: 920298  MISS: 1259288  HIT %: 42.2235  MISS %: 57.7765  AVERAGE MISS PENALTY: 669.264
LLC5 RFO       ACCESS:  1539  HIT:   230  MISS:  1309  HIT %: 14.9448  MISS %: 85.0552  AVERAGE MISS PENALTY: 689.3
LLC5 PREFETCH  ACCESS: 8328948  HIT: 3431538  MISS: 4897410  HIT %: 41.2001  MISS %: 58.7999  AVERAGE MISS PENALTY: 704.738
LLC5 WRITEBACK ACCESS: 302013  HIT: 40801  MISS: 261212  HIT %: 13.5097  MISS %: 86.4903  AVERAGE MISS PENALTY: 0
LLC5 PREFETCH  REQUESTED:     0  ISSUED:     0  USEFUL: 1863712  USELESS: 7030792
 USEFUL LOAD PREFETCHES:    1863712 PREFETCH ISSUED TO LOWER LEVEL:  554254268  ACCURACY: 0.336256
 TIMELY PREFETCHES:    1863712 LATE PREFETCHES: 0 DROPPED PREFETCHES: 0
LLC5 AVERAGE MISS LATENCY: 669.098 cycles

LLC5 Set Associative Eviction Count : 0
LLC5 Priority 0 entries : 12288
LLC5 Inter-Core Interference : 11436917
LLC6 TOTAL     ACCESS: 10586003  HIT: 4318143  MISS: 6267860  HIT %: 40.7911  MISS %: 59.2089  AVERAGE MISS PENALTY: 691.175
LLC6 LOAD      ACCESS: 2171582  HIT: 891855  MISS: 1279727  HIT %: 41.0694  MISS %: 58.9306  AVERAGE MISS PENALTY: 700.907
LLC6 RFO       ACCESS:  1521  HIT:   215  MISS:  1306  HIT %: 14.1354  MISS %: 85.8646  AVERAGE MISS PENALTY: 687.634
LLC6 PREFETCH  ACCESS: 8109287  HIT: 3384509  MISS: 4724778  HIT %: 41.7362  MISS %: 58.2638  AVERAGE MISS PENALTY: 726.874
LLC6 WRITEBACK ACCESS: 303613  HIT: 41564  MISS: 262049  HIT %: 13.6898  MISS %: 86.3102  AVERAGE MISS PENALTY: 0
LLC6 PREFETCH  REQUESTED:     0  ISSUED:     0  USEFUL: 1855392  USELESS: 6851388
 USEFUL LOAD PREFETCHES:    1855392 PREFETCH ISSUED TO LOWER LEVEL:  914845293  ACCURACY: 0.202809
 TIMELY PREFETCHES:    1855392 LATE PREFETCHES: 0 DROPPED PREFETCHES: 0
LLC6 AVERAGE MISS LATENCY: 691.175 cycles

LLC6 Set Associative Eviction Count : 0
LLC6 Priority 0 entries : 12288
LLC6 Inter-Core Interference : 11308358
LLC7 TOTAL     ACCESS: 10370442  HIT: 4311732  MISS: 6058710  HIT %: 41.5771  MISS %: 58.4229  AVERAGE MISS PENALTY: 666.2
LLC7 LOAD      ACCESS: 2161516  HIT: 904537  MISS: 1256979  HIT %: 41.8473  MISS %: 58.1527  AVERAGE MISS PENALTY: 665.336
LLC7 RFO       ACCESS:  1487  HIT:   177  MISS:  1310  HIT %: 11.9032  MISS %: 88.0968  AVERAGE MISS PENALTY: 669.277
LLC7 PREFETCH  ACCESS: 7907091  HIT: 3366129  MISS: 4540962  HIT %: 42.571  MISS %: 57.429  AVERAGE MISS PENALTY: 704.503
LLC7 WRITEBACK ACCESS: 300348  HIT: 40889  MISS: 259459  HIT %: 13.6139  MISS %: 86.3861  AVERAGE MISS PENALTY: 0
LLC7 PREFETCH  REQUESTED:     0  ISSUED:     0  USEFUL: 1825745  USELESS: 6817225
 USEFUL LOAD PREFETCHES:    1825745 PREFETCH ISSUED TO LOWER LEVEL:  708103197  ACCURACY: 0.257836
 TIMELY PREFETCHES:    1825745 LATE PREFETCHES: 0 DROPPED PREFETCHES: 0
LLC7 AVERAGE MISS LATENCY: 666.2 cycles

LLC7 Set Associative Eviction Count : 0
LLC7 Priority 0 entries : 12288
LLC7 Inter-Core Interference : 11204486
ROI Average ROB Stall Cycles:	67.476
ROI Total ROB Stalls Cycles:	3815616701
ROI TOTAL ROB counter      :	56547780
ROI Average Load ROB Stall Cycles:	482.319
ROI Total Load ROB Stalls Cycle  :	3103693627
ROI Total Load ROB stalls Counter:	6434946
Major fault: 0 Minor fault: 37418








Interconnect Stats 
LINK 0 BW : 0LINK 1 BW : 0LINK 2 BW : 0LINK 3 BW : 0LINK 4 BW : 0LINK 5 BW : 0LINK 6 BW : 0LINK 7 BW : 0
DRAM Statistics
 CHANNEL 0
 RQ ROW_BUFFER_HIT: 57346718  ROW_BUFFER_MISS: 144072313
 DBUS_CONGESTED: 106658519
 WQ ROW_BUFFER_HIT: 339298  ROW_BUFFER_MISS: 8423252  FULL:     0

 CHANNEL 1
 RQ ROW_BUFFER_HIT: 55876200  ROW_BUFFER_MISS: 142879668
 DBUS_CONGESTED: 106658519
 WQ ROW_BUFFER_HIT: 340805  ROW_BUFFER_MISS: 8421608  FULL:     0

 AVG_CONGESTED_CYCLE: 5
DRAM PAGES: 2097152
Allocated PAGES: 299344
L2C destructor called
L1D destructor called
L1I destructor called
STLB destructor called
DTLB destructor called
ITLB destructor called
L2C destructor called
L1D destructor called
L1I destructor called
STLB destructor called
DTLB destructor called
ITLB destructor called
L2C destructor called
L1D destructor called
L1I destructor called
STLB destructor called
DTLB destructor called
ITLB destructor called
L2C destructor called
L1D destructor called
L1I destructor called
STLB destructor called
DTLB destructor called
ITLB destructor called
L2C destructor called
L1D destructor called
L1I destructor called
STLB destructor called
DTLB destructor called
ITLB destructor called
L2C destructor called
L1D destructor called
L1I destructor called
STLB destructor called
DTLB destructor called
ITLB destructor called
L2C destructor called
L1D destructor called
L1I destructor called
STLB destructor called
DTLB destructor called
ITLB destructor called
L2C destructor called
L1D destructor called
L1I destructor called
STLB destructor called
DTLB destructor called
ITLB destructor called
