
*** ChampSim Multicore Out-of-Order Simulator ***

Warmup Instructions: 200000000
Simulation Instructions: 200000000
Number of CPUs: 8
threads:1

L1I Configuration:
L1I_SET:64
L1I_WAY:8
L1I_RQ_SIZE:64
L1I_WQ_SIZE:64
L1I_PQ_SIZE:8
L1I_MSHR_SIZE:8

L1D Configuration:
L1D_SET:64
L1D_WAY:12
L1D_RQ_SIZE:64
L1D_WQ_SIZE:64
L1D_PQ_SIZE:8
L1D_MSHR_SIZE:16

L2C Configuration:
L2C_SET:1024
L2C_WAY:8
L2C_RQ_SIZE:32
L2C_WQ_SIZE:32
L2C_PQ_SIZE:16
L2C_MSHR_SIZE:32

LLC Configuration:
LLC_SET:2048
LLC_WAY:12
LLC SLICES:8
LLC_RQ_SIZE:64
LLC_WQ_SIZE:64
LLC_PQ_SIZE:32
LLC_MSHR_SIZE:64

Interconnect OFF
Attacker deprioritize is: OFF
Off-chip DRAM Size: 8192 MB Channels: 2 Width: 64-bit Data Rate: 3200 MT/s
PAGE SIZE in KB: 4.000000 
PAGE SIZE in MB: 0.003906 
PAGE offset in bits: 12 
CEASER-S_LLC:0
MIRAGE : 1
CEASER_LATENCY:3
REMAP : OFF
Partitions : 1
Multi-Step : OFF
BFS : OFF

CPU 0 runs /home/anubhav/gap/bc-5.trace.gz
CPU 1 runs /home/anubhav/gap/bc-5.trace.gz
CPU 2 runs /home/anubhav/gap/bc-5.trace.gz
CPU 3 runs /home/anubhav/gap/bc-5.trace.gz
CPU 4 runs /home/anubhav/gap/bc-5.trace.gz
CPU 5 runs /home/anubhav/gap/bc-5.trace.gz
CPU 6 runs /home/anubhav/gap/bc-5.trace.gz
CPU 7 runs /home/anubhav/gap/bc-5.trace.gz
CPU 0 Bimodal branch predictor
Initialize Hawkeye state
Initialize Hawkeye state
Initialize Hawkeye state
Initialize Hawkeye state
Initialize Hawkeye state
Initialize Hawkeye state
Initialize Hawkeye state
Initialize Hawkeye state
CPU 1 Bimodal branch predictor
Initialize Hawkeye state
Initialize Hawkeye state
Initialize Hawkeye state
Initialize Hawkeye state
Initialize Hawkeye state
Initialize Hawkeye state
Initialize Hawkeye state
Initialize Hawkeye state
CPU 2 Bimodal branch predictor
Initialize Hawkeye state
Initialize Hawkeye state
Initialize Hawkeye state
Initialize Hawkeye state
Initialize Hawkeye state
Initialize Hawkeye state
Initialize Hawkeye state
Initialize Hawkeye state
CPU 3 Bimodal branch predictor
Initialize Hawkeye state
Initialize Hawkeye state
Initialize Hawkeye state
Initialize Hawkeye state
Initialize Hawkeye state
Initialize Hawkeye state
Initialize Hawkeye state
Initialize Hawkeye state
CPU 4 Bimodal branch predictor
Initialize Hawkeye state
Initialize Hawkeye state
Initialize Hawkeye state
Initialize Hawkeye state
Initialize Hawkeye state
Initialize Hawkeye state
Initialize Hawkeye state
Initialize Hawkeye state
CPU 5 Bimodal branch predictor
Initialize Hawkeye state
Initialize Hawkeye state
Initialize Hawkeye state
Initialize Hawkeye state
Initialize Hawkeye state
Initialize Hawkeye state
Initialize Hawkeye state
Initialize Hawkeye state
CPU 6 Bimodal branch predictor
Initialize Hawkeye state
Initialize Hawkeye state
Initialize Hawkeye state
Initialize Hawkeye state
Initialize Hawkeye state
Initialize Hawkeye state
Initialize Hawkeye state
Initialize Hawkeye state
CPU 7 Bimodal branch predictor
Initialize Hawkeye state
Initialize Hawkeye state
Initialize Hawkeye state
Initialize Hawkeye state
Initialize Hawkeye state
Initialize Hawkeye state
Initialize Hawkeye state
Initialize Hawkeye state
Heartbeat CPU 0 instructions: 10000003 cycles: 8678847 heartbeat IPC: 1.15223 cumulative IPC: 1.15223 (Simulation time: 1 hr 1 min 27 sec) 
 Total Blocks : 196608 Invalid Blocks : 0 Valid Blocks : 196608
 Total Tags : 491520 Threshold : 12288 Invalid Tags : 196611 Pr0 Tags : 98301 Pr1 Tags : 196608 num_pr0 : 12288
 SAE Count : 0
 Inter-Core Inteference in Data Store : 3779668
Heartbeat CPU 1 instructions: 10000003 cycles: 8680277 heartbeat IPC: 1.15204 cumulative IPC: 1.15204 (Simulation time: 1 hr 1 min 28 sec) 
 Total Blocks : 196608 Invalid Blocks : 0 Valid Blocks : 196608
 Total Tags : 491520 Threshold : 12288 Invalid Tags : 196616 Pr0 Tags : 98296 Pr1 Tags : 196608 num_pr0 : 12287
 SAE Count : 0
 Inter-Core Inteference in Data Store : 3780092
Heartbeat CPU 2 instructions: 10000003 cycles: 8680918 heartbeat IPC: 1.15195 cumulative IPC: 1.15195 (Simulation time: 1 hr 1 min 28 sec) 
 Total Blocks : 196608 Invalid Blocks : 0 Valid Blocks : 196608
 Total Tags : 491520 Threshold : 12288 Invalid Tags : 196616 Pr0 Tags : 98296 Pr1 Tags : 196608 num_pr0 : 12288
 SAE Count : 0
 Inter-Core Inteference in Data Store : 3780275
Heartbeat CPU 4 instructions: 10000003 cycles: 8681226 heartbeat IPC: 1.15191 cumulative IPC: 1.15191 (Simulation time: 1 hr 1 min 29 sec) 
 Total Blocks : 196608 Invalid Blocks : 0 Valid Blocks : 196608
 Total Tags : 491520 Threshold : 12288 Invalid Tags : 196613 Pr0 Tags : 98299 Pr1 Tags : 196608 num_pr0 : 12288
 SAE Count : 0
 Inter-Core Inteference in Data Store : 3780364
Heartbeat CPU 3 instructions: 10000003 cycles: 8681856 heartbeat IPC: 1.15183 cumulative IPC: 1.15183 (Simulation time: 1 hr 1 min 29 sec) 
 Total Blocks : 196608 Invalid Blocks : 0 Valid Blocks : 196608
 Total Tags : 491520 Threshold : 12288 Invalid Tags : 196614 Pr0 Tags : 98298 Pr1 Tags : 196608 num_pr0 : 12287
 SAE Count : 0
 Inter-Core Inteference in Data Store : 3780556
Heartbeat CPU 5 instructions: 10000003 cycles: 8682181 heartbeat IPC: 1.15178 cumulative IPC: 1.15178 (Simulation time: 1 hr 1 min 29 sec) 
 Total Blocks : 196608 Invalid Blocks : 0 Valid Blocks : 196608
 Total Tags : 491520 Threshold : 12288 Invalid Tags : 196613 Pr0 Tags : 98299 Pr1 Tags : 196608 num_pr0 : 12288
 SAE Count : 0
 Inter-Core Inteference in Data Store : 3780639
Heartbeat CPU 7 instructions: 10000003 cycles: 8683812 heartbeat IPC: 1.15157 cumulative IPC: 1.15157 (Simulation time: 1 hr 1 min 30 sec) 
 Total Blocks : 196608 Invalid Blocks : 0 Valid Blocks : 196608
 Total Tags : 491520 Threshold : 12288 Invalid Tags : 196614 Pr0 Tags : 98298 Pr1 Tags : 196608 num_pr0 : 12288
 SAE Count : 0
 Inter-Core Inteference in Data Store : 3781088
Heartbeat CPU 6 instructions: 10000003 cycles: 8684013 heartbeat IPC: 1.15154 cumulative IPC: 1.15154 (Simulation time: 1 hr 1 min 30 sec) 
 Total Blocks : 196608 Invalid Blocks : 0 Valid Blocks : 196608
 Total Tags : 491520 Threshold : 12288 Invalid Tags : 196615 Pr0 Tags : 98297 Pr1 Tags : 196608 num_pr0 : 12287
 SAE Count : 0
 Inter-Core Inteference in Data Store : 3781135
Heartbeat CPU 0 instructions: 20000000 cycles: 16482053 heartbeat IPC: 1.28152 cumulative IPC: 1.21344 (Simulation time: 1 hr 45 min 27 sec) 
 Total Blocks : 196608 Invalid Blocks : 0 Valid Blocks : 196608
 Total Tags : 491520 Threshold : 12288 Invalid Tags : 196612 Pr0 Tags : 98300 Pr1 Tags : 196608 num_pr0 : 12288
 SAE Count : 0
 Inter-Core Inteference in Data Store : 6114117
Heartbeat CPU 1 instructions: 20000000 cycles: 16485472 heartbeat IPC: 1.2812 cumulative IPC: 1.21319 (Simulation time: 1 hr 45 min 28 sec) 
 Total Blocks : 196608 Invalid Blocks : 0 Valid Blocks : 196608
 Total Tags : 491520 Threshold : 12288 Invalid Tags : 196611 Pr0 Tags : 98301 Pr1 Tags : 196608 num_pr0 : 12287
 SAE Count : 0
 Inter-Core Inteference in Data Store : 6115210
Heartbeat CPU 2 instructions: 20000000 cycles: 16487403 heartbeat IPC: 1.28099 cumulative IPC: 1.21305 (Simulation time: 1 hr 45 min 29 sec) 
 Total Blocks : 196608 Invalid Blocks : 0 Valid Blocks : 196608
 Total Tags : 491520 Threshold : 12288 Invalid Tags : 196610 Pr0 Tags : 98302 Pr1 Tags : 196608 num_pr0 : 12287
 SAE Count : 0
 Inter-Core Inteference in Data Store : 6115819
Heartbeat CPU 4 instructions: 20000000 cycles: 16488991 heartbeat IPC: 1.28078 cumulative IPC: 1.21293 (Simulation time: 1 hr 45 min 29 sec) 
 Total Blocks : 196608 Invalid Blocks : 0 Valid Blocks : 196608
 Total Tags : 491520 Threshold : 12288 Invalid Tags : 196611 Pr0 Tags : 98301 Pr1 Tags : 196608 num_pr0 : 12287
 SAE Count : 0
 Inter-Core Inteference in Data Store : 6116305
Heartbeat CPU 3 instructions: 20000000 cycles: 16489262 heartbeat IPC: 1.28083 cumulative IPC: 1.21291 (Simulation time: 1 hr 45 min 29 sec) 
 Total Blocks : 196608 Invalid Blocks : 0 Valid Blocks : 196608
 Total Tags : 491520 Threshold : 12288 Invalid Tags : 196613 Pr0 Tags : 98299 Pr1 Tags : 196608 num_pr0 : 12287
 SAE Count : 0
 Inter-Core Inteference in Data Store : 6116419
Heartbeat CPU 5 instructions: 20000000 cycles: 16490415 heartbeat IPC: 1.2807 cumulative IPC: 1.21283 (Simulation time: 1 hr 45 min 30 sec) 
 Total Blocks : 196608 Invalid Blocks : 0 Valid Blocks : 196608
 Total Tags : 491520 Threshold : 12288 Invalid Tags : 196612 Pr0 Tags : 98300 Pr1 Tags : 196608 num_pr0 : 12288
 SAE Count : 0
 Inter-Core Inteference in Data Store : 6116785
Heartbeat CPU 7 instructions: 20000000 cycles: 16493684 heartbeat IPC: 1.28043 cumulative IPC: 1.21259 (Simulation time: 1 hr 45 min 32 sec) 
 Total Blocks : 196608 Invalid Blocks : 0 Valid Blocks : 196608
 Total Tags : 491520 Threshold : 12288 Invalid Tags : 196612 Pr0 Tags : 98300 Pr1 Tags : 196608 num_pr0 : 12288
 SAE Count : 0
 Inter-Core Inteference in Data Store : 6117814
Heartbeat CPU 6 instructions: 20000000 cycles: 16494019 heartbeat IPC: 1.28041 cumulative IPC: 1.21256 (Simulation time: 1 hr 45 min 32 sec) 
 Total Blocks : 196608 Invalid Blocks : 0 Valid Blocks : 196608
 Total Tags : 491520 Threshold : 12288 Invalid Tags : 196609 Pr0 Tags : 98303 Pr1 Tags : 196608 num_pr0 : 12288
 SAE Count : 0
 Inter-Core Inteference in Data Store : 6117918
Heartbeat CPU 0 instructions: 30000003 cycles: 23535133 heartbeat IPC: 1.41782 cumulative IPC: 1.27469 (Simulation time: 2 hr 31 min 9 sec) 
 Total Blocks : 196608 Invalid Blocks : 0 Valid Blocks : 196608
 Total Tags : 491520 Threshold : 12288 Invalid Tags : 196609 Pr0 Tags : 98303 Pr1 Tags : 196608 num_pr0 : 12288
 SAE Count : 0
 Inter-Core Inteference in Data Store : 8319074
Heartbeat CPU 1 instructions: 30000003 cycles: 23540161 heartbeat IPC: 1.4175 cumulative IPC: 1.27442 (Simulation time: 2 hr 31 min 11 sec) 
 Total Blocks : 196608 Invalid Blocks : 0 Valid Blocks : 196608
 Total Tags : 491520 Threshold : 12288 Invalid Tags : 196609 Pr0 Tags : 98303 Pr1 Tags : 196608 num_pr0 : 12287
 SAE Count : 0
 Inter-Core Inteference in Data Store : 8320631
Heartbeat CPU 2 instructions: 30000003 cycles: 23542778 heartbeat IPC: 1.41736 cumulative IPC: 1.27428 (Simulation time: 2 hr 31 min 12 sec) 
 Total Blocks : 196608 Invalid Blocks : 0 Valid Blocks : 196608
 Total Tags : 491520 Threshold : 12288 Invalid Tags : 196610 Pr0 Tags : 98302 Pr1 Tags : 196608 num_pr0 : 12287
 SAE Count : 0
 Inter-Core Inteference in Data Store : 8321617
Heartbeat CPU 4 instructions: 30000003 cycles: 23545621 heartbeat IPC: 1.41711 cumulative IPC: 1.27412 (Simulation time: 2 hr 31 min 13 sec) 
 Total Blocks : 196608 Invalid Blocks : 0 Valid Blocks : 196608
 Total Tags : 491520 Threshold : 12288 Invalid Tags : 196609 Pr0 Tags : 98303 Pr1 Tags : 196608 num_pr0 : 12287
 SAE Count : 0
 Inter-Core Inteference in Data Store : 8322597
Heartbeat CPU 3 instructions: 30000003 cycles: 23545746 heartbeat IPC: 1.41714 cumulative IPC: 1.27412 (Simulation time: 2 hr 31 min 13 sec) 
 Total Blocks : 196608 Invalid Blocks : 0 Valid Blocks : 196608
 Total Tags : 491520 Threshold : 12288 Invalid Tags : 196611 Pr0 Tags : 98301 Pr1 Tags : 196608 num_pr0 : 12287
 SAE Count : 0
 Inter-Core Inteference in Data Store : 8322635
Heartbeat CPU 5 instructions: 30000003 cycles: 23547682 heartbeat IPC: 1.41698 cumulative IPC: 1.27401 (Simulation time: 2 hr 31 min 14 sec) 
 Total Blocks : 196608 Invalid Blocks : 0 Valid Blocks : 196608
 Total Tags : 491520 Threshold : 12288 Invalid Tags : 196608 Pr0 Tags : 98304 Pr1 Tags : 196608 num_pr0 : 12288
 SAE Count : 0
 Inter-Core Inteference in Data Store : 8323298
Heartbeat CPU 7 instructions: 30000003 cycles: 23552929 heartbeat IPC: 1.41658 cumulative IPC: 1.27373 (Simulation time: 2 hr 31 min 15 sec) 
 Total Blocks : 196608 Invalid Blocks : 0 Valid Blocks : 196608
 Total Tags : 491520 Threshold : 12288 Invalid Tags : 196613 Pr0 Tags : 98299 Pr1 Tags : 196608 num_pr0 : 12286
 SAE Count : 0
 Inter-Core Inteference in Data Store : 8325206
Heartbeat CPU 6 instructions: 30000002 cycles: 23552965 heartbeat IPC: 1.41664 cumulative IPC: 1.27373 (Simulation time: 2 hr 31 min 15 sec) 
 Total Blocks : 196608 Invalid Blocks : 0 Valid Blocks : 196608
 Total Tags : 491520 Threshold : 12288 Invalid Tags : 196610 Pr0 Tags : 98302 Pr1 Tags : 196608 num_pr0 : 12287
 SAE Count : 0
 Inter-Core Inteference in Data Store : 8325216
Heartbeat CPU 0 instructions: 40000002 cycles: 30134982 heartbeat IPC: 1.51519 cumulative IPC: 1.32736 (Simulation time: 3 hr 15 min 25 sec) 
 Total Blocks : 196608 Invalid Blocks : 0 Valid Blocks : 196608
 Total Tags : 491520 Threshold : 12288 Invalid Tags : 196610 Pr0 Tags : 98302 Pr1 Tags : 196608 num_pr0 : 12288
 SAE Count : 0
 Inter-Core Inteference in Data Store : 10434438
Heartbeat CPU 1 instructions: 40000002 cycles: 30141445 heartbeat IPC: 1.51486 cumulative IPC: 1.32708 (Simulation time: 3 hr 15 min 27 sec) 
 Total Blocks : 196608 Invalid Blocks : 0 Valid Blocks : 196608
 Total Tags : 491520 Threshold : 12288 Invalid Tags : 196610 Pr0 Tags : 98302 Pr1 Tags : 196608 num_pr0 : 12288
 SAE Count : 0
 Inter-Core Inteference in Data Store : 10436725
Heartbeat CPU 2 instructions: 40000002 cycles: 30144774 heartbeat IPC: 1.51469 cumulative IPC: 1.32693 (Simulation time: 3 hr 15 min 28 sec) 
 Total Blocks : 196608 Invalid Blocks : 0 Valid Blocks : 196608
 Total Tags : 491520 Threshold : 12288 Invalid Tags : 196612 Pr0 Tags : 98300 Pr1 Tags : 196608 num_pr0 : 12287
 SAE Count : 0
 Inter-Core Inteference in Data Store : 10437899
Heartbeat CPU 3 instructions: 40000002 cycles: 30148564 heartbeat IPC: 1.5145 cumulative IPC: 1.32676 (Simulation time: 3 hr 15 min 29 sec) 
 Total Blocks : 196608 Invalid Blocks : 0 Valid Blocks : 196608
 Total Tags : 491520 Threshold : 12288 Invalid Tags : 196612 Pr0 Tags : 98300 Pr1 Tags : 196608 num_pr0 : 12288
 SAE Count : 0
 Inter-Core Inteference in Data Store : 10439270
Heartbeat CPU 4 instructions: 40000002 cycles: 30148886 heartbeat IPC: 1.5144 cumulative IPC: 1.32675 (Simulation time: 3 hr 15 min 30 sec) 
 Total Blocks : 196608 Invalid Blocks : 0 Valid Blocks : 196608
 Total Tags : 491520 Threshold : 12288 Invalid Tags : 196609 Pr0 Tags : 98303 Pr1 Tags : 196608 num_pr0 : 12288
 SAE Count : 0
 Inter-Core Inteference in Data Store : 10439386
Heartbeat CPU 5 instructions: 40000002 cycles: 30152002 heartbeat IPC: 1.51416 cumulative IPC: 1.32661 (Simulation time: 3 hr 15 min 31 sec) 
 Total Blocks : 196608 Invalid Blocks : 0 Valid Blocks : 196608
 Total Tags : 491520 Threshold : 12288 Invalid Tags : 196612 Pr0 Tags : 98300 Pr1 Tags : 196608 num_pr0 : 12288
 SAE Count : 0
 Inter-Core Inteference in Data Store : 10440483
Heartbeat CPU 6 instructions: 40000002 cycles: 30157766 heartbeat IPC: 1.51405 cumulative IPC: 1.32636 (Simulation time: 3 hr 15 min 33 sec) 
 Total Blocks : 196608 Invalid Blocks : 0 Valid Blocks : 196608
 Total Tags : 491520 Threshold : 12288 Invalid Tags : 196609 Pr0 Tags : 98303 Pr1 Tags : 196608 num_pr0 : 12288
 SAE Count : 0
 Inter-Core Inteference in Data Store : 10442450
Heartbeat CPU 7 instructions: 40000002 cycles: 30157878 heartbeat IPC: 1.51402 cumulative IPC: 1.32635 (Simulation time: 3 hr 15 min 33 sec) 
 Total Blocks : 196608 Invalid Blocks : 0 Valid Blocks : 196608
 Total Tags : 491520 Threshold : 12288 Invalid Tags : 196611 Pr0 Tags : 98301 Pr1 Tags : 196608 num_pr0 : 12288
 SAE Count : 0
 Inter-Core Inteference in Data Store : 10442489
Heartbeat CPU 0 instructions: 50000001 cycles: 36744710 heartbeat IPC: 1.51292 cumulative IPC: 1.36074 (Simulation time: 4 hr 0 min 42 sec) 
 Total Blocks : 196608 Invalid Blocks : 0 Valid Blocks : 196608
 Total Tags : 491520 Threshold : 12288 Invalid Tags : 196614 Pr0 Tags : 98298 Pr1 Tags : 196608 num_pr0 : 12288
 SAE Count : 0
 Inter-Core Inteference in Data Store : 12524845
Heartbeat CPU 1 instructions: 50000001 cycles: 36752371 heartbeat IPC: 1.51265 cumulative IPC: 1.36046 (Simulation time: 4 hr 0 min 45 sec) 
 Total Blocks : 196608 Invalid Blocks : 0 Valid Blocks : 196608
 Total Tags : 491520 Threshold : 12288 Invalid Tags : 196610 Pr0 Tags : 98302 Pr1 Tags : 196608 num_pr0 : 12288
 SAE Count : 0
 Inter-Core Inteference in Data Store : 12527210
Heartbeat CPU 2 instructions: 50000001 cycles: 36756663 heartbeat IPC: 1.51243 cumulative IPC: 1.3603 (Simulation time: 4 hr 0 min 47 sec) 
 Total Blocks : 196608 Invalid Blocks : 0 Valid Blocks : 196608
 Total Tags : 491520 Threshold : 12288 Invalid Tags : 196612 Pr0 Tags : 98300 Pr1 Tags : 196608 num_pr0 : 12288
 SAE Count : 0
 Inter-Core Inteference in Data Store : 12528480
Heartbeat CPU 3 instructions: 50000001 cycles: 36761473 heartbeat IPC: 1.51219 cumulative IPC: 1.36012 (Simulation time: 4 hr 0 min 49 sec) 
 Total Blocks : 196608 Invalid Blocks : 0 Valid Blocks : 196608
 Total Tags : 491520 Threshold : 12288 Invalid Tags : 196610 Pr0 Tags : 98302 Pr1 Tags : 196608 num_pr0 : 12288
 SAE Count : 0
 Inter-Core Inteference in Data Store : 12530049
Heartbeat CPU 4 instructions: 50000001 cycles: 36761743 heartbeat IPC: 1.51221 cumulative IPC: 1.36011 (Simulation time: 4 hr 0 min 49 sec) 
 Total Blocks : 196608 Invalid Blocks : 0 Valid Blocks : 196608
 Total Tags : 491520 Threshold : 12288 Invalid Tags : 196609 Pr0 Tags : 98303 Pr1 Tags : 196608 num_pr0 : 12288
 SAE Count : 0
 Inter-Core Inteference in Data Store : 12530143
Heartbeat CPU 5 instructions: 50000001 cycles: 36765978 heartbeat IPC: 1.51195 cumulative IPC: 1.35995 (Simulation time: 4 hr 0 min 51 sec) 
 Total Blocks : 196608 Invalid Blocks : 0 Valid Blocks : 196608
 Total Tags : 491520 Threshold : 12288 Invalid Tags : 196612 Pr0 Tags : 98300 Pr1 Tags : 196608 num_pr0 : 12286
 SAE Count : 0
 Inter-Core Inteference in Data Store : 12531501
Heartbeat CPU 6 instructions: 50000001 cycles: 36773275 heartbeat IPC: 1.5116 cumulative IPC: 1.35968 (Simulation time: 4 hr 0 min 55 sec) 
 Total Blocks : 196608 Invalid Blocks : 0 Valid Blocks : 196608
 Total Tags : 491520 Threshold : 12288 Invalid Tags : 196611 Pr0 Tags : 98301 Pr1 Tags : 196608 num_pr0 : 12288
 SAE Count : 0
 Inter-Core Inteference in Data Store : 12533859
Heartbeat CPU 7 instructions: 50000001 cycles: 36773334 heartbeat IPC: 1.51161 cumulative IPC: 1.35968 (Simulation time: 4 hr 0 min 55 sec) 
 Total Blocks : 196608 Invalid Blocks : 0 Valid Blocks : 196608
 Total Tags : 491520 Threshold : 12288 Invalid Tags : 196609 Pr0 Tags : 98303 Pr1 Tags : 196608 num_pr0 : 12288
 SAE Count : 0
 Inter-Core Inteference in Data Store : 12533874
Heartbeat CPU 0 instructions: 60000003 cycles: 43079625 heartbeat IPC: 1.57855 cumulative IPC: 1.39277 (Simulation time: 4 hr 46 min 16 sec) 
 Total Blocks : 196608 Invalid Blocks : 0 Valid Blocks : 196608
 Total Tags : 491520 Threshold : 12288 Invalid Tags : 196611 Pr0 Tags : 98301 Pr1 Tags : 196608 num_pr0 : 12287
 SAE Count : 0
 Inter-Core Inteference in Data Store : 14572323
Heartbeat CPU 1 instructions: 60000003 cycles: 43088225 heartbeat IPC: 1.57832 cumulative IPC: 1.39249 (Simulation time: 4 hr 46 min 21 sec) 
 Total Blocks : 196608 Invalid Blocks : 0 Valid Blocks : 196608
 Total Tags : 491520 Threshold : 12288 Invalid Tags : 196613 Pr0 Tags : 98299 Pr1 Tags : 196608 num_pr0 : 12286
 SAE Count : 0
 Inter-Core Inteference in Data Store : 14574635
Heartbeat CPU 2 instructions: 60000003 cycles: 43093700 heartbeat IPC: 1.57802 cumulative IPC: 1.39231 (Simulation time: 4 hr 46 min 24 sec) 
 Total Blocks : 196608 Invalid Blocks : 0 Valid Blocks : 196608
 Total Tags : 491520 Threshold : 12288 Invalid Tags : 196612 Pr0 Tags : 98300 Pr1 Tags : 196608 num_pr0 : 12288
 SAE Count : 0
 Inter-Core Inteference in Data Store : 14576165
Heartbeat CPU 3 instructions: 60000003 cycles: 43099158 heartbeat IPC: 1.57786 cumulative IPC: 1.39214 (Simulation time: 4 hr 46 min 26 sec) 
 Total Blocks : 196608 Invalid Blocks : 0 Valid Blocks : 196608
 Total Tags : 491520 Threshold : 12288 Invalid Tags : 196616 Pr0 Tags : 98296 Pr1 Tags : 196608 num_pr0 : 12286
 SAE Count : 0
 Inter-Core Inteference in Data Store : 14577642
Heartbeat CPU 4 instructions: 60000003 cycles: 43099512 heartbeat IPC: 1.57784 cumulative IPC: 1.39213 (Simulation time: 4 hr 46 min 26 sec) 
 Total Blocks : 196608 Invalid Blocks : 0 Valid Blocks : 196608
 Total Tags : 491520 Threshold : 12288 Invalid Tags : 196612 Pr0 Tags : 98300 Pr1 Tags : 196608 num_pr0 : 12287
 SAE Count : 0
 Inter-Core Inteference in Data Store : 14577741
Heartbeat CPU 5 instructions: 60000003 cycles: 43104551 heartbeat IPC: 1.57764 cumulative IPC: 1.39196 (Simulation time: 4 hr 46 min 28 sec) 
 Total Blocks : 196608 Invalid Blocks : 0 Valid Blocks : 196608
 Total Tags : 491520 Threshold : 12288 Invalid Tags : 196610 Pr0 Tags : 98302 Pr1 Tags : 196608 num_pr0 : 12288
 SAE Count : 0
 Inter-Core Inteference in Data Store : 14579042
Heartbeat CPU 6 instructions: 60000003 cycles: 43113613 heartbeat IPC: 1.5772 cumulative IPC: 1.39167 (Simulation time: 4 hr 46 min 32 sec) 
 Total Blocks : 196608 Invalid Blocks : 0 Valid Blocks : 196608
 Total Tags : 491520 Threshold : 12288 Invalid Tags : 196611 Pr0 Tags : 98301 Pr1 Tags : 196608 num_pr0 : 12288
 SAE Count : 0
 Inter-Core Inteference in Data Store : 14581398
Heartbeat CPU 7 instructions: 60000003 cycles: 43114226 heartbeat IPC: 1.57707 cumulative IPC: 1.39165 (Simulation time: 4 hr 46 min 32 sec) 
 Total Blocks : 196608 Invalid Blocks : 0 Valid Blocks : 196608
 Total Tags : 491520 Threshold : 12288 Invalid Tags : 196609 Pr0 Tags : 98303 Pr1 Tags : 196608 num_pr0 : 12288
 SAE Count : 0
 Inter-Core Inteference in Data Store : 14581545
Heartbeat CPU 0 instructions: 70000000 cycles: 49417123 heartbeat IPC: 1.57791 cumulative IPC: 1.41651 (Simulation time: 5 hr 32 min 47 sec) 
 Total Blocks : 196608 Invalid Blocks : 0 Valid Blocks : 196608
 Total Tags : 491520 Threshold : 12288 Invalid Tags : 196611 Pr0 Tags : 98301 Pr1 Tags : 196608 num_pr0 : 12288
 SAE Count : 0
 Inter-Core Inteference in Data Store : 16587470
Heartbeat CPU 1 instructions: 70000000 cycles: 49426576 heartbeat IPC: 1.5777 cumulative IPC: 1.41624 (Simulation time: 5 hr 32 min 51 sec) 
 Total Blocks : 196608 Invalid Blocks : 0 Valid Blocks : 196608
 Total Tags : 491520 Threshold : 12288 Invalid Tags : 196609 Pr0 Tags : 98303 Pr1 Tags : 196608 num_pr0 : 12288
 SAE Count : 0
 Inter-Core Inteference in Data Store : 16591035
Heartbeat CPU 2 instructions: 70000000 cycles: 49432849 heartbeat IPC: 1.5775 cumulative IPC: 1.41606 (Simulation time: 5 hr 32 min 53 sec) 
 Total Blocks : 196608 Invalid Blocks : 0 Valid Blocks : 196608
 Total Tags : 491520 Threshold : 12288 Invalid Tags : 196612 Pr0 Tags : 98300 Pr1 Tags : 196608 num_pr0 : 12288
 SAE Count : 0
 Inter-Core Inteference in Data Store : 16593231
Heartbeat CPU 3 instructions: 70000000 cycles: 49439378 heartbeat IPC: 1.57723 cumulative IPC: 1.41588 (Simulation time: 5 hr 32 min 57 sec) 
 Total Blocks : 196608 Invalid Blocks : 0 Valid Blocks : 196608
 Total Tags : 491520 Threshold : 12288 Invalid Tags : 196611 Pr0 Tags : 98301 Pr1 Tags : 196608 num_pr0 : 12286
 SAE Count : 0
 Inter-Core Inteference in Data Store : 16595584
Heartbeat CPU 4 instructions: 70000000 cycles: 49439510 heartbeat IPC: 1.57729 cumulative IPC: 1.41587 (Simulation time: 5 hr 32 min 57 sec) 
 Total Blocks : 196608 Invalid Blocks : 0 Valid Blocks : 196608
 Total Tags : 491520 Threshold : 12288 Invalid Tags : 196609 Pr0 Tags : 98303 Pr1 Tags : 196608 num_pr0 : 12287
 SAE Count : 0
 Inter-Core Inteference in Data Store : 16595645
Heartbeat CPU 5 instructions: 70000000 cycles: 49445181 heartbeat IPC: 1.57713 cumulative IPC: 1.41571 (Simulation time: 5 hr 32 min 59 sec) 
 Total Blocks : 196608 Invalid Blocks : 0 Valid Blocks : 196608
 Total Tags : 491520 Threshold : 12288 Invalid Tags : 196609 Pr0 Tags : 98303 Pr1 Tags : 196608 num_pr0 : 12288
 SAE Count : 0
 Inter-Core Inteference in Data Store : 16597654
Heartbeat CPU 7 instructions: 70000000 cycles: 49456222 heartbeat IPC: 1.57679 cumulative IPC: 1.41539 (Simulation time: 5 hr 33 min 5 sec) 
 Total Blocks : 196608 Invalid Blocks : 0 Valid Blocks : 196608
 Total Tags : 491520 Threshold : 12288 Invalid Tags : 196611 Pr0 Tags : 98301 Pr1 Tags : 196608 num_pr0 : 12287
 SAE Count : 0
 Inter-Core Inteference in Data Store : 16601634
Heartbeat CPU 6 instructions: 70000000 cycles: 49456265 heartbeat IPC: 1.57663 cumulative IPC: 1.41539 (Simulation time: 5 hr 33 min 5 sec) 
 Total Blocks : 196608 Invalid Blocks : 0 Valid Blocks : 196608
 Total Tags : 491520 Threshold : 12288 Invalid Tags : 196611 Pr0 Tags : 98301 Pr1 Tags : 196608 num_pr0 : 12287
 SAE Count : 0
 Inter-Core Inteference in Data Store : 16601662
Heartbeat CPU 0 instructions: 80000002 cycles: 55562326 heartbeat IPC: 1.62729 cumulative IPC: 1.43982 (Simulation time: 6 hr 22 min 5 sec) 
 Total Blocks : 196608 Invalid Blocks : 0 Valid Blocks : 196608
 Total Tags : 491520 Threshold : 12288 Invalid Tags : 196610 Pr0 Tags : 98302 Pr1 Tags : 196608 num_pr0 : 12288
 SAE Count : 0
 Inter-Core Inteference in Data Store : 18607420
Heartbeat CPU 1 instructions: 80000002 cycles: 55572738 heartbeat IPC: 1.62703 cumulative IPC: 1.43955 (Simulation time: 6 hr 22 min 11 sec) 
 Total Blocks : 196608 Invalid Blocks : 0 Valid Blocks : 196608
 Total Tags : 491520 Threshold : 12288 Invalid Tags : 196612 Pr0 Tags : 98300 Pr1 Tags : 196608 num_pr0 : 12288
 SAE Count : 0
 Inter-Core Inteference in Data Store : 18610788
Heartbeat CPU 2 instructions: 80000002 cycles: 55579963 heartbeat IPC: 1.62678 cumulative IPC: 1.43937 (Simulation time: 6 hr 22 min 13 sec) 
 Total Blocks : 196608 Invalid Blocks : 0 Valid Blocks : 196608
 Total Tags : 491520 Threshold : 12288 Invalid Tags : 196612 Pr0 Tags : 98300 Pr1 Tags : 196608 num_pr0 : 12287
 SAE Count : 0
 Inter-Core Inteference in Data Store : 18613072
Heartbeat CPU 3 instructions: 80000002 cycles: 55587090 heartbeat IPC: 1.62662 cumulative IPC: 1.43918 (Simulation time: 6 hr 22 min 17 sec) 
 Total Blocks : 196608 Invalid Blocks : 0 Valid Blocks : 196608
 Total Tags : 491520 Threshold : 12288 Invalid Tags : 196613 Pr0 Tags : 98299 Pr1 Tags : 196608 num_pr0 : 12287
 SAE Count : 0
 Inter-Core Inteference in Data Store : 18615284
Heartbeat CPU 4 instructions: 80000002 cycles: 55587736 heartbeat IPC: 1.62649 cumulative IPC: 1.43917 (Simulation time: 6 hr 22 min 18 sec) 
 Total Blocks : 196608 Invalid Blocks : 0 Valid Blocks : 196608
 Total Tags : 491520 Threshold : 12288 Invalid Tags : 196610 Pr0 Tags : 98302 Pr1 Tags : 196608 num_pr0 : 12288
 SAE Count : 0
 Inter-Core Inteference in Data Store : 18615513
Heartbeat CPU 5 instructions: 80000002 cycles: 55594064 heartbeat IPC: 1.62631 cumulative IPC: 1.439 (Simulation time: 6 hr 22 min 21 sec) 
 Total Blocks : 196608 Invalid Blocks : 0 Valid Blocks : 196608
 Total Tags : 491520 Threshold : 12288 Invalid Tags : 196613 Pr0 Tags : 98299 Pr1 Tags : 196608 num_pr0 : 12287
 SAE Count : 0
 Inter-Core Inteference in Data Store : 18617345
Heartbeat CPU 6 instructions: 80000002 cycles: 55606851 heartbeat IPC: 1.62586 cumulative IPC: 1.43867 (Simulation time: 6 hr 22 min 27 sec) 
 Total Blocks : 196608 Invalid Blocks : 0 Valid Blocks : 196608
 Total Tags : 491520 Threshold : 12288 Invalid Tags : 196611 Pr0 Tags : 98301 Pr1 Tags : 196608 num_pr0 : 12287
 SAE Count : 0
 Inter-Core Inteference in Data Store : 18620946
Heartbeat CPU 7 instructions: 80000002 cycles: 55607041 heartbeat IPC: 1.6258 cumulative IPC: 1.43867 (Simulation time: 6 hr 22 min 28 sec) 
 Total Blocks : 196608 Invalid Blocks : 0 Valid Blocks : 196608
 Total Tags : 491520 Threshold : 12288 Invalid Tags : 196610 Pr0 Tags : 98302 Pr1 Tags : 196608 num_pr0 : 12288
 SAE Count : 0
 Inter-Core Inteference in Data Store : 18621003
Heartbeat CPU 0 instructions: 90000000 cycles: 61718322 heartbeat IPC: 1.62443 cumulative IPC: 1.45824 (Simulation time: 7 hr 11 min 1 sec) 
 Total Blocks : 196608 Invalid Blocks : 0 Valid Blocks : 196608
 Total Tags : 491520 Threshold : 12288 Invalid Tags : 196611 Pr0 Tags : 98301 Pr1 Tags : 196608 num_pr0 : 12287
 SAE Count : 0
 Inter-Core Inteference in Data Store : 20604513
Heartbeat CPU 1 instructions: 90000000 cycles: 61729547 heartbeat IPC: 1.62422 cumulative IPC: 1.45797 (Simulation time: 7 hr 11 min 6 sec) 
 Total Blocks : 196608 Invalid Blocks : 0 Valid Blocks : 196608
 Total Tags : 491520 Threshold : 12288 Invalid Tags : 196609 Pr0 Tags : 98303 Pr1 Tags : 196608 num_pr0 : 12288
 SAE Count : 0
 Inter-Core Inteference in Data Store : 20607865
Heartbeat CPU 2 instructions: 90000000 cycles: 61737497 heartbeat IPC: 1.62403 cumulative IPC: 1.45779 (Simulation time: 7 hr 11 min 11 sec) 
 Total Blocks : 196608 Invalid Blocks : 0 Valid Blocks : 196608
 Total Tags : 491520 Threshold : 12288 Invalid Tags : 196612 Pr0 Tags : 98300 Pr1 Tags : 196608 num_pr0 : 12288
 SAE Count : 0
 Inter-Core Inteference in Data Store : 20610196
Heartbeat CPU 3 instructions: 90000000 cycles: 61745479 heartbeat IPC: 1.6238 cumulative IPC: 1.4576 (Simulation time: 7 hr 11 min 15 sec) 
 Total Blocks : 196608 Invalid Blocks : 0 Valid Blocks : 196608
 Total Tags : 491520 Threshold : 12288 Invalid Tags : 196612 Pr0 Tags : 98300 Pr1 Tags : 196608 num_pr0 : 12287
 SAE Count : 0
 Inter-Core Inteference in Data Store : 20612545
Heartbeat CPU 4 instructions: 90000000 cycles: 61746368 heartbeat IPC: 1.62374 cumulative IPC: 1.45758 (Simulation time: 7 hr 11 min 15 sec) 
 Total Blocks : 196608 Invalid Blocks : 0 Valid Blocks : 196608
 Total Tags : 491520 Threshold : 12288 Invalid Tags : 196609 Pr0 Tags : 98303 Pr1 Tags : 196608 num_pr0 : 12288
 SAE Count : 0
 Inter-Core Inteference in Data Store : 20612794
Heartbeat CPU 5 instructions: 90000000 cycles: 61753760 heartbeat IPC: 1.62346 cumulative IPC: 1.4574 (Simulation time: 7 hr 11 min 18 sec) 
 Total Blocks : 196608 Invalid Blocks : 0 Valid Blocks : 196608
 Total Tags : 491520 Threshold : 12288 Invalid Tags : 196608 Pr0 Tags : 98304 Pr1 Tags : 196608 num_pr0 : 12288
 SAE Count : 0
 Inter-Core Inteference in Data Store : 20614936
Heartbeat CPU 6 instructions: 90000000 cycles: 61767782 heartbeat IPC: 1.62313 cumulative IPC: 1.45707 (Simulation time: 7 hr 11 min 25 sec) 
 Total Blocks : 196608 Invalid Blocks : 0 Valid Blocks : 196608
 Total Tags : 491520 Threshold : 12288 Invalid Tags : 196612 Pr0 Tags : 98300 Pr1 Tags : 196608 num_pr0 : 12286
 SAE Count : 0
 Inter-Core Inteference in Data Store : 20618931
Heartbeat CPU 7 instructions: 90000000 cycles: 61768124 heartbeat IPC: 1.62309 cumulative IPC: 1.45706 (Simulation time: 7 hr 11 min 26 sec) 
 Total Blocks : 196608 Invalid Blocks : 0 Valid Blocks : 196608
 Total Tags : 491520 Threshold : 12288 Invalid Tags : 196610 Pr0 Tags : 98302 Pr1 Tags : 196608 num_pr0 : 12287
 SAE Count : 0
 Inter-Core Inteference in Data Store : 20619013
Heartbeat CPU 0 instructions: 100000003 cycles: 67677862 heartbeat IPC: 1.67798 cumulative IPC: 1.47759 (Simulation time: 7 hr 58 min 10 sec) 
 Total Blocks : 196608 Invalid Blocks : 0 Valid Blocks : 196608
 Total Tags : 491520 Threshold : 12288 Invalid Tags : 196609 Pr0 Tags : 98303 Pr1 Tags : 196608 num_pr0 : 12288
 SAE Count : 0
 Inter-Core Inteference in Data Store : 22585209
Heartbeat CPU 1 instructions: 100000003 cycles: 67689776 heartbeat IPC: 1.67779 cumulative IPC: 1.47733 (Simulation time: 7 hr 58 min 17 sec) 
 Total Blocks : 196608 Invalid Blocks : 0 Valid Blocks : 196608
 Total Tags : 491520 Threshold : 12288 Invalid Tags : 196610 Pr0 Tags : 98302 Pr1 Tags : 196608 num_pr0 : 12288
 SAE Count : 0
 Inter-Core Inteference in Data Store : 22588729
Heartbeat CPU 2 instructions: 100000003 cycles: 67698794 heartbeat IPC: 1.67749 cumulative IPC: 1.47713 (Simulation time: 7 hr 58 min 22 sec) 
 Total Blocks : 196608 Invalid Blocks : 0 Valid Blocks : 196608
 Total Tags : 491520 Threshold : 12288 Invalid Tags : 196611 Pr0 Tags : 98301 Pr1 Tags : 196608 num_pr0 : 12287
 SAE Count : 0
 Inter-Core Inteference in Data Store : 22591375
Heartbeat CPU 3 instructions: 100000003 cycles: 67707337 heartbeat IPC: 1.67733 cumulative IPC: 1.47694 (Simulation time: 7 hr 58 min 26 sec) 
 Total Blocks : 196608 Invalid Blocks : 0 Valid Blocks : 196608
 Total Tags : 491520 Threshold : 12288 Invalid Tags : 196612 Pr0 Tags : 98300 Pr1 Tags : 196608 num_pr0 : 12287
 SAE Count : 0
 Inter-Core Inteference in Data Store : 22593840
Heartbeat CPU 4 instructions: 100000003 cycles: 67708779 heartbeat IPC: 1.67717 cumulative IPC: 1.47691 (Simulation time: 7 hr 58 min 27 sec) 
 Total Blocks : 196608 Invalid Blocks : 0 Valid Blocks : 196608
 Total Tags : 491520 Threshold : 12288 Invalid Tags : 196611 Pr0 Tags : 98301 Pr1 Tags : 196608 num_pr0 : 12288
 SAE Count : 0
 Inter-Core Inteference in Data Store : 22594268
Heartbeat CPU 5 instructions: 100000003 cycles: 67716902 heartbeat IPC: 1.67697 cumulative IPC: 1.47674 (Simulation time: 7 hr 58 min 31 sec) 
 Total Blocks : 196608 Invalid Blocks : 0 Valid Blocks : 196608
 Total Tags : 491520 Threshold : 12288 Invalid Tags : 196612 Pr0 Tags : 98300 Pr1 Tags : 196608 num_pr0 : 12288
 SAE Count : 0
 Inter-Core Inteference in Data Store : 22596497
Heartbeat CPU 6 instructions: 100000003 cycles: 67732431 heartbeat IPC: 1.67655 cumulative IPC: 1.4764 (Simulation time: 7 hr 58 min 38 sec) 
 Total Blocks : 196608 Invalid Blocks : 0 Valid Blocks : 196608
 Total Tags : 491520 Threshold : 12288 Invalid Tags : 196611 Pr0 Tags : 98301 Pr1 Tags : 196608 num_pr0 : 12287
 SAE Count : 0
 Inter-Core Inteference in Data Store : 22600628
Heartbeat CPU 7 instructions: 100000003 cycles: 67732938 heartbeat IPC: 1.6765 cumulative IPC: 1.47639 (Simulation time: 7 hr 58 min 38 sec) 
 Total Blocks : 196608 Invalid Blocks : 0 Valid Blocks : 196608
 Total Tags : 491520 Threshold : 12288 Invalid Tags : 196616 Pr0 Tags : 98296 Pr1 Tags : 196608 num_pr0 : 12287
 SAE Count : 0
 Inter-Core Inteference in Data Store : 22600793
Heartbeat CPU 0 instructions: 110000000 cycles: 73777127 heartbeat IPC: 1.63954 cumulative IPC: 1.49098 (Simulation time: 8 hr 46 min 15 sec) 
 Total Blocks : 196608 Invalid Blocks : 0 Valid Blocks : 196608
 Total Tags : 491520 Threshold : 12288 Invalid Tags : 196610 Pr0 Tags : 98302 Pr1 Tags : 196608 num_pr0 : 12288
 SAE Count : 0
 Inter-Core Inteference in Data Store : 24555263
Heartbeat CPU 1 instructions: 110000000 cycles: 73789953 heartbeat IPC: 1.6393 cumulative IPC: 1.49072 (Simulation time: 8 hr 46 min 20 sec) 
 Total Blocks : 196608 Invalid Blocks : 0 Valid Blocks : 196608
 Total Tags : 491520 Threshold : 12288 Invalid Tags : 196611 Pr0 Tags : 98301 Pr1 Tags : 196608 num_pr0 : 12288
 SAE Count : 0
 Inter-Core Inteference in Data Store : 24559052
Heartbeat CPU 2 instructions: 110000000 cycles: 73799623 heartbeat IPC: 1.63912 cumulative IPC: 1.49052 (Simulation time: 8 hr 46 min 24 sec) 
 Total Blocks : 196608 Invalid Blocks : 0 Valid Blocks : 196608
 Total Tags : 491520 Threshold : 12288 Invalid Tags : 196615 Pr0 Tags : 98297 Pr1 Tags : 196608 num_pr0 : 12286
 SAE Count : 0
 Inter-Core Inteference in Data Store : 24562006
Heartbeat CPU 3 instructions: 110000000 cycles: 73808914 heartbeat IPC: 1.63892 cumulative IPC: 1.49033 (Simulation time: 8 hr 46 min 27 sec) 
 Total Blocks : 196608 Invalid Blocks : 0 Valid Blocks : 196608
 Total Tags : 491520 Threshold : 12288 Invalid Tags : 196611 Pr0 Tags : 98301 Pr1 Tags : 196608 num_pr0 : 12287
 SAE Count : 0
 Inter-Core Inteference in Data Store : 24564832
Heartbeat CPU 4 instructions: 110000000 cycles: 73810741 heartbeat IPC: 1.63882 cumulative IPC: 1.4903 (Simulation time: 8 hr 46 min 28 sec) 
 Total Blocks : 196608 Invalid Blocks : 0 Valid Blocks : 196608
 Total Tags : 491520 Threshold : 12288 Invalid Tags : 196608 Pr0 Tags : 98304 Pr1 Tags : 196608 num_pr0 : 12288
 SAE Count : 0
 Inter-Core Inteference in Data Store : 24565432
Heartbeat CPU 5 instructions: 110000000 cycles: 73819336 heartbeat IPC: 1.63869 cumulative IPC: 1.49012 (Simulation time: 8 hr 46 min 31 sec) 
 Total Blocks : 196608 Invalid Blocks : 0 Valid Blocks : 196608
 Total Tags : 491520 Threshold : 12288 Invalid Tags : 196613 Pr0 Tags : 98299 Pr1 Tags : 196608 num_pr0 : 12288
 SAE Count : 0
 Inter-Core Inteference in Data Store : 24568100
Heartbeat CPU 6 instructions: 110000000 cycles: 73836505 heartbeat IPC: 1.63825 cumulative IPC: 1.48978 (Simulation time: 8 hr 46 min 37 sec) 
 Total Blocks : 196608 Invalid Blocks : 0 Valid Blocks : 196608
 Total Tags : 491520 Threshold : 12288 Invalid Tags : 196612 Pr0 Tags : 98300 Pr1 Tags : 196608 num_pr0 : 12288
 SAE Count : 0
 Inter-Core Inteference in Data Store : 24573237
Heartbeat CPU 7 instructions: 110000000 cycles: 73836831 heartbeat IPC: 1.6383 cumulative IPC: 1.48977 (Simulation time: 8 hr 46 min 38 sec) 
 Total Blocks : 196608 Invalid Blocks : 0 Valid Blocks : 196608
 Total Tags : 491520 Threshold : 12288 Invalid Tags : 196612 Pr0 Tags : 98300 Pr1 Tags : 196608 num_pr0 : 12288
 SAE Count : 0
 Inter-Core Inteference in Data Store : 24573344
Heartbeat CPU 0 instructions: 120000000 cycles: 79857760 heartbeat IPC: 1.64457 cumulative IPC: 1.50267 (Simulation time: 9 hr 33 min 32 sec) 
 Total Blocks : 196608 Invalid Blocks : 0 Valid Blocks : 196608
 Total Tags : 491520 Threshold : 12288 Invalid Tags : 196611 Pr0 Tags : 98301 Pr1 Tags : 196608 num_pr0 : 12288
 SAE Count : 0
 Inter-Core Inteference in Data Store : 26521897
Heartbeat CPU 1 instructions: 120000000 cycles: 79871452 heartbeat IPC: 1.64433 cumulative IPC: 1.50241 (Simulation time: 9 hr 33 min 38 sec) 
 Total Blocks : 196608 Invalid Blocks : 0 Valid Blocks : 196608
 Total Tags : 491520 Threshold : 12288 Invalid Tags : 196611 Pr0 Tags : 98301 Pr1 Tags : 196608 num_pr0 : 12288
 SAE Count : 0
 Inter-Core Inteference in Data Store : 26526285
Heartbeat CPU 2 instructions: 120000000 cycles: 79882075 heartbeat IPC: 1.64407 cumulative IPC: 1.50221 (Simulation time: 9 hr 33 min 43 sec) 
 Total Blocks : 196608 Invalid Blocks : 0 Valid Blocks : 196608
 Total Tags : 491520 Threshold : 12288 Invalid Tags : 196610 Pr0 Tags : 98302 Pr1 Tags : 196608 num_pr0 : 12288
 SAE Count : 0
 Inter-Core Inteference in Data Store : 26529599
Heartbeat CPU 3 instructions: 120000000 cycles: 79892196 heartbeat IPC: 1.64385 cumulative IPC: 1.50202 (Simulation time: 9 hr 33 min 48 sec) 
 Total Blocks : 196608 Invalid Blocks : 0 Valid Blocks : 196608
 Total Tags : 491520 Threshold : 12288 Invalid Tags : 196611 Pr0 Tags : 98301 Pr1 Tags : 196608 num_pr0 : 12288
 SAE Count : 0
 Inter-Core Inteference in Data Store : 26532723
Heartbeat CPU 4 instructions: 120000000 cycles: 79893747 heartbeat IPC: 1.64392 cumulative IPC: 1.50199 (Simulation time: 9 hr 33 min 49 sec) 
 Total Blocks : 196608 Invalid Blocks : 0 Valid Blocks : 196608
 Total Tags : 491520 Threshold : 12288 Invalid Tags : 196611 Pr0 Tags : 98301 Pr1 Tags : 196608 num_pr0 : 12287
 SAE Count : 0
 Inter-Core Inteference in Data Store : 26533150
Heartbeat CPU 5 instructions: 120000000 cycles: 79903390 heartbeat IPC: 1.64364 cumulative IPC: 1.50181 (Simulation time: 9 hr 33 min 53 sec) 
 Total Blocks : 196608 Invalid Blocks : 0 Valid Blocks : 196608
 Total Tags : 491520 Threshold : 12288 Invalid Tags : 196613 Pr0 Tags : 98299 Pr1 Tags : 196608 num_pr0 : 12288
 SAE Count : 0
 Inter-Core Inteference in Data Store : 26536041
Heartbeat CPU 7 instructions: 120000000 cycles: 79922167 heartbeat IPC: 1.64329 cumulative IPC: 1.50146 (Simulation time: 9 hr 34 min 2 sec) 
 Total Blocks : 196608 Invalid Blocks : 0 Valid Blocks : 196608
 Total Tags : 491520 Threshold : 12288 Invalid Tags : 196616 Pr0 Tags : 98296 Pr1 Tags : 196608 num_pr0 : 12286
 SAE Count : 0
 Inter-Core Inteference in Data Store : 26541552
Heartbeat CPU 6 instructions: 120000000 cycles: 79922226 heartbeat IPC: 1.64319 cumulative IPC: 1.50146 (Simulation time: 9 hr 34 min 2 sec) 
 Total Blocks : 196608 Invalid Blocks : 0 Valid Blocks : 196608
 Total Tags : 491520 Threshold : 12288 Invalid Tags : 196613 Pr0 Tags : 98299 Pr1 Tags : 196608 num_pr0 : 12287
 SAE Count : 0
 Inter-Core Inteference in Data Store : 26541571
Heartbeat CPU 0 instructions: 130000000 cycles: 85953568 heartbeat IPC: 1.64047 cumulative IPC: 1.51244 (Simulation time: 10 hr 21 min 48 sec) 
 Total Blocks : 196608 Invalid Blocks : 0 Valid Blocks : 196608
 Total Tags : 491520 Threshold : 12288 Invalid Tags : 196617 Pr0 Tags : 98295 Pr1 Tags : 196608 num_pr0 : 12287
 SAE Count : 0
 Inter-Core Inteference in Data Store : 28465522
Heartbeat CPU 1 instructions: 130000000 cycles: 85967734 heartbeat IPC: 1.64034 cumulative IPC: 1.5122 (Simulation time: 10 hr 21 min 57 sec) 
 Total Blocks : 196608 Invalid Blocks : 0 Valid Blocks : 196608
 Total Tags : 491520 Threshold : 12288 Invalid Tags : 196611 Pr0 Tags : 98301 Pr1 Tags : 196608 num_pr0 : 12287
 SAE Count : 0
 Inter-Core Inteference in Data Store : 28469379
Heartbeat CPU 2 instructions: 130000000 cycles: 85979081 heartbeat IPC: 1.64015 cumulative IPC: 1.512 (Simulation time: 10 hr 22 min 1 sec) 
 Total Blocks : 196608 Invalid Blocks : 0 Valid Blocks : 196608
 Total Tags : 491520 Threshold : 12288 Invalid Tags : 196613 Pr0 Tags : 98299 Pr1 Tags : 196608 num_pr0 : 12288
 SAE Count : 0
 Inter-Core Inteference in Data Store : 28472488
Heartbeat CPU 3 instructions: 130000000 cycles: 85990151 heartbeat IPC: 1.63989 cumulative IPC: 1.5118 (Simulation time: 10 hr 22 min 7 sec) 
 Total Blocks : 196608 Invalid Blocks : 0 Valid Blocks : 196608
 Total Tags : 491520 Threshold : 12288 Invalid Tags : 196610 Pr0 Tags : 98302 Pr1 Tags : 196608 num_pr0 : 12288
 SAE Count : 0
 Inter-Core Inteference in Data Store : 28475391
Heartbeat CPU 4 instructions: 130000000 cycles: 85991648 heartbeat IPC: 1.63991 cumulative IPC: 1.51177 (Simulation time: 10 hr 22 min 8 sec) 
 Total Blocks : 196608 Invalid Blocks : 0 Valid Blocks : 196608
 Total Tags : 491520 Threshold : 12288 Invalid Tags : 196611 Pr0 Tags : 98301 Pr1 Tags : 196608 num_pr0 : 12288
 SAE Count : 0
 Inter-Core Inteference in Data Store : 28475769
Heartbeat CPU 5 instructions: 130000000 cycles: 86002101 heartbeat IPC: 1.63969 cumulative IPC: 1.51159 (Simulation time: 10 hr 22 min 14 sec) 
 Total Blocks : 196608 Invalid Blocks : 0 Valid Blocks : 196608
 Total Tags : 491520 Threshold : 12288 Invalid Tags : 196615 Pr0 Tags : 98297 Pr1 Tags : 196608 num_pr0 : 12286
 SAE Count : 0
 Inter-Core Inteference in Data Store : 28478664
Heartbeat CPU 7 instructions: 130000000 cycles: 86022091 heartbeat IPC: 1.63936 cumulative IPC: 1.51124 (Simulation time: 10 hr 22 min 23 sec) 
 Total Blocks : 196608 Invalid Blocks : 0 Valid Blocks : 196608
 Total Tags : 491520 Threshold : 12288 Invalid Tags : 196609 Pr0 Tags : 98303 Pr1 Tags : 196608 num_pr0 : 12288
 SAE Count : 0
 Inter-Core Inteference in Data Store : 28484638
Heartbeat CPU 6 instructions: 130000000 cycles: 86022722 heartbeat IPC: 1.63921 cumulative IPC: 1.51123 (Simulation time: 10 hr 22 min 23 sec) 
 Total Blocks : 196608 Invalid Blocks : 0 Valid Blocks : 196608
 Total Tags : 491520 Threshold : 12288 Invalid Tags : 196610 Pr0 Tags : 98302 Pr1 Tags : 196608 num_pr0 : 12288
 SAE Count : 0
 Inter-Core Inteference in Data Store : 28484822
Heartbeat CPU 0 instructions: 140000001 cycles: 91106989 heartbeat IPC: 1.94046 cumulative IPC: 1.53665 (Simulation time: 11 hr 20 min 40 sec) 
 Total Blocks : 196608 Invalid Blocks : 0 Valid Blocks : 196608
 Total Tags : 491520 Threshold : 12288 Invalid Tags : 196608 Pr0 Tags : 98304 Pr1 Tags : 196608 num_pr0 : 12288
 SAE Count : 0
 Inter-Core Inteference in Data Store : 29942124
Heartbeat CPU 1 instructions: 140000001 cycles: 91121868 heartbeat IPC: 1.94019 cumulative IPC: 1.5364 (Simulation time: 11 hr 20 min 54 sec) 
 Total Blocks : 196608 Invalid Blocks : 0 Valid Blocks : 196608
 Total Tags : 491520 Threshold : 12288 Invalid Tags : 196609 Pr0 Tags : 98303 Pr1 Tags : 196608 num_pr0 : 12288
 SAE Count : 0
 Inter-Core Inteference in Data Store : 29945899
Heartbeat CPU 2 instructions: 140000001 cycles: 91134003 heartbeat IPC: 1.93989 cumulative IPC: 1.5362 (Simulation time: 11 hr 21 min 4 sec) 
 Total Blocks : 196608 Invalid Blocks : 0 Valid Blocks : 196608
 Total Tags : 491520 Threshold : 12288 Invalid Tags : 196609 Pr0 Tags : 98303 Pr1 Tags : 196608 num_pr0 : 12288
 SAE Count : 0
 Inter-Core Inteference in Data Store : 29948886
Heartbeat CPU 3 instructions: 140000001 cycles: 91145856 heartbeat IPC: 1.9396 cumulative IPC: 1.536 (Simulation time: 11 hr 21 min 14 sec) 
 Total Blocks : 196608 Invalid Blocks : 0 Valid Blocks : 196608
 Total Tags : 491520 Threshold : 12288 Invalid Tags : 196609 Pr0 Tags : 98303 Pr1 Tags : 196608 num_pr0 : 12288
 SAE Count : 0
 Inter-Core Inteference in Data Store : 29951930
Heartbeat CPU 4 instructions: 140000001 cycles: 91147486 heartbeat IPC: 1.93955 cumulative IPC: 1.53597 (Simulation time: 11 hr 21 min 15 sec) 
 Total Blocks : 196608 Invalid Blocks : 0 Valid Blocks : 196608
 Total Tags : 491520 Threshold : 12288 Invalid Tags : 196610 Pr0 Tags : 98302 Pr1 Tags : 196608 num_pr0 : 12288
 SAE Count : 0
 Inter-Core Inteference in Data Store : 29952272
Heartbeat CPU 5 instructions: 140000001 cycles: 91158846 heartbeat IPC: 1.93921 cumulative IPC: 1.53578 (Simulation time: 11 hr 21 min 24 sec) 
 Total Blocks : 196608 Invalid Blocks : 0 Valid Blocks : 196608
 Total Tags : 491520 Threshold : 12288 Invalid Tags : 196608 Pr0 Tags : 98304 Pr1 Tags : 196608 num_pr0 : 12288
 SAE Count : 0
 Inter-Core Inteference in Data Store : 29955145
Heartbeat CPU 7 instructions: 140000001 cycles: 91179786 heartbeat IPC: 1.93885 cumulative IPC: 1.53543 (Simulation time: 11 hr 21 min 40 sec) 
 Total Blocks : 196608 Invalid Blocks : 0 Valid Blocks : 196608
 Total Tags : 491520 Threshold : 12288 Invalid Tags : 196608 Pr0 Tags : 98304 Pr1 Tags : 196608 num_pr0 : 12288
 SAE Count : 0
 Inter-Core Inteference in Data Store : 29960280
Heartbeat CPU 6 instructions: 140000001 cycles: 91180867 heartbeat IPC: 1.93868 cumulative IPC: 1.53541 (Simulation time: 11 hr 21 min 41 sec) 
 Total Blocks : 196608 Invalid Blocks : 0 Valid Blocks : 196608
 Total Tags : 491520 Threshold : 12288 Invalid Tags : 196608 Pr0 Tags : 98304 Pr1 Tags : 196608 num_pr0 : 12288
 SAE Count : 0
 Inter-Core Inteference in Data Store : 29960514
Heartbeat CPU 0 instructions: 150000000 cycles: 95316607 heartbeat IPC: 2.37551 cumulative IPC: 1.5737 (Simulation time: 12 hr 27 min 29 sec) 
 Total Blocks : 196608 Invalid Blocks : 0 Valid Blocks : 196608
 Total Tags : 491520 Threshold : 12288 Invalid Tags : 196610 Pr0 Tags : 98302 Pr1 Tags : 196608 num_pr0 : 12288
 SAE Count : 0
 Inter-Core Inteference in Data Store : 30961198
Heartbeat CPU 1 instructions: 150000000 cycles: 95331964 heartbeat IPC: 2.37524 cumulative IPC: 1.57345 (Simulation time: 12 hr 27 min 45 sec) 
 Total Blocks : 196608 Invalid Blocks : 0 Valid Blocks : 196608
 Total Tags : 491520 Threshold : 12288 Invalid Tags : 196610 Pr0 Tags : 98302 Pr1 Tags : 196608 num_pr0 : 12288
 SAE Count : 0
 Inter-Core Inteference in Data Store : 30964832
Heartbeat CPU 2 instructions: 150000000 cycles: 95344687 heartbeat IPC: 2.37491 cumulative IPC: 1.57324 (Simulation time: 12 hr 27 min 56 sec) 
 Total Blocks : 196608 Invalid Blocks : 0 Valid Blocks : 196608
 Total Tags : 491520 Threshold : 12288 Invalid Tags : 196610 Pr0 Tags : 98302 Pr1 Tags : 196608 num_pr0 : 12288
 SAE Count : 0
 Inter-Core Inteference in Data Store : 30967991
Heartbeat CPU 3 instructions: 150000000 cycles: 95356857 heartbeat IPC: 2.37473 cumulative IPC: 1.57304 (Simulation time: 12 hr 28 min 6 sec) 
 Total Blocks : 196608 Invalid Blocks : 0 Valid Blocks : 196608
 Total Tags : 491520 Threshold : 12288 Invalid Tags : 196610 Pr0 Tags : 98302 Pr1 Tags : 196608 num_pr0 : 12288
 SAE Count : 0
 Inter-Core Inteference in Data Store : 30971052
Heartbeat CPU 4 instructions: 150000000 cycles: 95358978 heartbeat IPC: 2.37446 cumulative IPC: 1.573 (Simulation time: 12 hr 28 min 9 sec) 
 Total Blocks : 196608 Invalid Blocks : 0 Valid Blocks : 196608
 Total Tags : 491520 Threshold : 12288 Invalid Tags : 196608 Pr0 Tags : 98304 Pr1 Tags : 196608 num_pr0 : 12288
 SAE Count : 0
 Inter-Core Inteference in Data Store : 30971595
Heartbeat CPU 5 instructions: 150000000 cycles: 95371145 heartbeat IPC: 2.374 cumulative IPC: 1.5728 (Simulation time: 12 hr 28 min 21 sec) 
 Total Blocks : 196608 Invalid Blocks : 0 Valid Blocks : 196608
 Total Tags : 491520 Threshold : 12288 Invalid Tags : 196608 Pr0 Tags : 98304 Pr1 Tags : 196608 num_pr0 : 12288
 SAE Count : 0
 Inter-Core Inteference in Data Store : 30974697
Heartbeat CPU 7 instructions: 150000000 cycles: 95393199 heartbeat IPC: 2.37337 cumulative IPC: 1.57244 (Simulation time: 12 hr 28 min 42 sec) 
 Total Blocks : 196608 Invalid Blocks : 0 Valid Blocks : 196608
 Total Tags : 491520 Threshold : 12288 Invalid Tags : 196608 Pr0 Tags : 98304 Pr1 Tags : 196608 num_pr0 : 12288
 SAE Count : 0
 Inter-Core Inteference in Data Store : 30980218
Heartbeat CPU 6 instructions: 150000000 cycles: 95393746 heartbeat IPC: 2.37367 cumulative IPC: 1.57243 (Simulation time: 12 hr 28 min 42 sec) 
 Total Blocks : 196608 Invalid Blocks : 0 Valid Blocks : 196608
 Total Tags : 491520 Threshold : 12288 Invalid Tags : 196608 Pr0 Tags : 98304 Pr1 Tags : 196608 num_pr0 : 12288
 SAE Count : 0
 Inter-Core Inteference in Data Store : 30980353
Heartbeat CPU 0 instructions: 160000000 cycles: 99474921 heartbeat IPC: 2.40482 cumulative IPC: 1.60845 (Simulation time: 13 hr 35 min 46 sec) 
 Total Blocks : 196608 Invalid Blocks : 0 Valid Blocks : 196608
 Total Tags : 491520 Threshold : 12288 Invalid Tags : 196609 Pr0 Tags : 98303 Pr1 Tags : 196608 num_pr0 : 12288
 SAE Count : 0
 Inter-Core Inteference in Data Store : 31969499
Heartbeat CPU 1 instructions: 160000000 cycles: 99490958 heartbeat IPC: 2.40443 cumulative IPC: 1.60819 (Simulation time: 13 hr 36 min 1 sec) 
 Total Blocks : 196608 Invalid Blocks : 0 Valid Blocks : 196608
 Total Tags : 491520 Threshold : 12288 Invalid Tags : 196608 Pr0 Tags : 98304 Pr1 Tags : 196608 num_pr0 : 12288
 SAE Count : 0
 Inter-Core Inteference in Data Store : 31973280
Heartbeat CPU 2 instructions: 160000000 cycles: 99504422 heartbeat IPC: 2.404 cumulative IPC: 1.60797 (Simulation time: 13 hr 36 min 16 sec) 
 Total Blocks : 196608 Invalid Blocks : 0 Valid Blocks : 196608
 Total Tags : 491520 Threshold : 12288 Invalid Tags : 196609 Pr0 Tags : 98303 Pr1 Tags : 196608 num_pr0 : 12288
 SAE Count : 0
 Inter-Core Inteference in Data Store : 31976474
Heartbeat CPU 3 instructions: 160000000 cycles: 99517193 heartbeat IPC: 2.40365 cumulative IPC: 1.60776 (Simulation time: 13 hr 36 min 28 sec) 
 Total Blocks : 196608 Invalid Blocks : 0 Valid Blocks : 196608
 Total Tags : 491520 Threshold : 12288 Invalid Tags : 196608 Pr0 Tags : 98304 Pr1 Tags : 196608 num_pr0 : 12288
 SAE Count : 0
 Inter-Core Inteference in Data Store : 31979318
Heartbeat CPU 4 instructions: 160000000 cycles: 99519472 heartbeat IPC: 2.40356 cumulative IPC: 1.60773 (Simulation time: 13 hr 36 min 31 sec) 
 Total Blocks : 196608 Invalid Blocks : 0 Valid Blocks : 196608
 Total Tags : 491520 Threshold : 12288 Invalid Tags : 196608 Pr0 Tags : 98304 Pr1 Tags : 196608 num_pr0 : 12288
 SAE Count : 0
 Inter-Core Inteference in Data Store : 31979758
Heartbeat CPU 5 instructions: 160000000 cycles: 99532270 heartbeat IPC: 2.4032 cumulative IPC: 1.60752 (Simulation time: 13 hr 36 min 48 sec) 
 Total Blocks : 196608 Invalid Blocks : 0 Valid Blocks : 196608
 Total Tags : 491520 Threshold : 12288 Invalid Tags : 196609 Pr0 Tags : 98303 Pr1 Tags : 196608 num_pr0 : 12288
 SAE Count : 0
 Inter-Core Inteference in Data Store : 31982838
Heartbeat CPU 6 instructions: 160000000 cycles: 99555500 heartbeat IPC: 2.40283 cumulative IPC: 1.60714 (Simulation time: 13 hr 37 min 17 sec) 
 Total Blocks : 196608 Invalid Blocks : 0 Valid Blocks : 196608
 Total Tags : 491520 Threshold : 12288 Invalid Tags : 196609 Pr0 Tags : 98303 Pr1 Tags : 196608 num_pr0 : 12288
 SAE Count : 0
 Inter-Core Inteference in Data Store : 31988384
Heartbeat CPU 7 instructions: 160000000 cycles: 99555680 heartbeat IPC: 2.40241 cumulative IPC: 1.60714 (Simulation time: 13 hr 37 min 17 sec) 
 Total Blocks : 196608 Invalid Blocks : 0 Valid Blocks : 196608
 Total Tags : 491520 Threshold : 12288 Invalid Tags : 196608 Pr0 Tags : 98304 Pr1 Tags : 196608 num_pr0 : 12288
 SAE Count : 0
 Inter-Core Inteference in Data Store : 31988434
Heartbeat CPU 0 instructions: 170000000 cycles: 103577387 heartbeat IPC: 2.43756 cumulative IPC: 1.64128 (Simulation time: 14 hr 45 min 52 sec) 
 Total Blocks : 196608 Invalid Blocks : 0 Valid Blocks : 196608
 Total Tags : 491520 Threshold : 12288 Invalid Tags : 196608 Pr0 Tags : 98304 Pr1 Tags : 196608 num_pr0 : 12288
 SAE Count : 0
 Inter-Core Inteference in Data Store : 32924236
Heartbeat CPU 1 instructions: 170000000 cycles: 103594171 heartbeat IPC: 2.43711 cumulative IPC: 1.64102 (Simulation time: 14 hr 46 min 10 sec) 
 Total Blocks : 196608 Invalid Blocks : 0 Valid Blocks : 196608
 Total Tags : 491520 Threshold : 12288 Invalid Tags : 196608 Pr0 Tags : 98304 Pr1 Tags : 196608 num_pr0 : 12288
 SAE Count : 0
 Inter-Core Inteference in Data Store : 32927999
Heartbeat CPU 2 instructions: 170000000 cycles: 103608439 heartbeat IPC: 2.43664 cumulative IPC: 1.64079 (Simulation time: 14 hr 46 min 23 sec) 
 Total Blocks : 196608 Invalid Blocks : 0 Valid Blocks : 196608
 Total Tags : 491520 Threshold : 12288 Invalid Tags : 196608 Pr0 Tags : 98304 Pr1 Tags : 196608 num_pr0 : 12288
 SAE Count : 0
 Inter-Core Inteference in Data Store : 32931263
Heartbeat CPU 3 instructions: 170000000 cycles: 103621932 heartbeat IPC: 2.43621 cumulative IPC: 1.64058 (Simulation time: 14 hr 46 min 38 sec) 
 Total Blocks : 196608 Invalid Blocks : 0 Valid Blocks : 196608
 Total Tags : 491520 Threshold : 12288 Invalid Tags : 196608 Pr0 Tags : 98304 Pr1 Tags : 196608 num_pr0 : 12288
 SAE Count : 0
 Inter-Core Inteference in Data Store : 32934311
Heartbeat CPU 4 instructions: 170000000 cycles: 103624114 heartbeat IPC: 2.43627 cumulative IPC: 1.64054 (Simulation time: 14 hr 46 min 41 sec) 
 Total Blocks : 196608 Invalid Blocks : 0 Valid Blocks : 196608
 Total Tags : 491520 Threshold : 12288 Invalid Tags : 196608 Pr0 Tags : 98304 Pr1 Tags : 196608 num_pr0 : 12288
 SAE Count : 0
 Inter-Core Inteference in Data Store : 32934830
Heartbeat CPU 5 instructions: 170000000 cycles: 103637412 heartbeat IPC: 2.43597 cumulative IPC: 1.64033 (Simulation time: 14 hr 46 min 53 sec) 
 Total Blocks : 196608 Invalid Blocks : 0 Valid Blocks : 196608
 Total Tags : 491520 Threshold : 12288 Invalid Tags : 196608 Pr0 Tags : 98304 Pr1 Tags : 196608 num_pr0 : 12288
 SAE Count : 0
 Inter-Core Inteference in Data Store : 32937862
Heartbeat CPU 6 instructions: 170000000 cycles: 103661571 heartbeat IPC: 2.43542 cumulative IPC: 1.63995 (Simulation time: 14 hr 47 min 15 sec) 
 Total Blocks : 196608 Invalid Blocks : 0 Valid Blocks : 196608
 Total Tags : 491520 Threshold : 12288 Invalid Tags : 196609 Pr0 Tags : 98303 Pr1 Tags : 196608 num_pr0 : 12288
 SAE Count : 0
 Inter-Core Inteference in Data Store : 32943321
Heartbeat CPU 7 instructions: 170000000 cycles: 103662107 heartbeat IPC: 2.43521 cumulative IPC: 1.63994 (Simulation time: 14 hr 47 min 15 sec) 
 Total Blocks : 196608 Invalid Blocks : 0 Valid Blocks : 196608
 Total Tags : 491520 Threshold : 12288 Invalid Tags : 196608 Pr0 Tags : 98304 Pr1 Tags : 196608 num_pr0 : 12288
 SAE Count : 0
 Inter-Core Inteference in Data Store : 32943435
Heartbeat CPU 0 instructions: 180000002 cycles: 107653126 heartbeat IPC: 2.45354 cumulative IPC: 1.67204 (Simulation time: 15 hr 55 min 39 sec) 
 Total Blocks : 196608 Invalid Blocks : 0 Valid Blocks : 196608
 Total Tags : 491520 Threshold : 12288 Invalid Tags : 196609 Pr0 Tags : 98303 Pr1 Tags : 196608 num_pr0 : 12288
 SAE Count : 0
 Inter-Core Inteference in Data Store : 33850228
Heartbeat CPU 1 instructions: 180000002 cycles: 107670812 heartbeat IPC: 2.453 cumulative IPC: 1.67176 (Simulation time: 15 hr 56 min 3 sec) 
 Total Blocks : 196608 Invalid Blocks : 0 Valid Blocks : 196608
 Total Tags : 491520 Threshold : 12288 Invalid Tags : 196608 Pr0 Tags : 98304 Pr1 Tags : 196608 num_pr0 : 12288
 SAE Count : 0
 Inter-Core Inteference in Data Store : 33854353
Heartbeat CPU 2 instructions: 180000002 cycles: 107685694 heartbeat IPC: 2.45263 cumulative IPC: 1.67153 (Simulation time: 15 hr 56 min 18 sec) 
 Total Blocks : 196608 Invalid Blocks : 0 Valid Blocks : 196608
 Total Tags : 491520 Threshold : 12288 Invalid Tags : 196608 Pr0 Tags : 98304 Pr1 Tags : 196608 num_pr0 : 12288
 SAE Count : 0
 Inter-Core Inteference in Data Store : 33857880
Heartbeat CPU 3 instructions: 180000002 cycles: 107699801 heartbeat IPC: 2.45226 cumulative IPC: 1.67131 (Simulation time: 15 hr 56 min 40 sec) 
 Total Blocks : 196608 Invalid Blocks : 0 Valid Blocks : 196608
 Total Tags : 491520 Threshold : 12288 Invalid Tags : 196609 Pr0 Tags : 98303 Pr1 Tags : 196608 num_pr0 : 12288
 SAE Count : 0
 Inter-Core Inteference in Data Store : 33861213
Heartbeat CPU 4 instructions: 180000002 cycles: 107701986 heartbeat IPC: 2.45226 cumulative IPC: 1.67128 (Simulation time: 15 hr 56 min 43 sec) 
 Total Blocks : 196608 Invalid Blocks : 0 Valid Blocks : 196608
 Total Tags : 491520 Threshold : 12288 Invalid Tags : 196608 Pr0 Tags : 98304 Pr1 Tags : 196608 num_pr0 : 12288
 SAE Count : 0
 Inter-Core Inteference in Data Store : 33861701
Heartbeat CPU 5 instructions: 180000002 cycles: 107716288 heartbeat IPC: 2.45166 cumulative IPC: 1.67106 (Simulation time: 15 hr 56 min 59 sec) 
 Total Blocks : 196608 Invalid Blocks : 0 Valid Blocks : 196608
 Total Tags : 491520 Threshold : 12288 Invalid Tags : 196608 Pr0 Tags : 98304 Pr1 Tags : 196608 num_pr0 : 12288
 SAE Count : 0
 Inter-Core Inteference in Data Store : 33865044
Heartbeat CPU 6 instructions: 180000002 cycles: 107741131 heartbeat IPC: 2.45125 cumulative IPC: 1.67067 (Simulation time: 15 hr 57 min 28 sec) 
 Total Blocks : 196608 Invalid Blocks : 0 Valid Blocks : 196608
 Total Tags : 491520 Threshold : 12288 Invalid Tags : 196609 Pr0 Tags : 98303 Pr1 Tags : 196608 num_pr0 : 12287
 SAE Count : 0
 Inter-Core Inteference in Data Store : 33870772
Heartbeat CPU 7 instructions: 180000002 cycles: 107742128 heartbeat IPC: 2.45097 cumulative IPC: 1.67066 (Simulation time: 15 hr 57 min 29 sec) 
 Total Blocks : 196608 Invalid Blocks : 0 Valid Blocks : 196608
 Total Tags : 491520 Threshold : 12288 Invalid Tags : 196609 Pr0 Tags : 98303 Pr1 Tags : 196608 num_pr0 : 12288
 SAE Count : 0
 Inter-Core Inteference in Data Store : 33871035
Heartbeat CPU 0 instructions: 190000000 cycles: 111691877 heartbeat IPC: 2.47601 cumulative IPC: 1.70111 (Simulation time: 17 hr 2 min 59 sec) 
 Total Blocks : 196608 Invalid Blocks : 0 Valid Blocks : 196608
 Total Tags : 491520 Threshold : 12288 Invalid Tags : 196608 Pr0 Tags : 98304 Pr1 Tags : 196608 num_pr0 : 12288
 SAE Count : 0
 Inter-Core Inteference in Data Store : 34779599
Heartbeat CPU 1 instructions: 190000000 cycles: 111710488 heartbeat IPC: 2.47545 cumulative IPC: 1.70083 (Simulation time: 17 hr 3 min 19 sec) 
 Total Blocks : 196608 Invalid Blocks : 0 Valid Blocks : 196608
 Total Tags : 491520 Threshold : 12288 Invalid Tags : 196608 Pr0 Tags : 98304 Pr1 Tags : 196608 num_pr0 : 12288
 SAE Count : 0
 Inter-Core Inteference in Data Store : 34784143
Heartbeat CPU 2 instructions: 190000000 cycles: 111725940 heartbeat IPC: 2.4751 cumulative IPC: 1.70059 (Simulation time: 17 hr 3 min 34 sec) 
 Total Blocks : 196608 Invalid Blocks : 0 Valid Blocks : 196608
 Total Tags : 491520 Threshold : 12288 Invalid Tags : 196609 Pr0 Tags : 98303 Pr1 Tags : 196608 num_pr0 : 12288
 SAE Count : 0
 Inter-Core Inteference in Data Store : 34787783
Heartbeat CPU 3 instructions: 190000000 cycles: 111740798 heartbeat IPC: 2.47464 cumulative IPC: 1.70036 (Simulation time: 17 hr 3 min 49 sec) 
 Total Blocks : 196608 Invalid Blocks : 0 Valid Blocks : 196608
 Total Tags : 491520 Threshold : 12288 Invalid Tags : 196608 Pr0 Tags : 98304 Pr1 Tags : 196608 num_pr0 : 12288
 SAE Count : 0
 Inter-Core Inteference in Data Store : 34791218
Heartbeat CPU 4 instructions: 190000000 cycles: 111742973 heartbeat IPC: 2.47464 cumulative IPC: 1.70033 (Simulation time: 17 hr 3 min 50 sec) 
 Total Blocks : 196608 Invalid Blocks : 0 Valid Blocks : 196608
 Total Tags : 491520 Threshold : 12288 Invalid Tags : 196609 Pr0 Tags : 98303 Pr1 Tags : 196608 num_pr0 : 12288
 SAE Count : 0
 Inter-Core Inteference in Data Store : 34791753
Heartbeat CPU 5 instructions: 190000000 cycles: 111757924 heartbeat IPC: 2.47425 cumulative IPC: 1.7001 (Simulation time: 17 hr 4 min 3 sec) 
 Total Blocks : 196608 Invalid Blocks : 0 Valid Blocks : 196608
 Total Tags : 491520 Threshold : 12288 Invalid Tags : 196609 Pr0 Tags : 98303 Pr1 Tags : 196608 num_pr0 : 12288
 SAE Count : 0
 Inter-Core Inteference in Data Store : 34795234
Heartbeat CPU 6 instructions: 190000000 cycles: 111783321 heartbeat IPC: 2.47391 cumulative IPC: 1.69972 (Simulation time: 17 hr 4 min 24 sec) 
 Total Blocks : 196608 Invalid Blocks : 0 Valid Blocks : 196608
 Total Tags : 491520 Threshold : 12288 Invalid Tags : 196608 Pr0 Tags : 98304 Pr1 Tags : 196608 num_pr0 : 12288
 SAE Count : 0
 Inter-Core Inteference in Data Store : 34801201
Heartbeat CPU 7 instructions: 190000000 cycles: 111785143 heartbeat IPC: 2.4734 cumulative IPC: 1.69969 (Simulation time: 17 hr 4 min 24 sec) 
 Total Blocks : 196608 Invalid Blocks : 0 Valid Blocks : 196608
 Total Tags : 491520 Threshold : 12288 Invalid Tags : 196610 Pr0 Tags : 98302 Pr1 Tags : 196608 num_pr0 : 12288
 SAE Count : 0
 Inter-Core Inteference in Data Store : 34801621
Heartbeat CPU 0 instructions: 200000001 cycles: 115719752 heartbeat IPC: 2.4827 cumulative IPC: 1.72831 (Simulation time: 18 hr 12 min 3 sec) 
 Total Blocks : 196608 Invalid Blocks : 0 Valid Blocks : 196608
 Total Tags : 491520 Threshold : 12288 Invalid Tags : 196609 Pr0 Tags : 98303 Pr1 Tags : 196608 num_pr0 : 12288
 SAE Count : 0
 Inter-Core Inteference in Data Store : 35704547
Heartbeat CPU 1 instructions: 200000001 cycles: 115739346 heartbeat IPC: 2.48209 cumulative IPC: 1.72802 (Simulation time: 18 hr 12 min 22 sec) 
 Total Blocks : 196608 Invalid Blocks : 0 Valid Blocks : 196608
 Total Tags : 491520 Threshold : 12288 Invalid Tags : 196609 Pr0 Tags : 98303 Pr1 Tags : 196608 num_pr0 : 12288
 SAE Count : 0
 Inter-Core Inteference in Data Store : 35708981
Heartbeat CPU 2 instructions: 200000001 cycles: 115755651 heartbeat IPC: 2.48157 cumulative IPC: 1.72778 (Simulation time: 18 hr 12 min 40 sec) 
 Total Blocks : 196608 Invalid Blocks : 0 Valid Blocks : 196608
 Total Tags : 491520 Threshold : 12288 Invalid Tags : 196609 Pr0 Tags : 98303 Pr1 Tags : 196608 num_pr0 : 12288
 SAE Count : 0
 Inter-Core Inteference in Data Store : 35712812
Heartbeat CPU 3 instructions: 200000001 cycles: 115771237 heartbeat IPC: 2.48112 cumulative IPC: 1.72754 (Simulation time: 18 hr 12 min 57 sec) 
 Total Blocks : 196608 Invalid Blocks : 0 Valid Blocks : 196608
 Total Tags : 491520 Threshold : 12288 Invalid Tags : 196609 Pr0 Tags : 98303 Pr1 Tags : 196608 num_pr0 : 12288
 SAE Count : 0
 Inter-Core Inteference in Data Store : 35716202
Heartbeat CPU 4 instructions: 200000001 cycles: 115773443 heartbeat IPC: 2.4811 cumulative IPC: 1.72751 (Simulation time: 18 hr 13 min 0 sec) 
 Total Blocks : 196608 Invalid Blocks : 0 Valid Blocks : 196608
 Total Tags : 491520 Threshold : 12288 Invalid Tags : 196609 Pr0 Tags : 98303 Pr1 Tags : 196608 num_pr0 : 12288
 SAE Count : 0
 Inter-Core Inteference in Data Store : 35716717
Heartbeat CPU 5 instructions: 200000001 cycles: 115789087 heartbeat IPC: 2.48067 cumulative IPC: 1.72728 (Simulation time: 18 hr 13 min 17 sec) 
 Total Blocks : 196608 Invalid Blocks : 0 Valid Blocks : 196608
 Total Tags : 491520 Threshold : 12288 Invalid Tags : 196608 Pr0 Tags : 98304 Pr1 Tags : 196608 num_pr0 : 12288
 SAE Count : 0
 Inter-Core Inteference in Data Store : 35720162
Heartbeat CPU 6 instructions: 200000001 cycles: 115815038 heartbeat IPC: 2.48033 cumulative IPC: 1.72689 (Simulation time: 18 hr 13 min 41 sec) 
 Total Blocks : 196608 Invalid Blocks : 0 Valid Blocks : 196608
 Total Tags : 491520 Threshold : 12288 Invalid Tags : 196609 Pr0 Tags : 98303 Pr1 Tags : 196608 num_pr0 : 12288
 SAE Count : 0
 Inter-Core Inteference in Data Store : 35725859
Heartbeat CPU 7 instructions: 200000001 cycles: 115817407 heartbeat IPC: 2.48 cumulative IPC: 1.72686 (Simulation time: 18 hr 13 min 44 sec) 
 Total Blocks : 196608 Invalid Blocks : 0 Valid Blocks : 196608
 Total Tags : 491520 Threshold : 12288 Invalid Tags : 196610 Pr0 Tags : 98302 Pr1 Tags : 196608 num_pr0 : 12287
 SAE Count : 0
 Inter-Core Inteference in Data Store : 35726348

Warmup complete CPU 0 instructions: 200244922 cycles: 115817407 (Simulation time: 18 hr 13 min 44 sec) 
Warmup complete CPU 1 instructions: 200195305 cycles: 115817407 (Simulation time: 18 hr 13 min 44 sec) 
Warmup complete CPU 2 instructions: 200153881 cycles: 115817407 (Simulation time: 18 hr 13 min 44 sec) 
Warmup complete CPU 3 instructions: 200114046 cycles: 115817407 (Simulation time: 18 hr 13 min 44 sec) 
Warmup complete CPU 4 instructions: 200108842 cycles: 115817407 (Simulation time: 18 hr 13 min 44 sec) 
Warmup complete CPU 5 instructions: 200068811 cycles: 115817407 (Simulation time: 18 hr 13 min 44 sec) 
Warmup complete CPU 6 instructions: 200005587 cycles: 115817407 (Simulation time: 18 hr 13 min 44 sec) 
Warmup complete CPU 7 instructions: 200000001 cycles: 115817407 (Simulation time: 18 hr 13 min 44 sec) 

Heartbeat CPU 0 instructions: 210000002 cycles: 167259987 heartbeat IPC: 0.194023 cumulative IPC: 0.18963 (Simulation time: 19 hr 49 min 23 sec) 
 Total Blocks : 196608 Invalid Blocks : 0 Valid Blocks : 196608
 Total Tags : 491520 Threshold : 12288 Invalid Tags : 196608 Pr0 Tags : 98304 Pr1 Tags : 196608 num_pr0 : 12288
 SAE Count : 0
 Inter-Core Inteference in Data Store : 879306
Heartbeat CPU 1 instructions: 210000002 cycles: 167631350 heartbeat IPC: 0.192708 cumulative IPC: 0.189229 (Simulation time: 19 hr 50 min 5 sec) 
 Total Blocks : 196608 Invalid Blocks : 0 Valid Blocks : 196608
 Total Tags : 491520 Threshold : 12288 Invalid Tags : 196608 Pr0 Tags : 98304 Pr1 Tags : 196608 num_pr0 : 12288
 SAE Count : 0
 Inter-Core Inteference in Data Store : 885641
Heartbeat CPU 2 instructions: 210000002 cycles: 167816505 heartbeat IPC: 0.192083 cumulative IPC: 0.189352 (Simulation time: 19 hr 50 min 27 sec) 
 Total Blocks : 196608 Invalid Blocks : 0 Valid Blocks : 196608
 Total Tags : 491520 Threshold : 12288 Invalid Tags : 196608 Pr0 Tags : 98304 Pr1 Tags : 196608 num_pr0 : 12288
 SAE Count : 0
 Inter-Core Inteference in Data Store : 888785
Heartbeat CPU 3 instructions: 210000002 cycles: 167901611 heartbeat IPC: 0.191827 cumulative IPC: 0.189807 (Simulation time: 19 hr 50 min 36 sec) 
 Total Blocks : 196608 Invalid Blocks : 0 Valid Blocks : 196608
 Total Tags : 491520 Threshold : 12288 Invalid Tags : 196608 Pr0 Tags : 98304 Pr1 Tags : 196608 num_pr0 : 12288
 SAE Count : 0
 Inter-Core Inteference in Data Store : 890291
Heartbeat CPU 5 instructions: 210000002 cycles: 168096837 heartbeat IPC: 0.191176 cumulative IPC: 0.189964 (Simulation time: 19 hr 50 min 58 sec) 
 Total Blocks : 196608 Invalid Blocks : 0 Valid Blocks : 196608
 Total Tags : 491520 Threshold : 12288 Invalid Tags : 196608 Pr0 Tags : 98304 Pr1 Tags : 196608 num_pr0 : 12288
 SAE Count : 0
 Inter-Core Inteference in Data Store : 893639
Heartbeat CPU 4 instructions: 210000002 cycles: 168133027 heartbeat IPC: 0.190987 cumulative IPC: 0.189067 (Simulation time: 19 hr 51 min 3 sec) 
 Total Blocks : 196608 Invalid Blocks : 0 Valid Blocks : 196608
 Total Tags : 491520 Threshold : 12288 Invalid Tags : 196608 Pr0 Tags : 98304 Pr1 Tags : 196608 num_pr0 : 12288
 SAE Count : 0
 Inter-Core Inteference in Data Store : 894209
Heartbeat CPU 7 instructions: 210000002 cycles: 168456946 heartbeat IPC: 0.189971 cumulative IPC: 0.189971 (Simulation time: 19 hr 51 min 45 sec) 
 Total Blocks : 196608 Invalid Blocks : 0 Valid Blocks : 196608
 Total Tags : 491520 Threshold : 12288 Invalid Tags : 196610 Pr0 Tags : 98302 Pr1 Tags : 196608 num_pr0 : 12288
 SAE Count : 0
 Inter-Core Inteference in Data Store : 899740
Heartbeat CPU 6 instructions: 210000002 cycles: 168493980 heartbeat IPC: 0.189829 cumulative IPC: 0.189732 (Simulation time: 19 hr 51 min 52 sec) 
 Total Blocks : 196608 Invalid Blocks : 0 Valid Blocks : 196608
 Total Tags : 491520 Threshold : 12288 Invalid Tags : 196610 Pr0 Tags : 98302 Pr1 Tags : 196608 num_pr0 : 12288
 SAE Count : 0
 Inter-Core Inteference in Data Store : 900323
Heartbeat CPU 0 instructions: 220000000 cycles: 220296704 heartbeat IPC: 0.188549 cumulative IPC: 0.189081 (Simulation time: 21 hr 28 min 16 sec) 
 Total Blocks : 196608 Invalid Blocks : 0 Valid Blocks : 196608
 Total Tags : 491520 Threshold : 12288 Invalid Tags : 196608 Pr0 Tags : 98304 Pr1 Tags : 196608 num_pr0 : 12288
 SAE Count : 0
 Inter-Core Inteference in Data Store : 1765180
Heartbeat CPU 1 instructions: 220000000 cycles: 220684414 heartbeat IPC: 0.18849 cumulative IPC: 0.188855 (Simulation time: 21 hr 28 min 59 sec) 
 Total Blocks : 196608 Invalid Blocks : 0 Valid Blocks : 196608
 Total Tags : 491520 Threshold : 12288 Invalid Tags : 196608 Pr0 Tags : 98304 Pr1 Tags : 196608 num_pr0 : 12288
 SAE Count : 0
 Inter-Core Inteference in Data Store : 1771574
Heartbeat CPU 2 instructions: 220000000 cycles: 220797677 heartbeat IPC: 0.188746 cumulative IPC: 0.189046 (Simulation time: 21 hr 29 min 12 sec) 
 Total Blocks : 196608 Invalid Blocks : 0 Valid Blocks : 196608
 Total Tags : 491520 Threshold : 12288 Invalid Tags : 196610 Pr0 Tags : 98302 Pr1 Tags : 196608 num_pr0 : 12288
 SAE Count : 0
 Inter-Core Inteference in Data Store : 1773458
Heartbeat CPU 3 instructions: 220000000 cycles: 220877945 heartbeat IPC: 0.188763 cumulative IPC: 0.189281 (Simulation time: 21 hr 29 min 19 sec) 
 Total Blocks : 196608 Invalid Blocks : 0 Valid Blocks : 196608
 Total Tags : 491520 Threshold : 12288 Invalid Tags : 196608 Pr0 Tags : 98304 Pr1 Tags : 196608 num_pr0 : 12288
 SAE Count : 0
 Inter-Core Inteference in Data Store : 1774745
Heartbeat CPU 4 instructions: 220000000 cycles: 221031602 heartbeat IPC: 0.189041 cumulative IPC: 0.189054 (Simulation time: 21 hr 29 min 34 sec) 
 Total Blocks : 196608 Invalid Blocks : 0 Valid Blocks : 196608
 Total Tags : 491520 Threshold : 12288 Invalid Tags : 196608 Pr0 Tags : 98304 Pr1 Tags : 196608 num_pr0 : 12288
 SAE Count : 0
 Inter-Core Inteference in Data Store : 1777227
Heartbeat CPU 5 instructions: 220000000 cycles: 221053694 heartbeat IPC: 0.188833 cumulative IPC: 0.189395 (Simulation time: 21 hr 29 min 37 sec) 
 Total Blocks : 196608 Invalid Blocks : 0 Valid Blocks : 196608
 Total Tags : 491520 Threshold : 12288 Invalid Tags : 196608 Pr0 Tags : 98304 Pr1 Tags : 196608 num_pr0 : 12288
 SAE Count : 0
 Inter-Core Inteference in Data Store : 1777579
Heartbeat CPU 7 instructions: 220000000 cycles: 221417141 heartbeat IPC: 0.188821 cumulative IPC: 0.189394 (Simulation time: 21 hr 30 min 17 sec) 
 Total Blocks : 196608 Invalid Blocks : 0 Valid Blocks : 196608
 Total Tags : 491520 Threshold : 12288 Invalid Tags : 196608 Pr0 Tags : 98304 Pr1 Tags : 196608 num_pr0 : 12288
 SAE Count : 0
 Inter-Core Inteference in Data Store : 1783478
Heartbeat CPU 6 instructions: 220000000 cycles: 221515271 heartbeat IPC: 0.188603 cumulative IPC: 0.189166 (Simulation time: 21 hr 30 min 27 sec) 
 Total Blocks : 196608 Invalid Blocks : 0 Valid Blocks : 196608
 Total Tags : 491520 Threshold : 12288 Invalid Tags : 196608 Pr0 Tags : 98304 Pr1 Tags : 196608 num_pr0 : 12288
 SAE Count : 0
 Inter-Core Inteference in Data Store : 1785074
Heartbeat CPU 0 instructions: 230000001 cycles: 273403719 heartbeat IPC: 0.188299 cumulative IPC: 0.188818 (Simulation time: 23 hr 1 min 37 sec) 
 Total Blocks : 196608 Invalid Blocks : 0 Valid Blocks : 196608
 Total Tags : 491520 Threshold : 12288 Invalid Tags : 196608 Pr0 Tags : 98304 Pr1 Tags : 196608 num_pr0 : 12288
 SAE Count : 0
 Inter-Core Inteference in Data Store : 2627910
Heartbeat CPU 1 instructions: 230000001 cycles: 273588408 heartbeat IPC: 0.189022 cumulative IPC: 0.188911 (Simulation time: 23 hr 1 min 57 sec) 
 Total Blocks : 196608 Invalid Blocks : 0 Valid Blocks : 196608
 Total Tags : 491520 Threshold : 12288 Invalid Tags : 196609 Pr0 Tags : 98303 Pr1 Tags : 196608 num_pr0 : 12288
 SAE Count : 0
 Inter-Core Inteference in Data Store : 2630952
Heartbeat CPU 3 instructions: 230000001 cycles: 273843501 heartbeat IPC: 0.188802 cumulative IPC: 0.18912 (Simulation time: 23 hr 2 min 25 sec) 
 Total Blocks : 196608 Invalid Blocks : 0 Valid Blocks : 196608
 Total Tags : 491520 Threshold : 12288 Invalid Tags : 196608 Pr0 Tags : 98304 Pr1 Tags : 196608 num_pr0 : 12288
 SAE Count : 0
 Inter-Core Inteference in Data Store : 2635061
Heartbeat CPU 2 instructions: 230000001 cycles: 273885837 heartbeat IPC: 0.188366 cumulative IPC: 0.188818 (Simulation time: 23 hr 2 min 30 sec) 
 Total Blocks : 196608 Invalid Blocks : 0 Valid Blocks : 196608
 Total Tags : 491520 Threshold : 12288 Invalid Tags : 196608 Pr0 Tags : 98304 Pr1 Tags : 196608 num_pr0 : 12288
 SAE Count : 0
 Inter-Core Inteference in Data Store : 2635789
Heartbeat CPU 5 instructions: 230000001 cycles: 273995680 heartbeat IPC: 0.188886 cumulative IPC: 0.189224 (Simulation time: 23 hr 2 min 43 sec) 
 Total Blocks : 196608 Invalid Blocks : 0 Valid Blocks : 196608
 Total Tags : 491520 Threshold : 12288 Invalid Tags : 196608 Pr0 Tags : 98304 Pr1 Tags : 196608 num_pr0 : 12288
 SAE Count : 0
 Inter-Core Inteference in Data Store : 2637600
Heartbeat CPU 4 instructions: 230000001 cycles: 274133253 heartbeat IPC: 0.188318 cumulative IPC: 0.188807 (Simulation time: 23 hr 2 min 59 sec) 
 Total Blocks : 196608 Invalid Blocks : 0 Valid Blocks : 196608
 Total Tags : 491520 Threshold : 12288 Invalid Tags : 196608 Pr0 Tags : 98304 Pr1 Tags : 196608 num_pr0 : 12288
 SAE Count : 0
 Inter-Core Inteference in Data Store : 2639874
Heartbeat CPU 7 instructions: 230000001 cycles: 274420167 heartbeat IPC: 0.188668 cumulative IPC: 0.189152 (Simulation time: 23 hr 3 min 33 sec) 
 Total Blocks : 196608 Invalid Blocks : 0 Valid Blocks : 196608
 Total Tags : 491520 Threshold : 12288 Invalid Tags : 196608 Pr0 Tags : 98304 Pr1 Tags : 196608 num_pr0 : 12288
 SAE Count : 0
 Inter-Core Inteference in Data Store : 2644570
Heartbeat CPU 6 instructions: 230000001 cycles: 274538127 heartbeat IPC: 0.188598 cumulative IPC: 0.188976 (Simulation time: 23 hr 3 min 49 sec) 
 Total Blocks : 196608 Invalid Blocks : 0 Valid Blocks : 196608
 Total Tags : 491520 Threshold : 12288 Invalid Tags : 196608 Pr0 Tags : 98304 Pr1 Tags : 196608 num_pr0 : 12288
 SAE Count : 0
 Inter-Core Inteference in Data Store : 2646478
Heartbeat CPU 0 instructions: 240000001 cycles: 326564953 heartbeat IPC: 0.188107 cumulative IPC: 0.188638 (Simulation time: 24 hr 28 min 20 sec) 
 Total Blocks : 196608 Invalid Blocks : 0 Valid Blocks : 196608
 Total Tags : 491520 Threshold : 12288 Invalid Tags : 196609 Pr0 Tags : 98303 Pr1 Tags : 196608 num_pr0 : 12287
 SAE Count : 0
 Inter-Core Inteference in Data Store : 3475422
Heartbeat CPU 1 instructions: 240000001 cycles: 326697206 heartbeat IPC: 0.188293 cumulative IPC: 0.188755 (Simulation time: 24 hr 28 min 33 sec) 
 Total Blocks : 196608 Invalid Blocks : 0 Valid Blocks : 196608
 Total Tags : 491520 Threshold : 12288 Invalid Tags : 196609 Pr0 Tags : 98303 Pr1 Tags : 196608 num_pr0 : 12288
 SAE Count : 0
 Inter-Core Inteference in Data Store : 3477431
Heartbeat CPU 3 instructions: 240000001 cycles: 326961832 heartbeat IPC: 0.188259 cumulative IPC: 0.188904 (Simulation time: 24 hr 28 min 56 sec) 
 Total Blocks : 196608 Invalid Blocks : 0 Valid Blocks : 196608
 Total Tags : 491520 Threshold : 12288 Invalid Tags : 196609 Pr0 Tags : 98303 Pr1 Tags : 196608 num_pr0 : 12287
 SAE Count : 0
 Inter-Core Inteference in Data Store : 3481786
Heartbeat CPU 2 instructions: 240000001 cycles: 326996794 heartbeat IPC: 0.188285 cumulative IPC: 0.188684 (Simulation time: 24 hr 29 min 0 sec) 
 Total Blocks : 196608 Invalid Blocks : 0 Valid Blocks : 196608
 Total Tags : 491520 Threshold : 12288 Invalid Tags : 196608 Pr0 Tags : 98304 Pr1 Tags : 196608 num_pr0 : 12288
 SAE Count : 0
 Inter-Core Inteference in Data Store : 3482328
Heartbeat CPU 5 instructions: 240000001 cycles: 327059401 heartbeat IPC: 0.188453 cumulative IPC: 0.189031 (Simulation time: 24 hr 29 min 7 sec) 
 Total Blocks : 196608 Invalid Blocks : 0 Valid Blocks : 196608
 Total Tags : 491520 Threshold : 12288 Invalid Tags : 196608 Pr0 Tags : 98304 Pr1 Tags : 196608 num_pr0 : 12288
 SAE Count : 0
 Inter-Core Inteference in Data Store : 3483327
Heartbeat CPU 4 instructions: 240000001 cycles: 327161412 heartbeat IPC: 0.188579 cumulative IPC: 0.18875 (Simulation time: 24 hr 29 min 17 sec) 
 Total Blocks : 196608 Invalid Blocks : 0 Valid Blocks : 196608
 Total Tags : 491520 Threshold : 12288 Invalid Tags : 196609 Pr0 Tags : 98303 Pr1 Tags : 196608 num_pr0 : 12288
 SAE Count : 0
 Inter-Core Inteference in Data Store : 3484977
Heartbeat CPU 7 instructions: 240000001 cycles: 327489826 heartbeat IPC: 0.188432 cumulative IPC: 0.188971 (Simulation time: 24 hr 29 min 49 sec) 
 Total Blocks : 196608 Invalid Blocks : 0 Valid Blocks : 196608
 Total Tags : 491520 Threshold : 12288 Invalid Tags : 196608 Pr0 Tags : 98304 Pr1 Tags : 196608 num_pr0 : 12288
 SAE Count : 0
 Inter-Core Inteference in Data Store : 3490118
Heartbeat CPU 6 instructions: 240000001 cycles: 327718249 heartbeat IPC: 0.18804 cumulative IPC: 0.188741 (Simulation time: 24 hr 30 min 12 sec) 
 Total Blocks : 196608 Invalid Blocks : 0 Valid Blocks : 196608
 Total Tags : 491520 Threshold : 12288 Invalid Tags : 196608 Pr0 Tags : 98304 Pr1 Tags : 196608 num_pr0 : 12288
 SAE Count : 0
 Inter-Core Inteference in Data Store : 3493757
Heartbeat CPU 0 instructions: 250000001 cycles: 379511446 heartbeat IPC: 0.18887 cumulative IPC: 0.188685 (Simulation time: 25 hr 51 min 34 sec) 
 Total Blocks : 196608 Invalid Blocks : 0 Valid Blocks : 196608
 Total Tags : 491520 Threshold : 12288 Invalid Tags : 196608 Pr0 Tags : 98304 Pr1 Tags : 196608 num_pr0 : 12288
 SAE Count : 0
 Inter-Core Inteference in Data Store : 4299640
Heartbeat CPU 1 instructions: 250000001 cycles: 379643462 heartbeat IPC: 0.188871 cumulative IPC: 0.188779 (Simulation time: 25 hr 51 min 45 sec) 
 Total Blocks : 196608 Invalid Blocks : 0 Valid Blocks : 196608
 Total Tags : 491520 Threshold : 12288 Invalid Tags : 196608 Pr0 Tags : 98304 Pr1 Tags : 196608 num_pr0 : 12288
 SAE Count : 0
 Inter-Core Inteference in Data Store : 4301711
Heartbeat CPU 2 instructions: 250000001 cycles: 379820640 heartbeat IPC: 0.189308 cumulative IPC: 0.188809 (Simulation time: 25 hr 52 min 0 sec) 
 Total Blocks : 196608 Invalid Blocks : 0 Valid Blocks : 196608
 Total Tags : 491520 Threshold : 12288 Invalid Tags : 196610 Pr0 Tags : 98302 Pr1 Tags : 196608 num_pr0 : 12288
 SAE Count : 0
 Inter-Core Inteference in Data Store : 4304469
Heartbeat CPU 3 instructions: 250000001 cycles: 379845532 heartbeat IPC: 0.189094 cumulative IPC: 0.188942 (Simulation time: 25 hr 52 min 1 sec) 
 Total Blocks : 196608 Invalid Blocks : 0 Valid Blocks : 196608
 Total Tags : 491520 Threshold : 12288 Invalid Tags : 196608 Pr0 Tags : 98304 Pr1 Tags : 196608 num_pr0 : 12288
 SAE Count : 0
 Inter-Core Inteference in Data Store : 4304876
Heartbeat CPU 5 instructions: 250000001 cycles: 380022771 heartbeat IPC: 0.18881 cumulative IPC: 0.188986 (Simulation time: 25 hr 52 min 17 sec) 
 Total Blocks : 196608 Invalid Blocks : 0 Valid Blocks : 196608
 Total Tags : 491520 Threshold : 12288 Invalid Tags : 196608 Pr0 Tags : 98304 Pr1 Tags : 196608 num_pr0 : 12288
 SAE Count : 0
 Inter-Core Inteference in Data Store : 4307674
Heartbeat CPU 4 instructions: 250000001 cycles: 380118196 heartbeat IPC: 0.188833 cumulative IPC: 0.188767 (Simulation time: 25 hr 52 min 26 sec) 
 Total Blocks : 196608 Invalid Blocks : 0 Valid Blocks : 196608
 Total Tags : 491520 Threshold : 12288 Invalid Tags : 196609 Pr0 Tags : 98303 Pr1 Tags : 196608 num_pr0 : 12287
 SAE Count : 0
 Inter-Core Inteference in Data Store : 4309182
Heartbeat CPU 7 instructions: 250000001 cycles: 380592975 heartbeat IPC: 0.188313 cumulative IPC: 0.188839 (Simulation time: 25 hr 53 min 16 sec) 
 Total Blocks : 196608 Invalid Blocks : 0 Valid Blocks : 196608
[...]
LLC4 LOAD      ACCESS: 2136341  HIT: 1286984  MISS: 849357  HIT %: 60.2424  MISS %: 39.7576  AVERAGE MISS PENALTY: 317.304
LLC4 RFO       ACCESS:  1823  HIT:    49  MISS:  1774  HIT %: 2.68788  MISS %: 97.3121  AVERAGE MISS PENALTY: 301.24
LLC4 PREFETCH  ACCESS: 275629  HIT: 16153  MISS: 259476  HIT %: 5.86041  MISS %: 94.1396  AVERAGE MISS PENALTY: 305.671
LLC4 WRITEBACK ACCESS: 69225  HIT:  9600  MISS: 59625  HIT %: 13.8678  MISS %: 86.1322  AVERAGE MISS PENALTY: 0
LLC4 PREFETCH  REQUESTED:     0  ISSUED:     0  USEFUL: 29748  USELESS: 21504
 USEFUL LOAD PREFETCHES:      29748 PREFETCH ISSUED TO LOWER LEVEL:    2076881  ACCURACY: 1.43234
 TIMELY PREFETCHES:      29748 LATE PREFETCHES: 0 DROPPED PREFETCHES: 0
LLC4 AVERAGE MISS LATENCY: 298.533 cycles

LLC4 Set Associative Eviction Count : 0
LLC4 Priority 0 entries : 12288
LLC4 Inter-Core Interference : 1910533
LLC5 TOTAL     ACCESS: 2463113  HIT: 1294407  MISS: 1168706  HIT %: 52.5517  MISS %: 47.4483  AVERAGE MISS PENALTY: 298.438
LLC5 LOAD      ACCESS: 2115970  HIT: 1267985  MISS: 847985  HIT %: 59.9245  MISS %: 40.0755  AVERAGE MISS PENALTY: 317.382
LLC5 RFO       ACCESS:  1820  HIT:    41  MISS:  1779  HIT %: 2.25275  MISS %: 97.7473  AVERAGE MISS PENALTY: 299.895
LLC5 PREFETCH  ACCESS: 275679  HIT: 16682  MISS: 258997  HIT %: 6.05124  MISS %: 93.9488  AVERAGE MISS PENALTY: 305.479
LLC5 WRITEBACK ACCESS: 69644  HIT:  9699  MISS: 59945  HIT %: 13.9265  MISS %: 86.0735  AVERAGE MISS PENALTY: 0
LLC5 PREFETCH  REQUESTED:     0  ISSUED:     0  USEFUL: 29724  USELESS: 21485
 USEFUL LOAD PREFETCHES:      29724 PREFETCH ISSUED TO LOWER LEVEL:    2073626  ACCURACY: 1.43343
 TIMELY PREFETCHES:      29724 LATE PREFETCHES: 0 DROPPED PREFETCHES: 0
LLC5 AVERAGE MISS LATENCY: 298.438 cycles

LLC5 Set Associative Eviction Count : 0
LLC5 Priority 0 entries : 12288
LLC5 Inter-Core Interference : 1911327
LLC6 TOTAL     ACCESS: 2459803  HIT: 1289075  MISS: 1170728  HIT %: 52.4056  MISS %: 47.5944  AVERAGE MISS PENALTY: 302.348
LLC6 LOAD      ACCESS: 2112956  HIT: 1262730  MISS: 850226  HIT %: 59.7613  MISS %: 40.2387  AVERAGE MISS PENALTY: 317.47
LLC6 RFO       ACCESS:  1830  HIT:    58  MISS:  1772  HIT %: 3.1694  MISS %: 96.8306  AVERAGE MISS PENALTY: 311.717
LLC6 PREFETCH  ACCESS: 276294  HIT: 16885  MISS: 259409  HIT %: 6.11124  MISS %: 93.8888  AVERAGE MISS PENALTY: 321.863
LLC6 WRITEBACK ACCESS: 68723  HIT:  9402  MISS: 59321  HIT %: 13.681  MISS %: 86.319  AVERAGE MISS PENALTY: 0
LLC6 PREFETCH  REQUESTED:     0  ISSUED:     0  USEFUL: 30088  USELESS: 22339
 USEFUL LOAD PREFETCHES:      30088 PREFETCH ISSUED TO LOWER LEVEL:    2076281  ACCURACY: 1.44913
 TIMELY PREFETCHES:      30088 LATE PREFETCHES: 0 DROPPED PREFETCHES: 0
LLC6 AVERAGE MISS LATENCY: 302.348 cycles

LLC6 Set Associative Eviction Count : 0
LLC6 Priority 0 entries : 12288
LLC6 Inter-Core Interference : 1913189
LLC7 TOTAL     ACCESS: 2509295  HIT: 1342188  MISS: 1167107  HIT %: 53.4886  MISS %: 46.5114  AVERAGE MISS PENALTY: 302.535
LLC7 LOAD      ACCESS: 2162762  HIT: 1316054  MISS: 846708  HIT %: 60.8506  MISS %: 39.1494  AVERAGE MISS PENALTY: 317.73
LLC7 RFO       ACCESS:  1835  HIT:    54  MISS:  1781  HIT %: 2.94278  MISS %: 97.0572  AVERAGE MISS PENALTY: 314.261
LLC7 PREFETCH  ACCESS: 276106  HIT: 16723  MISS: 259383  HIT %: 6.05673  MISS %: 93.9433  AVERAGE MISS PENALTY: 321.941
LLC7 WRITEBACK ACCESS: 68592  HIT:  9357  MISS: 59235  HIT %: 13.6415  MISS %: 86.3585  AVERAGE MISS PENALTY: 0
LLC7 PREFETCH  REQUESTED:     0  ISSUED:     0  USEFUL: 30119  USELESS: 22071
 USEFUL LOAD PREFETCHES:      30119 PREFETCH ISSUED TO LOWER LEVEL:    2074031  ACCURACY: 1.4522
 TIMELY PREFETCHES:      30119 LATE PREFETCHES: 0 DROPPED PREFETCHES: 0
LLC7 AVERAGE MISS LATENCY: 302.535 cycles

LLC7 Set Associative Eviction Count : 0
LLC7 Priority 0 entries : 12288
LLC7 Inter-Core Interference : 1902583
ROI Average ROB Stall Cycles:	18.4495
ROI Total ROB Stalls Cycles:	1148468419
ROI TOTAL ROB counter      :	62249344
ROI Average Load ROB Stall Cycles:	164.361
ROI Total Load ROB Stalls Cycle  :	757178837
ROI Total Load ROB stalls Counter:	4606808
Major fault: 0 Minor fault: 37424

CPU 7 cumulative IPC: 0.169467 instructions: 200000002 cycles: 1180173731
ITLB TOTAL     ACCESS: 41032060  HIT: 41032060  MISS:     0  HIT %:   100  MISS %:     0  AVERAGE MISS PENALTY: 0
ITLB LOAD      ACCESS: 41032060  HIT: 41032060  MISS:     0  HIT %:   100  MISS %:     0  AVERAGE MISS PENALTY: 0
ITLB RFO       ACCESS:     0  HIT:     0  MISS:     0  HIT %:     0  MISS %:     0  AVERAGE MISS PENALTY: 0
ITLB PREFETCH  ACCESS:     0  HIT:     0  MISS:     0  HIT %:     0  MISS %:     0  AVERAGE MISS PENALTY: 0
ITLB WRITEBACK ACCESS:     0  HIT:     0  MISS:     0  HIT %:     0  MISS %:     0  AVERAGE MISS PENALTY: 0
ITLB PREFETCH  REQUESTED:     0  ISSUED:     0  USEFUL:     0  USELESS:     0
 USEFUL LOAD PREFETCHES:          0 PREFETCH ISSUED TO LOWER LEVEL:          0  ACCURACY: -nan
 TIMELY PREFETCHES:          0 LATE PREFETCHES: 0 DROPPED PREFETCHES: 0
ITLB AVERAGE MISS LATENCY: -nan cycles

ITLB Set Associative Eviction Count : 0
ITLB Priority 0 entries : 0
ITLB Inter-Core Interference : 0
DTLB TOTAL     ACCESS: 35122390  HIT: 20040177  MISS: 15082213  HIT %: 57.0581  MISS %: 42.9419  AVERAGE MISS PENALTY: 17.2186
DTLB LOAD      ACCESS: 34061664  HIT: 19479973  MISS: 14581691  HIT %: 57.1903  MISS %: 42.8097  AVERAGE MISS PENALTY: 15.1782
DTLB RFO       ACCESS: 1060726  HIT: 560204  MISS: 500522  HIT %: 52.8133  MISS %: 47.1867  AVERAGE MISS PENALTY: 76.662
DTLB PREFETCH  ACCESS:     0  HIT:     0  MISS:     0  HIT %:     0  MISS %:     0  AVERAGE MISS PENALTY: 0
DTLB WRITEBACK ACCESS:     0  HIT:     0  MISS:     0  HIT %:     0  MISS %:     0  AVERAGE MISS PENALTY: 0
DTLB PREFETCH  REQUESTED:     0  ISSUED:     0  USEFUL:     0  USELESS:     0
 USEFUL LOAD PREFETCHES:          0 PREFETCH ISSUED TO LOWER LEVEL:          0  ACCURACY: -nan
 TIMELY PREFETCHES:          0 LATE PREFETCHES: 0 DROPPED PREFETCHES: 0
DTLB AVERAGE MISS LATENCY: 17.2186 cycles

DTLB Set Associative Eviction Count : 0
DTLB Priority 0 entries : 0
DTLB Inter-Core Interference : 0
STLB TOTAL     ACCESS: 15082213  HIT: 14350408  MISS: 731805  HIT %: 95.1479  MISS %: 4.85211  AVERAGE MISS PENALTY: 100
STLB LOAD      ACCESS: 14581691  HIT: 14140327  MISS: 441364  HIT %: 96.9732  MISS %: 3.02684  AVERAGE MISS PENALTY: 100
STLB RFO       ACCESS: 500522  HIT: 210081  MISS: 290441  HIT %: 41.9724  MISS %: 58.0276  AVERAGE MISS PENALTY: 100
STLB PREFETCH  ACCESS:     0  HIT:     0  MISS:     0  HIT %:     0  MISS %:     0  AVERAGE MISS PENALTY: 0
STLB WRITEBACK ACCESS:     0  HIT:     0  MISS:     0  HIT %:     0  MISS %:     0  AVERAGE MISS PENALTY: 0
STLB PREFETCH  REQUESTED:     0  ISSUED:     0  USEFUL:     0  USELESS:     0
 USEFUL LOAD PREFETCHES:          0 PREFETCH ISSUED TO LOWER LEVEL:          0  ACCURACY: -nan
 TIMELY PREFETCHES:          0 LATE PREFETCHES: 0 DROPPED PREFETCHES: 0
STLB AVERAGE MISS LATENCY: 100 cycles

STLB Set Associative Eviction Count : 0
STLB Priority 0 entries : 0
STLB Inter-Core Interference : 0
L1D TOTAL     ACCESS: 35150269  HIT: 16066205  MISS: 19084064  HIT %: 45.7072  MISS %: 54.2928  AVERAGE MISS PENALTY: 1.04677e+06
L1D LOAD      ACCESS: 31544142  HIT: 14092979  MISS: 17451163  HIT %: 44.677  MISS %: 55.323  AVERAGE MISS PENALTY: 1.1447e+06
L1D RFO       ACCESS: 1062852  HIT: 1045488  MISS: 17364  HIT %: 98.3663  MISS %: 1.63372  AVERAGE MISS PENALTY: 298.48
L1D PREFETCH  ACCESS: 2543275  HIT: 927738  MISS: 1615537  HIT %: 36.4781  MISS %: 63.5219  AVERAGE MISS PENALTY: 145.295
L1D WRITEBACK ACCESS:     0  HIT:     0  MISS:     0  HIT %:     0  MISS %:     0  AVERAGE MISS PENALTY: 0
L1D PREFETCH  REQUESTED: 2690631  ISSUED: 2690599  USEFUL: 938684  USELESS: 676861
 USEFUL LOAD PREFETCHES:     938684 PREFETCH ISSUED TO LOWER LEVEL:    2033690  ACCURACY: 46.1567
 TIMELY PREFETCHES:     938684 LATE PREFETCHES: 70655 DROPPED PREFETCHES: 32
L1D AVERAGE MISS LATENCY: 174.016 cycles

L1D Set Associative Eviction Count : 0
L1D Priority 0 entries : 0
L1D Inter-Core Interference : 0
L1I TOTAL     ACCESS: 65017665  HIT: 65017665  MISS:     0  HIT %:   100  MISS %:     0  AVERAGE MISS PENALTY: 0
L1I LOAD      ACCESS: 65017665  HIT: 65017665  MISS:     0  HIT %:   100  MISS %:     0  AVERAGE MISS PENALTY: 0
L1I RFO       ACCESS:     0  HIT:     0  MISS:     0  HIT %:     0  MISS %:     0  AVERAGE MISS PENALTY: 0
L1I PREFETCH  ACCESS:     0  HIT:     0  MISS:     0  HIT %:     0  MISS %:     0  AVERAGE MISS PENALTY: 0
L1I WRITEBACK ACCESS:     0  HIT:     0  MISS:     0  HIT %:     0  MISS %:     0  AVERAGE MISS PENALTY: 0
L1I PREFETCH  REQUESTED:     0  ISSUED:     0  USEFUL:     0  USELESS:     0
 USEFUL LOAD PREFETCHES:          0 PREFETCH ISSUED TO LOWER LEVEL:          0  ACCURACY: -nan
 TIMELY PREFETCHES:          0 LATE PREFETCHES: 0 DROPPED PREFETCHES: 0
L1I AVERAGE MISS LATENCY: -nan cycles

L1I Set Associative Eviction Count : 0
L1I Priority 0 entries : 0
L1I Inter-Core Interference : 0
L2C TOTAL     ACCESS: 21960002  HIT: 2829088  MISS: 19130914  HIT %: 12.8829  MISS %: 87.1171  AVERAGE MISS PENALTY: 518704
L2C LOAD      ACCESS: 17450487  HIT: 483617  MISS: 16966870  HIT %: 2.77137  MISS %: 97.2286  AVERAGE MISS PENALTY: 584820
L2C RFO       ACCESS: 17364  HIT:  3074  MISS: 14290  HIT %: 17.7033  MISS %: 82.2967  AVERAGE MISS PENALTY: 343.439
L2C PREFETCH  ACCESS: 3940492  HIT: 1803775  MISS: 2136717  HIT %: 45.7754  MISS %: 54.2246  AVERAGE MISS PENALTY: 333.428
L2C WRITEBACK ACCESS: 551659  HIT: 538622  MISS: 13037  HIT %: 97.6368  MISS %: 2.36324  AVERAGE MISS PENALTY: 0
L2C PREFETCH  REQUESTED: 3298029  ISSUED: 3297407  USEFUL: 61245  USELESS: 2078183
 USEFUL LOAD PREFETCHES:      61245 PREFETCH ISSUED TO LOWER LEVEL:    2330759  ACCURACY: 2.62768
 TIMELY PREFETCHES:      61245 LATE PREFETCHES: 91857 DROPPED PREFETCHES: 622
L2C AVERAGE MISS LATENCY: 183.596 cycles

L2C Set Associative Eviction Count : 0
L2C Priority 0 entries : 0
L2C Inter-Core Interference : 0
LLC0 TOTAL     ACCESS: 2428372  HIT: 1285019  MISS: 1143353  HIT %: 52.9169  MISS %: 47.0831  AVERAGE MISS PENALTY: 294.169
LLC0 LOAD      ACCESS: 2116930  HIT: 1261546  MISS: 855384  HIT %: 59.5932  MISS %: 40.4068  AVERAGE MISS PENALTY: 312.278
LLC0 RFO       ACCESS:  1783  HIT:     7  MISS:  1776  HIT %: 0.392597  MISS %: 99.6074  AVERAGE MISS PENALTY: 300.304
LLC0 PREFETCH  ACCESS: 242052  HIT: 14908  MISS: 227144  HIT %: 6.15901  MISS %: 93.841  AVERAGE MISS PENALTY: 302.4
LLC0 WRITEBACK ACCESS: 67607  HIT:  8558  MISS: 59049  HIT %: 12.6585  MISS %: 87.3415  AVERAGE MISS PENALTY: 0
LLC0 PREFETCH  REQUESTED:     0  ISSUED:     0  USEFUL: 27478  USELESS: 19743
 USEFUL LOAD PREFETCHES:      27478 PREFETCH ISSUED TO LOWER LEVEL:    1819507  ACCURACY: 1.51019
 TIMELY PREFETCHES:      27478 LATE PREFETCHES: 0 DROPPED PREFETCHES: 0
LLC0 AVERAGE MISS LATENCY: 294.169 cycles

LLC0 Set Associative Eviction Count : 0
LLC0 Priority 0 entries : 12288
LLC0 Inter-Core Interference : 1883988
LLC1 TOTAL     ACCESS: 2470702  HIT: 1321546  MISS: 1149156  HIT %: 53.4887  MISS %: 46.5113  AVERAGE MISS PENALTY: 296.122
LLC1 LOAD      ACCESS: 2137628  HIT: 1297502  MISS: 840126  HIT %: 60.6982  MISS %: 39.3018  AVERAGE MISS PENALTY: 314.757
LLC1 RFO       ACCESS:  1777  HIT:     8  MISS:  1769  HIT %: 0.450197  MISS %: 99.5498  AVERAGE MISS PENALTY: 294.938
LLC1 PREFETCH  ACCESS: 263260  HIT: 15152  MISS: 248108  HIT %: 5.75553  MISS %: 94.2445  AVERAGE MISS PENALTY: 303.633
LLC1 WRITEBACK ACCESS: 68037  HIT:  8884  MISS: 59153  HIT %: 13.0576  MISS %: 86.9424  AVERAGE MISS PENALTY: 0
LLC1 PREFETCH  REQUESTED:     0  ISSUED:     0  USEFUL: 28742  USELESS: 20568
 USEFUL LOAD PREFETCHES:      28742 PREFETCH ISSUED TO LOWER LEVEL:    1987780  ACCURACY: 1.44593
 TIMELY PREFETCHES:      28742 LATE PREFETCHES: 0 DROPPED PREFETCHES: 0
LLC1 AVERAGE MISS LATENCY: 296.122 cycles

LLC1 Set Associative Eviction Count : 0
LLC1 Priority 0 entries : 12288
LLC1 Inter-Core Interference : 1902689
LLC2 TOTAL     ACCESS: 2434896  HIT: 1277529  MISS: 1157367  HIT %: 52.4675  MISS %: 47.5325  AVERAGE MISS PENALTY: 298.33
LLC2 LOAD      ACCESS: 2096898  HIT: 1253433  MISS: 843465  HIT %: 59.7756  MISS %: 40.2244  AVERAGE MISS PENALTY: 312.787
LLC2 RFO       ACCESS:  1789  HIT:    13  MISS:  1776  HIT %: 0.726663  MISS %: 99.2733  AVERAGE MISS PENALTY: 310.193
LLC2 PREFETCH  ACCESS: 268245  HIT: 15405  MISS: 252840  HIT %: 5.74288  MISS %: 94.2571  AVERAGE MISS PENALTY: 319.972
LLC2 WRITEBACK ACCESS: 67964  HIT:  8678  MISS: 59286  HIT %: 12.7685  MISS %: 87.2315  AVERAGE MISS PENALTY: 0
LLC2 PREFETCH  REQUESTED:     0  ISSUED:     0  USEFUL: 28879  USELESS: 21351
 USEFUL LOAD PREFETCHES:      28879 PREFETCH ISSUED TO LOWER LEVEL:    2025412  ACCURACY: 1.42583
 TIMELY PREFETCHES:      28879 LATE PREFETCHES: 0 DROPPED PREFETCHES: 0
LLC2 AVERAGE MISS LATENCY: 298.33 cycles

LLC2 Set Associative Eviction Count : 0
LLC2 Priority 0 entries : 12288
LLC2 Inter-Core Interference : 1905467
LLC3 TOTAL     ACCESS: 2438657  HIT: 1271630  MISS: 1167027  HIT %: 52.1447  MISS %: 47.8553  AVERAGE MISS PENALTY: 300.297
LLC3 LOAD      ACCESS: 2097228  HIT: 1247491  MISS: 849737  HIT %: 59.4829  MISS %: 40.5171  AVERAGE MISS PENALTY: 315.05
LLC3 RFO       ACCESS:  1791  HIT:     9  MISS:  1782  HIT %: 0.502513  MISS %: 99.4975  AVERAGE MISS PENALTY: 301.094
LLC3 PREFETCH  ACCESS: 271273  HIT: 15467  MISS: 255806  HIT %: 5.70164  MISS %: 94.2984  AVERAGE MISS PENALTY: 321.367
LLC3 WRITEBACK ACCESS: 68365  HIT:  8663  MISS: 59702  HIT %: 12.6717  MISS %: 87.3283  AVERAGE MISS PENALTY: 0
LLC3 PREFETCH  REQUESTED:     0  ISSUED:     0  USEFUL: 28682  USELESS: 21314
 USEFUL LOAD PREFETCHES:      28682 PREFETCH ISSUED TO LOWER LEVEL:    2050260  ACCURACY: 1.39894
 TIMELY PREFETCHES:      28682 LATE PREFETCHES: 0 DROPPED PREFETCHES: 0
LLC3 AVERAGE MISS LATENCY: 300.297 cycles

LLC3 Set Associative Eviction Count : 0
LLC3 Priority 0 entries : 12288
LLC3 Inter-Core Interference : 1906908
LLC4 TOTAL     ACCESS: 2476718  HIT: 1307405  MISS: 1169313  HIT %: 52.7878  MISS %: 47.2122  AVERAGE MISS PENALTY: 298.572
LLC4 LOAD      ACCESS: 2131390  HIT: 1282860  MISS: 848530  HIT %: 60.1889  MISS %: 39.8111  AVERAGE MISS PENALTY: 317.295
LLC4 RFO       ACCESS:  1785  HIT:    10  MISS:  1775  HIT %: 0.560224  MISS %: 99.4398  AVERAGE MISS PENALTY: 301.9
LLC4 PREFETCH  ACCESS: 274911  HIT: 15608  MISS: 259303  HIT %: 5.67747  MISS %: 94.3225  AVERAGE MISS PENALTY: 306.026
LLC4 WRITEBACK ACCESS: 68632  HIT:  8927  MISS: 59705  HIT %: 13.0071  MISS %: 86.9929  AVERAGE MISS PENALTY: 0
LLC4 PREFETCH  REQUESTED:     0  ISSUED:     0  USEFUL: 29748  USELESS: 21504
 USEFUL LOAD PREFETCHES:      29748 PREFETCH ISSUED TO LOWER LEVEL:    2076881  ACCURACY: 1.43234
 TIMELY PREFETCHES:      29748 LATE PREFETCHES: 0 DROPPED PREFETCHES: 0
LLC4 AVERAGE MISS LATENCY: 298.572 cycles

LLC4 Set Associative Eviction Count : 0
LLC4 Priority 0 entries : 12288
LLC4 Inter-Core Interference : 1910533
LLC5 TOTAL     ACCESS: 2457454  HIT: 1288024  MISS: 1169430  HIT %: 52.4129  MISS %: 47.5871  AVERAGE MISS PENALTY: 298.629
LLC5 LOAD      ACCESS: 2111519  HIT: 1262972  MISS: 848547  HIT %: 59.8134  MISS %: 40.1866  AVERAGE MISS PENALTY: 317.448
LLC5 RFO       ACCESS:  1787  HIT:     5  MISS:  1782  HIT %: 0.279799  MISS %: 99.7202  AVERAGE MISS PENALTY: 307.163
LLC5 PREFETCH  ACCESS: 275084  HIT: 16141  MISS: 258943  HIT %: 5.86766  MISS %: 94.1323  AVERAGE MISS PENALTY: 306.281
LLC5 WRITEBACK ACCESS: 69064  HIT:  8906  MISS: 60158  HIT %: 12.8953  MISS %: 87.1047  AVERAGE MISS PENALTY: 0
LLC5 PREFETCH  REQUESTED:     0  ISSUED:     0  USEFUL: 29724  USELESS: 21485
 USEFUL LOAD PREFETCHES:      29724 PREFETCH ISSUED TO LOWER LEVEL:    2073626  ACCURACY: 1.43343
 TIMELY PREFETCHES:      29724 LATE PREFETCHES: 0 DROPPED PREFETCHES: 0
LLC5 AVERAGE MISS LATENCY: 298.629 cycles

LLC5 Set Associative Eviction Count : 0
LLC5 Priority 0 entries : 12288
LLC5 Inter-Core Interference : 1911327
LLC6 TOTAL     ACCESS: 2453816  HIT: 1281820  MISS: 1171996  HIT %: 52.2378  MISS %: 47.7622  AVERAGE MISS PENALTY: 302.778
LLC6 LOAD      ACCESS: 2108240  HIT: 1256648  MISS: 851592  HIT %: 59.6065  MISS %: 40.3935  AVERAGE MISS PENALTY: 317.822
LLC6 RFO       ACCESS:  1788  HIT:    13  MISS:  1775  HIT %: 0.727069  MISS %: 99.2729  AVERAGE MISS PENALTY: 308.492
LLC6 PREFETCH  ACCESS: 275634  HIT: 16482  MISS: 259152  HIT %: 5.97967  MISS %: 94.0203  AVERAGE MISS PENALTY: 322.791
LLC6 WRITEBACK ACCESS: 68154  HIT:  8677  MISS: 59477  HIT %: 12.7315  MISS %: 87.2685  AVERAGE MISS PENALTY: 0
LLC6 PREFETCH  REQUESTED:     0  ISSUED:     0  USEFUL: 30088  USELESS: 22339
 USEFUL LOAD PREFETCHES:      30088 PREFETCH ISSUED TO LOWER LEVEL:    2076281  ACCURACY: 1.44913
 TIMELY PREFETCHES:      30088 LATE PREFETCHES: 0 DROPPED PREFETCHES: 0
LLC6 AVERAGE MISS LATENCY: 302.778 cycles

LLC6 Set Associative Eviction Count : 0
LLC6 Priority 0 entries : 12288
LLC6 Inter-Core Interference : 1913189
LLC7 TOTAL     ACCESS: 2503102  HIT: 1338645  MISS: 1164457  HIT %: 53.4794  MISS %: 46.5206  AVERAGE MISS PENALTY: 302.613
LLC7 LOAD      ACCESS: 2158003  HIT: 1313331  MISS: 844672  HIT %: 60.8586  MISS %: 39.1414  AVERAGE MISS PENALTY: 317.772
LLC7 RFO       ACCESS:  1790  HIT:     7  MISS:  1783  HIT %: 0.391061  MISS %: 99.6089  AVERAGE MISS PENALTY: 310.65
LLC7 PREFETCH  ACCESS: 275292  HIT: 16560  MISS: 258732  HIT %: 6.01543  MISS %: 93.9846  AVERAGE MISS PENALTY: 322.391
LLC7 WRITEBACK ACCESS: 68017  HIT:  8747  MISS: 59270  HIT %: 12.86  MISS %: 87.14  AVERAGE MISS PENALTY: 0
LLC7 PREFETCH  REQUESTED:     0  ISSUED:     0  USEFUL: 30119  USELESS: 22071
 USEFUL LOAD PREFETCHES:      30119 PREFETCH ISSUED TO LOWER LEVEL:    2074031  ACCURACY: 1.4522
 TIMELY PREFETCHES:      30119 LATE PREFETCHES: 0 DROPPED PREFETCHES: 0
LLC7 AVERAGE MISS LATENCY: 302.613 cycles

LLC7 Set Associative Eviction Count : 0
LLC7 Priority 0 entries : 12288
LLC7 Inter-Core Interference : 1902583
ROI Average ROB Stall Cycles:	18.4354
ROI Total ROB Stalls Cycles:	1148472970
ROI TOTAL ROB counter      :	62297059
ROI Average Load ROB Stall Cycles:	164.184
ROI Total Load ROB Stalls Cycle  :	757140227
ROI Total Load ROB stalls Counter:	4611524
Major fault: 0 Minor fault: 37424








Interconnect Stats 
LINK 0 BW : 0LINK 1 BW : 0LINK 2 BW : 0LINK 3 BW : 0LINK 4 BW : 0LINK 5 BW : 0LINK 6 BW : 0LINK 7 BW : 0
DRAM Statistics
 CHANNEL 0
 RQ ROW_BUFFER_HIT: 2523762  ROW_BUFFER_MISS: 32747203
 DBUS_CONGESTED: 18562280
 WQ ROW_BUFFER_HIT: 57647  ROW_BUFFER_MISS: 2019951  FULL:     0

 CHANNEL 1
 RQ ROW_BUFFER_HIT: 2540694  ROW_BUFFER_MISS: 32795325
 DBUS_CONGESTED: 18562280
 WQ ROW_BUFFER_HIT: 58161  ROW_BUFFER_MISS: 2028126  FULL:     0

 AVG_CONGESTED_CYCLE: 5
DRAM PAGES: 2097152
Allocated PAGES: 299392
L2C destructor called
L1D destructor called
L1I destructor called
STLB destructor called
DTLB destructor called
ITLB destructor called
L2C destructor called
L1D destructor called
L1I destructor called
STLB destructor called
DTLB destructor called
ITLB destructor called
L2C destructor called
L1D destructor called
L1I destructor called
STLB destructor called
DTLB destructor called
ITLB destructor called
L2C destructor called
L1D destructor called
L1I destructor called
STLB destructor called
DTLB destructor called
ITLB destructor called
L2C destructor called
L1D destructor called
L1I destructor called
STLB destructor called
DTLB destructor called
ITLB destructor called
L2C destructor called
L1D destructor called
L1I destructor called
STLB destructor called
DTLB destructor called
ITLB destructor called
L2C destructor called
L1D destructor called
L1I destructor called
STLB destructor called
DTLB destructor called
ITLB destructor called
L2C destructor called
L1D destructor called
L1I destructor called
STLB destructor called
DTLB destructor called
ITLB destructor called
