
*** ChampSim Multicore Out-of-Order Simulator ***

Warmup Instructions: 200000000
Simulation Instructions: 200000000
Number of CPUs: 8
threads:1

L1I Configuration:
L1I_SET:64
L1I_WAY:8
L1I_RQ_SIZE:64
L1I_WQ_SIZE:64
L1I_PQ_SIZE:8
L1I_MSHR_SIZE:8

L1D Configuration:
L1D_SET:64
L1D_WAY:12
L1D_RQ_SIZE:64
L1D_WQ_SIZE:64
L1D_PQ_SIZE:8
L1D_MSHR_SIZE:16

L2C Configuration:
L2C_SET:1024
L2C_WAY:8
L2C_RQ_SIZE:32
L2C_WQ_SIZE:32
L2C_PQ_SIZE:16
L2C_MSHR_SIZE:32

LLC Configuration:
LLC_SET:2048
LLC_WAY:12
LLC SLICES:8
LLC_RQ_SIZE:64
LLC_WQ_SIZE:64
LLC_PQ_SIZE:32
LLC_MSHR_SIZE:64

Interconnect OFF
Attacker deprioritize is: OFF
Off-chip DRAM Size: 8192 MB Channels: 2 Width: 64-bit Data Rate: 3200 MT/s
PAGE SIZE in KB: 4.000000 
PAGE SIZE in MB: 0.003906 
PAGE offset in bits: 12 
CEASER-S_LLC:0
MIRAGE : 1
CEASER_LATENCY:3
REMAP : OFF
Partitions : 1
Multi-Step : OFF
BFS : OFF

CPU 0 runs /home/anubhav/gap/bfs-14.trace.gz
CPU 1 runs /home/anubhav/gap/bfs-14.trace.gz
CPU 2 runs /home/anubhav/gap/bfs-14.trace.gz
CPU 3 runs /home/anubhav/gap/bfs-14.trace.gz
CPU 4 runs /home/anubhav/gap/bfs-14.trace.gz
CPU 5 runs /home/anubhav/gap/bfs-14.trace.gz
CPU 6 runs /home/anubhav/gap/bfs-14.trace.gz
CPU 7 runs /home/anubhav/gap/bfs-14.trace.gz
CPU 0 Bimodal branch predictor
Initialize Hawkeye state
Initialize Hawkeye state
Initialize Hawkeye state
Initialize Hawkeye state
Initialize Hawkeye state
Initialize Hawkeye state
Initialize Hawkeye state
Initialize Hawkeye state
CPU 1 Bimodal branch predictor
Initialize Hawkeye state
Initialize Hawkeye state
Initialize Hawkeye state
Initialize Hawkeye state
Initialize Hawkeye state
Initialize Hawkeye state
Initialize Hawkeye state
Initialize Hawkeye state
CPU 2 Bimodal branch predictor
Initialize Hawkeye state
Initialize Hawkeye state
Initialize Hawkeye state
Initialize Hawkeye state
Initialize Hawkeye state
Initialize Hawkeye state
Initialize Hawkeye state
Initialize Hawkeye state
CPU 3 Bimodal branch predictor
Initialize Hawkeye state
Initialize Hawkeye state
Initialize Hawkeye state
Initialize Hawkeye state
Initialize Hawkeye state
Initialize Hawkeye state
Initialize Hawkeye state
Initialize Hawkeye state
CPU 4 Bimodal branch predictor
Initialize Hawkeye state
Initialize Hawkeye state
Initialize Hawkeye state
Initialize Hawkeye state
Initialize Hawkeye state
Initialize Hawkeye state
Initialize Hawkeye state
Initialize Hawkeye state
CPU 5 Bimodal branch predictor
Initialize Hawkeye state
Initialize Hawkeye state
Initialize Hawkeye state
Initialize Hawkeye state
Initialize Hawkeye state
Initialize Hawkeye state
Initialize Hawkeye state
Initialize Hawkeye state
CPU 6 Bimodal branch predictor
Initialize Hawkeye state
Initialize Hawkeye state
Initialize Hawkeye state
Initialize Hawkeye state
Initialize Hawkeye state
Initialize Hawkeye state
Initialize Hawkeye state
Initialize Hawkeye state
CPU 7 Bimodal branch predictor
Initialize Hawkeye state
Initialize Hawkeye state
Initialize Hawkeye state
Initialize Hawkeye state
Initialize Hawkeye state
Initialize Hawkeye state
Initialize Hawkeye state
Initialize Hawkeye state
FILL
Heartbeat CPU 0 instructions: 10000003 cycles: 14730375 heartbeat IPC: 0.67887 cumulative IPC: 0.67887 (Simulation time: 0 hr 24 min 42 sec) 
 Total Blocks : 196608 Invalid Blocks : 14953 Valid Blocks : 181655
 Total Tags : 491520 Threshold : 12288 Invalid Tags : 211561 Pr0 Tags : 98304 Pr1 Tags : 181655 num_pr0 : 12288
 SAE Count : 0
 Inter-Core Inteference in Data Store : 283547
Heartbeat CPU 1 instructions: 10000003 cycles: 14730381 heartbeat IPC: 0.678869 cumulative IPC: 0.678869 (Simulation time: 0 hr 24 min 42 sec) 
 Total Blocks : 196608 Invalid Blocks : 14953 Valid Blocks : 181655
 Total Tags : 491520 Threshold : 12288 Invalid Tags : 211561 Pr0 Tags : 98304 Pr1 Tags : 181655 num_pr0 : 12288
 SAE Count : 0
 Inter-Core Inteference in Data Store : 283547
Heartbeat CPU 2 instructions: 10000003 cycles: 14730385 heartbeat IPC: 0.678869 cumulative IPC: 0.678869 (Simulation time: 0 hr 24 min 42 sec) 
 Total Blocks : 196608 Invalid Blocks : 14953 Valid Blocks : 181655
 Total Tags : 491520 Threshold : 12288 Invalid Tags : 211561 Pr0 Tags : 98304 Pr1 Tags : 181655 num_pr0 : 12288
 SAE Count : 0
 Inter-Core Inteference in Data Store : 283547
Heartbeat CPU 3 instructions: 10000003 cycles: 14730388 heartbeat IPC: 0.678869 cumulative IPC: 0.678869 (Simulation time: 0 hr 24 min 42 sec) 
 Total Blocks : 196608 Invalid Blocks : 14953 Valid Blocks : 181655
 Total Tags : 491520 Threshold : 12288 Invalid Tags : 211561 Pr0 Tags : 98304 Pr1 Tags : 181655 num_pr0 : 12288
 SAE Count : 0
 Inter-Core Inteference in Data Store : 283547
Heartbeat CPU 4 instructions: 10000003 cycles: 14730391 heartbeat IPC: 0.678869 cumulative IPC: 0.678869 (Simulation time: 0 hr 24 min 42 sec) 
 Total Blocks : 196608 Invalid Blocks : 14953 Valid Blocks : 181655
 Total Tags : 491520 Threshold : 12288 Invalid Tags : 211561 Pr0 Tags : 98304 Pr1 Tags : 181655 num_pr0 : 12288
 SAE Count : 0
 Inter-Core Inteference in Data Store : 283547
Heartbeat CPU 5 instructions: 10000003 cycles: 14730394 heartbeat IPC: 0.678869 cumulative IPC: 0.678869 (Simulation time: 0 hr 24 min 42 sec) 
 Total Blocks : 196608 Invalid Blocks : 14953 Valid Blocks : 181655
 Total Tags : 491520 Threshold : 12288 Invalid Tags : 211561 Pr0 Tags : 98304 Pr1 Tags : 181655 num_pr0 : 12288
 SAE Count : 0
 Inter-Core Inteference in Data Store : 283547
Heartbeat CPU 6 instructions: 10000003 cycles: 14730397 heartbeat IPC: 0.678869 cumulative IPC: 0.678869 (Simulation time: 0 hr 24 min 42 sec) 
 Total Blocks : 196608 Invalid Blocks : 14953 Valid Blocks : 181655
 Total Tags : 491520 Threshold : 12288 Invalid Tags : 211561 Pr0 Tags : 98304 Pr1 Tags : 181655 num_pr0 : 12288
 SAE Count : 0
 Inter-Core Inteference in Data Store : 283547
Heartbeat CPU 7 instructions: 10000003 cycles: 14730400 heartbeat IPC: 0.678868 cumulative IPC: 0.678868 (Simulation time: 0 hr 24 min 42 sec) 
 Total Blocks : 196608 Invalid Blocks : 14953 Valid Blocks : 181655
 Total Tags : 491520 Threshold : 12288 Invalid Tags : 211561 Pr0 Tags : 98304 Pr1 Tags : 181655 num_pr0 : 12288
 SAE Count : 0
 Inter-Core Inteference in Data Store : 283547
Heartbeat CPU 6 instructions: 20000001 cycles: 29404023 heartbeat IPC: 0.681495 cumulative IPC: 0.680179 (Simulation time: 2 hr 20 min 49 sec) 
 Total Blocks : 196608 Invalid Blocks : 2546 Valid Blocks : 194062
 Total Tags : 491520 Threshold : 12288 Invalid Tags : 199155 Pr0 Tags : 98303 Pr1 Tags : 194062 num_pr0 : 12288
 SAE Count : 0
 Inter-Core Inteference in Data Store : 577822
Heartbeat CPU 4 instructions: 20000001 cycles: 29404954 heartbeat IPC: 0.681451 cumulative IPC: 0.680158 (Simulation time: 2 hr 20 min 50 sec) 
 Total Blocks : 196608 Invalid Blocks : 2546 Valid Blocks : 194062
 Total Tags : 491520 Threshold : 12288 Invalid Tags : 199155 Pr0 Tags : 98303 Pr1 Tags : 194062 num_pr0 : 12288
 SAE Count : 0
 Inter-Core Inteference in Data Store : 577829
Heartbeat CPU 7 instructions: 20000001 cycles: 29405977 heartbeat IPC: 0.681404 cumulative IPC: 0.680134 (Simulation time: 2 hr 20 min 51 sec) 
 Total Blocks : 196608 Invalid Blocks : 2545 Valid Blocks : 194063
 Total Tags : 491520 Threshold : 12288 Invalid Tags : 199154 Pr0 Tags : 98303 Pr1 Tags : 194063 num_pr0 : 12288
 SAE Count : 0
 Inter-Core Inteference in Data Store : 577849
Heartbeat CPU 5 instructions: 20000001 cycles: 29408299 heartbeat IPC: 0.681296 cumulative IPC: 0.68008 (Simulation time: 2 hr 20 min 53 sec) 
 Total Blocks : 196608 Invalid Blocks : 2544 Valid Blocks : 194064
 Total Tags : 491520 Threshold : 12288 Invalid Tags : 199152 Pr0 Tags : 98304 Pr1 Tags : 194064 num_pr0 : 12288
 SAE Count : 0
 Inter-Core Inteference in Data Store : 577882
Heartbeat CPU 0 instructions: 20000001 cycles: 29432777 heartbeat IPC: 0.680161 cumulative IPC: 0.679515 (Simulation time: 2 hr 21 min 13 sec) 
 Total Blocks : 196608 Invalid Blocks : 2540 Valid Blocks : 194068
 Total Tags : 491520 Threshold : 12288 Invalid Tags : 199148 Pr0 Tags : 98304 Pr1 Tags : 194068 num_pr0 : 12288
 SAE Count : 0
 Inter-Core Inteference in Data Store : 578108
Heartbeat CPU 1 instructions: 20000001 cycles: 29432802 heartbeat IPC: 0.68016 cumulative IPC: 0.679514 (Simulation time: 2 hr 21 min 13 sec) 
 Total Blocks : 196608 Invalid Blocks : 2540 Valid Blocks : 194068
 Total Tags : 491520 Threshold : 12288 Invalid Tags : 199148 Pr0 Tags : 98304 Pr1 Tags : 194068 num_pr0 : 12288
 SAE Count : 0
 Inter-Core Inteference in Data Store : 578108
Heartbeat CPU 3 instructions: 20000001 cycles: 29433153 heartbeat IPC: 0.680144 cumulative IPC: 0.679506 (Simulation time: 2 hr 21 min 13 sec) 
 Total Blocks : 196608 Invalid Blocks : 2540 Valid Blocks : 194068
 Total Tags : 491520 Threshold : 12288 Invalid Tags : 199148 Pr0 Tags : 98304 Pr1 Tags : 194068 num_pr0 : 12288
 SAE Count : 0
 Inter-Core Inteference in Data Store : 578111
Heartbeat CPU 2 instructions: 20000001 cycles: 29434612 heartbeat IPC: 0.680076 cumulative IPC: 0.679472 (Simulation time: 2 hr 21 min 15 sec) 
 Total Blocks : 196608 Invalid Blocks : 2540 Valid Blocks : 194068
 Total Tags : 491520 Threshold : 12288 Invalid Tags : 199148 Pr0 Tags : 98304 Pr1 Tags : 194068 num_pr0 : 12288
 SAE Count : 0
 Inter-Core Inteference in Data Store : 578124
FILL
Heartbeat CPU 6 instructions: 30000003 cycles: 44696809 heartbeat IPC: 0.653903 cumulative IPC: 0.671189 (Simulation time: 6 hr 12 min 23 sec) 
 Total Blocks : 196608 Invalid Blocks : 921 Valid Blocks : 195687
 Total Tags : 491520 Threshold : 12288 Invalid Tags : 197530 Pr0 Tags : 98303 Pr1 Tags : 195687 num_pr0 : 12288
 SAE Count : 0
 Inter-Core Inteference in Data Store : 752751
Heartbeat CPU 4 instructions: 30000003 cycles: 44698376 heartbeat IPC: 0.653876 cumulative IPC: 0.671165 (Simulation time: 6 hr 12 min 25 sec) 
 Total Blocks : 196608 Invalid Blocks : 921 Valid Blocks : 195687
 Total Tags : 491520 Threshold : 12288 Invalid Tags : 197529 Pr0 Tags : 98304 Pr1 Tags : 195687 num_pr0 : 12288
 SAE Count : 0
 Inter-Core Inteference in Data Store : 752771
Heartbeat CPU 7 instructions: 30000003 cycles: 44699496 heartbeat IPC: 0.653872 cumulative IPC: 0.671149 (Simulation time: 6 hr 12 min 27 sec) 
 Total Blocks : 196608 Invalid Blocks : 921 Valid Blocks : 195687
 Total Tags : 491520 Threshold : 12288 Invalid Tags : 197529 Pr0 Tags : 98304 Pr1 Tags : 195687 num_pr0 : 12288
 SAE Count : 0
 Inter-Core Inteference in Data Store : 752781
Heartbeat CPU 5 instructions: 30000003 cycles: 44702439 heartbeat IPC: 0.653845 cumulative IPC: 0.671104 (Simulation time: 6 hr 12 min 29 sec) 
 Total Blocks : 196608 Invalid Blocks : 921 Valid Blocks : 195687
 Total Tags : 491520 Threshold : 12288 Invalid Tags : 197529 Pr0 Tags : 98304 Pr1 Tags : 195687 num_pr0 : 12288
 SAE Count : 0
 Inter-Core Inteference in Data Store : 752807
Heartbeat CPU 0 instructions: 30000003 cycles: 44756717 heartbeat IPC: 0.652574 cumulative IPC: 0.670291 (Simulation time: 6 hr 13 min 29 sec) 
 Total Blocks : 196608 Invalid Blocks : 918 Valid Blocks : 195690
 Total Tags : 491520 Threshold : 12288 Invalid Tags : 197527 Pr0 Tags : 98303 Pr1 Tags : 195690 num_pr0 : 12288
 SAE Count : 0
 Inter-Core Inteference in Data Store : 753451
Heartbeat CPU 1 instructions: 30000003 cycles: 44756747 heartbeat IPC: 0.652574 cumulative IPC: 0.67029 (Simulation time: 6 hr 13 min 29 sec) 
 Total Blocks : 196608 Invalid Blocks : 918 Valid Blocks : 195690
 Total Tags : 491520 Threshold : 12288 Invalid Tags : 197526 Pr0 Tags : 98304 Pr1 Tags : 195690 num_pr0 : 12288
 SAE Count : 0
 Inter-Core Inteference in Data Store : 753451
Heartbeat CPU 3 instructions: 30000003 cycles: 44756939 heartbeat IPC: 0.65258 cumulative IPC: 0.670287 (Simulation time: 6 hr 13 min 30 sec) 
 Total Blocks : 196608 Invalid Blocks : 918 Valid Blocks : 195690
 Total Tags : 491520 Threshold : 12288 Invalid Tags : 197527 Pr0 Tags : 98303 Pr1 Tags : 195690 num_pr0 : 12287
 SAE Count : 0
 Inter-Core Inteference in Data Store : 753453
Heartbeat CPU 2 instructions: 30000003 cycles: 44758353 heartbeat IPC: 0.652582 cumulative IPC: 0.670266 (Simulation time: 6 hr 13 min 31 sec) 
 Total Blocks : 196608 Invalid Blocks : 918 Valid Blocks : 195690
 Total Tags : 491520 Threshold : 12288 Invalid Tags : 197526 Pr0 Tags : 98304 Pr1 Tags : 195690 num_pr0 : 12288
 SAE Count : 0
 Inter-Core Inteference in Data Store : 753471
Heartbeat CPU 6 instructions: 40000000 cycles: 60555428 heartbeat IPC: 0.630572 cumulative IPC: 0.660552 (Simulation time: 10 hr 31 min 9 sec) 
 Total Blocks : 196608 Invalid Blocks : 254 Valid Blocks : 196354
 Total Tags : 491520 Threshold : 12288 Invalid Tags : 196865 Pr0 Tags : 98301 Pr1 Tags : 196354 num_pr0 : 12288
 SAE Count : 0
 Inter-Core Inteference in Data Store : 970871
Heartbeat CPU 7 instructions: 40000000 cycles: 60557864 heartbeat IPC: 0.630582 cumulative IPC: 0.660525 (Simulation time: 10 hr 31 min 9 sec) 
 Total Blocks : 196608 Invalid Blocks : 254 Valid Blocks : 196354
 Total Tags : 491520 Threshold : 12288 Invalid Tags : 196864 Pr0 Tags : 98302 Pr1 Tags : 196354 num_pr0 : 12288
 SAE Count : 0
 Inter-Core Inteference in Data Store : 970906
Heartbeat CPU 4 instructions: 40000000 cycles: 60560853 heartbeat IPC: 0.630418 cumulative IPC: 0.660493 (Simulation time: 10 hr 31 min 9 sec) 
 Total Blocks : 196608 Invalid Blocks : 254 Valid Blocks : 196354
 Total Tags : 491520 Threshold : 12288 Invalid Tags : 196862 Pr0 Tags : 98304 Pr1 Tags : 196354 num_pr0 : 12288
 SAE Count : 0
 Inter-Core Inteference in Data Store : 970958
Heartbeat CPU 5 instructions: 40000000 cycles: 60565482 heartbeat IPC: 0.630396 cumulative IPC: 0.660442 (Simulation time: 10 hr 31 min 9 sec) 
 Total Blocks : 196608 Invalid Blocks : 254 Valid Blocks : 196354
 Total Tags : 491520 Threshold : 12288 Invalid Tags : 196865 Pr0 Tags : 98301 Pr1 Tags : 196354 num_pr0 : 12288
 SAE Count : 0
 Inter-Core Inteference in Data Store : 971052
Heartbeat CPU 0 instructions: 40000000 cycles: 60643812 heartbeat IPC: 0.629441 cumulative IPC: 0.659589 (Simulation time: 10 hr 31 min 13 sec) 
 Total Blocks : 196608 Invalid Blocks : 252 Valid Blocks : 196356
 Total Tags : 491520 Threshold : 12288 Invalid Tags : 196861 Pr0 Tags : 98303 Pr1 Tags : 196356 num_pr0 : 12288
 SAE Count : 0
 Inter-Core Inteference in Data Store : 972476
Heartbeat CPU 1 instructions: 40000000 cycles: 60643839 heartbeat IPC: 0.629442 cumulative IPC: 0.659589 (Simulation time: 10 hr 31 min 13 sec) 
 Total Blocks : 196608 Invalid Blocks : 252 Valid Blocks : 196356
 Total Tags : 491520 Threshold : 12288 Invalid Tags : 196861 Pr0 Tags : 98303 Pr1 Tags : 196356 num_pr0 : 12288
 SAE Count : 0
 Inter-Core Inteference in Data Store : 972476
Heartbeat CPU 3 instructions: 40000000 cycles: 60643953 heartbeat IPC: 0.629445 cumulative IPC: 0.659588 (Simulation time: 10 hr 31 min 13 sec) 
 Total Blocks : 196608 Invalid Blocks : 252 Valid Blocks : 196356
 Total Tags : 491520 Threshold : 12288 Invalid Tags : 196862 Pr0 Tags : 98302 Pr1 Tags : 196356 num_pr0 : 12286
 SAE Count : 0
 Inter-Core Inteference in Data Store : 972482
Heartbeat CPU 2 instructions: 40000000 cycles: 60644944 heartbeat IPC: 0.629461 cumulative IPC: 0.659577 (Simulation time: 10 hr 31 min 14 sec) 
 Total Blocks : 196608 Invalid Blocks : 252 Valid Blocks : 196356
 Total Tags : 491520 Threshold : 12288 Invalid Tags : 196860 Pr0 Tags : 98304 Pr1 Tags : 196356 num_pr0 : 12288
 SAE Count : 0
 Inter-Core Inteference in Data Store : 972497
FILL
Heartbeat CPU 6 instructions: 50000001 cycles: 78724199 heartbeat IPC: 0.550395 cumulative IPC: 0.635129 (Simulation time: 10 hr 46 min 45 sec) 
 Total Blocks : 196608 Invalid Blocks : 32 Valid Blocks : 196576
 Total Tags : 491520 Threshold : 12288 Invalid Tags : 196640 Pr0 Tags : 98304 Pr1 Tags : 196576 num_pr0 : 12288
 SAE Count : 0
 Inter-Core Inteference in Data Store : 1297438
Heartbeat CPU 7 instructions: 50000001 cycles: 78726392 heartbeat IPC: 0.550402 cumulative IPC: 0.635111 (Simulation time: 10 hr 46 min 45 sec) 
 Total Blocks : 196608 Invalid Blocks : 32 Valid Blocks : 196576
 Total Tags : 491520 Threshold : 12288 Invalid Tags : 196640 Pr0 Tags : 98304 Pr1 Tags : 196576 num_pr0 : 12288
 SAE Count : 0
 Inter-Core Inteference in Data Store : 1297439
Heartbeat CPU 4 instructions: 50000001 cycles: 78748296 heartbeat IPC: 0.54983 cumulative IPC: 0.634934 (Simulation time: 10 hr 46 min 46 sec) 
 Total Blocks : 196608 Invalid Blocks : 32 Valid Blocks : 196576
 Total Tags : 491520 Threshold : 12288 Invalid Tags : 196640 Pr0 Tags : 98304 Pr1 Tags : 196576 num_pr0 : 12288
 SAE Count : 0
 Inter-Core Inteference in Data Store : 1297445
Heartbeat CPU 5 instructions: 50000001 cycles: 78753203 heartbeat IPC: 0.549822 cumulative IPC: 0.634895 (Simulation time: 10 hr 46 min 47 sec) 
 Total Blocks : 196608 Invalid Blocks : 32 Valid Blocks : 196576
 Total Tags : 491520 Threshold : 12288 Invalid Tags : 196640 Pr0 Tags : 98304 Pr1 Tags : 196576 num_pr0 : 12288
 SAE Count : 0
 Inter-Core Inteference in Data Store : 1297447
Heartbeat CPU 0 instructions: 50000001 cycles: 78831178 heartbeat IPC: 0.549832 cumulative IPC: 0.634267 (Simulation time: 10 hr 46 min 51 sec) 
 Total Blocks : 196608 Invalid Blocks : 32 Valid Blocks : 196576
 Total Tags : 491520 Threshold : 12288 Invalid Tags : 196640 Pr0 Tags : 98304 Pr1 Tags : 196576 num_pr0 : 12288
 SAE Count : 0
 Inter-Core Inteference in Data Store : 1297488
Heartbeat CPU 1 instructions: 50000001 cycles: 78831224 heartbeat IPC: 0.549832 cumulative IPC: 0.634266 (Simulation time: 10 hr 46 min 51 sec) 
 Total Blocks : 196608 Invalid Blocks : 32 Valid Blocks : 196576
 Total Tags : 491520 Threshold : 12288 Invalid Tags : 196640 Pr0 Tags : 98304 Pr1 Tags : 196576 num_pr0 : 12288
 SAE Count : 0
 Inter-Core Inteference in Data Store : 1297488
Heartbeat CPU 3 instructions: 50000001 cycles: 78831421 heartbeat IPC: 0.549829 cumulative IPC: 0.634265 (Simulation time: 10 hr 46 min 51 sec) 
 Total Blocks : 196608 Invalid Blocks : 32 Valid Blocks : 196576
 Total Tags : 491520 Threshold : 12288 Invalid Tags : 196640 Pr0 Tags : 98304 Pr1 Tags : 196576 num_pr0 : 12288
 SAE Count : 0
 Inter-Core Inteference in Data Store : 1297488
Heartbeat CPU 2 instructions: 50000001 cycles: 78832513 heartbeat IPC: 0.549826 cumulative IPC: 0.634256 (Simulation time: 10 hr 46 min 51 sec) 
 Total Blocks : 196608 Invalid Blocks : 32 Valid Blocks : 196576
 Total Tags : 491520 Threshold : 12288 Invalid Tags : 196640 Pr0 Tags : 98304 Pr1 Tags : 196576 num_pr0 : 12288
 SAE Count : 0
 Inter-Core Inteference in Data Store : 1297488
Heartbeat CPU 6 instructions: 60000000 cycles: 94348978 heartbeat IPC: 0.640009 cumulative IPC: 0.635937 (Simulation time: 11 hr 1 min 2 sec) 
 Total Blocks : 196608 Invalid Blocks : 32 Valid Blocks : 196576
 Total Tags : 491520 Threshold : 12288 Invalid Tags : 196640 Pr0 Tags : 98304 Pr1 Tags : 196576 num_pr0 : 12288
 SAE Count : 0
 Inter-Core Inteference in Data Store : 1301337
Heartbeat CPU 7 instructions: 60000000 cycles: 94351202 heartbeat IPC: 0.640008 cumulative IPC: 0.635922 (Simulation time: 11 hr 1 min 4 sec) 
 Total Blocks : 196608 Invalid Blocks : 32 Valid Blocks : 196576
 Total Tags : 491520 Threshold : 12288 Invalid Tags : 196640 Pr0 Tags : 98304 Pr1 Tags : 196576 num_pr0 : 12288
 SAE Count : 0
 Inter-Core Inteference in Data Store : 1301337
Heartbeat CPU 4 instructions: 60000000 cycles: 94373075 heartbeat IPC: 0.640009 cumulative IPC: 0.635775 (Simulation time: 11 hr 1 min 10 sec) 
 Total Blocks : 196608 Invalid Blocks : 32 Valid Blocks : 196576
 Total Tags : 491520 Threshold : 12288 Invalid Tags : 196640 Pr0 Tags : 98304 Pr1 Tags : 196576 num_pr0 : 12288
 SAE Count : 0
 Inter-Core Inteference in Data Store : 1301337
Heartbeat CPU 5 instructions: 60000000 cycles: 94377993 heartbeat IPC: 0.640009 cumulative IPC: 0.635741 (Simulation time: 11 hr 1 min 10 sec) 
 Total Blocks : 196608 Invalid Blocks : 32 Valid Blocks : 196576
 Total Tags : 491520 Threshold : 12288 Invalid Tags : 196640 Pr0 Tags : 98304 Pr1 Tags : 196576 num_pr0 : 12288
 SAE Count : 0
 Inter-Core Inteference in Data Store : 1301337
Heartbeat CPU 1 instructions: 60000000 cycles: 94456407 heartbeat IPC: 0.639992 cumulative IPC: 0.635214 (Simulation time: 11 hr 1 min 34 sec) 
 Total Blocks : 196608 Invalid Blocks : 32 Valid Blocks : 196576
 Total Tags : 491520 Threshold : 12288 Invalid Tags : 196640 Pr0 Tags : 98304 Pr1 Tags : 196576 num_pr0 : 12288
 SAE Count : 0
 Inter-Core Inteference in Data Store : 1301338
Heartbeat CPU 0 instructions: 60000000 cycles: 94456433 heartbeat IPC: 0.639989 cumulative IPC: 0.635213 (Simulation time: 11 hr 1 min 34 sec) 
 Total Blocks : 196608 Invalid Blocks : 32 Valid Blocks : 196576
 Total Tags : 491520 Threshold : 12288 Invalid Tags : 196640 Pr0 Tags : 98304 Pr1 Tags : 196576 num_pr0 : 12288
 SAE Count : 0
 Inter-Core Inteference in Data Store : 1301338
Heartbeat CPU 3 instructions: 60000000 cycles: 94456702 heartbeat IPC: 0.639988 cumulative IPC: 0.635212 (Simulation time: 11 hr 1 min 34 sec) 
 Total Blocks : 196608 Invalid Blocks : 32 Valid Blocks : 196576
 Total Tags : 491520 Threshold : 12288 Invalid Tags : 196640 Pr0 Tags : 98304 Pr1 Tags : 196576 num_pr0 : 12288
 SAE Count : 0
 Inter-Core Inteference in Data Store : 1301338
Heartbeat CPU 2 instructions: 60000000 cycles: 94457790 heartbeat IPC: 0.639989 cumulative IPC: 0.635204 (Simulation time: 11 hr 1 min 35 sec) 
 Total Blocks : 196608 Invalid Blocks : 32 Valid Blocks : 196576
 Total Tags : 491520 Threshold : 12288 Invalid Tags : 196640 Pr0 Tags : 98304 Pr1 Tags : 196576 num_pr0 : 12288
 SAE Count : 0
 Inter-Core Inteference in Data Store : 1301338
Heartbeat CPU 6 instructions: 70000000 cycles: 97475301 heartbeat IPC: 3.19865 cumulative IPC: 0.718131 (Simulation time: 11 hr 17 min 7 sec) 
 Total Blocks : 196608 Invalid Blocks : 32 Valid Blocks : 196576
 Total Tags : 491520 Threshold : 12288 Invalid Tags : 196641 Pr0 Tags : 98303 Pr1 Tags : 196576 num_pr0 : 12288
 SAE Count : 0
 Inter-Core Inteference in Data Store : 1301444
Heartbeat CPU 7 instructions: 70000000 cycles: 97477427 heartbeat IPC: 3.19875 cumulative IPC: 0.718115 (Simulation time: 11 hr 17 min 8 sec) 
 Total Blocks : 196608 Invalid Blocks : 32 Valid Blocks : 196576
 Total Tags : 491520 Threshold : 12288 Invalid Tags : 196641 Pr0 Tags : 98303 Pr1 Tags : 196576 num_pr0 : 12288
 SAE Count : 0
 Inter-Core Inteference in Data Store : 1301444
Heartbeat CPU 4 instructions: 70000000 cycles: 97499380 heartbeat IPC: 3.19866 cumulative IPC: 0.717953 (Simulation time: 11 hr 17 min 13 sec) 
 Total Blocks : 196608 Invalid Blocks : 32 Valid Blocks : 196576
 Total Tags : 491520 Threshold : 12288 Invalid Tags : 196641 Pr0 Tags : 98303 Pr1 Tags : 196576 num_pr0 : 12288
 SAE Count : 0
 Inter-Core Inteference in Data Store : 1301444
Heartbeat CPU 5 instructions: 70000000 cycles: 97504316 heartbeat IPC: 3.19865 cumulative IPC: 0.717917 (Simulation time: 11 hr 17 min 14 sec) 
 Total Blocks : 196608 Invalid Blocks : 32 Valid Blocks : 196576
 Total Tags : 491520 Threshold : 12288 Invalid Tags : 196641 Pr0 Tags : 98303 Pr1 Tags : 196576 num_pr0 : 12288
 SAE Count : 0
 Inter-Core Inteference in Data Store : 1301444
Heartbeat CPU 1 instructions: 70000000 cycles: 97582660 heartbeat IPC: 3.19872 cumulative IPC: 0.717341 (Simulation time: 11 hr 17 min 37 sec) 
 Total Blocks : 196608 Invalid Blocks : 32 Valid Blocks : 196576
 Total Tags : 491520 Threshold : 12288 Invalid Tags : 196640 Pr0 Tags : 98304 Pr1 Tags : 196576 num_pr0 : 12288
 SAE Count : 0
 Inter-Core Inteference in Data Store : 1301446
Heartbeat CPU 0 instructions: 70000000 cycles: 97582756 heartbeat IPC: 3.19865 cumulative IPC: 0.71734 (Simulation time: 11 hr 17 min 37 sec) 
 Total Blocks : 196608 Invalid Blocks : 32 Valid Blocks : 196576
 Total Tags : 491520 Threshold : 12288 Invalid Tags : 196640 Pr0 Tags : 98304 Pr1 Tags : 196576 num_pr0 : 12288
 SAE Count : 0
 Inter-Core Inteference in Data Store : 1301446
Heartbeat CPU 3 instructions: 70000000 cycles: 97583025 heartbeat IPC: 3.19865 cumulative IPC: 0.717338 (Simulation time: 11 hr 17 min 37 sec) 
 Total Blocks : 196608 Invalid Blocks : 32 Valid Blocks : 196576
 Total Tags : 491520 Threshold : 12288 Invalid Tags : 196640 Pr0 Tags : 98304 Pr1 Tags : 196576 num_pr0 : 12288
 SAE Count : 0
 Inter-Core Inteference in Data Store : 1301446
Heartbeat CPU 2 instructions: 70000000 cycles: 97584113 heartbeat IPC: 3.19865 cumulative IPC: 0.71733 (Simulation time: 11 hr 17 min 37 sec) 
 Total Blocks : 196608 Invalid Blocks : 32 Valid Blocks : 196576
 Total Tags : 491520 Threshold : 12288 Invalid Tags : 196640 Pr0 Tags : 98304 Pr1 Tags : 196576 num_pr0 : 12288
 SAE Count : 0
 Inter-Core Inteference in Data Store : 1301446
Heartbeat CPU 6 instructions: 80000000 cycles: 105772828 heartbeat IPC: 1.20518 cumulative IPC: 0.756338 (Simulation time: 11 hr 37 min 1 sec) 
 Total Blocks : 196608 Invalid Blocks : 5 Valid Blocks : 196603
 Total Tags : 491520 Threshold : 12288 Invalid Tags : 196619 Pr0 Tags : 98298 Pr1 Tags : 196603 num_pr0 : 12287
 SAE Count : 0
 Inter-Core Inteference in Data Store : 1463547
Heartbeat CPU 7 instructions: 80000000 cycles: 105774992 heartbeat IPC: 1.20517 cumulative IPC: 0.756322 (Simulation time: 11 hr 37 min 1 sec) 
 Total Blocks : 196608 Invalid Blocks : 5 Valid Blocks : 196603
 Total Tags : 491520 Threshold : 12288 Invalid Tags : 196616 Pr0 Tags : 98301 Pr1 Tags : 196603 num_pr0 : 12288
 SAE Count : 0
 Inter-Core Inteference in Data Store : 1463652
Heartbeat CPU 4 instructions: 80000000 cycles: 105796920 heartbeat IPC: 1.20518 cumulative IPC: 0.756166 (Simulation time: 11 hr 37 min 3 sec) 
 Total Blocks : 196608 Invalid Blocks : 5 Valid Blocks : 196603
 Total Tags : 491520 Threshold : 12288 Invalid Tags : 196613 Pr0 Tags : 98304 Pr1 Tags : 196603 num_pr0 : 12288
 SAE Count : 0
 Inter-Core Inteference in Data Store : 1464256
Heartbeat CPU 5 instructions: 80000000 cycles: 105801905 heartbeat IPC: 1.20517 cumulative IPC: 0.75613 (Simulation time: 11 hr 37 min 3 sec) 
 Total Blocks : 196608 Invalid Blocks : 5 Valid Blocks : 196603
 Total Tags : 491520 Threshold : 12288 Invalid Tags : 196616 Pr0 Tags : 98301 Pr1 Tags : 196603 num_pr0 : 12288
 SAE Count : 0
 Inter-Core Inteference in Data Store : 1464324
Heartbeat CPU 1 instructions: 80000000 cycles: 105880214 heartbeat IPC: 1.20517 cumulative IPC: 0.755571 (Simulation time: 11 hr 37 min 8 sec) 
 Total Blocks : 196608 Invalid Blocks : 5 Valid Blocks : 196603
 Total Tags : 491520 Threshold : 12288 Invalid Tags : 196616 Pr0 Tags : 98301 Pr1 Tags : 196603 num_pr0 : 12288
 SAE Count : 0
 Inter-Core Inteference in Data Store : 1466508
Heartbeat CPU 0 instructions: 80000000 cycles: 105880226 heartbeat IPC: 1.20519 cumulative IPC: 0.755571 (Simulation time: 11 hr 37 min 8 sec) 
 Total Blocks : 196608 Invalid Blocks : 5 Valid Blocks : 196603
 Total Tags : 491520 Threshold : 12288 Invalid Tags : 196616 Pr0 Tags : 98301 Pr1 Tags : 196603 num_pr0 : 12288
 SAE Count : 0
 Inter-Core Inteference in Data Store : 1466508
Heartbeat CPU 3 instructions: 80000000 cycles: 105880504 heartbeat IPC: 1.20519 cumulative IPC: 0.755569 (Simulation time: 11 hr 37 min 8 sec) 
 Total Blocks : 196608 Invalid Blocks : 5 Valid Blocks : 196603
 Total Tags : 491520 Threshold : 12288 Invalid Tags : 196620 Pr0 Tags : 98297 Pr1 Tags : 196603 num_pr0 : 12288
 SAE Count : 0
 Inter-Core Inteference in Data Store : 1466520
Heartbeat CPU 2 instructions: 80000000 cycles: 105881605 heartbeat IPC: 1.20518 cumulative IPC: 0.755561 (Simulation time: 11 hr 37 min 8 sec) 
 Total Blocks : 196608 Invalid Blocks : 5 Valid Blocks : 196603
 Total Tags : 491520 Threshold : 12288 Invalid Tags : 196613 Pr0 Tags : 98304 Pr1 Tags : 196603 num_pr0 : 12288
 SAE Count : 0
 Inter-Core Inteference in Data Store : 1466556
FILL
Heartbeat CPU 6 instructions: 90000003 cycles: 119343358 heartbeat IPC: 0.736891 cumulative IPC: 0.754127 (Simulation time: 11 hr 53 min 2 sec) 
 Total Blocks : 196608 Invalid Blocks : 0 Valid Blocks : 196608
 Total Tags : 491520 Threshold : 12288 Invalid Tags : 196609 Pr0 Tags : 98303 Pr1 Tags : 196608 num_pr0 : 12288
 SAE Count : 0
 Inter-Core Inteference in Data Store : 1995713
Heartbeat CPU 7 instructions: 90000003 cycles: 119346477 heartbeat IPC: 0.736839 cumulative IPC: 0.754107 (Simulation time: 11 hr 53 min 3 sec) 
 Total Blocks : 196608 Invalid Blocks : 0 Valid Blocks : 196608
 Total Tags : 491520 Threshold : 12288 Invalid Tags : 196608 Pr0 Tags : 98304 Pr1 Tags : 196608 num_pr0 : 12288
 SAE Count : 0
 Inter-Core Inteference in Data Store : 1995743
Heartbeat CPU 4 instructions: 90000003 cycles: 119367850 heartbeat IPC: 0.736869 cumulative IPC: 0.753972 (Simulation time: 11 hr 53 min 4 sec) 
 Total Blocks : 196608 Invalid Blocks : 0 Valid Blocks : 196608
 Total Tags : 491520 Threshold : 12288 Invalid Tags : 196608 Pr0 Tags : 98304 Pr1 Tags : 196608 num_pr0 : 12288
 SAE Count : 0
 Inter-Core Inteference in Data Store : 1996060
Heartbeat CPU 5 instructions: 90000003 cycles: 119375513 heartbeat IPC: 0.736724 cumulative IPC: 0.753923 (Simulation time: 11 hr 53 min 4 sec) 
 Total Blocks : 196608 Invalid Blocks : 0 Valid Blocks : 196608
 Total Tags : 491520 Threshold : 12288 Invalid Tags : 196609 Pr0 Tags : 98303 Pr1 Tags : 196608 num_pr0 : 12288
 SAE Count : 0
 Inter-Core Inteference in Data Store : 1996154
Heartbeat CPU 0 instructions: 90000003 cycles: 119459038 heartbeat IPC: 0.736442 cumulative IPC: 0.753396 (Simulation time: 11 hr 53 min 10 sec) 
 Total Blocks : 196608 Invalid Blocks : 0 Valid Blocks : 196608
 Total Tags : 491520 Threshold : 12288 Invalid Tags : 196608 Pr0 Tags : 98304 Pr1 Tags : 196608 num_pr0 : 12288
 SAE Count : 0
 Inter-Core Inteference in Data Store : 1997148
Heartbeat CPU 1 instructions: 90000003 cycles: 119459063 heartbeat IPC: 0.73644 cumulative IPC: 0.753396 (Simulation time: 11 hr 53 min 10 sec) 
 Total Blocks : 196608 Invalid Blocks : 0 Valid Blocks : 196608
 Total Tags : 491520 Threshold : 12288 Invalid Tags : 196609 Pr0 Tags : 98303 Pr1 Tags : 196608 num_pr0 : 12288
 SAE Count : 0
 Inter-Core Inteference in Data Store : 1997149
Heartbeat CPU 3 instructions: 90000003 cycles: 119459565 heartbeat IPC: 0.736428 cumulative IPC: 0.753393 (Simulation time: 11 hr 53 min 10 sec) 
 Total Blocks : 196608 Invalid Blocks : 0 Valid Blocks : 196608
 Total Tags : 491520 Threshold : 12288 Invalid Tags : 196609 Pr0 Tags : 98303 Pr1 Tags : 196608 num_pr0 : 12288
 SAE Count : 0
 Inter-Core Inteference in Data Store : 1997153
Heartbeat CPU 2 instructions: 90000003 cycles: 119461311 heartbeat IPC: 0.736393 cumulative IPC: 0.753382 (Simulation time: 11 hr 53 min 10 sec) 
 Total Blocks : 196608 Invalid Blocks : 0 Valid Blocks : 196608
 Total Tags : 491520 Threshold : 12288 Invalid Tags : 196608 Pr0 Tags : 98304 Pr1 Tags : 196608 num_pr0 : 12288
 SAE Count : 0
 Inter-Core Inteference in Data Store : 1997174
Heartbeat CPU 6 instructions: 100000002 cycles: 133836228 heartbeat IPC: 0.689994 cumulative IPC: 0.747182 (Simulation time: 12 hr 8 min 38 sec) 
 Total Blocks : 196608 Invalid Blocks : 0 Valid Blocks : 196608
 Total Tags : 491520 Threshold : 12288 Invalid Tags : 196608 Pr0 Tags : 98304 Pr1 Tags : 196608 num_pr0 : 12288
 SAE Count : 0
 Inter-Core Inteference in Data Store : 2177832
Heartbeat CPU 7 instructions: 100000002 cycles: 133840481 heartbeat IPC: 0.68994 cumulative IPC: 0.747158 (Simulation time: 12 hr 8 min 38 sec) 
 Total Blocks : 196608 Invalid Blocks : 0 Valid Blocks : 196608
 Total Tags : 491520 Threshold : 12288 Invalid Tags : 196608 Pr0 Tags : 98304 Pr1 Tags : 196608 num_pr0 : 12288
 SAE Count : 0
 Inter-Core Inteference in Data Store : 2177874
Heartbeat CPU 4 instructions: 100000002 cycles: 133861451 heartbeat IPC: 0.68996 cumulative IPC: 0.747041 (Simulation time: 12 hr 8 min 39 sec) 
 Total Blocks : 196608 Invalid Blocks : 0 Valid Blocks : 196608
 Total Tags : 491520 Threshold : 12288 Invalid Tags : 196609 Pr0 Tags : 98303 Pr1 Tags : 196608 num_pr0 : 12288
 SAE Count : 0
 Inter-Core Inteference in Data Store : 2178246
Heartbeat CPU 5 instructions: 100000002 cycles: 133869487 heartbeat IPC: 0.689942 cumulative IPC: 0.746996 (Simulation time: 12 hr 8 min 40 sec) 
 Total Blocks : 196608 Invalid Blocks : 0 Valid Blocks : 196608
 Total Tags : 491520 Threshold : 12288 Invalid Tags : 196608 Pr0 Tags : 98304 Pr1 Tags : 196608 num_pr0 : 12288
 SAE Count : 0
 Inter-Core Inteference in Data Store : 2178385
Heartbeat CPU 0 instructions: 100000002 cycles: 133981684 heartbeat IPC: 0.68858 cumulative IPC: 0.746371 (Simulation time: 12 hr 8 min 50 sec) 
 Total Blocks : 196608 Invalid Blocks : 0 Valid Blocks : 196608
 Total Tags : 491520 Threshold : 12288 Invalid Tags : 196608 Pr0 Tags : 98304 Pr1 Tags : 196608 num_pr0 : 12288
 SAE Count : 0
 Inter-Core Inteference in Data Store : 2179852
Heartbeat CPU 1 instructions: 100000002 cycles: 133981717 heartbeat IPC: 0.688579 cumulative IPC: 0.74637 (Simulation time: 12 hr 8 min 50 sec) 
 Total Blocks : 196608 Invalid Blocks : 0 Valid Blocks : 196608
 Total Tags : 491520 Threshold : 12288 Invalid Tags : 196608 Pr0 Tags : 98304 Pr1 Tags : 196608 num_pr0 : 12288
 SAE Count : 0
 Inter-Core Inteference in Data Store : 2179852
Heartbeat CPU 3 instructions: 100000002 cycles: 133982090 heartbeat IPC: 0.688585 cumulative IPC: 0.746368 (Simulation time: 12 hr 8 min 50 sec) 
 Total Blocks : 196608 Invalid Blocks : 0 Valid Blocks : 196608
 Total Tags : 491520 Threshold : 12288 Invalid Tags : 196608 Pr0 Tags : 98304 Pr1 Tags : 196608 num_pr0 : 12288
 SAE Count : 0
 Inter-Core Inteference in Data Store : 2179858
Heartbeat CPU 2 instructions: 100000002 cycles: 133984670 heartbeat IPC: 0.688546 cumulative IPC: 0.746354 (Simulation time: 12 hr 8 min 51 sec) 
 Total Blocks : 196608 Invalid Blocks : 0 Valid Blocks : 196608
 Total Tags : 491520 Threshold : 12288 Invalid Tags : 196608 Pr0 Tags : 98304 Pr1 Tags : 196608 num_pr0 : 12288
 SAE Count : 0
 Inter-Core Inteference in Data Store : 2179896
FILL
Heartbeat CPU 6 instructions: 110000000 cycles: 148319199 heartbeat IPC: 0.690466 cumulative IPC: 0.741644 (Simulation time: 12 hr 24 min 1 sec) 
 Total Blocks : 196608 Invalid Blocks : 0 Valid Blocks : 196608
 Total Tags : 491520 Threshold : 12288 Invalid Tags : 196608 Pr0 Tags : 98304 Pr1 Tags : 196608 num_pr0 : 12288
 SAE Count : 0
 Inter-Core Inteference in Data Store : 2370138
Heartbeat CPU 7 instructions: 110000000 cycles: 148323628 heartbeat IPC: 0.690458 cumulative IPC: 0.741622 (Simulation time: 12 hr 24 min 1 sec) 
 Total Blocks : 196608 Invalid Blocks : 0 Valid Blocks : 196608
 Total Tags : 491520 Threshold : 12288 Invalid Tags : 196608 Pr0 Tags : 98304 Pr1 Tags : 196608 num_pr0 : 12288
 SAE Count : 0
 Inter-Core Inteference in Data Store : 2370207
Heartbeat CPU 4 instructions: 110000000 cycles: 148344683 heartbeat IPC: 0.690453 cumulative IPC: 0.741516 (Simulation time: 12 hr 24 min 2 sec) 
 Total Blocks : 196608 Invalid Blocks : 0 Valid Blocks : 196608
 Total Tags : 491520 Threshold : 12288 Invalid Tags : 196608 Pr0 Tags : 98304 Pr1 Tags : 196608 num_pr0 : 12288
 SAE Count : 0
 Inter-Core Inteference in Data Store : 2370501
Heartbeat CPU 5 instructions: 110000000 cycles: 148353688 heartbeat IPC: 0.690407 cumulative IPC: 0.741471 (Simulation time: 12 hr 24 min 3 sec) 
 Total Blocks : 196608 Invalid Blocks : 0 Valid Blocks : 196608
 Total Tags : 491520 Threshold : 12288 Invalid Tags : 196609 Pr0 Tags : 98303 Pr1 Tags : 196608 num_pr0 : 12288
 SAE Count : 0
 Inter-Core Inteference in Data Store : 2370611
Heartbeat CPU 1 instructions: 110000000 cycles: 148494908 heartbeat IPC: 0.689028 cumulative IPC: 0.740766 (Simulation time: 12 hr 24 min 11 sec) 
 Total Blocks : 196608 Invalid Blocks : 0 Valid Blocks : 196608
 Total Tags : 491520 Threshold : 12288 Invalid Tags : 196608 Pr0 Tags : 98304 Pr1 Tags : 196608 num_pr0 : 12288
 SAE Count : 0
 Inter-Core Inteference in Data Store : 2372609
Heartbeat CPU 0 instructions: 110000000 cycles: 148494921 heartbeat IPC: 0.689026 cumulative IPC: 0.740766 (Simulation time: 12 hr 24 min 11 sec) 
 Total Blocks : 196608 Invalid Blocks : 0 Valid Blocks : 196608
 Total Tags : 491520 Threshold : 12288 Invalid Tags : 196608 Pr0 Tags : 98304 Pr1 Tags : 196608 num_pr0 : 12288
 SAE Count : 0
 Inter-Core Inteference in Data Store : 2372609
Heartbeat CPU 3 instructions: 110000000 cycles: 148495212 heartbeat IPC: 0.689031 cumulative IPC: 0.740765 (Simulation time: 12 hr 24 min 12 sec) 
 Total Blocks : 196608 Invalid Blocks : 0 Valid Blocks : 196608
 Total Tags : 491520 Threshold : 12288 Invalid Tags : 196608 Pr0 Tags : 98304 Pr1 Tags : 196608 num_pr0 : 12288
 SAE Count : 0
 Inter-Core Inteference in Data Store : 2372612
Heartbeat CPU 2 instructions: 110000000 cycles: 148497246 heartbeat IPC: 0.689057 cumulative IPC: 0.740754 (Simulation time: 12 hr 24 min 12 sec) 
 Total Blocks : 196608 Invalid Blocks : 0 Valid Blocks : 196608
 Total Tags : 491520 Threshold : 12288 Invalid Tags : 196609 Pr0 Tags : 98303 Pr1 Tags : 196608 num_pr0 : 12288
 SAE Count : 0
 Inter-Core Inteference in Data Store : 2372650
FILL
Heartbeat CPU 6 instructions: 120000002 cycles: 165368998 heartbeat IPC: 0.586517 cumulative IPC: 0.72565 (Simulation time: 12 hr 39 min 28 sec) 
 Total Blocks : 196608 Invalid Blocks : 0 Valid Blocks : 196608
 Total Tags : 491520 Threshold : 12288 Invalid Tags : 196609 Pr0 Tags : 98303 Pr1 Tags : 196608 num_pr0 : 12288
 SAE Count : 0
 Inter-Core Inteference in Data Store : 2644134
Heartbeat CPU 7 instructions: 120000002 cycles: 165373014 heartbeat IPC: 0.586532 cumulative IPC: 0.725632 (Simulation time: 12 hr 39 min 29 sec) 
 Total Blocks : 196608 Invalid Blocks : 0 Valid Blocks : 196608
 Total Tags : 491520 Threshold : 12288 Invalid Tags : 196608 Pr0 Tags : 98304 Pr1 Tags : 196608 num_pr0 : 12288
 SAE Count : 0
 Inter-Core Inteference in Data Store : 2644223
Heartbeat CPU 4 instructions: 120000002 cycles: 165406236 heartbeat IPC: 0.586113 cumulative IPC: 0.725487 (Simulation time: 12 hr 39 min 30 sec) 
 Total Blocks : 196608 Invalid Blocks : 0 Valid Blocks : 196608
 Total Tags : 491520 Threshold : 12288 Invalid Tags : 196608 Pr0 Tags : 98304 Pr1 Tags : 196608 num_pr0 : 12288
 SAE Count : 0
 Inter-Core Inteference in Data Store : 2644736
Heartbeat CPU 5 instructions: 120000002 cycles: 165415309 heartbeat IPC: 0.586111 cumulative IPC: 0.725447 (Simulation time: 12 hr 39 min 31 sec) 
 Total Blocks : 196608 Invalid Blocks : 0 Valid Blocks : 196608
 Total Tags : 491520 Threshold : 12288 Invalid Tags : 196610 Pr0 Tags : 98302 Pr1 Tags : 196608 num_pr0 : 12288
 SAE Count : 0
 Inter-Core Inteference in Data Store : 2644923
Heartbeat CPU 0 instructions: 120000002 cycles: 165563814 heartbeat IPC: 0.585861 cumulative IPC: 0.724796 (Simulation time: 12 hr 39 min 38 sec) 
 Total Blocks : 196608 Invalid Blocks : 0 Valid Blocks : 196608
 Total Tags : 491520 Threshold : 12288 Invalid Tags : 196608 Pr0 Tags : 98304 Pr1 Tags : 196608 num_pr0 : 12288
 SAE Count : 0
 Inter-Core Inteference in Data Store : 2647264
Heartbeat CPU 1 instructions: 120000002 cycles: 165564050 heartbeat IPC: 0.585853 cumulative IPC: 0.724795 (Simulation time: 12 hr 39 min 38 sec) 
 Total Blocks : 196608 Invalid Blocks : 0 Valid Blocks : 196608
 Total Tags : 491520 Threshold : 12288 Invalid Tags : 196610 Pr0 Tags : 98302 Pr1 Tags : 196608 num_pr0 : 12288
 SAE Count : 0
 Inter-Core Inteference in Data Store : 2647267
Heartbeat CPU 3 instructions: 120000002 cycles: 165564285 heartbeat IPC: 0.585855 cumulative IPC: 0.724794 (Simulation time: 12 hr 39 min 38 sec) 
 Total Blocks : 196608 Invalid Blocks : 0 Valid Blocks : 196608
 Total Tags : 491520 Threshold : 12288 Invalid Tags : 196608 Pr0 Tags : 98304 Pr1 Tags : 196608 num_pr0 : 12288
 SAE Count : 0
 Inter-Core Inteference in Data Store : 2647269
Heartbeat CPU 2 instructions: 120000002 cycles: 165566075 heartbeat IPC: 0.585863 cumulative IPC: 0.724786 (Simulation time: 12 hr 39 min 38 sec) 
 Total Blocks : 196608 Invalid Blocks : 0 Valid Blocks : 196608
 Total Tags : 491520 Threshold : 12288 Invalid Tags : 196610 Pr0 Tags : 98302 Pr1 Tags : 196608 num_pr0 : 12288
 SAE Count : 0
 Inter-Core Inteference in Data Store : 2647298
FILL
Heartbeat CPU 6 instructions: 130000000 cycles: 182537891 heartbeat IPC: 0.582449 cumulative IPC: 0.712181 (Simulation time: 12 hr 53 min 52 sec) 
 Total Blocks : 196608 Invalid Blocks : 0 Valid Blocks : 196608
 Total Tags : 491520 Threshold : 12288 Invalid Tags : 196608 Pr0 Tags : 98304 Pr1 Tags : 196608 num_pr0 : 12288
 SAE Count : 0
 Inter-Core Inteference in Data Store : 2750803
Heartbeat CPU 7 instructions: 130000000 cycles: 182541847 heartbeat IPC: 0.582451 cumulative IPC: 0.712165 (Simulation time: 12 hr 53 min 52 sec) 
 Total Blocks : 196608 Invalid Blocks : 0 Valid Blocks : 196608
 Total Tags : 491520 Threshold : 12288 Invalid Tags : 196608 Pr0 Tags : 98304 Pr1 Tags : 196608 num_pr0 : 12288
 SAE Count : 0
 Inter-Core Inteference in Data Store : 2750805
Heartbeat CPU 4 instructions: 130000000 cycles: 182580792 heartbeat IPC: 0.582257 cumulative IPC: 0.712014 (Simulation time: 12 hr 53 min 54 sec) 
 Total Blocks : 196608 Invalid Blocks : 0 Valid Blocks : 196608
 Total Tags : 491520 Threshold : 12288 Invalid Tags : 196608 Pr0 Tags : 98304 Pr1 Tags : 196608 num_pr0 : 12288
 SAE Count : 0
 Inter-Core Inteference in Data Store : 2750820
Heartbeat CPU 5 instructions: 130000000 cycles: 182589910 heartbeat IPC: 0.582255 cumulative IPC: 0.711978 (Simulation time: 12 hr 53 min 55 sec) 
 Total Blocks : 196608 Invalid Blocks : 0 Valid Blocks : 196608
 Total Tags : 491520 Threshold : 12288 Invalid Tags : 196608 Pr0 Tags : 98304 Pr1 Tags : 196608 num_pr0 : 12288
 SAE Count : 0
 Inter-Core Inteference in Data Store : 2750821
Heartbeat CPU 0 instructions: 130000000 cycles: 182738625 heartbeat IPC: 0.582248 cumulative IPC: 0.711399 (Simulation time: 12 hr 54 min 1 sec) 
 Total Blocks : 196608 Invalid Blocks : 0 Valid Blocks : 196608
 Total Tags : 491520 Threshold : 12288 Invalid Tags : 196608 Pr0 Tags : 98304 Pr1 Tags : 196608 num_pr0 : 12288
 SAE Count : 0
 Inter-Core Inteference in Data Store : 2750838
Heartbeat CPU 1 instructions: 130000000 cycles: 182738741 heartbeat IPC: 0.582252 cumulative IPC: 0.711398 (Simulation time: 12 hr 54 min 1 sec) 
 Total Blocks : 196608 Invalid Blocks : 0 Valid Blocks : 196608
 Total Tags : 491520 Threshold : 12288 Invalid Tags : 196608 Pr0 Tags : 98304 Pr1 Tags : 196608 num_pr0 : 12288
 SAE Count : 0
 Inter-Core Inteference in Data Store : 2750838
Heartbeat CPU 3 instructions: 130000000 cycles: 182739149 heartbeat IPC: 0.582246 cumulative IPC: 0.711397 (Simulation time: 12 hr 54 min 1 sec) 
 Total Blocks : 196608 Invalid Blocks : 0 Valid Blocks : 196608
 Total Tags : 491520 Threshold : 12288 Invalid Tags : 196608 Pr0 Tags : 98304 Pr1 Tags : 196608 num_pr0 : 12288
 SAE Count : 0
 Inter-Core Inteference in Data Store : 2750838
Heartbeat CPU 2 instructions: 130000000 cycles: 182740999 heartbeat IPC: 0.582244 cumulative IPC: 0.711389 (Simulation time: 12 hr 54 min 1 sec) 
 Total Blocks : 196608 Invalid Blocks : 0 Valid Blocks : 196608
 Total Tags : 491520 Threshold : 12288 Invalid Tags : 196608 Pr0 Tags : 98304 Pr1 Tags : 196608 num_pr0 : 12288
 SAE Count : 0
 Inter-Core Inteference in Data Store : 2750838
Heartbeat CPU 6 instructions: 140000001 cycles: 189671147 heartbeat IPC: 1.40188 cumulative IPC: 0.73812 (Simulation time: 13 hr 7 min 40 sec) 
 Total Blocks : 196608 Invalid Blocks : 0 Valid Blocks : 196608
 Total Tags : 491520 Threshold : 12288 Invalid Tags : 196610 Pr0 Tags : 98302 Pr1 Tags : 196608 num_pr0 : 12288
 SAE Count : 0
 Inter-Core Inteference in Data Store : 2751457
Heartbeat CPU 7 instructions: 140000001 cycles: 189675132 heartbeat IPC: 1.40188 cumulative IPC: 0.738104 (Simulation time: 13 hr 7 min 42 sec) 
 Total Blocks : 196608 Invalid Blocks : 0 Valid Blocks : 196608
 Total Tags : 491520 Threshold : 12288 Invalid Tags : 196610 Pr0 Tags : 98302 Pr1 Tags : 196608 num_pr0 : 12288
 SAE Count : 0
 Inter-Core Inteference in Data Store : 2751457
Heartbeat CPU 4 instructions: 140000001 cycles: 189714029 heartbeat IPC: 1.40189 cumulative IPC: 0.737953 (Simulation time: 13 hr 7 min 52 sec) 
 Total Blocks : 196608 Invalid Blocks : 0 Valid Blocks : 196608
 Total Tags : 491520 Threshold : 12288 Invalid Tags : 196613 Pr0 Tags : 98299 Pr1 Tags : 196608 num_pr0 : 12288
 SAE Count : 0
 Inter-Core Inteference in Data Store : 2751463
Heartbeat CPU 5 instructions: 140000001 cycles: 189723182 heartbeat IPC: 1.40188 cumulative IPC: 0.737917 (Simulation time: 13 hr 7 min 55 sec) 
 Total Blocks : 196608 Invalid Blocks : 0 Valid Blocks : 196608
 Total Tags : 491520 Threshold : 12288 Invalid Tags : 196613 Pr0 Tags : 98299 Pr1 Tags : 196608 num_pr0 : 12288
 SAE Count : 0
 Inter-Core Inteference in Data Store : 2751463
Heartbeat CPU 0 instructions: 140000001 cycles: 189871995 heartbeat IPC: 1.40186 cumulative IPC: 0.737339 (Simulation time: 13 hr 8 min 32 sec) 
 Total Blocks : 196608 Invalid Blocks : 0 Valid Blocks : 196608
 Total Tags : 491520 Threshold : 12288 Invalid Tags : 196609 Pr0 Tags : 98303 Pr1 Tags : 196608 num_pr0 : 12288
 SAE Count : 0
 Inter-Core Inteference in Data Store : 2751463
Heartbeat CPU 1 instructions: 140000001 cycles: 189872106 heartbeat IPC: 1.40186 cumulative IPC: 0.737338 (Simulation time: 13 hr 8 min 33 sec) 
 Total Blocks : 196608 Invalid Blocks : 0 Valid Blocks : 196608
 Total Tags : 491520 Threshold : 12288 Invalid Tags : 196609 Pr0 Tags : 98303 Pr1 Tags : 196608 num_pr0 : 12288
 SAE Count : 0
 Inter-Core Inteference in Data Store : 2751463
Heartbeat CPU 3 instructions: 140000001 cycles: 189872515 heartbeat IPC: 1.40186 cumulative IPC: 0.737337 (Simulation time: 13 hr 8 min 33 sec) 
 Total Blocks : 196608 Invalid Blocks : 0 Valid Blocks : 196608
 Total Tags : 491520 Threshold : 12288 Invalid Tags : 196609 Pr0 Tags : 98303 Pr1 Tags : 196608 num_pr0 : 12288
 SAE Count : 0
 Inter-Core Inteference in Data Store : 2751463
Heartbeat CPU 2 instructions: 140000001 cycles: 189874363 heartbeat IPC: 1.40186 cumulative IPC: 0.73733 (Simulation time: 13 hr 8 min 33 sec) 
 Total Blocks : 196608 Invalid Blocks : 0 Valid Blocks : 196608
 Total Tags : 491520 Threshold : 12288 Invalid Tags : 196609 Pr0 Tags : 98303 Pr1 Tags : 196608 num_pr0 : 12288
 SAE Count : 0
 Inter-Core Inteference in Data Store : 2751463
FILL
Heartbeat CPU 6 instructions: 150000000 cycles: 193596755 heartbeat IPC: 2.54738 cumulative IPC: 0.774806 (Simulation time: 13 hr 27 min 32 sec) 
 Total Blocks : 196608 Invalid Blocks : 0 Valid Blocks : 196608
 Total Tags : 491520 Threshold : 12288 Invalid Tags : 196610 Pr0 Tags : 98302 Pr1 Tags : 196608 num_pr0 : 12287
 SAE Count : 0
 Inter-Core Inteference in Data Store : 2761761
Heartbeat CPU 7 instructions: 150000000 cycles: 193600724 heartbeat IPC: 2.54739 cumulative IPC: 0.77479 (Simulation time: 13 hr 27 min 32 sec) 
 Total Blocks : 196608 Invalid Blocks : 0 Valid Blocks : 196608
 Total Tags : 491520 Threshold : 12288 Invalid Tags : 196610 Pr0 Tags : 98302 Pr1 Tags : 196608 num_pr0 : 12288
 SAE Count : 0
 Inter-Core Inteference in Data Store : 2761911
Heartbeat CPU 4 instructions: 150000000 cycles: 193639627 heartbeat IPC: 2.54738 cumulative IPC: 0.774635 (Simulation time: 13 hr 27 min 33 sec) 
 Total Blocks : 196608 Invalid Blocks : 0 Valid Blocks : 196608
 Total Tags : 491520 Threshold : 12288 Invalid Tags : 196612 Pr0 Tags : 98300 Pr1 Tags : 196608 num_pr0 : 12288
 SAE Count : 0
 Inter-Core Inteference in Data Store : 2762906
Heartbeat CPU 5 instructions: 150000000 cycles: 193648774 heartbeat IPC: 2.54739 cumulative IPC: 0.774598 (Simulation time: 13 hr 27 min 34 sec) 
 Total Blocks : 196608 Invalid Blocks : 0 Valid Blocks : 196608
 Total Tags : 491520 Threshold : 12288 Invalid Tags : 196612 Pr0 Tags : 98300 Pr1 Tags : 196608 num_pr0 : 12288
 SAE Count : 0
 Inter-Core Inteference in Data Store : 2763219
Heartbeat CPU 0 instructions: 150000000 cycles: 193797563 heartbeat IPC: 2.5474 cumulative IPC: 0.774004 (Simulation time: 13 hr 27 min 40 sec) 
 Total Blocks : 196608 Invalid Blocks : 0 Valid Blocks : 196608
 Total Tags : 491520 Threshold : 12288 Invalid Tags : 196611 Pr0 Tags : 98301 Pr1 Tags : 196608 num_pr0 : 12288
 SAE Count : 0
 Inter-Core Inteference in Data Store : 2767268
Heartbeat CPU 1 instructions: 150000000 cycles: 193797696 heartbeat IPC: 2.54739 cumulative IPC: 0.774003 (Simulation time: 13 hr 27 min 40 sec) 
 Total Blocks : 196608 Invalid Blocks : 0 Valid Blocks : 196608
 Total Tags : 491520 Threshold : 12288 Invalid Tags : 196610 Pr0 Tags : 98302 Pr1 Tags : 196608 num_pr0 : 12288
 SAE Count : 0
 Inter-Core Inteference in Data Store : 2767270
Heartbeat CPU 3 instructions: 150000000 cycles: 193798181 heartbeat IPC: 2.54734 cumulative IPC: 0.774001 (Simulation time: 13 hr 27 min 40 sec) 
 Total Blocks : 196608 Invalid Blocks : 0 Valid Blocks : 196608
 Total Tags : 491520 Threshold : 12288 Invalid Tags : 196610 Pr0 Tags : 98302 Pr1 Tags : 196608 num_pr0 : 12288
 SAE Count : 0
 Inter-Core Inteference in Data Store : 2767284
Heartbeat CPU 2 instructions: 150000000 cycles: 193799939 heartbeat IPC: 2.5474 cumulative IPC: 0.773994 (Simulation time: 13 hr 27 min 40 sec) 
 Total Blocks : 196608 Invalid Blocks : 0 Valid Blocks : 196608
 Total Tags : 491520 Threshold : 12288 Invalid Tags : 196609 Pr0 Tags : 98303 Pr1 Tags : 196608 num_pr0 : 12288
 SAE Count : 0
 Inter-Core Inteference in Data Store : 2767329
FILL
Heartbeat CPU 6 instructions: 160000003 cycles: 208328613 heartbeat IPC: 0.678801 cumulative IPC: 0.768017 (Simulation time: 13 hr 39 min 5 sec) 
 Total Blocks : 196608 Invalid Blocks : 0 Valid Blocks : 196608
 Total Tags : 491520 Threshold : 12288 Invalid Tags : 196609 Pr0 Tags : 98303 Pr1 Tags : 196608 num_pr0 : 12288
 SAE Count : 0
 Inter-Core Inteference in Data Store : 3166841
Heartbeat CPU 7 instructions: 160000003 cycles: 208332532 heartbeat IPC: 0.678804 cumulative IPC: 0.768003 (Simulation time: 13 hr 39 min 5 sec) 
 Total Blocks : 196608 Invalid Blocks : 0 Valid Blocks : 196608
 Total Tags : 491520 Threshold : 12288 Invalid Tags : 196613 Pr0 Tags : 98299 Pr1 Tags : 196608 num_pr0 : 12287
 SAE Count : 0
 Inter-Core Inteference in Data Store : 3166917
Heartbeat CPU 4 instructions: 160000003 cycles: 208371430 heartbeat IPC: 0.678804 cumulative IPC: 0.76786 (Simulation time: 13 hr 39 min 7 sec) 
 Total Blocks : 196608 Invalid Blocks : 0 Valid Blocks : 196608
 Total Tags : 491520 Threshold : 12288 Invalid Tags : 196609 Pr0 Tags : 98303 Pr1 Tags : 196608 num_pr0 : 12288
 SAE Count : 0
 Inter-Core Inteference in Data Store : 3168075
Heartbeat CPU 5 instructions: 160000003 cycles: 208380599 heartbeat IPC: 0.678803 cumulative IPC: 0.767826 (Simulation time: 13 hr 39 min 7 sec) 
 Total Blocks : 196608 Invalid Blocks : 0 Valid Blocks : 196608
 Total Tags : 491520 Threshold : 12288 Invalid Tags : 196610 Pr0 Tags : 98302 Pr1 Tags : 196608 num_pr0 : 12288
 SAE Count : 0
 Inter-Core Inteference in Data Store : 3168300
Heartbeat CPU 0 instructions: 160000003 cycles: 208529349 heartbeat IPC: 0.678805 cumulative IPC: 0.767278 (Simulation time: 13 hr 39 min 51 sec) 
 Total Blocks : 196608 Invalid Blocks : 0 Valid Blocks : 196608
 Total Tags : 491520 Threshold : 12288 Invalid Tags : 196610 Pr0 Tags : 98302 Pr1 Tags : 196608 num_pr0 : 12287
 SAE Count : 0
 Inter-Core Inteference in Data Store : 3219640
Heartbeat CPU 1 instructions: 160000003 cycles: 208529511 heartbeat IPC: 0.678803 cumulative IPC: 0.767277 (Simulation time: 13 hr 39 min 52 sec) 
 Total Blocks : 196608 Invalid Blocks : 0 Valid Blocks : 196608
 Total Tags : 491520 Threshold : 12288 Invalid Tags : 196610 Pr0 Tags : 98302 Pr1 Tags : 196608 num_pr0 : 12288
 SAE Count : 0
 Inter-Core Inteference in Data Store : 3219701
Heartbeat CPU 3 instructions: 160000003 cycles: 208529978 heartbeat IPC: 0.678804 cumulative IPC: 0.767276 (Simulation time: 13 hr 39 min 52 sec) 
 Total Blocks : 196608 Invalid Blocks : 0 Valid Blocks : 196608
 Total Tags : 491520 Threshold : 12288 Invalid Tags : 196609 Pr0 Tags : 98303 Pr1 Tags : 196608 num_pr0 : 12288
 SAE Count : 0
 Inter-Core Inteference in Data Store : 3219890
Heartbeat CPU 2 instructions: 160000003 cycles: 208531734 heartbeat IPC: 0.678804 cumulative IPC: 0.767269 (Simulation time: 13 hr 39 min 52 sec) 
 Total Blocks : 196608 Invalid Blocks : 0 Valid Blocks : 196608
 Total Tags : 491520 Threshold : 12288 Invalid Tags : 196609 Pr0 Tags : 98303 Pr1 Tags : 196608 num_pr0 : 12288
 SAE Count : 0
 Inter-Core Inteference in Data Store : 3220601
Heartbeat CPU 6 instructions: 170000003 cycles: 222242815 heartbeat IPC: 0.71869 cumulative IPC: 0.764929 (Simulation time: 13 hr 56 min 50 sec) 
 Total Blocks : 196608 Invalid Blocks : 0 Valid Blocks : 196608
 Total Tags : 491520 Threshold : 12288 Invalid Tags : 196608 Pr0 Tags : 98304 Pr1 Tags : 196608 num_pr0 : 12288
 SAE Count : 0
 Inter-Core Inteference in Data Store : 3637425
Heartbeat CPU 7 instructions: 170000003 cycles: 222248606 heartbeat IPC: 0.718593 cumulative IPC: 0.764909 (Simulation time: 13 hr 56 min 50 sec) 
 Total Blocks : 196608 Invalid Blocks : 0 Valid Blocks : 196608
 Total Tags : 491520 Threshold : 12288 Invalid Tags : 196609 Pr0 Tags : 98303 Pr1 Tags : 196608 num_pr0 : 12287
 SAE Count : 0
 Inter-Core Inteference in Data Store : 3637484
Heartbeat CPU 4 instructions: 170000003 cycles: 222286376 heartbeat IPC: 0.718652 cumulative IPC: 0.764779 (Simulation time: 13 hr 56 min 52 sec) 
 Total Blocks : 196608 Invalid Blocks : 0 Valid Blocks : 196608
 Total Tags : 491520 Threshold : 12288 Invalid Tags : 196608 Pr0 Tags : 98304 Pr1 Tags : 196608 num_pr0 : 12288
 SAE Count : 0
 Inter-Core Inteference in Data Store : 3637982
Heartbeat CPU 5 instructions: 170000003 cycles: 222298666 heartbeat IPC: 0.718491 cumulative IPC: 0.764737 (Simulation time: 13 hr 56 min 53 sec) 
 Total Blocks : 196608 Invalid Blocks : 0 Valid Blocks : 196608
 Total Tags : 491520 Threshold : 12288 Invalid Tags : 196608 Pr0 Tags : 98304 Pr1 Tags : 196608 num_pr0 : 12288
 SAE Count : 0
 Inter-Core Inteference in Data Store : 3638159
Heartbeat CPU 0 instructions: 170000003 cycles: 222470089 heartbeat IPC: 0.717322 cumulative IPC: 0.764148 (Simulation time: 13 hr 57 min 4 sec) 
 Total Blocks : 196608 Invalid Blocks : 0 Valid Blocks : 196608
 Total Tags : 491520 Threshold : 12288 Invalid Tags : 196608 Pr0 Tags : 98304 Pr1 Tags : 196608 num_pr0 : 12288
 SAE Count : 0
 Inter-Core Inteference in Data Store : 3640144
Heartbeat CPU 1 instructions: 170000003 cycles: 222470546 heartbeat IPC: 0.717307 cumulative IPC: 0.764146 (Simulation time: 13 hr 57 min 5 sec) 
 Total Blocks : 196608 Invalid Blocks : 0 Valid Blocks : 196608
 Total Tags : 491520 Threshold : 12288 Invalid Tags : 196608 Pr0 Tags : 98304 Pr1 Tags : 196608 num_pr0 : 12288
 SAE Count : 0
 Inter-Core Inteference in Data Store : 3640151
Heartbeat CPU 3 instructions: 170000003 cycles: 222471756 heartbeat IPC: 0.717269 cumulative IPC: 0.764142 (Simulation time: 13 hr 57 min 5 sec) 
 Total Blocks : 196608 Invalid Blocks : 0 Valid Blocks : 196608
 Total Tags : 491520 Threshold : 12288 Invalid Tags : 196609 Pr0 Tags : 98303 Pr1 Tags : 196608 num_pr0 : 12288
 SAE Count : 0
 Inter-Core Inteference in Data Store : 3640164
Heartbeat CPU 2 instructions: 170000003 cycles: 222474594 heartbeat IPC: 0.717213 cumulative IPC: 0.764132 (Simulation time: 13 hr 57 min 5 sec) 
 Total Blocks : 196608 Invalid Blocks : 0 Valid Blocks : 196608
 Total Tags : 491520 Threshold : 12288 Invalid Tags : 196608 Pr0 Tags : 98304 Pr1 Tags : 196608 num_pr0 : 12288
 SAE Count : 0
 Inter-Core Inteference in Data Store : 3640211
FILL
Heartbeat CPU 6 instructions: 180000001 cycles: 237024773 heartbeat IPC: 0.6765 cumulative IPC: 0.759414 (Simulation time: 14 hr 11 min 34 sec) 
 Total Blocks : 196608 Invalid Blocks : 0 Valid Blocks : 196608
 Total Tags : 491520 Threshold : 12288 Invalid Tags : 196609 Pr0 Tags : 98303 Pr1 Tags : 196608 num_pr0 : 12288
 SAE Count : 0
 Inter-Core Inteference in Data Store : 3821953
Heartbeat CPU 7 instructions: 180000001 cycles: 237031352 heartbeat IPC: 0.676464 cumulative IPC: 0.759393 (Simulation time: 14 hr 11 min 34 sec) 
 Total Blocks : 196608 Invalid Blocks : 0 Valid Blocks : 196608
 Total Tags : 491520 Threshold : 12288 Invalid Tags : 196608 Pr0 Tags : 98304 Pr1 Tags : 196608 num_pr0 : 12288
 SAE Count : 0
 Inter-Core Inteference in Data Store : 3822012
Heartbeat CPU 4 instructions: 180000001 cycles: 237068899 heartbeat IPC: 0.676474 cumulative IPC: 0.759273 (Simulation time: 14 hr 11 min 37 sec) 
 Total Blocks : 196608 Invalid Blocks : 0 Valid Blocks : 196608
 Total Tags : 491520 Threshold : 12288 Invalid Tags : 196609 Pr0 Tags : 98303 Pr1 Tags : 196608 num_pr0 : 12288
 SAE Count : 0
 Inter-Core Inteference in Data Store : 3822488
Heartbeat CPU 5 instructions: 180000001 cycles: 237082000 heartbeat IPC: 0.676437 cumulative IPC: 0.759231 (Simulation time: 14 hr 11 min 37 sec) 
 Total Blocks : 196608 Invalid Blocks : 0 Valid Blocks : 196608
 Total Tags : 491520 Threshold : 12288 Invalid Tags : 196609 Pr0 Tags : 98303 Pr1 Tags : 196608 num_pr0 : 12288
 SAE Count : 0
 Inter-Core Inteference in Data Store : 3822648
Heartbeat CPU 0 instructions: 180000001 cycles: 237282561 heartbeat IPC: 0.675107 cumulative IPC: 0.758589 (Simulation time: 14 hr 11 min 51 sec) 
 Total Blocks : 196608 Invalid Blocks : 0 Valid Blocks : 196608
 Total Tags : 491520 Threshold : 12288 Invalid Tags : 196609 Pr0 Tags : 98303 Pr1 Tags : 196608 num_pr0 : 12288
 SAE Count : 0
 Inter-Core Inteference in Data Store : 3825155
Heartbeat CPU 1 instructions: 180000001 cycles: 237282984 heartbeat IPC: 0.675108 cumulative IPC: 0.758588 (Simulation time: 14 hr 11 min 51 sec) 
 Total Blocks : 196608 Invalid Blocks : 0 Valid Blocks : 196608
 Total Tags : 491520 Threshold : 12288 Invalid Tags : 196610 Pr0 Tags : 98302 Pr1 Tags : 196608 num_pr0 : 12288
 SAE Count : 0
 Inter-Core Inteference in Data Store : 3825161
Heartbeat CPU 3 instructions: 180000001 cycles: 237284131 heartbeat IPC: 0.675111 cumulative IPC: 0.758584 (Simulation time: 14 hr 11 min 51 sec) 
 Total Blocks : 196608 Invalid Blocks : 0 Valid Blocks : 196608
 Total Tags : 491520 Threshold : 12288 Invalid Tags : 196609 Pr0 Tags : 98303 Pr1 Tags : 196608 num_pr0 : 12287
 SAE Count : 0
 Inter-Core Inteference in Data Store : 3825173
Heartbeat CPU 2 instructions: 180000001 cycles: 237286855 heartbeat IPC: 0.675116 cumulative IPC: 0.758575 (Simulation time: 14 hr 11 min 51 sec) 
 Total Blocks : 196608 Invalid Blocks : 0 Valid Blocks : 196608
 Total Tags : 491520 Threshold : 12288 Invalid Tags : 196609 Pr0 Tags : 98303 Pr1 Tags : 196608 num_pr0 : 12288
 SAE Count : 0
 Inter-Core Inteference in Data Store : 3825202
Heartbeat CPU 6 instructions: 190000002 cycles: 252827600 heartbeat IPC: 0.632798 cumulative IPC: 0.7515 (Simulation time: 14 hr 25 min 59 sec) 
 Total Blocks : 196608 Invalid Blocks : 0 Valid Blocks : 196608
 Total Tags : 491520 Threshold : 12288 Invalid Tags : 196609 Pr0 Tags : 98303 Pr1 Tags : 196608 num_pr0 : 12288
 SAE Count : 0
 Inter-Core Inteference in Data Store : 4057569
Heartbeat CPU 7 instructions: 190000002 cycles: 252833628 heartbeat IPC: 0.63282 cumulative IPC: 0.751482 (Simulation time: 14 hr 26 min 0 sec) 
 Total Blocks : 196608 Invalid Blocks : 0 Valid Blocks : 196608
 Total Tags : 491520 Threshold : 12288 Invalid Tags : 196608 Pr0 Tags : 98304 Pr1 Tags : 196608 num_pr0 : 12288
 SAE Count : 0
 Inter-Core Inteference in Data Store : 4057686
Heartbeat CPU 4 instructions: 190000002 cycles: 252877428 heartbeat IPC: 0.63257 cumulative IPC: 0.751352 (Simulation time: 14 hr 26 min 2 sec) 
 Total Blocks : 196608 Invalid Blocks : 0 Valid Blocks : 196608
 Total Tags : 491520 Threshold : 12288 Invalid Tags : 196610 Pr0 Tags : 98302 Pr1 Tags : 196608 num_pr0 : 12287
 SAE Count : 0
 Inter-Core Inteference in Data Store : 4058438
Heartbeat CPU 5 instructions: 190000002 cycles: 252890933 heartbeat IPC: 0.632554 cumulative IPC: 0.751312 (Simulation time: 14 hr 26 min 2 sec) 
 Total Blocks : 196608 Invalid Blocks : 0 Valid Blocks : 196608
 Total Tags : 491520 Threshold : 12288 Invalid Tags : 196610 Pr0 Tags : 98302 Pr1 Tags : 196608 num_pr0 : 12288
 SAE Count : 0
 Inter-Core Inteference in Data Store : 4058667
Heartbeat CPU 0 instructions: 190000002 cycles: 253110975 heartbeat IPC: 0.631775 cumulative IPC: 0.750659 (Simulation time: 14 hr 26 min 12 sec) 
 Total Blocks : 196608 Invalid Blocks : 0 Valid Blocks : 196608
 Total Tags : 491520 Threshold : 12288 Invalid Tags : 196610 Pr0 Tags : 98302 Pr1 Tags : 196608 num_pr0 : 12288
 SAE Count : 0
 Inter-Core Inteference in Data Store : 4062400
Heartbeat CPU 1 instructions: 190000002 cycles: 253111425 heartbeat IPC: 0.631774 cumulative IPC: 0.750658 (Simulation time: 14 hr 26 min 13 sec) 
 Total Blocks : 196608 Invalid Blocks : 0 Valid Blocks : 196608
 Total Tags : 491520 Threshold : 12288 Invalid Tags : 196609 Pr0 Tags : 98303 Pr1 Tags : 196608 num_pr0 : 12288
 SAE Count : 0
 Inter-Core Inteference in Data Store : 4062404
Heartbeat CPU 3 instructions: 190000002 cycles: 253112493 heartbeat IPC: 0.631777 cumulative IPC: 0.750654 (Simulation time: 14 hr 26 min 13 sec) 
 Total Blocks : 196608 Invalid Blocks : 0 Valid Blocks : 196608
 Total Tags : 491520 Threshold : 12288 Invalid Tags : 196609 Pr0 Tags : 98303 Pr1 Tags : 196608 num_pr0 : 12288
 SAE Count : 0
 Inter-Core Inteference in Data Store : 4062425
Heartbeat CPU 2 instructions: 190000002 cycles: 253115027 heartbeat IPC: 0.631785 cumulative IPC: 0.750647 (Simulation time: 14 hr 26 min 13 sec) 
 Total Blocks : 196608 Invalid Blocks : 0 Valid Blocks : 196608
 Total Tags : 491520 Threshold : 12288 Invalid Tags : 196609 Pr0 Tags : 98303 Pr1 Tags : 196608 num_pr0 : 12288
 SAE Count : 0
 Inter-Core Inteference in Data Store : 4062468
FILL
Heartbeat CPU 6 instructions: 200000001 cycles: 270568239 heartbeat IPC: 0.563677 cumulative IPC: 0.739185 (Simulation time: 14 hr 39 min 23 sec) 
 Total Blocks : 196608 Invalid Blocks : 0 Valid Blocks : 196608
 Total Tags : 491520 Threshold : 12288 Invalid Tags : 196608 Pr0 Tags : 98304 Pr1 Tags : 196608 num_pr0 : 12288
 SAE Count : 0
 Inter-Core Inteference in Data Store : 4298348
Heartbeat CPU 7 instructions: 200000001 cycles: 270574077 heartbeat IPC: 0.563684 cumulative IPC: 0.739169 (Simulation time: 14 hr 39 min 23 sec) 
 Total Blocks : 196608 Invalid Blocks : 0 Valid Blocks : 196608
 Total Tags : 491520 Threshold : 12288 Invalid Tags : 196608 Pr0 Tags : 98304 Pr1 Tags : 196608 num_pr0 : 12288
 SAE Count : 0
 Inter-Core Inteference in Data Store : 4298352
Heartbeat CPU 4 instructions: 200000001 cycles: 270631260 heartbeat IPC: 0.563259 cumulative IPC: 0.739013 (Simulation time: 14 hr 39 min 26 sec) 
 Total Blocks : 196608 Invalid Blocks : 0 Valid Blocks : 196608
 Total Tags : 491520 Threshold : 12288 Invalid Tags : 196608 Pr0 Tags : 98304 Pr1 Tags : 196608 num_pr0 : 12288
 SAE Count : 0
 Inter-Core Inteference in Data Store : 4298356
Heartbeat CPU 5 instructions: 200000001 cycles: 270644772 heartbeat IPC: 0.563258 cumulative IPC: 0.738976 (Simulation time: 14 hr 39 min 27 sec) 
 Total Blocks : 196608 Invalid Blocks : 0 Valid Blocks : 196608
 Total Tags : 491520 Threshold : 12288 Invalid Tags : 196608 Pr0 Tags : 98304 Pr1 Tags : 196608 num_pr0 : 12288
 SAE Count : 0
 Inter-Core Inteference in Data Store : 4298361
Heartbeat CPU 0 instructions: 200000001 cycles: 270864839 heartbeat IPC: 0.563258 cumulative IPC: 0.738376 (Simulation time: 14 hr 39 min 36 sec) 
 Total Blocks : 196608 Invalid Blocks : 0 Valid Blocks : 196608
 Total Tags : 491520 Threshold : 12288 Invalid Tags : 196608 Pr0 Tags : 98304 Pr1 Tags : 196608 num_pr0 : 12288
 SAE Count : 0
 Inter-Core Inteference in Data Store : 4298420
Heartbeat CPU 1 instructions: 200000001 cycles: 270865326 heartbeat IPC: 0.563256 cumulative IPC: 0.738374 (Simulation time: 14 hr 39 min 36 sec) 
 Total Blocks : 196608 Invalid Blocks : 0 Valid Blocks : 196608
 Total Tags : 491520 Threshold : 12288 Invalid Tags : 196608 Pr0 Tags : 98304 Pr1 Tags : 196608 num_pr0 : 12288
 SAE Count : 0
 Inter-Core Inteference in Data Store : 4298421
Heartbeat CPU 3 instructions: 200000001 cycles: 270866512 heartbeat IPC: 0.563253 cumulative IPC: 0.738371 (Simulation time: 14 hr 39 min 36 sec) 
 Total Blocks : 196608 Invalid Blocks : 0 Valid Blocks : 196608
 Total Tags : 491520 Threshold : 12288 Invalid Tags : 196608 Pr0 Tags : 98304 Pr1 Tags : 196608 num_pr0 : 12288
 SAE Count : 0
 Inter-Core Inteference in Data Store : 4298421
Heartbeat CPU 2 instructions: 200000001 cycles: 270868836 heartbeat IPC: 0.563259 cumulative IPC: 0.738365 (Simulation time: 14 hr 39 min 36 sec) 
 Total Blocks : 196608 Invalid Blocks : 0 Valid Blocks : 196608
 Total Tags : 491520 Threshold : 12288 Invalid Tags : 196608 Pr0 Tags : 98304 Pr1 Tags : 196608 num_pr0 : 12288
 SAE Count : 0
 Inter-Core Inteference in Data Store : 4298421

Warmup complete CPU 0 instructions: 200002349 cycles: 270868836 (Simulation time: 14 hr 39 min 36 sec) 
Warmup complete CPU 1 instructions: 200002040 cycles: 270868836 (Simulation time: 14 hr 39 min 36 sec) 
Warmup complete CPU 2 instructions: 200000001 cycles: 270868836 (Simulation time: 14 hr 39 min 36 sec) 
Warmup complete CPU 3 instructions: 200001443 cycles: 270868835 (Simulation time: 14 hr 39 min 36 sec) 
Warmup complete CPU 4 instructions: 200142315 cycles: 270868835 (Simulation time: 14 hr 39 min 36 sec) 
Warmup complete CPU 5 instructions: 200133989 cycles: 270868835 (Simulation time: 14 hr 39 min 36 sec) 
Warmup complete CPU 6 instructions: 200179510 cycles: 270868835 (Simulation time: 14 hr 39 min 36 sec) 
Warmup complete CPU 7 instructions: 200175976 cycles: 270868835 (Simulation time: 14 hr 39 min 36 sec) 

FILL
Heartbeat CPU 6 instructions: 210000000 cycles: 296015869 heartbeat IPC: 0.392964 cumulative IPC: 0.390523 (Simulation time: 15 hr 0 min 27 sec) 
 Total Blocks : 196608 Invalid Blocks : 0 Valid Blocks : 196608
 Total Tags : 491520 Threshold : 12288 Invalid Tags : 196608 Pr0 Tags : 98304 Pr1 Tags : 196608 num_pr0 : 12288
 SAE Count : 0
 Inter-Core Inteference in Data Store : 1810
Heartbeat CPU 7 instructions: 210000000 cycles: 296018876 heartbeat IPC: 0.393008 cumulative IPC: 0.390617 (Simulation time: 15 hr 0 min 30 sec) 
 Total Blocks : 196608 Invalid Blocks : 0 Valid Blocks : 196608
 Total Tags : 491520 Threshold : 12288 Invalid Tags : 196608 Pr0 Tags : 98304 Pr1 Tags : 196608 num_pr0 : 12288
 SAE Count : 0
 Inter-Core Inteference in Data Store : 1810
Heartbeat CPU 4 instructions: 210000000 cycles: 296138880 heartbeat IPC: 0.39204 cumulative IPC: 0.390094 (Simulation time: 15 hr 0 min 58 sec) 
 Total Blocks : 196608 Invalid Blocks : 0 Valid Blocks : 196608
 Total Tags : 491520 Threshold : 12288 Invalid Tags : 196608 Pr0 Tags : 98304 Pr1 Tags : 196608 num_pr0 : 12288
 SAE Count : 0
 Inter-Core Inteference in Data Store : 1810
Heartbeat CPU 5 instructions: 210000000 cycles: 296158314 heartbeat IPC: 0.391949 cumulative IPC: 0.390123 (Simulation time: 15 hr 1 min 4 sec) 
 Total Blocks : 196608 Invalid Blocks : 0 Valid Blocks : 196608
 Total Tags : 491520 Threshold : 12288 Invalid Tags : 196608 Pr0 Tags : 98304 Pr1 Tags : 196608 num_pr0 : 12288
 SAE Count : 0
 Inter-Core Inteference in Data Store : 1811
Heartbeat CPU 3 instructions: 210000000 cycles: 296587601 heartbeat IPC: 0.388786 cumulative IPC: 0.388765 (Simulation time: 15 hr 2 min 50 sec) 
 Total Blocks : 196608 Invalid Blocks : 0 Valid Blocks : 196608
 Total Tags : 491520 Threshold : 12288 Invalid Tags : 196608 Pr0 Tags : 98304 Pr1 Tags : 196608 num_pr0 : 12288
 SAE Count : 0
 Inter-Core Inteference in Data Store : 1816
Heartbeat CPU 0 instructions: 210000000 cycles: 296587652 heartbeat IPC: 0.38876 cumulative IPC: 0.388729 (Simulation time: 15 hr 2 min 52 sec) 
 Total Blocks : 196608 Invalid Blocks : 0 Valid Blocks : 196608
 Total Tags : 491520 Threshold : 12288 Invalid Tags : 196608 Pr0 Tags : 98304 Pr1 Tags : 196608 num_pr0 : 12288
 SAE Count : 0
 Inter-Core Inteference in Data Store : 1816
Heartbeat CPU 1 instructions: 210000000 cycles: 296587754 heartbeat IPC: 0.388766 cumulative IPC: 0.38874 (Simulation time: 15 hr 2 min 52 sec) 
 Total Blocks : 196608 Invalid Blocks : 0 Valid Blocks : 196608
 Total Tags : 491520 Threshold : 12288 Invalid Tags : 196608 Pr0 Tags : 98304 Pr1 Tags : 196608 num_pr0 : 12288
 SAE Count : 0
 Inter-Core Inteference in Data Store : 1816
Heartbeat CPU 2 instructions: 210000000 cycles: 296589165 heartbeat IPC: 0.388797 cumulative IPC: 0.388797 (Simulation time: 15 hr 2 min 52 sec) 
 Total Blocks : 196608 Invalid Blocks : 0 Valid Blocks : 196608
 Total Tags : 491520 Threshold : 12288 Invalid Tags : 196608 Pr0 Tags : 98304 Pr1 Tags : 196608 num_pr0 : 12288
 SAE Count : 0
 Inter-Core Inteference in Data Store : 1816
Heartbeat CPU 7 instructions: 220000000 cycles: 302483404 heartbeat IPC: 1.5469 cumulative IPC: 0.627053 (Simulation time: 15 hr 27 min 22 sec) 
 Total Blocks : 196608 Invalid Blocks : 0 Valid Blocks : 196608
 Total Tags : 491520 Threshold : 12288 Invalid Tags : 196608 Pr0 Tags : 98304 Pr1 Tags : 196608 num_pr0 : 12288
 SAE Count : 0
 Inter-Core Inteference in Data Store : 4369
Heartbeat CPU 6 instructions: 220000000 cycles: 302493163 heartbeat IPC: 1.54385 cumulative IPC: 0.626748 (Simulation time: 15 hr 27 min 24 sec) 
 Total Blocks : 196608 Invalid Blocks : 0 Valid Blocks : 196608
 Total Tags : 491520 Threshold : 12288 Invalid Tags : 196608 Pr0 Tags : 98304 Pr1 Tags : 196608 num_pr0 : 12288
 SAE Count : 0
 Inter-Core Inteference in Data Store : 4376
Heartbeat CPU 4 instructions: 220000000 cycles: 302618448 heartbeat IPC: 1.54331 cumulative IPC: 0.625446 (Simulation time: 15 hr 27 min 47 sec) 
 Total Blocks : 196608 Invalid Blocks : 0 Valid Blocks : 196608
 Total Tags : 491520 Threshold : 12288 Invalid Tags : 196608 Pr0 Tags : 98304 Pr1 Tags : 196608 num_pr0 : 12288
 SAE Count : 0
 Inter-Core Inteference in Data Store : 4594
Heartbeat CPU 5 instructions: 220000000 cycles: 302645301 heartbeat IPC: 1.54155 cumulative IPC: 0.62518 (Simulation time: 15 hr 27 min 52 sec) 
 Total Blocks : 196608 Invalid Blocks : 0 Valid Blocks : 196608
 Total Tags : 491520 Threshold : 12288 Invalid Tags : 196608 Pr0 Tags : 98304 Pr1 Tags : 196608 num_pr0 : 12288
 SAE Count : 0
 Inter-Core Inteference in Data Store : 4634
Heartbeat CPU 3 instructions: 220000000 cycles: 303055717 heartbeat IPC: 1.54605 cumulative IPC: 0.621326 (Simulation time: 15 hr 29 min 5 sec) 
 Total Blocks : 196608 Invalid Blocks : 0 Valid Blocks : 196608
 Total Tags : 491520 Threshold : 12288 Invalid Tags : 196608 Pr0 Tags : 98304 Pr1 Tags : 196608 num_pr0 : 12288
 SAE Count : 0
 Inter-Core Inteference in Data Store : 4970
Heartbeat CPU 0 instructions: 220000000 cycles: 303058233 heartbeat IPC: 1.54546 cumulative IPC: 0.62125 (Simulation time: 15 hr 29 min 5 sec) 
 Total Blocks : 196608 Invalid Blocks : 0 Valid Blocks : 196608
 Total Tags : 491520 Threshold : 12288 Invalid Tags : 196608 Pr0 Tags : 98304 Pr1 Tags : 196608 num_pr0 : 12288
 SAE Count : 0
 Inter-Core Inteference in Data Store : 4974
Heartbeat CPU 1 instructions: 220000000 cycles: 303062233 heartbeat IPC: 1.54453 cumulative IPC: 0.621182 (Simulation time: 15 hr 29 min 6 sec) 
 Total Blocks : 196608 Invalid Blocks : 0 Valid Blocks : 196608
 Total Tags : 491520 Threshold : 12288 Invalid Tags : 196608 Pr0 Tags : 98304 Pr1 Tags : 196608 num_pr0 : 12288
 SAE Count : 0
 Inter-Core Inteference in Data Store : 4980
Heartbeat CPU 2 instructions: 220000000 cycles: 303064546 heartbeat IPC: 1.54431 cumulative IPC: 0.621201 (Simulation time: 15 hr 29 min 6 sec) 
 Total Blocks : 196608 Invalid Blocks : 0 Valid Blocks : 196608
 Total Tags : 491520 Threshold : 12288 Invalid Tags : 196608 Pr0 Tags : 98304 Pr1 Tags : 196608 num_pr0 : 12288
 SAE Count : 0
 Inter-Core Inteference in Data Store : 4982
FILL
Heartbeat CPU 7 instructions: 230000000 cycles: 323528499 heartbeat IPC: 0.47517 cumulative IPC: 0.566354 (Simulation time: 15 hr 53 min 11 sec) 
 Total Blocks : 196608 Invalid Blocks : 0 Valid Blocks : 196608
 Total Tags : 491520 Threshold : 12288 Invalid Tags : 196608 Pr0 Tags : 98304 Pr1 Tags : 196608 num_pr0 : 12288
 SAE Count : 0
 Inter-Core Inteference in Data Store : 240457
Heartbeat CPU 6 instructions: 230000000 cycles: 323531072 heartbeat IPC: 0.475332 cumulative IPC: 0.566259 (Simulation time: 15 hr 53 min 12 sec) 
 Total Blocks : 196608 Invalid Blocks : 0 Valid Blocks : 196608
 Total Tags : 491520 Threshold : 12288 Invalid Tags : 196610 Pr0 Tags : 98302 Pr1 Tags : 196608 num_pr0 : 12288
 SAE Count : 0
 Inter-Core Inteference in Data Store : 240492
Heartbeat CPU 4 instructions: 230000000 cycles: 323681692 heartbeat IPC: 0.474761 cumulative IPC: 0.565349 (Simulation time: 15 hr 53 min 18 sec) 
 Total Blocks : 196608 Invalid Blocks : 0 Valid Blocks : 196608
 Total Tags : 491520 Threshold : 12288 Invalid Tags : 196608 Pr0 Tags : 98304 Pr1 Tags : 196608 num_pr0 : 12288
 SAE Count : 0
 Inter-Core Inteference in Data Store : 242616
Heartbeat CPU 5 instructions: 230000000 cycles: 323685973 heartbeat IPC: 0.47527 cumulative IPC: 0.565461 (Simulation time: 15 hr 53 min 18 sec) 
 Total Blocks : 196608 Invalid Blocks : 0 Valid Blocks : 196608
 Total Tags : 491520 Threshold : 12288 Invalid Tags : 196608 Pr0 Tags : 98304 Pr1 Tags : 196608 num_pr0 : 12288
 SAE Count : 0
 Inter-Core Inteference in Data Store : 242662
Heartbeat CPU 2 instructions: 230000000 cycles: 323963110 heartbeat IPC: 0.478502 cumulative IPC: 0.565033 (Simulation time: 15 hr 53 min 29 sec) 
 Total Blocks : 196608 Invalid Blocks : 0 Valid Blocks : 196608
 Total Tags : 491520 Threshold : 12288 Invalid Tags : 196612 Pr0 Tags : 98300 Pr1 Tags : 196608 num_pr0 : 12288
 SAE Count : 0
 Inter-Core Inteference in Data Store : 246763
Heartbeat CPU 3 instructions: 230000000 cycles: 323967790 heartbeat IPC: 0.478193 cumulative IPC: 0.564956 (Simulation time: 15 hr 53 min 29 sec) 
 Total Blocks : 196608 Invalid Blocks : 0 Valid Blocks : 196608
 Total Tags : 491520 Threshold : 12288 Invalid Tags : 196612 Pr0 Tags : 98300 Pr1 Tags : 196608 num_pr0 : 12287
 SAE Count : 0
 Inter-Core Inteference in Data Store : 246855
Heartbeat CPU 0 instructions: 230000000 cycles: 323968859 heartbeat IPC: 0.478226 cumulative IPC: 0.564927 (Simulation time: 15 hr 53 min 29 sec) 
 Total Blocks : 196608 Invalid Blocks : 0 Valid Blocks : 196608
 Total Tags : 491520 Threshold : 12288 Invalid Tags : 196612 Pr0 Tags : 98300 Pr1 Tags : 196608 num_pr0 : 12287
 SAE Count : 0
 Inter-Core Inteference in Data Store : 246873
Heartbeat CPU 1 instructions: 230000000 cycles: 323979693 heartbeat IPC: 0.47807 cumulative IPC: 0.564818 (Simulation time: 15 hr 53 min 29 sec) 
 Total Blocks : 196608 Invalid Blocks : 0 Valid Blocks : 196608
 Total Tags : 491520 Threshold : 12288 Invalid Tags : 196609 Pr0 Tags : 98303 Pr1 Tags : 196608 num_pr0 : 12288
 SAE Count : 0
 Inter-Core Inteference in Data Store : 247049
FILL
FILL
FILL
FILL
FILL
FILL
FILL
Heartbeat CPU 7 instructions: 240000000 cycles: 384035016 heartbeat IPC: 0.165271 cumulative IPC: 0.351907 (Simulation time: 16 hr 42 min 39 sec) 
 Total Blocks : 196608 Invalid Blocks : 0 Valid Blocks : 196608
 Total Tags : 491520 Threshold : 12288 Invalid Tags : 196610 Pr0 Tags : 98302 Pr1 Tags : 196608 num_pr0 : 12288
 SAE Count : 0
 Inter-Core Inteference in Data Store : 1182790
Heartbeat CPU 5 instructions: 240000000 cycles: 384069890 heartbeat IPC: 0.165607 cumulative IPC: 0.35217 (Simulation time: 16 hr 42 min 40 sec) 
 Total Blocks : 196608 Invalid Blocks : 0 Valid Blocks : 196608
 Total Tags : 491520 Threshold : 12288 Invalid Tags : 196609 Pr0 Tags : 98303 Pr1 Tags : 196608 num_pr0 : 12288
 SAE Count : 0
 Inter-Core Inteference in Data Store : 1182941
Heartbeat CPU 6 instructions: 240000000 cycles: 384201696 heartbeat IPC: 0.164824 cumulative IPC: 0.351359 (Simulation time: 16 hr 42 min 44 sec) 
 Total Blocks : 196608 Invalid Blocks : 0 Valid Blocks : 196608
 Total Tags : 491520 Threshold : 12288 Invalid Tags : 196608 Pr0 Tags : 98304 Pr1 Tags : 196608 num_pr0 : 12288
 SAE Count : 0
 Inter-Core Inteference in Data Store : 1183385
Heartbeat CPU 4 instructions: 240000000 cycles: 384369081 heartbeat IPC: 0.164779 cumulative IPC: 0.351168 (Simulation time: 16 hr 42 min 51 sec) 
 Total Blocks : 196608 Invalid Blocks : 0 Valid Blocks : 196608
 Total Tags : 491520 Threshold : 12288 Invalid Tags : 196608 Pr0 Tags : 98304 Pr1 Tags : 196608 num_pr0 : 12288
 SAE Count : 0
 Inter-Core Inteference in Data Store : 1183887
Heartbeat CPU 0 instructions: 240000000 cycles: 384595444 heartbeat IPC: 0.164944 cumulative IPC: 0.3517 (Simulation time: 16 hr 42 min 59 sec) 
 Total Blocks : 196608 Invalid Blocks : 0 Valid Blocks : 196608
 Total Tags : 491520 Threshold : 12288 Invalid Tags : 196608 Pr0 Tags : 98304 Pr1 Tags : 196608 num_pr0 : 12288
 SAE Count : 0
 Inter-Core Inteference in Data Store : 1184657
Heartbeat CPU 2 instructions: 240000000 cycles: 384614607 heartbeat IPC: 0.164876 cumulative IPC: 0.351661 (Simulation time: 16 hr 43 min 0 sec) 
 Total Blocks : 196608 Invalid Blocks : 0 Valid Blocks : 196608
 Total Tags : 491520 Threshold : 12288 Invalid Tags : 196608 Pr0 Tags : 98304 Pr1 Tags : 196608 num_pr0 : 12288
 SAE Count : 0
 Inter-Core Inteference in Data Store : 1184735
Heartbeat CPU 3 instructions: 240000000 cycles: 384669655 heartbeat IPC: 0.16474 cumulative IPC: 0.351479 (Simulation time: 16 hr 43 min 2 sec) 
 Total Blocks : 196608 Invalid Blocks : 0 Valid Blocks : 196608
 Total Tags : 491520 Threshold : 12288 Invalid Tags : 196610 Pr0 Tags : 98302 Pr1 Tags : 196608 num_pr0 : 12288
 SAE Count : 0
 Inter-Core Inteference in Data Store : 1184952
Heartbeat CPU 1 instructions: 240000000 cycles: 384732383 heartbeat IPC: 0.164602 cumulative IPC: 0.35128 (Simulation time: 16 hr 43 min 4 sec) 
 Total Blocks : 196608 Invalid Blocks : 0 Valid Blocks : 196608
 Total Tags : 491520 Threshold : 12288 Invalid Tags : 196610 Pr0 Tags : 98302 Pr1 Tags : 196608 num_pr0 : 12288
 SAE Count : 0
 Inter-Core Inteference in Data Store : 1185165
Heartbeat CPU 7 instructions: 250000001 cycles: 433864093 heartbeat IPC: 0.200686 cumulative IPC: 0.305678 (Simulation time: 17 hr 11 min 11 sec) 
 Total Blocks : 196608 Invalid Blocks : 0 Valid Blocks : 196608
 Total Tags : 491520 Threshold : 12288 Invalid Tags : 196608 Pr0 Tags : 98304 Pr1 Tags : 196608 num_pr0 : 12288
 SAE Count : 0
 Inter-Core Inteference in Data Store : 1368859
Heartbeat CPU 5 instructions: 250000001 cycles: 433894199 heartbeat IPC: 0.200705 cumulative IPC: 0.305879 (Simulation time: 17 hr 11 min 12 sec) 
 Total Blocks : 196608 Invalid Blocks : 0 Valid Blocks : 196608
 Total Tags : 491520 Threshold : 12288 Invalid Tags : 196608 Pr0 Tags : 98304 Pr1 Tags : 196608 num_pr0 : 12288
 SAE Count : 0
 Inter-Core Inteference in Data Store : 1368996
Heartbeat CPU 6 instructions: 250000001 cycles: 434364594 heartbeat IPC: 0.199351 cumulative IPC: 0.30472 (Simulation time: 17 hr 11 min 27 sec) 
 Total Blocks : 196608 Invalid Blocks : 0 Valid Blocks : 196608
 Total Tags : 491520 Threshold : 12288 Invalid Tags : 196609 Pr0 Tags : 98303 Pr1 Tags : 196608 num_pr0 : 12288
 SAE Count : 0
 Inter-Core Inteference in Data Store : 1370833
Heartbeat CPU 4 instructions: 250000001 cycles: 434536695 heartbeat IPC: 0.199332 cumulative IPC: 0.304627 (Simulation time: 17 hr 11 min 33 sec) 
 Total Blocks : 196608 Invalid Blocks : 0 Valid Blocks : 196608
 Total Tags : 491520 Threshold : 12288 Invalid Tags : 196609 Pr0 Tags : 98303 Pr1 Tags : 196608 num_pr0 : 12288
 SAE Count : 0
 Inter-Core Inteference in Data Store : 1371521
Heartbeat CPU 0 instructions: 250000001 cycles: 435622457 heartbeat IPC: 0.195975 cumulative IPC: 0.303469 (Simulation time: 17 hr 12 min 12 sec) 
 Total Blocks : 196608 Invalid Blocks : 0 Valid Blocks : 196608
 Total Tags : 491520 Threshold : 12288 Invalid Tags : 196608 Pr0 Tags : 98304 Pr1 Tags : 196608 num_pr0 : 12288
 SAE Count : 0
 Inter-Core Inteference in Data Store : 1375760
Heartbeat CPU 2 instructions: 250000001 cycles: 435628746 heartbeat IPC: 0.196024 cumulative IPC: 0.303472 (Simulation time: 17 hr 12 min 12 sec) 
 Total Blocks : 196608 Invalid Blocks : 0 Valid Blocks : 196608
[...]
LLC4 LOAD      ACCESS: 220214  HIT: 144402  MISS: 75812  HIT %: 65.5735  MISS %: 34.4265  AVERAGE MISS PENALTY: 369.552
LLC4 RFO       ACCESS: 28779  HIT:  3965  MISS: 24814  HIT %: 13.7774  MISS %: 86.2226  AVERAGE MISS PENALTY: 412.988
LLC4 PREFETCH  ACCESS: 845815  HIT: 379038  MISS: 466777  HIT %: 44.8133  MISS %: 55.1867  AVERAGE MISS PENALTY: 345.984
LLC4 WRITEBACK ACCESS: 74084  HIT: 14691  MISS: 59393  HIT %: 19.8302  MISS %: 80.1698  AVERAGE MISS PENALTY: 0
LLC4 PREFETCH  REQUESTED:     0  ISSUED:     0  USEFUL: 31112  USELESS: 75751
 USEFUL LOAD PREFETCHES:      31112 PREFETCH ISSUED TO LOWER LEVEL:   12238276  ACCURACY: 0.254219
 TIMELY PREFETCHES:      31112 LATE PREFETCHES: 0 DROPPED PREFETCHES: 0
LLC4 AVERAGE MISS LATENCY: 318.703 cycles

LLC4 Set Associative Eviction Count : 0
LLC4 Priority 0 entries : 12287
LLC4 Inter-Core Interference : 539299
LLC5 TOTAL     ACCESS: 1164203  HIT: 540329  MISS: 623874  HIT %: 46.4119  MISS %: 53.5881  AVERAGE MISS PENALTY: 316.317
LLC5 LOAD      ACCESS: 219578  HIT: 144255  MISS: 75323  HIT %: 65.6965  MISS %: 34.3035  AVERAGE MISS PENALTY: 364.948
LLC5 RFO       ACCESS: 28765  HIT:  4107  MISS: 24658  HIT %: 14.2778  MISS %: 85.7222  AVERAGE MISS PENALTY: 406.01
LLC5 PREFETCH  ACCESS: 841750  HIT: 376875  MISS: 464875  HIT %: 44.7728  MISS %: 55.2272  AVERAGE MISS PENALTY: 343.837
LLC5 WRITEBACK ACCESS: 74110  HIT: 15092  MISS: 59018  HIT %: 20.3643  MISS %: 79.6357  AVERAGE MISS PENALTY: 0
LLC5 PREFETCH  REQUESTED:     0  ISSUED:     0  USEFUL: 31500  USELESS: 74945
 USEFUL LOAD PREFETCHES:      31500 PREFETCH ISSUED TO LOWER LEVEL:   12779844  ACCURACY: 0.246482
 TIMELY PREFETCHES:      31500 LATE PREFETCHES: 0 DROPPED PREFETCHES: 0
LLC5 AVERAGE MISS LATENCY: 316.317 cycles

LLC5 Set Associative Eviction Count : 0
LLC5 Priority 0 entries : 12288
LLC5 Inter-Core Interference : 537401
LLC6 TOTAL     ACCESS: 1157007  HIT: 533493  MISS: 623514  HIT %: 46.1097  MISS %: 53.8903  AVERAGE MISS PENALTY: 319.116
LLC6 LOAD      ACCESS: 224927  HIT: 148458  MISS: 76469  HIT %: 66.0027  MISS %: 33.9973  AVERAGE MISS PENALTY: 366.147
LLC6 RFO       ACCESS: 28775  HIT:  4018  MISS: 24757  HIT %: 13.9635  MISS %: 86.0365  AVERAGE MISS PENALTY: 420.408
LLC6 PREFETCH  ACCESS: 829437  HIT: 366300  MISS: 463137  HIT %: 44.1625  MISS %: 55.8375  AVERAGE MISS PENALTY: 346.693
LLC6 WRITEBACK ACCESS: 73868  HIT: 14717  MISS: 59151  HIT %: 19.9234  MISS %: 80.0766  AVERAGE MISS PENALTY: 0
LLC6 PREFETCH  REQUESTED:     0  ISSUED:     0  USEFUL: 31023  USELESS: 74494
 USEFUL LOAD PREFETCHES:      31023 PREFETCH ISSUED TO LOWER LEVEL:   14148538  ACCURACY: 0.219266
 TIMELY PREFETCHES:      31023 LATE PREFETCHES: 0 DROPPED PREFETCHES: 0
LLC6 AVERAGE MISS LATENCY: 319.116 cycles

LLC6 Set Associative Eviction Count : 0
LLC6 Priority 0 entries : 12288
LLC6 Inter-Core Interference : 536601
LLC7 TOTAL     ACCESS: 1147449  HIT: 524261  MISS: 623188  HIT %: 45.6893  MISS %: 54.3107  AVERAGE MISS PENALTY: 315.415
LLC7 LOAD      ACCESS: 223258  HIT: 146503  MISS: 76755  HIT %: 65.6205  MISS %: 34.3795  AVERAGE MISS PENALTY: 364.369
LLC7 RFO       ACCESS: 28781  HIT:  4040  MISS: 24741  HIT %: 14.037  MISS %: 85.963  AVERAGE MISS PENALTY: 410.562
LLC7 PREFETCH  ACCESS: 821114  HIT: 358964  MISS: 462150  HIT %: 43.7167  MISS %: 56.2833  AVERAGE MISS PENALTY: 342.828
LLC7 WRITEBACK ACCESS: 74296  HIT: 14754  MISS: 59542  HIT %: 19.8584  MISS %: 80.1416  AVERAGE MISS PENALTY: 0
LLC7 PREFETCH  REQUESTED:     0  ISSUED:     0  USEFUL: 31000  USELESS: 73494
 USEFUL LOAD PREFETCHES:      31000 PREFETCH ISSUED TO LOWER LEVEL:   14656169  ACCURACY: 0.211515
 TIMELY PREFETCHES:      31000 LATE PREFETCHES: 0 DROPPED PREFETCHES: 0
LLC7 AVERAGE MISS LATENCY: 315.415 cycles

LLC7 Set Associative Eviction Count : 0
LLC7 Priority 0 entries : 12288
LLC7 Inter-Core Interference : 537815
ROI Average ROB Stall Cycles:	7.87253
ROI Total ROB Stalls Cycles:	576891833
ROI TOTAL ROB counter      :	73279133
ROI Average Load ROB Stall Cycles:	21.2854
ROI Total Load ROB Stalls Cycle  :	191537879
ROI Total Load ROB stalls Counter:	8998553
Major fault: 0 Minor fault: 27223

CPU 7 cumulative IPC: 0.274356 instructions: 200000000 cycles: 728980045
ITLB TOTAL     ACCESS: 30042213  HIT: 30042213  MISS:     0  HIT %:   100  MISS %:     0  AVERAGE MISS PENALTY: 0
ITLB LOAD      ACCESS: 30042213  HIT: 30042213  MISS:     0  HIT %:   100  MISS %:     0  AVERAGE MISS PENALTY: 0
ITLB RFO       ACCESS:     0  HIT:     0  MISS:     0  HIT %:     0  MISS %:     0  AVERAGE MISS PENALTY: 0
ITLB PREFETCH  ACCESS:     0  HIT:     0  MISS:     0  HIT %:     0  MISS %:     0  AVERAGE MISS PENALTY: 0
ITLB WRITEBACK ACCESS:     0  HIT:     0  MISS:     0  HIT %:     0  MISS %:     0  AVERAGE MISS PENALTY: 0
ITLB PREFETCH  REQUESTED:     0  ISSUED:     0  USEFUL:     0  USELESS:     0
 USEFUL LOAD PREFETCHES:          0 PREFETCH ISSUED TO LOWER LEVEL:          0  ACCURACY: -nan
 TIMELY PREFETCHES:          0 LATE PREFETCHES: 0 DROPPED PREFETCHES: 0
ITLB AVERAGE MISS LATENCY: -nan cycles

ITLB Set Associative Eviction Count : 0
ITLB Priority 0 entries : 0
ITLB Inter-Core Interference : 0
DTLB TOTAL     ACCESS: 39392920  HIT: 39132308  MISS: 260612  HIT %: 99.3384  MISS %: 0.661571  AVERAGE MISS PENALTY: 74.7268
DTLB LOAD      ACCESS: 33282999  HIT: 33030317  MISS: 252682  HIT %: 99.2408  MISS %: 0.759192  AVERAGE MISS PENALTY: 75.5065
DTLB RFO       ACCESS: 6109921  HIT: 6101991  MISS:  7930  HIT %: 99.8702  MISS %: 0.129789  AVERAGE MISS PENALTY: 49.8834
DTLB PREFETCH  ACCESS:     0  HIT:     0  MISS:     0  HIT %:     0  MISS %:     0  AVERAGE MISS PENALTY: 0
DTLB WRITEBACK ACCESS:     0  HIT:     0  MISS:     0  HIT %:     0  MISS %:     0  AVERAGE MISS PENALTY: 0
DTLB PREFETCH  REQUESTED:     0  ISSUED:     0  USEFUL:     0  USELESS:     0
 USEFUL LOAD PREFETCHES:          0 PREFETCH ISSUED TO LOWER LEVEL:          0  ACCURACY: -nan
 TIMELY PREFETCHES:          0 LATE PREFETCHES: 0 DROPPED PREFETCHES: 0
DTLB AVERAGE MISS LATENCY: 74.7268 cycles

DTLB Set Associative Eviction Count : 0
DTLB Priority 0 entries : 0
DTLB Inter-Core Interference : 0
STLB TOTAL     ACCESS: 260612  HIT: 95636  MISS: 164976  HIT %: 36.6967  MISS %: 63.3033  AVERAGE MISS PENALTY: 100
STLB LOAD      ACCESS: 252682  HIT: 90877  MISS: 161805  HIT %: 35.965  MISS %: 64.035  AVERAGE MISS PENALTY: 100
STLB RFO       ACCESS:  7930  HIT:  4759  MISS:  3171  HIT %: 60.0126  MISS %: 39.9874  AVERAGE MISS PENALTY: 100
STLB PREFETCH  ACCESS:     0  HIT:     0  MISS:     0  HIT %:     0  MISS %:     0  AVERAGE MISS PENALTY: 0
STLB WRITEBACK ACCESS:     0  HIT:     0  MISS:     0  HIT %:     0  MISS %:     0  AVERAGE MISS PENALTY: 0
STLB PREFETCH  REQUESTED:     0  ISSUED:     0  USEFUL:     0  USELESS:     0
 USEFUL LOAD PREFETCHES:          0 PREFETCH ISSUED TO LOWER LEVEL:          0  ACCURACY: -nan
 TIMELY PREFETCHES:          0 LATE PREFETCHES: 0 DROPPED PREFETCHES: 0
STLB AVERAGE MISS LATENCY: 100 cycles

STLB Set Associative Eviction Count : 0
STLB Priority 0 entries : 0
STLB Inter-Core Interference : 0
L1D TOTAL     ACCESS: 49318637  HIT: 40629317  MISS: 8689320  HIT %: 82.3813  MISS %: 17.6187  AVERAGE MISS PENALTY: 6.12055e+06
L1D LOAD      ACCESS: 32808967  HIT: 29777301  MISS: 3031666  HIT %: 90.7596  MISS %: 9.24036  AVERAGE MISS PENALTY: 1.75412e+07
L1D RFO       ACCESS: 4292570  HIT: 4056997  MISS: 235573  HIT %: 94.5121  MISS %: 5.48792  AVERAGE MISS PENALTY: 16097.9
L1D PREFETCH  ACCESS: 12217100  HIT: 6795019  MISS: 5422081  HIT %: 55.6189  MISS %: 44.3811  AVERAGE MISS PENALTY: 123.82
L1D WRITEBACK ACCESS:     0  HIT:     0  MISS:     0  HIT %:     0  MISS %:     0  AVERAGE MISS PENALTY: 0
L1D PREFETCH  REQUESTED: 16063300  ISSUED: 13847125  USEFUL: 2461428  USELESS: 2960289
 USEFUL LOAD PREFETCHES:    2461428 PREFETCH ISSUED TO LOWER LEVEL:   13910113  ACCURACY: 17.6952
 TIMELY PREFETCHES:    2461428 LATE PREFETCHES: 135557 DROPPED PREFETCHES: 2216175
L1D AVERAGE MISS LATENCY: 556.149 cycles

L1D Set Associative Eviction Count : 0
L1D Priority 0 entries : 0
L1D Inter-Core Interference : 0
L1I TOTAL     ACCESS: 47684578  HIT: 47684576  MISS:     2  HIT %:   100  MISS %: 4.19423e-06  AVERAGE MISS PENALTY: 344.5
L1I LOAD      ACCESS: 47684578  HIT: 47684576  MISS:     2  HIT %:   100  MISS %: 4.19423e-06  AVERAGE MISS PENALTY: 344.5
L1I RFO       ACCESS:     0  HIT:     0  MISS:     0  HIT %:     0  MISS %:     0  AVERAGE MISS PENALTY: 0
L1I PREFETCH  ACCESS:     0  HIT:     0  MISS:     0  HIT %:     0  MISS %:     0  AVERAGE MISS PENALTY: 0
L1I WRITEBACK ACCESS:     0  HIT:     0  MISS:     0  HIT %:     0  MISS %:     0  AVERAGE MISS PENALTY: 0
L1I PREFETCH  REQUESTED:     0  ISSUED:     0  USEFUL:     0  USELESS:     0
 USEFUL LOAD PREFETCHES:          0 PREFETCH ISSUED TO LOWER LEVEL:          0  ACCURACY: -nan
 TIMELY PREFETCHES:          0 LATE PREFETCHES: 0 DROPPED PREFETCHES: 0
L1I AVERAGE MISS LATENCY: 344.5 cycles

L1I Set Associative Eviction Count : 0
L1I Priority 0 entries : 0
L1I Inter-Core Interference : 2
L2C TOTAL     ACCESS: 15494845  HIT: 6688420  MISS: 8806425  HIT %: 43.1655  MISS %: 56.8345  AVERAGE MISS PENALTY: 6.89681e+06
L2C LOAD      ACCESS: 3023636  HIT: 1103966  MISS: 1919670  HIT %: 36.5112  MISS %: 63.4888  AVERAGE MISS PENALTY: 3.16381e+07
L2C RFO       ACCESS: 235567  HIT:  5851  MISS: 229716  HIT %: 2.48379  MISS %: 97.5162  AVERAGE MISS PENALTY: 392.51
L2C PREFETCH  ACCESS: 11637437  HIT: 5033105  MISS: 6604332  HIT %: 43.2493  MISS %: 56.7507  AVERAGE MISS PENALTY: 226.091
L2C WRITEBACK ACCESS: 598205  HIT: 545498  MISS: 52707  HIT %: 91.1891  MISS %: 8.81086  AVERAGE MISS PENALTY: 0
L2C PREFETCH  REQUESTED: 12268128  ISSUED: 12107298  USEFUL: 495951  USELESS: 6105174
 USEFUL LOAD PREFETCHES:     495951 PREFETCH ISSUED TO LOWER LEVEL:    7586559  ACCURACY: 6.53723
 TIMELY PREFETCHES:     495951 LATE PREFETCHES: 163279 DROPPED PREFETCHES: 160830
L2C AVERAGE MISS LATENCY: 216.465 cycles

L2C Set Associative Eviction Count : 0
L2C Priority 0 entries : 0
L2C Inter-Core Interference : 0
LLC0 TOTAL     ACCESS: 1168520  HIT: 555575  MISS: 612945  HIT %: 47.5452  MISS %: 52.4548  AVERAGE MISS PENALTY: 322.472
LLC0 LOAD      ACCESS: 260476  HIT: 148546  MISS: 111930  HIT %: 57.0287  MISS %: 42.9713  AVERAGE MISS PENALTY: 335.505
LLC0 RFO       ACCESS: 28717  HIT:  3957  MISS: 24760  HIT %: 13.7793  MISS %: 86.2207  AVERAGE MISS PENALTY: 407.745
LLC0 PREFETCH  ACCESS: 805231  HIT: 388399  MISS: 416832  HIT %: 48.2345  MISS %: 51.7655  AVERAGE MISS PENALTY: 359.878
LLC0 WRITEBACK ACCESS: 74096  HIT: 14673  MISS: 59423  HIT %: 19.8027  MISS %: 80.1973  AVERAGE MISS PENALTY: 0
LLC0 PREFETCH  REQUESTED:     0  ISSUED:     0  USEFUL: 32219  USELESS: 77464
 USEFUL LOAD PREFETCHES:      32219 PREFETCH ISSUED TO LOWER LEVEL:    9499013  ACCURACY: 0.339183
 TIMELY PREFETCHES:      32219 LATE PREFETCHES: 0 DROPPED PREFETCHES: 0
LLC0 AVERAGE MISS LATENCY: 322.472 cycles

LLC0 Set Associative Eviction Count : 0
LLC0 Priority 0 entries : 12288
LLC0 Inter-Core Interference : 543381
LLC1 TOTAL     ACCESS: 1183008  HIT: 561974  MISS: 621034  HIT %: 47.5038  MISS %: 52.4962  AVERAGE MISS PENALTY: 326.198
LLC1 LOAD      ACCESS: 234986  HIT: 155672  MISS: 79314  HIT %: 66.2474  MISS %: 33.7526  AVERAGE MISS PENALTY: 371.4
LLC1 RFO       ACCESS: 28724  HIT:  3940  MISS: 24784  HIT %: 13.7168  MISS %: 86.2832  AVERAGE MISS PENALTY: 408.138
LLC1 PREFETCH  ACCESS: 845128  HIT: 387550  MISS: 457578  HIT %: 45.857  MISS %: 54.143  AVERAGE MISS PENALTY: 356.239
LLC1 WRITEBACK ACCESS: 74170  HIT: 14812  MISS: 59358  HIT %: 19.9703  MISS %: 80.0297  AVERAGE MISS PENALTY: 0
LLC1 PREFETCH  REQUESTED:     0  ISSUED:     0  USEFUL: 32392  USELESS: 79858
 USEFUL LOAD PREFETCHES:      32392 PREFETCH ISSUED TO LOWER LEVEL:   10326442  ACCURACY: 0.31368
 TIMELY PREFETCHES:      32392 LATE PREFETCHES: 0 DROPPED PREFETCHES: 0
LLC1 AVERAGE MISS LATENCY: 326.198 cycles

LLC1 Set Associative Eviction Count : 0
LLC1 Priority 0 entries : 12288
LLC1 Inter-Core Interference : 544339
LLC2 TOTAL     ACCESS: 1179547  HIT: 553498  MISS: 626049  HIT %: 46.9246  MISS %: 53.0754  AVERAGE MISS PENALTY: 325.534
LLC2 LOAD      ACCESS: 226079  HIT: 148860  MISS: 77219  HIT %: 65.8442  MISS %: 34.1558  AVERAGE MISS PENALTY: 371.237
LLC2 RFO       ACCESS: 28729  HIT:  3915  MISS: 24814  HIT %: 13.6273  MISS %: 86.3727  AVERAGE MISS PENALTY: 410.061
LLC2 PREFETCH  ACCESS: 850575  HIT: 385959  MISS: 464616  HIT %: 45.3762  MISS %: 54.6238  AVERAGE MISS PENALTY: 355.043
LLC2 WRITEBACK ACCESS: 74164  HIT: 14764  MISS: 59400  HIT %: 19.9072  MISS %: 80.0928  AVERAGE MISS PENALTY: 0
LLC2 PREFETCH  REQUESTED:     0  ISSUED:     0  USEFUL: 31762  USELESS: 78837
 USEFUL LOAD PREFETCHES:      31762 PREFETCH ISSUED TO LOWER LEVEL:   10942045  ACCURACY: 0.290275
 TIMELY PREFETCHES:      31762 LATE PREFETCHES: 0 DROPPED PREFETCHES: 0
LLC2 AVERAGE MISS LATENCY: 325.534 cycles

LLC2 Set Associative Eviction Count : 0
LLC2 Priority 0 entries : 12288
LLC2 Inter-Core Interference : 543024
LLC3 TOTAL     ACCESS: 1173700  HIT: 548591  MISS: 625109  HIT %: 46.7403  MISS %: 53.2597  AVERAGE MISS PENALTY: 324.475
LLC3 LOAD      ACCESS: 221752  HIT: 145524  MISS: 76228  HIT %: 65.6247  MISS %: 34.3753  AVERAGE MISS PENALTY: 372.812
LLC3 RFO       ACCESS: 28717  HIT:  3932  MISS: 24785  HIT %: 13.6922  MISS %: 86.3078  AVERAGE MISS PENALTY: 415.353
LLC3 PREFETCH  ACCESS: 849087  HIT: 384276  MISS: 464811  HIT %: 45.2576  MISS %: 54.7424  AVERAGE MISS PENALTY: 353.088
LLC3 WRITEBACK ACCESS: 74144  HIT: 14859  MISS: 59285  HIT %: 20.0407  MISS %: 79.9593  AVERAGE MISS PENALTY: 0
LLC3 PREFETCH  REQUESTED:     0  ISSUED:     0  USEFUL: 31640  USELESS: 76609
 USEFUL LOAD PREFETCHES:      31640 PREFETCH ISSUED TO LOWER LEVEL:   11402870  ACCURACY: 0.277474
 TIMELY PREFETCHES:      31640 LATE PREFETCHES: 0 DROPPED PREFETCHES: 0
LLC3 AVERAGE MISS LATENCY: 324.475 cycles

LLC3 Set Associative Eviction Count : 0
LLC3 Priority 0 entries : 12288
LLC3 Inter-Core Interference : 540533
LLC4 TOTAL     ACCESS: 1169854  HIT: 544605  MISS: 625249  HIT %: 46.5532  MISS %: 53.4468  AVERAGE MISS PENALTY: 316.418
LLC4 LOAD      ACCESS: 220845  HIT: 145185  MISS: 75660  HIT %: 65.7407  MISS %: 34.2593  AVERAGE MISS PENALTY: 363.077
LLC4 RFO       ACCESS: 28710  HIT:  3898  MISS: 24812  HIT %: 13.5772  MISS %: 86.4228  AVERAGE MISS PENALTY: 410.285
LLC4 PREFETCH  ACCESS: 846286  HIT: 380754  MISS: 465532  HIT %: 44.9912  MISS %: 55.0088  AVERAGE MISS PENALTY: 344.1
LLC4 WRITEBACK ACCESS: 74013  HIT: 14768  MISS: 59245  HIT %: 19.9533  MISS %: 80.0467  AVERAGE MISS PENALTY: 0
LLC4 PREFETCH  REQUESTED:     0  ISSUED:     0  USEFUL: 31112  USELESS: 75751
 USEFUL LOAD PREFETCHES:      31112 PREFETCH ISSUED TO LOWER LEVEL:   12238276  ACCURACY: 0.254219
 TIMELY PREFETCHES:      31112 LATE PREFETCHES: 0 DROPPED PREFETCHES: 0
LLC4 AVERAGE MISS LATENCY: 316.418 cycles

LLC4 Set Associative Eviction Count : 0
LLC4 Priority 0 entries : 12287
LLC4 Inter-Core Interference : 539299
LLC5 TOTAL     ACCESS: 1164938  HIT: 542226  MISS: 622712  HIT %: 46.5455  MISS %: 53.4545  AVERAGE MISS PENALTY: 313.769
LLC5 LOAD      ACCESS: 219866  HIT: 144672  MISS: 75194  HIT %: 65.8001  MISS %: 34.1999  AVERAGE MISS PENALTY: 361.603
LLC5 RFO       ACCESS: 28703  HIT:  3943  MISS: 24760  HIT %: 13.7372  MISS %: 86.2628  AVERAGE MISS PENALTY: 403.198
LLC5 PREFETCH  ACCESS: 842341  HIT: 378722  MISS: 463619  HIT %: 44.9607  MISS %: 55.0393  AVERAGE MISS PENALTY: 341.259
LLC5 WRITEBACK ACCESS: 74028  HIT: 14889  MISS: 59139  HIT %: 20.1127  MISS %: 79.8873  AVERAGE MISS PENALTY: 0
LLC5 PREFETCH  REQUESTED:     0  ISSUED:     0  USEFUL: 31500  USELESS: 74945
 USEFUL LOAD PREFETCHES:      31500 PREFETCH ISSUED TO LOWER LEVEL:   12779844  ACCURACY: 0.246482
 TIMELY PREFETCHES:      31500 LATE PREFETCHES: 0 DROPPED PREFETCHES: 0
LLC5 AVERAGE MISS LATENCY: 313.769 cycles

LLC5 Set Associative Eviction Count : 0
LLC5 Priority 0 entries : 12288
LLC5 Inter-Core Interference : 537401
LLC6 TOTAL     ACCESS: 1158016  HIT: 535496  MISS: 622520  HIT %: 46.2425  MISS %: 53.7575  AVERAGE MISS PENALTY: 316.424
LLC6 LOAD      ACCESS: 225321  HIT: 149234  MISS: 76087  HIT %: 66.2317  MISS %: 33.7683  AVERAGE MISS PENALTY: 360.704
LLC6 RFO       ACCESS: 28703  HIT:  3859  MISS: 24844  HIT %: 13.4446  MISS %: 86.5554  AVERAGE MISS PENALTY: 416.769
LLC6 PREFETCH  ACCESS: 830202  HIT: 367824  MISS: 462378  HIT %: 44.3054  MISS %: 55.6946  AVERAGE MISS PENALTY: 344.267
LLC6 WRITEBACK ACCESS: 73790  HIT: 14579  MISS: 59211  HIT %: 19.7574  MISS %: 80.2426  AVERAGE MISS PENALTY: 0
LLC6 PREFETCH  REQUESTED:     0  ISSUED:     0  USEFUL: 31023  USELESS: 74494
 USEFUL LOAD PREFETCHES:      31023 PREFETCH ISSUED TO LOWER LEVEL:   14148538  ACCURACY: 0.219266
 TIMELY PREFETCHES:      31023 LATE PREFETCHES: 0 DROPPED PREFETCHES: 0
LLC6 AVERAGE MISS LATENCY: 316.424 cycles

LLC6 Set Associative Eviction Count : 0
LLC6 Priority 0 entries : 12288
LLC6 Inter-Core Interference : 536601
LLC7 TOTAL     ACCESS: 1148706  HIT: 527204  MISS: 621502  HIT %: 45.8955  MISS %: 54.1045  AVERAGE MISS PENALTY: 312.845
LLC7 LOAD      ACCESS: 223896  HIT: 147537  MISS: 76359  HIT %: 65.8953  MISS %: 34.1047  AVERAGE MISS PENALTY: 359.165
LLC7 RFO       ACCESS: 28713  HIT:  3949  MISS: 24764  HIT %: 13.7534  MISS %: 86.2466  AVERAGE MISS PENALTY: 402.692
LLC7 PREFETCH  ACCESS: 821883  HIT: 360850  MISS: 461033  HIT %: 43.9053  MISS %: 56.0947  AVERAGE MISS PENALTY: 340.618
LLC7 WRITEBACK ACCESS: 74214  HIT: 14868  MISS: 59346  HIT %: 20.034  MISS %: 79.966  AVERAGE MISS PENALTY: 0
LLC7 PREFETCH  REQUESTED:     0  ISSUED:     0  USEFUL: 31000  USELESS: 73494
 USEFUL LOAD PREFETCHES:      31000 PREFETCH ISSUED TO LOWER LEVEL:   14656169  ACCURACY: 0.211515
 TIMELY PREFETCHES:      31000 LATE PREFETCHES: 0 DROPPED PREFETCHES: 0
LLC7 AVERAGE MISS LATENCY: 312.845 cycles

LLC7 Set Associative Eviction Count : 0
LLC7 Priority 0 entries : 12288
LLC7 Inter-Core Interference : 537815
ROI Average ROB Stall Cycles:	7.86733
ROI Total ROB Stalls Cycles:	576515340
ROI TOTAL ROB counter      :	73279714
ROI Average Load ROB Stall Cycles:	21.264
ROI Total Load ROB Stalls Cycle  :	191371583
ROI Total Load ROB stalls Counter:	8999812
Major fault: 0 Minor fault: 27223








Interconnect Stats 
LINK 0 BW : 0LINK 1 BW : 0LINK 2 BW : 0LINK 3 BW : 0LINK 4 BW : 0LINK 5 BW : 0LINK 6 BW : 0LINK 7 BW : 0
DRAM Statistics
 CHANNEL 0
 RQ ROW_BUFFER_HIT: 4074574  ROW_BUFFER_MISS: 14022506
 DBUS_CONGESTED: 10702893
 WQ ROW_BUFFER_HIT: 87318  ROW_BUFFER_MISS: 1981498  FULL: 37558

 CHANNEL 1
 RQ ROW_BUFFER_HIT: 4056186  ROW_BUFFER_MISS: 14078191
 DBUS_CONGESTED: 10702893
 WQ ROW_BUFFER_HIT: 87042  ROW_BUFFER_MISS: 1983608  FULL: 37835

 AVG_CONGESTED_CYCLE: 5
DRAM PAGES: 2097152
Allocated PAGES: 217778
L2C destructor called
L1D destructor called
L1I destructor called
STLB destructor called
DTLB destructor called
ITLB destructor called
L2C destructor called
L1D destructor called
L1I destructor called
STLB destructor called
DTLB destructor called
ITLB destructor called
L2C destructor called
L1D destructor called
L1I destructor called
STLB destructor called
DTLB destructor called
ITLB destructor called
L2C destructor called
L1D destructor called
L1I destructor called
STLB destructor called
DTLB destructor called
ITLB destructor called
L2C destructor called
L1D destructor called
L1I destructor called
STLB destructor called
DTLB destructor called
ITLB destructor called
L2C destructor called
L1D destructor called
L1I destructor called
STLB destructor called
DTLB destructor called
ITLB destructor called
L2C destructor called
L1D destructor called
L1I destructor called
STLB destructor called
DTLB destructor called
ITLB destructor called
L2C destructor called
L1D destructor called
L1I destructor called
STLB destructor called
DTLB destructor called
ITLB destructor called
