
*** ChampSim Multicore Out-of-Order Simulator ***

Warmup Instructions: 200000000
Simulation Instructions: 200000000
Number of CPUs: 8
threads:1

L1I Configuration:
L1I_SET:64
L1I_WAY:8
L1I_RQ_SIZE:64
L1I_WQ_SIZE:64
L1I_PQ_SIZE:8
L1I_MSHR_SIZE:8

L1D Configuration:
L1D_SET:64
L1D_WAY:12
L1D_RQ_SIZE:64
L1D_WQ_SIZE:64
L1D_PQ_SIZE:8
L1D_MSHR_SIZE:16

L2C Configuration:
L2C_SET:1024
L2C_WAY:8
L2C_RQ_SIZE:32
L2C_WQ_SIZE:32
L2C_PQ_SIZE:16
L2C_MSHR_SIZE:32

LLC Configuration:
LLC_SET:2048
LLC_WAY:12
LLC SLICES:8
LLC_RQ_SIZE:64
LLC_WQ_SIZE:64
LLC_PQ_SIZE:32
LLC_MSHR_SIZE:64

Interconnect OFF
Attacker deprioritize is: OFF
Off-chip DRAM Size: 8192 MB Channels: 2 Width: 64-bit Data Rate: 3200 MT/s
PAGE SIZE in KB: 4.000000 
PAGE SIZE in MB: 0.003906 
PAGE offset in bits: 12 
CEASER-S_LLC:0
MIRAGE : 1
CEASER_LATENCY:3
REMAP : OFF
Partitions : 1
Multi-Step : OFF
BFS : OFF

CPU 0 runs /home/anubhav/gap/bfs-3.trace.gz
CPU 1 runs /home/anubhav/gap/bfs-3.trace.gz
CPU 2 runs /home/anubhav/gap/bfs-3.trace.gz
CPU 3 runs /home/anubhav/gap/bfs-3.trace.gz
CPU 4 runs /home/anubhav/gap/bfs-3.trace.gz
CPU 5 runs /home/anubhav/gap/bfs-3.trace.gz
CPU 6 runs /home/anubhav/gap/bfs-3.trace.gz
CPU 7 runs /home/anubhav/gap/bfs-3.trace.gz
CPU 0 Bimodal branch predictor
Initialize Hawkeye state
Initialize Hawkeye state
Initialize Hawkeye state
Initialize Hawkeye state
Initialize Hawkeye state
Initialize Hawkeye state
Initialize Hawkeye state
Initialize Hawkeye state
CPU 1 Bimodal branch predictor
Initialize Hawkeye state
Initialize Hawkeye state
Initialize Hawkeye state
Initialize Hawkeye state
Initialize Hawkeye state
Initialize Hawkeye state
Initialize Hawkeye state
Initialize Hawkeye state
CPU 2 Bimodal branch predictor
Initialize Hawkeye state
Initialize Hawkeye state
Initialize Hawkeye state
Initialize Hawkeye state
Initialize Hawkeye state
Initialize Hawkeye state
Initialize Hawkeye state
Initialize Hawkeye state
CPU 3 Bimodal branch predictor
Initialize Hawkeye state
Initialize Hawkeye state
Initialize Hawkeye state
Initialize Hawkeye state
Initialize Hawkeye state
Initialize Hawkeye state
Initialize Hawkeye state
Initialize Hawkeye state
CPU 4 Bimodal branch predictor
Initialize Hawkeye state
Initialize Hawkeye state
Initialize Hawkeye state
Initialize Hawkeye state
Initialize Hawkeye state
Initialize Hawkeye state
Initialize Hawkeye state
Initialize Hawkeye state
CPU 5 Bimodal branch predictor
Initialize Hawkeye state
Initialize Hawkeye state
Initialize Hawkeye state
Initialize Hawkeye state
Initialize Hawkeye state
Initialize Hawkeye state
Initialize Hawkeye state
Initialize Hawkeye state
CPU 6 Bimodal branch predictor
Initialize Hawkeye state
Initialize Hawkeye state
Initialize Hawkeye state
Initialize Hawkeye state
Initialize Hawkeye state
Initialize Hawkeye state
Initialize Hawkeye state
Initialize Hawkeye state
CPU 7 Bimodal branch predictor
Initialize Hawkeye state
Initialize Hawkeye state
Initialize Hawkeye state
Initialize Hawkeye state
Initialize Hawkeye state
Initialize Hawkeye state
Initialize Hawkeye state
Initialize Hawkeye state
Heartbeat CPU 0 instructions: 10000003 cycles: 14677576 heartbeat IPC: 0.681312 cumulative IPC: 0.681312 (Simulation time: 0 hr 24 min 50 sec) 
 Total Blocks : 196608 Invalid Blocks : 14878 Valid Blocks : 181730
 Total Tags : 491520 Threshold : 12288 Invalid Tags : 211496 Pr0 Tags : 98294 Pr1 Tags : 181730 num_pr0 : 12286
 SAE Count : 0
 Inter-Core Inteference in Data Store : 283582
Heartbeat CPU 1 instructions: 10000003 cycles: 14677582 heartbeat IPC: 0.681311 cumulative IPC: 0.681311 (Simulation time: 0 hr 24 min 50 sec) 
 Total Blocks : 196608 Invalid Blocks : 14878 Valid Blocks : 181730
 Total Tags : 491520 Threshold : 12288 Invalid Tags : 211496 Pr0 Tags : 98294 Pr1 Tags : 181730 num_pr0 : 12286
 SAE Count : 0
 Inter-Core Inteference in Data Store : 283582
Heartbeat CPU 2 instructions: 10000003 cycles: 14677588 heartbeat IPC: 0.681311 cumulative IPC: 0.681311 (Simulation time: 0 hr 24 min 50 sec) 
 Total Blocks : 196608 Invalid Blocks : 14878 Valid Blocks : 181730
 Total Tags : 491520 Threshold : 12288 Invalid Tags : 211496 Pr0 Tags : 98294 Pr1 Tags : 181730 num_pr0 : 12286
 SAE Count : 0
 Inter-Core Inteference in Data Store : 283582
Heartbeat CPU 3 instructions: 10000003 cycles: 14677591 heartbeat IPC: 0.681311 cumulative IPC: 0.681311 (Simulation time: 0 hr 24 min 50 sec) 
 Total Blocks : 196608 Invalid Blocks : 14878 Valid Blocks : 181730
 Total Tags : 491520 Threshold : 12288 Invalid Tags : 211496 Pr0 Tags : 98294 Pr1 Tags : 181730 num_pr0 : 12286
 SAE Count : 0
 Inter-Core Inteference in Data Store : 283582
Heartbeat CPU 4 instructions: 10000003 cycles: 14677595 heartbeat IPC: 0.681311 cumulative IPC: 0.681311 (Simulation time: 0 hr 24 min 50 sec) 
 Total Blocks : 196608 Invalid Blocks : 14878 Valid Blocks : 181730
 Total Tags : 491520 Threshold : 12288 Invalid Tags : 211496 Pr0 Tags : 98294 Pr1 Tags : 181730 num_pr0 : 12286
 SAE Count : 0
 Inter-Core Inteference in Data Store : 283582
Heartbeat CPU 5 instructions: 10000003 cycles: 14677598 heartbeat IPC: 0.681311 cumulative IPC: 0.681311 (Simulation time: 0 hr 24 min 50 sec) 
 Total Blocks : 196608 Invalid Blocks : 14878 Valid Blocks : 181730
 Total Tags : 491520 Threshold : 12288 Invalid Tags : 211496 Pr0 Tags : 98294 Pr1 Tags : 181730 num_pr0 : 12286
 SAE Count : 0
 Inter-Core Inteference in Data Store : 283582
Heartbeat CPU 6 instructions: 10000003 cycles: 14677601 heartbeat IPC: 0.68131 cumulative IPC: 0.68131 (Simulation time: 0 hr 24 min 51 sec) 
 Total Blocks : 196608 Invalid Blocks : 14878 Valid Blocks : 181730
 Total Tags : 491520 Threshold : 12288 Invalid Tags : 211496 Pr0 Tags : 98294 Pr1 Tags : 181730 num_pr0 : 12286
 SAE Count : 0
 Inter-Core Inteference in Data Store : 283582
Heartbeat CPU 7 instructions: 10000003 cycles: 14677604 heartbeat IPC: 0.68131 cumulative IPC: 0.68131 (Simulation time: 0 hr 24 min 51 sec) 
 Total Blocks : 196608 Invalid Blocks : 14878 Valid Blocks : 181730
 Total Tags : 491520 Threshold : 12288 Invalid Tags : 211496 Pr0 Tags : 98294 Pr1 Tags : 181730 num_pr0 : 12286
 SAE Count : 0
 Inter-Core Inteference in Data Store : 283582
Heartbeat CPU 4 instructions: 20000002 cycles: 27836341 heartbeat IPC: 0.759951 cumulative IPC: 0.718485 (Simulation time: 1 hr 59 min 11 sec) 
 Total Blocks : 196608 Invalid Blocks : 4594 Valid Blocks : 192014
 Total Tags : 491520 Threshold : 12288 Invalid Tags : 201202 Pr0 Tags : 98304 Pr1 Tags : 192014 num_pr0 : 12288
 SAE Count : 0
 Inter-Core Inteference in Data Store : 477319
Heartbeat CPU 5 instructions: 20000002 cycles: 27836402 heartbeat IPC: 0.759947 cumulative IPC: 0.718484 (Simulation time: 1 hr 59 min 11 sec) 
 Total Blocks : 196608 Invalid Blocks : 4594 Valid Blocks : 192014
 Total Tags : 491520 Threshold : 12288 Invalid Tags : 201202 Pr0 Tags : 98304 Pr1 Tags : 192014 num_pr0 : 12288
 SAE Count : 0
 Inter-Core Inteference in Data Store : 477319
Heartbeat CPU 6 instructions: 20000002 cycles: 27836687 heartbeat IPC: 0.759931 cumulative IPC: 0.718476 (Simulation time: 1 hr 59 min 11 sec) 
 Total Blocks : 196608 Invalid Blocks : 4594 Valid Blocks : 192014
 Total Tags : 491520 Threshold : 12288 Invalid Tags : 201202 Pr0 Tags : 98304 Pr1 Tags : 192014 num_pr0 : 12288
 SAE Count : 0
 Inter-Core Inteference in Data Store : 477322
Heartbeat CPU 7 instructions: 20000002 cycles: 27837127 heartbeat IPC: 0.759906 cumulative IPC: 0.718465 (Simulation time: 1 hr 59 min 12 sec) 
 Total Blocks : 196608 Invalid Blocks : 4594 Valid Blocks : 192014
 Total Tags : 491520 Threshold : 12288 Invalid Tags : 201202 Pr0 Tags : 98304 Pr1 Tags : 192014 num_pr0 : 12288
 SAE Count : 0
 Inter-Core Inteference in Data Store : 477324
Heartbeat CPU 2 instructions: 20000002 cycles: 27848026 heartbeat IPC: 0.759276 cumulative IPC: 0.718184 (Simulation time: 1 hr 59 min 18 sec) 
 Total Blocks : 196608 Invalid Blocks : 4589 Valid Blocks : 192019
 Total Tags : 491520 Threshold : 12288 Invalid Tags : 201197 Pr0 Tags : 98304 Pr1 Tags : 192019 num_pr0 : 12288
 SAE Count : 0
 Inter-Core Inteference in Data Store : 477455
Heartbeat CPU 3 instructions: 20000002 cycles: 27848049 heartbeat IPC: 0.759275 cumulative IPC: 0.718183 (Simulation time: 1 hr 59 min 18 sec) 
 Total Blocks : 196608 Invalid Blocks : 4589 Valid Blocks : 192019
 Total Tags : 491520 Threshold : 12288 Invalid Tags : 201198 Pr0 Tags : 98303 Pr1 Tags : 192019 num_pr0 : 12288
 SAE Count : 0
 Inter-Core Inteference in Data Store : 477456
Heartbeat CPU 0 instructions: 20000002 cycles: 27848108 heartbeat IPC: 0.759271 cumulative IPC: 0.718182 (Simulation time: 1 hr 59 min 18 sec) 
 Total Blocks : 196608 Invalid Blocks : 4589 Valid Blocks : 192019
 Total Tags : 491520 Threshold : 12288 Invalid Tags : 201199 Pr0 Tags : 98302 Pr1 Tags : 192019 num_pr0 : 12287
 SAE Count : 0
 Inter-Core Inteference in Data Store : 477457
Heartbeat CPU 1 instructions: 20000002 cycles: 27848109 heartbeat IPC: 0.759271 cumulative IPC: 0.718182 (Simulation time: 1 hr 59 min 18 sec) 
 Total Blocks : 196608 Invalid Blocks : 4589 Valid Blocks : 192019
 Total Tags : 491520 Threshold : 12288 Invalid Tags : 201199 Pr0 Tags : 98302 Pr1 Tags : 192019 num_pr0 : 12287
 SAE Count : 0
 Inter-Core Inteference in Data Store : 477457
Heartbeat CPU 4 instructions: 30000000 cycles: 41085655 heartbeat IPC: 0.754756 cumulative IPC: 0.730182 (Simulation time: 4 hr 32 min 47 sec) 
 Total Blocks : 196608 Invalid Blocks : 2090 Valid Blocks : 194518
 Total Tags : 491520 Threshold : 12288 Invalid Tags : 198700 Pr0 Tags : 98302 Pr1 Tags : 194518 num_pr0 : 12288
 SAE Count : 0
 Inter-Core Inteference in Data Store : 614708
Heartbeat CPU 5 instructions: 30000000 cycles: 41085711 heartbeat IPC: 0.754756 cumulative IPC: 0.730181 (Simulation time: 4 hr 32 min 47 sec) 
 Total Blocks : 196608 Invalid Blocks : 2090 Valid Blocks : 194518
 Total Tags : 491520 Threshold : 12288 Invalid Tags : 198698 Pr0 Tags : 98304 Pr1 Tags : 194518 num_pr0 : 12288
 SAE Count : 0
 Inter-Core Inteference in Data Store : 614708
Heartbeat CPU 6 instructions: 30000000 cycles: 41085855 heartbeat IPC: 0.754764 cumulative IPC: 0.730178 (Simulation time: 4 hr 32 min 47 sec) 
 Total Blocks : 196608 Invalid Blocks : 2090 Valid Blocks : 194518
 Total Tags : 491520 Threshold : 12288 Invalid Tags : 198698 Pr0 Tags : 98304 Pr1 Tags : 194518 num_pr0 : 12288
 SAE Count : 0
 Inter-Core Inteference in Data Store : 614708
Heartbeat CPU 7 instructions: 30000000 cycles: 41086098 heartbeat IPC: 0.754775 cumulative IPC: 0.730174 (Simulation time: 4 hr 32 min 48 sec) 
 Total Blocks : 196608 Invalid Blocks : 2090 Valid Blocks : 194518
 Total Tags : 491520 Threshold : 12288 Invalid Tags : 198698 Pr0 Tags : 98304 Pr1 Tags : 194518 num_pr0 : 12288
 SAE Count : 0
 Inter-Core Inteference in Data Store : 614710
Heartbeat CPU 2 instructions: 30000000 cycles: 41108918 heartbeat IPC: 0.754097 cumulative IPC: 0.729769 (Simulation time: 4 hr 33 min 7 sec) 
 Total Blocks : 196608 Invalid Blocks : 2089 Valid Blocks : 194519
 Total Tags : 491520 Threshold : 12288 Invalid Tags : 198697 Pr0 Tags : 98304 Pr1 Tags : 194519 num_pr0 : 12288
 SAE Count : 0
 Inter-Core Inteference in Data Store : 614899
Heartbeat CPU 3 instructions: 30000000 cycles: 41108938 heartbeat IPC: 0.754097 cumulative IPC: 0.729768 (Simulation time: 4 hr 33 min 7 sec) 
 Total Blocks : 196608 Invalid Blocks : 2089 Valid Blocks : 194519
 Total Tags : 491520 Threshold : 12288 Invalid Tags : 198697 Pr0 Tags : 98304 Pr1 Tags : 194519 num_pr0 : 12288
 SAE Count : 0
 Inter-Core Inteference in Data Store : 614899
Heartbeat CPU 0 instructions: 30000000 cycles: 41109042 heartbeat IPC: 0.754095 cumulative IPC: 0.729766 (Simulation time: 4 hr 33 min 7 sec) 
 Total Blocks : 196608 Invalid Blocks : 2089 Valid Blocks : 194519
 Total Tags : 491520 Threshold : 12288 Invalid Tags : 198697 Pr0 Tags : 98304 Pr1 Tags : 194519 num_pr0 : 12288
 SAE Count : 0
 Inter-Core Inteference in Data Store : 614899
Heartbeat CPU 1 instructions: 30000000 cycles: 41109051 heartbeat IPC: 0.754094 cumulative IPC: 0.729766 (Simulation time: 4 hr 33 min 7 sec) 
 Total Blocks : 196608 Invalid Blocks : 2089 Valid Blocks : 194519
 Total Tags : 491520 Threshold : 12288 Invalid Tags : 198697 Pr0 Tags : 98304 Pr1 Tags : 194519 num_pr0 : 12288
 SAE Count : 0
 Inter-Core Inteference in Data Store : 614899
Heartbeat CPU 4 instructions: 40000000 cycles: 54324217 heartbeat IPC: 0.755369 cumulative IPC: 0.73632 (Simulation time: 8 hr 3 min 8 sec) 
 Total Blocks : 196608 Invalid Blocks : 923 Valid Blocks : 195685
 Total Tags : 491520 Threshold : 12288 Invalid Tags : 197531 Pr0 Tags : 98304 Pr1 Tags : 195685 num_pr0 : 12288
 SAE Count : 0
 Inter-Core Inteference in Data Store : 756011
Heartbeat CPU 5 instructions: 40000000 cycles: 54324296 heartbeat IPC: 0.755368 cumulative IPC: 0.736319 (Simulation time: 8 hr 3 min 8 sec) 
 Total Blocks : 196608 Invalid Blocks : 923 Valid Blocks : 195685
 Total Tags : 491520 Threshold : 12288 Invalid Tags : 197531 Pr0 Tags : 98304 Pr1 Tags : 195685 num_pr0 : 12288
 SAE Count : 0
 Inter-Core Inteference in Data Store : 756011
Heartbeat CPU 6 instructions: 40000000 cycles: 54324453 heartbeat IPC: 0.755367 cumulative IPC: 0.736317 (Simulation time: 8 hr 3 min 8 sec) 
 Total Blocks : 196608 Invalid Blocks : 923 Valid Blocks : 195685
 Total Tags : 491520 Threshold : 12288 Invalid Tags : 197533 Pr0 Tags : 98302 Pr1 Tags : 195685 num_pr0 : 12288
 SAE Count : 0
 Inter-Core Inteference in Data Store : 756013
Heartbeat CPU 7 instructions: 40000000 cycles: 54324472 heartbeat IPC: 0.75538 cumulative IPC: 0.736316 (Simulation time: 8 hr 3 min 8 sec) 
 Total Blocks : 196608 Invalid Blocks : 923 Valid Blocks : 195685
 Total Tags : 491520 Threshold : 12288 Invalid Tags : 197533 Pr0 Tags : 98302 Pr1 Tags : 195685 num_pr0 : 12288
 SAE Count : 0
 Inter-Core Inteference in Data Store : 756013
Heartbeat CPU 2 instructions: 40000000 cycles: 54358995 heartbeat IPC: 0.754713 cumulative IPC: 0.735849 (Simulation time: 8 hr 3 min 42 sec) 
 Total Blocks : 196608 Invalid Blocks : 921 Valid Blocks : 195687
 Total Tags : 491520 Threshold : 12288 Invalid Tags : 197531 Pr0 Tags : 98302 Pr1 Tags : 195687 num_pr0 : 12288
 SAE Count : 0
 Inter-Core Inteference in Data Store : 756292
Heartbeat CPU 3 instructions: 40000000 cycles: 54359063 heartbeat IPC: 0.75471 cumulative IPC: 0.735848 (Simulation time: 8 hr 3 min 42 sec) 
 Total Blocks : 196608 Invalid Blocks : 921 Valid Blocks : 195687
 Total Tags : 491520 Threshold : 12288 Invalid Tags : 197530 Pr0 Tags : 98303 Pr1 Tags : 195687 num_pr0 : 12288
 SAE Count : 0
 Inter-Core Inteference in Data Store : 756292
Heartbeat CPU 0 instructions: 40000000 cycles: 54359108 heartbeat IPC: 0.754713 cumulative IPC: 0.735847 (Simulation time: 8 hr 3 min 42 sec) 
 Total Blocks : 196608 Invalid Blocks : 921 Valid Blocks : 195687
 Total Tags : 491520 Threshold : 12288 Invalid Tags : 197529 Pr0 Tags : 98304 Pr1 Tags : 195687 num_pr0 : 12288
 SAE Count : 0
 Inter-Core Inteference in Data Store : 756292
Heartbeat CPU 1 instructions: 40000000 cycles: 54359192 heartbeat IPC: 0.754709 cumulative IPC: 0.735846 (Simulation time: 8 hr 3 min 42 sec) 
 Total Blocks : 196608 Invalid Blocks : 921 Valid Blocks : 195687
 Total Tags : 491520 Threshold : 12288 Invalid Tags : 197529 Pr0 Tags : 98304 Pr1 Tags : 195687 num_pr0 : 12288
 SAE Count : 0
 Inter-Core Inteference in Data Store : 756292
Heartbeat CPU 6 instructions: 50000000 cycles: 69853786 heartbeat IPC: 0.643943 cumulative IPC: 0.715781 (Simulation time: 10 hr 14 min 26 sec) 
 Total Blocks : 196608 Invalid Blocks : 216 Valid Blocks : 196392
 Total Tags : 491520 Threshold : 12288 Invalid Tags : 196826 Pr0 Tags : 98302 Pr1 Tags : 196392 num_pr0 : 12288
 SAE Count : 0
 Inter-Core Inteference in Data Store : 1001213
Heartbeat CPU 7 instructions: 50000000 cycles: 69853981 heartbeat IPC: 0.643935 cumulative IPC: 0.715779 (Simulation time: 10 hr 14 min 26 sec) 
 Total Blocks : 196608 Invalid Blocks : 216 Valid Blocks : 196392
 Total Tags : 491520 Threshold : 12288 Invalid Tags : 196825 Pr0 Tags : 98303 Pr1 Tags : 196392 num_pr0 : 12288
 SAE Count : 0
 Inter-Core Inteference in Data Store : 1001216
Heartbeat CPU 5 instructions: 50000000 cycles: 69868688 heartbeat IPC: 0.643319 cumulative IPC: 0.715628 (Simulation time: 10 hr 14 min 27 sec) 
 Total Blocks : 196608 Invalid Blocks : 216 Valid Blocks : 196392
 Total Tags : 491520 Threshold : 12288 Invalid Tags : 196832 Pr0 Tags : 98296 Pr1 Tags : 196392 num_pr0 : 12286
 SAE Count : 0
 Inter-Core Inteference in Data Store : 1001528
Heartbeat CPU 4 instructions: 50000000 cycles: 69868806 heartbeat IPC: 0.643311 cumulative IPC: 0.715627 (Simulation time: 10 hr 14 min 27 sec) 
 Total Blocks : 196608 Invalid Blocks : 216 Valid Blocks : 196392
 Total Tags : 491520 Threshold : 12288 Invalid Tags : 196829 Pr0 Tags : 98299 Pr1 Tags : 196392 num_pr0 : 12287
 SAE Count : 0
 Inter-Core Inteference in Data Store : 1001530
Heartbeat CPU 0 instructions: 50000000 cycles: 69907521 heartbeat IPC: 0.643152 cumulative IPC: 0.715231 (Simulation time: 10 hr 14 min 28 sec) 
 Total Blocks : 196608 Invalid Blocks : 216 Valid Blocks : 196392
 Total Tags : 491520 Threshold : 12288 Invalid Tags : 196826 Pr0 Tags : 98302 Pr1 Tags : 196392 num_pr0 : 12287
 SAE Count : 0
 Inter-Core Inteference in Data Store : 1002246
Heartbeat CPU 1 instructions: 50000000 cycles: 69907648 heartbeat IPC: 0.643151 cumulative IPC: 0.715229 (Simulation time: 10 hr 14 min 28 sec) 
 Total Blocks : 196608 Invalid Blocks : 216 Valid Blocks : 196392
 Total Tags : 491520 Threshold : 12288 Invalid Tags : 196826 Pr0 Tags : 98302 Pr1 Tags : 196392 num_pr0 : 12287
 SAE Count : 0
 Inter-Core Inteference in Data Store : 1002248
Heartbeat CPU 2 instructions: 50000000 cycles: 69907659 heartbeat IPC: 0.643142 cumulative IPC: 0.715229 (Simulation time: 10 hr 14 min 28 sec) 
 Total Blocks : 196608 Invalid Blocks : 216 Valid Blocks : 196392
 Total Tags : 491520 Threshold : 12288 Invalid Tags : 196826 Pr0 Tags : 98302 Pr1 Tags : 196392 num_pr0 : 12287
 SAE Count : 0
 Inter-Core Inteference in Data Store : 1002248
Heartbeat CPU 3 instructions: 50000000 cycles: 69907675 heartbeat IPC: 0.643144 cumulative IPC: 0.715229 (Simulation time: 10 hr 14 min 28 sec) 
 Total Blocks : 196608 Invalid Blocks : 216 Valid Blocks : 196392
 Total Tags : 491520 Threshold : 12288 Invalid Tags : 196827 Pr0 Tags : 98301 Pr1 Tags : 196392 num_pr0 : 12287
 SAE Count : 0
 Inter-Core Inteference in Data Store : 1002249
Heartbeat CPU 6 instructions: 60000002 cycles: 87443594 heartbeat IPC: 0.568511 cumulative IPC: 0.686157 (Simulation time: 10 hr 30 min 27 sec) 
 Total Blocks : 196608 Invalid Blocks : 36 Valid Blocks : 196572
 Total Tags : 491520 Threshold : 12288 Invalid Tags : 196644 Pr0 Tags : 98304 Pr1 Tags : 196572 num_pr0 : 12288
 SAE Count : 0
 Inter-Core Inteference in Data Store : 1303679
Heartbeat CPU 7 instructions: 60000002 cycles: 87443891 heartbeat IPC: 0.568508 cumulative IPC: 0.686154 (Simulation time: 10 hr 30 min 27 sec) 
 Total Blocks : 196608 Invalid Blocks : 36 Valid Blocks : 196572
 Total Tags : 491520 Threshold : 12288 Invalid Tags : 196644 Pr0 Tags : 98304 Pr1 Tags : 196572 num_pr0 : 12288
 SAE Count : 0
 Inter-Core Inteference in Data Store : 1303679
Heartbeat CPU 4 instructions: 60000002 cycles: 87485057 heartbeat IPC: 0.567658 cumulative IPC: 0.685831 (Simulation time: 10 hr 30 min 29 sec) 
 Total Blocks : 196608 Invalid Blocks : 36 Valid Blocks : 196572
 Total Tags : 491520 Threshold : 12288 Invalid Tags : 196644 Pr0 Tags : 98304 Pr1 Tags : 196572 num_pr0 : 12288
 SAE Count : 0
 Inter-Core Inteference in Data Store : 1303723
Heartbeat CPU 5 instructions: 60000002 cycles: 87485105 heartbeat IPC: 0.567652 cumulative IPC: 0.685831 (Simulation time: 10 hr 30 min 29 sec) 
 Total Blocks : 196608 Invalid Blocks : 36 Valid Blocks : 196572
 Total Tags : 491520 Threshold : 12288 Invalid Tags : 196644 Pr0 Tags : 98304 Pr1 Tags : 196572 num_pr0 : 12288
 SAE Count : 0
 Inter-Core Inteference in Data Store : 1303723
Heartbeat CPU 0 instructions: 60000002 cycles: 87520097 heartbeat IPC: 0.567776 cumulative IPC: 0.685557 (Simulation time: 10 hr 30 min 32 sec) 
 Total Blocks : 196608 Invalid Blocks : 36 Valid Blocks : 196572
 Total Tags : 491520 Threshold : 12288 Invalid Tags : 196644 Pr0 Tags : 98304 Pr1 Tags : 196572 num_pr0 : 12288
 SAE Count : 0
 Inter-Core Inteference in Data Store : 1303746
Heartbeat CPU 1 instructions: 60000002 cycles: 87520381 heartbeat IPC: 0.567771 cumulative IPC: 0.685555 (Simulation time: 10 hr 30 min 32 sec) 
 Total Blocks : 196608 Invalid Blocks : 36 Valid Blocks : 196572
 Total Tags : 491520 Threshold : 12288 Invalid Tags : 196644 Pr0 Tags : 98304 Pr1 Tags : 196572 num_pr0 : 12288
 SAE Count : 0
 Inter-Core Inteference in Data Store : 1303746
Heartbeat CPU 2 instructions: 60000002 cycles: 87520576 heartbeat IPC: 0.567765 cumulative IPC: 0.685553 (Simulation time: 10 hr 30 min 32 sec) 
 Total Blocks : 196608 Invalid Blocks : 36 Valid Blocks : 196572
 Total Tags : 491520 Threshold : 12288 Invalid Tags : 196644 Pr0 Tags : 98304 Pr1 Tags : 196572 num_pr0 : 12288
 SAE Count : 0
 Inter-Core Inteference in Data Store : 1303746
Heartbeat CPU 3 instructions: 60000002 cycles: 87520665 heartbeat IPC: 0.567763 cumulative IPC: 0.685552 (Simulation time: 10 hr 30 min 32 sec) 
 Total Blocks : 196608 Invalid Blocks : 36 Valid Blocks : 196572
 Total Tags : 491520 Threshold : 12288 Invalid Tags : 196644 Pr0 Tags : 98304 Pr1 Tags : 196572 num_pr0 : 12288
 SAE Count : 0
 Inter-Core Inteference in Data Store : 1303746
Heartbeat CPU 6 instructions: 70000001 cycles: 101954784 heartbeat IPC: 0.689123 cumulative IPC: 0.686579 (Simulation time: 10 hr 44 min 56 sec) 
 Total Blocks : 196608 Invalid Blocks : 34 Valid Blocks : 196574
 Total Tags : 491520 Threshold : 12288 Invalid Tags : 196642 Pr0 Tags : 98304 Pr1 Tags : 196574 num_pr0 : 12288
 SAE Count : 0
 Inter-Core Inteference in Data Store : 1313297
Heartbeat CPU 7 instructions: 70000001 cycles: 101954921 heartbeat IPC: 0.689131 cumulative IPC: 0.686578 (Simulation time: 10 hr 44 min 58 sec) 
 Total Blocks : 196608 Invalid Blocks : 34 Valid Blocks : 196574
 Total Tags : 491520 Threshold : 12288 Invalid Tags : 196642 Pr0 Tags : 98304 Pr1 Tags : 196574 num_pr0 : 12288
 SAE Count : 0
 Inter-Core Inteference in Data Store : 1313297
Heartbeat CPU 4 instructions: 70000001 cycles: 101996283 heartbeat IPC: 0.689122 cumulative IPC: 0.6863 (Simulation time: 10 hr 45 min 8 sec) 
 Total Blocks : 196608 Invalid Blocks : 34 Valid Blocks : 196574
 Total Tags : 491520 Threshold : 12288 Invalid Tags : 196643 Pr0 Tags : 98303 Pr1 Tags : 196574 num_pr0 : 12287
 SAE Count : 0
 Inter-Core Inteference in Data Store : 1313301
Heartbeat CPU 5 instructions: 70000001 cycles: 101996334 heartbeat IPC: 0.689121 cumulative IPC: 0.686299 (Simulation time: 10 hr 45 min 8 sec) 
 Total Blocks : 196608 Invalid Blocks : 34 Valid Blocks : 196574
 Total Tags : 491520 Threshold : 12288 Invalid Tags : 196643 Pr0 Tags : 98303 Pr1 Tags : 196574 num_pr0 : 12287
 SAE Count : 0
 Inter-Core Inteference in Data Store : 1313301
Heartbeat CPU 0 instructions: 70000001 cycles: 102032532 heartbeat IPC: 0.689064 cumulative IPC: 0.686056 (Simulation time: 10 hr 45 min 19 sec) 
 Total Blocks : 196608 Invalid Blocks : 34 Valid Blocks : 196574
 Total Tags : 491520 Threshold : 12288 Invalid Tags : 196642 Pr0 Tags : 98304 Pr1 Tags : 196574 num_pr0 : 12288
 SAE Count : 0
 Inter-Core Inteference in Data Store : 1313301
Heartbeat CPU 1 instructions: 70000001 cycles: 102032913 heartbeat IPC: 0.68906 cumulative IPC: 0.686053 (Simulation time: 10 hr 45 min 19 sec) 
 Total Blocks : 196608 Invalid Blocks : 34 Valid Blocks : 196574
 Total Tags : 491520 Threshold : 12288 Invalid Tags : 196642 Pr0 Tags : 98304 Pr1 Tags : 196574 num_pr0 : 12288
 SAE Count : 0
 Inter-Core Inteference in Data Store : 1313301
Heartbeat CPU 2 instructions: 70000001 cycles: 102033077 heartbeat IPC: 0.689061 cumulative IPC: 0.686052 (Simulation time: 10 hr 45 min 20 sec) 
 Total Blocks : 196608 Invalid Blocks : 34 Valid Blocks : 196574
 Total Tags : 491520 Threshold : 12288 Invalid Tags : 196642 Pr0 Tags : 98304 Pr1 Tags : 196574 num_pr0 : 12288
 SAE Count : 0
 Inter-Core Inteference in Data Store : 1313301
Heartbeat CPU 3 instructions: 70000001 cycles: 102033117 heartbeat IPC: 0.689063 cumulative IPC: 0.686052 (Simulation time: 10 hr 45 min 20 sec) 
 Total Blocks : 196608 Invalid Blocks : 34 Valid Blocks : 196574
 Total Tags : 491520 Threshold : 12288 Invalid Tags : 196642 Pr0 Tags : 98304 Pr1 Tags : 196574 num_pr0 : 12288
 SAE Count : 0
 Inter-Core Inteference in Data Store : 1313301
Heartbeat CPU 6 instructions: 80000000 cycles: 105079694 heartbeat IPC: 3.20009 cumulative IPC: 0.761327 (Simulation time: 11 hr 1 min 14 sec) 
 Total Blocks : 196608 Invalid Blocks : 33 Valid Blocks : 196575
 Total Tags : 491520 Threshold : 12288 Invalid Tags : 196641 Pr0 Tags : 98304 Pr1 Tags : 196575 num_pr0 : 12288
 SAE Count : 0
 Inter-Core Inteference in Data Store : 1314287
Heartbeat CPU 7 instructions: 80000000 cycles: 105079810 heartbeat IPC: 3.20011 cumulative IPC: 0.761326 (Simulation time: 11 hr 1 min 15 sec) 
 Total Blocks : 196608 Invalid Blocks : 33 Valid Blocks : 196575
 Total Tags : 491520 Threshold : 12288 Invalid Tags : 196641 Pr0 Tags : 98304 Pr1 Tags : 196575 num_pr0 : 12288
 SAE Count : 0
 Inter-Core Inteference in Data Store : 1314293
Heartbeat CPU 4 instructions: 80000000 cycles: 105121109 heartbeat IPC: 3.20018 cumulative IPC: 0.761027 (Simulation time: 11 hr 1 min 36 sec) 
 Total Blocks : 196608 Invalid Blocks : 33 Valid Blocks : 196575
 Total Tags : 491520 Threshold : 12288 Invalid Tags : 196641 Pr0 Tags : 98304 Pr1 Tags : 196575 num_pr0 : 12288
 SAE Count : 0
 Inter-Core Inteference in Data Store : 1315068
Heartbeat CPU 5 instructions: 80000000 cycles: 105121310 heartbeat IPC: 3.20002 cumulative IPC: 0.761026 (Simulation time: 11 hr 1 min 36 sec) 
 Total Blocks : 196608 Invalid Blocks : 33 Valid Blocks : 196575
 Total Tags : 491520 Threshold : 12288 Invalid Tags : 196641 Pr0 Tags : 98304 Pr1 Tags : 196575 num_pr0 : 12288
 SAE Count : 0
 Inter-Core Inteference in Data Store : 1315069
Heartbeat CPU 0 instructions: 80000000 cycles: 105157341 heartbeat IPC: 3.2002 cumulative IPC: 0.760765 (Simulation time: 11 hr 1 min 52 sec) 
 Total Blocks : 196608 Invalid Blocks : 33 Valid Blocks : 196575
 Total Tags : 491520 Threshold : 12288 Invalid Tags : 196641 Pr0 Tags : 98304 Pr1 Tags : 196575 num_pr0 : 12288
 SAE Count : 0
 Inter-Core Inteference in Data Store : 1315840
Heartbeat CPU 1 instructions: 80000000 cycles: 105157704 heartbeat IPC: 3.20021 cumulative IPC: 0.760762 (Simulation time: 11 hr 1 min 52 sec) 
 Total Blocks : 196608 Invalid Blocks : 33 Valid Blocks : 196575
 Total Tags : 491520 Threshold : 12288 Invalid Tags : 196641 Pr0 Tags : 98304 Pr1 Tags : 196575 num_pr0 : 12288
 SAE Count : 0
 Inter-Core Inteference in Data Store : 1315841
Heartbeat CPU 2 instructions: 80000000 cycles: 105157787 heartbeat IPC: 3.2003 cumulative IPC: 0.760762 (Simulation time: 11 hr 1 min 52 sec) 
 Total Blocks : 196608 Invalid Blocks : 33 Valid Blocks : 196575
 Total Tags : 491520 Threshold : 12288 Invalid Tags : 196641 Pr0 Tags : 98304 Pr1 Tags : 196575 num_pr0 : 12288
 SAE Count : 0
 Inter-Core Inteference in Data Store : 1315842
Heartbeat CPU 3 instructions: 80000000 cycles: 105157898 heartbeat IPC: 3.20022 cumulative IPC: 0.760761 (Simulation time: 11 hr 1 min 52 sec) 
 Total Blocks : 196608 Invalid Blocks : 33 Valid Blocks : 196575
 Total Tags : 491520 Threshold : 12288 Invalid Tags : 196641 Pr0 Tags : 98304 Pr1 Tags : 196575 num_pr0 : 12288
 SAE Count : 0
 Inter-Core Inteference in Data Store : 1315842
Heartbeat CPU 6 instructions: 90000000 cycles: 114247082 heartbeat IPC: 1.09082 cumulative IPC: 0.787766 (Simulation time: 11 hr 21 min 23 sec) 
 Total Blocks : 196608 Invalid Blocks : 11 Valid Blocks : 196597
 Total Tags : 491520 Threshold : 12288 Invalid Tags : 196622 Pr0 Tags : 98301 Pr1 Tags : 196597 num_pr0 : 12288
 SAE Count : 0
 Inter-Core Inteference in Data Store : 1511288
Heartbeat CPU 7 instructions: 90000000 cycles: 114247185 heartbeat IPC: 1.09082 cumulative IPC: 0.787766 (Simulation time: 11 hr 21 min 23 sec) 
 Total Blocks : 196608 Invalid Blocks : 11 Valid Blocks : 196597
 Total Tags : 491520 Threshold : 12288 Invalid Tags : 196622 Pr0 Tags : 98301 Pr1 Tags : 196597 num_pr0 : 12287
 SAE Count : 0
 Inter-Core Inteference in Data Store : 1511292
Heartbeat CPU 4 instructions: 90000000 cycles: 114288526 heartbeat IPC: 1.09082 cumulative IPC: 0.787481 (Simulation time: 11 hr 21 min 26 sec) 
 Total Blocks : 196608 Invalid Blocks : 11 Valid Blocks : 196597
 Total Tags : 491520 Threshold : 12288 Invalid Tags : 196620 Pr0 Tags : 98303 Pr1 Tags : 196597 num_pr0 : 12288
 SAE Count : 0
 Inter-Core Inteference in Data Store : 1512470
Heartbeat CPU 5 instructions: 90000000 cycles: 114288722 heartbeat IPC: 1.09082 cumulative IPC: 0.787479 (Simulation time: 11 hr 21 min 26 sec) 
 Total Blocks : 196608 Invalid Blocks : 11 Valid Blocks : 196597
 Total Tags : 491520 Threshold : 12288 Invalid Tags : 196621 Pr0 Tags : 98302 Pr1 Tags : 196597 num_pr0 : 12288
 SAE Count : 0
 Inter-Core Inteference in Data Store : 1512474
Heartbeat CPU 0 instructions: 90000000 cycles: 114324705 heartbeat IPC: 1.09083 cumulative IPC: 0.787231 (Simulation time: 11 hr 21 min 28 sec) 
 Total Blocks : 196608 Invalid Blocks : 11 Valid Blocks : 196597
 Total Tags : 491520 Threshold : 12288 Invalid Tags : 196622 Pr0 Tags : 98301 Pr1 Tags : 196597 num_pr0 : 12288
 SAE Count : 0
 Inter-Core Inteference in Data Store : 1513501
Heartbeat CPU 1 instructions: 90000000 cycles: 114325117 heartbeat IPC: 1.09082 cumulative IPC: 0.787229 (Simulation time: 11 hr 21 min 28 sec) 
 Total Blocks : 196608 Invalid Blocks : 11 Valid Blocks : 196597
 Total Tags : 491520 Threshold : 12288 Invalid Tags : 196623 Pr0 Tags : 98300 Pr1 Tags : 196597 num_pr0 : 12288
 SAE Count : 0
 Inter-Core Inteference in Data Store : 1513518
Heartbeat CPU 2 instructions: 90000000 cycles: 114325163 heartbeat IPC: 1.09082 cumulative IPC: 0.787228 (Simulation time: 11 hr 21 min 28 sec) 
 Total Blocks : 196608 Invalid Blocks : 11 Valid Blocks : 196597
 Total Tags : 491520 Threshold : 12288 Invalid Tags : 196623 Pr0 Tags : 98300 Pr1 Tags : 196597 num_pr0 : 12288
 SAE Count : 0
 Inter-Core Inteference in Data Store : 1513518
Heartbeat CPU 3 instructions: 90000000 cycles: 114325257 heartbeat IPC: 1.09083 cumulative IPC: 0.787228 (Simulation time: 11 hr 21 min 28 sec) 
 Total Blocks : 196608 Invalid Blocks : 11 Valid Blocks : 196597
 Total Tags : 491520 Threshold : 12288 Invalid Tags : 196622 Pr0 Tags : 98301 Pr1 Tags : 196597 num_pr0 : 12287
 SAE Count : 0
 Inter-Core Inteference in Data Store : 1513523
Heartbeat CPU 6 instructions: 100000000 cycles: 126667895 heartbeat IPC: 0.8051 cumulative IPC: 0.789466 (Simulation time: 11 hr 52 min 40 sec) 
 Total Blocks : 196608 Invalid Blocks : 0 Valid Blocks : 196608
 Total Tags : 491520 Threshold : 12288 Invalid Tags : 196609 Pr0 Tags : 98303 Pr1 Tags : 196608 num_pr0 : 12288
 SAE Count : 0
 Inter-Core Inteference in Data Store : 2837670
Heartbeat CPU 7 instructions: 100000000 cycles: 126668353 heartbeat IPC: 0.805077 cumulative IPC: 0.789463 (Simulation time: 11 hr 52 min 40 sec) 
 Total Blocks : 196608 Invalid Blocks : 0 Valid Blocks : 196608
 Total Tags : 491520 Threshold : 12288 Invalid Tags : 196614 Pr0 Tags : 98298 Pr1 Tags : 196608 num_pr0 : 12287
 SAE Count : 0
 Inter-Core Inteference in Data Store : 2837768
FILL
Heartbeat CPU 4 instructions: 100000000 cycles: 126708749 heartbeat IPC: 0.805139 cumulative IPC: 0.789212 (Simulation time: 11 hr 52 min 51 sec) 
 Total Blocks : 196608 Invalid Blocks : 0 Valid Blocks : 196608
 Total Tags : 491520 Threshold : 12288 Invalid Tags : 196608 Pr0 Tags : 98304 Pr1 Tags : 196608 num_pr0 : 12288
 SAE Count : 0
 Inter-Core Inteference in Data Store : 2844507
Heartbeat CPU 5 instructions: 100000000 cycles: 126709125 heartbeat IPC: 0.805127 cumulative IPC: 0.789209 (Simulation time: 11 hr 52 min 51 sec) 
 Total Blocks : 196608 Invalid Blocks : 0 Valid Blocks : 196608
 Total Tags : 491520 Threshold : 12288 Invalid Tags : 196609 Pr0 Tags : 98303 Pr1 Tags : 196608 num_pr0 : 12288
 SAE Count : 0
 Inter-Core Inteference in Data Store : 2844554
Heartbeat CPU 0 instructions: 100000000 cycles: 126743100 heartbeat IPC: 0.805257 cumulative IPC: 0.788998 (Simulation time: 11 hr 53 min 3 sec) 
 Total Blocks : 196608 Invalid Blocks : 0 Valid Blocks : 196608
 Total Tags : 491520 Threshold : 12288 Invalid Tags : 196608 Pr0 Tags : 98304 Pr1 Tags : 196608 num_pr0 : 12288
 SAE Count : 0
 Inter-Core Inteference in Data Store : 2849757
Heartbeat CPU 1 instructions: 100000000 cycles: 126744361 heartbeat IPC: 0.805202 cumulative IPC: 0.78899 (Simulation time: 11 hr 53 min 4 sec) 
 Total Blocks : 196608 Invalid Blocks : 0 Valid Blocks : 196608
 Total Tags : 491520 Threshold : 12288 Invalid Tags : 196608 Pr0 Tags : 98304 Pr1 Tags : 196608 num_pr0 : 12288
 SAE Count : 0
 Inter-Core Inteference in Data Store : 2850030
Heartbeat CPU 2 instructions: 100000000 cycles: 126744531 heartbeat IPC: 0.805194 cumulative IPC: 0.788989 (Simulation time: 11 hr 53 min 5 sec) 
 Total Blocks : 196608 Invalid Blocks : 0 Valid Blocks : 196608
 Total Tags : 491520 Threshold : 12288 Invalid Tags : 196608 Pr0 Tags : 98304 Pr1 Tags : 196608 num_pr0 : 12288
 SAE Count : 0
 Inter-Core Inteference in Data Store : 2850085
Heartbeat CPU 3 instructions: 100000000 cycles: 126745084 heartbeat IPC: 0.805164 cumulative IPC: 0.788985 (Simulation time: 11 hr 53 min 6 sec) 
 Total Blocks : 196608 Invalid Blocks : 0 Valid Blocks : 196608
 Total Tags : 491520 Threshold : 12288 Invalid Tags : 196612 Pr0 Tags : 98300 Pr1 Tags : 196608 num_pr0 : 12288
 SAE Count : 0
 Inter-Core Inteference in Data Store : 2850295
FILL
FILL
FILL
FILL
Heartbeat CPU 7 instructions: 110000000 cycles: 136909388 heartbeat IPC: 0.976464 cumulative IPC: 0.803451 (Simulation time: 12 hr 20 min 2 sec) 
 Total Blocks : 196608 Invalid Blocks : 0 Valid Blocks : 196608
 Total Tags : 491520 Threshold : 12288 Invalid Tags : 196608 Pr0 Tags : 98304 Pr1 Tags : 196608 num_pr0 : 12288
 SAE Count : 0
 Inter-Core Inteference in Data Store : 3641852
Heartbeat CPU 6 instructions: 110000000 cycles: 136909722 heartbeat IPC: 0.976388 cumulative IPC: 0.803449 (Simulation time: 12 hr 20 min 2 sec) 
 Total Blocks : 196608 Invalid Blocks : 0 Valid Blocks : 196608
 Total Tags : 491520 Threshold : 12288 Invalid Tags : 196609 Pr0 Tags : 98303 Pr1 Tags : 196608 num_pr0 : 12288
 SAE Count : 0
 Inter-Core Inteference in Data Store : 3641858
Heartbeat CPU 4 instructions: 110000000 cycles: 136950135 heartbeat IPC: 0.97643 cumulative IPC: 0.803212 (Simulation time: 12 hr 20 min 5 sec) 
 Total Blocks : 196608 Invalid Blocks : 0 Valid Blocks : 196608
 Total Tags : 491520 Threshold : 12288 Invalid Tags : 196608 Pr0 Tags : 98304 Pr1 Tags : 196608 num_pr0 : 12288
 SAE Count : 0
 Inter-Core Inteference in Data Store : 3642583
Heartbeat CPU 5 instructions: 110000000 cycles: 136950969 heartbeat IPC: 0.976387 cumulative IPC: 0.803207 (Simulation time: 12 hr 20 min 5 sec) 
 Total Blocks : 196608 Invalid Blocks : 0 Valid Blocks : 196608
 Total Tags : 491520 Threshold : 12288 Invalid Tags : 196609 Pr0 Tags : 98303 Pr1 Tags : 196608 num_pr0 : 12288
 SAE Count : 0
 Inter-Core Inteference in Data Store : 3642598
Heartbeat CPU 0 instructions: 110000000 cycles: 136997606 heartbeat IPC: 0.975181 cumulative IPC: 0.802934 (Simulation time: 12 hr 20 min 9 sec) 
 Total Blocks : 196608 Invalid Blocks : 0 Valid Blocks : 196608
 Total Tags : 491520 Threshold : 12288 Invalid Tags : 196608 Pr0 Tags : 98304 Pr1 Tags : 196608 num_pr0 : 12288
 SAE Count : 0
 Inter-Core Inteference in Data Store : 3643445
Heartbeat CPU 1 instructions: 110000000 cycles: 136999287 heartbeat IPC: 0.975141 cumulative IPC: 0.802924 (Simulation time: 12 hr 20 min 9 sec) 
 Total Blocks : 196608 Invalid Blocks : 0 Valid Blocks : 196608
 Total Tags : 491520 Threshold : 12288 Invalid Tags : 196610 Pr0 Tags : 98302 Pr1 Tags : 196608 num_pr0 : 12288
 SAE Count : 0
 Inter-Core Inteference in Data Store : 3643471
Heartbeat CPU 2 instructions: 110000000 cycles: 136999838 heartbeat IPC: 0.975105 cumulative IPC: 0.802921 (Simulation time: 12 hr 20 min 9 sec) 
 Total Blocks : 196608 Invalid Blocks : 0 Valid Blocks : 196608
 Total Tags : 491520 Threshold : 12288 Invalid Tags : 196608 Pr0 Tags : 98304 Pr1 Tags : 196608 num_pr0 : 12288
 SAE Count : 0
 Inter-Core Inteference in Data Store : 3643479
Heartbeat CPU 3 instructions: 110000000 cycles: 137000452 heartbeat IPC: 0.975099 cumulative IPC: 0.802917 (Simulation time: 12 hr 20 min 9 sec) 
 Total Blocks : 196608 Invalid Blocks : 0 Valid Blocks : 196608
 Total Tags : 491520 Threshold : 12288 Invalid Tags : 196608 Pr0 Tags : 98304 Pr1 Tags : 196608 num_pr0 : 12288
 SAE Count : 0
 Inter-Core Inteference in Data Store : 3643485
FILL
Heartbeat CPU 7 instructions: 120000000 cycles: 149711690 heartbeat IPC: 0.78111 cumulative IPC: 0.801541 (Simulation time: 12 hr 36 min 56 sec) 
 Total Blocks : 196608 Invalid Blocks : 0 Valid Blocks : 196608
 Total Tags : 491520 Threshold : 12288 Invalid Tags : 196608 Pr0 Tags : 98304 Pr1 Tags : 196608 num_pr0 : 12288
 SAE Count : 0
 Inter-Core Inteference in Data Store : 3875260
Heartbeat CPU 6 instructions: 120000000 cycles: 149713056 heartbeat IPC: 0.781047 cumulative IPC: 0.801533 (Simulation time: 12 hr 36 min 56 sec) 
 Total Blocks : 196608 Invalid Blocks : 0 Valid Blocks : 196608
 Total Tags : 491520 Threshold : 12288 Invalid Tags : 196609 Pr0 Tags : 98303 Pr1 Tags : 196608 num_pr0 : 12287
 SAE Count : 0
 Inter-Core Inteference in Data Store : 3875301
Heartbeat CPU 4 instructions: 120000000 cycles: 149755096 heartbeat IPC: 0.780947 cumulative IPC: 0.801308 (Simulation time: 12 hr 36 min 59 sec) 
 Total Blocks : 196608 Invalid Blocks : 0 Valid Blocks : 196608
 Total Tags : 491520 Threshold : 12288 Invalid Tags : 196608 Pr0 Tags : 98304 Pr1 Tags : 196608 num_pr0 : 12288
 SAE Count : 0
 Inter-Core Inteference in Data Store : 3876148
Heartbeat CPU 5 instructions: 120000000 cycles: 149755977 heartbeat IPC: 0.780944 cumulative IPC: 0.801304 (Simulation time: 12 hr 37 min 0 sec) 
 Total Blocks : 196608 Invalid Blocks : 0 Valid Blocks : 196608
 Total Tags : 491520 Threshold : 12288 Invalid Tags : 196611 Pr0 Tags : 98301 Pr1 Tags : 196608 num_pr0 : 12288
 SAE Count : 0
 Inter-Core Inteference in Data Store : 3876169
Heartbeat CPU 0 instructions: 120000000 cycles: 149825222 heartbeat IPC: 0.779568 cumulative IPC: 0.800933 (Simulation time: 12 hr 37 min 6 sec) 
 Total Blocks : 196608 Invalid Blocks : 0 Valid Blocks : 196608
 Total Tags : 491520 Threshold : 12288 Invalid Tags : 196608 Pr0 Tags : 98304 Pr1 Tags : 196608 num_pr0 : 12288
 SAE Count : 0
 Inter-Core Inteference in Data Store : 3877552
Heartbeat CPU 1 instructions: 120000000 cycles: 149827058 heartbeat IPC: 0.779559 cumulative IPC: 0.800923 (Simulation time: 12 hr 37 min 6 sec) 
 Total Blocks : 196608 Invalid Blocks : 0 Valid Blocks : 196608
 Total Tags : 491520 Threshold : 12288 Invalid Tags : 196608 Pr0 Tags : 98304 Pr1 Tags : 196608 num_pr0 : 12288
 SAE Count : 0
 Inter-Core Inteference in Data Store : 3877578
Heartbeat CPU 2 instructions: 120000000 cycles: 149827729 heartbeat IPC: 0.779551 cumulative IPC: 0.80092 (Simulation time: 12 hr 37 min 6 sec) 
 Total Blocks : 196608 Invalid Blocks : 0 Valid Blocks : 196608
 Total Tags : 491520 Threshold : 12288 Invalid Tags : 196608 Pr0 Tags : 98304 Pr1 Tags : 196608 num_pr0 : 12288
 SAE Count : 0
 Inter-Core Inteference in Data Store : 3877595
Heartbeat CPU 3 instructions: 120000000 cycles: 149828179 heartbeat IPC: 0.779561 cumulative IPC: 0.800917 (Simulation time: 12 hr 37 min 6 sec) 
 Total Blocks : 196608 Invalid Blocks : 0 Valid Blocks : 196608
 Total Tags : 491520 Threshold : 12288 Invalid Tags : 196610 Pr0 Tags : 98302 Pr1 Tags : 196608 num_pr0 : 12288
 SAE Count : 0
 Inter-Core Inteference in Data Store : 3877603
Heartbeat CPU 7 instructions: 130000002 cycles: 164973652 heartbeat IPC: 0.655224 cumulative IPC: 0.788005 (Simulation time: 12 hr 52 min 40 sec) 
 Total Blocks : 196608 Invalid Blocks : 0 Valid Blocks : 196608
 Total Tags : 491520 Threshold : 12288 Invalid Tags : 196608 Pr0 Tags : 98304 Pr1 Tags : 196608 num_pr0 : 12288
 SAE Count : 0
 Inter-Core Inteference in Data Store : 4039627
Heartbeat CPU 6 instructions: 130000002 cycles: 164975027 heartbeat IPC: 0.655223 cumulative IPC: 0.787998 (Simulation time: 12 hr 52 min 40 sec) 
 Total Blocks : 196608 Invalid Blocks : 0 Valid Blocks : 196608
 Total Tags : 491520 Threshold : 12288 Invalid Tags : 196608 Pr0 Tags : 98304 Pr1 Tags : 196608 num_pr0 : 12288
 SAE Count : 0
 Inter-Core Inteference in Data Store : 4039638
Heartbeat CPU 4 instructions: 130000002 cycles: 165020871 heartbeat IPC: 0.65506 cumulative IPC: 0.787779 (Simulation time: 12 hr 52 min 43 sec) 
 Total Blocks : 196608 Invalid Blocks : 0 Valid Blocks : 196608
 Total Tags : 491520 Threshold : 12288 Invalid Tags : 196609 Pr0 Tags : 98303 Pr1 Tags : 196608 num_pr0 : 12288
 SAE Count : 0
 Inter-Core Inteference in Data Store : 4039874
Heartbeat CPU 5 instructions: 130000002 cycles: 165021795 heartbeat IPC: 0.655058 cumulative IPC: 0.787775 (Simulation time: 12 hr 52 min 43 sec) 
 Total Blocks : 196608 Invalid Blocks : 0 Valid Blocks : 196608
 Total Tags : 491520 Threshold : 12288 Invalid Tags : 196608 Pr0 Tags : 98304 Pr1 Tags : 196608 num_pr0 : 12288
 SAE Count : 0
 Inter-Core Inteference in Data Store : 4039878
Heartbeat CPU 0 instructions: 130000002 cycles: 165100602 heartbeat IPC: 0.654648 cumulative IPC: 0.787399 (Simulation time: 12 hr 52 min 47 sec) 
 Total Blocks : 196608 Invalid Blocks : 0 Valid Blocks : 196608
 Total Tags : 491520 Threshold : 12288 Invalid Tags : 196608 Pr0 Tags : 98304 Pr1 Tags : 196608 num_pr0 : 12288
 SAE Count : 0
 Inter-Core Inteference in Data Store : 4040286
Heartbeat CPU 1 instructions: 130000002 cycles: 165102422 heartbeat IPC: 0.654649 cumulative IPC: 0.78739 (Simulation time: 12 hr 52 min 47 sec) 
 Total Blocks : 196608 Invalid Blocks : 0 Valid Blocks : 196608
 Total Tags : 491520 Threshold : 12288 Invalid Tags : 196608 Pr0 Tags : 98304 Pr1 Tags : 196608 num_pr0 : 12288
 SAE Count : 0
 Inter-Core Inteference in Data Store : 4040295
Heartbeat CPU 2 instructions: 130000002 cycles: 165103218 heartbeat IPC: 0.654644 cumulative IPC: 0.787386 (Simulation time: 12 hr 52 min 47 sec) 
 Total Blocks : 196608 Invalid Blocks : 0 Valid Blocks : 196608
 Total Tags : 491520 Threshold : 12288 Invalid Tags : 196608 Pr0 Tags : 98304 Pr1 Tags : 196608 num_pr0 : 12288
 SAE Count : 0
 Inter-Core Inteference in Data Store : 4040297
Heartbeat CPU 3 instructions: 130000002 cycles: 165103694 heartbeat IPC: 0.654643 cumulative IPC: 0.787384 (Simulation time: 12 hr 52 min 47 sec) 
 Total Blocks : 196608 Invalid Blocks : 0 Valid Blocks : 196608
 Total Tags : 491520 Threshold : 12288 Invalid Tags : 196608 Pr0 Tags : 98304 Pr1 Tags : 196608 num_pr0 : 12288
 SAE Count : 0
 Inter-Core Inteference in Data Store : 4040303
Heartbeat CPU 7 instructions: 140000000 cycles: 173440021 heartbeat IPC: 1.18114 cumulative IPC: 0.807195 (Simulation time: 13 hr 6 min 3 sec) 
 Total Blocks : 196608 Invalid Blocks : 0 Valid Blocks : 196608
 Total Tags : 491520 Threshold : 12288 Invalid Tags : 196613 Pr0 Tags : 98299 Pr1 Tags : 196608 num_pr0 : 12287
 SAE Count : 0
 Inter-Core Inteference in Data Store : 4069332
Heartbeat CPU 6 instructions: 140000000 cycles: 173441408 heartbeat IPC: 1.18114 cumulative IPC: 0.807189 (Simulation time: 13 hr 6 min 4 sec) 
 Total Blocks : 196608 Invalid Blocks : 0 Valid Blocks : 196608
 Total Tags : 491520 Threshold : 12288 Invalid Tags : 196613 Pr0 Tags : 98299 Pr1 Tags : 196608 num_pr0 : 12288
 SAE Count : 0
 Inter-Core Inteference in Data Store : 4069334
Heartbeat CPU 4 instructions: 140000000 cycles: 173489047 heartbeat IPC: 1.18089 cumulative IPC: 0.806967 (Simulation time: 13 hr 6 min 15 sec) 
 Total Blocks : 196608 Invalid Blocks : 0 Valid Blocks : 196608
 Total Tags : 491520 Threshold : 12288 Invalid Tags : 196619 Pr0 Tags : 98293 Pr1 Tags : 196608 num_pr0 : 12287
 SAE Count : 0
 Inter-Core Inteference in Data Store : 4069434
Heartbeat CPU 5 instructions: 140000000 cycles: 173489965 heartbeat IPC: 1.18089 cumulative IPC: 0.806963 (Simulation time: 13 hr 6 min 15 sec) 
 Total Blocks : 196608 Invalid Blocks : 0 Valid Blocks : 196608
 Total Tags : 491520 Threshold : 12288 Invalid Tags : 196618 Pr0 Tags : 98294 Pr1 Tags : 196608 num_pr0 : 12288
 SAE Count : 0
 Inter-Core Inteference in Data Store : 4069435
Heartbeat CPU 0 instructions: 140000000 cycles: 173568760 heartbeat IPC: 1.18089 cumulative IPC: 0.806597 (Simulation time: 13 hr 6 min 33 sec) 
 Total Blocks : 196608 Invalid Blocks : 0 Valid Blocks : 196608
 Total Tags : 491520 Threshold : 12288 Invalid Tags : 196608 Pr0 Tags : 98304 Pr1 Tags : 196608 num_pr0 : 12288
 SAE Count : 0
 Inter-Core Inteference in Data Store : 4069538
Heartbeat CPU 1 instructions: 140000000 cycles: 173570561 heartbeat IPC: 1.1809 cumulative IPC: 0.806588 (Simulation time: 13 hr 6 min 33 sec) 
 Total Blocks : 196608 Invalid Blocks : 0 Valid Blocks : 196608
 Total Tags : 491520 Threshold : 12288 Invalid Tags : 196608 Pr0 Tags : 98304 Pr1 Tags : 196608 num_pr0 : 12288
 SAE Count : 0
 Inter-Core Inteference in Data Store : 4069538
Heartbeat CPU 2 instructions: 140000000 cycles: 173571353 heartbeat IPC: 1.1809 cumulative IPC: 0.806585 (Simulation time: 13 hr 6 min 33 sec) 
 Total Blocks : 196608 Invalid Blocks : 0 Valid Blocks : 196608
 Total Tags : 491520 Threshold : 12288 Invalid Tags : 196608 Pr0 Tags : 98304 Pr1 Tags : 196608 num_pr0 : 12288
 SAE Count : 0
 Inter-Core Inteference in Data Store : 4069538
Heartbeat CPU 3 instructions: 140000000 cycles: 173571860 heartbeat IPC: 1.18089 cumulative IPC: 0.806582 (Simulation time: 13 hr 6 min 33 sec) 
 Total Blocks : 196608 Invalid Blocks : 0 Valid Blocks : 196608
 Total Tags : 491520 Threshold : 12288 Invalid Tags : 196608 Pr0 Tags : 98304 Pr1 Tags : 196608 num_pr0 : 12288
 SAE Count : 0
 Inter-Core Inteference in Data Store : 4069538
FILL
Heartbeat CPU 7 instructions: 150000001 cycles: 177048726 heartbeat IPC: 2.77108 cumulative IPC: 0.847224 (Simulation time: 13 hr 26 min 8 sec) 
 Total Blocks : 196608 Invalid Blocks : 0 Valid Blocks : 196608
 Total Tags : 491520 Threshold : 12288 Invalid Tags : 196608 Pr0 Tags : 98304 Pr1 Tags : 196608 num_pr0 : 12288
 SAE Count : 0
 Inter-Core Inteference in Data Store : 4170764
Heartbeat CPU 6 instructions: 150000001 cycles: 177049931 heartbeat IPC: 2.77122 cumulative IPC: 0.847219 (Simulation time: 13 hr 26 min 8 sec) 
 Total Blocks : 196608 Invalid Blocks : 0 Valid Blocks : 196608
 Total Tags : 491520 Threshold : 12288 Invalid Tags : 196608 Pr0 Tags : 98304 Pr1 Tags : 196608 num_pr0 : 12288
 SAE Count : 0
 Inter-Core Inteference in Data Store : 4170765
Heartbeat CPU 4 instructions: 150000001 cycles: 177097553 heartbeat IPC: 2.77123 cumulative IPC: 0.846991 (Simulation time: 13 hr 26 min 25 sec) 
 Total Blocks : 196608 Invalid Blocks : 0 Valid Blocks : 196608
 Total Tags : 491520 Threshold : 12288 Invalid Tags : 196608 Pr0 Tags : 98304 Pr1 Tags : 196608 num_pr0 : 12288
 SAE Count : 0
 Inter-Core Inteference in Data Store : 4170927
Heartbeat CPU 5 instructions: 150000001 cycles: 177098729 heartbeat IPC: 2.77103 cumulative IPC: 0.846985 (Simulation time: 13 hr 26 min 26 sec) 
 Total Blocks : 196608 Invalid Blocks : 0 Valid Blocks : 196608
 Total Tags : 491520 Threshold : 12288 Invalid Tags : 196608 Pr0 Tags : 98304 Pr1 Tags : 196608 num_pr0 : 12288
 SAE Count : 0
 Inter-Core Inteference in Data Store : 4170931
Heartbeat CPU 0 instructions: 150000001 cycles: 177177329 heartbeat IPC: 2.77118 cumulative IPC: 0.846609 (Simulation time: 13 hr 26 min 54 sec) 
 Total Blocks : 196608 Invalid Blocks : 0 Valid Blocks : 196608
 Total Tags : 491520 Threshold : 12288 Invalid Tags : 196608 Pr0 Tags : 98304 Pr1 Tags : 196608 num_pr0 : 12288
 SAE Count : 0
 Inter-Core Inteference in Data Store : 4171180
Heartbeat CPU 1 instructions: 150000001 cycles: 177179155 heartbeat IPC: 2.77116 cumulative IPC: 0.846601 (Simulation time: 13 hr 26 min 55 sec) 
 Total Blocks : 196608 Invalid Blocks : 0 Valid Blocks : 196608
 Total Tags : 491520 Threshold : 12288 Invalid Tags : 196608 Pr0 Tags : 98304 Pr1 Tags : 196608 num_pr0 : 12288
 SAE Count : 0
 Inter-Core Inteference in Data Store : 4171189
Heartbeat CPU 2 instructions: 150000001 cycles: 177179949 heartbeat IPC: 2.77116 cumulative IPC: 0.846597 (Simulation time: 13 hr 26 min 55 sec) 
 Total Blocks : 196608 Invalid Blocks : 0 Valid Blocks : 196608
 Total Tags : 491520 Threshold : 12288 Invalid Tags : 196608 Pr0 Tags : 98304 Pr1 Tags : 196608 num_pr0 : 12288
 SAE Count : 0
 Inter-Core Inteference in Data Store : 4171192
Heartbeat CPU 3 instructions: 150000001 cycles: 177180789 heartbeat IPC: 2.77091 cumulative IPC: 0.846593 (Simulation time: 13 hr 26 min 55 sec) 
 Total Blocks : 196608 Invalid Blocks : 0 Valid Blocks : 196608
 Total Tags : 491520 Threshold : 12288 Invalid Tags : 196608 Pr0 Tags : 98304 Pr1 Tags : 196608 num_pr0 : 12288
 SAE Count : 0
 Inter-Core Inteference in Data Store : 4171198
FILL
Heartbeat CPU 7 instructions: 160000000 cycles: 190518603 heartbeat IPC: 0.742397 cumulative IPC: 0.839813 (Simulation time: 13 hr 40 min 1 sec) 
 Total Blocks : 196608 Invalid Blocks : 0 Valid Blocks : 196608
 Total Tags : 491520 Threshold : 12288 Invalid Tags : 196609 Pr0 Tags : 98303 Pr1 Tags : 196608 num_pr0 : 12288
 SAE Count : 0
 Inter-Core Inteference in Data Store : 4506386
Heartbeat CPU 6 instructions: 160000000 cycles: 190519826 heartbeat IPC: 0.742396 cumulative IPC: 0.839808 (Simulation time: 13 hr 40 min 1 sec) 
 Total Blocks : 196608 Invalid Blocks : 0 Valid Blocks : 196608
 Total Tags : 491520 Threshold : 12288 Invalid Tags : 196611 Pr0 Tags : 98301 Pr1 Tags : 196608 num_pr0 : 12288
 SAE Count : 0
 Inter-Core Inteference in Data Store : 4506436
Heartbeat CPU 4 instructions: 160000000 cycles: 190567454 heartbeat IPC: 0.742396 cumulative IPC: 0.839598 (Simulation time: 13 hr 40 min 3 sec) 
 Total Blocks : 196608 Invalid Blocks : 0 Valid Blocks : 196608
 Total Tags : 491520 Threshold : 12288 Invalid Tags : 196608 Pr0 Tags : 98304 Pr1 Tags : 196608 num_pr0 : 12288
 SAE Count : 0
 Inter-Core Inteference in Data Store : 4507828
Heartbeat CPU 5 instructions: 160000000 cycles: 190568670 heartbeat IPC: 0.742394 cumulative IPC: 0.839592 (Simulation time: 13 hr 40 min 3 sec) 
 Total Blocks : 196608 Invalid Blocks : 0 Valid Blocks : 196608
 Total Tags : 491520 Threshold : 12288 Invalid Tags : 196610 Pr0 Tags : 98302 Pr1 Tags : 196608 num_pr0 : 12288
 SAE Count : 0
 Inter-Core Inteference in Data Store : 4507852
Heartbeat CPU 0 instructions: 160000000 cycles: 190647324 heartbeat IPC: 0.742391 cumulative IPC: 0.839246 (Simulation time: 13 hr 40 min 7 sec) 
 Total Blocks : 196608 Invalid Blocks : 0 Valid Blocks : 196608
 Total Tags : 491520 Threshold : 12288 Invalid Tags : 196610 Pr0 Tags : 98302 Pr1 Tags : 196608 num_pr0 : 12288
 SAE Count : 0
 Inter-Core Inteference in Data Store : 4510043
Heartbeat CPU 1 instructions: 160000000 cycles: 190649183 heartbeat IPC: 0.742389 cumulative IPC: 0.839238 (Simulation time: 13 hr 40 min 7 sec) 
 Total Blocks : 196608 Invalid Blocks : 0 Valid Blocks : 196608
 Total Tags : 491520 Threshold : 12288 Invalid Tags : 196613 Pr0 Tags : 98299 Pr1 Tags : 196608 num_pr0 : 12287
 SAE Count : 0
 Inter-Core Inteference in Data Store : 4510103
Heartbeat CPU 2 instructions: 160000000 cycles: 190649936 heartbeat IPC: 0.742391 cumulative IPC: 0.839234 (Simulation time: 13 hr 40 min 7 sec) 
 Total Blocks : 196608 Invalid Blocks : 0 Valid Blocks : 196608
 Total Tags : 491520 Threshold : 12288 Invalid Tags : 196611 Pr0 Tags : 98301 Pr1 Tags : 196608 num_pr0 : 12287
 SAE Count : 0
 Inter-Core Inteference in Data Store : 4510119
Heartbeat CPU 3 instructions: 160000000 cycles: 190650776 heartbeat IPC: 0.742391 cumulative IPC: 0.839231 (Simulation time: 13 hr 40 min 7 sec) 
 Total Blocks : 196608 Invalid Blocks : 0 Valid Blocks : 196608
 Total Tags : 491520 Threshold : 12288 Invalid Tags : 196611 Pr0 Tags : 98301 Pr1 Tags : 196608 num_pr0 : 12288
 SAE Count : 0
 Inter-Core Inteference in Data Store : 4510155
FILL
FILL
FILL
FILL
FILL
FILL
FILL
FILL
FILL
FILL
FILL
FILL
FILL
FILL
FILL
FILL
FILL
FILL
FILL
FILL
FILL
FILL
Heartbeat CPU 6 instructions: 170000000 cycles: 200321595 heartbeat IPC: 1.02022 cumulative IPC: 0.848635 (Simulation time: 14 hr 22 min 29 sec) 
 Total Blocks : 196608 Invalid Blocks : 0 Valid Blocks : 196608
 Total Tags : 491520 Threshold : 12288 Invalid Tags : 196608 Pr0 Tags : 98304 Pr1 Tags : 196608 num_pr0 : 12288
 SAE Count : 0
 Inter-Core Inteference in Data Store : 7700664
Heartbeat CPU 7 instructions: 170000000 cycles: 200322001 heartbeat IPC: 1.02005 cumulative IPC: 0.848634 (Simulation time: 14 hr 22 min 29 sec) 
 Total Blocks : 196608 Invalid Blocks : 0 Valid Blocks : 196608
 Total Tags : 491520 Threshold : 12288 Invalid Tags : 196609 Pr0 Tags : 98303 Pr1 Tags : 196608 num_pr0 : 12288
 SAE Count : 0
 Inter-Core Inteference in Data Store : 7700890
Heartbeat CPU 4 instructions: 170000000 cycles: 200366943 heartbeat IPC: 1.02046 cumulative IPC: 0.848443 (Simulation time: 14 hr 22 min 51 sec) 
 Total Blocks : 196608 Invalid Blocks : 0 Valid Blocks : 196608
 Total Tags : 491520 Threshold : 12288 Invalid Tags : 196608 Pr0 Tags : 98304 Pr1 Tags : 196608 num_pr0 : 12288
 SAE Count : 0
 Inter-Core Inteference in Data Store : 7723822
Heartbeat CPU 5 instructions: 170000000 cycles: 200369620 heartbeat IPC: 1.02031 cumulative IPC: 0.848432 (Simulation time: 14 hr 22 min 52 sec) 
 Total Blocks : 196608 Invalid Blocks : 0 Valid Blocks : 196608
 Total Tags : 491520 Threshold : 12288 Invalid Tags : 196608 Pr0 Tags : 98304 Pr1 Tags : 196608 num_pr0 : 12288
 SAE Count : 0
 Inter-Core Inteference in Data Store : 7725195
Heartbeat CPU 0 instructions: 170000000 cycles: 200441177 heartbeat IPC: 1.02105 cumulative IPC: 0.848129 (Simulation time: 14 hr 23 min 23 sec) 
 Total Blocks : 196608 Invalid Blocks : 0 Valid Blocks : 196608
 Total Tags : 491520 Threshold : 12288 Invalid Tags : 196608 Pr0 Tags : 98304 Pr1 Tags : 196608 num_pr0 : 12288
 SAE Count : 0
 Inter-Core Inteference in Data Store : 7764807
Heartbeat CPU 1 instructions: 170000000 cycles: 200445245 heartbeat IPC: 1.02082 cumulative IPC: 0.848112 (Simulation time: 14 hr 23 min 25 sec) 
 Total Blocks : 196608 Invalid Blocks : 0 Valid Blocks : 196608
 Total Tags : 491520 Threshold : 12288 Invalid Tags : 196608 Pr0 Tags : 98304 Pr1 Tags : 196608 num_pr0 : 12288
 SAE Count : 0
 Inter-Core Inteference in Data Store : 7767164
Heartbeat CPU 2 instructions: 170000001 cycles: 200447091 heartbeat IPC: 1.0207 cumulative IPC: 0.848104 (Simulation time: 14 hr 23 min 26 sec) 
 Total Blocks : 196608 Invalid Blocks : 0 Valid Blocks : 196608
 Total Tags : 491520 Threshold : 12288 Invalid Tags : 196608 Pr0 Tags : 98304 Pr1 Tags : 196608 num_pr0 : 12288
 SAE Count : 0
 Inter-Core Inteference in Data Store : 7768285
Heartbeat CPU 3 instructions: 170000000 cycles: 200449769 heartbeat IPC: 1.02051 cumulative IPC: 0.848093 (Simulation time: 14 hr 23 min 27 sec) 
 Total Blocks : 196608 Invalid Blocks : 0 Valid Blocks : 196608
 Total Tags : 491520 Threshold : 12288 Invalid Tags : 196608 Pr0 Tags : 98304 Pr1 Tags : 196608 num_pr0 : 12288
 SAE Count : 0
 Inter-Core Inteference in Data Store : 7769817
FILL
FILL
FILL
FILL
FILL
FILL
FILL
FILL
FILL
FILL
FILL
FILL
FILL
FILL
FILL
FILL
FILL
FILL
Heartbeat CPU 6 instructions: 180000002 cycles: 206794632 heartbeat IPC: 1.54487 cumulative IPC: 0.870429 (Simulation time: 15 hr 12 min 48 sec) 
 Total Blocks : 196608 Invalid Blocks : 0 Valid Blocks : 196608
 Total Tags : 491520 Threshold : 12288 Invalid Tags : 196608 Pr0 Tags : 98304 Pr1 Tags : 196608 num_pr0 : 12288
 SAE Count : 0
 Inter-Core Inteference in Data Store : 10795515
Heartbeat CPU 7 instructions: 180000002 cycles: 206795961 heartbeat IPC: 1.54465 cumulative IPC: 0.870423 (Simulation time: 15 hr 12 min 50 sec) 
 Total Blocks : 196608 Invalid Blocks : 0 Valid Blocks : 196608
 Total Tags : 491520 Threshold : 12288 Invalid Tags : 196608 Pr0 Tags : 98304 Pr1 Tags : 196608 num_pr0 : 12288
 SAE Count : 0
 Inter-Core Inteference in Data Store : 10795972
Heartbeat CPU 4 instructions: 180000002 cycles: 206837454 heartbeat IPC: 1.54547 cumulative IPC: 0.870249 (Simulation time: 15 hr 13 min 11 sec) 
 Total Blocks : 196608 Invalid Blocks : 0 Valid Blocks : 196608
 Total Tags : 491520 Threshold : 12288 Invalid Tags : 196608 Pr0 Tags : 98304 Pr1 Tags : 196608 num_pr0 : 12288
 SAE Count : 0
 Inter-Core Inteference in Data Store : 10817412
Heartbeat CPU 5 instructions: 180000002 cycles: 206841275 heartbeat IPC: 1.5452 cumulative IPC: 0.870233 (Simulation time: 15 hr 13 min 13 sec) 
 Total Blocks : 196608 Invalid Blocks : 0 Valid Blocks : 196608
 Total Tags : 491520 Threshold : 12288 Invalid Tags : 196608 Pr0 Tags : 98304 Pr1 Tags : 196608 num_pr0 : 12288
 SAE Count : 0
 Inter-Core Inteference in Data Store : 10819220
Heartbeat CPU 0 instructions: 180000002 cycles: 206906092 heartbeat IPC: 1.54681 cumulative IPC: 0.86996 (Simulation time: 15 hr 13 min 52 sec) 
 Total Blocks : 196608 Invalid Blocks : 0 Valid Blocks : 196608
 Total Tags : 491520 Threshold : 12288 Invalid Tags : 196609 Pr0 Tags : 98303 Pr1 Tags : 196608 num_pr0 : 12288
 SAE Count : 0
 Inter-Core Inteference in Data Store : 10852887
Heartbeat CPU 1 instructions: 180000002 cycles: 206912440 heartbeat IPC: 1.54627 cumulative IPC: 0.869933 (Simulation time: 15 hr 13 min 55 sec) 
 Total Blocks : 196608 Invalid Blocks : 0 Valid Blocks : 196608
 Total Tags : 491520 Threshold : 12288 Invalid Tags : 196608 Pr0 Tags : 98304 Pr1 Tags : 196608 num_pr0 : 12288
 SAE Count : 0
 Inter-Core Inteference in Data Store : 10857202
Heartbeat CPU 2 instructions: 180000002 cycles: 206915155 heartbeat IPC: 1.54606 cumulative IPC: 0.869922 (Simulation time: 15 hr 13 min 57 sec) 
 Total Blocks : 196608 Invalid Blocks : 0 Valid Blocks : 196608
 Total Tags : 491520 Threshold : 12288 Invalid Tags : 196608 Pr0 Tags : 98304 Pr1 Tags : 196608 num_pr0 : 12288
 SAE Count : 0
 Inter-Core Inteference in Data Store : 10859002
Heartbeat CPU 3 instructions: 180000002 cycles: 206919276 heartbeat IPC: 1.54571 cumulative IPC: 0.869904 (Simulation time: 15 hr 14 min 0 sec) 
 Total Blocks : 196608 Invalid Blocks : 0 Valid Blocks : 196608
 Total Tags : 491520 Threshold : 12288 Invalid Tags : 196608 Pr0 Tags : 98304 Pr1 Tags : 196608 num_pr0 : 12288
 SAE Count : 0
 Inter-Core Inteference in Data Store : 10861854
FILL
FILL
FILL
FILL
FILL
FILL
FILL
FILL
FILL
FILL
FILL
FILL
FILL
FILL
FILL
FILL
FILL
FILL
FILL
FILL
Heartbeat CPU 6 instructions: 190000000 cycles: 211624474 heartbeat IPC: 2.07046 cumulative IPC: 0.897817 (Simulation time: 15 hr 57 min 12 sec) 
 Total Blocks : 196608 Invalid Blocks : 0 Valid Blocks : 196608
 Total Tags : 491520 Threshold : 12288 Invalid Tags : 196610 Pr0 Tags : 98302 Pr1 Tags : 196608 num_pr0 : 12287
 SAE Count : 0
 Inter-Core Inteference in Data Store : 12938690
Heartbeat CPU 7 instructions: 190000000 cycles: 211626731 heartbeat IPC: 2.07006 cumulative IPC: 0.897807 (Simulation time: 15 hr 57 min 13 sec) 
 Total Blocks : 196608 Invalid Blocks : 0 Valid Blocks : 196608
 Total Tags : 491520 Threshold : 12288 Invalid Tags : 196608 Pr0 Tags : 98304 Pr1 Tags : 196608 num_pr0 : 12288
 SAE Count : 0
 Inter-Core Inteference in Data Store : 12938727
Heartbeat CPU 4 instructions: 190000000 cycles: 211665614 heartbeat IPC: 2.07118 cumulative IPC: 0.897642 (Simulation time: 15 hr 57 min 15 sec) 
 Total Blocks : 196608 Invalid Blocks : 0 Valid Blocks : 196608
 Total Tags : 491520 Threshold : 12288 Invalid Tags : 196609 Pr0 Tags : 98303 Pr1 Tags : 196608 num_pr0 : 12288
 SAE Count : 0
 Inter-Core Inteference in Data Store : 12939364
Heartbeat CPU 5 instructions: 190000000 cycles: 211670317 heartbeat IPC: 2.0708 cumulative IPC: 0.897622 (Simulation time: 15 hr 57 min 15 sec) 
 Total Blocks : 196608 Invalid Blocks : 0 Valid Blocks : 196608
 Total Tags : 491520 Threshold : 12288 Invalid Tags : 196608 Pr0 Tags : 98304 Pr1 Tags : 196608 num_pr0 : 12288
 SAE Count : 0
 Inter-Core Inteference in Data Store : 12939427
Heartbeat CPU 0 instructions: 190000000 cycles: 211730624 heartbeat IPC: 2.07274 cumulative IPC: 0.897367 (Simulation time: 15 hr 57 min 18 sec) 
 Total Blocks : 196608 Invalid Blocks : 0 Valid Blocks : 196608
 Total Tags : 491520 Threshold : 12288 Invalid Tags : 196608 Pr0 Tags : 98304 Pr1 Tags : 196608 num_pr0 : 12288
 SAE Count : 0
 Inter-Core Inteference in Data Store : 12940270
Heartbeat CPU 1 instructions: 190000000 cycles: 211738328 heartbeat IPC: 2.07216 cumulative IPC: 0.897334 (Simulation time: 15 hr 57 min 19 sec) 
 Total Blocks : 196608 Invalid Blocks : 0 Valid Blocks : 196608
 Total Tags : 491520 Threshold : 12288 Invalid Tags : 196608 Pr0 Tags : 98304 Pr1 Tags : 196608 num_pr0 : 12288
 SAE Count : 0
 Inter-Core Inteference in Data Store : 12940401
Heartbeat CPU 2 instructions: 190000000 cycles: 211742305 heartbeat IPC: 2.07162 cumulative IPC: 0.897317 (Simulation time: 15 hr 57 min 19 sec) 
 Total Blocks : 196608 Invalid Blocks : 0 Valid Blocks : 196608
 Total Tags : 491520 Threshold : 12288 Invalid Tags : 196608 Pr0 Tags : 98304 Pr1 Tags : 196608 num_pr0 : 12288
 SAE Count : 0
 Inter-Core Inteference in Data Store : 12940438
Heartbeat CPU 3 instructions: 190000000 cycles: 211747028 heartbeat IPC: 2.07136 cumulative IPC: 0.897297 (Simulation time: 15 hr 57 min 19 sec) 
 Total Blocks : 196608 Invalid Blocks : 0 Valid Blocks : 196608
 Total Tags : 491520 Threshold : 12288 Invalid Tags : 196608 Pr0 Tags : 98304 Pr1 Tags : 196608 num_pr0 : 12288
 SAE Count : 0
 Inter-Core Inteference in Data Store : 12940505
Heartbeat CPU 6 instructions: 200000002 cycles: 227007989 heartbeat IPC: 0.650047 cumulative IPC: 0.881026 (Simulation time: 16 hr 11 min 32 sec) 
 Total Blocks : 196608 Invalid Blocks : 0 Valid Blocks : 196608
 Total Tags : 491520 Threshold : 12288 Invalid Tags : 196609 Pr0 Tags : 98303 Pr1 Tags : 196608 num_pr0 : 12288
 SAE Count : 0
 Inter-Core Inteference in Data Store : 13195458
Heartbeat CPU 7 instructions: 200000002 cycles: 227008212 heartbeat IPC: 0.650133 cumulative IPC: 0.881025 (Simulation time: 16 hr 11 min 32 sec) 
 Total Blocks : 196608 Invalid Blocks : 0 Valid Blocks : 196608
 Total Tags : 491520 Threshold : 12288 Invalid Tags : 196608 Pr0 Tags : 98304 Pr1 Tags : 196608 num_pr0 : 12288
 SAE Count : 0
 Inter-Core Inteference in Data Store : 13195459
Heartbeat CPU 4 instructions: 200000002 cycles: 227050455 heartbeat IPC: 0.649991 cumulative IPC: 0.880861 (Simulation time: 16 hr 11 min 34 sec) 
 Total Blocks : 196608 Invalid Blocks : 0 Valid Blocks : 196608
 Total Tags : 491520 Threshold : 12288 Invalid Tags : 196609 Pr0 Tags : 98303 Pr1 Tags : 196608 num_pr0 : 12288
 SAE Count : 0
 Inter-Core Inteference in Data Store : 13196206
Heartbeat CPU 5 instructions: 200000002 cycles: 227055456 heartbeat IPC: 0.649978 cumulative IPC: 0.880842 (Simulation time: 16 hr 11 min 34 sec) 
 Total Blocks : 196608 Invalid Blocks : 0 Valid Blocks : 196608
 Total Tags : 491520 Threshold : 12288 Invalid Tags : 196610 Pr0 Tags : 98302 Pr1 Tags : 196608 num_pr0 : 12288
 SAE Count : 0
 Inter-Core Inteference in Data Store : 13196292
Heartbeat CPU 0 instructions: 200000002 cycles: 227142202 heartbeat IPC: 0.648863 cumulative IPC: 0.880506 (Simulation time: 16 hr 11 min 38 sec) 
 Total Blocks : 196608 Invalid Blocks : 0 Valid Blocks : 196608
 Total Tags : 491520 Threshold : 12288 Invalid Tags : 196609 Pr0 Tags : 98303 Pr1 Tags : 196608 num_pr0 : 12288
 SAE Count : 0
 Inter-Core Inteference in Data Store : 13197794
Heartbeat CPU 1 instructions: 200000002 cycles: 227150011 heartbeat IPC: 0.648859 cumulative IPC: 0.880475 (Simulation time: 16 hr 11 min 39 sec) 
 Total Blocks : 196608 Invalid Blocks : 0 Valid Blocks : 196608
 Total Tags : 491520 Threshold : 12288 Invalid Tags : 196609 Pr0 Tags : 98303 Pr1 Tags : 196608 num_pr0 : 12288
 SAE Count : 0
 Inter-Core Inteference in Data Store : 13197952
Heartbeat CPU 2 instructions: 200000002 cycles: 227154150 heartbeat IPC: 0.648852 cumulative IPC: 0.880459 (Simulation time: 16 hr 11 min 39 sec) 
 Total Blocks : 196608 Invalid Blocks : 0 Valid Blocks : 196608
 Total Tags : 491520 Threshold : 12288 Invalid Tags : 196609 Pr0 Tags : 98303 Pr1 Tags : 196608 num_pr0 : 12288
 SAE Count : 0
 Inter-Core Inteference in Data Store : 13198034
Heartbeat CPU 3 instructions: 200000002 cycles: 227158864 heartbeat IPC: 0.648852 cumulative IPC: 0.880441 (Simulation time: 16 hr 11 min 39 sec) 
 Total Blocks : 196608 Invalid Blocks : 0 Valid Blocks : 196608
 Total Tags : 491520 Threshold : 12288 Invalid Tags : 196608 Pr0 Tags : 98304 Pr1 Tags : 196608 num_pr0 : 12288
 SAE Count : 0
 Inter-Core Inteference in Data Store : 13198149

Warmup complete CPU 0 instructions: 200010873 cycles: 227158864 (Simulation time: 16 hr 11 min 39 sec) 
Warmup complete CPU 1 instructions: 200005941 cycles: 227158864 (Simulation time: 16 hr 11 min 39 sec) 
Warmup complete CPU 2 instructions: 200002887 cycles: 227158864 (Simulation time: 16 hr 11 min 39 sec) 
Warmup complete CPU 3 instructions: 200000002 cycles: 227158864 (Simulation time: 16 hr 11 min 39 sec) 
Warmup complete CPU 4 instructions: 200071353 cycles: 227158863 (Simulation time: 16 hr 11 min 39 sec) 
Warmup complete CPU 5 instructions: 200068156 cycles: 227158863 (Simulation time: 16 hr 11 min 39 sec) 
Warmup complete CPU 6 instructions: 200098026 cycles: 227158863 (Simulation time: 16 hr 11 min 39 sec) 
Warmup complete CPU 7 instructions: 200097958 cycles: 227158863 (Simulation time: 16 hr 11 min 39 sec) 

FILL
Heartbeat CPU 6 instructions: 210000001 cycles: 276135187 heartbeat IPC: 0.203553 cumulative IPC: 0.202179 (Simulation time: 16 hr 39 min 53 sec) 
 Total Blocks : 196608 Invalid Blocks : 0 Valid Blocks : 196608
 Total Tags : 491520 Threshold : 12288 Invalid Tags : 196608 Pr0 Tags : 98304 Pr1 Tags : 196608 num_pr0 : 12288
 SAE Count : 0
 Inter-Core Inteference in Data Store : 209151
Heartbeat CPU 7 instructions: 210000001 cycles: 276174459 heartbeat IPC: 0.203392 cumulative IPC: 0.202018 (Simulation time: 16 hr 39 min 54 sec) 
 Total Blocks : 196608 Invalid Blocks : 0 Valid Blocks : 196608
 Total Tags : 491520 Threshold : 12288 Invalid Tags : 196608 Pr0 Tags : 98304 Pr1 Tags : 196608 num_pr0 : 12288
 SAE Count : 0
 Inter-Core Inteference in Data Store : 209188
Heartbeat CPU 4 instructions: 210000001 cycles: 276435038 heartbeat IPC: 0.202492 cumulative IPC: 0.20149 (Simulation time: 16 hr 40 min 3 sec) 
 Total Blocks : 196608 Invalid Blocks : 0 Valid Blocks : 196608
 Total Tags : 491520 Threshold : 12288 Invalid Tags : 196609 Pr0 Tags : 98303 Pr1 Tags : 196608 num_pr0 : 12288
 SAE Count : 0
 Inter-Core Inteference in Data Store : 209472
Heartbeat CPU 5 instructions: 210000001 cycles: 276504884 heartbeat IPC: 0.202227 cumulative IPC: 0.201269 (Simulation time: 16 hr 40 min 6 sec) 
 Total Blocks : 196608 Invalid Blocks : 0 Valid Blocks : 196608
 Total Tags : 491520 Threshold : 12288 Invalid Tags : 196608 Pr0 Tags : 98304 Pr1 Tags : 196608 num_pr0 : 12288
 SAE Count : 0
 Inter-Core Inteference in Data Store : 209541
Heartbeat CPU 0 instructions: 210000001 cycles: 277118652 heartbeat IPC: 0.200094 cumulative IPC: 0.199943 (Simulation time: 16 hr 40 min 28 sec) 
 Total Blocks : 196608 Invalid Blocks : 0 Valid Blocks : 196608
 Total Tags : 491520 Threshold : 12288 Invalid Tags : 196609 Pr0 Tags : 98303 Pr1 Tags : 196608 num_pr0 : 12288
 SAE Count : 0
 Inter-Core Inteference in Data Store : 210172
Heartbeat CPU 1 instructions: 210000001 cycles: 277118760 heartbeat IPC: 0.200125 cumulative IPC: 0.200042 (Simulation time: 16 hr 40 min 28 sec) 
 Total Blocks : 196608 Invalid Blocks : 0 Valid Blocks : 196608
 Total Tags : 491520 Threshold : 12288 Invalid Tags : 196608 Pr0 Tags : 98304 Pr1 Tags : 196608 num_pr0 : 12288
 SAE Count : 0
 Inter-Core Inteference in Data Store : 210172
Heartbeat CPU 2 instructions: 210000001 cycles: 277513410 heartbeat IPC: 0.198573 cumulative IPC: 0.198534 (Simulation time: 16 hr 40 min 40 sec) 
 Total Blocks : 196608 Invalid Blocks : 0 Valid Blocks : 196608
 Total Tags : 491520 Threshold : 12288 Invalid Tags : 196608 Pr0 Tags : 98304 Pr1 Tags : 196608 num_pr0 : 12288
 SAE Count : 0
 Inter-Core Inteference in Data Store : 210601
Heartbeat CPU 3 instructions: 210000001 cycles: 277563911 heartbeat IPC: 0.198393 cumulative IPC: 0.198393 (Simulation time: 16 hr 40 min 41 sec) 
 Total Blocks : 196608 Invalid Blocks : 0 Valid Blocks : 196608
 Total Tags : 491520 Threshold : 12288 Invalid Tags : 196608 Pr0 Tags : 98304 Pr1 Tags : 196608 num_pr0 : 12288
 SAE Count : 0
 Inter-Core Inteference in Data Store : 210653
FILL
Heartbeat CPU 6 instructions: 220000000 cycles: 300522877 heartbeat IPC: 0.410043 cumulative IPC: 0.271277 (Simulation time: 16 hr 58 min 50 sec) 
 Total Blocks : 196608 Invalid Blocks : 0 Valid Blocks : 196608
 Total Tags : 491520 Threshold : 12288 Invalid Tags : 196608 Pr0 Tags : 98304 Pr1 Tags : 196608 num_pr0 : 12288
 SAE Count : 0
 Inter-Core Inteference in Data Store : 228430
Heartbeat CPU 7 instructions: 220000000 cycles: 300561011 heartbeat IPC: 0.410062 cumulative IPC: 0.271137 (Simulation time: 16 hr 58 min 59 sec) 
 Total Blocks : 196608 Invalid Blocks : 0 Valid Blocks : 196608
 Total Tags : 491520 Threshold : 12288 Invalid Tags : 196608 Pr0 Tags : 98304 Pr1 Tags : 196608 num_pr0 : 12288
 SAE Count : 0
 Inter-Core Inteference in Data Store : 228433
Heartbeat CPU 4 instructions: 220000000 cycles: 300887636 heartbeat IPC: 0.408954 cumulative IPC: 0.270297 (Simulation time: 17 hr 0 min 10 sec) 
 Total Blocks : 196608 Invalid Blocks : 0 Valid Blocks : 196608
 Total Tags : 491520 Threshold : 12288 Invalid Tags : 196608 Pr0 Tags : 98304 Pr1 Tags : 196608 num_pr0 : 12288
 SAE Count : 0
 Inter-Core Inteference in Data Store : 228462
Heartbeat CPU 5 instructions: 220000000 cycles: 300955277 heartbeat IPC: 0.408991 cumulative IPC: 0.270092 (Simulation time: 17 hr 0 min 27 sec) 
 Total Blocks : 196608 Invalid Blocks : 0 Valid Blocks : 196608
 Total Tags : 491520 Threshold : 12288 Invalid Tags : 196608 Pr0 Tags : 98304 Pr1 Tags : 196608 num_pr0 : 12288
 SAE Count : 0
 Inter-Core Inteference in Data Store : 228470
Heartbeat CPU 0 instructions: 220000000 cycles: 301530394 heartbeat IPC: 0.409639 cumulative IPC: 0.268774 (Simulation time: 17 hr 2 min 39 sec) 
 Total Blocks : 196608 Invalid Blocks : 0 Valid Blocks : 196608
 Total Tags : 491520 Threshold : 12288 Invalid Tags : 196610 Pr0 Tags : 98302 Pr1 Tags : 196608 num_pr0 : 12288
 SAE Count : 0
 Inter-Core Inteference in Data Store : 228530
Heartbeat CPU 1 instructions: 220000000 cycles: 301530445 heartbeat IPC: 0.40964 cumulative IPC: 0.26884 (Simulation time: 17 hr 2 min 40 sec) 
 Total Blocks : 196608 Invalid Blocks : 0 Valid Blocks : 196608
 Total Tags : 491520 Threshold : 12288 Invalid Tags : 196610 Pr0 Tags : 98302 Pr1 Tags : 196608 num_pr0 : 12288
 SAE Count : 0
 Inter-Core Inteference in Data Store : 228530
Heartbeat CPU 2 instructions: 220000000 cycles: 301967072 heartbeat IPC: 0.408937 cumulative IPC: 0.267312 (Simulation time: 17 hr 4 min 23 sec) 
 Total Blocks : 196608 Invalid Blocks : 0 Valid Blocks : 196608
 Total Tags : 491520 Threshold : 12288 Invalid Tags : 196609 Pr0 Tags : 98303 Pr1 Tags : 196608 num_pr0 : 12288
 SAE Count : 0
 Inter-Core Inteference in Data Store : 228599
Heartbeat CPU 3 instructions: 220000000 cycles: 301990178 heartbeat IPC: 0.409395 cumulative IPC: 0.267268 (Simulation time: 17 hr 4 min 29 sec) 
 Total Blocks : 196608 Invalid Blocks : 0 Valid Blocks : 196608
 Total Tags : 491520 Threshold : 12288 Invalid Tags : 196610 Pr0 Tags : 98302 Pr1 Tags : 196608 num_pr0 : 12288
 SAE Count : 0
 Inter-Core Inteference in Data Store : 228600
Heartbeat CPU 6 instructions: 230000001 cycles: 310151538 heartbeat IPC: 1.03857 cumulative IPC: 0.360297 (Simulation time: 17 hr 26 min 7 sec) 
 Total Blocks : 196608 Invalid Blocks : 0 Valid Blocks : 196608
 Total Tags : 491520 Threshold : 12288 Invalid Tags : 196608 Pr0 Tags : 98304 Pr1 Tags : 196608 num_pr0 : 12288
 SAE Count : 0
 Inter-Core Inteference in Data Store : 255720
Heartbeat CPU 7 instructions: 230000001 cycles: 310202360 heartbeat IPC: 1.0372 cumulative IPC: 0.360077 (Simulation time: 17 hr 26 min 16 sec) 
 Total Blocks : 196608 Invalid Blocks : 0 Valid Blocks : 196608
 Total Tags : 491520 Threshold : 12288 Invalid Tags : 196608 Pr0 Tags : 98304 Pr1 Tags : 196608 num_pr0 : 12288
 SAE Count : 0
 Inter-Core Inteference in Data Store : 255906
Heartbeat CPU 4 instructions: 230000001 cycles: 310568928 heartbeat IPC: 1.03292 cumulative IPC: 0.358813 (Simulation time: 17 hr 27 min 14 sec) 
 Total Blocks : 196608 Invalid Blocks : 0 Valid Blocks : 196608
 Total Tags : 491520 Threshold : 12288 Invalid Tags : 196608 Pr0 Tags : 98304 Pr1 Tags : 196608 num_pr0 : 12288
 SAE Count : 0
 Inter-Core Inteference in Data Store : 256970
Heartbeat CPU 5 instructions: 230000001 cycles: 310665356 heartbeat IPC: 1.02986 cumulative IPC: 0.358437 (Simulation time: 17 hr 27 min 30 sec) 
 Total Blocks : 196608 Invalid Blocks : 0 Valid Blocks : 196608
 Total Tags : 491520 Threshold : 12288 Invalid Tags : 196608 Pr0 Tags : 98304 Pr1 Tags : 196608 num_pr0 : 12288
 SAE Count : 0
 Inter-Core Inteference in Data Store : 257211
Heartbeat CPU 1 instructions: 230000001 cycles: 311153969 heartbeat IPC: 1.03912 cumulative IPC: 0.357093 (Simulation time: 17 hr 28 min 49 sec) 
 Total Blocks : 196608 Invalid Blocks : 0 Valid Blocks : 196608
 Total Tags : 491520 Threshold : 12288 Invalid Tags : 196608 Pr0 Tags : 98304 Pr1 Tags : 196608 num_pr0 : 12288
 SAE Count : 0
 Inter-Core Inteference in Data Store : 258276
Heartbeat CPU 0 instructions: 230000001 cycles: 311160672 heartbeat IPC: 1.03839 cumulative IPC: 0.357006 (Simulation time: 17 hr 28 min 50 sec) 
 Total Blocks : 196608 Invalid Blocks : 0 Valid Blocks : 196608
 Total Tags : 491520 Threshold : 12288 Invalid Tags : 196608 Pr0 Tags : 98304 Pr1 Tags : 196608 num_pr0 : 12288
 SAE Count : 0
 Inter-Core Inteference in Data Store : 258286
Heartbeat CPU 3 instructions: 230000001 cycles: 311463485 heartbeat IPC: 1.0556 cumulative IPC: 0.355852 (Simulation time: 17 hr 29 min 41 sec) 
 Total Blocks : 196608 Invalid Blocks : 0 Valid Blocks : 196608
 Total Tags : 491520 Threshold : 12288 Invalid Tags : 196608 Pr0 Tags : 98304 Pr1 Tags : 196608 num_pr0 : 12288
 SAE Count : 0
 Inter-Core Inteference in Data Store : 258854
Heartbeat CPU 2 instructions: 230000001 cycles: 311472457 heartbeat IPC: 1.05204 cumulative IPC: 0.35578 (Simulation time: 17 hr 29 min 43 sec) 
 Total Blocks : 196608 Invalid Blocks : 0 Valid Blocks : 196608
 Total Tags : 491520 Threshold : 12288 Invalid Tags : 196608 Pr0 Tags : 98304 Pr1 Tags : 196608 num_pr0 : 12288
 SAE Count : 0
 Inter-Core Inteference in Data Store : 258870
FILL
Heartbeat CPU 6 instructions: 240000001 cycles: 332719442 heartbeat IPC: 0.443107 cumulative IPC: 0.378001 (Simulation time: 17 hr 50 min 33 sec) 
 Total Blocks : 196608 Invalid Blocks : 0 Valid Blocks : 196608
 Total Tags : 491520 Threshold : 12288 Invalid Tags : 196613 Pr0 Tags : 98299 Pr1 Tags : 196608 num_pr0 : 12288
 SAE Count : 0
 Inter-Core Inteference in Data Store : 517753
Heartbeat CPU 7 instructions: 240000001 cycles: 332754613 heartbeat IPC: 0.443415 cumulative IPC: 0.377875 (Simulation time: 17 hr 50 min 35 sec) 
 Total Blocks : 196608 Invalid Blocks : 0 Valid Blocks : 196608
 Total Tags : 491520 Threshold : 12288 Invalid Tags : 196612 Pr0 Tags : 98300 Pr1 Tags : 196608 num_pr0 : 12288
 SAE Count : 0
 Inter-Core Inteference in Data Store : 518319
Heartbeat CPU 4 instructions: 240000001 cycles: 333161773 heartbeat IPC: 0.442618 cumulative IPC: 0.376675 (Simulation time: 17 hr 50 min 53 sec) 
 Total Blocks : 196608 Invalid Blocks : 0 Valid Blocks : 196608
 Total Tags : 491520 Threshold : 12288 Invalid Tags : 196611 Pr0 Tags : 98301 Pr1 Tags : 196608 num_pr0 : 12288
 SAE Count : 0
 Inter-Core Inteference in Data Store : 524166
Heartbeat CPU 5 instructions: 240000001 cycles: 333281347 heartbeat IPC: 0.442165 cumulative IPC: 0.376281 (Simulation time: 17 hr 50 min 58 sec) 
 Total Blocks : 196608 Invalid Blocks : 0 Valid Blocks : 196608
 Total Tags : 491520 Threshold : 12288 Invalid Tags : 196613 Pr0 Tags : 98299 Pr1 Tags : 196608 num_pr0 : 12287
 SAE Count : 0
 Inter-Core Inteference in Data Store : 525897
FILL
Heartbeat CPU 1 instructions: 240000001 cycles: 333648955 heartbeat IPC: 0.444544 cumulative IPC: 0.375566 (Simulation time: 17 hr 51 min 14 sec) 
 Total Blocks : 196608 Invalid Blocks : 0 Valid Blocks : 196608
 Total Tags : 491520 Threshold : 12288 Invalid Tags : 196615 Pr0 Tags : 98297 Pr1 Tags : 196608 num_pr0 : 12288
 SAE Count : 0
 Inter-Core Inteference in Data Store : 531181
Heartbeat CPU 0 instructions: 240000001 cycles: 333658792 heartbeat IPC: 0.444482 cumulative IPC: 0.375485 (Simulation time: 17 hr 51 min 15 sec) 
 Total Blocks : 196608 Invalid Blocks : 0 Valid Blocks : 196608
 Total Tags : 491520 Threshold : 12288 Invalid Tags : 196611 Pr0 Tags : 98301 Pr1 Tags : 196608 num_pr0 : 12288
 SAE Count : 0
 Inter-Core Inteference in Data Store : 531360
Heartbeat CPU 3 instructions: 240000001 cycles: 334013179 heartbeat IPC: 0.443465 cumulative IPC: 0.374341 (Simulation time: 17 hr 51 min 31 sec) 
 Total Blocks : 196608 Invalid Blocks : 0 Valid Blocks : 196608
 Total Tags : 491520 Threshold : 12288 Invalid Tags : 196609 Pr0 Tags : 98303 Pr1 Tags : 196608 num_pr0 : 12288
 SAE Count : 0
 Inter-Core Inteference in Data Store : 536395
Heartbeat CPU 2 instructions: 240000001 cycles: 334020050 heartbeat IPC: 0.443506 cumulative IPC: 0.37429 (Simulation time: 17 hr 51 min 31 sec) 
 Total Blocks : 196608 Invalid Blocks : 0 Valid Blocks : 196608
 Total Tags : 491520 Threshold : 12288 Invalid Tags : 196612 Pr0 Tags : 98300 Pr1 Tags : 196608 num_pr0 : 12287
 SAE Count : 0
 Inter-Core Inteference in Data Store : 536496
FILL
FILL
FILL
FILL
FILL
FILL
FILL
Heartbeat CPU 6 instructions: 250000000 cycles: 394753837 heartbeat IPC: 0.161201 cumulative IPC: 0.297753 (Simulation time: 18 hr 37 min 18 sec) 
 Total Blocks : 196608 Invalid Blocks : 0 Valid Blocks : 196608
 Total Tags : 491520 Threshold : 12288 Invalid Tags : 196609 Pr0 Tags : 98303 Pr1 Tags : 196608 num_pr0 : 12288
 SAE Count : 0
 Inter-Core Inteference in Data Store : 1462411
Heartbeat CPU 7 instructions: 250000000 cycles: 394894325 heartbeat IPC: 0.160928 cumulative IPC: 0.297504 (Simulation time: 18 hr 37 min 23 sec) 
 Total Blocks : 196608 Invalid Blocks : 0 Valid Blocks : 196608
 Total Tags : 491520 Threshold : 12288 Invalid Tags : 196609 Pr0 Tags : 98303 Pr1 Tags : 196608 num_pr0 : 12288
 SAE Count : 0
 Inter-Core Inteference in Data Store : 1462921
Heartbeat CPU 4 instructions: 250000000 cycles: 395060179 heartbeat IPC: 0.161555 cumulative IPC: 0.297369 (Simulation time: 18 hr 37 min 28 sec) 
 Total Blocks : 196608 Invalid Blocks : 0 Valid Blocks : 196608
 Total Tags : 491520 Threshold : 12288 Invalid Tags : 196610 Pr0 Tags : 98302 Pr1 Tags : 196608 num_pr0 : 12288
 SAE Count : 0
 Inter-Core Inteference in Data Store : 1463552
Heartbeat CPU 5 instructions: 250000000 cycles: 395130189 heartbeat IPC: 0.161684 cumulative IPC: 0.297264 (Simulation time: 18 hr 37 min 30 sec) 
 Total Blocks : 196608 Invalid Blocks : 0 Valid Blocks : 196608
 Total Tags : 491520 Threshold : 12288 Invalid Tags : 196611 Pr0 Tags : 98301 Pr1 Tags : 196608 num_pr0 : 12288
 SAE Count : 0
 Inter-Core Inteference in Data Store : 1463844
Heartbeat CPU 0 instructions: 250000000 cycles: 395334698 heartbeat IPC: 0.162138 cumulative IPC: 0.297243 (Simulation time: 18 hr 37 min 36 sec) 
 Total Blocks : 196608 Invalid Blocks : 0 Valid Blocks : 196608
[...]
LLC4 LOAD      ACCESS: 297624  HIT: 155659  MISS: 141965  HIT %: 52.3006  MISS %: 47.6994  AVERAGE MISS PENALTY: 569.019
LLC4 RFO       ACCESS: 31514  HIT:  4071  MISS: 27443  HIT %: 12.9181  MISS %: 87.0819  AVERAGE MISS PENALTY: 433.836
LLC4 PREFETCH  ACCESS: 1269042  HIT: 520957  MISS: 748085  HIT %: 41.0512  MISS %: 58.9488  AVERAGE MISS PENALTY: 522.686
LLC4 WRITEBACK ACCESS: 118268  HIT: 41264  MISS: 77004  HIT %: 34.8902  MISS %: 65.1098  AVERAGE MISS PENALTY: 0
LLC4 PREFETCH  REQUESTED:     0  ISSUED:     0  USEFUL: 150395  USELESS: 430256
 USEFUL LOAD PREFETCHES:     150395 PREFETCH ISSUED TO LOWER LEVEL:   93659002  ACCURACY: 0.160577
 TIMELY PREFETCHES:     150395 LATE PREFETCHES: 0 DROPPED PREFETCHES: 0
LLC4 AVERAGE MISS LATENCY: 486.377 cycles

LLC4 Set Associative Eviction Count : 0
LLC4 Priority 0 entries : 12288
LLC4 Inter-Core Interference : 1172097
LLC5 TOTAL     ACCESS: 1705446  HIT: 713807  MISS: 991639  HIT %: 41.8546  MISS %: 58.1454  AVERAGE MISS PENALTY: 478.266
LLC5 LOAD      ACCESS: 293673  HIT: 152430  MISS: 141243  HIT %: 51.9047  MISS %: 48.0953  AVERAGE MISS PENALTY: 555.437
LLC5 RFO       ACCESS: 31508  HIT:  3993  MISS: 27515  HIT %: 12.673  MISS %: 87.327  AVERAGE MISS PENALTY: 429.374
LLC5 PREFETCH  ACCESS: 1261924  HIT: 516149  MISS: 745775  HIT %: 40.9018  MISS %: 59.0982  AVERAGE MISS PENALTY: 514.902
LLC5 WRITEBACK ACCESS: 118341  HIT: 41235  MISS: 77106  HIT %: 34.8442  MISS %: 65.1558  AVERAGE MISS PENALTY: 0
LLC5 PREFETCH  REQUESTED:     0  ISSUED:     0  USEFUL: 149580  USELESS: 428109
 USEFUL LOAD PREFETCHES:     149580 PREFETCH ISSUED TO LOWER LEVEL:   89001324  ACCURACY: 0.168065
 TIMELY PREFETCHES:     149580 LATE PREFETCHES: 0 DROPPED PREFETCHES: 0
LLC5 AVERAGE MISS LATENCY: 478.266 cycles

LLC5 Set Associative Eviction Count : 0
LLC5 Priority 0 entries : 12288
LLC5 Inter-Core Interference : 1167405
LLC6 TOTAL     ACCESS: 1695231  HIT: 709303  MISS: 985928  HIT %: 41.8411  MISS %: 58.1589  AVERAGE MISS PENALTY: 482.608
LLC6 LOAD      ACCESS: 297570  HIT: 156338  MISS: 141232  HIT %: 52.5382  MISS %: 47.4618  AVERAGE MISS PENALTY: 561.632
LLC6 RFO       ACCESS: 31508  HIT:  4014  MISS: 27494  HIT %: 12.7396  MISS %: 87.2604  AVERAGE MISS PENALTY: 431.186
LLC6 PREFETCH  ACCESS: 1247920  HIT: 507737  MISS: 740183  HIT %: 40.6867  MISS %: 59.3133  AVERAGE MISS PENALTY: 519.657
LLC6 WRITEBACK ACCESS: 118233  HIT: 41214  MISS: 77019  HIT %: 34.8583  MISS %: 65.1417  AVERAGE MISS PENALTY: 0
LLC6 PREFETCH  REQUESTED:     0  ISSUED:     0  USEFUL: 147038  USELESS: 422207
 USEFUL LOAD PREFETCHES:     147038 PREFETCH ISSUED TO LOWER LEVEL:  122363268  ACCURACY: 0.120165
 TIMELY PREFETCHES:     147038 LATE PREFETCHES: 0 DROPPED PREFETCHES: 0
LLC6 AVERAGE MISS LATENCY: 482.608 cycles

LLC6 Set Associative Eviction Count : 0
LLC6 Priority 0 entries : 12288
LLC6 Inter-Core Interference : 1159016
LLC7 TOTAL     ACCESS: 1678407  HIT: 696825  MISS: 981582  HIT %: 41.517  MISS %: 58.483  AVERAGE MISS PENALTY: 474.778
LLC7 LOAD      ACCESS: 292375  HIT: 150994  MISS: 141381  HIT %: 51.644  MISS %: 48.356  AVERAGE MISS PENALTY: 554.051
LLC7 RFO       ACCESS: 31527  HIT:  3984  MISS: 27543  HIT %: 12.6368  MISS %: 87.3632  AVERAGE MISS PENALTY: 429.141
LLC7 PREFETCH  ACCESS: 1236346  HIT: 500963  MISS: 735383  HIT %: 40.5196  MISS %: 59.4804  AVERAGE MISS PENALTY: 511.138
LLC7 WRITEBACK ACCESS: 118159  HIT: 40884  MISS: 77275  HIT %: 34.6008  MISS %: 65.3992  AVERAGE MISS PENALTY: 0
LLC7 PREFETCH  REQUESTED:     0  ISSUED:     0  USEFUL: 147659  USELESS: 417864
 USEFUL LOAD PREFETCHES:     147659 PREFETCH ISSUED TO LOWER LEVEL:  115323897  ACCURACY: 0.128039
 TIMELY PREFETCHES:     147659 LATE PREFETCHES: 0 DROPPED PREFETCHES: 0
LLC7 AVERAGE MISS LATENCY: 474.778 cycles

LLC7 Set Associative Eviction Count : 0
LLC7 Priority 0 entries : 12288
LLC7 Inter-Core Interference : 1158746
ROI Average ROB Stall Cycles:	10.8708
ROI Total ROB Stalls Cycles:	737392690
ROI TOTAL ROB counter      :	67832317
ROI Average Load ROB Stall Cycles:	46.0364
ROI Total Load ROB Stalls Cycle  :	362784507
ROI Total Load ROB stalls Counter:	7880379
Major fault: 0 Minor fault: 29547

CPU 7 cumulative IPC: 0.227737 instructions: 200000001 cycles: 878205590
ITLB TOTAL     ACCESS: 29607694  HIT: 29607694  MISS:     0  HIT %:   100  MISS %:     0  AVERAGE MISS PENALTY: 0
ITLB LOAD      ACCESS: 29607694  HIT: 29607694  MISS:     0  HIT %:   100  MISS %:     0  AVERAGE MISS PENALTY: 0
ITLB RFO       ACCESS:     0  HIT:     0  MISS:     0  HIT %:     0  MISS %:     0  AVERAGE MISS PENALTY: 0
ITLB PREFETCH  ACCESS:     0  HIT:     0  MISS:     0  HIT %:     0  MISS %:     0  AVERAGE MISS PENALTY: 0
ITLB WRITEBACK ACCESS:     0  HIT:     0  MISS:     0  HIT %:     0  MISS %:     0  AVERAGE MISS PENALTY: 0
ITLB PREFETCH  REQUESTED:     0  ISSUED:     0  USEFUL:     0  USELESS:     0
 USEFUL LOAD PREFETCHES:          0 PREFETCH ISSUED TO LOWER LEVEL:          0  ACCURACY: -nan
 TIMELY PREFETCHES:          0 LATE PREFETCHES: 0 DROPPED PREFETCHES: 0
ITLB AVERAGE MISS LATENCY: -nan cycles

ITLB Set Associative Eviction Count : 0
ITLB Priority 0 entries : 0
ITLB Inter-Core Interference : 0
DTLB TOTAL     ACCESS: 38672814  HIT: 38146812  MISS: 526002  HIT %: 98.6399  MISS %: 1.36013  AVERAGE MISS PENALTY: 43.9874
DTLB LOAD      ACCESS: 32012100  HIT: 31497490  MISS: 514610  HIT %: 98.3925  MISS %: 1.60755  AVERAGE MISS PENALTY: 44.052
DTLB RFO       ACCESS: 6660714  HIT: 6649322  MISS: 11392  HIT %: 99.829  MISS %: 0.171033  AVERAGE MISS PENALTY: 41.0682
DTLB PREFETCH  ACCESS:     0  HIT:     0  MISS:     0  HIT %:     0  MISS %:     0  AVERAGE MISS PENALTY: 0
DTLB WRITEBACK ACCESS:     0  HIT:     0  MISS:     0  HIT %:     0  MISS %:     0  AVERAGE MISS PENALTY: 0
DTLB PREFETCH  REQUESTED:     0  ISSUED:     0  USEFUL:     0  USELESS:     0
 USEFUL LOAD PREFETCHES:          0 PREFETCH ISSUED TO LOWER LEVEL:          0  ACCURACY: -nan
 TIMELY PREFETCHES:          0 LATE PREFETCHES: 0 DROPPED PREFETCHES: 0
DTLB AVERAGE MISS LATENCY: 43.9874 cycles

DTLB Set Associative Eviction Count : 0
DTLB Priority 0 entries : 0
DTLB Inter-Core Interference : 0
STLB TOTAL     ACCESS: 526002  HIT: 354149  MISS: 171853  HIT %: 67.3285  MISS %: 32.6715  AVERAGE MISS PENALTY: 100
STLB LOAD      ACCESS: 514610  HIT: 346345  MISS: 168265  HIT %: 67.3024  MISS %: 32.6976  AVERAGE MISS PENALTY: 100
STLB RFO       ACCESS: 11392  HIT:  7804  MISS:  3588  HIT %: 68.5042  MISS %: 31.4958  AVERAGE MISS PENALTY: 100
STLB PREFETCH  ACCESS:     0  HIT:     0  MISS:     0  HIT %:     0  MISS %:     0  AVERAGE MISS PENALTY: 0
STLB WRITEBACK ACCESS:     0  HIT:     0  MISS:     0  HIT %:     0  MISS %:     0  AVERAGE MISS PENALTY: 0
STLB PREFETCH  REQUESTED:     0  ISSUED:     0  USEFUL:     0  USELESS:     0
 USEFUL LOAD PREFETCHES:          0 PREFETCH ISSUED TO LOWER LEVEL:          0  ACCURACY: -nan
 TIMELY PREFETCHES:          0 LATE PREFETCHES: 0 DROPPED PREFETCHES: 0
STLB AVERAGE MISS LATENCY: 100 cycles

STLB Set Associative Eviction Count : 0
STLB Priority 0 entries : 0
STLB Inter-Core Interference : 0
L1D TOTAL     ACCESS: 49527608  HIT: 38211576  MISS: 11316032  HIT %: 77.1521  MISS %: 22.8479  AVERAGE MISS PENALTY: 1.4134e+07
L1D LOAD      ACCESS: 30479263  HIT: 27048098  MISS: 3431165  HIT %: 88.7426  MISS %: 11.2574  AVERAGE MISS PENALTY: 4.66124e+07
L1D RFO       ACCESS: 4978900  HIT: 4711030  MISS: 267870  HIT %: 94.6199  MISS %: 5.3801  AVERAGE MISS PENALTY: 16337.6
L1D PREFETCH  ACCESS: 14069445  HIT: 6452448  MISS: 7616997  HIT %: 45.8614  MISS %: 54.1386  AVERAGE MISS PENALTY: 238.859
L1D WRITEBACK ACCESS:     0  HIT:     0  MISS:     0  HIT %:     0  MISS %:     0  AVERAGE MISS PENALTY: 0
L1D PREFETCH  REQUESTED: 19678457  ISSUED: 16651581  USEFUL: 2533868  USELESS: 5082845
 USEFUL LOAD PREFETCHES:    2533868 PREFETCH ISSUED TO LOWER LEVEL:   59402182  ACCURACY: 4.26561
 TIMELY PREFETCHES:    2533868 LATE PREFETCHES: 490453 DROPPED PREFETCHES: 3026876
L1D AVERAGE MISS LATENCY: 624.678 cycles

L1D Set Associative Eviction Count : 0
L1D Priority 0 entries : 0
L1D Inter-Core Interference : 0
L1I TOTAL     ACCESS: 45904849  HIT: 45904848  MISS:     1  HIT %:   100  MISS %: 2.17842e-06  AVERAGE MISS PENALTY: 227
L1I LOAD      ACCESS: 45904849  HIT: 45904848  MISS:     1  HIT %:   100  MISS %: 2.17842e-06  AVERAGE MISS PENALTY: 227
L1I RFO       ACCESS:     0  HIT:     0  MISS:     0  HIT %:     0  MISS %:     0  AVERAGE MISS PENALTY: 0
L1I PREFETCH  ACCESS:     0  HIT:     0  MISS:     0  HIT %:     0  MISS %:     0  AVERAGE MISS PENALTY: 0
L1I WRITEBACK ACCESS:     0  HIT:     0  MISS:     0  HIT %:     0  MISS %:     0  AVERAGE MISS PENALTY: 0
L1I PREFETCH  REQUESTED:     0  ISSUED:     0  USEFUL:     0  USELESS:     0
 USEFUL LOAD PREFETCHES:          0 PREFETCH ISSUED TO LOWER LEVEL:          0  ACCURACY: -nan
 TIMELY PREFETCHES:          0 LATE PREFETCHES: 0 DROPPED PREFETCHES: 0
L1I AVERAGE MISS LATENCY: 227 cycles

L1I Set Associative Eviction Count : 0
L1I Priority 0 entries : 0
L1I Inter-Core Interference : 1
L2C TOTAL     ACCESS: 19764114  HIT: 6822771  MISS: 12941343  HIT %: 34.521  MISS %: 65.479  AVERAGE MISS PENALTY: 1.19956e+07
L2C LOAD      ACCESS: 3414782  HIT: 832192  MISS: 2582590  HIT %: 24.3703  MISS %: 75.6297  AVERAGE MISS PENALTY: 6.01085e+07
L2C RFO       ACCESS: 267864  HIT: 15842  MISS: 252022  HIT %: 5.9142  MISS %: 94.0858  AVERAGE MISS PENALTY: 1776.87
L2C PREFETCH  ACCESS: 15111675  HIT: 5202669  MISS: 9909006  HIT %: 34.4281  MISS %: 65.5719  AVERAGE MISS PENALTY: 351.446
L2C WRITEBACK ACCESS: 969793  HIT: 772068  MISS: 197725  HIT %: 79.6116  MISS %: 20.3884  AVERAGE MISS PENALTY: 0
L2C PREFETCH  REQUESTED: 17481761  ISSUED: 17281571  USEFUL: 489332  USELESS: 9418222
 USEFUL LOAD PREFETCHES:     489332 PREFETCH ISSUED TO LOWER LEVEL:   14620252  ACCURACY: 3.34695
 TIMELY PREFETCHES:     489332 LATE PREFETCHES: 581967 DROPPED PREFETCHES: 200190
L2C AVERAGE MISS LATENCY: 340.607 cycles

L2C Set Associative Eviction Count : 0
L2C Priority 0 entries : 0
L2C Inter-Core Interference : 0
LLC0 TOTAL     ACCESS: 1712959  HIT: 726872  MISS: 986087  HIT %: 42.4337  MISS %: 57.5663  AVERAGE MISS PENALTY: 509.042
LLC0 LOAD      ACCESS: 333944  HIT: 158510  MISS: 175434  HIT %: 47.466  MISS %: 52.534  AVERAGE MISS PENALTY: 533.701
LLC0 RFO       ACCESS: 31503  HIT:  4076  MISS: 27427  HIT %: 12.9385  MISS %: 87.0615  AVERAGE MISS PENALTY: 433.615
LLC0 PREFETCH  ACCESS: 1229110  HIT: 522806  MISS: 706304  HIT %: 42.5353  MISS %: 57.4647  AVERAGE MISS PENALTY: 561.285
LLC0 WRITEBACK ACCESS: 118402  HIT: 41480  MISS: 76922  HIT %: 35.0332  MISS %: 64.9668  AVERAGE MISS PENALTY: 0
LLC0 PREFETCH  REQUESTED:     0  ISSUED:     0  USEFUL: 152440  USELESS: 435218
 USEFUL LOAD PREFETCHES:     152440 PREFETCH ISSUED TO LOWER LEVEL:   53640555  ACCURACY: 0.284188
 TIMELY PREFETCHES:     152440 LATE PREFETCHES: 0 DROPPED PREFETCHES: 0
LLC0 AVERAGE MISS LATENCY: 509.042 cycles

LLC0 Set Associative Eviction Count : 0
LLC0 Priority 0 entries : 12288
LLC0 Inter-Core Interference : 1176194
LLC1 TOTAL     ACCESS: 1728942  HIT: 730444  MISS: 998498  HIT %: 42.248  MISS %: 57.752  AVERAGE MISS PENALTY: 512.053
LLC1 LOAD      ACCESS: 297984  HIT: 153164  MISS: 144820  HIT %: 51.4001  MISS %: 48.5999  AVERAGE MISS PENALTY: 587.415
LLC1 RFO       ACCESS: 31479  HIT:  4029  MISS: 27450  HIT %: 12.799  MISS %: 87.201  AVERAGE MISS PENALTY: 437.846
LLC1 PREFETCH  ACCESS: 1281475  HIT: 532185  MISS: 749290  HIT %: 41.5291  MISS %: 58.4709  AVERAGE MISS PENALTY: 552.784
LLC1 WRITEBACK ACCESS: 118004  HIT: 41066  MISS: 76938  HIT %: 34.8005  MISS %: 65.1995  AVERAGE MISS PENALTY: 0
LLC1 PREFETCH  REQUESTED:     0  ISSUED:     0  USEFUL: 151694  USELESS: 443890
 USEFUL LOAD PREFETCHES:     151694 PREFETCH ISSUED TO LOWER LEVEL:   52669657  ACCURACY: 0.28801
 TIMELY PREFETCHES:     151694 LATE PREFETCHES: 0 DROPPED PREFETCHES: 0
LLC1 AVERAGE MISS LATENCY: 512.053 cycles

LLC1 Set Associative Eviction Count : 0
LLC1 Priority 0 entries : 12288
LLC1 Inter-Core Interference : 1182227
LLC2 TOTAL     ACCESS: 1735857  HIT: 732863  MISS: 1002994  HIT %: 42.2191  MISS %: 57.7809  AVERAGE MISS PENALTY: 509.166
LLC2 LOAD      ACCESS: 293385  HIT: 150366  MISS: 143019  HIT %: 51.2521  MISS %: 48.7479  AVERAGE MISS PENALTY: 588.116
LLC2 RFO       ACCESS: 31493  HIT:  4070  MISS: 27423  HIT %: 12.9235  MISS %: 87.0765  AVERAGE MISS PENALTY: 433.172
LLC2 PREFETCH  ACCESS: 1292413  HIT: 536984  MISS: 755429  HIT %: 41.5489  MISS %: 58.4511  AVERAGE MISS PENALTY: 548.959
LLC2 WRITEBACK ACCESS: 118566  HIT: 41443  MISS: 77123  HIT %: 34.9535  MISS %: 65.0465  AVERAGE MISS PENALTY: 0
LLC2 PREFETCH  REQUESTED:     0  ISSUED:     0  USEFUL: 152329  USELESS: 441534
 USEFUL LOAD PREFETCHES:     152329 PREFETCH ISSUED TO LOWER LEVEL:   71235884  ACCURACY: 0.213837
 TIMELY PREFETCHES:     152329 LATE PREFETCHES: 0 DROPPED PREFETCHES: 0
LLC2 AVERAGE MISS LATENCY: 509.166 cycles

LLC2 Set Associative Eviction Count : 0
LLC2 Priority 0 entries : 12288
LLC2 Inter-Core Interference : 1181894
LLC3 TOTAL     ACCESS: 1725845  HIT: 728070  MISS: 997775  HIT %: 42.1863  MISS %: 57.8137  AVERAGE MISS PENALTY: 508.983
LLC3 LOAD      ACCESS: 300150  HIT: 157333  MISS: 142817  HIT %: 52.4181  MISS %: 47.5819  AVERAGE MISS PENALTY: 597.322
LLC3 RFO       ACCESS: 31522  HIT:  4152  MISS: 27370  HIT %: 13.1718  MISS %: 86.8282  AVERAGE MISS PENALTY: 436.122
LLC3 PREFETCH  ACCESS: 1275559  HIT: 525149  MISS: 750410  HIT %: 41.1701  MISS %: 58.8299  AVERAGE MISS PENALTY: 547.176
LLC3 WRITEBACK ACCESS: 118614  HIT: 41436  MISS: 77178  HIT %: 34.9335  MISS %: 65.0665  AVERAGE MISS PENALTY: 0
LLC3 PREFETCH  REQUESTED:     0  ISSUED:     0  USEFUL: 150356  USELESS: 432932
 USEFUL LOAD PREFETCHES:     150356 PREFETCH ISSUED TO LOWER LEVEL:   67492740  ACCURACY: 0.222774
 TIMELY PREFETCHES:     150356 LATE PREFETCHES: 0 DROPPED PREFETCHES: 0
LLC3 AVERAGE MISS LATENCY: 508.983 cycles

LLC3 Set Associative Eviction Count : 0
LLC3 Priority 0 entries : 12288
LLC3 Inter-Core Interference : 1177171
LLC4 TOTAL     ACCESS: 1714208  HIT: 718860  MISS: 995348  HIT %: 41.9354  MISS %: 58.0646  AVERAGE MISS PENALTY: 485.189
LLC4 LOAD      ACCESS: 296737  HIT: 155024  MISS: 141713  HIT %: 52.2429  MISS %: 47.7571  AVERAGE MISS PENALTY: 565.718
LLC4 RFO       ACCESS: 31498  HIT:  4017  MISS: 27481  HIT %: 12.7532  MISS %: 87.2468  AVERAGE MISS PENALTY: 434.97
LLC4 PREFETCH  ACCESS: 1267673  HIT: 518806  MISS: 748867  HIT %: 40.9259  MISS %: 59.0741  AVERAGE MISS PENALTY: 521.867
LLC4 WRITEBACK ACCESS: 118300  HIT: 41013  MISS: 77287  HIT %: 34.6686  MISS %: 65.3314  AVERAGE MISS PENALTY: 0
LLC4 PREFETCH  REQUESTED:     0  ISSUED:     0  USEFUL: 150395  USELESS: 430256
 USEFUL LOAD PREFETCHES:     150395 PREFETCH ISSUED TO LOWER LEVEL:   93659002  ACCURACY: 0.160577
 TIMELY PREFETCHES:     150395 LATE PREFETCHES: 0 DROPPED PREFETCHES: 0
LLC4 AVERAGE MISS LATENCY: 485.189 cycles

LLC4 Set Associative Eviction Count : 0
LLC4 Priority 0 entries : 12288
LLC4 Inter-Core Interference : 1172097
LLC5 TOTAL     ACCESS: 1703206  HIT: 711850  MISS: 991356  HIT %: 41.7947  MISS %: 58.2053  AVERAGE MISS PENALTY: 477.692
LLC5 LOAD      ACCESS: 292680  HIT: 151693  MISS: 140987  HIT %: 51.829  MISS %: 48.171  AVERAGE MISS PENALTY: 553.635
LLC5 RFO       ACCESS: 31499  HIT:  4055  MISS: 27444  HIT %: 12.8734  MISS %: 87.1266  AVERAGE MISS PENALTY: 426.556
LLC5 PREFETCH  ACCESS: 1260663  HIT: 514788  MISS: 745875  HIT %: 40.8347  MISS %: 59.1653  AVERAGE MISS PENALTY: 514.565
LLC5 WRITEBACK ACCESS: 118364  HIT: 41314  MISS: 77050  HIT %: 34.9042  MISS %: 65.0958  AVERAGE MISS PENALTY: 0
LLC5 PREFETCH  REQUESTED:     0  ISSUED:     0  USEFUL: 149580  USELESS: 428109
 USEFUL LOAD PREFETCHES:     149580 PREFETCH ISSUED TO LOWER LEVEL:   89001324  ACCURACY: 0.168065
 TIMELY PREFETCHES:     149580 LATE PREFETCHES: 0 DROPPED PREFETCHES: 0
LLC5 AVERAGE MISS LATENCY: 477.692 cycles

LLC5 Set Associative Eviction Count : 0
LLC5 Priority 0 entries : 12288
LLC5 Inter-Core Interference : 1167405
LLC6 TOTAL     ACCESS: 1693235  HIT: 707608  MISS: 985627  HIT %: 41.7903  MISS %: 58.2097  AVERAGE MISS PENALTY: 482.873
LLC6 LOAD      ACCESS: 296721  HIT: 155968  MISS: 140753  HIT %: 52.5639  MISS %: 47.4361  AVERAGE MISS PENALTY: 561.314
LLC6 RFO       ACCESS: 31503  HIT:  4009  MISS: 27494  HIT %: 12.7258  MISS %: 87.2742  AVERAGE MISS PENALTY: 432.599
LLC6 PREFETCH  ACCESS: 1246773  HIT: 506378  MISS: 740395  HIT %: 40.6151  MISS %: 59.3849  AVERAGE MISS PENALTY: 520.036
LLC6 WRITEBACK ACCESS: 118238  HIT: 41253  MISS: 76985  HIT %: 34.8898  MISS %: 65.1102  AVERAGE MISS PENALTY: 0
LLC6 PREFETCH  REQUESTED:     0  ISSUED:     0  USEFUL: 147038  USELESS: 422207
 USEFUL LOAD PREFETCHES:     147038 PREFETCH ISSUED TO LOWER LEVEL:  122363268  ACCURACY: 0.120165
 TIMELY PREFETCHES:     147038 LATE PREFETCHES: 0 DROPPED PREFETCHES: 0
LLC6 AVERAGE MISS LATENCY: 482.873 cycles

LLC6 Set Associative Eviction Count : 0
LLC6 Priority 0 entries : 12288
LLC6 Inter-Core Interference : 1159016
LLC7 TOTAL     ACCESS: 1675898  HIT: 694646  MISS: 981252  HIT %: 41.4492  MISS %: 58.5508  AVERAGE MISS PENALTY: 475.136
LLC7 LOAD      ACCESS: 291368  HIT: 150038  MISS: 141330  HIT %: 51.4943  MISS %: 48.5057  AVERAGE MISS PENALTY: 553.202
LLC7 RFO       ACCESS: 31524  HIT:  3976  MISS: 27548  HIT %: 12.6126  MISS %: 87.3874  AVERAGE MISS PENALTY: 424.356
LLC7 PREFETCH  ACCESS: 1234799  HIT: 499534  MISS: 735265  HIT %: 40.4547  MISS %: 59.5453  AVERAGE MISS PENALTY: 511.861
LLC7 WRITEBACK ACCESS: 118207  HIT: 41098  MISS: 77109  HIT %: 34.7678  MISS %: 65.2322  AVERAGE MISS PENALTY: 0
LLC7 PREFETCH  REQUESTED:     0  ISSUED:     0  USEFUL: 147659  USELESS: 417864
 USEFUL LOAD PREFETCHES:     147659 PREFETCH ISSUED TO LOWER LEVEL:  115323897  ACCURACY: 0.128039
 TIMELY PREFETCHES:     147659 LATE PREFETCHES: 0 DROPPED PREFETCHES: 0
LLC7 AVERAGE MISS LATENCY: 475.136 cycles

LLC7 Set Associative Eviction Count : 0
LLC7 Priority 0 entries : 12288
LLC7 Inter-Core Interference : 1158746
ROI Average ROB Stall Cycles:	10.8684
ROI Total ROB Stalls Cycles:	737250292
ROI TOTAL ROB counter      :	67834410
ROI Average Load ROB Stall Cycles:	45.995
ROI Total Load ROB Stalls Cycle  :	362498501
ROI Total Load ROB stalls Counter:	7881251
Major fault: 0 Minor fault: 29547








Interconnect Stats 
LINK 0 BW : 0LINK 1 BW : 0LINK 2 BW : 0LINK 3 BW : 0LINK 4 BW : 0LINK 5 BW : 0LINK 6 BW : 0LINK 7 BW : 0
DRAM Statistics
 CHANNEL 0
 RQ ROW_BUFFER_HIT: 8149392  ROW_BUFFER_MISS: 21214453
 DBUS_CONGESTED: 18910028
 WQ ROW_BUFFER_HIT: 88934  ROW_BUFFER_MISS: 2839324  FULL: 35379

 CHANNEL 1
 RQ ROW_BUFFER_HIT: 8082573  ROW_BUFFER_MISS: 21260949
 DBUS_CONGESTED: 18910028
 WQ ROW_BUFFER_HIT: 87772  ROW_BUFFER_MISS: 2839681  FULL: 37285

 AVG_CONGESTED_CYCLE: 5
DRAM PAGES: 2097152
Allocated PAGES: 236358
L2C destructor called
L1D destructor called
L1I destructor called
STLB destructor called
DTLB destructor called
ITLB destructor called
L2C destructor called
L1D destructor called
L1I destructor called
STLB destructor called
DTLB destructor called
ITLB destructor called
L2C destructor called
L1D destructor called
L1I destructor called
STLB destructor called
DTLB destructor called
ITLB destructor called
L2C destructor called
L1D destructor called
L1I destructor called
STLB destructor called
DTLB destructor called
ITLB destructor called
L2C destructor called
L1D destructor called
L1I destructor called
STLB destructor called
DTLB destructor called
ITLB destructor called
L2C destructor called
L1D destructor called
L1I destructor called
STLB destructor called
DTLB destructor called
ITLB destructor called
L2C destructor called
L1D destructor called
L1I destructor called
STLB destructor called
DTLB destructor called
ITLB destructor called
L2C destructor called
L1D destructor called
L1I destructor called
STLB destructor called
DTLB destructor called
ITLB destructor called
