
*** ChampSim Multicore Out-of-Order Simulator ***

Warmup Instructions: 200000000
Simulation Instructions: 200000000
Number of CPUs: 8
threads:1

L1I Configuration:
L1I_SET:64
L1I_WAY:8
L1I_RQ_SIZE:64
L1I_WQ_SIZE:64
L1I_PQ_SIZE:8
L1I_MSHR_SIZE:8

L1D Configuration:
L1D_SET:64
L1D_WAY:12
L1D_RQ_SIZE:64
L1D_WQ_SIZE:64
L1D_PQ_SIZE:8
L1D_MSHR_SIZE:16

L2C Configuration:
L2C_SET:1024
L2C_WAY:8
L2C_RQ_SIZE:32
L2C_WQ_SIZE:32
L2C_PQ_SIZE:16
L2C_MSHR_SIZE:32

LLC Configuration:
LLC_SET:2048
LLC_WAY:12
LLC SLICES:8
LLC_RQ_SIZE:64
LLC_WQ_SIZE:64
LLC_PQ_SIZE:32
LLC_MSHR_SIZE:64

Interconnect OFF
Attacker deprioritize is: OFF
Off-chip DRAM Size: 8192 MB Channels: 2 Width: 64-bit Data Rate: 3200 MT/s
PAGE SIZE in KB: 4.000000 
PAGE SIZE in MB: 0.003906 
PAGE offset in bits: 12 
CEASER-S_LLC:0
MIRAGE : 1
CEASER_LATENCY:3
REMAP : OFF
Partitions : 1
Multi-Step : OFF
BFS : OFF

CPU 0 runs /home/anubhav/gap/cc-6.trace.gz
CPU 1 runs /home/anubhav/gap/cc-6.trace.gz
CPU 2 runs /home/anubhav/gap/cc-6.trace.gz
CPU 3 runs /home/anubhav/gap/cc-6.trace.gz
CPU 4 runs /home/anubhav/gap/cc-6.trace.gz
CPU 5 runs /home/anubhav/gap/cc-6.trace.gz
CPU 6 runs /home/anubhav/gap/cc-6.trace.gz
CPU 7 runs /home/anubhav/gap/cc-6.trace.gz
CPU 0 Bimodal branch predictor
Initialize Hawkeye state
Initialize Hawkeye state
Initialize Hawkeye state
Initialize Hawkeye state
Initialize Hawkeye state
Initialize Hawkeye state
Initialize Hawkeye state
Initialize Hawkeye state
CPU 1 Bimodal branch predictor
Initialize Hawkeye state
Initialize Hawkeye state
Initialize Hawkeye state
Initialize Hawkeye state
Initialize Hawkeye state
Initialize Hawkeye state
Initialize Hawkeye state
Initialize Hawkeye state
CPU 2 Bimodal branch predictor
Initialize Hawkeye state
Initialize Hawkeye state
Initialize Hawkeye state
Initialize Hawkeye state
Initialize Hawkeye state
Initialize Hawkeye state
Initialize Hawkeye state
Initialize Hawkeye state
CPU 3 Bimodal branch predictor
Initialize Hawkeye state
Initialize Hawkeye state
Initialize Hawkeye state
Initialize Hawkeye state
Initialize Hawkeye state
Initialize Hawkeye state
Initialize Hawkeye state
Initialize Hawkeye state
CPU 4 Bimodal branch predictor
Initialize Hawkeye state
Initialize Hawkeye state
Initialize Hawkeye state
Initialize Hawkeye state
Initialize Hawkeye state
Initialize Hawkeye state
Initialize Hawkeye state
Initialize Hawkeye state
CPU 5 Bimodal branch predictor
Initialize Hawkeye state
Initialize Hawkeye state
Initialize Hawkeye state
Initialize Hawkeye state
Initialize Hawkeye state
Initialize Hawkeye state
Initialize Hawkeye state
Initialize Hawkeye state
CPU 6 Bimodal branch predictor
Initialize Hawkeye state
Initialize Hawkeye state
Initialize Hawkeye state
Initialize Hawkeye state
Initialize Hawkeye state
Initialize Hawkeye state
Initialize Hawkeye state
Initialize Hawkeye state
CPU 7 Bimodal branch predictor
Initialize Hawkeye state
Initialize Hawkeye state
Initialize Hawkeye state
Initialize Hawkeye state
Initialize Hawkeye state
Initialize Hawkeye state
Initialize Hawkeye state
Initialize Hawkeye state
Heartbeat CPU 0 instructions: 10000002 cycles: 12189252 heartbeat IPC: 0.820395 cumulative IPC: 0.820395 (Simulation time: 0 hr 29 min 25 sec) 
 Total Blocks : 196608 Invalid Blocks : 23 Valid Blocks : 196585
 Total Tags : 491520 Threshold : 12288 Invalid Tags : 196634 Pr0 Tags : 98301 Pr1 Tags : 196585 num_pr0 : 12288
 SAE Count : 0
 Inter-Core Inteference in Data Store : 1380378
Heartbeat CPU 1 instructions: 10000002 cycles: 12189858 heartbeat IPC: 0.820354 cumulative IPC: 0.820354 (Simulation time: 0 hr 29 min 26 sec) 
 Total Blocks : 196608 Invalid Blocks : 23 Valid Blocks : 196585
 Total Tags : 491520 Threshold : 12288 Invalid Tags : 196631 Pr0 Tags : 98304 Pr1 Tags : 196585 num_pr0 : 12288
 SAE Count : 0
 Inter-Core Inteference in Data Store : 1380400
Heartbeat CPU 2 instructions: 10000002 cycles: 12189937 heartbeat IPC: 0.820349 cumulative IPC: 0.820349 (Simulation time: 0 hr 29 min 26 sec) 
 Total Blocks : 196608 Invalid Blocks : 23 Valid Blocks : 196585
 Total Tags : 491520 Threshold : 12288 Invalid Tags : 196634 Pr0 Tags : 98301 Pr1 Tags : 196585 num_pr0 : 12288
 SAE Count : 0
 Inter-Core Inteference in Data Store : 1380409
Heartbeat CPU 3 instructions: 10000002 cycles: 12190243 heartbeat IPC: 0.820328 cumulative IPC: 0.820328 (Simulation time: 0 hr 29 min 26 sec) 
 Total Blocks : 196608 Invalid Blocks : 23 Valid Blocks : 196585
 Total Tags : 491520 Threshold : 12288 Invalid Tags : 196634 Pr0 Tags : 98301 Pr1 Tags : 196585 num_pr0 : 12288
 SAE Count : 0
 Inter-Core Inteference in Data Store : 1380420
Heartbeat CPU 4 instructions: 10000002 cycles: 12190778 heartbeat IPC: 0.820292 cumulative IPC: 0.820292 (Simulation time: 0 hr 29 min 26 sec) 
 Total Blocks : 196608 Invalid Blocks : 23 Valid Blocks : 196585
 Total Tags : 491520 Threshold : 12288 Invalid Tags : 196634 Pr0 Tags : 98301 Pr1 Tags : 196585 num_pr0 : 12288
 SAE Count : 0
 Inter-Core Inteference in Data Store : 1380447
Heartbeat CPU 5 instructions: 10000002 cycles: 12190785 heartbeat IPC: 0.820292 cumulative IPC: 0.820292 (Simulation time: 0 hr 29 min 26 sec) 
 Total Blocks : 196608 Invalid Blocks : 23 Valid Blocks : 196585
 Total Tags : 491520 Threshold : 12288 Invalid Tags : 196634 Pr0 Tags : 98301 Pr1 Tags : 196585 num_pr0 : 12288
 SAE Count : 0
 Inter-Core Inteference in Data Store : 1380447
Heartbeat CPU 6 instructions: 10000002 cycles: 12191061 heartbeat IPC: 0.820273 cumulative IPC: 0.820273 (Simulation time: 0 hr 29 min 26 sec) 
 Total Blocks : 196608 Invalid Blocks : 23 Valid Blocks : 196585
 Total Tags : 491520 Threshold : 12288 Invalid Tags : 196632 Pr0 Tags : 98303 Pr1 Tags : 196585 num_pr0 : 12288
 SAE Count : 0
 Inter-Core Inteference in Data Store : 1380466
Heartbeat CPU 7 instructions: 10000002 cycles: 12191489 heartbeat IPC: 0.820244 cumulative IPC: 0.820244 (Simulation time: 0 hr 29 min 26 sec) 
 Total Blocks : 196608 Invalid Blocks : 23 Valid Blocks : 196585
 Total Tags : 491520 Threshold : 12288 Invalid Tags : 196634 Pr0 Tags : 98301 Pr1 Tags : 196585 num_pr0 : 12288
 SAE Count : 0
 Inter-Core Inteference in Data Store : 1380505
FILL
Heartbeat CPU 0 instructions: 20000002 cycles: 25406603 heartbeat IPC: 0.756581 cumulative IPC: 0.787197 (Simulation time: 0 hr 56 min 19 sec) 
 Total Blocks : 196608 Invalid Blocks : 0 Valid Blocks : 196608
 Total Tags : 491520 Threshold : 12288 Invalid Tags : 196608 Pr0 Tags : 98304 Pr1 Tags : 196608 num_pr0 : 12288
 SAE Count : 0
 Inter-Core Inteference in Data Store : 2361597
Heartbeat CPU 1 instructions: 20000002 cycles: 25407645 heartbeat IPC: 0.756556 cumulative IPC: 0.787165 (Simulation time: 0 hr 56 min 20 sec) 
 Total Blocks : 196608 Invalid Blocks : 0 Valid Blocks : 196608
 Total Tags : 491520 Threshold : 12288 Invalid Tags : 196610 Pr0 Tags : 98302 Pr1 Tags : 196608 num_pr0 : 12288
 SAE Count : 0
 Inter-Core Inteference in Data Store : 2361655
Heartbeat CPU 2 instructions: 20000002 cycles: 25407903 heartbeat IPC: 0.756546 cumulative IPC: 0.787157 (Simulation time: 0 hr 56 min 20 sec) 
 Total Blocks : 196608 Invalid Blocks : 0 Valid Blocks : 196608
 Total Tags : 491520 Threshold : 12288 Invalid Tags : 196610 Pr0 Tags : 98302 Pr1 Tags : 196608 num_pr0 : 12288
 SAE Count : 0
 Inter-Core Inteference in Data Store : 2361679
Heartbeat CPU 3 instructions: 20000002 cycles: 25408391 heartbeat IPC: 0.756536 cumulative IPC: 0.787142 (Simulation time: 0 hr 56 min 20 sec) 
 Total Blocks : 196608 Invalid Blocks : 0 Valid Blocks : 196608
 Total Tags : 491520 Threshold : 12288 Invalid Tags : 196611 Pr0 Tags : 98301 Pr1 Tags : 196608 num_pr0 : 12287
 SAE Count : 0
 Inter-Core Inteference in Data Store : 2361722
Heartbeat CPU 4 instructions: 20000002 cycles: 25408749 heartbeat IPC: 0.756546 cumulative IPC: 0.787131 (Simulation time: 0 hr 56 min 20 sec) 
 Total Blocks : 196608 Invalid Blocks : 0 Valid Blocks : 196608
 Total Tags : 491520 Threshold : 12288 Invalid Tags : 196609 Pr0 Tags : 98303 Pr1 Tags : 196608 num_pr0 : 12288
 SAE Count : 0
 Inter-Core Inteference in Data Store : 2361757
Heartbeat CPU 5 instructions: 20000002 cycles: 25409872 heartbeat IPC: 0.756482 cumulative IPC: 0.787096 (Simulation time: 0 hr 56 min 21 sec) 
 Total Blocks : 196608 Invalid Blocks : 0 Valid Blocks : 196608
 Total Tags : 491520 Threshold : 12288 Invalid Tags : 196608 Pr0 Tags : 98304 Pr1 Tags : 196608 num_pr0 : 12288
 SAE Count : 0
 Inter-Core Inteference in Data Store : 2361881
Heartbeat CPU 6 instructions: 20000002 cycles: 25410372 heartbeat IPC: 0.756469 cumulative IPC: 0.78708 (Simulation time: 0 hr 56 min 21 sec) 
 Total Blocks : 196608 Invalid Blocks : 0 Valid Blocks : 196608
 Total Tags : 491520 Threshold : 12288 Invalid Tags : 196608 Pr0 Tags : 98304 Pr1 Tags : 196608 num_pr0 : 12288
 SAE Count : 0
 Inter-Core Inteference in Data Store : 2361949
Heartbeat CPU 7 instructions: 20000002 cycles: 25410734 heartbeat IPC: 0.756473 cumulative IPC: 0.787069 (Simulation time: 0 hr 56 min 21 sec) 
 Total Blocks : 196608 Invalid Blocks : 0 Valid Blocks : 196608
 Total Tags : 491520 Threshold : 12288 Invalid Tags : 196610 Pr0 Tags : 98302 Pr1 Tags : 196608 num_pr0 : 12288
 SAE Count : 0
 Inter-Core Inteference in Data Store : 2362000
Heartbeat CPU 0 instructions: 30000000 cycles: 38184938 heartbeat IPC: 0.782574 cumulative IPC: 0.78565 (Simulation time: 1 hr 22 min 56 sec) 
 Total Blocks : 196608 Invalid Blocks : 0 Valid Blocks : 196608
 Total Tags : 491520 Threshold : 12288 Invalid Tags : 196610 Pr0 Tags : 98302 Pr1 Tags : 196608 num_pr0 : 12288
 SAE Count : 0
 Inter-Core Inteference in Data Store : 3245280
Heartbeat CPU 1 instructions: 30000001 cycles: 38187003 heartbeat IPC: 0.782512 cumulative IPC: 0.785608 (Simulation time: 1 hr 22 min 56 sec) 
 Total Blocks : 196608 Invalid Blocks : 0 Valid Blocks : 196608
 Total Tags : 491520 Threshold : 12288 Invalid Tags : 196609 Pr0 Tags : 98303 Pr1 Tags : 196608 num_pr0 : 12288
 SAE Count : 0
 Inter-Core Inteference in Data Store : 3245571
Heartbeat CPU 2 instructions: 30000000 cycles: 38187431 heartbeat IPC: 0.782501 cumulative IPC: 0.785599 (Simulation time: 1 hr 22 min 56 sec) 
 Total Blocks : 196608 Invalid Blocks : 0 Valid Blocks : 196608
 Total Tags : 491520 Threshold : 12288 Invalid Tags : 196609 Pr0 Tags : 98303 Pr1 Tags : 196608 num_pr0 : 12288
 SAE Count : 0
 Inter-Core Inteference in Data Store : 3245636
Heartbeat CPU 3 instructions: 30000000 cycles: 38187919 heartbeat IPC: 0.782501 cumulative IPC: 0.785589 (Simulation time: 1 hr 22 min 57 sec) 
 Total Blocks : 196608 Invalid Blocks : 0 Valid Blocks : 196608
 Total Tags : 491520 Threshold : 12288 Invalid Tags : 196608 Pr0 Tags : 98304 Pr1 Tags : 196608 num_pr0 : 12288
 SAE Count : 0
 Inter-Core Inteference in Data Store : 3245713
Heartbeat CPU 4 instructions: 30000000 cycles: 38188742 heartbeat IPC: 0.782473 cumulative IPC: 0.785572 (Simulation time: 1 hr 22 min 57 sec) 
 Total Blocks : 196608 Invalid Blocks : 0 Valid Blocks : 196608
 Total Tags : 491520 Threshold : 12288 Invalid Tags : 196611 Pr0 Tags : 98301 Pr1 Tags : 196608 num_pr0 : 12288
 SAE Count : 0
 Inter-Core Inteference in Data Store : 3245836
Heartbeat CPU 5 instructions: 30000001 cycles: 38189875 heartbeat IPC: 0.782472 cumulative IPC: 0.785549 (Simulation time: 1 hr 22 min 57 sec) 
 Total Blocks : 196608 Invalid Blocks : 0 Valid Blocks : 196608
 Total Tags : 491520 Threshold : 12288 Invalid Tags : 196608 Pr0 Tags : 98304 Pr1 Tags : 196608 num_pr0 : 12288
 SAE Count : 0
 Inter-Core Inteference in Data Store : 3246005
Heartbeat CPU 6 instructions: 30000000 cycles: 38190887 heartbeat IPC: 0.782441 cumulative IPC: 0.785528 (Simulation time: 1 hr 22 min 58 sec) 
 Total Blocks : 196608 Invalid Blocks : 0 Valid Blocks : 196608
 Total Tags : 491520 Threshold : 12288 Invalid Tags : 196608 Pr0 Tags : 98304 Pr1 Tags : 196608 num_pr0 : 12288
 SAE Count : 0
 Inter-Core Inteference in Data Store : 3246135
Heartbeat CPU 7 instructions: 30000000 cycles: 38191897 heartbeat IPC: 0.782401 cumulative IPC: 0.785507 (Simulation time: 1 hr 22 min 58 sec) 
 Total Blocks : 196608 Invalid Blocks : 0 Valid Blocks : 196608
 Total Tags : 491520 Threshold : 12288 Invalid Tags : 196609 Pr0 Tags : 98303 Pr1 Tags : 196608 num_pr0 : 12288
 SAE Count : 0
 Inter-Core Inteference in Data Store : 3246259
Heartbeat CPU 0 instructions: 40000000 cycles: 50280428 heartbeat IPC: 0.826754 cumulative IPC: 0.795538 (Simulation time: 1 hr 50 min 19 sec) 
 Total Blocks : 196608 Invalid Blocks : 0 Valid Blocks : 196608
 Total Tags : 491520 Threshold : 12288 Invalid Tags : 196608 Pr0 Tags : 98304 Pr1 Tags : 196608 num_pr0 : 12288
 SAE Count : 0
 Inter-Core Inteference in Data Store : 4028454
Heartbeat CPU 1 instructions: 40000000 cycles: 50283769 heartbeat IPC: 0.826667 cumulative IPC: 0.795485 (Simulation time: 1 hr 50 min 20 sec) 
 Total Blocks : 196608 Invalid Blocks : 0 Valid Blocks : 196608
 Total Tags : 491520 Threshold : 12288 Invalid Tags : 196608 Pr0 Tags : 98304 Pr1 Tags : 196608 num_pr0 : 12288
 SAE Count : 0
 Inter-Core Inteference in Data Store : 4028617
Heartbeat CPU 2 instructions: 40000000 cycles: 50284423 heartbeat IPC: 0.826652 cumulative IPC: 0.795475 (Simulation time: 1 hr 50 min 20 sec) 
 Total Blocks : 196608 Invalid Blocks : 0 Valid Blocks : 196608
 Total Tags : 491520 Threshold : 12288 Invalid Tags : 196610 Pr0 Tags : 98302 Pr1 Tags : 196608 num_pr0 : 12288
 SAE Count : 0
 Inter-Core Inteference in Data Store : 4028657
Heartbeat CPU 3 instructions: 40000000 cycles: 50285265 heartbeat IPC: 0.826628 cumulative IPC: 0.795462 (Simulation time: 1 hr 50 min 20 sec) 
 Total Blocks : 196608 Invalid Blocks : 0 Valid Blocks : 196608
 Total Tags : 491520 Threshold : 12288 Invalid Tags : 196608 Pr0 Tags : 98304 Pr1 Tags : 196608 num_pr0 : 12288
 SAE Count : 0
 Inter-Core Inteference in Data Store : 4028700
Heartbeat CPU 4 instructions: 40000000 cycles: 50285948 heartbeat IPC: 0.826637 cumulative IPC: 0.795451 (Simulation time: 1 hr 50 min 20 sec) 
 Total Blocks : 196608 Invalid Blocks : 0 Valid Blocks : 196608
 Total Tags : 491520 Threshold : 12288 Invalid Tags : 196608 Pr0 Tags : 98304 Pr1 Tags : 196608 num_pr0 : 12288
 SAE Count : 0
 Inter-Core Inteference in Data Store : 4028736
Heartbeat CPU 5 instructions: 40000000 cycles: 50287376 heartbeat IPC: 0.826617 cumulative IPC: 0.795428 (Simulation time: 1 hr 50 min 20 sec) 
 Total Blocks : 196608 Invalid Blocks : 0 Valid Blocks : 196608
 Total Tags : 491520 Threshold : 12288 Invalid Tags : 196608 Pr0 Tags : 98304 Pr1 Tags : 196608 num_pr0 : 12288
 SAE Count : 0
 Inter-Core Inteference in Data Store : 4028801
Heartbeat CPU 6 instructions: 40000000 cycles: 50288594 heartbeat IPC: 0.826603 cumulative IPC: 0.795409 (Simulation time: 1 hr 50 min 20 sec) 
 Total Blocks : 196608 Invalid Blocks : 0 Valid Blocks : 196608
 Total Tags : 491520 Threshold : 12288 Invalid Tags : 196608 Pr0 Tags : 98304 Pr1 Tags : 196608 num_pr0 : 12288
 SAE Count : 0
 Inter-Core Inteference in Data Store : 4028846
Heartbeat CPU 7 instructions: 40000000 cycles: 50290511 heartbeat IPC: 0.826541 cumulative IPC: 0.795379 (Simulation time: 1 hr 50 min 20 sec) 
 Total Blocks : 196608 Invalid Blocks : 0 Valid Blocks : 196608
 Total Tags : 491520 Threshold : 12288 Invalid Tags : 196609 Pr0 Tags : 98303 Pr1 Tags : 196608 num_pr0 : 12288
 SAE Count : 0
 Inter-Core Inteference in Data Store : 4028923
Heartbeat CPU 0 instructions: 50000000 cycles: 62316479 heartbeat IPC: 0.830837 cumulative IPC: 0.802356 (Simulation time: 2 hr 18 min 37 sec) 
 Total Blocks : 196608 Invalid Blocks : 0 Valid Blocks : 196608
 Total Tags : 491520 Threshold : 12288 Invalid Tags : 196609 Pr0 Tags : 98303 Pr1 Tags : 196608 num_pr0 : 12288
 SAE Count : 0
 Inter-Core Inteference in Data Store : 4760879
Heartbeat CPU 1 instructions: 50000000 cycles: 62320245 heartbeat IPC: 0.830808 cumulative IPC: 0.802307 (Simulation time: 2 hr 18 min 38 sec) 
 Total Blocks : 196608 Invalid Blocks : 0 Valid Blocks : 196608
 Total Tags : 491520 Threshold : 12288 Invalid Tags : 196611 Pr0 Tags : 98301 Pr1 Tags : 196608 num_pr0 : 12288
 SAE Count : 0
 Inter-Core Inteference in Data Store : 4761029
Heartbeat CPU 2 instructions: 50000000 cycles: 62320845 heartbeat IPC: 0.830812 cumulative IPC: 0.8023 (Simulation time: 2 hr 18 min 38 sec) 
 Total Blocks : 196608 Invalid Blocks : 0 Valid Blocks : 196608
 Total Tags : 491520 Threshold : 12288 Invalid Tags : 196612 Pr0 Tags : 98300 Pr1 Tags : 196608 num_pr0 : 12288
 SAE Count : 0
 Inter-Core Inteference in Data Store : 4761057
Heartbeat CPU 3 instructions: 50000000 cycles: 62322309 heartbeat IPC: 0.830769 cumulative IPC: 0.802281 (Simulation time: 2 hr 18 min 39 sec) 
 Total Blocks : 196608 Invalid Blocks : 0 Valid Blocks : 196608
 Total Tags : 491520 Threshold : 12288 Invalid Tags : 196609 Pr0 Tags : 98303 Pr1 Tags : 196608 num_pr0 : 12288
 SAE Count : 0
 Inter-Core Inteference in Data Store : 4761122
Heartbeat CPU 4 instructions: 50000000 cycles: 62323204 heartbeat IPC: 0.830754 cumulative IPC: 0.802269 (Simulation time: 2 hr 18 min 39 sec) 
 Total Blocks : 196608 Invalid Blocks : 0 Valid Blocks : 196608
 Total Tags : 491520 Threshold : 12288 Invalid Tags : 196611 Pr0 Tags : 98301 Pr1 Tags : 196608 num_pr0 : 12288
 SAE Count : 0
 Inter-Core Inteference in Data Store : 4761168
Heartbeat CPU 5 instructions: 50000000 cycles: 62324997 heartbeat IPC: 0.830729 cumulative IPC: 0.802246 (Simulation time: 2 hr 18 min 39 sec) 
 Total Blocks : 196608 Invalid Blocks : 0 Valid Blocks : 196608
 Total Tags : 491520 Threshold : 12288 Invalid Tags : 196608 Pr0 Tags : 98304 Pr1 Tags : 196608 num_pr0 : 12288
 SAE Count : 0
 Inter-Core Inteference in Data Store : 4761241
Heartbeat CPU 6 instructions: 50000000 cycles: 62325890 heartbeat IPC: 0.830751 cumulative IPC: 0.802235 (Simulation time: 2 hr 18 min 39 sec) 
 Total Blocks : 196608 Invalid Blocks : 0 Valid Blocks : 196608
 Total Tags : 491520 Threshold : 12288 Invalid Tags : 196609 Pr0 Tags : 98303 Pr1 Tags : 196608 num_pr0 : 12288
 SAE Count : 0
 Inter-Core Inteference in Data Store : 4761288
Heartbeat CPU 7 instructions: 50000000 cycles: 62328013 heartbeat IPC: 0.830737 cumulative IPC: 0.802208 (Simulation time: 2 hr 18 min 39 sec) 
 Total Blocks : 196608 Invalid Blocks : 0 Valid Blocks : 196608
 Total Tags : 491520 Threshold : 12288 Invalid Tags : 196608 Pr0 Tags : 98304 Pr1 Tags : 196608 num_pr0 : 12288
 SAE Count : 0
 Inter-Core Inteference in Data Store : 4761406
Heartbeat CPU 0 instructions: 60000000 cycles: 73929344 heartbeat IPC: 0.861114 cumulative IPC: 0.811586 (Simulation time: 2 hr 47 min 37 sec) 
 Total Blocks : 196608 Invalid Blocks : 0 Valid Blocks : 196608
 Total Tags : 491520 Threshold : 12288 Invalid Tags : 196608 Pr0 Tags : 98304 Pr1 Tags : 196608 num_pr0 : 12288
 SAE Count : 0
 Inter-Core Inteference in Data Store : 5511065
Heartbeat CPU 1 instructions: 60000000 cycles: 73933675 heartbeat IPC: 0.861072 cumulative IPC: 0.811538 (Simulation time: 2 hr 47 min 38 sec) 
 Total Blocks : 196608 Invalid Blocks : 0 Valid Blocks : 196608
 Total Tags : 491520 Threshold : 12288 Invalid Tags : 196608 Pr0 Tags : 98304 Pr1 Tags : 196608 num_pr0 : 12288
 SAE Count : 0
 Inter-Core Inteference in Data Store : 5511272
Heartbeat CPU 2 instructions: 60000000 cycles: 73934990 heartbeat IPC: 0.861019 cumulative IPC: 0.811524 (Simulation time: 2 hr 47 min 38 sec) 
 Total Blocks : 196608 Invalid Blocks : 0 Valid Blocks : 196608
 Total Tags : 491520 Threshold : 12288 Invalid Tags : 196608 Pr0 Tags : 98304 Pr1 Tags : 196608 num_pr0 : 12288
 SAE Count : 0
 Inter-Core Inteference in Data Store : 5511337
Heartbeat CPU 3 instructions: 60000000 cycles: 73936655 heartbeat IPC: 0.861004 cumulative IPC: 0.811505 (Simulation time: 2 hr 47 min 38 sec) 
 Total Blocks : 196608 Invalid Blocks : 0 Valid Blocks : 196608
 Total Tags : 491520 Threshold : 12288 Invalid Tags : 196609 Pr0 Tags : 98303 Pr1 Tags : 196608 num_pr0 : 12288
 SAE Count : 0
 Inter-Core Inteference in Data Store : 5511421
Heartbeat CPU 4 instructions: 60000000 cycles: 73938122 heartbeat IPC: 0.860962 cumulative IPC: 0.811489 (Simulation time: 2 hr 47 min 38 sec) 
 Total Blocks : 196608 Invalid Blocks : 0 Valid Blocks : 196608
 Total Tags : 491520 Threshold : 12288 Invalid Tags : 196608 Pr0 Tags : 98304 Pr1 Tags : 196608 num_pr0 : 12288
 SAE Count : 0
 Inter-Core Inteference in Data Store : 5511491
Heartbeat CPU 5 instructions: 60000000 cycles: 73939230 heartbeat IPC: 0.861013 cumulative IPC: 0.811477 (Simulation time: 2 hr 47 min 38 sec) 
 Total Blocks : 196608 Invalid Blocks : 0 Valid Blocks : 196608
 Total Tags : 491520 Threshold : 12288 Invalid Tags : 196608 Pr0 Tags : 98304 Pr1 Tags : 196608 num_pr0 : 12288
 SAE Count : 0
 Inter-Core Inteference in Data Store : 5511545
Heartbeat CPU 6 instructions: 60000000 cycles: 73941088 heartbeat IPC: 0.860941 cumulative IPC: 0.811457 (Simulation time: 2 hr 47 min 39 sec) 
 Total Blocks : 196608 Invalid Blocks : 0 Valid Blocks : 196608
 Total Tags : 491520 Threshold : 12288 Invalid Tags : 196608 Pr0 Tags : 98304 Pr1 Tags : 196608 num_pr0 : 12288
 SAE Count : 0
 Inter-Core Inteference in Data Store : 5511643
Heartbeat CPU 7 instructions: 60000000 cycles: 73943346 heartbeat IPC: 0.860931 cumulative IPC: 0.811432 (Simulation time: 2 hr 47 min 39 sec) 
 Total Blocks : 196608 Invalid Blocks : 0 Valid Blocks : 196608
 Total Tags : 491520 Threshold : 12288 Invalid Tags : 196608 Pr0 Tags : 98304 Pr1 Tags : 196608 num_pr0 : 12288
 SAE Count : 0
 Inter-Core Inteference in Data Store : 5511759
Heartbeat CPU 0 instructions: 70000002 cycles: 86129368 heartbeat IPC: 0.819671 cumulative IPC: 0.812731 (Simulation time: 3 hr 17 min 6 sec) 
 Total Blocks : 196608 Invalid Blocks : 0 Valid Blocks : 196608
 Total Tags : 491520 Threshold : 12288 Invalid Tags : 196608 Pr0 Tags : 98304 Pr1 Tags : 196608 num_pr0 : 12288
 SAE Count : 0
 Inter-Core Inteference in Data Store : 6243017
Heartbeat CPU 1 instructions: 70000002 cycles: 86134241 heartbeat IPC: 0.819634 cumulative IPC: 0.812685 (Simulation time: 3 hr 17 min 7 sec) 
 Total Blocks : 196608 Invalid Blocks : 0 Valid Blocks : 196608
 Total Tags : 491520 Threshold : 12288 Invalid Tags : 196608 Pr0 Tags : 98304 Pr1 Tags : 196608 num_pr0 : 12288
 SAE Count : 0
 Inter-Core Inteference in Data Store : 6243227
Heartbeat CPU 2 instructions: 70000002 cycles: 86135688 heartbeat IPC: 0.819625 cumulative IPC: 0.812671 (Simulation time: 3 hr 17 min 7 sec) 
 Total Blocks : 196608 Invalid Blocks : 0 Valid Blocks : 196608
 Total Tags : 491520 Threshold : 12288 Invalid Tags : 196608 Pr0 Tags : 98304 Pr1 Tags : 196608 num_pr0 : 12288
 SAE Count : 0
 Inter-Core Inteference in Data Store : 6243289
Heartbeat CPU 3 instructions: 70000002 cycles: 86138006 heartbeat IPC: 0.819582 cumulative IPC: 0.812649 (Simulation time: 3 hr 17 min 7 sec) 
 Total Blocks : 196608 Invalid Blocks : 0 Valid Blocks : 196608
 Total Tags : 491520 Threshold : 12288 Invalid Tags : 196608 Pr0 Tags : 98304 Pr1 Tags : 196608 num_pr0 : 12288
 SAE Count : 0
 Inter-Core Inteference in Data Store : 6243380
Heartbeat CPU 4 instructions: 70000002 cycles: 86139888 heartbeat IPC: 0.819554 cumulative IPC: 0.812632 (Simulation time: 3 hr 17 min 7 sec) 
 Total Blocks : 196608 Invalid Blocks : 0 Valid Blocks : 196608
 Total Tags : 491520 Threshold : 12288 Invalid Tags : 196608 Pr0 Tags : 98304 Pr1 Tags : 196608 num_pr0 : 12288
 SAE Count : 0
 Inter-Core Inteference in Data Store : 6243466
Heartbeat CPU 5 instructions: 70000002 cycles: 86141701 heartbeat IPC: 0.819506 cumulative IPC: 0.812615 (Simulation time: 3 hr 17 min 8 sec) 
 Total Blocks : 196608 Invalid Blocks : 0 Valid Blocks : 196608
 Total Tags : 491520 Threshold : 12288 Invalid Tags : 196608 Pr0 Tags : 98304 Pr1 Tags : 196608 num_pr0 : 12288
 SAE Count : 0
 Inter-Core Inteference in Data Store : 6243554
Heartbeat CPU 6 instructions: 70000002 cycles: 86143763 heartbeat IPC: 0.819493 cumulative IPC: 0.812595 (Simulation time: 3 hr 17 min 8 sec) 
 Total Blocks : 196608 Invalid Blocks : 0 Valid Blocks : 196608
 Total Tags : 491520 Threshold : 12288 Invalid Tags : 196608 Pr0 Tags : 98304 Pr1 Tags : 196608 num_pr0 : 12288
 SAE Count : 0
 Inter-Core Inteference in Data Store : 6243633
Heartbeat CPU 7 instructions: 70000002 cycles: 86145987 heartbeat IPC: 0.819495 cumulative IPC: 0.812574 (Simulation time: 3 hr 17 min 8 sec) 
 Total Blocks : 196608 Invalid Blocks : 0 Valid Blocks : 196608
 Total Tags : 491520 Threshold : 12288 Invalid Tags : 196608 Pr0 Tags : 98304 Pr1 Tags : 196608 num_pr0 : 12288
 SAE Count : 0
 Inter-Core Inteference in Data Store : 6243742
Heartbeat CPU 0 instructions: 80000002 cycles: 98467103 heartbeat IPC: 0.810522 cumulative IPC: 0.812454 (Simulation time: 4 hr 4 min 0 sec) 
 Total Blocks : 196608 Invalid Blocks : 0 Valid Blocks : 196608
 Total Tags : 491520 Threshold : 12288 Invalid Tags : 196608 Pr0 Tags : 98304 Pr1 Tags : 196608 num_pr0 : 12288
 SAE Count : 0
 Inter-Core Inteference in Data Store : 10177724
Heartbeat CPU 1 instructions: 80000002 cycles: 98475147 heartbeat IPC: 0.810313 cumulative IPC: 0.812388 (Simulation time: 4 hr 4 min 2 sec) 
 Total Blocks : 196608 Invalid Blocks : 0 Valid Blocks : 196608
 Total Tags : 491520 Threshold : 12288 Invalid Tags : 196608 Pr0 Tags : 98304 Pr1 Tags : 196608 num_pr0 : 12288
 SAE Count : 0
 Inter-Core Inteference in Data Store : 10180759
Heartbeat CPU 2 instructions: 80000002 cycles: 98478087 heartbeat IPC: 0.810215 cumulative IPC: 0.812364 (Simulation time: 4 hr 4 min 3 sec) 
 Total Blocks : 196608 Invalid Blocks : 0 Valid Blocks : 196608
 Total Tags : 491520 Threshold : 12288 Invalid Tags : 196608 Pr0 Tags : 98304 Pr1 Tags : 196608 num_pr0 : 12288
 SAE Count : 0
 Inter-Core Inteference in Data Store : 10181958
Heartbeat CPU 3 instructions: 80000002 cycles: 98482757 heartbeat IPC: 0.810061 cumulative IPC: 0.812325 (Simulation time: 4 hr 4 min 4 sec) 
 Total Blocks : 196608 Invalid Blocks : 0 Valid Blocks : 196608
 Total Tags : 491520 Threshold : 12288 Invalid Tags : 196609 Pr0 Tags : 98303 Pr1 Tags : 196608 num_pr0 : 12288
 SAE Count : 0
 Inter-Core Inteference in Data Store : 10183888
Heartbeat CPU 4 instructions: 80000002 cycles: 98486015 heartbeat IPC: 0.809971 cumulative IPC: 0.812298 (Simulation time: 4 hr 4 min 5 sec) 
 Total Blocks : 196608 Invalid Blocks : 0 Valid Blocks : 196608
 Total Tags : 491520 Threshold : 12288 Invalid Tags : 196608 Pr0 Tags : 98304 Pr1 Tags : 196608 num_pr0 : 12288
 SAE Count : 0
 Inter-Core Inteference in Data Store : 10185268
Heartbeat CPU 5 instructions: 80000002 cycles: 98490007 heartbeat IPC: 0.809828 cumulative IPC: 0.812265 (Simulation time: 4 hr 4 min 6 sec) 
 Total Blocks : 196608 Invalid Blocks : 0 Valid Blocks : 196608
 Total Tags : 491520 Threshold : 12288 Invalid Tags : 196608 Pr0 Tags : 98304 Pr1 Tags : 196608 num_pr0 : 12288
 SAE Count : 0
 Inter-Core Inteference in Data Store : 10186992
Heartbeat CPU 6 instructions: 80000002 cycles: 98493490 heartbeat IPC: 0.809735 cumulative IPC: 0.812236 (Simulation time: 4 hr 4 min 7 sec) 
 Total Blocks : 196608 Invalid Blocks : 0 Valid Blocks : 196608
 Total Tags : 491520 Threshold : 12288 Invalid Tags : 196608 Pr0 Tags : 98304 Pr1 Tags : 196608 num_pr0 : 12288
 SAE Count : 0
 Inter-Core Inteference in Data Store : 10188491
Heartbeat CPU 7 instructions: 80000002 cycles: 98496854 heartbeat IPC: 0.80966 cumulative IPC: 0.812209 (Simulation time: 4 hr 4 min 7 sec) 
 Total Blocks : 196608 Invalid Blocks : 0 Valid Blocks : 196608
 Total Tags : 491520 Threshold : 12288 Invalid Tags : 196608 Pr0 Tags : 98304 Pr1 Tags : 196608 num_pr0 : 12288
 SAE Count : 0
 Inter-Core Inteference in Data Store : 10190005
Heartbeat CPU 0 instructions: 90000002 cycles: 110315094 heartbeat IPC: 0.844025 cumulative IPC: 0.815845 (Simulation time: 4 hr 57 min 51 sec) 
 Total Blocks : 196608 Invalid Blocks : 0 Valid Blocks : 196608
 Total Tags : 491520 Threshold : 12288 Invalid Tags : 196608 Pr0 Tags : 98304 Pr1 Tags : 196608 num_pr0 : 12288
 SAE Count : 0
 Inter-Core Inteference in Data Store : 15206751
Heartbeat CPU 1 instructions: 90000001 cycles: 110327295 heartbeat IPC: 0.843729 cumulative IPC: 0.815755 (Simulation time: 4 hr 57 min 55 sec) 
 Total Blocks : 196608 Invalid Blocks : 0 Valid Blocks : 196608
 Total Tags : 491520 Threshold : 12288 Invalid Tags : 196608 Pr0 Tags : 98304 Pr1 Tags : 196608 num_pr0 : 12288
 SAE Count : 0
 Inter-Core Inteference in Data Store : 15211958
Heartbeat CPU 2 instructions: 90000001 cycles: 110332713 heartbeat IPC: 0.843552 cumulative IPC: 0.815715 (Simulation time: 4 hr 57 min 57 sec) 
 Total Blocks : 196608 Invalid Blocks : 0 Valid Blocks : 196608
 Total Tags : 491520 Threshold : 12288 Invalid Tags : 196608 Pr0 Tags : 98304 Pr1 Tags : 196608 num_pr0 : 12288
 SAE Count : 0
 Inter-Core Inteference in Data Store : 15214374
Heartbeat CPU 3 instructions: 90000001 cycles: 110340059 heartbeat IPC: 0.843362 cumulative IPC: 0.81566 (Simulation time: 4 hr 57 min 59 sec) 
 Total Blocks : 196608 Invalid Blocks : 0 Valid Blocks : 196608
 Total Tags : 491520 Threshold : 12288 Invalid Tags : 196608 Pr0 Tags : 98304 Pr1 Tags : 196608 num_pr0 : 12288
 SAE Count : 0
 Inter-Core Inteference in Data Store : 15217605
Heartbeat CPU 4 instructions: 90000002 cycles: 110345018 heartbeat IPC: 0.843241 cumulative IPC: 0.815624 (Simulation time: 4 hr 58 min 1 sec) 
 Total Blocks : 196608 Invalid Blocks : 0 Valid Blocks : 196608
 Total Tags : 491520 Threshold : 12288 Invalid Tags : 196608 Pr0 Tags : 98304 Pr1 Tags : 196608 num_pr0 : 12288
 SAE Count : 0
 Inter-Core Inteference in Data Store : 15219687
Heartbeat CPU 5 instructions: 90000001 cycles: 110351063 heartbeat IPC: 0.843095 cumulative IPC: 0.815579 (Simulation time: 4 hr 58 min 2 sec) 
 Total Blocks : 196608 Invalid Blocks : 0 Valid Blocks : 196608
 Total Tags : 491520 Threshold : 12288 Invalid Tags : 196608 Pr0 Tags : 98304 Pr1 Tags : 196608 num_pr0 : 12288
 SAE Count : 0
 Inter-Core Inteference in Data Store : 15222198
Heartbeat CPU 6 instructions: 90000002 cycles: 110356091 heartbeat IPC: 0.842985 cumulative IPC: 0.815542 (Simulation time: 4 hr 58 min 3 sec) 
 Total Blocks : 196608 Invalid Blocks : 0 Valid Blocks : 196608
 Total Tags : 491520 Threshold : 12288 Invalid Tags : 196608 Pr0 Tags : 98304 Pr1 Tags : 196608 num_pr0 : 12288
 SAE Count : 0
 Inter-Core Inteference in Data Store : 15224270
Heartbeat CPU 7 instructions: 90000002 cycles: 110361927 heartbeat IPC: 0.84281 cumulative IPC: 0.815499 (Simulation time: 4 hr 58 min 5 sec) 
 Total Blocks : 196608 Invalid Blocks : 0 Valid Blocks : 196608
 Total Tags : 491520 Threshold : 12288 Invalid Tags : 196608 Pr0 Tags : 98304 Pr1 Tags : 196608 num_pr0 : 12288
 SAE Count : 0
 Inter-Core Inteference in Data Store : 15226719
Heartbeat CPU 0 instructions: 100000001 cycles: 122088278 heartbeat IPC: 0.849388 cumulative IPC: 0.819079 (Simulation time: 5 hr 52 min 43 sec) 
 Total Blocks : 196608 Invalid Blocks : 0 Valid Blocks : 196608
 Total Tags : 491520 Threshold : 12288 Invalid Tags : 196608 Pr0 Tags : 98304 Pr1 Tags : 196608 num_pr0 : 12288
 SAE Count : 0
 Inter-Core Inteference in Data Store : 20261615
Heartbeat CPU 1 instructions: 100000001 cycles: 122104592 heartbeat IPC: 0.849091 cumulative IPC: 0.81897 (Simulation time: 5 hr 52 min 48 sec) 
 Total Blocks : 196608 Invalid Blocks : 0 Valid Blocks : 196608
 Total Tags : 491520 Threshold : 12288 Invalid Tags : 196608 Pr0 Tags : 98304 Pr1 Tags : 196608 num_pr0 : 12288
 SAE Count : 0
 Inter-Core Inteference in Data Store : 20266859
Heartbeat CPU 2 instructions: 100000001 cycles: 122112657 heartbeat IPC: 0.8489 cumulative IPC: 0.818916 (Simulation time: 5 hr 52 min 50 sec) 
 Total Blocks : 196608 Invalid Blocks : 0 Valid Blocks : 196608
 Total Tags : 491520 Threshold : 12288 Invalid Tags : 196608 Pr0 Tags : 98304 Pr1 Tags : 196608 num_pr0 : 12288
 SAE Count : 0
 Inter-Core Inteference in Data Store : 20270020
Heartbeat CPU 3 instructions: 100000001 cycles: 122122498 heartbeat IPC: 0.848721 cumulative IPC: 0.81885 (Simulation time: 5 hr 52 min 53 sec) 
 Total Blocks : 196608 Invalid Blocks : 0 Valid Blocks : 196608
 Total Tags : 491520 Threshold : 12288 Invalid Tags : 196608 Pr0 Tags : 98304 Pr1 Tags : 196608 num_pr0 : 12288
 SAE Count : 0
 Inter-Core Inteference in Data Store : 20274210
Heartbeat CPU 4 instructions: 100000001 cycles: 122129461 heartbeat IPC: 0.848576 cumulative IPC: 0.818803 (Simulation time: 5 hr 52 min 55 sec) 
 Total Blocks : 196608 Invalid Blocks : 0 Valid Blocks : 196608
 Total Tags : 491520 Threshold : 12288 Invalid Tags : 196608 Pr0 Tags : 98304 Pr1 Tags : 196608 num_pr0 : 12288
 SAE Count : 0
 Inter-Core Inteference in Data Store : 20277325
Heartbeat CPU 5 instructions: 100000001 cycles: 122137822 heartbeat IPC: 0.84841 cumulative IPC: 0.818747 (Simulation time: 5 hr 52 min 57 sec) 
 Total Blocks : 196608 Invalid Blocks : 0 Valid Blocks : 196608
 Total Tags : 491520 Threshold : 12288 Invalid Tags : 196608 Pr0 Tags : 98304 Pr1 Tags : 196608 num_pr0 : 12288
 SAE Count : 0
 Inter-Core Inteference in Data Store : 20281084
Heartbeat CPU 6 instructions: 100000001 cycles: 122143989 heartbeat IPC: 0.848328 cumulative IPC: 0.818706 (Simulation time: 5 hr 52 min 58 sec) 
 Total Blocks : 196608 Invalid Blocks : 0 Valid Blocks : 196608
 Total Tags : 491520 Threshold : 12288 Invalid Tags : 196608 Pr0 Tags : 98304 Pr1 Tags : 196608 num_pr0 : 12288
 SAE Count : 0
 Inter-Core Inteference in Data Store : 20283862
Heartbeat CPU 7 instructions: 100000001 cycles: 122152055 heartbeat IPC: 0.848167 cumulative IPC: 0.818652 (Simulation time: 5 hr 53 min 0 sec) 
 Total Blocks : 196608 Invalid Blocks : 0 Valid Blocks : 196608
 Total Tags : 491520 Threshold : 12288 Invalid Tags : 196608 Pr0 Tags : 98304 Pr1 Tags : 196608 num_pr0 : 12288
 SAE Count : 0
 Inter-Core Inteference in Data Store : 20287168
Heartbeat CPU 0 instructions: 110000000 cycles: 133799792 heartbeat IPC: 0.85386 cumulative IPC: 0.822124 (Simulation time: 6 hr 47 min 19 sec) 
 Total Blocks : 196608 Invalid Blocks : 0 Valid Blocks : 196608
 Total Tags : 491520 Threshold : 12288 Invalid Tags : 196608 Pr0 Tags : 98304 Pr1 Tags : 196608 num_pr0 : 12288
 SAE Count : 0
 Inter-Core Inteference in Data Store : 25349453
Heartbeat CPU 1 instructions: 110000000 cycles: 133819651 heartbeat IPC: 0.853602 cumulative IPC: 0.822002 (Simulation time: 6 hr 47 min 25 sec) 
 Total Blocks : 196608 Invalid Blocks : 0 Valid Blocks : 196608
 Total Tags : 491520 Threshold : 12288 Invalid Tags : 196608 Pr0 Tags : 98304 Pr1 Tags : 196608 num_pr0 : 12288
 SAE Count : 0
 Inter-Core Inteference in Data Store : 25356240
Heartbeat CPU 2 instructions: 110000000 cycles: 133830225 heartbeat IPC: 0.853419 cumulative IPC: 0.821937 (Simulation time: 6 hr 47 min 28 sec) 
 Total Blocks : 196608 Invalid Blocks : 0 Valid Blocks : 196608
 Total Tags : 491520 Threshold : 12288 Invalid Tags : 196608 Pr0 Tags : 98304 Pr1 Tags : 196608 num_pr0 : 12288
 SAE Count : 0
 Inter-Core Inteference in Data Store : 25359953
Heartbeat CPU 3 instructions: 110000000 cycles: 133842470 heartbeat IPC: 0.853244 cumulative IPC: 0.821862 (Simulation time: 6 hr 47 min 30 sec) 
 Total Blocks : 196608 Invalid Blocks : 0 Valid Blocks : 196608
 Total Tags : 491520 Threshold : 12288 Invalid Tags : 196608 Pr0 Tags : 98304 Pr1 Tags : 196608 num_pr0 : 12288
 SAE Count : 0
 Inter-Core Inteference in Data Store : 25364228
Heartbeat CPU 4 instructions: 110000000 cycles: 133852067 heartbeat IPC: 0.853053 cumulative IPC: 0.821803 (Simulation time: 6 hr 47 min 33 sec) 
 Total Blocks : 196608 Invalid Blocks : 0 Valid Blocks : 196608
 Total Tags : 491520 Threshold : 12288 Invalid Tags : 196608 Pr0 Tags : 98304 Pr1 Tags : 196608 num_pr0 : 12288
 SAE Count : 0
 Inter-Core Inteference in Data Store : 25367703
Heartbeat CPU 5 instructions: 110000000 cycles: 133862072 heartbeat IPC: 0.852933 cumulative IPC: 0.821741 (Simulation time: 6 hr 47 min 35 sec) 
 Total Blocks : 196608 Invalid Blocks : 0 Valid Blocks : 196608
 Total Tags : 491520 Threshold : 12288 Invalid Tags : 196608 Pr0 Tags : 98304 Pr1 Tags : 196608 num_pr0 : 12288
 SAE Count : 0
 Inter-Core Inteference in Data Store : 25371432
Heartbeat CPU 6 instructions: 110000000 cycles: 133870928 heartbeat IPC: 0.852737 cumulative IPC: 0.821687 (Simulation time: 6 hr 47 min 38 sec) 
 Total Blocks : 196608 Invalid Blocks : 0 Valid Blocks : 196608
 Total Tags : 491520 Threshold : 12288 Invalid Tags : 196608 Pr0 Tags : 98304 Pr1 Tags : 196608 num_pr0 : 12288
 SAE Count : 0
 Inter-Core Inteference in Data Store : 25374779
Heartbeat CPU 7 instructions: 110000000 cycles: 133879851 heartbeat IPC: 0.852675 cumulative IPC: 0.821632 (Simulation time: 6 hr 47 min 40 sec) 
 Total Blocks : 196608 Invalid Blocks : 0 Valid Blocks : 196608
 Total Tags : 491520 Threshold : 12288 Invalid Tags : 196608 Pr0 Tags : 98304 Pr1 Tags : 196608 num_pr0 : 12288
 SAE Count : 0
 Inter-Core Inteference in Data Store : 25378420
Heartbeat CPU 0 instructions: 120000000 cycles: 145964443 heartbeat IPC: 0.822054 cumulative IPC: 0.822118 (Simulation time: 7 hr 41 min 55 sec) 
 Total Blocks : 196608 Invalid Blocks : 0 Valid Blocks : 196608
 Total Tags : 491520 Threshold : 12288 Invalid Tags : 196608 Pr0 Tags : 98304 Pr1 Tags : 196608 num_pr0 : 12288
 SAE Count : 0
 Inter-Core Inteference in Data Store : 30361264
Heartbeat CPU 1 instructions: 120000000 cycles: 145987814 heartbeat IPC: 0.821817 cumulative IPC: 0.821986 (Simulation time: 7 hr 42 min 1 sec) 
 Total Blocks : 196608 Invalid Blocks : 0 Valid Blocks : 196608
 Total Tags : 491520 Threshold : 12288 Invalid Tags : 196608 Pr0 Tags : 98304 Pr1 Tags : 196608 num_pr0 : 12288
 SAE Count : 0
 Inter-Core Inteference in Data Store : 30371572
Heartbeat CPU 2 instructions: 120000000 cycles: 146001238 heartbeat IPC: 0.821624 cumulative IPC: 0.821911 (Simulation time: 7 hr 42 min 4 sec) 
 Total Blocks : 196608 Invalid Blocks : 0 Valid Blocks : 196608
 Total Tags : 491520 Threshold : 12288 Invalid Tags : 196608 Pr0 Tags : 98304 Pr1 Tags : 196608 num_pr0 : 12288
 SAE Count : 0
 Inter-Core Inteference in Data Store : 30377199
Heartbeat CPU 3 instructions: 120000000 cycles: 146015659 heartbeat IPC: 0.821477 cumulative IPC: 0.82183 (Simulation time: 7 hr 42 min 8 sec) 
 Total Blocks : 196608 Invalid Blocks : 0 Valid Blocks : 196608
 Total Tags : 491520 Threshold : 12288 Invalid Tags : 196608 Pr0 Tags : 98304 Pr1 Tags : 196608 num_pr0 : 12288
 SAE Count : 0
 Inter-Core Inteference in Data Store : 30383434
Heartbeat CPU 4 instructions: 120000000 cycles: 146026704 heartbeat IPC: 0.82138 cumulative IPC: 0.821768 (Simulation time: 7 hr 42 min 11 sec) 
 Total Blocks : 196608 Invalid Blocks : 0 Valid Blocks : 196608
 Total Tags : 491520 Threshold : 12288 Invalid Tags : 196608 Pr0 Tags : 98304 Pr1 Tags : 196608 num_pr0 : 12288
 SAE Count : 0
 Inter-Core Inteference in Data Store : 30388047
Heartbeat CPU 5 instructions: 120000000 cycles: 146038715 heartbeat IPC: 0.821244 cumulative IPC: 0.8217 (Simulation time: 7 hr 42 min 14 sec) 
 Total Blocks : 196608 Invalid Blocks : 0 Valid Blocks : 196608
 Total Tags : 491520 Threshold : 12288 Invalid Tags : 196608 Pr0 Tags : 98304 Pr1 Tags : 196608 num_pr0 : 12288
 SAE Count : 0
 Inter-Core Inteference in Data Store : 30393120
Heartbeat CPU 6 instructions: 120000000 cycles: 146049518 heartbeat IPC: 0.821113 cumulative IPC: 0.821639 (Simulation time: 7 hr 42 min 17 sec) 
 Total Blocks : 196608 Invalid Blocks : 0 Valid Blocks : 196608
 Total Tags : 491520 Threshold : 12288 Invalid Tags : 196608 Pr0 Tags : 98304 Pr1 Tags : 196608 num_pr0 : 12288
 SAE Count : 0
 Inter-Core Inteference in Data Store : 30397520
Heartbeat CPU 7 instructions: 120000000 cycles: 146060297 heartbeat IPC: 0.820988 cumulative IPC: 0.821579 (Simulation time: 7 hr 42 min 19 sec) 
 Total Blocks : 196608 Invalid Blocks : 0 Valid Blocks : 196608
 Total Tags : 491520 Threshold : 12288 Invalid Tags : 196609 Pr0 Tags : 98303 Pr1 Tags : 196608 num_pr0 : 12288
 SAE Count : 0
 Inter-Core Inteference in Data Store : 30401890
Heartbeat CPU 0 instructions: 130000000 cycles: 158424598 heartbeat IPC: 0.802558 cumulative IPC: 0.82058 (Simulation time: 8 hr 35 min 10 sec) 
 Total Blocks : 196608 Invalid Blocks : 0 Valid Blocks : 196608
 Total Tags : 491520 Threshold : 12288 Invalid Tags : 196608 Pr0 Tags : 98304 Pr1 Tags : 196608 num_pr0 : 12288
 SAE Count : 0
 Inter-Core Inteference in Data Store : 35297825
Heartbeat CPU 1 instructions: 130000000 cycles: 158450941 heartbeat IPC: 0.802367 cumulative IPC: 0.820443 (Simulation time: 8 hr 35 min 17 sec) 
 Total Blocks : 196608 Invalid Blocks : 0 Valid Blocks : 196608
 Total Tags : 491520 Threshold : 12288 Invalid Tags : 196608 Pr0 Tags : 98304 Pr1 Tags : 196608 num_pr0 : 12288
 SAE Count : 0
 Inter-Core Inteference in Data Store : 35310212
Heartbeat CPU 2 instructions: 130000000 cycles: 158467191 heartbeat IPC: 0.802185 cumulative IPC: 0.820359 (Simulation time: 8 hr 35 min 21 sec) 
 Total Blocks : 196608 Invalid Blocks : 0 Valid Blocks : 196608
 Total Tags : 491520 Threshold : 12288 Invalid Tags : 196608 Pr0 Tags : 98304 Pr1 Tags : 196608 num_pr0 : 12288
 SAE Count : 0
 Inter-Core Inteference in Data Store : 35317842
Heartbeat CPU 3 instructions: 130000000 cycles: 158483378 heartbeat IPC: 0.802071 cumulative IPC: 0.820275 (Simulation time: 8 hr 35 min 26 sec) 
 Total Blocks : 196608 Invalid Blocks : 0 Valid Blocks : 196608
 Total Tags : 491520 Threshold : 12288 Invalid Tags : 196608 Pr0 Tags : 98304 Pr1 Tags : 196608 num_pr0 : 12288
 SAE Count : 0
 Inter-Core Inteference in Data Store : 35325530
Heartbeat CPU 4 instructions: 130000000 cycles: 158496674 heartbeat IPC: 0.801927 cumulative IPC: 0.820206 (Simulation time: 8 hr 35 min 29 sec) 
 Total Blocks : 196608 Invalid Blocks : 0 Valid Blocks : 196608
 Total Tags : 491520 Threshold : 12288 Invalid Tags : 196608 Pr0 Tags : 98304 Pr1 Tags : 196608 num_pr0 : 12288
 SAE Count : 0
 Inter-Core Inteference in Data Store : 35331464
Heartbeat CPU 5 instructions: 130000000 cycles: 158511036 heartbeat IPC: 0.801775 cumulative IPC: 0.820132 (Simulation time: 8 hr 35 min 33 sec) 
 Total Blocks : 196608 Invalid Blocks : 0 Valid Blocks : 196608
 Total Tags : 491520 Threshold : 12288 Invalid Tags : 196608 Pr0 Tags : 98304 Pr1 Tags : 196608 num_pr0 : 12288
 SAE Count : 0
 Inter-Core Inteference in Data Store : 35337038
Heartbeat CPU 6 instructions: 130000000 cycles: 158523536 heartbeat IPC: 0.801666 cumulative IPC: 0.820068 (Simulation time: 8 hr 35 min 36 sec) 
 Total Blocks : 196608 Invalid Blocks : 0 Valid Blocks : 196608
 Total Tags : 491520 Threshold : 12288 Invalid Tags : 196608 Pr0 Tags : 98304 Pr1 Tags : 196608 num_pr0 : 12288
 SAE Count : 0
 Inter-Core Inteference in Data Store : 35341764
Heartbeat CPU 7 instructions: 130000000 cycles: 158535188 heartbeat IPC: 0.80161 cumulative IPC: 0.820007 (Simulation time: 8 hr 35 min 38 sec) 
 Total Blocks : 196608 Invalid Blocks : 0 Valid Blocks : 196608
 Total Tags : 491520 Threshold : 12288 Invalid Tags : 196608 Pr0 Tags : 98304 Pr1 Tags : 196608 num_pr0 : 12288
 SAE Count : 0
 Inter-Core Inteference in Data Store : 35345941
Heartbeat CPU 0 instructions: 140000001 cycles: 170862885 heartbeat IPC: 0.803969 cumulative IPC: 0.81937 (Simulation time: 9 hr 28 min 13 sec) 
 Total Blocks : 196608 Invalid Blocks : 0 Valid Blocks : 196608
 Total Tags : 491520 Threshold : 12288 Invalid Tags : 196608 Pr0 Tags : 98304 Pr1 Tags : 196608 num_pr0 : 12288
 SAE Count : 0
 Inter-Core Inteference in Data Store : 40233904
Heartbeat CPU 1 instructions: 140000001 cycles: 170891824 heartbeat IPC: 0.803802 cumulative IPC: 0.819232 (Simulation time: 9 hr 28 min 21 sec) 
 Total Blocks : 196608 Invalid Blocks : 0 Valid Blocks : 196608
 Total Tags : 491520 Threshold : 12288 Invalid Tags : 196608 Pr0 Tags : 98304 Pr1 Tags : 196608 num_pr0 : 12288
 SAE Count : 0
 Inter-Core Inteference in Data Store : 40247625
Heartbeat CPU 2 instructions: 140000001 cycles: 170911382 heartbeat IPC: 0.803588 cumulative IPC: 0.819138 (Simulation time: 9 hr 28 min 28 sec) 
 Total Blocks : 196608 Invalid Blocks : 0 Valid Blocks : 196608
 Total Tags : 491520 Threshold : 12288 Invalid Tags : 196608 Pr0 Tags : 98304 Pr1 Tags : 196608 num_pr0 : 12288
 SAE Count : 0
 Inter-Core Inteference in Data Store : 40256809
Heartbeat CPU 3 instructions: 140000001 cycles: 170929858 heartbeat IPC: 0.80344 cumulative IPC: 0.819049 (Simulation time: 9 hr 28 min 32 sec) 
 Total Blocks : 196608 Invalid Blocks : 0 Valid Blocks : 196608
 Total Tags : 491520 Threshold : 12288 Invalid Tags : 196608 Pr0 Tags : 98304 Pr1 Tags : 196608 num_pr0 : 12288
 SAE Count : 0
 Inter-Core Inteference in Data Store : 40265386
Heartbeat CPU 4 instructions: 140000001 cycles: 170945114 heartbeat IPC: 0.803314 cumulative IPC: 0.818976 (Simulation time: 9 hr 28 min 36 sec) 
 Total Blocks : 196608 Invalid Blocks : 0 Valid Blocks : 196608
 Total Tags : 491520 Threshold : 12288 Invalid Tags : 196608 Pr0 Tags : 98304 Pr1 Tags : 196608 num_pr0 : 12288
 SAE Count : 0
 Inter-Core Inteference in Data Store : 40272148
Heartbeat CPU 5 instructions: 140000001 cycles: 170961226 heartbeat IPC: 0.803201 cumulative IPC: 0.818899 (Simulation time: 9 hr 28 min 41 sec) 
 Total Blocks : 196608 Invalid Blocks : 0 Valid Blocks : 196608
 Total Tags : 491520 Threshold : 12288 Invalid Tags : 196608 Pr0 Tags : 98304 Pr1 Tags : 196608 num_pr0 : 12288
 SAE Count : 0
 Inter-Core Inteference in Data Store : 40279143
Heartbeat CPU 6 instructions: 140000001 cycles: 170975517 heartbeat IPC: 0.803085 cumulative IPC: 0.818831 (Simulation time: 9 hr 28 min 45 sec) 
 Total Blocks : 196608 Invalid Blocks : 0 Valid Blocks : 196608
 Total Tags : 491520 Threshold : 12288 Invalid Tags : 196608 Pr0 Tags : 98304 Pr1 Tags : 196608 num_pr0 : 12288
 SAE Count : 0
 Inter-Core Inteference in Data Store : 40285058
Heartbeat CPU 7 instructions: 140000001 cycles: 170989007 heartbeat IPC: 0.802967 cumulative IPC: 0.818766 (Simulation time: 9 hr 28 min 49 sec) 
 Total Blocks : 196608 Invalid Blocks : 0 Valid Blocks : 196608
 Total Tags : 491520 Threshold : 12288 Invalid Tags : 196608 Pr0 Tags : 98304 Pr1 Tags : 196608 num_pr0 : 12288
 SAE Count : 0
 Inter-Core Inteference in Data Store : 40291332
Heartbeat CPU 0 instructions: 150000002 cycles: 182544521 heartbeat IPC: 0.856045 cumulative IPC: 0.821717 (Simulation time: 10 hr 21 min 46 sec) 
 Total Blocks : 196608 Invalid Blocks : 0 Valid Blocks : 196608
 Total Tags : 491520 Threshold : 12288 Invalid Tags : 196608 Pr0 Tags : 98304 Pr1 Tags : 196608 num_pr0 : 12288
 SAE Count : 0
 Inter-Core Inteference in Data Store : 45390268
Heartbeat CPU 1 instructions: 150000001 cycles: 182577364 heartbeat IPC: 0.855758 cumulative IPC: 0.82157 (Simulation time: 10 hr 21 min 54 sec) 
 Total Blocks : 196608 Invalid Blocks : 0 Valid Blocks : 196608
 Total Tags : 491520 Threshold : 12288 Invalid Tags : 196608 Pr0 Tags : 98304 Pr1 Tags : 196608 num_pr0 : 12288
 SAE Count : 0
 Inter-Core Inteference in Data Store : 45403926
Heartbeat CPU 2 instructions: 150000002 cycles: 182599268 heartbeat IPC: 0.855587 cumulative IPC: 0.821471 (Simulation time: 10 hr 22 min 2 sec) 
 Total Blocks : 196608 Invalid Blocks : 0 Valid Blocks : 196608
 Total Tags : 491520 Threshold : 12288 Invalid Tags : 196608 Pr0 Tags : 98304 Pr1 Tags : 196608 num_pr0 : 12288
 SAE Count : 0
 Inter-Core Inteference in Data Store : 45414149
Heartbeat CPU 3 instructions: 150000002 cycles: 182620081 heartbeat IPC: 0.855416 cumulative IPC: 0.821377 (Simulation time: 10 hr 22 min 10 sec) 
 Total Blocks : 196608 Invalid Blocks : 0 Valid Blocks : 196608
 Total Tags : 491520 Threshold : 12288 Invalid Tags : 196608 Pr0 Tags : 98304 Pr1 Tags : 196608 num_pr0 : 12288
 SAE Count : 0
 Inter-Core Inteference in Data Store : 45423819
Heartbeat CPU 4 instructions: 150000002 cycles: 182637771 heartbeat IPC: 0.855238 cumulative IPC: 0.821298 (Simulation time: 10 hr 22 min 16 sec) 
 Total Blocks : 196608 Invalid Blocks : 0 Valid Blocks : 196608
 Total Tags : 491520 Threshold : 12288 Invalid Tags : 196608 Pr0 Tags : 98304 Pr1 Tags : 196608 num_pr0 : 12288
 SAE Count : 0
 Inter-Core Inteference in Data Store : 45432645
Heartbeat CPU 5 instructions: 150000002 cycles: 182655880 heartbeat IPC: 0.855092 cumulative IPC: 0.821216 (Simulation time: 10 hr 22 min 23 sec) 
 Total Blocks : 196608 Invalid Blocks : 0 Valid Blocks : 196608
 Total Tags : 491520 Threshold : 12288 Invalid Tags : 196608 Pr0 Tags : 98304 Pr1 Tags : 196608 num_pr0 : 12288
 SAE Count : 0
 Inter-Core Inteference in Data Store : 45442363
Heartbeat CPU 6 instructions: 150000002 cycles: 182671384 heartbeat IPC: 0.855003 cumulative IPC: 0.821147 (Simulation time: 10 hr 22 min 30 sec) 
 Total Blocks : 196608 Invalid Blocks : 0 Valid Blocks : 196608
 Total Tags : 491520 Threshold : 12288 Invalid Tags : 196608 Pr0 Tags : 98304 Pr1 Tags : 196608 num_pr0 : 12288
 SAE Count : 0
 Inter-Core Inteference in Data Store : 45449955
Heartbeat CPU 7 instructions: 150000002 cycles: 182687351 heartbeat IPC: 0.854822 cumulative IPC: 0.821075 (Simulation time: 10 hr 22 min 36 sec) 
 Total Blocks : 196608 Invalid Blocks : 0 Valid Blocks : 196608
 Total Tags : 491520 Threshold : 12288 Invalid Tags : 196608 Pr0 Tags : 98304 Pr1 Tags : 196608 num_pr0 : 12288
 SAE Count : 0
 Inter-Core Inteference in Data Store : 45457840
Heartbeat CPU 0 instructions: 160000000 cycles: 194811075 heartbeat IPC: 0.815225 cumulative IPC: 0.821309 (Simulation time: 11 hr 18 min 56 sec) 
 Total Blocks : 196608 Invalid Blocks : 0 Valid Blocks : 196608
 Total Tags : 491520 Threshold : 12288 Invalid Tags : 196608 Pr0 Tags : 98304 Pr1 Tags : 196608 num_pr0 : 12288
 SAE Count : 0
 Inter-Core Inteference in Data Store : 50310835
Heartbeat CPU 1 instructions: 160000000 cycles: 194847253 heartbeat IPC: 0.815003 cumulative IPC: 0.821156 (Simulation time: 11 hr 19 min 5 sec) 
 Total Blocks : 196608 Invalid Blocks : 0 Valid Blocks : 196608
 Total Tags : 491520 Threshold : 12288 Invalid Tags : 196608 Pr0 Tags : 98304 Pr1 Tags : 196608 num_pr0 : 12288
 SAE Count : 0
 Inter-Core Inteference in Data Store : 50326282
Heartbeat CPU 2 instructions: 160000000 cycles: 194872016 heartbeat IPC: 0.814813 cumulative IPC: 0.821052 (Simulation time: 11 hr 19 min 13 sec) 
 Total Blocks : 196608 Invalid Blocks : 0 Valid Blocks : 196608
 Total Tags : 491520 Threshold : 12288 Invalid Tags : 196608 Pr0 Tags : 98304 Pr1 Tags : 196608 num_pr0 : 12288
 SAE Count : 0
 Inter-Core Inteference in Data Store : 50337795
Heartbeat CPU 3 instructions: 160000000 cycles: 194894290 heartbeat IPC: 0.814716 cumulative IPC: 0.820958 (Simulation time: 11 hr 19 min 19 sec) 
 Total Blocks : 196608 Invalid Blocks : 0 Valid Blocks : 196608
 Total Tags : 491520 Threshold : 12288 Invalid Tags : 196608 Pr0 Tags : 98304 Pr1 Tags : 196608 num_pr0 : 12288
 SAE Count : 0
 Inter-Core Inteference in Data Store : 50348095
Heartbeat CPU 4 instructions: 160000000 cycles: 194914221 heartbeat IPC: 0.814568 cumulative IPC: 0.820874 (Simulation time: 11 hr 19 min 24 sec) 
 Total Blocks : 196608 Invalid Blocks : 0 Valid Blocks : 196608
 Total Tags : 491520 Threshold : 12288 Invalid Tags : 196608 Pr0 Tags : 98304 Pr1 Tags : 196608 num_pr0 : 12288
 SAE Count : 0
 Inter-Core Inteference in Data Store : 50357600
Heartbeat CPU 5 instructions: 160000000 cycles: 194933899 heartbeat IPC: 0.814463 cumulative IPC: 0.820791 (Simulation time: 11 hr 19 min 30 sec) 
 Total Blocks : 196608 Invalid Blocks : 0 Valid Blocks : 196608
 Total Tags : 491520 Threshold : 12288 Invalid Tags : 196608 Pr0 Tags : 98304 Pr1 Tags : 196608 num_pr0 : 12288
 SAE Count : 0
 Inter-Core Inteference in Data Store : 50367403
Heartbeat CPU 6 instructions: 160000000 cycles: 194951759 heartbeat IPC: 0.814307 cumulative IPC: 0.820716 (Simulation time: 11 hr 19 min 36 sec) 
 Total Blocks : 196608 Invalid Blocks : 0 Valid Blocks : 196608
 Total Tags : 491520 Threshold : 12288 Invalid Tags : 196608 Pr0 Tags : 98304 Pr1 Tags : 196608 num_pr0 : 12288
 SAE Count : 0
 Inter-Core Inteference in Data Store : 50375803
Heartbeat CPU 7 instructions: 160000000 cycles: 194968908 heartbeat IPC: 0.814229 cumulative IPC: 0.820644 (Simulation time: 11 hr 19 min 42 sec) 
 Total Blocks : 196608 Invalid Blocks : 0 Valid Blocks : 196608
 Total Tags : 491520 Threshold : 12288 Invalid Tags : 196608 Pr0 Tags : 98304 Pr1 Tags : 196608 num_pr0 : 12288
 SAE Count : 0
 Inter-Core Inteference in Data Store : 50384311
Heartbeat CPU 0 instructions: 170000001 cycles: 206238399 heartbeat IPC: 0.875096 cumulative IPC: 0.824289 (Simulation time: 12 hr 15 min 7 sec) 
 Total Blocks : 196608 Invalid Blocks : 0 Valid Blocks : 196608
 Total Tags : 491520 Threshold : 12288 Invalid Tags : 196608 Pr0 Tags : 98304 Pr1 Tags : 196608 num_pr0 : 12288
 SAE Count : 0
 Inter-Core Inteference in Data Store : 55285134
Heartbeat CPU 1 instructions: 170000001 cycles: 206278264 heartbeat IPC: 0.874813 cumulative IPC: 0.82413 (Simulation time: 12 hr 15 min 17 sec) 
 Total Blocks : 196608 Invalid Blocks : 0 Valid Blocks : 196608
 Total Tags : 491520 Threshold : 12288 Invalid Tags : 196608 Pr0 Tags : 98304 Pr1 Tags : 196608 num_pr0 : 12288
 SAE Count : 0
 Inter-Core Inteference in Data Store : 55297591
Heartbeat CPU 2 instructions: 170000002 cycles: 206304969 heartbeat IPC: 0.874665 cumulative IPC: 0.824023 (Simulation time: 12 hr 15 min 26 sec) 
 Total Blocks : 196608 Invalid Blocks : 0 Valid Blocks : 196608
 Total Tags : 491520 Threshold : 12288 Invalid Tags : 196608 Pr0 Tags : 98304 Pr1 Tags : 196608 num_pr0 : 12288
 SAE Count : 0
 Inter-Core Inteference in Data Store : 55307856
Heartbeat CPU 3 instructions: 170000001 cycles: 206330717 heartbeat IPC: 0.874399 cumulative IPC: 0.82392 (Simulation time: 12 hr 15 min 35 sec) 
 Total Blocks : 196608 Invalid Blocks : 0 Valid Blocks : 196608
 Total Tags : 491520 Threshold : 12288 Invalid Tags : 196608 Pr0 Tags : 98304 Pr1 Tags : 196608 num_pr0 : 12288
 SAE Count : 0
 Inter-Core Inteference in Data Store : 55319469
Heartbeat CPU 4 instructions: 170000001 cycles: 206352026 heartbeat IPC: 0.874294 cumulative IPC: 0.823835 (Simulation time: 12 hr 15 min 43 sec) 
 Total Blocks : 196608 Invalid Blocks : 0 Valid Blocks : 196608
 Total Tags : 491520 Threshold : 12288 Invalid Tags : 196608 Pr0 Tags : 98304 Pr1 Tags : 196608 num_pr0 : 12288
 SAE Count : 0
 Inter-Core Inteference in Data Store : 55330104
Heartbeat CPU 5 instructions: 170000001 cycles: 206373483 heartbeat IPC: 0.874158 cumulative IPC: 0.823749 (Simulation time: 12 hr 15 min 50 sec) 
 Total Blocks : 196608 Invalid Blocks : 0 Valid Blocks : 196608
 Total Tags : 491520 Threshold : 12288 Invalid Tags : 196608 Pr0 Tags : 98304 Pr1 Tags : 196608 num_pr0 : 12288
 SAE Count : 0
 Inter-Core Inteference in Data Store : 55340339
Heartbeat CPU 6 instructions: 170000001 cycles: 206393271 heartbeat IPC: 0.87401 cumulative IPC: 0.82367 (Simulation time: 12 hr 15 min 56 sec) 
 Total Blocks : 196608 Invalid Blocks : 0 Valid Blocks : 196608
 Total Tags : 491520 Threshold : 12288 Invalid Tags : 196608 Pr0 Tags : 98304 Pr1 Tags : 196608 num_pr0 : 12288
 SAE Count : 0
 Inter-Core Inteference in Data Store : 55349781
Heartbeat CPU 7 instructions: 170000001 cycles: 206412564 heartbeat IPC: 0.873847 cumulative IPC: 0.823593 (Simulation time: 12 hr 16 min 3 sec) 
 Total Blocks : 196608 Invalid Blocks : 0 Valid Blocks : 196608
 Total Tags : 491520 Threshold : 12288 Invalid Tags : 196608 Pr0 Tags : 98304 Pr1 Tags : 196608 num_pr0 : 12288
 SAE Count : 0
 Inter-Core Inteference in Data Store : 55359402
Heartbeat CPU 0 instructions: 180000003 cycles: 218369896 heartbeat IPC: 0.824301 cumulative IPC: 0.824289 (Simulation time: 13 hr 12 min 13 sec) 
 Total Blocks : 196608 Invalid Blocks : 0 Valid Blocks : 196608
 Total Tags : 491520 Threshold : 12288 Invalid Tags : 196608 Pr0 Tags : 98304 Pr1 Tags : 196608 num_pr0 : 12288
 SAE Count : 0
 Inter-Core Inteference in Data Store : 60352420
Heartbeat CPU 1 instructions: 180000003 cycles: 218413390 heartbeat IPC: 0.824054 cumulative IPC: 0.824125 (Simulation time: 13 hr 12 min 21 sec) 
 Total Blocks : 196608 Invalid Blocks : 0 Valid Blocks : 196608
 Total Tags : 491520 Threshold : 12288 Invalid Tags : 196608 Pr0 Tags : 98304 Pr1 Tags : 196608 num_pr0 : 12288
 SAE Count : 0
 Inter-Core Inteference in Data Store : 60361512
Heartbeat CPU 2 instructions: 180000003 cycles: 218442947 heartbeat IPC: 0.823861 cumulative IPC: 0.824014 (Simulation time: 13 hr 12 min 26 sec) 
 Total Blocks : 196608 Invalid Blocks : 0 Valid Blocks : 196608
 Total Tags : 491520 Threshold : 12288 Invalid Tags : 196608 Pr0 Tags : 98304 Pr1 Tags : 196608 num_pr0 : 12288
 SAE Count : 0
 Inter-Core Inteference in Data Store : 60367046
Heartbeat CPU 3 instructions: 180000003 cycles: 218470539 heartbeat IPC: 0.823735 cumulative IPC: 0.82391 (Simulation time: 13 hr 12 min 34 sec) 
 Total Blocks : 196608 Invalid Blocks : 0 Valid Blocks : 196608
 Total Tags : 491520 Threshold : 12288 Invalid Tags : 196608 Pr0 Tags : 98304 Pr1 Tags : 196608 num_pr0 : 12288
 SAE Count : 0
 Inter-Core Inteference in Data Store : 60372311
Heartbeat CPU 4 instructions: 180000003 cycles: 218493905 heartbeat IPC: 0.823596 cumulative IPC: 0.823822 (Simulation time: 13 hr 12 min 39 sec) 
 Total Blocks : 196608 Invalid Blocks : 0 Valid Blocks : 196608
 Total Tags : 491520 Threshold : 12288 Invalid Tags : 196608 Pr0 Tags : 98304 Pr1 Tags : 196608 num_pr0 : 12288
 SAE Count : 0
 Inter-Core Inteference in Data Store : 60376875
Heartbeat CPU 5 instructions: 180000003 cycles: 218516815 heartbeat IPC: 0.823497 cumulative IPC: 0.823735 (Simulation time: 13 hr 12 min 44 sec) 
 Total Blocks : 196608 Invalid Blocks : 0 Valid Blocks : 196608
 Total Tags : 491520 Threshold : 12288 Invalid Tags : 196608 Pr0 Tags : 98304 Pr1 Tags : 196608 num_pr0 : 12288
 SAE Count : 0
 Inter-Core Inteference in Data Store : 60381518
Heartbeat CPU 6 instructions: 180000003 cycles: 218538478 heartbeat IPC: 0.82337 cumulative IPC: 0.823654 (Simulation time: 13 hr 12 min 49 sec) 
 Total Blocks : 196608 Invalid Blocks : 0 Valid Blocks : 196608
 Total Tags : 491520 Threshold : 12288 Invalid Tags : 196608 Pr0 Tags : 98304 Pr1 Tags : 196608 num_pr0 : 12288
 SAE Count : 0
 Inter-Core Inteference in Data Store : 60385949
Heartbeat CPU 7 instructions: 180000003 cycles: 218559500 heartbeat IPC: 0.823253 cumulative IPC: 0.823574 (Simulation time: 13 hr 12 min 53 sec) 
 Total Blocks : 196608 Invalid Blocks : 0 Valid Blocks : 196608
 Total Tags : 491520 Threshold : 12288 Invalid Tags : 196608 Pr0 Tags : 98304 Pr1 Tags : 196608 num_pr0 : 12288
 SAE Count : 0
 Inter-Core Inteference in Data Store : 60390346
Heartbeat CPU 0 instructions: 190000002 cycles: 230665764 heartbeat IPC: 0.813281 cumulative IPC: 0.823703 (Simulation time: 14 hr 8 min 17 sec) 
 Total Blocks : 196608 Invalid Blocks : 0 Valid Blocks : 196608
 Total Tags : 491520 Threshold : 12288 Invalid Tags : 196608 Pr0 Tags : 98304 Pr1 Tags : 196608 num_pr0 : 12288
 SAE Count : 0
 Inter-Core Inteference in Data Store : 65406146
Heartbeat CPU 1 instructions: 190000002 cycles: 230712739 heartbeat IPC: 0.813051 cumulative IPC: 0.823535 (Simulation time: 14 hr 8 min 30 sec) 
 Total Blocks : 196608 Invalid Blocks : 0 Valid Blocks : 196608
 Total Tags : 491520 Threshold : 12288 Invalid Tags : 196608 Pr0 Tags : 98304 Pr1 Tags : 196608 num_pr0 : 12288
 SAE Count : 0
 Inter-Core Inteference in Data Store : 65425111
Heartbeat CPU 2 instructions: 190000002 cycles: 230745668 heartbeat IPC: 0.812828 cumulative IPC: 0.823417 (Simulation time: 14 hr 8 min 38 sec) 
 Total Blocks : 196608 Invalid Blocks : 0 Valid Blocks : 196608
 Total Tags : 491520 Threshold : 12288 Invalid Tags : 196608 Pr0 Tags : 98304 Pr1 Tags : 196608 num_pr0 : 12288
 SAE Count : 0
 Inter-Core Inteference in Data Store : 65437986
Heartbeat CPU 3 instructions: 190000002 cycles: 230774891 heartbeat IPC: 0.81272 cumulative IPC: 0.823313 (Simulation time: 14 hr 8 min 46 sec) 
 Total Blocks : 196608 Invalid Blocks : 0 Valid Blocks : 196608
 Total Tags : 491520 Threshold : 12288 Invalid Tags : 196608 Pr0 Tags : 98304 Pr1 Tags : 196608 num_pr0 : 12288
 SAE Count : 0
 Inter-Core Inteference in Data Store : 65449656
Heartbeat CPU 4 instructions: 190000002 cycles: 230799748 heartbeat IPC: 0.812622 cumulative IPC: 0.823224 (Simulation time: 14 hr 8 min 53 sec) 
 Total Blocks : 196608 Invalid Blocks : 0 Valid Blocks : 196608
 Total Tags : 491520 Threshold : 12288 Invalid Tags : 196608 Pr0 Tags : 98304 Pr1 Tags : 196608 num_pr0 : 12288
 SAE Count : 0
 Inter-Core Inteference in Data Store : 65459178
Heartbeat CPU 5 instructions: 190000002 cycles: 230825515 heartbeat IPC: 0.812433 cumulative IPC: 0.823133 (Simulation time: 14 hr 9 min 0 sec) 
 Total Blocks : 196608 Invalid Blocks : 0 Valid Blocks : 196608
 Total Tags : 491520 Threshold : 12288 Invalid Tags : 196608 Pr0 Tags : 98304 Pr1 Tags : 196608 num_pr0 : 12288
 SAE Count : 0
 Inter-Core Inteference in Data Store : 65469262
Heartbeat CPU 6 instructions: 190000002 cycles: 230848974 heartbeat IPC: 0.812315 cumulative IPC: 0.823049 (Simulation time: 14 hr 9 min 6 sec) 
 Total Blocks : 196608 Invalid Blocks : 0 Valid Blocks : 196608
 Total Tags : 491520 Threshold : 12288 Invalid Tags : 196608 Pr0 Tags : 98304 Pr1 Tags : 196608 num_pr0 : 12288
 SAE Count : 0
 Inter-Core Inteference in Data Store : 65478934
Heartbeat CPU 7 instructions: 190000002 cycles: 230871061 heartbeat IPC: 0.812245 cumulative IPC: 0.82297 (Simulation time: 14 hr 9 min 12 sec) 
 Total Blocks : 196608 Invalid Blocks : 0 Valid Blocks : 196608
 Total Tags : 491520 Threshold : 12288 Invalid Tags : 196608 Pr0 Tags : 98304 Pr1 Tags : 196608 num_pr0 : 12288
 SAE Count : 0
 Inter-Core Inteference in Data Store : 65488391
Heartbeat CPU 0 instructions: 200000002 cycles: 242545625 heartbeat IPC: 0.841761 cumulative IPC: 0.824587 (Simulation time: 15 hr 2 min 16 sec) 
 Total Blocks : 196608 Invalid Blocks : 0 Valid Blocks : 196608
 Total Tags : 491520 Threshold : 12288 Invalid Tags : 196608 Pr0 Tags : 98304 Pr1 Tags : 196608 num_pr0 : 12288
 SAE Count : 0
 Inter-Core Inteference in Data Store : 70161450
Heartbeat CPU 1 instructions: 200000000 cycles: 242595487 heartbeat IPC: 0.841556 cumulative IPC: 0.824418 (Simulation time: 15 hr 2 min 31 sec) 
 Total Blocks : 196608 Invalid Blocks : 0 Valid Blocks : 196608
 Total Tags : 491520 Threshold : 12288 Invalid Tags : 196608 Pr0 Tags : 98304 Pr1 Tags : 196608 num_pr0 : 12288
 SAE Count : 0
 Inter-Core Inteference in Data Store : 70184235
Heartbeat CPU 2 instructions: 200000000 cycles: 242630705 heartbeat IPC: 0.841394 cumulative IPC: 0.824298 (Simulation time: 15 hr 2 min 42 sec) 
 Total Blocks : 196608 Invalid Blocks : 0 Valid Blocks : 196608
 Total Tags : 491520 Threshold : 12288 Invalid Tags : 196608 Pr0 Tags : 98304 Pr1 Tags : 196608 num_pr0 : 12288
 SAE Count : 0
 Inter-Core Inteference in Data Store : 70199331
Heartbeat CPU 3 instructions: 200000000 cycles: 242662042 heartbeat IPC: 0.841244 cumulative IPC: 0.824192 (Simulation time: 15 hr 2 min 50 sec) 
 Total Blocks : 196608 Invalid Blocks : 0 Valid Blocks : 196608
 Total Tags : 491520 Threshold : 12288 Invalid Tags : 196608 Pr0 Tags : 98304 Pr1 Tags : 196608 num_pr0 : 12288
 SAE Count : 0
 Inter-Core Inteference in Data Store : 70212750
Heartbeat CPU 4 instructions: 200000002 cycles: 242688708 heartbeat IPC: 0.841116 cumulative IPC: 0.824101 (Simulation time: 15 hr 2 min 57 sec) 
 Total Blocks : 196608 Invalid Blocks : 0 Valid Blocks : 196608
 Total Tags : 491520 Threshold : 12288 Invalid Tags : 196608 Pr0 Tags : 98304 Pr1 Tags : 196608 num_pr0 : 12288
 SAE Count : 0
 Inter-Core Inteference in Data Store : 70223711
Heartbeat CPU 5 instructions: 200000001 cycles: 242716089 heartbeat IPC: 0.841002 cumulative IPC: 0.824008 (Simulation time: 15 hr 3 min 5 sec) 
 Total Blocks : 196608 Invalid Blocks : 0 Valid Blocks : 196608
 Total Tags : 491520 Threshold : 12288 Invalid Tags : 196608 Pr0 Tags : 98304 Pr1 Tags : 196608 num_pr0 : 12288
 SAE Count : 0
 Inter-Core Inteference in Data Store : 70235234
Heartbeat CPU 6 instructions: 200000002 cycles: 242741001 heartbeat IPC: 0.8409 cumulative IPC: 0.823923 (Simulation time: 15 hr 3 min 14 sec) 
 Total Blocks : 196608 Invalid Blocks : 0 Valid Blocks : 196608
 Total Tags : 491520 Threshold : 12288 Invalid Tags : 196608 Pr0 Tags : 98304 Pr1 Tags : 196608 num_pr0 : 12288
 SAE Count : 0
 Inter-Core Inteference in Data Store : 70246154
Heartbeat CPU 7 instructions: 200000000 cycles: 242765438 heartbeat IPC: 0.840733 cumulative IPC: 0.82384 (Simulation time: 15 hr 3 min 23 sec) 
 Total Blocks : 196608 Invalid Blocks : 0 Valid Blocks : 196608
 Total Tags : 491520 Threshold : 12288 Invalid Tags : 196608 Pr0 Tags : 98304 Pr1 Tags : 196608 num_pr0 : 12288
 SAE Count : 0
 Inter-Core Inteference in Data Store : 70257155

Warmup complete CPU 0 instructions: 200196066 cycles: 242765439 (Simulation time: 15 hr 3 min 23 sec) 
Warmup complete CPU 1 instructions: 200136246 cycles: 242765439 (Simulation time: 15 hr 3 min 23 sec) 
Warmup complete CPU 2 instructions: 200113408 cycles: 242765439 (Simulation time: 15 hr 3 min 23 sec) 
Warmup complete CPU 3 instructions: 200082437 cycles: 242765439 (Simulation time: 15 hr 3 min 23 sec) 
Warmup complete CPU 4 instructions: 200059968 cycles: 242765439 (Simulation time: 15 hr 3 min 23 sec) 
Warmup complete CPU 5 instructions: 200036848 cycles: 242765439 (Simulation time: 15 hr 3 min 23 sec) 
Warmup complete CPU 6 instructions: 200018212 cycles: 242765439 (Simulation time: 15 hr 3 min 23 sec) 
Warmup complete CPU 7 instructions: 200000004 cycles: 242765439 (Simulation time: 15 hr 3 min 23 sec) 

Heartbeat CPU 0 instructions: 210000001 cycles: 402569074 heartbeat IPC: 0.0624908 cumulative IPC: 0.0613499 (Simulation time: 16 hr 50 min 26 sec) 
 Total Blocks : 196608 Invalid Blocks : 0 Valid Blocks : 196608
 Total Tags : 491520 Threshold : 12288 Invalid Tags : 196608 Pr0 Tags : 98304 Pr1 Tags : 196608 num_pr0 : 12288
 SAE Count : 0
 Inter-Core Inteference in Data Store : 4945317
Heartbeat CPU 1 instructions: 210000001 cycles: 403269704 heartbeat IPC: 0.0622377 cumulative IPC: 0.0614548 (Simulation time: 16 hr 50 min 56 sec) 
 Total Blocks : 196608 Invalid Blocks : 0 Valid Blocks : 196608
 Total Tags : 491520 Threshold : 12288 Invalid Tags : 196608 Pr0 Tags : 98304 Pr1 Tags : 196608 num_pr0 : 12288
 SAE Count : 0
 Inter-Core Inteference in Data Store : 4967799
Heartbeat CPU 2 instructions: 210000001 cycles: 403538369 heartbeat IPC: 0.0621474 cumulative IPC: 0.0614941 (Simulation time: 16 hr 51 min 7 sec) 
 Total Blocks : 196608 Invalid Blocks : 0 Valid Blocks : 196608
 Total Tags : 491520 Threshold : 12288 Invalid Tags : 196608 Pr0 Tags : 98304 Pr1 Tags : 196608 num_pr0 : 12288
 SAE Count : 0
 Inter-Core Inteference in Data Store : 4976643
Heartbeat CPU 3 instructions: 210000001 cycles: 403676335 heartbeat IPC: 0.0621063 cumulative IPC: 0.0616339 (Simulation time: 16 hr 51 min 13 sec) 
 Total Blocks : 196608 Invalid Blocks : 0 Valid Blocks : 196608
 Total Tags : 491520 Threshold : 12288 Invalid Tags : 196608 Pr0 Tags : 98304 Pr1 Tags : 196608 num_pr0 : 12288
 SAE Count : 0
 Inter-Core Inteference in Data Store : 4981172
Heartbeat CPU 5 instructions: 210000001 cycles: 404320986 heartbeat IPC: 0.0618793 cumulative IPC: 0.0616701 (Simulation time: 16 hr 51 min 41 sec) 
 Total Blocks : 196608 Invalid Blocks : 0 Valid Blocks : 196608
 Total Tags : 491520 Threshold : 12288 Invalid Tags : 196608 Pr0 Tags : 98304 Pr1 Tags : 196608 num_pr0 : 12288
 SAE Count : 0
 Inter-Core Inteference in Data Store : 5002033
Heartbeat CPU 4 instructions: 210000001 cycles: 404333210 heartbeat IPC: 0.0618641 cumulative IPC: 0.0615224 (Simulation time: 16 hr 51 min 41 sec) 
 Total Blocks : 196608 Invalid Blocks : 0 Valid Blocks : 196608
 Total Tags : 491520 Threshold : 12288 Invalid Tags : 196609 Pr0 Tags : 98303 Pr1 Tags : 196608 num_pr0 : 12288
 SAE Count : 0
 Inter-Core Inteference in Data Store : 5002436
Heartbeat CPU 6 instructions: 210000001 cycles: 404687275 heartbeat IPC: 0.0617489 cumulative IPC: 0.0616457 (Simulation time: 16 hr 51 min 59 sec) 
 Total Blocks : 196608 Invalid Blocks : 0 Valid Blocks : 196608
 Total Tags : 491520 Threshold : 12288 Invalid Tags : 196608 Pr0 Tags : 98304 Pr1 Tags : 196608 num_pr0 : 12288
 SAE Count : 0
 Inter-Core Inteference in Data Store : 5013728
Heartbeat CPU 7 instructions: 210000001 cycles: 405016860 heartbeat IPC: 0.0616327 cumulative IPC: 0.0616327 (Simulation time: 16 hr 52 min 13 sec) 
 Total Blocks : 196608 Invalid Blocks : 0 Valid Blocks : 196608
 Total Tags : 491520 Threshold : 12288 Invalid Tags : 196608 Pr0 Tags : 98304 Pr1 Tags : 196608 num_pr0 : 12288
 SAE Count : 0
 Inter-Core Inteference in Data Store : 5024204
Heartbeat CPU 0 instructions: 220000000 cycles: 565753937 heartbeat IPC: 0.0612802 cumulative IPC: 0.0613147 (Simulation time: 18 hr 35 min 26 sec) 
 Total Blocks : 196608 Invalid Blocks : 0 Valid Blocks : 196608
 Total Tags : 491520 Threshold : 12288 Invalid Tags : 196608 Pr0 Tags : 98304 Pr1 Tags : 196608 num_pr0 : 12288
 SAE Count : 0
 Inter-Core Inteference in Data Store : 9995761
Heartbeat CPU 1 instructions: 220000000 cycles: 566155034 heartbeat IPC: 0.0613929 cumulative IPC: 0.0614236 (Simulation time: 18 hr 35 min 40 sec) 
 Total Blocks : 196608 Invalid Blocks : 0 Valid Blocks : 196608
 Total Tags : 491520 Threshold : 12288 Invalid Tags : 196608 Pr0 Tags : 98304 Pr1 Tags : 196608 num_pr0 : 12288
 SAE Count : 0
 Inter-Core Inteference in Data Store : 10006688
Heartbeat CPU 2 instructions: 220000000 cycles: 566275724 heartbeat IPC: 0.0614487 cumulative IPC: 0.0614713 (Simulation time: 18 hr 35 min 44 sec) 
 Total Blocks : 196608 Invalid Blocks : 0 Valid Blocks : 196608
 Total Tags : 491520 Threshold : 12288 Invalid Tags : 196608 Pr0 Tags : 98304 Pr1 Tags : 196608 num_pr0 : 12288
 SAE Count : 0
 Inter-Core Inteference in Data Store : 10010258
Heartbeat CPU 3 instructions: 220000000 cycles: 566299961 heartbeat IPC: 0.0614917 cumulative IPC: 0.0615624 (Simulation time: 18 hr 35 min 45 sec) 
 Total Blocks : 196608 Invalid Blocks : 0 Valid Blocks : 196608
 Total Tags : 491520 Threshold : 12288 Invalid Tags : 196608 Pr0 Tags : 98304 Pr1 Tags : 196608 num_pr0 : 12288
 SAE Count : 0
 Inter-Core Inteference in Data Store : 10011004
Heartbeat CPU 6 instructions: 220000000 cycles: 566830452 heartbeat IPC: 0.0616739 cumulative IPC: 0.0616598 (Simulation time: 18 hr 36 min 5 sec) 
 Total Blocks : 196608 Invalid Blocks : 0 Valid Blocks : 196608
 Total Tags : 491520 Threshold : 12288 Invalid Tags : 196608 Pr0 Tags : 98304 Pr1 Tags : 196608 num_pr0 : 12288
 SAE Count : 0
 Inter-Core Inteference in Data Store : 10026328
Heartbeat CPU 4 instructions: 220000000 cycles: 566890250 heartbeat IPC: 0.0615169 cumulative IPC: 0.0615196 (Simulation time: 18 hr 36 min 7 sec) 
 Total Blocks : 196608 Invalid Blocks : 0 Valid Blocks : 196608
 Total Tags : 491520 Threshold : 12288 Invalid Tags : 196608 Pr0 Tags : 98304 Pr1 Tags : 196608 num_pr0 : 12288
 SAE Count : 0
 Inter-Core Inteference in Data Store : 10028173
Heartbeat CPU 5 instructions: 220000000 cycles: 567205335 heartbeat IPC: 0.0613932 cumulative IPC: 0.0615311 (Simulation time: 18 hr 36 min 20 sec) 
 Total Blocks : 196608 Invalid Blocks : 0 Valid Blocks : 196608
 Total Tags : 491520 Threshold : 12288 Invalid Tags : 196608 Pr0 Tags : 98304 Pr1 Tags : 196608 num_pr0 : 12288
 SAE Count : 0
 Inter-Core Inteference in Data Store : 10037549
Heartbeat CPU 7 instructions: 220000000 cycles: 567853915 heartbeat IPC: 0.0614111 cumulative IPC: 0.0615217 (Simulation time: 18 hr 36 min 48 sec) 
 Total Blocks : 196608 Invalid Blocks : 0 Valid Blocks : 196608
 Total Tags : 491520 Threshold : 12288 Invalid Tags : 196608 Pr0 Tags : 98304 Pr1 Tags : 196608 num_pr0 : 12288
 SAE Count : 0
 Inter-Core Inteference in Data Store : 10058115
Heartbeat CPU 0 instructions: 230000000 cycles: 729545287 heartbeat IPC: 0.0610533 cumulative IPC: 0.0612267 (Simulation time: 20 hr 16 min 39 sec) 
 Total Blocks : 196608 Invalid Blocks : 0 Valid Blocks : 196608
 Total Tags : 491520 Threshold : 12288 Invalid Tags : 196608 Pr0 Tags : 98304 Pr1 Tags : 196608 num_pr0 : 12288
 SAE Count : 0
 Inter-Core Inteference in Data Store : 14989852
Heartbeat CPU 3 instructions: 230000000 cycles: 730209928 heartbeat IPC: 0.0610091 cumulative IPC: 0.0613763 (Simulation time: 20 hr 17 min 1 sec) 
 Total Blocks : 196608 Invalid Blocks : 0 Valid Blocks : 196608
 Total Tags : 491520 Threshold : 12288 Invalid Tags : 196608 Pr0 Tags : 98304 Pr1 Tags : 196608 num_pr0 : 12288
 SAE Count : 0
 Inter-Core Inteference in Data Store : 15011169
Heartbeat CPU 1 instructions: 230000000 cycles: 730230925 heartbeat IPC: 0.0609474 cumulative IPC: 0.0612633 (Simulation time: 20 hr 17 min 2 sec) 
 Total Blocks : 196608 Invalid Blocks : 0 Valid Blocks : 196608
 Total Tags : 491520 Threshold : 12288 Invalid Tags : 196608 Pr0 Tags : 98304 Pr1 Tags : 196608 num_pr0 : 12288
 SAE Count : 0
 Inter-Core Inteference in Data Store : 15011850
Heartbeat CPU 6 instructions: 230000000 cycles: 730280925 heartbeat IPC: 0.0611806 cumulative IPC: 0.0614991 (Simulation time: 20 hr 17 min 5 sec) 
 Total Blocks : 196608 Invalid Blocks : 0 Valid Blocks : 196608
 Total Tags : 491520 Threshold : 12288 Invalid Tags : 196608 Pr0 Tags : 98304 Pr1 Tags : 196608 num_pr0 : 12288
 SAE Count : 0
 Inter-Core Inteference in Data Store : 15013574
Heartbeat CPU 2 instructions: 230000000 cycles: 730456018 heartbeat IPC: 0.0609086 cumulative IPC: 0.0612819 (Simulation time: 20 hr 17 min 12 sec) 
 Total Blocks : 196608 Invalid Blocks : 0 Valid Blocks : 196608
 Total Tags : 491520 Threshold : 12288 Invalid Tags : 196608 Pr0 Tags : 98304 Pr1 Tags : 196608 num_pr0 : 12288
 SAE Count : 0
 Inter-Core Inteference in Data Store : 15019415
Heartbeat CPU 4 instructions: 230000000 cycles: 730627994 heartbeat IPC: 0.0610733 cumulative IPC: 0.0613698 (Simulation time: 20 hr 17 min 17 sec) 
 Total Blocks : 196608 Invalid Blocks : 0 Valid Blocks : 196608
 Total Tags : 491520 Threshold : 12288 Invalid Tags : 196608 Pr0 Tags : 98304 Pr1 Tags : 196608 num_pr0 : 12288
 SAE Count : 0
 Inter-Core Inteference in Data Store : 15024908
Heartbeat CPU 5 instructions: 230000000 cycles: 731084596 heartbeat IPC: 0.0610205 cumulative IPC: 0.0613598 (Simulation time: 20 hr 17 min 35 sec) 
 Total Blocks : 196608 Invalid Blocks : 0 Valid Blocks : 196608
 Total Tags : 491520 Threshold : 12288 Invalid Tags : 196608 Pr0 Tags : 98304 Pr1 Tags : 196608 num_pr0 : 12288
 SAE Count : 0
 Inter-Core Inteference in Data Store : 15039892
Heartbeat CPU 7 instructions: 230000000 cycles: 731588342 heartbeat IPC: 0.0610745 cumulative IPC: 0.0613719 (Simulation time: 20 hr 17 min 54 sec) 
 Total Blocks : 196608 Invalid Blocks : 0 Valid Blocks : 196608
 Total Tags : 491520 Threshold : 12288 Invalid Tags : 196608 Pr0 Tags : 98304 Pr1 Tags : 196608 num_pr0 : 12288
 SAE Count : 0
 Inter-Core Inteference in Data Store : 15056743
Heartbeat CPU 0 instructions: 240000000 cycles: 885852281 heartbeat IPC: 0.0639767 cumulative IPC: 0.0618951 (Simulation time: 21 hr 50 min 26 sec) 
 Total Blocks : 196608 Invalid Blocks : 0 Valid Blocks : 196608
 Total Tags : 491520 Threshold : 12288 Invalid Tags : 196608 Pr0 Tags : 98304 Pr1 Tags : 196608 num_pr0 : 12288
 SAE Count : 0
 Inter-Core Inteference in Data Store : 19515208
Heartbeat CPU 6 instructions: 240000000 cycles: 885880895 heartbeat IPC: 0.0642674 cumulative IPC: 0.0621689 (Simulation time: 21 hr 50 min 27 sec) 
 Total Blocks : 196608 Invalid Blocks : 0 Valid Blocks : 196608
 Total Tags : 491520 Threshold : 12288 Invalid Tags : 196608 Pr0 Tags : 98304 Pr1 Tags : 196608 num_pr0 : 12288
 SAE Count : 0
 Inter-Core Inteference in Data Store : 19516162
Heartbeat CPU 1 instructions: 240000000 cycles: 885957572 heartbeat IPC: 0.0642151 cumulative IPC: 0.061978 (Simulation time: 21 hr 50 min 30 sec) 
 Total Blocks : 196608 Invalid Blocks : 0 Valid Blocks : 196608
 Total Tags : 491520 Threshold : 12288 Invalid Tags : 196608 Pr0 Tags : 98304 Pr1 Tags : 196608 num_pr0 : 12288
 SAE Count : 0
 Inter-Core Inteference in Data Store : 19518678
Heartbeat CPU 2 instructions: 240000000 cycles: 886372843 heartbeat IPC: 0.0641368 cumulative IPC: 0.0619735 (Simulation time: 21 hr 50 min 46 sec) 
 Total Blocks : 196608 Invalid Blocks : 0 Valid Blocks : 196608
 Total Tags : 491520 Threshold : 12288 Invalid Tags : 196608 Pr0 Tags : 98304 Pr1 Tags : 196608 num_pr0 : 12288
 SAE Count : 0
 Inter-Core Inteference in Data Store : 19532182
Heartbeat CPU 4 instructions: 240000000 cycles: 886438036 heartbeat IPC: 0.0641807 cumulative IPC: 0.0620502 (Simulation time: 21 hr 50 min 48 sec) 
 Total Blocks : 196608 Invalid Blocks : 0 Valid Blocks : 196608
 Total Tags : 491520 Threshold : 12288 Invalid Tags : 196608 Pr0 Tags : 98304 Pr1 Tags : 196608 num_pr0 : 12288
 SAE Count : 0
 Inter-Core Inteference in Data Store : 19534382
Heartbeat CPU 3 instructions: 240000000 cycles: 886547453 heartbeat IPC: 0.0639642 cumulative IPC: 0.0620048 (Simulation time: 21 hr 50 min 53 sec) 
 Total Blocks : 196608 Invalid Blocks : 0 Valid Blocks : 196608
 Total Tags : 491520 Threshold : 12288 Invalid Tags : 196608 Pr0 Tags : 98304 Pr1 Tags : 196608 num_pr0 : 12288
 SAE Count : 0
 Inter-Core Inteference in Data Store : 19537846
Heartbeat CPU 5 instructions: 240000000 cycles: 886613706 heartbeat IPC: 0.0642966 cumulative IPC: 0.0620692 (Simulation time: 21 hr 50 min 55 sec) 
 Total Blocks : 196608 Invalid Blocks : 0 Valid Blocks : 196608
 Total Tags : 491520 Threshold : 12288 Invalid Tags : 196608 Pr0 Tags : 98304 Pr1 Tags : 196608 num_pr0 : 12288
 SAE Count : 0
 Inter-Core Inteference in Data Store : 19539988
Heartbeat CPU 7 instructions: 240000000 cycles: 887074791 heartbeat IPC: 0.0643143 cumulative IPC: 0.062082 (Simulation time: 21 hr 51 min 12 sec) 
 Total Blocks : 196608 Invalid Blocks : 0 Valid Blocks : 196608
 Total Tags : 491520 Threshold : 12288 Invalid Tags : 196608 Pr0 Tags : 98304 Pr1 Tags : 196608 num_pr0 : 12288
 SAE Count : 0
 Inter-Core Inteference in Data Store : 19555010
Heartbeat CPU 2 instructions: 250000003 cycles: 1043630145 heartbeat IPC: 0.0635901 cumulative IPC: 0.0622909 (Simulation time: 23 hr 23 min 20 sec) 
 Total Blocks : 196608 Invalid Blocks : 0 Valid Blocks : 196608
 Total Tags : 491520 Threshold : 12288 Invalid Tags : 196608 Pr0 Tags : 98304 Pr1 Tags : 196608 num_pr0 : 12288
 SAE Count : 0
 Inter-Core Inteference in Data Store : 24114297
Heartbeat CPU 5 instructions: 250000003 cycles: 1043747538 heartbeat IPC: 0.06364 cumulative IPC: 0.0623774 (Simulation time: 23 hr 23 min 25 sec) 
 Total Blocks : 196608 Invalid Blocks : 0 Valid Blocks : 196608
 Total Tags : 491520 Threshold : 12288 Invalid Tags : 196608 Pr0 Tags : 98304 Pr1 Tags : 196608 num_pr0 : 12288
 SAE Count : 0
 Inter-Core Inteference in Data Store : 24117950
Heartbeat CPU 0 instructions: 250000003 cycles: 1043972166 heartbeat IPC: 0.0632432 cumulative IPC: 0.0621612 (Simulation time: 23 hr 23 min 34 sec) 
 Total Blocks : 196608 Invalid Blocks : 0 Valid Blocks : 196608
 Total Tags : 491520 Threshold : 12288 Invalid Tags : 196608 Pr0 Tags : 98304 Pr1 Tags : 196608 num_pr0 : 12288
 SAE Count : 0
 Inter-Core Inteference in Data Store : 24125056
Heartbeat CPU 6 instructions: 250000003 cycles: 1044024378 heartbeat IPC: 0.0632337 cumulative IPC: 0.0623791 (Simulation time: 23 hr 23 min 36 sec) 
 Total Blocks : 196608 Invalid Blocks : 0 Valid Blocks : 196608
 Total Tags : 491520 Threshold : 12288 Invalid Tags : 196608 Pr0 Tags : 98304 Pr1 Tags : 196608 num_pr0 : 12288
 SAE Count : 0
 Inter-Core Inteference in Data Store : 24126823
Heartbeat CPU 4 instructions: 250000003 cycles: 1044360792 heartbeat IPC: 0.0633221 cumulative IPC: 0.0623008 (Simulation time: 23 hr 23 min 50 sec) 
 Total Blocks : 196608 Invalid Blocks : 0 Valid Blocks : 196608
 Total Tags : 491520 Threshold : 12288 Invalid Tags : 196608 Pr0 Tags : 98304 Pr1 Tags : 196608 num_pr0 : 12288
 SAE Count : 0
 Inter-Core Inteference in Data Store : 24137635
Heartbeat CPU 1 instructions: 250000003 cycles: 1044448588 heartbeat IPC: 0.0630951 cumulative IPC: 0.0621988 (Simulation time: 23 hr 23 min 53 sec) 
[...]
LLC4 LOAD      ACCESS: 1987359  HIT: 1067795  MISS: 919564  HIT %: 53.7293  MISS %: 46.2707  AVERAGE MISS PENALTY: 511.346
LLC4 RFO       ACCESS:     0  HIT:     0  MISS:     0  HIT %:     0  MISS %:     0  AVERAGE MISS PENALTY: 0
LLC4 PREFETCH  ACCESS: 9239002  HIT: 4325705  MISS: 4913297  HIT %: 46.82  MISS %: 53.18  AVERAGE MISS PENALTY: 523.771
LLC4 WRITEBACK ACCESS:  5905  HIT:  3755  MISS:  2150  HIT %: 63.5902  MISS %: 36.4098  AVERAGE MISS PENALTY: 0
LLC4 PREFETCH  REQUESTED:     0  ISSUED:     0  USEFUL: 2357904  USELESS: 9301752
 USEFUL LOAD PREFETCHES:    2357904 PREFETCH ISSUED TO LOWER LEVEL:   93010016  ACCURACY: 2.53511
 TIMELY PREFETCHES:    2357904 LATE PREFETCHES: 0 DROPPED PREFETCHES: 0
LLC4 AVERAGE MISS LATENCY: 521.62 cycles

LLC4 Set Associative Eviction Count : 0
LLC4 Priority 0 entries : 12288
LLC4 Inter-Core Interference : 12315642
LLC5 TOTAL     ACCESS: 11058590  HIT: 5333910  MISS: 5724680  HIT %: 48.2332  MISS %: 51.7668  AVERAGE MISS PENALTY: 498.591
LLC5 LOAD      ACCESS: 2000612  HIT: 1074569  MISS: 926043  HIT %: 53.712  MISS %: 46.288  AVERAGE MISS PENALTY: 484.413
LLC5 RFO       ACCESS:     0  HIT:     0  MISS:     0  HIT %:     0  MISS %:     0  AVERAGE MISS PENALTY: 0
LLC5 PREFETCH  ACCESS: 9052095  HIT: 4255544  MISS: 4796551  HIT %: 47.0117  MISS %: 52.9883  AVERAGE MISS PENALTY: 501.545
LLC5 WRITEBACK ACCESS:  5883  HIT:  3797  MISS:  2086  HIT %: 64.5419  MISS %: 35.4581  AVERAGE MISS PENALTY: 0
LLC5 PREFETCH  REQUESTED:     0  ISSUED:     0  USEFUL: 2341718  USELESS: 9100741
 USEFUL LOAD PREFETCHES:    2341718 PREFETCH ISSUED TO LOWER LEVEL:   73554604  ACCURACY: 3.18365
 TIMELY PREFETCHES:    2341718 LATE PREFETCHES: 0 DROPPED PREFETCHES: 0
LLC5 AVERAGE MISS LATENCY: 498.591 cycles

LLC5 Set Associative Eviction Count : 0
LLC5 Priority 0 entries : 12288
LLC5 Inter-Core Interference : 12145823
LLC6 TOTAL     ACCESS: 10825533  HIT: 5263192  MISS: 5562341  HIT %: 48.6183  MISS %: 51.3817  AVERAGE MISS PENALTY: 516.35
LLC6 LOAD      ACCESS: 1883540  HIT: 972826  MISS: 910714  HIT %: 51.6488  MISS %: 48.3512  AVERAGE MISS PENALTY: 507.695
LLC6 RFO       ACCESS:     0  HIT:     0  MISS:     0  HIT %:     0  MISS %:     0  AVERAGE MISS PENALTY: 0
LLC6 PREFETCH  ACCESS: 8936140  HIT: 4286566  MISS: 4649574  HIT %: 47.9689  MISS %: 52.0311  AVERAGE MISS PENALTY: 518.273
LLC6 WRITEBACK ACCESS:  5853  HIT:  3800  MISS:  2053  HIT %: 64.924  MISS %: 35.076  AVERAGE MISS PENALTY: 0
LLC6 PREFETCH  REQUESTED:     0  ISSUED:     0  USEFUL: 2329163  USELESS: 8983378
 USEFUL LOAD PREFETCHES:    2329163 PREFETCH ISSUED TO LOWER LEVEL:  116958756  ACCURACY: 1.99144
 TIMELY PREFETCHES:    2329163 LATE PREFETCHES: 0 DROPPED PREFETCHES: 0
LLC6 AVERAGE MISS LATENCY: 516.35 cycles

LLC6 Set Associative Eviction Count : 0
LLC6 Priority 0 entries : 12288
LLC6 Inter-Core Interference : 11962153
LLC7 TOTAL     ACCESS: 10670624  HIT: 5285235  MISS: 5385389  HIT %: 49.5307  MISS %: 50.4693  AVERAGE MISS PENALTY: 495.729
LLC7 LOAD      ACCESS: 2003078  HIT: 1067803  MISS: 935275  HIT %: 53.3081  MISS %: 46.6919  AVERAGE MISS PENALTY: 479.838
LLC7 RFO       ACCESS:     0  HIT:     0  MISS:     0  HIT %:     0  MISS %:     0  AVERAGE MISS PENALTY: 0
LLC7 PREFETCH  ACCESS: 8661780  HIT: 4213843  MISS: 4447937  HIT %: 48.6487  MISS %: 51.3513  AVERAGE MISS PENALTY: 499.313
LLC7 WRITEBACK ACCESS:  5766  HIT:  3589  MISS:  2177  HIT %: 62.2442  MISS %: 37.7558  AVERAGE MISS PENALTY: 0
LLC7 PREFETCH  REQUESTED:     0  ISSUED:     0  USEFUL: 2337962  USELESS: 8770364
 USEFUL LOAD PREFETCHES:    2337962 PREFETCH ISSUED TO LOWER LEVEL:   86962302  ACCURACY: 2.68848
 TIMELY PREFETCHES:    2337962 LATE PREFETCHES: 0 DROPPED PREFETCHES: 0
LLC7 AVERAGE MISS LATENCY: 495.729 cycles

LLC7 Set Associative Eviction Count : 0
LLC7 Priority 0 entries : 12288
LLC7 Inter-Core Interference : 11891662
ROI Average ROB Stall Cycles:	32.8509
ROI Total ROB Stalls Cycles:	3115785285
ROI TOTAL ROB counter      :	94846204
ROI Average Load ROB Stall Cycles:	210.418
ROI Total Load ROB Stalls Cycle  :	1993683630
ROI Total Load ROB stalls Counter:	9474855
Major fault: 0 Minor fault: 33140

CPU 7 cumulative IPC: 0.0616383 instructions: 200000000 cycles: 3244738326
ITLB TOTAL     ACCESS: 30684933  HIT: 30684933  MISS:     0  HIT %:   100  MISS %:     0  AVERAGE MISS PENALTY: 0
ITLB LOAD      ACCESS: 30684933  HIT: 30684933  MISS:     0  HIT %:   100  MISS %:     0  AVERAGE MISS PENALTY: 0
ITLB RFO       ACCESS:     0  HIT:     0  MISS:     0  HIT %:     0  MISS %:     0  AVERAGE MISS PENALTY: 0
ITLB PREFETCH  ACCESS:     0  HIT:     0  MISS:     0  HIT %:     0  MISS %:     0  AVERAGE MISS PENALTY: 0
ITLB WRITEBACK ACCESS:     0  HIT:     0  MISS:     0  HIT %:     0  MISS %:     0  AVERAGE MISS PENALTY: 0
ITLB PREFETCH  REQUESTED:     0  ISSUED:     0  USEFUL:     0  USELESS:     0
 USEFUL LOAD PREFETCHES:          0 PREFETCH ISSUED TO LOWER LEVEL:          0  ACCURACY: -nan
 TIMELY PREFETCHES:          0 LATE PREFETCHES: 0 DROPPED PREFETCHES: 0
ITLB AVERAGE MISS LATENCY: -nan cycles

ITLB Set Associative Eviction Count : 0
ITLB Priority 0 entries : 0
ITLB Inter-Core Interference : 0
DTLB TOTAL     ACCESS: 49194975  HIT: 38376938  MISS: 10818037  HIT %: 78.0099  MISS %: 21.9901  AVERAGE MISS PENALTY: 9.45757
DTLB LOAD      ACCESS: 49140197  HIT: 38322160  MISS: 10818037  HIT %: 77.9854  MISS %: 22.0146  AVERAGE MISS PENALTY: 9.45757
DTLB RFO       ACCESS: 54778  HIT: 54778  MISS:     0  HIT %:   100  MISS %:     0  AVERAGE MISS PENALTY: 0
DTLB PREFETCH  ACCESS:     0  HIT:     0  MISS:     0  HIT %:     0  MISS %:     0  AVERAGE MISS PENALTY: 0
DTLB WRITEBACK ACCESS:     0  HIT:     0  MISS:     0  HIT %:     0  MISS %:     0  AVERAGE MISS PENALTY: 0
DTLB PREFETCH  REQUESTED:     0  ISSUED:     0  USEFUL:     0  USELESS:     0
 USEFUL LOAD PREFETCHES:          0 PREFETCH ISSUED TO LOWER LEVEL:          0  ACCURACY: -nan
 TIMELY PREFETCHES:          0 LATE PREFETCHES: 0 DROPPED PREFETCHES: 0
DTLB AVERAGE MISS LATENCY: 9.45757 cycles

DTLB Set Associative Eviction Count : 0
DTLB Priority 0 entries : 0
DTLB Inter-Core Interference : 0
STLB TOTAL     ACCESS: 10818037  HIT: 10801678  MISS: 16359  HIT %: 99.8488  MISS %: 0.15122  AVERAGE MISS PENALTY: 100
STLB LOAD      ACCESS: 10818037  HIT: 10801678  MISS: 16359  HIT %: 99.8488  MISS %: 0.15122  AVERAGE MISS PENALTY: 100
STLB RFO       ACCESS:     0  HIT:     0  MISS:     0  HIT %:     0  MISS %:     0  AVERAGE MISS PENALTY: 0
STLB PREFETCH  ACCESS:     0  HIT:     0  MISS:     0  HIT %:     0  MISS %:     0  AVERAGE MISS PENALTY: 0
STLB WRITEBACK ACCESS:     0  HIT:     0  MISS:     0  HIT %:     0  MISS %:     0  AVERAGE MISS PENALTY: 0
STLB PREFETCH  REQUESTED:     0  ISSUED:     0  USEFUL:     0  USELESS:     0
 USEFUL LOAD PREFETCHES:          0 PREFETCH ISSUED TO LOWER LEVEL:          0  ACCURACY: -nan
 TIMELY PREFETCHES:          0 LATE PREFETCHES: 0 DROPPED PREFETCHES: 0
STLB AVERAGE MISS LATENCY: 100 cycles

STLB Set Associative Eviction Count : 0
STLB Priority 0 entries : 0
STLB Inter-Core Interference : 0
L1D TOTAL     ACCESS: 95770480  HIT: 34195863  MISS: 61574617  HIT %: 35.7061  MISS %: 64.2939  AVERAGE MISS PENALTY: 5.44292e+06
L1D LOAD      ACCESS: 45832367  HIT: 29693370  MISS: 16138997  HIT %: 64.7869  MISS %: 35.2131  AVERAGE MISS PENALTY: 2.07651e+07
L1D RFO       ACCESS: 54782  HIT: 54782  MISS:     0  HIT %:   100  MISS %:     0  AVERAGE MISS PENALTY: 0
L1D PREFETCH  ACCESS: 49883331  HIT: 4447711  MISS: 45435620  HIT %: 8.91623  MISS %: 91.0838  AVERAGE MISS PENALTY: 399.338
L1D WRITEBACK ACCESS:     0  HIT:     0  MISS:     0  HIT %:     0  MISS %:     0  AVERAGE MISS PENALTY: 0
L1D PREFETCH  REQUESTED: 63819874  ISSUED: 51144188  USEFUL: 1528674  USELESS: 43906960
 USEFUL LOAD PREFETCHES:    1528674 PREFETCH ISSUED TO LOWER LEVEL:  388813340  ACCURACY: 0.393164
 TIMELY PREFETCHES:    1528674 LATE PREFETCHES: 468801 DROPPED PREFETCHES: 12675686
L1D AVERAGE MISS LATENCY: 314.908 cycles

L1D Set Associative Eviction Count : 0
L1D Priority 0 entries : 0
L1D Inter-Core Interference : 0
L1I TOTAL     ACCESS: 44605732  HIT: 44605732  MISS:     0  HIT %:   100  MISS %:     0  AVERAGE MISS PENALTY: 0
L1I LOAD      ACCESS: 44605732  HIT: 44605732  MISS:     0  HIT %:   100  MISS %:     0  AVERAGE MISS PENALTY: 0
L1I RFO       ACCESS:     0  HIT:     0  MISS:     0  HIT %:     0  MISS %:     0  AVERAGE MISS PENALTY: 0
L1I PREFETCH  ACCESS:     0  HIT:     0  MISS:     0  HIT %:     0  MISS %:     0  AVERAGE MISS PENALTY: 0
L1I WRITEBACK ACCESS:     0  HIT:     0  MISS:     0  HIT %:     0  MISS %:     0  AVERAGE MISS PENALTY: 0
L1I PREFETCH  REQUESTED:     0  ISSUED:     0  USEFUL:     0  USELESS:     0
 USEFUL LOAD PREFETCHES:          0 PREFETCH ISSUED TO LOWER LEVEL:          0  ACCURACY: -nan
 TIMELY PREFETCHES:          0 LATE PREFETCHES: 0 DROPPED PREFETCHES: 0
L1I AVERAGE MISS LATENCY: -nan cycles

L1I Set Associative Eviction Count : 0
L1I Priority 0 entries : 0
L1I Inter-Core Interference : 0
L2C TOTAL     ACCESS: 95175556  HIT: 5301802  MISS: 89873754  HIT %: 5.57055  MISS %: 94.4294  AVERAGE MISS PENALTY: 4.41821e+06
L2C LOAD      ACCESS: 16134219  HIT: 297132  MISS: 15837087  HIT %: 1.84163  MISS %: 98.1584  AVERAGE MISS PENALTY: 2.50713e+07
L2C RFO       ACCESS:     0  HIT:     0  MISS:     0  HIT %:     0  MISS %:     0  AVERAGE MISS PENALTY: 0
L2C PREFETCH  ACCESS: 78994561  HIT: 4991197  MISS: 74003364  HIT %: 6.31841  MISS %: 93.6816  AVERAGE MISS PENALTY: 338.454
L2C WRITEBACK ACCESS: 46776  HIT: 13473  MISS: 33303  HIT %: 28.8032  MISS %: 71.1968  AVERAGE MISS PENALTY: 0
L2C PREFETCH  REQUESTED: 107960716  ISSUED: 107547178  USEFUL: 255066  USELESS: 73748218
 USEFUL LOAD PREFETCHES:     255066 PREFETCH ISSUED TO LOWER LEVEL:   84798508  ACCURACY: 0.300791
 TIMELY PREFETCHES:     255066 LATE PREFETCHES: 786204 DROPPED PREFETCHES: 413538
L2C AVERAGE MISS LATENCY: 322.256 cycles

L2C Set Associative Eviction Count : 0
L2C Priority 0 entries : 0
L2C Inter-Core Interference : 0
LLC0 TOTAL     ACCESS: 11483445  HIT: 5484503  MISS: 5998942  HIT %: 47.7601  MISS %: 52.2399  AVERAGE MISS PENALTY: 596.842
LLC0 LOAD      ACCESS: 1985273  HIT: 1037120  MISS: 948153  HIT %: 52.2407  MISS %: 47.7593  AVERAGE MISS PENALTY: 588.906
LLC0 RFO       ACCESS:     0  HIT:     0  MISS:     0  HIT %:     0  MISS %:     0  AVERAGE MISS PENALTY: 0
LLC0 PREFETCH  ACCESS: 9492373  HIT: 4443788  MISS: 5048585  HIT %: 46.8143  MISS %: 53.1857  AVERAGE MISS PENALTY: 598.593
LLC0 WRITEBACK ACCESS:  5799  HIT:  3595  MISS:  2204  HIT %: 61.9934  MISS %: 38.0066  AVERAGE MISS PENALTY: 0
LLC0 PREFETCH  REQUESTED:     0  ISSUED:     0  USEFUL: 2418700  USELESS: 9591092
 USEFUL LOAD PREFETCHES:    2418700 PREFETCH ISSUED TO LOWER LEVEL:   59597762  ACCURACY: 4.05837
 TIMELY PREFETCHES:    2418700 LATE PREFETCHES: 0 DROPPED PREFETCHES: 0
LLC0 AVERAGE MISS LATENCY: 596.842 cycles

LLC0 Set Associative Eviction Count : 0
LLC0 Priority 0 entries : 12288
LLC0 Inter-Core Interference : 12627708
LLC1 TOTAL     ACCESS: 11644856  HIT: 5552810  MISS: 6092046  HIT %: 47.6847  MISS %: 52.3153  AVERAGE MISS PENALTY: 587.188
LLC1 LOAD      ACCESS: 1922925  HIT: 1015389  MISS: 907536  HIT %: 52.8044  MISS %: 47.1956  AVERAGE MISS PENALTY: 580.413
LLC1 RFO       ACCESS:     0  HIT:     0  MISS:     0  HIT %:     0  MISS %:     0  AVERAGE MISS PENALTY: 0
LLC1 PREFETCH  ACCESS: 9716088  HIT: 4533709  MISS: 5182379  HIT %: 46.6619  MISS %: 53.3381  AVERAGE MISS PENALTY: 588.616
LLC1 WRITEBACK ACCESS:  5843  HIT:  3712  MISS:  2131  HIT %: 63.529  MISS %: 36.471  AVERAGE MISS PENALTY: 0
LLC1 PREFETCH  REQUESTED:     0  ISSUED:     0  USEFUL: 2431134  USELESS: 9829754
 USEFUL LOAD PREFETCHES:    2431134 PREFETCH ISSUED TO LOWER LEVEL:   54454339  ACCURACY: 4.46454
 TIMELY PREFETCHES:    2431134 LATE PREFETCHES: 0 DROPPED PREFETCHES: 0
LLC1 AVERAGE MISS LATENCY: 587.188 cycles

LLC1 Set Associative Eviction Count : 0
LLC1 Priority 0 entries : 12288
LLC1 Inter-Core Interference : 12773361
LLC2 TOTAL     ACCESS: 11648368  HIT: 5584139  MISS: 6064229  HIT %: 47.9392  MISS %: 52.0608  AVERAGE MISS PENALTY: 588.802
LLC2 LOAD      ACCESS: 2000790  HIT: 1073002  MISS: 927788  HIT %: 53.6289  MISS %: 46.3711  AVERAGE MISS PENALTY: 591.58
LLC2 RFO       ACCESS:     0  HIT:     0  MISS:     0  HIT %:     0  MISS %:     0  AVERAGE MISS PENALTY: 0
LLC2 PREFETCH  ACCESS: 9641742  HIT: 4507437  MISS: 5134305  HIT %: 46.7492  MISS %: 53.2508  AVERAGE MISS PENALTY: 588.545
LLC2 WRITEBACK ACCESS:  5836  HIT:  3700  MISS:  2136  HIT %: 63.3996  MISS %: 36.6004  AVERAGE MISS PENALTY: 0
LLC2 PREFETCH  REQUESTED:     0  ISSUED:     0  USEFUL: 2412350  USELESS: 9703769
 USEFUL LOAD PREFETCHES:    2412350 PREFETCH ISSUED TO LOWER LEVEL:   75086366  ACCURACY: 3.21277
 TIMELY PREFETCHES:    2412350 LATE PREFETCHES: 0 DROPPED PREFETCHES: 0
LLC2 AVERAGE MISS LATENCY: 588.802 cycles

LLC2 Set Associative Eviction Count : 0
LLC2 Priority 0 entries : 12288
LLC2 Inter-Core Interference : 12729967
LLC3 TOTAL     ACCESS: 11321925  HIT: 5415505  MISS: 5906420  HIT %: 47.832  MISS %: 52.168  AVERAGE MISS PENALTY: 579.365
LLC3 LOAD      ACCESS: 1854758  HIT: 950228  MISS: 904530  HIT %: 51.2319  MISS %: 48.7681  AVERAGE MISS PENALTY: 579.266
LLC3 RFO       ACCESS:     0  HIT:     0  MISS:     0  HIT %:     0  MISS %:     0  AVERAGE MISS PENALTY: 0
LLC3 PREFETCH  ACCESS: 9461279  HIT: 4461500  MISS: 4999779  HIT %: 47.1554  MISS %: 52.8446  AVERAGE MISS PENALTY: 579.627
LLC3 WRITEBACK ACCESS:  5888  HIT:  3777  MISS:  2111  HIT %: 64.1474  MISS %: 35.8526  AVERAGE MISS PENALTY: 0
LLC3 PREFETCH  REQUESTED:     0  ISSUED:     0  USEFUL: 2400022  USELESS: 9455718
 USEFUL LOAD PREFETCHES:    2400022 PREFETCH ISSUED TO LOWER LEVEL:   62343153  ACCURACY: 3.8497
 TIMELY PREFETCHES:    2400022 LATE PREFETCHES: 0 DROPPED PREFETCHES: 0
LLC3 AVERAGE MISS LATENCY: 579.364 cycles

LLC3 Set Associative Eviction Count : 0
LLC3 Priority 0 entries : 12288
LLC3 Inter-Core Interference : 12411110
LLC4 TOTAL     ACCESS: 11232956  HIT: 5405275  MISS: 5827681  HIT %: 48.1198  MISS %: 51.8802  AVERAGE MISS PENALTY: 521.464
LLC4 LOAD      ACCESS: 1987546  HIT: 1069545  MISS: 918001  HIT %: 53.8123  MISS %: 46.1877  AVERAGE MISS PENALTY: 510.572
LLC4 RFO       ACCESS:     0  HIT:     0  MISS:     0  HIT %:     0  MISS %:     0  AVERAGE MISS PENALTY: 0
LLC4 PREFETCH  ACCESS: 9239505  HIT: 4331938  MISS: 4907567  HIT %: 46.885  MISS %: 53.115  AVERAGE MISS PENALTY: 523.726
LLC4 WRITEBACK ACCESS:  5905  HIT:  3792  MISS:  2113  HIT %: 64.2168  MISS %: 35.7832  AVERAGE MISS PENALTY: 0
LLC4 PREFETCH  REQUESTED:     0  ISSUED:     0  USEFUL: 2357904  USELESS: 9301752
 USEFUL LOAD PREFETCHES:    2357904 PREFETCH ISSUED TO LOWER LEVEL:   93010016  ACCURACY: 2.53511
 TIMELY PREFETCHES:    2357904 LATE PREFETCHES: 0 DROPPED PREFETCHES: 0
LLC4 AVERAGE MISS LATENCY: 521.464 cycles

LLC4 Set Associative Eviction Count : 0
LLC4 Priority 0 entries : 12288
LLC4 Inter-Core Interference : 12315642
LLC5 TOTAL     ACCESS: 11058557  HIT: 5338726  MISS: 5719831  HIT %: 48.2769  MISS %: 51.7231  AVERAGE MISS PENALTY: 498.66
LLC5 LOAD      ACCESS: 2000865  HIT: 1075483  MISS: 925382  HIT %: 53.7509  MISS %: 46.2491  AVERAGE MISS PENALTY: 484.978
LLC5 RFO       ACCESS:     0  HIT:     0  MISS:     0  HIT %:     0  MISS %:     0  AVERAGE MISS PENALTY: 0
LLC5 PREFETCH  ACCESS: 9051809  HIT: 4259482  MISS: 4792327  HIT %: 47.0567  MISS %: 52.9433  AVERAGE MISS PENALTY: 501.523
LLC5 WRITEBACK ACCESS:  5883  HIT:  3761  MISS:  2122  HIT %: 63.93  MISS %: 36.07  AVERAGE MISS PENALTY: 0
LLC5 PREFETCH  REQUESTED:     0  ISSUED:     0  USEFUL: 2341718  USELESS: 9100741
 USEFUL LOAD PREFETCHES:    2341718 PREFETCH ISSUED TO LOWER LEVEL:   73554604  ACCURACY: 3.18365
 TIMELY PREFETCHES:    2341718 LATE PREFETCHES: 0 DROPPED PREFETCHES: 0
LLC5 AVERAGE MISS LATENCY: 498.66 cycles

LLC5 Set Associative Eviction Count : 0
LLC5 Priority 0 entries : 12288
LLC5 Inter-Core Interference : 12145823
LLC6 TOTAL     ACCESS: 10826328  HIT: 5273094  MISS: 5553234  HIT %: 48.7062  MISS %: 51.2938  AVERAGE MISS PENALTY: 516.062
LLC6 LOAD      ACCESS: 1883639  HIT: 974250  MISS: 909389  HIT %: 51.7217  MISS %: 48.2783  AVERAGE MISS PENALTY: 507.148
LLC6 RFO       ACCESS:     0  HIT:     0  MISS:     0  HIT %:     0  MISS %:     0  AVERAGE MISS PENALTY: 0
LLC6 PREFETCH  ACCESS: 8936835  HIT: 4295033  MISS: 4641802  HIT %: 48.0599  MISS %: 51.9401  AVERAGE MISS PENALTY: 518.035
LLC6 WRITEBACK ACCESS:  5854  HIT:  3811  MISS:  2043  HIT %: 65.1008  MISS %: 34.8992  AVERAGE MISS PENALTY: 0
LLC6 PREFETCH  REQUESTED:     0  ISSUED:     0  USEFUL: 2329163  USELESS: 8983378
 USEFUL LOAD PREFETCHES:    2329163 PREFETCH ISSUED TO LOWER LEVEL:  116958756  ACCURACY: 1.99144
 TIMELY PREFETCHES:    2329163 LATE PREFETCHES: 0 DROPPED PREFETCHES: 0
LLC6 AVERAGE MISS LATENCY: 516.062 cycles

LLC6 Set Associative Eviction Count : 0
LLC6 Priority 0 entries : 12288
LLC6 Inter-Core Interference : 11962153
LLC7 TOTAL     ACCESS: 10670791  HIT: 5291384  MISS: 5379407  HIT %: 49.5876  MISS %: 50.4124  AVERAGE MISS PENALTY: 540.545
LLC7 LOAD      ACCESS: 2003224  HIT: 1069703  MISS: 933521  HIT %: 53.3991  MISS %: 46.6009  AVERAGE MISS PENALTY: 480.019
LLC7 RFO       ACCESS:     0  HIT:     0  MISS:     0  HIT %:     0  MISS %:     0  AVERAGE MISS PENALTY: 0
LLC7 PREFETCH  ACCESS: 8661800  HIT: 4218009  MISS: 4443791  HIT %: 48.6967  MISS %: 51.3033  AVERAGE MISS PENALTY: 553.515
LLC7 WRITEBACK ACCESS:  5767  HIT:  3672  MISS:  2095  HIT %: 63.6726  MISS %: 36.3274  AVERAGE MISS PENALTY: 0
LLC7 PREFETCH  REQUESTED:     0  ISSUED:     0  USEFUL: 2337962  USELESS: 8770364
 USEFUL LOAD PREFETCHES:    2337962 PREFETCH ISSUED TO LOWER LEVEL:   86962302  ACCURACY: 2.68848
 TIMELY PREFETCHES:    2337962 LATE PREFETCHES: 0 DROPPED PREFETCHES: 0
LLC7 AVERAGE MISS LATENCY: 495.417 cycles

LLC7 Set Associative Eviction Count : 0
LLC7 Priority 0 entries : 12288
LLC7 Inter-Core Interference : 11891662
ROI Average ROB Stall Cycles:	32.8451
ROI Total ROB Stalls Cycles:	3114966475
ROI TOTAL ROB counter      :	94837950
ROI Average Load ROB Stall Cycles:	210.332
ROI Total Load ROB Stalls Cycle  :	1992045160
ROI Total Load ROB stalls Counter:	9470959
Major fault: 0 Minor fault: 33142








Interconnect Stats 
LINK 0 BW : 0LINK 1 BW : 0LINK 2 BW : 0LINK 3 BW : 0LINK 4 BW : 0LINK 5 BW : 0LINK 6 BW : 0LINK 7 BW : 0
DRAM Statistics
 CHANNEL 0
 RQ ROW_BUFFER_HIT: 61547318  ROW_BUFFER_MISS: 126208359
 DBUS_CONGESTED: 86894634
 WQ ROW_BUFFER_HIT: 30166  ROW_BUFFER_MISS: 156932  FULL:     0

 CHANNEL 1
 RQ ROW_BUFFER_HIT: 59966586  ROW_BUFFER_MISS: 124954109
 DBUS_CONGESTED: 86894634
 WQ ROW_BUFFER_HIT: 30034  ROW_BUFFER_MISS: 156807  FULL:     0

 AVG_CONGESTED_CYCLE: 4
DRAM PAGES: 2097152
Allocated PAGES: 265150
L2C destructor called
L1D destructor called
L1I destructor called
STLB destructor called
DTLB destructor called
ITLB destructor called
L2C destructor called
L1D destructor called
L1I destructor called
STLB destructor called
DTLB destructor called
ITLB destructor called
L2C destructor called
L1D destructor called
L1I destructor called
STLB destructor called
DTLB destructor called
ITLB destructor called
L2C destructor called
L1D destructor called
L1I destructor called
STLB destructor called
DTLB destructor called
ITLB destructor called
L2C destructor called
L1D destructor called
L1I destructor called
STLB destructor called
DTLB destructor called
ITLB destructor called
L2C destructor called
L1D destructor called
L1I destructor called
STLB destructor called
DTLB destructor called
ITLB destructor called
L2C destructor called
L1D destructor called
L1I destructor called
STLB destructor called
DTLB destructor called
ITLB destructor called
L2C destructor called
L1D destructor called
L1I destructor called
STLB destructor called
DTLB destructor called
ITLB destructor called
