
*** ChampSim Multicore Out-of-Order Simulator ***

Warmup Instructions: 200000000
Simulation Instructions: 200000000
Number of CPUs: 8
threads:1

L1I Configuration:
L1I_SET:64
L1I_WAY:8
L1I_RQ_SIZE:64
L1I_WQ_SIZE:64
L1I_PQ_SIZE:8
L1I_MSHR_SIZE:8

L1D Configuration:
L1D_SET:64
L1D_WAY:12
L1D_RQ_SIZE:64
L1D_WQ_SIZE:64
L1D_PQ_SIZE:8
L1D_MSHR_SIZE:16

L2C Configuration:
L2C_SET:1024
L2C_WAY:8
L2C_RQ_SIZE:32
L2C_WQ_SIZE:32
L2C_PQ_SIZE:16
L2C_MSHR_SIZE:32

LLC Configuration:
LLC_SET:2048
LLC_WAY:12
LLC SLICES:8
LLC_RQ_SIZE:64
LLC_WQ_SIZE:64
LLC_PQ_SIZE:32
LLC_MSHR_SIZE:64

Interconnect OFF
Attacker deprioritize is: OFF
Off-chip DRAM Size: 8192 MB Channels: 2 Width: 64-bit Data Rate: 3200 MT/s
PAGE SIZE in KB: 4.000000 
PAGE SIZE in MB: 0.003906 
PAGE offset in bits: 12 
CEASER-S_LLC:0
MIRAGE : 1
CEASER_LATENCY:3
REMAP : OFF
Partitions : 1
Multi-Step : OFF
BFS : OFF

CPU 0 runs /home/anubhav/gap/pr-3.trace.gz
CPU 1 runs /home/anubhav/gap/pr-3.trace.gz
CPU 2 runs /home/anubhav/gap/pr-3.trace.gz
CPU 3 runs /home/anubhav/gap/pr-3.trace.gz
CPU 4 runs /home/anubhav/gap/pr-3.trace.gz
CPU 5 runs /home/anubhav/gap/pr-3.trace.gz
CPU 6 runs /home/anubhav/gap/pr-3.trace.gz
CPU 7 runs /home/anubhav/gap/pr-3.trace.gz
CPU 0 Bimodal branch predictor
Initialize Hawkeye state
Initialize Hawkeye state
Initialize Hawkeye state
Initialize Hawkeye state
Initialize Hawkeye state
Initialize Hawkeye state
Initialize Hawkeye state
Initialize Hawkeye state
CPU 1 Bimodal branch predictor
Initialize Hawkeye state
Initialize Hawkeye state
Initialize Hawkeye state
Initialize Hawkeye state
Initialize Hawkeye state
Initialize Hawkeye state
Initialize Hawkeye state
Initialize Hawkeye state
CPU 2 Bimodal branch predictor
Initialize Hawkeye state
Initialize Hawkeye state
Initialize Hawkeye state
Initialize Hawkeye state
Initialize Hawkeye state
Initialize Hawkeye state
Initialize Hawkeye state
Initialize Hawkeye state
CPU 3 Bimodal branch predictor
Initialize Hawkeye state
Initialize Hawkeye state
Initialize Hawkeye state
Initialize Hawkeye state
Initialize Hawkeye state
Initialize Hawkeye state
Initialize Hawkeye state
Initialize Hawkeye state
CPU 4 Bimodal branch predictor
Initialize Hawkeye state
Initialize Hawkeye state
Initialize Hawkeye state
Initialize Hawkeye state
Initialize Hawkeye state
Initialize Hawkeye state
Initialize Hawkeye state
Initialize Hawkeye state
CPU 5 Bimodal branch predictor
Initialize Hawkeye state
Initialize Hawkeye state
Initialize Hawkeye state
Initialize Hawkeye state
Initialize Hawkeye state
Initialize Hawkeye state
Initialize Hawkeye state
Initialize Hawkeye state
CPU 6 Bimodal branch predictor
Initialize Hawkeye state
Initialize Hawkeye state
Initialize Hawkeye state
Initialize Hawkeye state
Initialize Hawkeye state
Initialize Hawkeye state
Initialize Hawkeye state
Initialize Hawkeye state
CPU 7 Bimodal branch predictor
Initialize Hawkeye state
Initialize Hawkeye state
Initialize Hawkeye state
Initialize Hawkeye state
Initialize Hawkeye state
Initialize Hawkeye state
Initialize Hawkeye state
Initialize Hawkeye state
FILL
Heartbeat CPU 0 instructions: 10000001 cycles: 3641900 heartbeat IPC: 2.74582 cumulative IPC: 2.74582 (Simulation time: 0 hr 50 min 1 sec) 
 Total Blocks : 196608 Invalid Blocks : 19673 Valid Blocks : 176935
 Total Tags : 491520 Threshold : 12288 Invalid Tags : 216287 Pr0 Tags : 98298 Pr1 Tags : 176935 num_pr0 : 12288
 SAE Count : 0
 Inter-Core Inteference in Data Store : 240709
Heartbeat CPU 1 instructions: 10000001 cycles: 3641903 heartbeat IPC: 2.74582 cumulative IPC: 2.74582 (Simulation time: 0 hr 50 min 1 sec) 
 Total Blocks : 196608 Invalid Blocks : 19673 Valid Blocks : 176935
 Total Tags : 491520 Threshold : 12288 Invalid Tags : 216287 Pr0 Tags : 98298 Pr1 Tags : 176935 num_pr0 : 12288
 SAE Count : 0
 Inter-Core Inteference in Data Store : 240709
Heartbeat CPU 2 instructions: 10000001 cycles: 3641907 heartbeat IPC: 2.74581 cumulative IPC: 2.74581 (Simulation time: 0 hr 50 min 1 sec) 
 Total Blocks : 196608 Invalid Blocks : 19673 Valid Blocks : 176935
 Total Tags : 491520 Threshold : 12288 Invalid Tags : 216287 Pr0 Tags : 98298 Pr1 Tags : 176935 num_pr0 : 12288
 SAE Count : 0
 Inter-Core Inteference in Data Store : 240709
Heartbeat CPU 3 instructions: 10000001 cycles: 3641910 heartbeat IPC: 2.74581 cumulative IPC: 2.74581 (Simulation time: 0 hr 50 min 1 sec) 
 Total Blocks : 196608 Invalid Blocks : 19673 Valid Blocks : 176935
 Total Tags : 491520 Threshold : 12288 Invalid Tags : 216287 Pr0 Tags : 98298 Pr1 Tags : 176935 num_pr0 : 12288
 SAE Count : 0
 Inter-Core Inteference in Data Store : 240710
Heartbeat CPU 5 instructions: 10000001 cycles: 3641914 heartbeat IPC: 2.74581 cumulative IPC: 2.74581 (Simulation time: 0 hr 50 min 1 sec) 
 Total Blocks : 196608 Invalid Blocks : 19672 Valid Blocks : 176936
 Total Tags : 491520 Threshold : 12288 Invalid Tags : 216287 Pr0 Tags : 98297 Pr1 Tags : 176936 num_pr0 : 12288
 SAE Count : 0
 Inter-Core Inteference in Data Store : 240710
Heartbeat CPU 6 instructions: 10000001 cycles: 3641917 heartbeat IPC: 2.74581 cumulative IPC: 2.74581 (Simulation time: 0 hr 50 min 1 sec) 
 Total Blocks : 196608 Invalid Blocks : 19672 Valid Blocks : 176936
 Total Tags : 491520 Threshold : 12288 Invalid Tags : 216287 Pr0 Tags : 98297 Pr1 Tags : 176936 num_pr0 : 12288
 SAE Count : 0
 Inter-Core Inteference in Data Store : 240711
Heartbeat CPU 7 instructions: 10000001 cycles: 3641918 heartbeat IPC: 2.74581 cumulative IPC: 2.74581 (Simulation time: 0 hr 50 min 1 sec) 
 Total Blocks : 196608 Invalid Blocks : 19672 Valid Blocks : 176936
 Total Tags : 491520 Threshold : 12288 Invalid Tags : 216288 Pr0 Tags : 98296 Pr1 Tags : 176936 num_pr0 : 12288
 SAE Count : 0
 Inter-Core Inteference in Data Store : 240712
Heartbeat CPU 4 instructions: 10000001 cycles: 3641919 heartbeat IPC: 2.74581 cumulative IPC: 2.74581 (Simulation time: 0 hr 50 min 1 sec) 
 Total Blocks : 196608 Invalid Blocks : 19672 Valid Blocks : 176936
 Total Tags : 491520 Threshold : 12288 Invalid Tags : 216288 Pr0 Tags : 98296 Pr1 Tags : 176936 num_pr0 : 12288
 SAE Count : 0
 Inter-Core Inteference in Data Store : 240712
Heartbeat CPU 0 instructions: 20000001 cycles: 12958027 heartbeat IPC: 1.07341 cumulative IPC: 1.54344 (Simulation time: 1 hr 50 min 44 sec) 
 Total Blocks : 196608 Invalid Blocks : 12 Valid Blocks : 196596
 Total Tags : 491520 Threshold : 12288 Invalid Tags : 196620 Pr0 Tags : 98304 Pr1 Tags : 196596 num_pr0 : 12288
 SAE Count : 0
 Inter-Core Inteference in Data Store : 1524377
Heartbeat CPU 1 instructions: 20000001 cycles: 12961574 heartbeat IPC: 1.073 cumulative IPC: 1.54302 (Simulation time: 1 hr 50 min 45 sec) 
 Total Blocks : 196608 Invalid Blocks : 12 Valid Blocks : 196596
 Total Tags : 491520 Threshold : 12288 Invalid Tags : 196620 Pr0 Tags : 98304 Pr1 Tags : 196596 num_pr0 : 12288
 SAE Count : 0
 Inter-Core Inteference in Data Store : 1524865
Heartbeat CPU 2 instructions: 20000001 cycles: 12964780 heartbeat IPC: 1.07263 cumulative IPC: 1.54264 (Simulation time: 1 hr 50 min 46 sec) 
 Total Blocks : 196608 Invalid Blocks : 12 Valid Blocks : 196596
 Total Tags : 491520 Threshold : 12288 Invalid Tags : 196620 Pr0 Tags : 98304 Pr1 Tags : 196596 num_pr0 : 12288
 SAE Count : 0
 Inter-Core Inteference in Data Store : 1525331
Heartbeat CPU 3 instructions: 20000001 cycles: 12968841 heartbeat IPC: 1.07216 cumulative IPC: 1.54216 (Simulation time: 1 hr 50 min 47 sec) 
 Total Blocks : 196608 Invalid Blocks : 12 Valid Blocks : 196596
 Total Tags : 491520 Threshold : 12288 Invalid Tags : 196620 Pr0 Tags : 98304 Pr1 Tags : 196596 num_pr0 : 12288
 SAE Count : 0
 Inter-Core Inteference in Data Store : 1525924
Heartbeat CPU 4 instructions: 20000001 cycles: 12971049 heartbeat IPC: 1.07191 cumulative IPC: 1.5419 (Simulation time: 1 hr 50 min 48 sec) 
 Total Blocks : 196608 Invalid Blocks : 12 Valid Blocks : 196596
 Total Tags : 491520 Threshold : 12288 Invalid Tags : 196620 Pr0 Tags : 98304 Pr1 Tags : 196596 num_pr0 : 12288
 SAE Count : 0
 Inter-Core Inteference in Data Store : 1526297
Heartbeat CPU 5 instructions: 20000001 cycles: 12974288 heartbeat IPC: 1.07154 cumulative IPC: 1.54151 (Simulation time: 1 hr 50 min 50 sec) 
 Total Blocks : 196608 Invalid Blocks : 12 Valid Blocks : 196596
 Total Tags : 491520 Threshold : 12288 Invalid Tags : 196620 Pr0 Tags : 98304 Pr1 Tags : 196596 num_pr0 : 12288
 SAE Count : 0
 Inter-Core Inteference in Data Store : 1526786
Heartbeat CPU 6 instructions: 20000001 cycles: 12976396 heartbeat IPC: 1.0713 cumulative IPC: 1.54126 (Simulation time: 1 hr 50 min 51 sec) 
 Total Blocks : 196608 Invalid Blocks : 12 Valid Blocks : 196596
 Total Tags : 491520 Threshold : 12288 Invalid Tags : 196620 Pr0 Tags : 98304 Pr1 Tags : 196596 num_pr0 : 12288
 SAE Count : 0
 Inter-Core Inteference in Data Store : 1527136
Heartbeat CPU 7 instructions: 20000001 cycles: 12978489 heartbeat IPC: 1.07106 cumulative IPC: 1.54101 (Simulation time: 1 hr 50 min 52 sec) 
 Total Blocks : 196608 Invalid Blocks : 12 Valid Blocks : 196596
 Total Tags : 491520 Threshold : 12288 Invalid Tags : 196620 Pr0 Tags : 98304 Pr1 Tags : 196596 num_pr0 : 12288
 SAE Count : 0
 Inter-Core Inteference in Data Store : 1527483
Heartbeat CPU 0 instructions: 30000000 cycles: 25003464 heartbeat IPC: 0.83019 cumulative IPC: 1.19983 (Simulation time: 3 hr 53 min 29 sec) 
 Total Blocks : 196608 Invalid Blocks : 0 Valid Blocks : 196608
 Total Tags : 491520 Threshold : 12288 Invalid Tags : 196608 Pr0 Tags : 98304 Pr1 Tags : 196608 num_pr0 : 12288
 SAE Count : 0
 Inter-Core Inteference in Data Store : 12161863
Heartbeat CPU 1 instructions: 30000000 cycles: 25057513 heartbeat IPC: 0.826724 cumulative IPC: 1.19725 (Simulation time: 3 hr 54 min 1 sec) 
 Total Blocks : 196608 Invalid Blocks : 0 Valid Blocks : 196608
 Total Tags : 491520 Threshold : 12288 Invalid Tags : 196608 Pr0 Tags : 98304 Pr1 Tags : 196608 num_pr0 : 12288
 SAE Count : 0
 Inter-Core Inteference in Data Store : 12217891
Heartbeat CPU 2 instructions: 30000000 cycles: 25101076 heartbeat IPC: 0.823975 cumulative IPC: 1.19517 (Simulation time: 3 hr 54 min 31 sec) 
 Total Blocks : 196608 Invalid Blocks : 0 Valid Blocks : 196608
 Total Tags : 491520 Threshold : 12288 Invalid Tags : 196608 Pr0 Tags : 98304 Pr1 Tags : 196608 num_pr0 : 12288
 SAE Count : 0
 Inter-Core Inteference in Data Store : 12263002
Heartbeat CPU 3 instructions: 30000000 cycles: 25144724 heartbeat IPC: 0.821296 cumulative IPC: 1.19309 (Simulation time: 3 hr 54 min 56 sec) 
 Total Blocks : 196608 Invalid Blocks : 0 Valid Blocks : 196608
 Total Tags : 491520 Threshold : 12288 Invalid Tags : 196608 Pr0 Tags : 98304 Pr1 Tags : 196608 num_pr0 : 12288
 SAE Count : 0
 Inter-Core Inteference in Data Store : 12308386
Heartbeat CPU 4 instructions: 30000000 cycles: 25181935 heartbeat IPC: 0.818941 cumulative IPC: 1.19133 (Simulation time: 3 hr 55 min 19 sec) 
 Total Blocks : 196608 Invalid Blocks : 0 Valid Blocks : 196608
 Total Tags : 491520 Threshold : 12288 Invalid Tags : 196608 Pr0 Tags : 98304 Pr1 Tags : 196608 num_pr0 : 12288
 SAE Count : 0
 Inter-Core Inteference in Data Store : 12346951
Heartbeat CPU 5 instructions: 30000000 cycles: 25221900 heartbeat IPC: 0.816486 cumulative IPC: 1.18944 (Simulation time: 3 hr 55 min 47 sec) 
 Total Blocks : 196608 Invalid Blocks : 0 Valid Blocks : 196608
 Total Tags : 491520 Threshold : 12288 Invalid Tags : 196608 Pr0 Tags : 98304 Pr1 Tags : 196608 num_pr0 : 12288
 SAE Count : 0
 Inter-Core Inteference in Data Store : 12388301
Heartbeat CPU 6 instructions: 30000000 cycles: 25255681 heartbeat IPC: 0.81438 cumulative IPC: 1.18785 (Simulation time: 3 hr 56 min 4 sec) 
 Total Blocks : 196608 Invalid Blocks : 0 Valid Blocks : 196608
 Total Tags : 491520 Threshold : 12288 Invalid Tags : 196608 Pr0 Tags : 98304 Pr1 Tags : 196608 num_pr0 : 12288
 SAE Count : 0
 Inter-Core Inteference in Data Store : 12423060
Heartbeat CPU 7 instructions: 30000000 cycles: 25288353 heartbeat IPC: 0.812357 cumulative IPC: 1.18632 (Simulation time: 3 hr 56 min 27 sec) 
 Total Blocks : 196608 Invalid Blocks : 0 Valid Blocks : 196608
 Total Tags : 491520 Threshold : 12288 Invalid Tags : 196608 Pr0 Tags : 98304 Pr1 Tags : 196608 num_pr0 : 12288
 SAE Count : 0
 Inter-Core Inteference in Data Store : 12457167
Heartbeat CPU 0 instructions: 40000000 cycles: 37511663 heartbeat IPC: 0.799476 cumulative IPC: 1.06633 (Simulation time: 6 hr 3 min 7 sec) 
 Total Blocks : 196608 Invalid Blocks : 0 Valid Blocks : 196608
 Total Tags : 491520 Threshold : 12288 Invalid Tags : 196608 Pr0 Tags : 98304 Pr1 Tags : 196608 num_pr0 : 12288
 SAE Count : 0
 Inter-Core Inteference in Data Store : 24676379
Heartbeat CPU 1 instructions: 40000000 cycles: 37623505 heartbeat IPC: 0.795799 cumulative IPC: 1.06317 (Simulation time: 6 hr 4 min 8 sec) 
 Total Blocks : 196608 Invalid Blocks : 0 Valid Blocks : 196608
 Total Tags : 491520 Threshold : 12288 Invalid Tags : 196608 Pr0 Tags : 98304 Pr1 Tags : 196608 num_pr0 : 12288
 SAE Count : 0
 Inter-Core Inteference in Data Store : 24791396
Heartbeat CPU 2 instructions: 40000000 cycles: 37716035 heartbeat IPC: 0.79271 cumulative IPC: 1.06056 (Simulation time: 6 hr 5 min 4 sec) 
 Total Blocks : 196608 Invalid Blocks : 0 Valid Blocks : 196608
 Total Tags : 491520 Threshold : 12288 Invalid Tags : 196608 Pr0 Tags : 98304 Pr1 Tags : 196608 num_pr0 : 12288
 SAE Count : 0
 Inter-Core Inteference in Data Store : 24885807
Heartbeat CPU 3 instructions: 40000000 cycles: 37807163 heartbeat IPC: 0.789737 cumulative IPC: 1.058 (Simulation time: 6 hr 6 min 0 sec) 
 Total Blocks : 196608 Invalid Blocks : 0 Valid Blocks : 196608
 Total Tags : 491520 Threshold : 12288 Invalid Tags : 196608 Pr0 Tags : 98304 Pr1 Tags : 196608 num_pr0 : 12288
 SAE Count : 0
 Inter-Core Inteference in Data Store : 24978877
Heartbeat CPU 4 instructions: 40000000 cycles: 37883915 heartbeat IPC: 0.787279 cumulative IPC: 1.05586 (Simulation time: 6 hr 6 min 51 sec) 
 Total Blocks : 196608 Invalid Blocks : 0 Valid Blocks : 196608
 Total Tags : 491520 Threshold : 12288 Invalid Tags : 196608 Pr0 Tags : 98304 Pr1 Tags : 196608 num_pr0 : 12288
 SAE Count : 0
 Inter-Core Inteference in Data Store : 25053710
Heartbeat CPU 5 instructions: 40000000 cycles: 37969062 heartbeat IPC: 0.784488 cumulative IPC: 1.05349 (Simulation time: 6 hr 7 min 42 sec) 
 Total Blocks : 196608 Invalid Blocks : 0 Valid Blocks : 196608
 Total Tags : 491520 Threshold : 12288 Invalid Tags : 196608 Pr0 Tags : 98304 Pr1 Tags : 196608 num_pr0 : 12288
 SAE Count : 0
 Inter-Core Inteference in Data Store : 25140416
Heartbeat CPU 6 instructions: 40000000 cycles: 38039202 heartbeat IPC: 0.782257 cumulative IPC: 1.05155 (Simulation time: 6 hr 8 min 23 sec) 
 Total Blocks : 196608 Invalid Blocks : 0 Valid Blocks : 196608
 Total Tags : 491520 Threshold : 12288 Invalid Tags : 196608 Pr0 Tags : 98304 Pr1 Tags : 196608 num_pr0 : 12288
 SAE Count : 0
 Inter-Core Inteference in Data Store : 25209439
Heartbeat CPU 7 instructions: 40000000 cycles: 38107639 heartbeat IPC: 0.780075 cumulative IPC: 1.04966 (Simulation time: 6 hr 9 min 4 sec) 
 Total Blocks : 196608 Invalid Blocks : 0 Valid Blocks : 196608
 Total Tags : 491520 Threshold : 12288 Invalid Tags : 196608 Pr0 Tags : 98304 Pr1 Tags : 196608 num_pr0 : 12288
 SAE Count : 0
 Inter-Core Inteference in Data Store : 25276409
Heartbeat CPU 0 instructions: 50000000 cycles: 50053626 heartbeat IPC: 0.797323 cumulative IPC: 0.998929 (Simulation time: 8 hr 9 min 49 sec) 
 Total Blocks : 196608 Invalid Blocks : 0 Valid Blocks : 196608
 Total Tags : 491520 Threshold : 12288 Invalid Tags : 196608 Pr0 Tags : 98304 Pr1 Tags : 196608 num_pr0 : 12288
 SAE Count : 0
 Inter-Core Inteference in Data Store : 37250514
Heartbeat CPU 1 instructions: 50000000 cycles: 50224727 heartbeat IPC: 0.793574 cumulative IPC: 0.995526 (Simulation time: 8 hr 11 min 27 sec) 
 Total Blocks : 196608 Invalid Blocks : 0 Valid Blocks : 196608
 Total Tags : 491520 Threshold : 12288 Invalid Tags : 196608 Pr0 Tags : 98304 Pr1 Tags : 196608 num_pr0 : 12288
 SAE Count : 0
 Inter-Core Inteference in Data Store : 37415187
Heartbeat CPU 2 instructions: 50000000 cycles: 50366944 heartbeat IPC: 0.790457 cumulative IPC: 0.992715 (Simulation time: 8 hr 12 min 47 sec) 
 Total Blocks : 196608 Invalid Blocks : 0 Valid Blocks : 196608
 Total Tags : 491520 Threshold : 12288 Invalid Tags : 196608 Pr0 Tags : 98304 Pr1 Tags : 196608 num_pr0 : 12288
 SAE Count : 0
 Inter-Core Inteference in Data Store : 37552225
Heartbeat CPU 3 instructions: 50000000 cycles: 50504184 heartbeat IPC: 0.787586 cumulative IPC: 0.990017 (Simulation time: 8 hr 14 min 3 sec) 
 Total Blocks : 196608 Invalid Blocks : 0 Valid Blocks : 196608
 Total Tags : 491520 Threshold : 12288 Invalid Tags : 196608 Pr0 Tags : 98304 Pr1 Tags : 196608 num_pr0 : 12288
 SAE Count : 0
 Inter-Core Inteference in Data Store : 37689533
Heartbeat CPU 4 instructions: 50000000 cycles: 50619179 heartbeat IPC: 0.785221 cumulative IPC: 0.987768 (Simulation time: 8 hr 15 min 7 sec) 
 Total Blocks : 196608 Invalid Blocks : 0 Valid Blocks : 196608
 Total Tags : 491520 Threshold : 12288 Invalid Tags : 196608 Pr0 Tags : 98304 Pr1 Tags : 196608 num_pr0 : 12288
 SAE Count : 0
 Inter-Core Inteference in Data Store : 37803106
Heartbeat CPU 5 instructions: 50000000 cycles: 50747805 heartbeat IPC: 0.78255 cumulative IPC: 0.985264 (Simulation time: 8 hr 16 min 27 sec) 
 Total Blocks : 196608 Invalid Blocks : 0 Valid Blocks : 196608
 Total Tags : 491520 Threshold : 12288 Invalid Tags : 196608 Pr0 Tags : 98304 Pr1 Tags : 196608 num_pr0 : 12288
 SAE Count : 0
 Inter-Core Inteference in Data Store : 37924817
Heartbeat CPU 6 instructions: 50000000 cycles: 50854000 heartbeat IPC: 0.780348 cumulative IPC: 0.983207 (Simulation time: 8 hr 17 min 32 sec) 
 Total Blocks : 196608 Invalid Blocks : 0 Valid Blocks : 196608
 Total Tags : 491520 Threshold : 12288 Invalid Tags : 196608 Pr0 Tags : 98304 Pr1 Tags : 196608 num_pr0 : 12288
 SAE Count : 0
 Inter-Core Inteference in Data Store : 38026230
Heartbeat CPU 7 instructions: 50000000 cycles: 50960783 heartbeat IPC: 0.77802 cumulative IPC: 0.981147 (Simulation time: 8 hr 18 min 38 sec) 
 Total Blocks : 196608 Invalid Blocks : 0 Valid Blocks : 196608
 Total Tags : 491520 Threshold : 12288 Invalid Tags : 196608 Pr0 Tags : 98304 Pr1 Tags : 196608 num_pr0 : 12288
 SAE Count : 0
 Inter-Core Inteference in Data Store : 38134030
Heartbeat CPU 0 instructions: 60000002 cycles: 62279191 heartbeat IPC: 0.817958 cumulative IPC: 0.963404 (Simulation time: 10 hr 10 min 38 sec) 
 Total Blocks : 196608 Invalid Blocks : 0 Valid Blocks : 196608
 Total Tags : 491520 Threshold : 12288 Invalid Tags : 196608 Pr0 Tags : 98304 Pr1 Tags : 196608 num_pr0 : 12288
 SAE Count : 0
 Inter-Core Inteference in Data Store : 49232065
Heartbeat CPU 1 instructions: 60000002 cycles: 62506114 heartbeat IPC: 0.81424 cumulative IPC: 0.959906 (Simulation time: 10 hr 13 min 4 sec) 
 Total Blocks : 196608 Invalid Blocks : 0 Valid Blocks : 196608
 Total Tags : 491520 Threshold : 12288 Invalid Tags : 196608 Pr0 Tags : 98304 Pr1 Tags : 196608 num_pr0 : 12288
 SAE Count : 0
 Inter-Core Inteference in Data Store : 49447506
Heartbeat CPU 2 instructions: 60000002 cycles: 62698555 heartbeat IPC: 0.810924 cumulative IPC: 0.95696 (Simulation time: 10 hr 15 min 1 sec) 
 Total Blocks : 196608 Invalid Blocks : 0 Valid Blocks : 196608
 Total Tags : 491520 Threshold : 12288 Invalid Tags : 196608 Pr0 Tags : 98304 Pr1 Tags : 196608 num_pr0 : 12288
 SAE Count : 0
 Inter-Core Inteference in Data Store : 49636410
Heartbeat CPU 3 instructions: 60000002 cycles: 62879299 heartbeat IPC: 0.808073 cumulative IPC: 0.954209 (Simulation time: 10 hr 16 min 48 sec) 
 Total Blocks : 196608 Invalid Blocks : 0 Valid Blocks : 196608
 Total Tags : 491520 Threshold : 12288 Invalid Tags : 196608 Pr0 Tags : 98304 Pr1 Tags : 196608 num_pr0 : 12288
 SAE Count : 0
 Inter-Core Inteference in Data Store : 49820934
Heartbeat CPU 4 instructions: 60000002 cycles: 63032217 heartbeat IPC: 0.805605 cumulative IPC: 0.951894 (Simulation time: 10 hr 18 min 15 sec) 
 Total Blocks : 196608 Invalid Blocks : 0 Valid Blocks : 196608
 Total Tags : 491520 Threshold : 12288 Invalid Tags : 196608 Pr0 Tags : 98304 Pr1 Tags : 196608 num_pr0 : 12288
 SAE Count : 0
 Inter-Core Inteference in Data Store : 49977568
Heartbeat CPU 5 instructions: 60000002 cycles: 63201480 heartbeat IPC: 0.802976 cumulative IPC: 0.949345 (Simulation time: 10 hr 19 min 50 sec) 
 Total Blocks : 196608 Invalid Blocks : 0 Valid Blocks : 196608
 Total Tags : 491520 Threshold : 12288 Invalid Tags : 196608 Pr0 Tags : 98304 Pr1 Tags : 196608 num_pr0 : 12288
 SAE Count : 0
 Inter-Core Inteference in Data Store : 50149465
Heartbeat CPU 6 instructions: 60000002 cycles: 63343098 heartbeat IPC: 0.800699 cumulative IPC: 0.947222 (Simulation time: 10 hr 21 min 7 sec) 
 Total Blocks : 196608 Invalid Blocks : 0 Valid Blocks : 196608
 Total Tags : 491520 Threshold : 12288 Invalid Tags : 196608 Pr0 Tags : 98304 Pr1 Tags : 196608 num_pr0 : 12288
 SAE Count : 0
 Inter-Core Inteference in Data Store : 50291650
Heartbeat CPU 7 instructions: 60000002 cycles: 63488530 heartbeat IPC: 0.798228 cumulative IPC: 0.945053 (Simulation time: 10 hr 22 min 43 sec) 
 Total Blocks : 196608 Invalid Blocks : 0 Valid Blocks : 196608
 Total Tags : 491520 Threshold : 12288 Invalid Tags : 196608 Pr0 Tags : 98304 Pr1 Tags : 196608 num_pr0 : 12288
 SAE Count : 0
 Inter-Core Inteference in Data Store : 50438175
Heartbeat CPU 0 instructions: 70000000 cycles: 74699951 heartbeat IPC: 0.805104 cumulative IPC: 0.937082 (Simulation time: 12 hr 19 min 55 sec) 
 Total Blocks : 196608 Invalid Blocks : 0 Valid Blocks : 196608
 Total Tags : 491520 Threshold : 12288 Invalid Tags : 196608 Pr0 Tags : 98304 Pr1 Tags : 196608 num_pr0 : 12288
 SAE Count : 0
 Inter-Core Inteference in Data Store : 61601797
Heartbeat CPU 1 instructions: 70000000 cycles: 74988758 heartbeat IPC: 0.801112 cumulative IPC: 0.933473 (Simulation time: 12 hr 22 min 59 sec) 
 Total Blocks : 196608 Invalid Blocks : 0 Valid Blocks : 196608
 Total Tags : 491520 Threshold : 12288 Invalid Tags : 196608 Pr0 Tags : 98304 Pr1 Tags : 196608 num_pr0 : 12288
 SAE Count : 0
 Inter-Core Inteference in Data Store : 61879774
Heartbeat CPU 2 instructions: 70000000 cycles: 75228899 heartbeat IPC: 0.798063 cumulative IPC: 0.930493 (Simulation time: 12 hr 25 min 34 sec) 
 Total Blocks : 196608 Invalid Blocks : 0 Valid Blocks : 196608
 Total Tags : 491520 Threshold : 12288 Invalid Tags : 196608 Pr0 Tags : 98304 Pr1 Tags : 196608 num_pr0 : 12288
 SAE Count : 0
 Inter-Core Inteference in Data Store : 62109108
Heartbeat CPU 3 instructions: 70000000 cycles: 75454039 heartbeat IPC: 0.795245 cumulative IPC: 0.927717 (Simulation time: 12 hr 28 min 2 sec) 
 Total Blocks : 196608 Invalid Blocks : 0 Valid Blocks : 196608
 Total Tags : 491520 Threshold : 12288 Invalid Tags : 196608 Pr0 Tags : 98304 Pr1 Tags : 196608 num_pr0 : 12288
 SAE Count : 0
 Inter-Core Inteference in Data Store : 62327922
Heartbeat CPU 4 instructions: 70000000 cycles: 75644789 heartbeat IPC: 0.79286 cumulative IPC: 0.925378 (Simulation time: 12 hr 30 min 4 sec) 
 Total Blocks : 196608 Invalid Blocks : 0 Valid Blocks : 196608
 Total Tags : 491520 Threshold : 12288 Invalid Tags : 196608 Pr0 Tags : 98304 Pr1 Tags : 196608 num_pr0 : 12288
 SAE Count : 0
 Inter-Core Inteference in Data Store : 62505402
Heartbeat CPU 5 instructions: 70000000 cycles: 75861017 heartbeat IPC: 0.789918 cumulative IPC: 0.92274 (Simulation time: 12 hr 32 min 22 sec) 
 Total Blocks : 196608 Invalid Blocks : 0 Valid Blocks : 196608
 Total Tags : 491520 Threshold : 12288 Invalid Tags : 196608 Pr0 Tags : 98304 Pr1 Tags : 196608 num_pr0 : 12288
 SAE Count : 0
 Inter-Core Inteference in Data Store : 62719609
Heartbeat CPU 6 instructions: 70000000 cycles: 76031520 heartbeat IPC: 0.78812 cumulative IPC: 0.920671 (Simulation time: 12 hr 34 min 13 sec) 
 Total Blocks : 196608 Invalid Blocks : 0 Valid Blocks : 196608
 Total Tags : 491520 Threshold : 12288 Invalid Tags : 196608 Pr0 Tags : 98304 Pr1 Tags : 196608 num_pr0 : 12288
 SAE Count : 0
 Inter-Core Inteference in Data Store : 62887873
Heartbeat CPU 7 instructions: 70000000 cycles: 76222000 heartbeat IPC: 0.785332 cumulative IPC: 0.91837 (Simulation time: 12 hr 36 min 19 sec) 
 Total Blocks : 196608 Invalid Blocks : 0 Valid Blocks : 196608
 Total Tags : 491520 Threshold : 12288 Invalid Tags : 196608 Pr0 Tags : 98304 Pr1 Tags : 196608 num_pr0 : 12288
 SAE Count : 0
 Inter-Core Inteference in Data Store : 63077637
Heartbeat CPU 0 instructions: 80000002 cycles: 87206450 heartbeat IPC: 0.799584 cumulative IPC: 0.917363 (Simulation time: 14 hr 28 min 53 sec) 
 Total Blocks : 196608 Invalid Blocks : 0 Valid Blocks : 196608
 Total Tags : 491520 Threshold : 12288 Invalid Tags : 196608 Pr0 Tags : 98304 Pr1 Tags : 196608 num_pr0 : 12288
 SAE Count : 0
 Inter-Core Inteference in Data Store : 74048708
Heartbeat CPU 1 instructions: 80000002 cycles: 87551319 heartbeat IPC: 0.796016 cumulative IPC: 0.91375 (Simulation time: 14 hr 32 min 23 sec) 
 Total Blocks : 196608 Invalid Blocks : 0 Valid Blocks : 196608
 Total Tags : 491520 Threshold : 12288 Invalid Tags : 196608 Pr0 Tags : 98304 Pr1 Tags : 196608 num_pr0 : 12288
 SAE Count : 0
 Inter-Core Inteference in Data Store : 74396771
Heartbeat CPU 2 instructions: 80000002 cycles: 87843319 heartbeat IPC: 0.792744 cumulative IPC: 0.910712 (Simulation time: 14 hr 35 min 9 sec) 
 Total Blocks : 196608 Invalid Blocks : 0 Valid Blocks : 196608
 Total Tags : 491520 Threshold : 12288 Invalid Tags : 196608 Pr0 Tags : 98304 Pr1 Tags : 196608 num_pr0 : 12288
 SAE Count : 0
 Inter-Core Inteference in Data Store : 74692354
Heartbeat CPU 3 instructions: 80000002 cycles: 88115755 heartbeat IPC: 0.789783 cumulative IPC: 0.907897 (Simulation time: 14 hr 37 min 57 sec) 
 Total Blocks : 196608 Invalid Blocks : 0 Valid Blocks : 196608
 Total Tags : 491520 Threshold : 12288 Invalid Tags : 196608 Pr0 Tags : 98304 Pr1 Tags : 196608 num_pr0 : 12288
 SAE Count : 0
 Inter-Core Inteference in Data Store : 74967978
Heartbeat CPU 4 instructions: 80000002 cycles: 88344789 heartbeat IPC: 0.787402 cumulative IPC: 0.905543 (Simulation time: 14 hr 40 min 17 sec) 
 Total Blocks : 196608 Invalid Blocks : 0 Valid Blocks : 196608
 Total Tags : 491520 Threshold : 12288 Invalid Tags : 196608 Pr0 Tags : 98304 Pr1 Tags : 196608 num_pr0 : 12288
 SAE Count : 0
 Inter-Core Inteference in Data Store : 75200077
Heartbeat CPU 5 instructions: 80000002 cycles: 88608066 heartbeat IPC: 0.784495 cumulative IPC: 0.902852 (Simulation time: 14 hr 42 min 49 sec) 
 Total Blocks : 196608 Invalid Blocks : 0 Valid Blocks : 196608
 Total Tags : 491520 Threshold : 12288 Invalid Tags : 196608 Pr0 Tags : 98304 Pr1 Tags : 196608 num_pr0 : 12288
 SAE Count : 0
 Inter-Core Inteference in Data Store : 75467732
Heartbeat CPU 6 instructions: 80000002 cycles: 88813972 heartbeat IPC: 0.782323 cumulative IPC: 0.900759 (Simulation time: 14 hr 44 min 49 sec) 
 Total Blocks : 196608 Invalid Blocks : 0 Valid Blocks : 196608
 Total Tags : 491520 Threshold : 12288 Invalid Tags : 196608 Pr0 Tags : 98304 Pr1 Tags : 196608 num_pr0 : 12288
 SAE Count : 0
 Inter-Core Inteference in Data Store : 75675697
Heartbeat CPU 7 instructions: 80000002 cycles: 89042777 heartbeat IPC: 0.779984 cumulative IPC: 0.898445 (Simulation time: 14 hr 47 min 11 sec) 
 Total Blocks : 196608 Invalid Blocks : 0 Valid Blocks : 196608
 Total Tags : 491520 Threshold : 12288 Invalid Tags : 196608 Pr0 Tags : 98304 Pr1 Tags : 196608 num_pr0 : 12288
 SAE Count : 0
 Inter-Core Inteference in Data Store : 75903978
Heartbeat CPU 0 instructions: 90000000 cycles: 99670081 heartbeat IPC: 0.802334 cumulative IPC: 0.902979 (Simulation time: 16 hr 27 min 36 sec) 
 Total Blocks : 196608 Invalid Blocks : 0 Valid Blocks : 196608
 Total Tags : 491520 Threshold : 12288 Invalid Tags : 196608 Pr0 Tags : 98304 Pr1 Tags : 196608 num_pr0 : 12288
 SAE Count : 0
 Inter-Core Inteference in Data Store : 86431601
Heartbeat CPU 1 instructions: 90000000 cycles: 100071349 heartbeat IPC: 0.79872 cumulative IPC: 0.899358 (Simulation time: 16 hr 31 min 23 sec) 
 Total Blocks : 196608 Invalid Blocks : 0 Valid Blocks : 196608
 Total Tags : 491520 Threshold : 12288 Invalid Tags : 196608 Pr0 Tags : 98304 Pr1 Tags : 196608 num_pr0 : 12288
 SAE Count : 0
 Inter-Core Inteference in Data Store : 86833161
Heartbeat CPU 2 instructions: 90000000 cycles: 100413131 heartbeat IPC: 0.795557 cumulative IPC: 0.896297 (Simulation time: 16 hr 34 min 32 sec) 
 Total Blocks : 196608 Invalid Blocks : 0 Valid Blocks : 196608
 Total Tags : 491520 Threshold : 12288 Invalid Tags : 196608 Pr0 Tags : 98304 Pr1 Tags : 196608 num_pr0 : 12288
 SAE Count : 0
 Inter-Core Inteference in Data Store : 87171023
Heartbeat CPU 3 instructions: 90000000 cycles: 100730711 heartbeat IPC: 0.79271 cumulative IPC: 0.893471 (Simulation time: 16 hr 37 min 21 sec) 
 Total Blocks : 196608 Invalid Blocks : 0 Valid Blocks : 196608
 Total Tags : 491520 Threshold : 12288 Invalid Tags : 196608 Pr0 Tags : 98304 Pr1 Tags : 196608 num_pr0 : 12288
 SAE Count : 0
 Inter-Core Inteference in Data Store : 87489299
Heartbeat CPU 4 instructions: 90000000 cycles: 100996906 heartbeat IPC: 0.790381 cumulative IPC: 0.891116 (Simulation time: 16 hr 39 min 49 sec) 
 Total Blocks : 196608 Invalid Blocks : 0 Valid Blocks : 196608
 Total Tags : 491520 Threshold : 12288 Invalid Tags : 196608 Pr0 Tags : 98304 Pr1 Tags : 196608 num_pr0 : 12288
 SAE Count : 0
 Inter-Core Inteference in Data Store : 87751920
Heartbeat CPU 5 instructions: 90000000 cycles: 101306479 heartbeat IPC: 0.7875 cumulative IPC: 0.888393 (Simulation time: 16 hr 42 min 39 sec) 
 Total Blocks : 196608 Invalid Blocks : 0 Valid Blocks : 196608
 Total Tags : 491520 Threshold : 12288 Invalid Tags : 196608 Pr0 Tags : 98304 Pr1 Tags : 196608 num_pr0 : 12288
 SAE Count : 0
 Inter-Core Inteference in Data Store : 88062764
Heartbeat CPU 6 instructions: 90000000 cycles: 101544739 heartbeat IPC: 0.785498 cumulative IPC: 0.886309 (Simulation time: 16 hr 44 min 54 sec) 
 Total Blocks : 196608 Invalid Blocks : 0 Valid Blocks : 196608
 Total Tags : 491520 Threshold : 12288 Invalid Tags : 196608 Pr0 Tags : 98304 Pr1 Tags : 196608 num_pr0 : 12288
 SAE Count : 0
 Inter-Core Inteference in Data Store : 88304259
Heartbeat CPU 7 instructions: 90000000 cycles: 101811841 heartbeat IPC: 0.783143 cumulative IPC: 0.883984 (Simulation time: 16 hr 47 min 18 sec) 
 Total Blocks : 196608 Invalid Blocks : 0 Valid Blocks : 196608
 Total Tags : 491520 Threshold : 12288 Invalid Tags : 196608 Pr0 Tags : 98304 Pr1 Tags : 196608 num_pr0 : 12288
 SAE Count : 0
 Inter-Core Inteference in Data Store : 88568884
Heartbeat CPU 0 instructions: 100000001 cycles: 112177570 heartbeat IPC: 0.799521 cumulative IPC: 0.891444 (Simulation time: 18 hr 22 min 52 sec) 
 Total Blocks : 196608 Invalid Blocks : 0 Valid Blocks : 196608
 Total Tags : 491520 Threshold : 12288 Invalid Tags : 196608 Pr0 Tags : 98304 Pr1 Tags : 196608 num_pr0 : 12288
 SAE Count : 0
 Inter-Core Inteference in Data Store : 98932274
Heartbeat CPU 1 instructions: 100000001 cycles: 112637391 heartbeat IPC: 0.795796 cumulative IPC: 0.887805 (Simulation time: 18 hr 26 min 56 sec) 
 Total Blocks : 196608 Invalid Blocks : 0 Valid Blocks : 196608
 Total Tags : 491520 Threshold : 12288 Invalid Tags : 196608 Pr0 Tags : 98304 Pr1 Tags : 196608 num_pr0 : 12288
 SAE Count : 0
 Inter-Core Inteference in Data Store : 99398314
Heartbeat CPU 2 instructions: 100000001 cycles: 113026733 heartbeat IPC: 0.792795 cumulative IPC: 0.884746 (Simulation time: 18 hr 30 min 20 sec) 
 Total Blocks : 196608 Invalid Blocks : 0 Valid Blocks : 196608
 Total Tags : 491520 Threshold : 12288 Invalid Tags : 196608 Pr0 Tags : 98304 Pr1 Tags : 196608 num_pr0 : 12288
 SAE Count : 0
 Inter-Core Inteference in Data Store : 99784474
Heartbeat CPU 3 instructions: 100000001 cycles: 113390801 heartbeat IPC: 0.789884 cumulative IPC: 0.881906 (Simulation time: 18 hr 33 min 34 sec) 
 Total Blocks : 196608 Invalid Blocks : 0 Valid Blocks : 196608
 Total Tags : 491520 Threshold : 12288 Invalid Tags : 196608 Pr0 Tags : 98304 Pr1 Tags : 196608 num_pr0 : 12288
 SAE Count : 0
 Inter-Core Inteference in Data Store : 100132255
FILL
Heartbeat CPU 4 instructions: 100000001 cycles: 113694662 heartbeat IPC: 0.787541 cumulative IPC: 0.879549 (Simulation time: 18 hr 36 min 19 sec) 
 Total Blocks : 196608 Invalid Blocks : 0 Valid Blocks : 196608
 Total Tags : 491520 Threshold : 12288 Invalid Tags : 196608 Pr0 Tags : 98304 Pr1 Tags : 196608 num_pr0 : 12288
 SAE Count : 0
 Inter-Core Inteference in Data Store : 100429883
Heartbeat CPU 5 instructions: 100000001 cycles: 114051140 heartbeat IPC: 0.784642 cumulative IPC: 0.8768 (Simulation time: 18 hr 39 min 32 sec) 
 Total Blocks : 196608 Invalid Blocks : 0 Valid Blocks : 196608
 Total Tags : 491520 Threshold : 12288 Invalid Tags : 196608 Pr0 Tags : 98304 Pr1 Tags : 196608 num_pr0 : 12288
 SAE Count : 0
 Inter-Core Inteference in Data Store : 100764859
Heartbeat CPU 6 instructions: 100000001 cycles: 114323293 heartbeat IPC: 0.782561 cumulative IPC: 0.874712 (Simulation time: 18 hr 42 min 8 sec) 
 Total Blocks : 196608 Invalid Blocks : 0 Valid Blocks : 196608
 Total Tags : 491520 Threshold : 12288 Invalid Tags : 196608 Pr0 Tags : 98304 Pr1 Tags : 196608 num_pr0 : 12288
 SAE Count : 0
 Inter-Core Inteference in Data Store : 101023590
Heartbeat CPU 7 instructions: 100000001 cycles: 114627860 heartbeat IPC: 0.780274 cumulative IPC: 0.872388 (Simulation time: 18 hr 44 min 47 sec) 
 Total Blocks : 196608 Invalid Blocks : 0 Valid Blocks : 196608
 Total Tags : 491520 Threshold : 12288 Invalid Tags : 196608 Pr0 Tags : 98304 Pr1 Tags : 196608 num_pr0 : 12288
 SAE Count : 0
 Inter-Core Inteference in Data Store : 101310160
Heartbeat CPU 0 instructions: 110000000 cycles: 124596421 heartbeat IPC: 0.805227 cumulative IPC: 0.88285 (Simulation time: 20 hr 9 min 41 sec) 
 Total Blocks : 196608 Invalid Blocks : 0 Valid Blocks : 196608
 Total Tags : 491520 Threshold : 12288 Invalid Tags : 196608 Pr0 Tags : 98304 Pr1 Tags : 196608 num_pr0 : 12288
 SAE Count : 0
 Inter-Core Inteference in Data Store : 111278504
Heartbeat CPU 1 instructions: 110000000 cycles: 125117354 heartbeat IPC: 0.801284 cumulative IPC: 0.879175 (Simulation time: 20 hr 14 min 5 sec) 
 Total Blocks : 196608 Invalid Blocks : 0 Valid Blocks : 196608
 Total Tags : 491520 Threshold : 12288 Invalid Tags : 196608 Pr0 Tags : 98304 Pr1 Tags : 196608 num_pr0 : 12288
 SAE Count : 0
 Inter-Core Inteference in Data Store : 111803585
Heartbeat CPU 2 instructions: 110000000 cycles: 125560104 heartbeat IPC: 0.79787 cumulative IPC: 0.876074 (Simulation time: 20 hr 17 min 49 sec) 
 Total Blocks : 196608 Invalid Blocks : 0 Valid Blocks : 196608
 Total Tags : 491520 Threshold : 12288 Invalid Tags : 196608 Pr0 Tags : 98304 Pr1 Tags : 196608 num_pr0 : 12288
 SAE Count : 0
 Inter-Core Inteference in Data Store : 112256027
Heartbeat CPU 3 instructions: 110000000 cycles: 125969399 heartbeat IPC: 0.795001 cumulative IPC: 0.873228 (Simulation time: 20 hr 21 min 11 sec) 
 Total Blocks : 196608 Invalid Blocks : 0 Valid Blocks : 196608
 Total Tags : 491520 Threshold : 12288 Invalid Tags : 196608 Pr0 Tags : 98304 Pr1 Tags : 196608 num_pr0 : 12288
 SAE Count : 0
 Inter-Core Inteference in Data Store : 112672816
Heartbeat CPU 4 instructions: 110000000 cycles: 126312178 heartbeat IPC: 0.792549 cumulative IPC: 0.870858 (Simulation time: 20 hr 24 min 11 sec) 
 Total Blocks : 196608 Invalid Blocks : 0 Valid Blocks : 196608
 Total Tags : 491520 Threshold : 12288 Invalid Tags : 196608 Pr0 Tags : 98304 Pr1 Tags : 196608 num_pr0 : 12288
 SAE Count : 0
 Inter-Core Inteference in Data Store : 113021089
Heartbeat CPU 5 instructions: 110000000 cycles: 126715425 heartbeat IPC: 0.789622 cumulative IPC: 0.868087 (Simulation time: 20 hr 27 min 38 sec) 
 Total Blocks : 196608 Invalid Blocks : 0 Valid Blocks : 196608
 Total Tags : 491520 Threshold : 12288 Invalid Tags : 196608 Pr0 Tags : 98304 Pr1 Tags : 196608 num_pr0 : 12288
 SAE Count : 0
 Inter-Core Inteference in Data Store : 113427015
Heartbeat CPU 6 instructions: 110000000 cycles: 127022258 heartbeat IPC: 0.787466 cumulative IPC: 0.86599 (Simulation time: 20 hr 30 min 16 sec) 
 Total Blocks : 196608 Invalid Blocks : 0 Valid Blocks : 196608
 Total Tags : 491520 Threshold : 12288 Invalid Tags : 196608 Pr0 Tags : 98304 Pr1 Tags : 196608 num_pr0 : 12288
 SAE Count : 0
 Inter-Core Inteference in Data Store : 113735347
Heartbeat CPU 7 instructions: 110000000 cycles: 127365101 heartbeat IPC: 0.785099 cumulative IPC: 0.863659 (Simulation time: 20 hr 33 min 14 sec) 
 Total Blocks : 196608 Invalid Blocks : 0 Valid Blocks : 196608
 Total Tags : 491520 Threshold : 12288 Invalid Tags : 196608 Pr0 Tags : 98304 Pr1 Tags : 196608 num_pr0 : 12288
 SAE Count : 0
 Inter-Core Inteference in Data Store : 114077832
Heartbeat CPU 0 instructions: 120000000 cycles: 137042380 heartbeat IPC: 0.803474 cumulative IPC: 0.875642 (Simulation time: 21 hr 55 min 19 sec) 
 Total Blocks : 196608 Invalid Blocks : 0 Valid Blocks : 196608
 Total Tags : 491520 Threshold : 12288 Invalid Tags : 196608 Pr0 Tags : 98304 Pr1 Tags : 196608 num_pr0 : 12288
 SAE Count : 0
 Inter-Core Inteference in Data Store : 123745299
Heartbeat CPU 1 instructions: 120000000 cycles: 137619601 heartbeat IPC: 0.799856 cumulative IPC: 0.871969 (Simulation time: 22 hr 0 min 28 sec) 
 Total Blocks : 196608 Invalid Blocks : 0 Valid Blocks : 196608
 Total Tags : 491520 Threshold : 12288 Invalid Tags : 196608 Pr0 Tags : 98304 Pr1 Tags : 196608 num_pr0 : 12288
 SAE Count : 0
 Inter-Core Inteference in Data Store : 124292228
Heartbeat CPU 2 instructions: 120000000 cycles: 138111053 heartbeat IPC: 0.796753 cumulative IPC: 0.868866 (Simulation time: 22 hr 4 min 42 sec) 
 Total Blocks : 196608 Invalid Blocks : 0 Valid Blocks : 196608
 Total Tags : 491520 Threshold : 12288 Invalid Tags : 196608 Pr0 Tags : 98304 Pr1 Tags : 196608 num_pr0 : 12288
 SAE Count : 0
 Inter-Core Inteference in Data Store : 124760567
Heartbeat CPU 3 instructions: 120000000 cycles: 138567470 heartbeat IPC: 0.793772 cumulative IPC: 0.866004 (Simulation time: 22 hr 8 min 31 sec) 
 Total Blocks : 196608 Invalid Blocks : 0 Valid Blocks : 196608
 Total Tags : 491520 Threshold : 12288 Invalid Tags : 196608 Pr0 Tags : 98304 Pr1 Tags : 196608 num_pr0 : 12288
 SAE Count : 0
 Inter-Core Inteference in Data Store : 125224602
Heartbeat CPU 4 instructions: 120000000 cycles: 138947189 heartbeat IPC: 0.791452 cumulative IPC: 0.863638 (Simulation time: 22 hr 11 min 40 sec) 
 Total Blocks : 196608 Invalid Blocks : 0 Valid Blocks : 196608
 Total Tags : 491520 Threshold : 12288 Invalid Tags : 196608 Pr0 Tags : 98304 Pr1 Tags : 196608 num_pr0 : 12288
 SAE Count : 0
 Inter-Core Inteference in Data Store : 125612815
Heartbeat CPU 5 instructions: 120000000 cycles: 139395205 heartbeat IPC: 0.788657 cumulative IPC: 0.860862 (Simulation time: 22 hr 15 min 32 sec) 
 Total Blocks : 196608 Invalid Blocks : 0 Valid Blocks : 196608
 Total Tags : 491520 Threshold : 12288 Invalid Tags : 196608 Pr0 Tags : 98304 Pr1 Tags : 196608 num_pr0 : 12288
 SAE Count : 0
 Inter-Core Inteference in Data Store : 126065767
Heartbeat CPU 6 instructions: 120000000 cycles: 139738523 heartbeat IPC: 0.786394 cumulative IPC: 0.858747 (Simulation time: 22 hr 18 min 27 sec) 
 Total Blocks : 196608 Invalid Blocks : 0 Valid Blocks : 196608
 Total Tags : 491520 Threshold : 12288 Invalid Tags : 196608 Pr0 Tags : 98304 Pr1 Tags : 196608 num_pr0 : 12288
 SAE Count : 0
 Inter-Core Inteference in Data Store : 126414728
Heartbeat CPU 7 instructions: 120000000 cycles: 140114353 heartbeat IPC: 0.78436 cumulative IPC: 0.856443 (Simulation time: 22 hr 21 min 37 sec) 
 Total Blocks : 196608 Invalid Blocks : 0 Valid Blocks : 196608
 Total Tags : 491520 Threshold : 12288 Invalid Tags : 196608 Pr0 Tags : 98304 Pr1 Tags : 196608 num_pr0 : 12288
 SAE Count : 0
 Inter-Core Inteference in Data Store : 126789807
Heartbeat CPU 0 instructions: 130000000 cycles: 149479112 heartbeat IPC: 0.80407 cumulative IPC: 0.869687 (Simulation time: 23 hr 40 min 27 sec) 
 Total Blocks : 196608 Invalid Blocks : 0 Valid Blocks : 196608
 Total Tags : 491520 Threshold : 12288 Invalid Tags : 196608 Pr0 Tags : 98304 Pr1 Tags : 196608 num_pr0 : 12288
 SAE Count : 0
 Inter-Core Inteference in Data Store : 136048346
Heartbeat CPU 1 instructions: 130000000 cycles: 150114624 heartbeat IPC: 0.800319 cumulative IPC: 0.866005 (Simulation time: 23 hr 45 min 39 sec) 
 Total Blocks : 196608 Invalid Blocks : 0 Valid Blocks : 196608
 Total Tags : 491520 Threshold : 12288 Invalid Tags : 196608 Pr0 Tags : 98304 Pr1 Tags : 196608 num_pr0 : 12288
 SAE Count : 0
 Inter-Core Inteference in Data Store : 136663850
Heartbeat CPU 2 instructions: 130000000 cycles: 150656249 heartbeat IPC: 0.797118 cumulative IPC: 0.862891 (Simulation time: 23 hr 50 min 2 sec) 
 Total Blocks : 196608 Invalid Blocks : 0 Valid Blocks : 196608
 Total Tags : 491520 Threshold : 12288 Invalid Tags : 196608 Pr0 Tags : 98304 Pr1 Tags : 196608 num_pr0 : 12288
 SAE Count : 0
 Inter-Core Inteference in Data Store : 137184879
Heartbeat CPU 3 instructions: 130000000 cycles: 151159804 heartbeat IPC: 0.794134 cumulative IPC: 0.860017 (Simulation time: 23 hr 54 min 11 sec) 
 Total Blocks : 196608 Invalid Blocks : 0 Valid Blocks : 196608
 Total Tags : 491520 Threshold : 12288 Invalid Tags : 196608 Pr0 Tags : 98304 Pr1 Tags : 196608 num_pr0 : 12288
 SAE Count : 0
 Inter-Core Inteference in Data Store : 137678139
Heartbeat CPU 4 instructions: 130000000 cycles: 151577772 heartbeat IPC: 0.791729 cumulative IPC: 0.857646 (Simulation time: 23 hr 57 min 35 sec) 
 Total Blocks : 196608 Invalid Blocks : 0 Valid Blocks : 196608
 Total Tags : 491520 Threshold : 12288 Invalid Tags : 196608 Pr0 Tags : 98304 Pr1 Tags : 196608 num_pr0 : 12288
 SAE Count : 0
 Inter-Core Inteference in Data Store : 138092176
Heartbeat CPU 5 instructions: 130000000 cycles: 152066920 heartbeat IPC: 0.789159 cumulative IPC: 0.854887 (Simulation time: 24 hr 1 min 32 sec) 
 Total Blocks : 196608 Invalid Blocks : 0 Valid Blocks : 196608
 Total Tags : 491520 Threshold : 12288 Invalid Tags : 196608 Pr0 Tags : 98304 Pr1 Tags : 196608 num_pr0 : 12288
 SAE Count : 0
 Inter-Core Inteference in Data Store : 138589008
Heartbeat CPU 6 instructions: 130000000 cycles: 152448929 heartbeat IPC: 0.786757 cumulative IPC: 0.852745 (Simulation time: 24 hr 4 min 36 sec) 
 Total Blocks : 196608 Invalid Blocks : 0 Valid Blocks : 196608
 Total Tags : 491520 Threshold : 12288 Invalid Tags : 196608 Pr0 Tags : 98304 Pr1 Tags : 196608 num_pr0 : 12288
 SAE Count : 0
 Inter-Core Inteference in Data Store : 138980904
Heartbeat CPU 7 instructions: 130000000 cycles: 152858359 heartbeat IPC: 0.784683 cumulative IPC: 0.850461 (Simulation time: 24 hr 7 min 49 sec) 
 Total Blocks : 196608 Invalid Blocks : 0 Valid Blocks : 196608
 Total Tags : 491520 Threshold : 12288 Invalid Tags : 196608 Pr0 Tags : 98304 Pr1 Tags : 196608 num_pr0 : 12288
 SAE Count : 0
 Inter-Core Inteference in Data Store : 139397852
Heartbeat CPU 0 instructions: 140000001 cycles: 162006899 heartbeat IPC: 0.798226 cumulative IPC: 0.864161 (Simulation time: 25 hr 20 min 35 sec) 
 Total Blocks : 196608 Invalid Blocks : 0 Valid Blocks : 196608
 Total Tags : 491520 Threshold : 12288 Invalid Tags : 196608 Pr0 Tags : 98304 Pr1 Tags : 196608 num_pr0 : 12288
 SAE Count : 0
 Inter-Core Inteference in Data Store : 148622801
Heartbeat CPU 1 instructions: 140000001 cycles: 162694356 heartbeat IPC: 0.79493 cumulative IPC: 0.860509 (Simulation time: 25 hr 26 min 11 sec) 
 Total Blocks : 196608 Invalid Blocks : 0 Valid Blocks : 196608
 Total Tags : 491520 Threshold : 12288 Invalid Tags : 196608 Pr0 Tags : 98304 Pr1 Tags : 196608 num_pr0 : 12288
 SAE Count : 0
 Inter-Core Inteference in Data Store : 149299328
Heartbeat CPU 2 instructions: 140000001 cycles: 163290509 heartbeat IPC: 0.791499 cumulative IPC: 0.857368 (Simulation time: 25 hr 31 min 10 sec) 
 Total Blocks : 196608 Invalid Blocks : 0 Valid Blocks : 196608
 Total Tags : 491520 Threshold : 12288 Invalid Tags : 196608 Pr0 Tags : 98304 Pr1 Tags : 196608 num_pr0 : 12288
 SAE Count : 0
 Inter-Core Inteference in Data Store : 149880336
Heartbeat CPU 3 instructions: 140000001 cycles: 163843061 heartbeat IPC: 0.788441 cumulative IPC: 0.854476 (Simulation time: 25 hr 35 min 41 sec) 
 Total Blocks : 196608 Invalid Blocks : 0 Valid Blocks : 196608
 Total Tags : 491520 Threshold : 12288 Invalid Tags : 196608 Pr0 Tags : 98304 Pr1 Tags : 196608 num_pr0 : 12288
 SAE Count : 0
 Inter-Core Inteference in Data Store : 150416949
Heartbeat CPU 4 instructions: 140000001 cycles: 164298896 heartbeat IPC: 0.786094 cumulative IPC: 0.852106 (Simulation time: 25 hr 39 min 28 sec) 
 Total Blocks : 196608 Invalid Blocks : 0 Valid Blocks : 196608
 Total Tags : 491520 Threshold : 12288 Invalid Tags : 196608 Pr0 Tags : 98304 Pr1 Tags : 196608 num_pr0 : 12288
 SAE Count : 0
 Inter-Core Inteference in Data Store : 150865508
Heartbeat CPU 5 instructions: 140000001 cycles: 164833744 heartbeat IPC: 0.78328 cumulative IPC: 0.849341 (Simulation time: 25 hr 43 min 58 sec) 
 Total Blocks : 196608 Invalid Blocks : 0 Valid Blocks : 196608
 Total Tags : 491520 Threshold : 12288 Invalid Tags : 196608 Pr0 Tags : 98304 Pr1 Tags : 196608 num_pr0 : 12288
 SAE Count : 0
 Inter-Core Inteference in Data Store : 151384553
Heartbeat CPU 6 instructions: 140000001 cycles: 165253401 heartbeat IPC: 0.780977 cumulative IPC: 0.847184 (Simulation time: 25 hr 47 min 31 sec) 
 Total Blocks : 196608 Invalid Blocks : 0 Valid Blocks : 196608
 Total Tags : 491520 Threshold : 12288 Invalid Tags : 196608 Pr0 Tags : 98304 Pr1 Tags : 196608 num_pr0 : 12288
 SAE Count : 0
 Inter-Core Inteference in Data Store : 151783223
Heartbeat CPU 7 instructions: 140000001 cycles: 165701773 heartbeat IPC: 0.778609 cumulative IPC: 0.844891 (Simulation time: 25 hr 51 min 12 sec) 
 Total Blocks : 196608 Invalid Blocks : 0 Valid Blocks : 196608
 Total Tags : 491520 Threshold : 12288 Invalid Tags : 196608 Pr0 Tags : 98304 Pr1 Tags : 196608 num_pr0 : 12288
 SAE Count : 0
 Inter-Core Inteference in Data Store : 152216791
Heartbeat CPU 0 instructions: 150000000 cycles: 174473582 heartbeat IPC: 0.802138 cumulative IPC: 0.859729 (Simulation time: 27 hr 1 min 14 sec) 
 Total Blocks : 196608 Invalid Blocks : 0 Valid Blocks : 196608
 Total Tags : 491520 Threshold : 12288 Invalid Tags : 196608 Pr0 Tags : 98304 Pr1 Tags : 196608 num_pr0 : 12288
 SAE Count : 0
 Inter-Core Inteference in Data Store : 160992972
Heartbeat CPU 1 instructions: 150000000 cycles: 175221002 heartbeat IPC: 0.798298 cumulative IPC: 0.856062 (Simulation time: 27 hr 7 min 17 sec) 
 Total Blocks : 196608 Invalid Blocks : 0 Valid Blocks : 196608
 Total Tags : 491520 Threshold : 12288 Invalid Tags : 196608 Pr0 Tags : 98304 Pr1 Tags : 196608 num_pr0 : 12288
 SAE Count : 0
 Inter-Core Inteference in Data Store : 161746674
Heartbeat CPU 2 instructions: 150000000 cycles: 175866441 heartbeat IPC: 0.79517 cumulative IPC: 0.85292 (Simulation time: 27 hr 12 min 24 sec) 
 Total Blocks : 196608 Invalid Blocks : 0 Valid Blocks : 196608
 Total Tags : 491520 Threshold : 12288 Invalid Tags : 196608 Pr0 Tags : 98304 Pr1 Tags : 196608 num_pr0 : 12288
 SAE Count : 0
 Inter-Core Inteference in Data Store : 162383620
Heartbeat CPU 3 instructions: 150000000 cycles: 176463507 heartbeat IPC: 0.792365 cumulative IPC: 0.850034 (Simulation time: 27 hr 17 min 8 sec) 
 Total Blocks : 196608 Invalid Blocks : 0 Valid Blocks : 196608
 Total Tags : 491520 Threshold : 12288 Invalid Tags : 196608 Pr0 Tags : 98304 Pr1 Tags : 196608 num_pr0 : 12288
 SAE Count : 0
 Inter-Core Inteference in Data Store : 162978128
Heartbeat CPU 4 instructions: 150000000 cycles: 176956597 heartbeat IPC: 0.790033 cumulative IPC: 0.847665 (Simulation time: 27 hr 20 min 58 sec) 
 Total Blocks : 196608 Invalid Blocks : 0 Valid Blocks : 196608
 Total Tags : 491520 Threshold : 12288 Invalid Tags : 196608 Pr0 Tags : 98304 Pr1 Tags : 196608 num_pr0 : 12288
 SAE Count : 0
 Inter-Core Inteference in Data Store : 163473191
Heartbeat CPU 5 instructions: 150000000 cycles: 177537760 heartbeat IPC: 0.787153 cumulative IPC: 0.844891 (Simulation time: 27 hr 25 min 33 sec) 
 Total Blocks : 196608 Invalid Blocks : 0 Valid Blocks : 196608
 Total Tags : 491520 Threshold : 12288 Invalid Tags : 196608 Pr0 Tags : 98304 Pr1 Tags : 196608 num_pr0 : 12288
 SAE Count : 0
 Inter-Core Inteference in Data Store : 164051779
Heartbeat CPU 6 instructions: 150000000 cycles: 177992560 heartbeat IPC: 0.784981 cumulative IPC: 0.842732 (Simulation time: 27 hr 29 min 8 sec) 
 Total Blocks : 196608 Invalid Blocks : 0 Valid Blocks : 196608
 Total Tags : 491520 Threshold : 12288 Invalid Tags : 196608 Pr0 Tags : 98304 Pr1 Tags : 196608 num_pr0 : 12288
 SAE Count : 0
 Inter-Core Inteference in Data Store : 164506867
Heartbeat CPU 7 instructions: 150000000 cycles: 178477013 heartbeat IPC: 0.782764 cumulative IPC: 0.840444 (Simulation time: 27 hr 32 min 55 sec) 
 Total Blocks : 196608 Invalid Blocks : 0 Valid Blocks : 196608
 Total Tags : 491520 Threshold : 12288 Invalid Tags : 196608 Pr0 Tags : 98304 Pr1 Tags : 196608 num_pr0 : 12288
 SAE Count : 0
 Inter-Core Inteference in Data Store : 164989117
Heartbeat CPU 0 instructions: 160000001 cycles: 187009383 heartbeat IPC: 0.797715 cumulative IPC: 0.855572 (Simulation time: 28 hr 37 min 57 sec) 
 Total Blocks : 196608 Invalid Blocks : 0 Valid Blocks : 196608
 Total Tags : 491520 Threshold : 12288 Invalid Tags : 196608 Pr0 Tags : 98304 Pr1 Tags : 196608 num_pr0 : 12288
 SAE Count : 0
 Inter-Core Inteference in Data Store : 173576626
Heartbeat CPU 1 instructions: 160000001 cycles: 187814005 heartbeat IPC: 0.794092 cumulative IPC: 0.851907 (Simulation time: 28 hr 43 min 59 sec) 
 Total Blocks : 196608 Invalid Blocks : 0 Valid Blocks : 196608
 Total Tags : 491520 Threshold : 12288 Invalid Tags : 196608 Pr0 Tags : 98304 Pr1 Tags : 196608 num_pr0 : 12288
 SAE Count : 0
 Inter-Core Inteference in Data Store : 174396563
Heartbeat CPU 2 instructions: 160000001 cycles: 188508091 heartbeat IPC: 0.791036 cumulative IPC: 0.84877 (Simulation time: 28 hr 49 min 16 sec) 
 Total Blocks : 196608 Invalid Blocks : 0 Valid Blocks : 196608
 Total Tags : 491520 Threshold : 12288 Invalid Tags : 196608 Pr0 Tags : 98304 Pr1 Tags : 196608 num_pr0 : 12288
 SAE Count : 0
 Inter-Core Inteference in Data Store : 175101122
Heartbeat CPU 3 instructions: 160000001 cycles: 189151154 heartbeat IPC: 0.788168 cumulative IPC: 0.845884 (Simulation time: 28 hr 54 min 14 sec) 
 Total Blocks : 196608 Invalid Blocks : 0 Valid Blocks : 196608
 Total Tags : 491520 Threshold : 12288 Invalid Tags : 196608 Pr0 Tags : 98304 Pr1 Tags : 196608 num_pr0 : 12288
 SAE Count : 0
 Inter-Core Inteference in Data Store : 175741872
Heartbeat CPU 4 instructions: 160000001 cycles: 189684540 heartbeat IPC: 0.785673 cumulative IPC: 0.843506 (Simulation time: 28 hr 58 min 22 sec) 
 Total Blocks : 196608 Invalid Blocks : 0 Valid Blocks : 196608
 Total Tags : 491520 Threshold : 12288 Invalid Tags : 196608 Pr0 Tags : 98304 Pr1 Tags : 196608 num_pr0 : 12288
 SAE Count : 0
 Inter-Core Inteference in Data Store : 176274586
Heartbeat CPU 5 instructions: 160000001 cycles: 190311870 heartbeat IPC: 0.782833 cumulative IPC: 0.840725 (Simulation time: 29 hr 3 min 16 sec) 
 Total Blocks : 196608 Invalid Blocks : 0 Valid Blocks : 196608
 Total Tags : 491520 Threshold : 12288 Invalid Tags : 196608 Pr0 Tags : 98304 Pr1 Tags : 196608 num_pr0 : 12288
 SAE Count : 0
 Inter-Core Inteference in Data Store : 176891540
Heartbeat CPU 6 instructions: 160000001 cycles: 190799514 heartbeat IPC: 0.780826 cumulative IPC: 0.838577 (Simulation time: 29 hr 7 min 2 sec) 
 Total Blocks : 196608 Invalid Blocks : 0 Valid Blocks : 196608
 Total Tags : 491520 Threshold : 12288 Invalid Tags : 196608 Pr0 Tags : 98304 Pr1 Tags : 196608 num_pr0 : 12288
 SAE Count : 0
 Inter-Core Inteference in Data Store : 177379327
Heartbeat CPU 7 instructions: 160000001 cycles: 191323791 heartbeat IPC: 0.778405 cumulative IPC: 0.836279 (Simulation time: 29 hr 11 min 6 sec) 
 Total Blocks : 196608 Invalid Blocks : 0 Valid Blocks : 196608
 Total Tags : 491520 Threshold : 12288 Invalid Tags : 196608 Pr0 Tags : 98304 Pr1 Tags : 196608 num_pr0 : 12288
 SAE Count : 0
 Inter-Core Inteference in Data Store : 177896871
Heartbeat CPU 0 instructions: 170000002 cycles: 199495235 heartbeat IPC: 0.800907 cumulative IPC: 0.852151 (Simulation time: 30 hr 14 min 38 sec) 
 Total Blocks : 196608 Invalid Blocks : 0 Valid Blocks : 196608
 Total Tags : 491520 Threshold : 12288 Invalid Tags : 196608 Pr0 Tags : 98304 Pr1 Tags : 196608 num_pr0 : 12288
 SAE Count : 0
 Inter-Core Inteference in Data Store : 186091837
Heartbeat CPU 1 instructions: 170000002 cycles: 200360746 heartbeat IPC: 0.79702 cumulative IPC: 0.84847 (Simulation time: 30 hr 21 min 27 sec) 
 Total Blocks : 196608 Invalid Blocks : 0 Valid Blocks : 196608
 Total Tags : 491520 Threshold : 12288 Invalid Tags : 196608 Pr0 Tags : 98304 Pr1 Tags : 196608 num_pr0 : 12288
 SAE Count : 0
 Inter-Core Inteference in Data Store : 186952486
Heartbeat CPU 2 instructions: 170000002 cycles: 201102822 heartbeat IPC: 0.793983 cumulative IPC: 0.845339 (Simulation time: 30 hr 27 min 19 sec) 
 Total Blocks : 196608 Invalid Blocks : 0 Valid Blocks : 196608
 Total Tags : 491520 Threshold : 12288 Invalid Tags : 196608 Pr0 Tags : 98304 Pr1 Tags : 196608 num_pr0 : 12288
 SAE Count : 0
 Inter-Core Inteference in Data Store : 187683841
Heartbeat CPU 3 instructions: 170000002 cycles: 201789504 heartbeat IPC: 0.791243 cumulative IPC: 0.842462 (Simulation time: 30 hr 32 min 47 sec) 
 Total Blocks : 196608 Invalid Blocks : 0 Valid Blocks : 196608
 Total Tags : 491520 Threshold : 12288 Invalid Tags : 196608 Pr0 Tags : 98304 Pr1 Tags : 196608 num_pr0 : 12288
 SAE Count : 0
 Inter-Core Inteference in Data Store : 188362005
Heartbeat CPU 4 instructions: 170000002 cycles: 202364353 heartbeat IPC: 0.788655 cumulative IPC: 0.840069 (Simulation time: 30 hr 37 min 20 sec) 
 Total Blocks : 196608 Invalid Blocks : 0 Valid Blocks : 196608
 Total Tags : 491520 Threshold : 12288 Invalid Tags : 196608 Pr0 Tags : 98304 Pr1 Tags : 196608 num_pr0 : 12288
 SAE Count : 0
 Inter-Core Inteference in Data Store : 188934709
Heartbeat CPU 5 instructions: 170000002 cycles: 203034004 heartbeat IPC: 0.786032 cumulative IPC: 0.837298 (Simulation time: 30 hr 42 min 37 sec) 
 Total Blocks : 196608 Invalid Blocks : 0 Valid Blocks : 196608
 Total Tags : 491520 Threshold : 12288 Invalid Tags : 196608 Pr0 Tags : 98304 Pr1 Tags : 196608 num_pr0 : 12288
 SAE Count : 0
 Inter-Core Inteference in Data Store : 189603968
Heartbeat CPU 6 instructions: 170000002 cycles: 203557359 heartbeat IPC: 0.783832 cumulative IPC: 0.835145 (Simulation time: 30 hr 46 min 47 sec) 
 Total Blocks : 196608 Invalid Blocks : 0 Valid Blocks : 196608
 Total Tags : 491520 Threshold : 12288 Invalid Tags : 196608 Pr0 Tags : 98304 Pr1 Tags : 196608 num_pr0 : 12288
 SAE Count : 0
 Inter-Core Inteference in Data Store : 190121502
Heartbeat CPU 7 instructions: 170000002 cycles: 204117205 heartbeat IPC: 0.781652 cumulative IPC: 0.832855 (Simulation time: 30 hr 51 min 18 sec) 
 Total Blocks : 196608 Invalid Blocks : 0 Valid Blocks : 196608
 Total Tags : 491520 Threshold : 12288 Invalid Tags : 196608 Pr0 Tags : 98304 Pr1 Tags : 196608 num_pr0 : 12288
 SAE Count : 0
 Inter-Core Inteference in Data Store : 190673493
Heartbeat CPU 0 instructions: 180000001 cycles: 212115290 heartbeat IPC: 0.79239 cumulative IPC: 0.848595 (Simulation time: 31 hr 54 min 44 sec) 
 Total Blocks : 196608 Invalid Blocks : 0 Valid Blocks : 196608
 Total Tags : 491520 Threshold : 12288 Invalid Tags : 196608 Pr0 Tags : 98304 Pr1 Tags : 196608 num_pr0 : 12288
 SAE Count : 0
 Inter-Core Inteference in Data Store : 198760950
Heartbeat CPU 1 instructions: 180000001 cycles: 213036787 heartbeat IPC: 0.78889 cumulative IPC: 0.844925 (Simulation time: 32 hr 2 min 6 sec) 
 Total Blocks : 196608 Invalid Blocks : 0 Valid Blocks : 196608
 Total Tags : 491520 Threshold : 12288 Invalid Tags : 196608 Pr0 Tags : 98304 Pr1 Tags : 196608 num_pr0 : 12288
 SAE Count : 0
 Inter-Core Inteference in Data Store : 199696779
Heartbeat CPU 2 instructions: 180000001 cycles: 213832178 heartbeat IPC: 0.785586 cumulative IPC: 0.841782 (Simulation time: 32 hr 8 min 32 sec) 
 Total Blocks : 196608 Invalid Blocks : 0 Valid Blocks : 196608
 Total Tags : 491520 Threshold : 12288 Invalid Tags : 196608 Pr0 Tags : 98304 Pr1 Tags : 196608 num_pr0 : 12288
 SAE Count : 0
 Inter-Core Inteference in Data Store : 200501430
Heartbeat CPU 3 instructions: 180000001 cycles: 214567121 heartbeat IPC: 0.782618 cumulative IPC: 0.838898 (Simulation time: 32 hr 15 min 54 sec) 
 Total Blocks : 196608 Invalid Blocks : 0 Valid Blocks : 196608
 Total Tags : 491520 Threshold : 12288 Invalid Tags : 196608 Pr0 Tags : 98304 Pr1 Tags : 196608 num_pr0 : 12288
 SAE Count : 0
 Inter-Core Inteference in Data Store : 201244168
Heartbeat CPU 4 instructions: 180000001 cycles: 215180500 heartbeat IPC: 0.780266 cumulative IPC: 0.836507 (Simulation time: 36 hr 4 min 13 sec) 
 Total Blocks : 196608 Invalid Blocks : 0 Valid Blocks : 196608
 Total Tags : 491520 Threshold : 12288 Invalid Tags : 196608 Pr0 Tags : 98304 Pr1 Tags : 196608 num_pr0 : 12288
 SAE Count : 0
 Inter-Core Inteference in Data Store : 201856963
Heartbeat CPU 5 instructions: 180000001 cycles: 215897382 heartbeat IPC: 0.777401 cumulative IPC: 0.833729 (Simulation time: 43 hr 53 min 39 sec) 
 Total Blocks : 196608 Invalid Blocks : 0 Valid Blocks : 196608
 Total Tags : 491520 Threshold : 12288 Invalid Tags : 196608 Pr0 Tags : 98304 Pr1 Tags : 196608 num_pr0 : 12288
 SAE Count : 0
 Inter-Core Inteference in Data Store : 202578842
Heartbeat CPU 6 instructions: 180000001 cycles: 216454297 heartbeat IPC: 0.775378 cumulative IPC: 0.831584 (Simulation time: 48 hr 26 min 36 sec) 
 Total Blocks : 196608 Invalid Blocks : 0 Valid Blocks : 196608
 Total Tags : 491520 Threshold : 12288 Invalid Tags : 196608 Pr0 Tags : 98304 Pr1 Tags : 196608 num_pr0 : 12288
 SAE Count : 0
 Inter-Core Inteference in Data Store : 203136002
Heartbeat CPU 7 instructions: 180000001 cycles: 217054124 heartbeat IPC: 0.772982 cumulative IPC: 0.829286 (Simulation time: 52 hr 15 min 45 sec) 
 Total Blocks : 196608 Invalid Blocks : 0 Valid Blocks : 196608
 Total Tags : 491520 Threshold : 12288 Invalid Tags : 196608 Pr0 Tags : 98304 Pr1 Tags : 196608 num_pr0 : 12288
 SAE Count : 0
 Inter-Core Inteference in Data Store : 203736156
Heartbeat CPU 0 instructions: 190000002 cycles: 222011279 heartbeat IPC: 1.01051 cumulative IPC: 0.855812 (Simulation time: 53 hr 53 min 58 sec) 
 Total Blocks : 196608 Invalid Blocks : 0 Valid Blocks : 196608
 Total Tags : 491520 Threshold : 12288 Invalid Tags : 196608 Pr0 Tags : 98304 Pr1 Tags : 196608 num_pr0 : 12288
 SAE Count : 0
 Inter-Core Inteference in Data Store : 208630448
Heartbeat CPU 1 instructions: 190000002 cycles: 222954126 heartbeat IPC: 1.00834 cumulative IPC: 0.852193 (Simulation time: 54 hr 4 min 53 sec) 
 Total Blocks : 196608 Invalid Blocks : 0 Valid Blocks : 196608
 Total Tags : 491520 Threshold : 12288 Invalid Tags : 196608 Pr0 Tags : 98304 Pr1 Tags : 196608 num_pr0 : 12288
 SAE Count : 0
 Inter-Core Inteference in Data Store : 209413912
Heartbeat CPU 2 instructions: 190000002 cycles: 223754608 heartbeat IPC: 1.00782 cumulative IPC: 0.849145 (Simulation time: 54 hr 56 min 38 sec) 
 Total Blocks : 196608 Invalid Blocks : 0 Valid Blocks : 196608
 Total Tags : 491520 Threshold : 12288 Invalid Tags : 196609 Pr0 Tags : 98303 Pr1 Tags : 196608 num_pr0 : 12288
 SAE Count : 0
 Inter-Core Inteference in Data Store : 209930023
Heartbeat CPU 3 instructions: 190000002 cycles: 224477303 heartbeat IPC: 1.00906 cumulative IPC: 0.846411 (Simulation time: 56 hr 52 min 22 sec) 
 Total Blocks : 196608 Invalid Blocks : 0 Valid Blocks : 196608
 Total Tags : 491520 Threshold : 12288 Invalid Tags : 196609 Pr0 Tags : 98303 Pr1 Tags : 196608 num_pr0 : 12288
 SAE Count : 0
 Inter-Core Inteference in Data Store : 210204531
Heartbeat CPU 4 instructions: 190000002 cycles: 225074938 heartbeat IPC: 1.01067 cumulative IPC: 0.844163 (Simulation time: 58 hr 2 min 0 sec) 
 Total Blocks : 196608 Invalid Blocks : 0 Valid Blocks : 196608
 Total Tags : 491520 Threshold : 12288 Invalid Tags : 196610 Pr0 Tags : 98302 Pr1 Tags : 196608 num_pr0 : 12287
 SAE Count : 0
 Inter-Core Inteference in Data Store : 210333205
Heartbeat CPU 5 instructions: 190000002 cycles: 225754956 heartbeat IPC: 1.01445 cumulative IPC: 0.841621 (Simulation time: 58 hr 56 min 19 sec) 
 Total Blocks : 196608 Invalid Blocks : 0 Valid Blocks : 196608
 Total Tags : 491520 Threshold : 12288 Invalid Tags : 196609 Pr0 Tags : 98303 Pr1 Tags : 196608 num_pr0 : 12287
 SAE Count : 0
 Inter-Core Inteference in Data Store : 210481613
Heartbeat CPU 6 instructions: 190000002 cycles: 226280088 heartbeat IPC: 1.01773 cumulative IPC: 0.839667 (Simulation time: 59 hr 14 min 18 sec) 
 Total Blocks : 196608 Invalid Blocks : 0 Valid Blocks : 196608
 Total Tags : 491520 Threshold : 12288 Invalid Tags : 196610 Pr0 Tags : 98302 Pr1 Tags : 196608 num_pr0 : 12287
 SAE Count : 0
 Inter-Core Inteference in Data Store : 210561039
FILL
Heartbeat CPU 7 instructions: 190000002 cycles: 226841226 heartbeat IPC: 1.02175 cumulative IPC: 0.83759 (Simulation time: 59 hr 22 min 38 sec) 
 Total Blocks : 196608 Invalid Blocks : 0 Valid Blocks : 196608
 Total Tags : 491520 Threshold : 12288 Invalid Tags : 196609 Pr0 Tags : 98303 Pr1 Tags : 196608 num_pr0 : 12288
 SAE Count : 0
 Inter-Core Inteference in Data Store : 210682307
Heartbeat CPU 0 instructions: 200000000 cycles: 226856769 heartbeat IPC: 2.06377 cumulative IPC: 0.881614 (Simulation time: 59 hr 22 min 45 sec) 
 Total Blocks : 196608 Invalid Blocks : 0 Valid Blocks : 196608
 Total Tags : 491520 Threshold : 12288 Invalid Tags : 196609 Pr0 Tags : 98303 Pr1 Tags : 196608 num_pr0 : 12288
 SAE Count : 0
 Inter-Core Inteference in Data Store : 210684994
Heartbeat CPU 1 instructions: 200000000 cycles: 227815704 heartbeat IPC: 2.05694 cumulative IPC: 0.877903 (Simulation time: 59 hr 32 min 44 sec) 
 Total Blocks : 196608 Invalid Blocks : 0 Valid Blocks : 196608
 Total Tags : 491520 Threshold : 12288 Invalid Tags : 196608 Pr0 Tags : 98304 Pr1 Tags : 196608 num_pr0 : 12288
 SAE Count : 0
 Inter-Core Inteference in Data Store : 211012072
Heartbeat CPU 2 instructions: 200000000 cycles: 228653855 heartbeat IPC: 2.04113 cumulative IPC: 0.874685 (Simulation time: 59 hr 38 min 13 sec) 
 Total Blocks : 196608 Invalid Blocks : 0 Valid Blocks : 196608
 Total Tags : 491520 Threshold : 12288 Invalid Tags : 196608 Pr0 Tags : 98304 Pr1 Tags : 196608 num_pr0 : 12288
 SAE Count : 0
 Inter-Core Inteference in Data Store : 211536325
Heartbeat CPU 3 instructions: 200000000 cycles: 229427397 heartbeat IPC: 2.02016 cumulative IPC: 0.871735 (Simulation time: 59 hr 43 min 25 sec) 
 Total Blocks : 196608 Invalid Blocks : 0 Valid Blocks : 196608
 Total Tags : 491520 Threshold : 12288 Invalid Tags : 196608 Pr0 Tags : 98304 Pr1 Tags : 196608 num_pr0 : 12288
 SAE Count : 0
 Inter-Core Inteference in Data Store : 212180369
Heartbeat CPU 4 instructions: 200000000 cycles: 230061522 heartbeat IPC: 2.00538 cumulative IPC: 0.869333 (Simulation time: 59 hr 47 min 52 sec) 
 Total Blocks : 196608 Invalid Blocks : 0 Valid Blocks : 196608
 Total Tags : 491520 Threshold : 12288 Invalid Tags : 196608 Pr0 Tags : 98304 Pr1 Tags : 196608 num_pr0 : 12288
 SAE Count : 0
 Inter-Core Inteference in Data Store : 212788328
Heartbeat CPU 5 instructions: 200000000 cycles: 230776483 heartbeat IPC: 1.99143 cumulative IPC: 0.866639 (Simulation time: 59 hr 52 min 57 sec) 
 Total Blocks : 196608 Invalid Blocks : 0 Valid Blocks : 196608
 Total Tags : 491520 Threshold : 12288 Invalid Tags : 196608 Pr0 Tags : 98304 Pr1 Tags : 196608 num_pr0 : 12288
 SAE Count : 0
 Inter-Core Inteference in Data Store : 213509850
Heartbeat CPU 6 instructions: 200000000 cycles: 231323550 heartbeat IPC: 1.98276 cumulative IPC: 0.86459 (Simulation time: 59 hr 56 min 32 sec) 
 Total Blocks : 196608 Invalid Blocks : 0 Valid Blocks : 196608
 Total Tags : 491520 Threshold : 12288 Invalid Tags : 196608 Pr0 Tags : 98304 Pr1 Tags : 196608 num_pr0 : 12288
 SAE Count : 0
 Inter-Core Inteference in Data Store : 214053552
Heartbeat CPU 7 instructions: 200000000 cycles: 231898541 heartbeat IPC: 1.97733 cumulative IPC: 0.862446 (Simulation time: 60 hr 0 min 16 sec) 
 Total Blocks : 196608 Invalid Blocks : 0 Valid Blocks : 196608
 Total Tags : 491520 Threshold : 12288 Invalid Tags : 196608 Pr0 Tags : 98304 Pr1 Tags : 196608 num_pr0 : 12288
 SAE Count : 0
 Inter-Core Inteference in Data Store : 214630168

Warmup complete CPU 0 instructions: 204167441 cycles: 231898542 (Simulation time: 60 hr 0 min 16 sec) 
Warmup complete CPU 1 instructions: 203312413 cycles: 231898542 (Simulation time: 60 hr 0 min 16 sec) 
Warmup complete CPU 2 instructions: 202592294 cycles: 231898542 (Simulation time: 60 hr 0 min 16 sec) 
Warmup complete CPU 3 instructions: 201960312 cycles: 231898542 (Simulation time: 60 hr 0 min 16 sec) 
Warmup complete CPU 4 instructions: 201446105 cycles: 231898542 (Simulation time: 60 hr 0 min 16 sec) 
Warmup complete CPU 5 instructions: 200879529 cycles: 231898542 (Simulation time: 60 hr 0 min 16 sec) 
Warmup complete CPU 6 instructions: 200441417 cycles: 231898542 (Simulation time: 60 hr 0 min 16 sec) 
Warmup complete CPU 7 instructions: 200000001 cycles: 231898542 (Simulation time: 60 hr 0 min 16 sec) 

Heartbeat CPU 0 instructions: 210000002 cycles: 513294016 heartbeat IPC: 0.0349117 cumulative IPC: 0.0207273 (Simulation time: 71 hr 15 min 30 sec) 
 Total Blocks : 196608 Invalid Blocks : 0 Valid Blocks : 196608
 Total Tags : 491520 Threshold : 12288 Invalid Tags : 196608 Pr0 Tags : 98304 Pr1 Tags : 196608 num_pr0 : 12288
 SAE Count : 0
 Inter-Core Inteference in Data Store : 7639133
Heartbeat CPU 1 instructions: 210000002 cycles: 555816956 heartbeat IPC: 0.0304877 cumulative IPC: 0.0206459 (Simulation time: 72 hr 35 min 53 sec) 
 Total Blocks : 196608 Invalid Blocks : 0 Valid Blocks : 196608
 Total Tags : 491520 Threshold : 12288 Invalid Tags : 196608 Pr0 Tags : 98304 Pr1 Tags : 196608 num_pr0 : 12288
 SAE Count : 0
 Inter-Core Inteference in Data Store : 8783343
Heartbeat CPU 2 instructions: 210000002 cycles: 591729314 heartbeat IPC: 0.0275425 cumulative IPC: 0.0205866 (Simulation time: 73 hr 48 min 21 sec) 
 Total Blocks : 196608 Invalid Blocks : 0 Valid Blocks : 196608
 Total Tags : 491520 Threshold : 12288 Invalid Tags : 196608 Pr0 Tags : 98304 Pr1 Tags : 196608 num_pr0 : 12288
 SAE Count : 0
 Inter-Core Inteference in Data Store : 9756668
Heartbeat CPU 3 instructions: 210000002 cycles: 622152967 heartbeat IPC: 0.0254631 cumulative IPC: 0.0206011 (Simulation time: 74 hr 47 min 48 sec) 
 Total Blocks : 196608 Invalid Blocks : 0 Valid Blocks : 196608
 Total Tags : 491520 Threshold : 12288 Invalid Tags : 196608 Pr0 Tags : 98304 Pr1 Tags : 196608 num_pr0 : 12288
 SAE Count : 0
 Inter-Core Inteference in Data Store : 10583953
Heartbeat CPU 4 instructions: 210000002 cycles: 646887502 heartbeat IPC: 0.0239908 cumulative IPC: 0.0206123 (Simulation time: 75 hr 35 min 10 sec) 
 Total Blocks : 196608 Invalid Blocks : 0 Valid Blocks : 196608
 Total Tags : 491520 Threshold : 12288 Invalid Tags : 196608 Pr0 Tags : 98304 Pr1 Tags : 196608 num_pr0 : 12288
 SAE Count : 0
 Inter-Core Inteference in Data Store : 11247413
Heartbeat CPU 5 instructions: 210000002 cycles: 673009062 heartbeat IPC: 0.0226125 cumulative IPC: 0.0206762 (Simulation time: 76 hr 24 min 22 sec) 
 Total Blocks : 196608 Invalid Blocks : 0 Valid Blocks : 196608
 Total Tags : 491520 Threshold : 12288 Invalid Tags : 196608 Pr0 Tags : 98304 Pr1 Tags : 196608 num_pr0 : 12288
 SAE Count : 0
 Inter-Core Inteference in Data Store : 11968444
Heartbeat CPU 6 instructions: 210000002 cycles: 695370292 heartbeat IPC: 0.0215496 cumulative IPC: 0.0206239 (Simulation time: 77 hr 1 min 52 sec) 
 Total Blocks : 196608 Invalid Blocks : 0 Valid Blocks : 196608
 Total Tags : 491520 Threshold : 12288 Invalid Tags : 196608 Pr0 Tags : 98304 Pr1 Tags : 196608 num_pr0 : 12288
 SAE Count : 0
 Inter-Core Inteference in Data Store : 12575963
Heartbeat CPU 7 instructions: 210000002 cycles: 716432770 heartbeat IPC: 0.0206384 cumulative IPC: 0.0206384 (Simulation time: 77 hr 40 min 53 sec) 
 Total Blocks : 196608 Invalid Blocks : 0 Valid Blocks : 196608
 Total Tags : 491520 Threshold : 12288 Invalid Tags : 196608 Pr0 Tags : 98304 Pr1 Tags : 196608 num_pr0 : 12288
 SAE Count : 0
 Inter-Core Inteference in Data Store : 13158307
Heartbeat CPU 0 instructions: 220000000 cycles: 995820035 heartbeat IPC: 0.0207243 cumulative IPC: 0.0207254 (Simulation time: 85 hr 39 min 2 sec) 
 Total Blocks : 196608 Invalid Blocks : 0 Valid Blocks : 196608
 Total Tags : 491520 Threshold : 12288 Invalid Tags : 196608 Pr0 Tags : 98304 Pr1 Tags : 196608 num_pr0 : 12288
 SAE Count : 0
 Inter-Core Inteference in Data Store : 20742627
Heartbeat CPU 1 instructions: 220000000 cycles: 1038219699 heartbeat IPC: 0.0207296 cumulative IPC: 0.020696 (Simulation time: 86 hr 43 min 5 sec) 
 Total Blocks : 196608 Invalid Blocks : 0 Valid Blocks : 196608
 Total Tags : 491520 Threshold : 12288 Invalid Tags : 196608 Pr0 Tags : 98304 Pr1 Tags : 196608 num_pr0 : 12288
 SAE Count : 0
 Inter-Core Inteference in Data Store : 21886343
Heartbeat CPU 2 instructions: 220000000 cycles: 1074112334 heartbeat IPC: 0.0207304 cumulative IPC: 0.020669 (Simulation time: 87 hr 37 min 48 sec) 
 Total Blocks : 196608 Invalid Blocks : 0 Valid Blocks : 196608
 Total Tags : 491520 Threshold : 12288 Invalid Tags : 196608 Pr0 Tags : 98304 Pr1 Tags : 196608 num_pr0 : 12288
 SAE Count : 0
 Inter-Core Inteference in Data Store : 22851441
Heartbeat CPU 3 instructions: 220000000 cycles: 1103337264 heartbeat IPC: 0.0207821 cumulative IPC: 0.020701 (Simulation time: 88 hr 19 min 4 sec) 
 Total Blocks : 196608 Invalid Blocks : 0 Valid Blocks : 196608
 Total Tags : 491520 Threshold : 12288 Invalid Tags : 196608 Pr0 Tags : 98304 Pr1 Tags : 196608 num_pr0 : 12288
 SAE Count : 0
 Inter-Core Inteference in Data Store : 23634438
Heartbeat CPU 4 instructions: 220000000 cycles: 1126981940 heartbeat IPC: 0.0208292 cumulative IPC: 0.0207287 (Simulation time: 88 hr 52 min 34 sec) 
 Total Blocks : 196608 Invalid Blocks : 0 Valid Blocks : 196608
 Total Tags : 491520 Threshold : 12288 Invalid Tags : 196608 Pr0 Tags : 98304 Pr1 Tags : 196608 num_pr0 : 12288
 SAE Count : 0
 Inter-Core Inteference in Data Store : 24270844
Heartbeat CPU 5 instructions: 220000000 cycles: 1155234125 heartbeat IPC: 0.0207372 cumulative IPC: 0.020708 (Simulation time: 89 hr 28 min 23 sec) 
 Total Blocks : 196608 Invalid Blocks : 0 Valid Blocks : 196608
 Total Tags : 491520 Threshold : 12288 Invalid Tags : 196608 Pr0 Tags : 98304 Pr1 Tags : 196608 num_pr0 : 12288
 SAE Count : 0
 Inter-Core Inteference in Data Store : 25016482
Heartbeat CPU 6 instructions: 220000000 cycles: 1175895447 heartbeat IPC: 0.0208106 cumulative IPC: 0.0207189 (Simulation time: 89 hr 54 min 18 sec) 
 Total Blocks : 196608 Invalid Blocks : 0 Valid Blocks : 196608
 Total Tags : 491520 Threshold : 12288 Invalid Tags : 196608 Pr0 Tags : 98304 Pr1 Tags : 196608 num_pr0 : 12288
 SAE Count : 0
 Inter-Core Inteference in Data Store : 25569420
Heartbeat CPU 7 instructions: 220000000 cycles: 1196648863 heartbeat IPC: 0.020824 cumulative IPC: 0.0207308 (Simulation time: 90 hr 20 min 54 sec) 
 Total Blocks : 196608 Invalid Blocks : 0 Valid Blocks : 196608
 Total Tags : 491520 Threshold : 12288 Invalid Tags : 196608 Pr0 Tags : 98304 Pr1 Tags : 196608 num_pr0 : 12288
 SAE Count : 0
 Inter-Core Inteference in Data Store : 26127274
Heartbeat CPU 0 instructions: 230000003 cycles: 1484823440 heartbeat IPC: 0.0204498 cumulative IPC: 0.0206178 (Simulation time: 95 hr 32 min 41 sec) 
 Total Blocks : 196608 Invalid Blocks : 0 Valid Blocks : 196608
 Total Tags : 491520 Threshold : 12288 Invalid Tags : 196608 Pr0 Tags : 98304 Pr1 Tags : 196608 num_pr0 : 12288
 SAE Count : 0
 Inter-Core Inteference in Data Store : 33993644
Heartbeat CPU 1 instructions: 230000003 cycles: 1529291516 heartbeat IPC: 0.0203636 cumulative IPC: 0.0205702 (Simulation time: 96 hr 13 min 45 sec) 
 Total Blocks : 196608 Invalid Blocks : 0 Valid Blocks : 196608
 Total Tags : 491520 Threshold : 12288 Invalid Tags : 196608 Pr0 Tags : 98304 Pr1 Tags : 196608 num_pr0 : 12288
 SAE Count : 0
 Inter-Core Inteference in Data Store : 35229773
Heartbeat CPU 2 instructions: 230000003 cycles: 1564688577 heartbeat IPC: 0.0203842 cumulative IPC: 0.0205642 (Simulation time: 96 hr 46 min 4 sec) 
 Total Blocks : 196608 Invalid Blocks : 0 Valid Blocks : 196608
 Total Tags : 491520 Threshold : 12288 Invalid Tags : 196608 Pr0 Tags : 98304 Pr1 Tags : 196608 num_pr0 : 12288
 SAE Count : 0
 Inter-Core Inteference in Data Store : 36206312
Heartbeat CPU 3 instructions: 230000003 cycles: 1595096521 heartbeat IPC: 0.0203352 cumulative IPC: 0.0205691 (Simulation time: 97 hr 12 min 38 sec) 
 Total Blocks : 196608 Invalid Blocks : 0 Valid Blocks : 196608
 Total Tags : 491520 Threshold : 12288 Invalid Tags : 196608 Pr0 Tags : 98304 Pr1 Tags : 196608 num_pr0 : 12288
 SAE Count : 0
 Inter-Core Inteference in Data Store : 37049512
Heartbeat CPU 4 instructions: 230000003 cycles: 1617803633 heartbeat IPC: 0.020374 cumulative IPC: 0.0206031 (Simulation time: 97 hr 31 min 59 sec) 
 Total Blocks : 196608 Invalid Blocks : 0 Valid Blocks : 196608
 Total Tags : 491520 Threshold : 12288 Invalid Tags : 196608 Pr0 Tags : 98304 Pr1 Tags : 196608 num_pr0 : 12288
 SAE Count : 0
 Inter-Core Inteference in Data Store : 37666679
Heartbeat CPU 5 instructions: 230000003 cycles: 1646046585 heartbeat IPC: 0.0203744 cumulative IPC: 0.0205922 (Simulation time: 97 hr 56 min 46 sec) 
 Total Blocks : 196608 Invalid Blocks : 0 Valid Blocks : 196608
 Total Tags : 491520 Threshold : 12288 Invalid Tags : 196608 Pr0 Tags : 98304 Pr1 Tags : 196608 num_pr0 : 12288
 SAE Count : 0
 Inter-Core Inteference in Data Store : 38442994
Heartbeat CPU 6 instructions: 230000003 cycles: 1666297122 heartbeat IPC: 0.0203915 cumulative IPC: 0.020607 (Simulation time: 98 hr 15 min 3 sec) 
 Total Blocks : 196608 Invalid Blocks : 0 Valid Blocks : 196608
 Total Tags : 491520 Threshold : 12288 Invalid Tags : 196608 Pr0 Tags : 98304 Pr1 Tags : 196608 num_pr0 : 12288
 SAE Count : 0
 Inter-Core Inteference in Data Store : 38986143
Heartbeat CPU 7 instructions: 230000003 cycles: 1688712767 heartbeat IPC: 0.0203226 cumulative IPC: 0.0205929 (Simulation time: 98 hr 34 min 41 sec) 
 Total Blocks : 196608 Invalid Blocks : 0 Valid Blocks : 196608
 Total Tags : 491520 Threshold : 12288 Invalid Tags : 196608 Pr0 Tags : 98304 Pr1 Tags : 196608 num_pr0 : 12288
 SAE Count : 0
 Inter-Core Inteference in Data Store : 39580990
Heartbeat CPU 0 instructions: 240000002 cycles: 1973940478 heartbeat IPC: 0.020445 cumulative IPC: 0.0205693 (Simulation time: 102 hr 44 min 53 sec) 
 Total Blocks : 196608 Invalid Blocks : 0 Valid Blocks : 196608
 Total Tags : 491520 Threshold : 12288 Invalid Tags : 196608 Pr0 Tags : 98304 Pr1 Tags : 196608 num_pr0 : 12288
 SAE Count : 0
 Inter-Core Inteference in Data Store : 47194562
Heartbeat CPU 1 instructions: 240000002 cycles: 2019004425 heartbeat IPC: 0.0204201 cumulative IPC: 0.0205291 (Simulation time: 103 hr 20 min 49 sec) 
 Total Blocks : 196608 Invalid Blocks : 0 Valid Blocks : 196608
 Total Tags : 491520 Threshold : 12288 Invalid Tags : 196608 Pr0 Tags : 98304 Pr1 Tags : 196608 num_pr0 : 12288
 SAE Count : 0
 Inter-Core Inteference in Data Store : 48390816
Heartbeat CPU 2 instructions: 240000002 cycles: 2053476823 heartbeat IPC: 0.0204588 cumulative IPC: 0.0205359 (Simulation time: 103 hr 47 min 58 sec) 
 Total Blocks : 196608 Invalid Blocks : 0 Valid Blocks : 196608
 Total Tags : 491520 Threshold : 12288 Invalid Tags : 196608 Pr0 Tags : 98304 Pr1 Tags : 196608 num_pr0 : 12288
 SAE Count : 0
 Inter-Core Inteference in Data Store : 49317995
Heartbeat CPU 3 instructions: 240000002 cycles: 2083405120 heartbeat IPC: 0.0204789 cumulative IPC: 0.0205453 (Simulation time: 104 hr 11 min 29 sec) 
 Total Blocks : 196608 Invalid Blocks : 0 Valid Blocks : 196608
 Total Tags : 491520 Threshold : 12288 Invalid Tags : 196608 Pr0 Tags : 98304 Pr1 Tags : 196608 num_pr0 : 12288
 SAE Count : 0
 Inter-Core Inteference in Data Store : 50110063
Heartbeat CPU 4 instructions: 240000002 cycles: 2105478315 heartbeat IPC: 0.0205055 cumulative IPC: 0.0205777 (Simulation time: 104 hr 28 min 41 sec) 
 Total Blocks : 196608 Invalid Blocks : 0 Valid Blocks : 196608
 Total Tags : 491520 Threshold : 12288 Invalid Tags : 196608 Pr0 Tags : 98304 Pr1 Tags : 196608 num_pr0 : 12288
 SAE Count : 0
 Inter-Core Inteference in Data Store : 50703807
Heartbeat CPU 5 instructions: 240000002 cycles: 2133292049 heartbeat IPC: 0.0205235 cumulative IPC: 0.0205746 (Simulation time: 104 hr 50 min 38 sec) 
 Total Blocks : 196608 Invalid Blocks : 0 Valid Blocks : 196608
 Total Tags : 491520 Threshold : 12288 Invalid Tags : 196608 Pr0 Tags : 98304 Pr1 Tags : 196608 num_pr0 : 12288
 SAE Count : 0
 Inter-Core Inteference in Data Store : 51434065
Heartbeat CPU 6 instructions: 240000002 cycles: 2153414788 heartbeat IPC: 0.0205289 cumulative IPC: 0.0205872 (Simulation time: 105 hr 6 min 36 sec) 
 Total Blocks : 196608 Invalid Blocks : 0 Valid Blocks : 196608
 Total Tags : 491520 Threshold : 12288 Invalid Tags : 196608 Pr0 Tags : 98304 Pr1 Tags : 196608 num_pr0 : 12288
 SAE Count : 0
 Inter-Core Inteference in Data Store : 51976787
Heartbeat CPU 7 instructions: 240000002 cycles: 2175082825 heartbeat IPC: 0.0205605 cumulative IPC: 0.0205848 (Simulation time: 105 hr 23 min 45 sec) 
 Total Blocks : 196608 Invalid Blocks : 0 Valid Blocks : 196608
 Total Tags : 491520 Threshold : 12288 Invalid Tags : 196608 Pr0 Tags : 98304 Pr1 Tags : 196608 num_pr0 : 12288
 SAE Count : 0
 Inter-Core Inteference in Data Store : 52561578
Heartbeat CPU 0 instructions: 250000000 cycles: 2448689649 heartbeat IPC: 0.0210638 cumulative IPC: 0.0206752 (Simulation time: 108 hr 49 min 2 sec) 
 Total Blocks : 196608 Invalid Blocks : 0 Valid Blocks : 196608
 Total Tags : 491520 Threshold : 12288 Invalid Tags : 196608 Pr0 Tags : 98304 Pr1 Tags : 196608 num_pr0 : 12288
 SAE Count : 0
 Inter-Core Inteference in Data Store : 59874653
Heartbeat CPU 1 instructions: 250000000 cycles: 2493968837 heartbeat IPC: 0.0210542 cumulative IPC: 0.0206393 (Simulation time: 109 hr 22 min 47 sec) 
 Total Blocks : 196608 Invalid Blocks : 0 Valid Blocks : 196608
 Total Tags : 491520 Threshold : 12288 Invalid Tags : 196608 Pr0 Tags : 98304 Pr1 Tags : 196608 num_pr0 : 12288
 SAE Count : 0
 Inter-Core Inteference in Data Store : 61114291
Heartbeat CPU 2 instructions: 250000000 cycles: 2528898240 heartbeat IPC: 0.021034 cumulative IPC: 0.020639 (Simulation time: 109 hr 48 min 52 sec) 
 Total Blocks : 196608 Invalid Blocks : 0 Valid Blocks : 196608
 Total Tags : 491520 Threshold : 12288 Invalid Tags : 196608 Pr0 Tags : 98304 Pr1 Tags : 196608 num_pr0 : 12288
 SAE Count : 0
 Inter-Core Inteference in Data Store : 62081080
Heartbeat CPU 3 instructions: 250000000 cycles: 2557604667 heartbeat IPC: 0.0210882 cumulative IPC: 0.020656 (Simulation time: 110 hr 10 min 56 sec) 
 Total Blocks : 196608 Invalid Blocks : 0 Valid Blocks : 196608
 Total Tags : 491520 Threshold : 12288 Invalid Tags : 196608 Pr0 Tags : 98304 Pr1 Tags : 196608 num_pr0 : 12288
 SAE Count : 0
 Inter-Core Inteference in Data Store : 62876917
Heartbeat CPU 4 instructions: 250000000 cycles: 2580368316 heartbeat IPC: 0.0210575 cumulative IPC: 0.0206747 (Simulation time: 110 hr 28 min 46 sec) 
 Total Blocks : 196608 Invalid Blocks : 0 Valid Blocks : 196608
 Total Tags : 491520 Threshold : 12288 Invalid Tags : 196608 Pr0 Tags : 98304 Pr1 Tags : 196608 num_pr0 : 12288
 SAE Count : 0
 Inter-Core Inteference in Data Store : 63501835
[...]
LLC4 PREFETCH  ACCESS: 23762062  HIT: 11142862  MISS: 12619200  HIT %: 46.8935  MISS %: 53.1065  AVERAGE MISS PENALTY: 416.546
LLC4 WRITEBACK ACCESS: 17013  HIT:  1575  MISS: 15438  HIT %: 9.25763  MISS %: 90.7424  AVERAGE MISS PENALTY: 0
LLC4 PREFETCH  REQUESTED:     0  ISSUED:     0  USEFUL: 5274184  USELESS: 24805224
 USEFUL LOAD PREFETCHES:    5274184 PREFETCH ISSUED TO LOWER LEVEL:  101164989  ACCURACY: 5.21345
 TIMELY PREFETCHES:    5274184 LATE PREFETCHES: 0 DROPPED PREFETCHES: 0
LLC4 AVERAGE MISS LATENCY: 413.648 cycles

LLC4 Set Associative Eviction Count : 0
LLC4 Priority 0 entries : 12288
LLC4 Inter-Core Interference : 30564432
LLC5 TOTAL     ACCESS: 27236783  HIT: 12974639  MISS: 14262144  HIT %: 47.6365  MISS %: 52.3635  AVERAGE MISS PENALTY: 402.977
LLC5 LOAD      ACCESS: 3881971  HIT: 1942460  MISS: 1939511  HIT %: 50.038  MISS %: 49.962  AVERAGE MISS PENALTY: 385.121
LLC5 RFO       ACCESS:  8176  HIT:  1253  MISS:  6923  HIT %: 15.3253  MISS %: 84.6747  AVERAGE MISS PENALTY: 393.535
LLC5 PREFETCH  ACCESS: 23329625  HIT: 11029386  MISS: 12300239  HIT %: 47.2763  MISS %: 52.7237  AVERAGE MISS PENALTY: 406.305
LLC5 WRITEBACK ACCESS: 17011  HIT:  1540  MISS: 15471  HIT %: 9.05297  MISS %: 90.947  AVERAGE MISS PENALTY: 0
LLC5 PREFETCH  REQUESTED:     0  ISSUED:     0  USEFUL: 5397889  USELESS: 24194251
 USEFUL LOAD PREFETCHES:    5397889 PREFETCH ISSUED TO LOWER LEVEL:   98611742  ACCURACY: 5.47388
 TIMELY PREFETCHES:    5397889 LATE PREFETCHES: 0 DROPPED PREFETCHES: 0
LLC5 AVERAGE MISS LATENCY: 402.977 cycles

LLC5 Set Associative Eviction Count : 0
LLC5 Priority 0 entries : 12288
LLC5 Inter-Core Interference : 30345547
LLC6 TOTAL     ACCESS: 26613736  HIT: 12759032  MISS: 13854704  HIT %: 47.9415  MISS %: 52.0585  AVERAGE MISS PENALTY: 405.157
LLC6 LOAD      ACCESS: 3900756  HIT: 1981162  MISS: 1919594  HIT %: 50.7892  MISS %: 49.2108  AVERAGE MISS PENALTY: 395.673
LLC6 RFO       ACCESS:  8178  HIT:  1367  MISS:  6811  HIT %: 16.7156  MISS %: 83.2844  AVERAGE MISS PENALTY: 425.946
LLC6 PREFETCH  ACCESS: 22687789  HIT: 10774847  MISS: 11912942  HIT %: 47.4918  MISS %: 52.5082  AVERAGE MISS PENALTY: 407.196
LLC6 WRITEBACK ACCESS: 17013  HIT:  1656  MISS: 15357  HIT %: 9.73373  MISS %: 90.2663  AVERAGE MISS PENALTY: 0
LLC6 PREFETCH  REQUESTED:     0  ISSUED:     0  USEFUL: 5265113  USELESS: 23856301
 USEFUL LOAD PREFETCHES:    5265113 PREFETCH ISSUED TO LOWER LEVEL:   95472721  ACCURACY: 5.51478
 TIMELY PREFETCHES:    5265113 LATE PREFETCHES: 0 DROPPED PREFETCHES: 0
LLC6 AVERAGE MISS LATENCY: 405.157 cycles

LLC6 Set Associative Eviction Count : 0
LLC6 Priority 0 entries : 12288
LLC6 Inter-Core Interference : 29893542
LLC7 TOTAL     ACCESS: 26186995  HIT: 12680238  MISS: 13506757  HIT %: 48.4219  MISS %: 51.5781  AVERAGE MISS PENALTY: 396.023
LLC7 LOAD      ACCESS: 3774794  HIT: 1859421  MISS: 1915373  HIT %: 49.2589  MISS %: 50.7411  AVERAGE MISS PENALTY: 382.876
LLC7 RFO       ACCESS:  8178  HIT:  1300  MISS:  6878  HIT %: 15.8963  MISS %: 84.1037  AVERAGE MISS PENALTY: 410.973
LLC7 PREFETCH  ACCESS: 22387009  HIT: 10817886  MISS: 11569123  HIT %: 48.3222  MISS %: 51.6778  AVERAGE MISS PENALTY: 398.717
LLC7 WRITEBACK ACCESS: 17014  HIT:  1631  MISS: 15383  HIT %: 9.58622  MISS %: 90.4138  AVERAGE MISS PENALTY: 0
LLC7 PREFETCH  REQUESTED:     0  ISSUED:     0  USEFUL: 5209675  USELESS: 23928380
 USEFUL LOAD PREFETCHES:    5209675 PREFETCH ISSUED TO LOWER LEVEL:   92776471  ACCURACY: 5.6153
 TIMELY PREFETCHES:    5209675 LATE PREFETCHES: 0 DROPPED PREFETCHES: 0
LLC7 AVERAGE MISS LATENCY: 396.023 cycles

LLC7 Set Associative Eviction Count : 0
LLC7 Priority 0 entries : 12288
LLC7 Inter-Core Interference : 29908900
ROI Average ROB Stall Cycles:	214.136
ROI Total ROB Stalls Cycles:	9136642069
ROI TOTAL ROB counter      :	42667543
ROI Average Load ROB Stall Cycles:	255.465
ROI Total Load ROB Stalls Cycle  :	8989814624
ROI Total Load ROB stalls Counter:	35189983
Major fault: 0 Minor fault: 34813

CPU 7 cumulative IPC: 0.0217912 instructions: 200000000 cycles: 9178029444
ITLB TOTAL     ACCESS: 34308867  HIT: 34308867  MISS:     0  HIT %:   100  MISS %:     0  AVERAGE MISS PENALTY: 0
ITLB LOAD      ACCESS: 34308867  HIT: 34308867  MISS:     0  HIT %:   100  MISS %:     0  AVERAGE MISS PENALTY: 0
ITLB RFO       ACCESS:     0  HIT:     0  MISS:     0  HIT %:     0  MISS %:     0  AVERAGE MISS PENALTY: 0
ITLB PREFETCH  ACCESS:     0  HIT:     0  MISS:     0  HIT %:     0  MISS %:     0  AVERAGE MISS PENALTY: 0
ITLB WRITEBACK ACCESS:     0  HIT:     0  MISS:     0  HIT %:     0  MISS %:     0  AVERAGE MISS PENALTY: 0
ITLB PREFETCH  REQUESTED:     0  ISSUED:     0  USEFUL:     0  USELESS:     0
 USEFUL LOAD PREFETCHES:          0 PREFETCH ISSUED TO LOWER LEVEL:          0  ACCURACY: -nan
 TIMELY PREFETCHES:          0 LATE PREFETCHES: 0 DROPPED PREFETCHES: 0
ITLB AVERAGE MISS LATENCY: -nan cycles

ITLB Set Associative Eviction Count : 0
ITLB Priority 0 entries : 0
ITLB Inter-Core Interference : 0
DTLB TOTAL     ACCESS: 78278233  HIT: 55351300  MISS: 22926933  HIT %: 70.711  MISS %: 29.289  AVERAGE MISS PENALTY: 9.18613
DTLB LOAD      ACCESS: 75578493  HIT: 52656546  MISS: 22921947  HIT %: 69.6713  MISS %: 30.3287  AVERAGE MISS PENALTY: 9.18256
DTLB RFO       ACCESS: 2699740  HIT: 2694754  MISS:  4986  HIT %: 99.8153  MISS %: 0.184684  AVERAGE MISS PENALTY: 25.5704
DTLB PREFETCH  ACCESS:     0  HIT:     0  MISS:     0  HIT %:     0  MISS %:     0  AVERAGE MISS PENALTY: 0
DTLB WRITEBACK ACCESS:     0  HIT:     0  MISS:     0  HIT %:     0  MISS %:     0  AVERAGE MISS PENALTY: 0
DTLB PREFETCH  REQUESTED:     0  ISSUED:     0  USEFUL:     0  USELESS:     0
 USEFUL LOAD PREFETCHES:          0 PREFETCH ISSUED TO LOWER LEVEL:          0  ACCURACY: -nan
 TIMELY PREFETCHES:          0 LATE PREFETCHES: 0 DROPPED PREFETCHES: 0
DTLB AVERAGE MISS LATENCY: 9.18613 cycles

DTLB Set Associative Eviction Count : 0
DTLB Priority 0 entries : 0
DTLB Inter-Core Interference : 0
STLB TOTAL     ACCESS: 22926933  HIT: 22886117  MISS: 40816  HIT %: 99.822  MISS %: 0.178026  AVERAGE MISS PENALTY: 100
STLB LOAD      ACCESS: 22921947  HIT: 22881889  MISS: 40058  HIT %: 99.8252  MISS %: 0.174758  AVERAGE MISS PENALTY: 100
STLB RFO       ACCESS:  4986  HIT:  4228  MISS:   758  HIT %: 84.7974  MISS %: 15.2026  AVERAGE MISS PENALTY: 100
STLB PREFETCH  ACCESS:     0  HIT:     0  MISS:     0  HIT %:     0  MISS %:     0  AVERAGE MISS PENALTY: 0
STLB WRITEBACK ACCESS:     0  HIT:     0  MISS:     0  HIT %:     0  MISS %:     0  AVERAGE MISS PENALTY: 0
STLB PREFETCH  REQUESTED:     0  ISSUED:     0  USEFUL:     0  USELESS:     0
 USEFUL LOAD PREFETCHES:          0 PREFETCH ISSUED TO LOWER LEVEL:          0  ACCURACY: -nan
 TIMELY PREFETCHES:          0 LATE PREFETCHES: 0 DROPPED PREFETCHES: 0
STLB AVERAGE MISS LATENCY: 100 cycles

STLB Set Associative Eviction Count : 0
STLB Priority 0 entries : 0
STLB Inter-Core Interference : 0
L1D TOTAL     ACCESS: 197517837  HIT: 41951662  MISS: 155566175  HIT %: 21.2394  MISS %: 78.7606  AVERAGE MISS PENALTY: 3.053e+07
L1D LOAD      ACCESS: 66729221  HIT: 34399308  MISS: 32329913  HIT %: 51.5506  MISS %: 48.4494  AVERAGE MISS PENALTY: 1.46904e+08
L1D RFO       ACCESS: 2495879  HIT: 2430318  MISS: 65561  HIT %: 97.3732  MISS %: 2.62677  AVERAGE MISS PENALTY: 411.607
L1D PREFETCH  ACCESS: 128292737  HIT: 5122036  MISS: 123170701  HIT %: 3.99246  MISS %: 96.0075  AVERAGE MISS PENALTY: 301.717
L1D WRITEBACK ACCESS:     0  HIT:     0  MISS:     0  HIT %:     0  MISS %:     0  AVERAGE MISS PENALTY: 0
L1D PREFETCH  REQUESTED: 131915014  ISSUED: 131747383  USEFUL: 3362765  USELESS: 119807928
 USEFUL LOAD PREFETCHES:    3362765 PREFETCH ISSUED TO LOWER LEVEL:  140611929  ACCURACY: 2.39152
 TIMELY PREFETCHES:    3362765 LATE PREFETCHES: 985674 DROPPED PREFETCHES: 167631
L1D AVERAGE MISS LATENCY: 271.146 cycles

L1D Set Associative Eviction Count : 0
L1D Priority 0 entries : 0
L1D Inter-Core Interference : 0
L1I TOTAL     ACCESS: 36055196  HIT: 36055183  MISS:    13  HIT %:   100  MISS %: 3.60558e-05  AVERAGE MISS PENALTY: 345.385
L1I LOAD      ACCESS: 36055196  HIT: 36055183  MISS:    13  HIT %:   100  MISS %: 3.60558e-05  AVERAGE MISS PENALTY: 345.385
L1I RFO       ACCESS:     0  HIT:     0  MISS:     0  HIT %:     0  MISS %:     0  AVERAGE MISS PENALTY: 0
L1I PREFETCH  ACCESS:     0  HIT:     0  MISS:     0  HIT %:     0  MISS %:     0  AVERAGE MISS PENALTY: 0
L1I WRITEBACK ACCESS:     0  HIT:     0  MISS:     0  HIT %:     0  MISS %:     0  AVERAGE MISS PENALTY: 0
L1I PREFETCH  REQUESTED:     0  ISSUED:     0  USEFUL:     0  USELESS:     0
 USEFUL LOAD PREFETCHES:          0 PREFETCH ISSUED TO LOWER LEVEL:          0  ACCURACY: -nan
 TIMELY PREFETCHES:          0 LATE PREFETCHES: 0 DROPPED PREFETCHES: 0
L1I AVERAGE MISS LATENCY: 345.385 cycles

L1I Set Associative Eviction Count : 0
L1I Priority 0 entries : 0
L1I Inter-Core Interference : 13
L2C TOTAL     ACCESS: 230030689  HIT: 8658074  MISS: 221372615  HIT %: 3.76388  MISS %: 96.2361  AVERAGE MISS PENALTY: 2.52967e+07
L2C LOAD      ACCESS: 32295597  HIT: 774158  MISS: 31521439  HIT %: 2.3971  MISS %: 97.6029  AVERAGE MISS PENALTY: 1.77655e+08
L2C RFO       ACCESS: 65561  HIT:   131  MISS: 65430  HIT %: 0.199814  MISS %: 99.8002  AVERAGE MISS PENALTY: 397.177
L2C PREFETCH  ACCESS: 197462580  HIT: 7677004  MISS: 189785576  HIT %: 3.88783  MISS %: 96.1122  AVERAGE MISS PENALTY: 273.564
L2C WRITEBACK ACCESS: 206951  HIT: 206781  MISS:   170  HIT %: 99.9179  MISS %: 0.082145  AVERAGE MISS PENALTY: 0
L2C PREFETCH  REQUESTED: 298847448  ISSUED: 298842543  USEFUL: 544958  USELESS: 189240411
 USEFUL LOAD PREFETCHES:     544958 PREFETCH ISSUED TO LOWER LEVEL:  194099963  ACCURACY: 0.280762
 TIMELY PREFETCHES:     544958 LATE PREFETCHES: 1243909 DROPPED PREFETCHES: 4905
L2C AVERAGE MISS LATENCY: 267.6 cycles

L2C Set Associative Eviction Count : 0
L2C Priority 0 entries : 0
L2C Inter-Core Interference : 0
LLC0 TOTAL     ACCESS: 28505935  HIT: 13292108  MISS: 15213827  HIT %: 46.6293  MISS %: 53.3707  AVERAGE MISS PENALTY: 472.297
LLC0 LOAD      ACCESS: 3849301  HIT: 1862475  MISS: 1986826  HIT %: 48.3848  MISS %: 51.6152  AVERAGE MISS PENALTY: 457.896
LLC0 RFO       ACCESS:  8180  HIT:  1245  MISS:  6935  HIT %: 15.22  MISS %: 84.78  AVERAGE MISS PENALTY: 410.775
LLC0 PREFETCH  ACCESS: 24631425  HIT: 11426887  MISS: 13204538  HIT %: 46.3915  MISS %: 53.6085  AVERAGE MISS PENALTY: 475.051
LLC0 WRITEBACK ACCESS: 17029  HIT:  1501  MISS: 15528  HIT %: 8.81438  MISS %: 91.1856  AVERAGE MISS PENALTY: 0
LLC0 PREFETCH  REQUESTED:     0  ISSUED:     0  USEFUL: 5429141  USELESS: 25913741
 USEFUL LOAD PREFETCHES:    5429141 PREFETCH ISSUED TO LOWER LEVEL:  105791785  ACCURACY: 5.13191
 TIMELY PREFETCHES:    5429141 LATE PREFETCHES: 0 DROPPED PREFETCHES: 0
LLC0 AVERAGE MISS LATENCY: 472.297 cycles

LLC0 Set Associative Eviction Count : 0
LLC0 Priority 0 entries : 12288
LLC0 Inter-Core Interference : 31808459
LLC1 TOTAL     ACCESS: 28979577  HIT: 13489261  MISS: 15490316  HIT %: 46.5475  MISS %: 53.4525  AVERAGE MISS PENALTY: 468.993
LLC1 LOAD      ACCESS: 3937750  HIT: 1966346  MISS: 1971404  HIT %: 49.9358  MISS %: 50.0642  AVERAGE MISS PENALTY: 455.014
LLC1 RFO       ACCESS:  8180  HIT:  1199  MISS:  6981  HIT %: 14.6577  MISS %: 85.3423  AVERAGE MISS PENALTY: 413.422
LLC1 PREFETCH  ACCESS: 25016618  HIT: 11520260  MISS: 13496358  HIT %: 46.0504  MISS %: 53.9496  AVERAGE MISS PENALTY: 471.605
LLC1 WRITEBACK ACCESS: 17029  HIT:  1456  MISS: 15573  HIT %: 8.55012  MISS %: 91.4499  AVERAGE MISS PENALTY: 0
LLC1 PREFETCH  REQUESTED:     0  ISSUED:     0  USEFUL: 5502727  USELESS: 26332037
 USEFUL LOAD PREFETCHES:    5502727 PREFETCH ISSUED TO LOWER LEVEL:  108209389  ACCURACY: 5.08526
 TIMELY PREFETCHES:    5502727 LATE PREFETCHES: 0 DROPPED PREFETCHES: 0
LLC1 AVERAGE MISS LATENCY: 468.993 cycles

LLC1 Set Associative Eviction Count : 0
LLC1 Priority 0 entries : 12288
LLC1 Inter-Core Interference : 32316150
LLC2 TOTAL     ACCESS: 28552814  HIT: 13253169  MISS: 15299645  HIT %: 46.4163  MISS %: 53.5837  AVERAGE MISS PENALTY: 460.605
LLC2 LOAD      ACCESS: 3693158  HIT: 1781151  MISS: 1912007  HIT %: 48.2284  MISS %: 51.7716  AVERAGE MISS PENALTY: 457.028
LLC2 RFO       ACCESS:  8179  HIT:  1242  MISS:  6937  HIT %: 15.1852  MISS %: 84.8148  AVERAGE MISS PENALTY: 489.858
LLC2 PREFETCH  ACCESS: 24834447  HIT: 11469274  MISS: 13365173  HIT %: 46.1829  MISS %: 53.8171  AVERAGE MISS PENALTY: 461.637
LLC2 WRITEBACK ACCESS: 17030  HIT:  1502  MISS: 15528  HIT %: 8.81973  MISS %: 91.1803  AVERAGE MISS PENALTY: 0
LLC2 PREFETCH  REQUESTED:     0  ISSUED:     0  USEFUL: 5352507  USELESS: 26166837
 USEFUL LOAD PREFETCHES:    5352507 PREFETCH ISSUED TO LOWER LEVEL:  107151105  ACCURACY: 4.99529
 TIMELY PREFETCHES:    5352507 LATE PREFETCHES: 0 DROPPED PREFETCHES: 0
LLC2 AVERAGE MISS LATENCY: 460.605 cycles

LLC2 Set Associative Eviction Count : 0
LLC2 Priority 0 entries : 12288
LLC2 Inter-Core Interference : 31853075
LLC3 TOTAL     ACCESS: 28008976  HIT: 13136421  MISS: 14872555  HIT %: 46.9008  MISS %: 53.0992  AVERAGE MISS PENALTY: 457.567
LLC3 LOAD      ACCESS: 3889537  HIT: 1943576  MISS: 1945961  HIT %: 49.9693  MISS %: 50.0307  AVERAGE MISS PENALTY: 454.487
LLC3 RFO       ACCESS:  8179  HIT:  1286  MISS:  6893  HIT %: 15.7232  MISS %: 84.2768  AVERAGE MISS PENALTY: 480.547
LLC3 PREFETCH  ACCESS: 24094230  HIT: 11190024  MISS: 12904206  HIT %: 46.4428  MISS %: 53.5572  AVERAGE MISS PENALTY: 458.569
LLC3 WRITEBACK ACCESS: 17030  HIT:  1535  MISS: 15495  HIT %: 9.01351  MISS %: 90.9865  AVERAGE MISS PENALTY: 0
LLC3 PREFETCH  REQUESTED:     0  ISSUED:     0  USEFUL: 5361582  USELESS: 25164323
 USEFUL LOAD PREFETCHES:    5361582 PREFETCH ISSUED TO LOWER LEVEL:  103463815  ACCURACY: 5.18208
 TIMELY PREFETCHES:    5361582 LATE PREFETCHES: 0 DROPPED PREFETCHES: 0
LLC3 AVERAGE MISS LATENCY: 457.567 cycles

LLC3 Set Associative Eviction Count : 0
LLC3 Priority 0 entries : 12288
LLC3 Inter-Core Interference : 31144393
LLC4 TOTAL     ACCESS: 27422632  HIT: 12899294  MISS: 14523338  HIT %: 47.0389  MISS %: 52.9611  AVERAGE MISS PENALTY: 413.555
LLC4 LOAD      ACCESS: 3634494  HIT: 1753148  MISS: 1881346  HIT %: 48.2364  MISS %: 51.7636  AVERAGE MISS PENALTY: 397.515
LLC4 RFO       ACCESS:  8179  HIT:  1286  MISS:  6893  HIT %: 15.7232  MISS %: 84.2768  AVERAGE MISS PENALTY: 395.408
LLC4 PREFETCH  ACCESS: 23762931  HIT: 11143307  MISS: 12619624  HIT %: 46.8937  MISS %: 53.1063  AVERAGE MISS PENALTY: 416.463
LLC4 WRITEBACK ACCESS: 17028  HIT:  1553  MISS: 15475  HIT %: 9.12027  MISS %: 90.8797  AVERAGE MISS PENALTY: 0
LLC4 PREFETCH  REQUESTED:     0  ISSUED:     0  USEFUL: 5274184  USELESS: 24805224
 USEFUL LOAD PREFETCHES:    5274184 PREFETCH ISSUED TO LOWER LEVEL:  101164989  ACCURACY: 5.21345
 TIMELY PREFETCHES:    5274184 LATE PREFETCHES: 0 DROPPED PREFETCHES: 0
LLC4 AVERAGE MISS LATENCY: 413.555 cycles

LLC4 Set Associative Eviction Count : 0
LLC4 Priority 0 entries : 12288
LLC4 Inter-Core Interference : 30564432
LLC5 TOTAL     ACCESS: 27237300  HIT: 12968482  MISS: 14268818  HIT %: 47.6129  MISS %: 52.3871  AVERAGE MISS PENALTY: 402.882
LLC5 LOAD      ACCESS: 3881983  HIT: 1939545  MISS: 1942438  HIT %: 49.9627  MISS %: 50.0373  AVERAGE MISS PENALTY: 385.421
LLC5 RFO       ACCESS:  8177  HIT:  1210  MISS:  6967  HIT %: 14.7976  MISS %: 85.2024  AVERAGE MISS PENALTY: 380.206
LLC5 PREFETCH  ACCESS: 23330113  HIT: 11026200  MISS: 12303913  HIT %: 47.2617  MISS %: 52.7383  AVERAGE MISS PENALTY: 406.159
LLC5 WRITEBACK ACCESS: 17027  HIT:  1527  MISS: 15500  HIT %: 8.96811  MISS %: 91.0319  AVERAGE MISS PENALTY: 0
LLC5 PREFETCH  REQUESTED:     0  ISSUED:     0  USEFUL: 5397889  USELESS: 24194251
 USEFUL LOAD PREFETCHES:    5397889 PREFETCH ISSUED TO LOWER LEVEL:   98611742  ACCURACY: 5.47388
 TIMELY PREFETCHES:    5397889 LATE PREFETCHES: 0 DROPPED PREFETCHES: 0
LLC5 AVERAGE MISS LATENCY: 402.882 cycles

LLC5 Set Associative Eviction Count : 0
LLC5 Priority 0 entries : 12288
LLC5 Inter-Core Interference : 30345547
LLC6 TOTAL     ACCESS: 26614132  HIT: 12757829  MISS: 13856303  HIT %: 47.9363  MISS %: 52.0637  AVERAGE MISS PENALTY: 405.145
LLC6 LOAD      ACCESS: 3900536  HIT: 1980430  MISS: 1920106  HIT %: 50.7733  MISS %: 49.2267  AVERAGE MISS PENALTY: 395.901
LLC6 RFO       ACCESS:  8178  HIT:  1332  MISS:  6846  HIT %: 16.2876  MISS %: 83.7124  AVERAGE MISS PENALTY: 415.23
LLC6 PREFETCH  ACCESS: 22688389  HIT: 10774449  MISS: 11913940  HIT %: 47.4888  MISS %: 52.5112  AVERAGE MISS PENALTY: 407.153
LLC6 WRITEBACK ACCESS: 17029  HIT:  1618  MISS: 15411  HIT %: 9.50144  MISS %: 90.4986  AVERAGE MISS PENALTY: 0
LLC6 PREFETCH  REQUESTED:     0  ISSUED:     0  USEFUL: 5265113  USELESS: 23856301
 USEFUL LOAD PREFETCHES:    5265113 PREFETCH ISSUED TO LOWER LEVEL:   95472721  ACCURACY: 5.51478
 TIMELY PREFETCHES:    5265113 LATE PREFETCHES: 0 DROPPED PREFETCHES: 0
LLC6 AVERAGE MISS LATENCY: 405.145 cycles

LLC6 Set Associative Eviction Count : 0
LLC6 Priority 0 entries : 12288
LLC6 Inter-Core Interference : 29893542
LLC7 TOTAL     ACCESS: 26187310  HIT: 12677736  MISS: 13509574  HIT %: 48.4118  MISS %: 51.5882  AVERAGE MISS PENALTY: 396.099
LLC7 LOAD      ACCESS: 3774720  HIT: 1857779  MISS: 1916941  HIT %: 49.2163  MISS %: 50.7837  AVERAGE MISS PENALTY: 382.774
LLC7 RFO       ACCESS:  8178  HIT:  1317  MISS:  6861  HIT %: 16.1042  MISS %: 83.8958  AVERAGE MISS PENALTY: 398.876
LLC7 PREFETCH  ACCESS: 22387382  HIT: 10817039  MISS: 11570343  HIT %: 48.3176  MISS %: 51.6824  AVERAGE MISS PENALTY: 398.834
LLC7 WRITEBACK ACCESS: 17030  HIT:  1601  MISS: 15429  HIT %: 9.40106  MISS %: 90.5989  AVERAGE MISS PENALTY: 0
LLC7 PREFETCH  REQUESTED:     0  ISSUED:     0  USEFUL: 5209675  USELESS: 23928380
 USEFUL LOAD PREFETCHES:    5209675 PREFETCH ISSUED TO LOWER LEVEL:   92776471  ACCURACY: 5.6153
 TIMELY PREFETCHES:    5209675 LATE PREFETCHES: 0 DROPPED PREFETCHES: 0
LLC7 AVERAGE MISS LATENCY: 396.099 cycles

LLC7 Set Associative Eviction Count : 0
LLC7 Priority 0 entries : 12288
LLC7 Inter-Core Interference : 29908900
ROI Average ROB Stall Cycles:	214.203
ROI Total ROB Stalls Cycles:	9139415698
ROI TOTAL ROB counter      :	42667013
ROI Average Load ROB Stall Cycles:	255.549
ROI Total Load ROB Stalls Cycle  :	8992753640
ROI Total Load ROB stalls Counter:	35189929
Major fault: 0 Minor fault: 34813








Interconnect Stats 
LINK 0 BW : 0LINK 1 BW : 0LINK 2 BW : 0LINK 3 BW : 0LINK 4 BW : 0LINK 5 BW : 0LINK 6 BW : 0LINK 7 BW : 0
DRAM Statistics
 CHANNEL 0
 RQ ROW_BUFFER_HIT: 128421417  ROW_BUFFER_MISS: 343066463
 DBUS_CONGESTED: 203985930
 WQ ROW_BUFFER_HIT: 37381  ROW_BUFFER_MISS: 507624  FULL:     0

 CHANNEL 1
 RQ ROW_BUFFER_HIT: 125241657  ROW_BUFFER_MISS: 340349160
 DBUS_CONGESTED: 203985930
 WQ ROW_BUFFER_HIT: 37208  ROW_BUFFER_MISS: 507801  FULL:     0

 AVG_CONGESTED_CYCLE: 4
DRAM PAGES: 2097152
Allocated PAGES: 278504
L2C destructor called
L1D destructor called
L1I destructor called
STLB destructor called
DTLB destructor called
ITLB destructor called
L2C destructor called
L1D destructor called
L1I destructor called
STLB destructor called
DTLB destructor called
ITLB destructor called
L2C destructor called
L1D destructor called
L1I destructor called
STLB destructor called
DTLB destructor called
ITLB destructor called
L2C destructor called
L1D destructor called
L1I destructor called
STLB destructor called
DTLB destructor called
ITLB destructor called
L2C destructor called
L1D destructor called
L1I destructor called
STLB destructor called
DTLB destructor called
ITLB destructor called
L2C destructor called
L1D destructor called
L1I destructor called
STLB destructor called
DTLB destructor called
ITLB destructor called
L2C destructor called
L1D destructor called
L1I destructor called
STLB destructor called
DTLB destructor called
ITLB destructor called
L2C destructor called
L1D destructor called
L1I destructor called
STLB destructor called
DTLB destructor called
ITLB destructor called
