
*** ChampSim Multicore Out-of-Order Simulator ***

Warmup Instructions: 200000000
Simulation Instructions: 200000000
Number of CPUs: 8
threads:1

L1I Configuration:
L1I_SET:64
L1I_WAY:8
L1I_RQ_SIZE:64
L1I_WQ_SIZE:64
L1I_PQ_SIZE:8
L1I_MSHR_SIZE:8

L1D Configuration:
L1D_SET:64
L1D_WAY:12
L1D_RQ_SIZE:64
L1D_WQ_SIZE:64
L1D_PQ_SIZE:8
L1D_MSHR_SIZE:16

L2C Configuration:
L2C_SET:1024
L2C_WAY:8
L2C_RQ_SIZE:32
L2C_WQ_SIZE:32
L2C_PQ_SIZE:16
L2C_MSHR_SIZE:32

LLC Configuration:
LLC_SET:2048
LLC_WAY:12
LLC SLICES:8
LLC_RQ_SIZE:64
LLC_WQ_SIZE:64
LLC_PQ_SIZE:32
LLC_MSHR_SIZE:64

Interconnect OFF
Attacker deprioritize is: OFF
Off-chip DRAM Size: 8192 MB Channels: 2 Width: 64-bit Data Rate: 3200 MT/s
PAGE SIZE in KB: 4.000000 
PAGE SIZE in MB: 0.003906 
PAGE offset in bits: 12 
CEASER-S_LLC:0
MIRAGE : 1
CEASER_LATENCY:3
REMAP : OFF
Partitions : 1
Multi-Step : OFF
BFS : OFF

CPU 0 runs /home/anubhav/gap/sssp-3.trace.gz
CPU 1 runs /home/anubhav/gap/sssp-3.trace.gz
CPU 2 runs /home/anubhav/gap/sssp-3.trace.gz
CPU 3 runs /home/anubhav/gap/sssp-3.trace.gz
CPU 4 runs /home/anubhav/gap/sssp-3.trace.gz
CPU 5 runs /home/anubhav/gap/sssp-3.trace.gz
CPU 6 runs /home/anubhav/gap/sssp-3.trace.gz
CPU 7 runs /home/anubhav/gap/sssp-3.trace.gz
CPU 0 Bimodal branch predictor
Initialize Hawkeye state
Initialize Hawkeye state
Initialize Hawkeye state
Initialize Hawkeye state
Initialize Hawkeye state
Initialize Hawkeye state
Initialize Hawkeye state
Initialize Hawkeye state
CPU 1 Bimodal branch predictor
Initialize Hawkeye state
Initialize Hawkeye state
Initialize Hawkeye state
Initialize Hawkeye state
Initialize Hawkeye state
Initialize Hawkeye state
Initialize Hawkeye state
Initialize Hawkeye state
CPU 2 Bimodal branch predictor
Initialize Hawkeye state
Initialize Hawkeye state
Initialize Hawkeye state
Initialize Hawkeye state
Initialize Hawkeye state
Initialize Hawkeye state
Initialize Hawkeye state
Initialize Hawkeye state
CPU 3 Bimodal branch predictor
Initialize Hawkeye state
Initialize Hawkeye state
Initialize Hawkeye state
Initialize Hawkeye state
Initialize Hawkeye state
Initialize Hawkeye state
Initialize Hawkeye state
Initialize Hawkeye state
CPU 4 Bimodal branch predictor
Initialize Hawkeye state
Initialize Hawkeye state
Initialize Hawkeye state
Initialize Hawkeye state
Initialize Hawkeye state
Initialize Hawkeye state
Initialize Hawkeye state
Initialize Hawkeye state
CPU 5 Bimodal branch predictor
Initialize Hawkeye state
Initialize Hawkeye state
Initialize Hawkeye state
Initialize Hawkeye state
Initialize Hawkeye state
Initialize Hawkeye state
Initialize Hawkeye state
Initialize Hawkeye state
CPU 6 Bimodal branch predictor
Initialize Hawkeye state
Initialize Hawkeye state
Initialize Hawkeye state
Initialize Hawkeye state
Initialize Hawkeye state
Initialize Hawkeye state
Initialize Hawkeye state
Initialize Hawkeye state
CPU 7 Bimodal branch predictor
Initialize Hawkeye state
Initialize Hawkeye state
Initialize Hawkeye state
Initialize Hawkeye state
Initialize Hawkeye state
Initialize Hawkeye state
Initialize Hawkeye state
Initialize Hawkeye state
FILL
Heartbeat CPU 0 instructions: 10000001 cycles: 7246009 heartbeat IPC: 1.38007 cumulative IPC: 1.38007 (Simulation time: 0 hr 33 min 42 sec) 
 Total Blocks : 196608 Invalid Blocks : 126 Valid Blocks : 196482
 Total Tags : 491520 Threshold : 12288 Invalid Tags : 196734 Pr0 Tags : 98304 Pr1 Tags : 196482 num_pr0 : 12288
 SAE Count : 0
 Inter-Core Inteference in Data Store : 1109173
Heartbeat CPU 1 instructions: 10000001 cycles: 7248987 heartbeat IPC: 1.3795 cumulative IPC: 1.3795 (Simulation time: 0 hr 33 min 42 sec) 
 Total Blocks : 196608 Invalid Blocks : 125 Valid Blocks : 196483
 Total Tags : 491520 Threshold : 12288 Invalid Tags : 196736 Pr0 Tags : 98301 Pr1 Tags : 196483 num_pr0 : 12288
 SAE Count : 0
 Inter-Core Inteference in Data Store : 1109489
Heartbeat CPU 6 instructions: 10000001 cycles: 7249646 heartbeat IPC: 1.37938 cumulative IPC: 1.37938 (Simulation time: 0 hr 33 min 43 sec) 
 Total Blocks : 196608 Invalid Blocks : 124 Valid Blocks : 196484
 Total Tags : 491520 Threshold : 12288 Invalid Tags : 196736 Pr0 Tags : 98300 Pr1 Tags : 196484 num_pr0 : 12288
 SAE Count : 0
 Inter-Core Inteference in Data Store : 1109563
Heartbeat CPU 5 instructions: 10000001 cycles: 7250077 heartbeat IPC: 1.3793 cumulative IPC: 1.3793 (Simulation time: 0 hr 33 min 43 sec) 
 Total Blocks : 196608 Invalid Blocks : 124 Valid Blocks : 196484
 Total Tags : 491520 Threshold : 12288 Invalid Tags : 196735 Pr0 Tags : 98301 Pr1 Tags : 196484 num_pr0 : 12288
 SAE Count : 0
 Inter-Core Inteference in Data Store : 1109606
Heartbeat CPU 3 instructions: 10000001 cycles: 7250287 heartbeat IPC: 1.37926 cumulative IPC: 1.37926 (Simulation time: 0 hr 33 min 43 sec) 
 Total Blocks : 196608 Invalid Blocks : 124 Valid Blocks : 196484
 Total Tags : 491520 Threshold : 12288 Invalid Tags : 196735 Pr0 Tags : 98301 Pr1 Tags : 196484 num_pr0 : 12288
 SAE Count : 0
 Inter-Core Inteference in Data Store : 1109631
Heartbeat CPU 2 instructions: 10000001 cycles: 7250585 heartbeat IPC: 1.3792 cumulative IPC: 1.3792 (Simulation time: 0 hr 33 min 43 sec) 
 Total Blocks : 196608 Invalid Blocks : 124 Valid Blocks : 196484
 Total Tags : 491520 Threshold : 12288 Invalid Tags : 196732 Pr0 Tags : 98304 Pr1 Tags : 196484 num_pr0 : 12288
 SAE Count : 0
 Inter-Core Inteference in Data Store : 1109659
Heartbeat CPU 4 instructions: 10000001 cycles: 7250620 heartbeat IPC: 1.37919 cumulative IPC: 1.37919 (Simulation time: 0 hr 33 min 43 sec) 
 Total Blocks : 196608 Invalid Blocks : 124 Valid Blocks : 196484
 Total Tags : 491520 Threshold : 12288 Invalid Tags : 196733 Pr0 Tags : 98303 Pr1 Tags : 196484 num_pr0 : 12288
 SAE Count : 0
 Inter-Core Inteference in Data Store : 1109663
Heartbeat CPU 7 instructions: 10000001 cycles: 7251089 heartbeat IPC: 1.3791 cumulative IPC: 1.3791 (Simulation time: 0 hr 33 min 43 sec) 
 Total Blocks : 196608 Invalid Blocks : 124 Valid Blocks : 196484
 Total Tags : 491520 Threshold : 12288 Invalid Tags : 196737 Pr0 Tags : 98299 Pr1 Tags : 196484 num_pr0 : 12288
 SAE Count : 0
 Inter-Core Inteference in Data Store : 1109713
Heartbeat CPU 0 instructions: 20000000 cycles: 15716464 heartbeat IPC: 1.18057 cumulative IPC: 1.27255 (Simulation time: 1 hr 7 min 24 sec) 
 Total Blocks : 196608 Invalid Blocks : 0 Valid Blocks : 196608
 Total Tags : 491520 Threshold : 12288 Invalid Tags : 196608 Pr0 Tags : 98304 Pr1 Tags : 196608 num_pr0 : 12288
 SAE Count : 0
 Inter-Core Inteference in Data Store : 2174316
Heartbeat CPU 1 instructions: 20000000 cycles: 15722036 heartbeat IPC: 1.18021 cumulative IPC: 1.2721 (Simulation time: 1 hr 7 min 26 sec) 
 Total Blocks : 196608 Invalid Blocks : 0 Valid Blocks : 196608
 Total Tags : 491520 Threshold : 12288 Invalid Tags : 196608 Pr0 Tags : 98304 Pr1 Tags : 196608 num_pr0 : 12288
 SAE Count : 0
 Inter-Core Inteference in Data Store : 2176914
Heartbeat CPU 6 instructions: 20000000 cycles: 15725356 heartbeat IPC: 1.17984 cumulative IPC: 1.27183 (Simulation time: 1 hr 7 min 28 sec) 
 Total Blocks : 196608 Invalid Blocks : 0 Valid Blocks : 196608
 Total Tags : 491520 Threshold : 12288 Invalid Tags : 196609 Pr0 Tags : 98303 Pr1 Tags : 196608 num_pr0 : 12288
 SAE Count : 0
 Inter-Core Inteference in Data Store : 2178617
Heartbeat CPU 3 instructions: 20000000 cycles: 15725895 heartbeat IPC: 1.17986 cumulative IPC: 1.27179 (Simulation time: 1 hr 7 min 28 sec) 
 Total Blocks : 196608 Invalid Blocks : 0 Valid Blocks : 196608
 Total Tags : 491520 Threshold : 12288 Invalid Tags : 196608 Pr0 Tags : 98304 Pr1 Tags : 196608 num_pr0 : 12288
 SAE Count : 0
 Inter-Core Inteference in Data Store : 2178868
Heartbeat CPU 5 instructions: 20000000 cycles: 15725960 heartbeat IPC: 1.17982 cumulative IPC: 1.27178 (Simulation time: 1 hr 7 min 28 sec) 
 Total Blocks : 196608 Invalid Blocks : 0 Valid Blocks : 196608
 Total Tags : 491520 Threshold : 12288 Invalid Tags : 196609 Pr0 Tags : 98303 Pr1 Tags : 196608 num_pr0 : 12288
 SAE Count : 0
 Inter-Core Inteference in Data Store : 2178894
Heartbeat CPU 2 instructions: 20000000 cycles: 15727608 heartbeat IPC: 1.17966 cumulative IPC: 1.27165 (Simulation time: 1 hr 7 min 29 sec) 
 Total Blocks : 196608 Invalid Blocks : 0 Valid Blocks : 196608
 Total Tags : 491520 Threshold : 12288 Invalid Tags : 196608 Pr0 Tags : 98304 Pr1 Tags : 196608 num_pr0 : 12288
 SAE Count : 0
 Inter-Core Inteference in Data Store : 2179571
Heartbeat CPU 4 instructions: 20000000 cycles: 15728106 heartbeat IPC: 1.17959 cumulative IPC: 1.27161 (Simulation time: 1 hr 7 min 29 sec) 
 Total Blocks : 196608 Invalid Blocks : 0 Valid Blocks : 196608
 Total Tags : 491520 Threshold : 12288 Invalid Tags : 196608 Pr0 Tags : 98304 Pr1 Tags : 196608 num_pr0 : 12288
 SAE Count : 0
 Inter-Core Inteference in Data Store : 2179761
Heartbeat CPU 7 instructions: 20000000 cycles: 15729264 heartbeat IPC: 1.1795 cumulative IPC: 1.27152 (Simulation time: 1 hr 7 min 30 sec) 
 Total Blocks : 196608 Invalid Blocks : 0 Valid Blocks : 196608
 Total Tags : 491520 Threshold : 12288 Invalid Tags : 196608 Pr0 Tags : 98304 Pr1 Tags : 196608 num_pr0 : 12288
 SAE Count : 0
 Inter-Core Inteference in Data Store : 2180131
FILL
Heartbeat CPU 0 instructions: 30000001 cycles: 23334869 heartbeat IPC: 1.31261 cumulative IPC: 1.28563 (Simulation time: 1 hr 59 min 58 sec) 
 Total Blocks : 196608 Invalid Blocks : 0 Valid Blocks : 196608
 Total Tags : 491520 Threshold : 12288 Invalid Tags : 196608 Pr0 Tags : 98304 Pr1 Tags : 196608 num_pr0 : 12288
 SAE Count : 0
 Inter-Core Inteference in Data Store : 4935487
Heartbeat CPU 1 instructions: 30000001 cycles: 23341424 heartbeat IPC: 1.31244 cumulative IPC: 1.28527 (Simulation time: 2 hr 0 min 2 sec) 
 Total Blocks : 196608 Invalid Blocks : 0 Valid Blocks : 196608
 Total Tags : 491520 Threshold : 12288 Invalid Tags : 196608 Pr0 Tags : 98304 Pr1 Tags : 196608 num_pr0 : 12288
 SAE Count : 0
 Inter-Core Inteference in Data Store : 4938842
Heartbeat CPU 3 instructions: 30000001 cycles: 23348297 heartbeat IPC: 1.31192 cumulative IPC: 1.28489 (Simulation time: 2 hr 0 min 6 sec) 
 Total Blocks : 196608 Invalid Blocks : 0 Valid Blocks : 196608
 Total Tags : 491520 Threshold : 12288 Invalid Tags : 196608 Pr0 Tags : 98304 Pr1 Tags : 196608 num_pr0 : 12288
 SAE Count : 0
 Inter-Core Inteference in Data Store : 4941959
Heartbeat CPU 2 instructions: 30000001 cycles: 23349240 heartbeat IPC: 1.31206 cumulative IPC: 1.28484 (Simulation time: 2 hr 0 min 6 sec) 
 Total Blocks : 196608 Invalid Blocks : 0 Valid Blocks : 196608
 Total Tags : 491520 Threshold : 12288 Invalid Tags : 196608 Pr0 Tags : 98304 Pr1 Tags : 196608 num_pr0 : 12288
 SAE Count : 0
 Inter-Core Inteference in Data Store : 4942323
Heartbeat CPU 6 instructions: 30000001 cycles: 23349745 heartbeat IPC: 1.31158 cumulative IPC: 1.28481 (Simulation time: 2 hr 0 min 7 sec) 
 Total Blocks : 196608 Invalid Blocks : 0 Valid Blocks : 196608
 Total Tags : 491520 Threshold : 12288 Invalid Tags : 196608 Pr0 Tags : 98304 Pr1 Tags : 196608 num_pr0 : 12288
 SAE Count : 0
 Inter-Core Inteference in Data Store : 4942576
Heartbeat CPU 4 instructions: 30000001 cycles: 23352423 heartbeat IPC: 1.31159 cumulative IPC: 1.28466 (Simulation time: 2 hr 0 min 8 sec) 
 Total Blocks : 196608 Invalid Blocks : 0 Valid Blocks : 196608
 Total Tags : 491520 Threshold : 12288 Invalid Tags : 196608 Pr0 Tags : 98304 Pr1 Tags : 196608 num_pr0 : 12288
 SAE Count : 0
 Inter-Core Inteference in Data Store : 4943853
Heartbeat CPU 5 instructions: 30000001 cycles: 23352585 heartbeat IPC: 1.3112 cumulative IPC: 1.28465 (Simulation time: 2 hr 0 min 9 sec) 
 Total Blocks : 196608 Invalid Blocks : 0 Valid Blocks : 196608
 Total Tags : 491520 Threshold : 12288 Invalid Tags : 196608 Pr0 Tags : 98304 Pr1 Tags : 196608 num_pr0 : 12288
 SAE Count : 0
 Inter-Core Inteference in Data Store : 4943929
Heartbeat CPU 7 instructions: 30000001 cycles: 23358343 heartbeat IPC: 1.31077 cumulative IPC: 1.28434 (Simulation time: 2 hr 0 min 11 sec) 
 Total Blocks : 196608 Invalid Blocks : 0 Valid Blocks : 196608
 Total Tags : 491520 Threshold : 12288 Invalid Tags : 196608 Pr0 Tags : 98304 Pr1 Tags : 196608 num_pr0 : 12288
 SAE Count : 0
 Inter-Core Inteference in Data Store : 4946546
Heartbeat CPU 0 instructions: 40000000 cycles: 30746780 heartbeat IPC: 1.34918 cumulative IPC: 1.30095 (Simulation time: 2 hr 47 min 2 sec) 
 Total Blocks : 196608 Invalid Blocks : 0 Valid Blocks : 196608
 Total Tags : 491520 Threshold : 12288 Invalid Tags : 196608 Pr0 Tags : 98304 Pr1 Tags : 196608 num_pr0 : 12288
 SAE Count : 0
 Inter-Core Inteference in Data Store : 6905969
Heartbeat CPU 1 instructions: 40000000 cycles: 30754481 heartbeat IPC: 1.34897 cumulative IPC: 1.30062 (Simulation time: 2 hr 47 min 3 sec) 
 Total Blocks : 196608 Invalid Blocks : 0 Valid Blocks : 196608
 Total Tags : 491520 Threshold : 12288 Invalid Tags : 196611 Pr0 Tags : 98301 Pr1 Tags : 196608 num_pr0 : 12288
 SAE Count : 0
 Inter-Core Inteference in Data Store : 6906668
Heartbeat CPU 3 instructions: 40000000 cycles: 30762825 heartbeat IPC: 1.3487 cumulative IPC: 1.30027 (Simulation time: 2 hr 47 min 5 sec) 
 Total Blocks : 196608 Invalid Blocks : 0 Valid Blocks : 196608
 Total Tags : 491520 Threshold : 12288 Invalid Tags : 196611 Pr0 Tags : 98301 Pr1 Tags : 196608 num_pr0 : 12288
 SAE Count : 0
 Inter-Core Inteference in Data Store : 6907431
Heartbeat CPU 2 instructions: 40000000 cycles: 30764041 heartbeat IPC: 1.34865 cumulative IPC: 1.30022 (Simulation time: 2 hr 47 min 6 sec) 
 Total Blocks : 196608 Invalid Blocks : 0 Valid Blocks : 196608
 Total Tags : 491520 Threshold : 12288 Invalid Tags : 196609 Pr0 Tags : 98303 Pr1 Tags : 196608 num_pr0 : 12288
 SAE Count : 0
 Inter-Core Inteference in Data Store : 6907528
Heartbeat CPU 6 instructions: 40000000 cycles: 30765895 heartbeat IPC: 1.34841 cumulative IPC: 1.30014 (Simulation time: 2 hr 47 min 6 sec) 
 Total Blocks : 196608 Invalid Blocks : 0 Valid Blocks : 196608
 Total Tags : 491520 Threshold : 12288 Invalid Tags : 196608 Pr0 Tags : 98304 Pr1 Tags : 196608 num_pr0 : 12288
 SAE Count : 0
 Inter-Core Inteference in Data Store : 6907698
Heartbeat CPU 4 instructions: 40000000 cycles: 30768109 heartbeat IPC: 1.34849 cumulative IPC: 1.30005 (Simulation time: 2 hr 47 min 7 sec) 
 Total Blocks : 196608 Invalid Blocks : 0 Valid Blocks : 196608
 Total Tags : 491520 Threshold : 12288 Invalid Tags : 196609 Pr0 Tags : 98303 Pr1 Tags : 196608 num_pr0 : 12288
 SAE Count : 0
 Inter-Core Inteference in Data Store : 6907874
Heartbeat CPU 5 instructions: 40000000 cycles: 30771000 heartbeat IPC: 1.348 cumulative IPC: 1.29993 (Simulation time: 2 hr 47 min 7 sec) 
 Total Blocks : 196608 Invalid Blocks : 0 Valid Blocks : 196608
 Total Tags : 491520 Threshold : 12288 Invalid Tags : 196609 Pr0 Tags : 98303 Pr1 Tags : 196608 num_pr0 : 12288
 SAE Count : 0
 Inter-Core Inteference in Data Store : 6908126
Heartbeat CPU 7 instructions: 40000000 cycles: 30777733 heartbeat IPC: 1.34782 cumulative IPC: 1.29964 (Simulation time: 2 hr 47 min 8 sec) 
 Total Blocks : 196608 Invalid Blocks : 0 Valid Blocks : 196608
 Total Tags : 491520 Threshold : 12288 Invalid Tags : 196608 Pr0 Tags : 98304 Pr1 Tags : 196608 num_pr0 : 12288
 SAE Count : 0
 Inter-Core Inteference in Data Store : 6908661
Heartbeat CPU 0 instructions: 50000001 cycles: 37807363 heartbeat IPC: 1.41631 cumulative IPC: 1.32249 (Simulation time: 3 hr 35 min 56 sec) 
 Total Blocks : 196608 Invalid Blocks : 0 Valid Blocks : 196608
 Total Tags : 491520 Threshold : 12288 Invalid Tags : 196608 Pr0 Tags : 98304 Pr1 Tags : 196608 num_pr0 : 12288
 SAE Count : 0
 Inter-Core Inteference in Data Store : 8901159
Heartbeat CPU 1 instructions: 50000001 cycles: 37815773 heartbeat IPC: 1.41617 cumulative IPC: 1.3222 (Simulation time: 3 hr 35 min 59 sec) 
 Total Blocks : 196608 Invalid Blocks : 0 Valid Blocks : 196608
 Total Tags : 491520 Threshold : 12288 Invalid Tags : 196608 Pr0 Tags : 98304 Pr1 Tags : 196608 num_pr0 : 12288
 SAE Count : 0
 Inter-Core Inteference in Data Store : 8904482
Heartbeat CPU 3 instructions: 50000001 cycles: 37825375 heartbeat IPC: 1.41592 cumulative IPC: 1.32186 (Simulation time: 3 hr 36 min 3 sec) 
 Total Blocks : 196608 Invalid Blocks : 0 Valid Blocks : 196608
 Total Tags : 491520 Threshold : 12288 Invalid Tags : 196608 Pr0 Tags : 98304 Pr1 Tags : 196608 num_pr0 : 12288
 SAE Count : 0
 Inter-Core Inteference in Data Store : 8908428
Heartbeat CPU 2 instructions: 50000001 cycles: 37826281 heartbeat IPC: 1.41598 cumulative IPC: 1.32183 (Simulation time: 3 hr 36 min 4 sec) 
 Total Blocks : 196608 Invalid Blocks : 0 Valid Blocks : 196608
 Total Tags : 491520 Threshold : 12288 Invalid Tags : 196608 Pr0 Tags : 98304 Pr1 Tags : 196608 num_pr0 : 12288
 SAE Count : 0
 Inter-Core Inteference in Data Store : 8908823
Heartbeat CPU 6 instructions: 50000001 cycles: 37830474 heartbeat IPC: 1.41551 cumulative IPC: 1.32169 (Simulation time: 3 hr 36 min 5 sec) 
 Total Blocks : 196608 Invalid Blocks : 0 Valid Blocks : 196608
 Total Tags : 491520 Threshold : 12288 Invalid Tags : 196609 Pr0 Tags : 98303 Pr1 Tags : 196608 num_pr0 : 12288
 SAE Count : 0
 Inter-Core Inteference in Data Store : 8910621
Heartbeat CPU 4 instructions: 50000001 cycles: 37832079 heartbeat IPC: 1.41563 cumulative IPC: 1.32163 (Simulation time: 3 hr 36 min 6 sec) 
 Total Blocks : 196608 Invalid Blocks : 0 Valid Blocks : 196608
 Total Tags : 491520 Threshold : 12288 Invalid Tags : 196608 Pr0 Tags : 98304 Pr1 Tags : 196608 num_pr0 : 12288
 SAE Count : 0
 Inter-Core Inteference in Data Store : 8911380
Heartbeat CPU 5 instructions: 50000001 cycles: 37836915 heartbeat IPC: 1.41525 cumulative IPC: 1.32146 (Simulation time: 3 hr 36 min 8 sec) 
 Total Blocks : 196608 Invalid Blocks : 0 Valid Blocks : 196608
 Total Tags : 491520 Threshold : 12288 Invalid Tags : 196608 Pr0 Tags : 98304 Pr1 Tags : 196608 num_pr0 : 12288
 SAE Count : 0
 Inter-Core Inteference in Data Store : 8913492
Heartbeat CPU 7 instructions: 50000001 cycles: 37845003 heartbeat IPC: 1.41497 cumulative IPC: 1.32118 (Simulation time: 3 hr 36 min 15 sec) 
 Total Blocks : 196608 Invalid Blocks : 0 Valid Blocks : 196608
 Total Tags : 491520 Threshold : 12288 Invalid Tags : 196610 Pr0 Tags : 98302 Pr1 Tags : 196608 num_pr0 : 12287
 SAE Count : 0
 Inter-Core Inteference in Data Store : 8917335
FILL
FILL
Heartbeat CPU 0 instructions: 60000003 cycles: 44491362 heartbeat IPC: 1.49611 cumulative IPC: 1.34858 (Simulation time: 4 hr 28 min 13 sec) 
 Total Blocks : 196608 Invalid Blocks : 0 Valid Blocks : 196608
 Total Tags : 491520 Threshold : 12288 Invalid Tags : 196608 Pr0 Tags : 98304 Pr1 Tags : 196608 num_pr0 : 12288
 SAE Count : 0
 Inter-Core Inteference in Data Store : 11070579
Heartbeat CPU 1 instructions: 60000003 cycles: 44500561 heartbeat IPC: 1.49593 cumulative IPC: 1.3483 (Simulation time: 4 hr 28 min 16 sec) 
 Total Blocks : 196608 Invalid Blocks : 0 Valid Blocks : 196608
 Total Tags : 491520 Threshold : 12288 Invalid Tags : 196609 Pr0 Tags : 98303 Pr1 Tags : 196608 num_pr0 : 12288
 SAE Count : 0
 Inter-Core Inteference in Data Store : 11071763
Heartbeat CPU 3 instructions: 60000003 cycles: 44511884 heartbeat IPC: 1.49555 cumulative IPC: 1.34795 (Simulation time: 4 hr 28 min 21 sec) 
 Total Blocks : 196608 Invalid Blocks : 0 Valid Blocks : 196608
 Total Tags : 491520 Threshold : 12288 Invalid Tags : 196608 Pr0 Tags : 98304 Pr1 Tags : 196608 num_pr0 : 12288
 SAE Count : 0
 Inter-Core Inteference in Data Store : 11073229
Heartbeat CPU 2 instructions: 60000003 cycles: 44511923 heartbeat IPC: 1.49574 cumulative IPC: 1.34795 (Simulation time: 4 hr 28 min 21 sec) 
 Total Blocks : 196608 Invalid Blocks : 0 Valid Blocks : 196608
 Total Tags : 491520 Threshold : 12288 Invalid Tags : 196608 Pr0 Tags : 98304 Pr1 Tags : 196608 num_pr0 : 12288
 SAE Count : 0
 Inter-Core Inteference in Data Store : 11073232
Heartbeat CPU 6 instructions: 60000003 cycles: 44518598 heartbeat IPC: 1.49519 cumulative IPC: 1.34775 (Simulation time: 4 hr 28 min 23 sec) 
 Total Blocks : 196608 Invalid Blocks : 0 Valid Blocks : 196608
 Total Tags : 491520 Threshold : 12288 Invalid Tags : 196615 Pr0 Tags : 98297 Pr1 Tags : 196608 num_pr0 : 12287
 SAE Count : 0
 Inter-Core Inteference in Data Store : 11074106
Heartbeat CPU 4 instructions: 60000003 cycles: 44519488 heartbeat IPC: 1.49535 cumulative IPC: 1.34772 (Simulation time: 4 hr 28 min 24 sec) 
 Total Blocks : 196608 Invalid Blocks : 0 Valid Blocks : 196608
 Total Tags : 491520 Threshold : 12288 Invalid Tags : 196610 Pr0 Tags : 98302 Pr1 Tags : 196608 num_pr0 : 12288
 SAE Count : 0
 Inter-Core Inteference in Data Store : 11074224
Heartbeat CPU 5 instructions: 60000003 cycles: 44527112 heartbeat IPC: 1.49472 cumulative IPC: 1.34749 (Simulation time: 4 hr 28 min 26 sec) 
 Total Blocks : 196608 Invalid Blocks : 0 Valid Blocks : 196608
 Total Tags : 491520 Threshold : 12288 Invalid Tags : 196608 Pr0 Tags : 98304 Pr1 Tags : 196608 num_pr0 : 12288
 SAE Count : 0
 Inter-Core Inteference in Data Store : 11075164
Heartbeat CPU 7 instructions: 60000003 cycles: 44536584 heartbeat IPC: 1.49442 cumulative IPC: 1.34721 (Simulation time: 4 hr 28 min 29 sec) 
 Total Blocks : 196608 Invalid Blocks : 0 Valid Blocks : 196608
 Total Tags : 491520 Threshold : 12288 Invalid Tags : 196609 Pr0 Tags : 98303 Pr1 Tags : 196608 num_pr0 : 12287
 SAE Count : 0
 Inter-Core Inteference in Data Store : 11076268
Heartbeat CPU 0 instructions: 70000003 cycles: 50958310 heartbeat IPC: 1.54632 cumulative IPC: 1.37367 (Simulation time: 5 hr 24 min 40 sec) 
 Total Blocks : 196608 Invalid Blocks : 0 Valid Blocks : 196608
 Total Tags : 491520 Threshold : 12288 Invalid Tags : 196608 Pr0 Tags : 98304 Pr1 Tags : 196608 num_pr0 : 12288
 SAE Count : 0
 Inter-Core Inteference in Data Store : 13271379
Heartbeat CPU 1 instructions: 70000003 cycles: 50969048 heartbeat IPC: 1.54596 cumulative IPC: 1.37338 (Simulation time: 5 hr 24 min 46 sec) 
 Total Blocks : 196608 Invalid Blocks : 0 Valid Blocks : 196608
 Total Tags : 491520 Threshold : 12288 Invalid Tags : 196608 Pr0 Tags : 98304 Pr1 Tags : 196608 num_pr0 : 12288
 SAE Count : 0
 Inter-Core Inteference in Data Store : 13276305
Heartbeat CPU 2 instructions: 70000003 cycles: 50981383 heartbeat IPC: 1.54572 cumulative IPC: 1.37305 (Simulation time: 5 hr 24 min 54 sec) 
 Total Blocks : 196608 Invalid Blocks : 0 Valid Blocks : 196608
 Total Tags : 491520 Threshold : 12288 Invalid Tags : 196608 Pr0 Tags : 98304 Pr1 Tags : 196608 num_pr0 : 12288
 SAE Count : 0
 Inter-Core Inteference in Data Store : 13281817
Heartbeat CPU 3 instructions: 70000003 cycles: 50981948 heartbeat IPC: 1.54558 cumulative IPC: 1.37304 (Simulation time: 5 hr 24 min 54 sec) 
 Total Blocks : 196608 Invalid Blocks : 0 Valid Blocks : 196608
 Total Tags : 491520 Threshold : 12288 Invalid Tags : 196608 Pr0 Tags : 98304 Pr1 Tags : 196608 num_pr0 : 12288
 SAE Count : 0
 Inter-Core Inteference in Data Store : 13282055
Heartbeat CPU 6 instructions: 70000003 cycles: 50990007 heartbeat IPC: 1.54526 cumulative IPC: 1.37282 (Simulation time: 5 hr 25 min 1 sec) 
 Total Blocks : 196608 Invalid Blocks : 0 Valid Blocks : 196608
 Total Tags : 491520 Threshold : 12288 Invalid Tags : 196608 Pr0 Tags : 98304 Pr1 Tags : 196608 num_pr0 : 12288
 SAE Count : 0
 Inter-Core Inteference in Data Store : 13285726
Heartbeat CPU 4 instructions: 70000003 cycles: 50990095 heartbeat IPC: 1.54545 cumulative IPC: 1.37282 (Simulation time: 5 hr 25 min 1 sec) 
 Total Blocks : 196608 Invalid Blocks : 0 Valid Blocks : 196608
 Total Tags : 491520 Threshold : 12288 Invalid Tags : 196608 Pr0 Tags : 98304 Pr1 Tags : 196608 num_pr0 : 12288
 SAE Count : 0
 Inter-Core Inteference in Data Store : 13285763
Heartbeat CPU 5 instructions: 70000003 cycles: 51000575 heartbeat IPC: 1.54477 cumulative IPC: 1.37253 (Simulation time: 5 hr 25 min 10 sec) 
 Total Blocks : 196608 Invalid Blocks : 0 Valid Blocks : 196608
 Total Tags : 491520 Threshold : 12288 Invalid Tags : 196608 Pr0 Tags : 98304 Pr1 Tags : 196608 num_pr0 : 12288
 SAE Count : 0
 Inter-Core Inteference in Data Store : 13290709
Heartbeat CPU 7 instructions: 70000003 cycles: 51011734 heartbeat IPC: 1.54437 cumulative IPC: 1.37223 (Simulation time: 5 hr 25 min 21 sec) 
 Total Blocks : 196608 Invalid Blocks : 0 Valid Blocks : 196608
 Total Tags : 491520 Threshold : 12288 Invalid Tags : 196608 Pr0 Tags : 98304 Pr1 Tags : 196608 num_pr0 : 12288
 SAE Count : 0
 Inter-Core Inteference in Data Store : 13296098
Heartbeat CPU 0 instructions: 80000003 cycles: 57255658 heartbeat IPC: 1.58797 cumulative IPC: 1.39724 (Simulation time: 6 hr 24 min 50 sec) 
 Total Blocks : 196608 Invalid Blocks : 0 Valid Blocks : 196608
 Total Tags : 491520 Threshold : 12288 Invalid Tags : 196608 Pr0 Tags : 98304 Pr1 Tags : 196608 num_pr0 : 12288
 SAE Count : 0
 Inter-Core Inteference in Data Store : 15672518
Heartbeat CPU 1 instructions: 80000003 cycles: 57267317 heartbeat IPC: 1.58774 cumulative IPC: 1.39696 (Simulation time: 6 hr 24 min 56 sec) 
 Total Blocks : 196608 Invalid Blocks : 0 Valid Blocks : 196608
 Total Tags : 491520 Threshold : 12288 Invalid Tags : 196608 Pr0 Tags : 98304 Pr1 Tags : 196608 num_pr0 : 12288
 SAE Count : 0
 Inter-Core Inteference in Data Store : 15678045
Heartbeat CPU 2 instructions: 80000003 cycles: 57280407 heartbeat IPC: 1.58755 cumulative IPC: 1.39664 (Simulation time: 6 hr 25 min 4 sec) 
 Total Blocks : 196608 Invalid Blocks : 0 Valid Blocks : 196608
 Total Tags : 491520 Threshold : 12288 Invalid Tags : 196608 Pr0 Tags : 98304 Pr1 Tags : 196608 num_pr0 : 12288
 SAE Count : 0
 Inter-Core Inteference in Data Store : 15683883
Heartbeat CPU 3 instructions: 80000003 cycles: 57281477 heartbeat IPC: 1.58742 cumulative IPC: 1.39661 (Simulation time: 6 hr 25 min 4 sec) 
 Total Blocks : 196608 Invalid Blocks : 0 Valid Blocks : 196608
 Total Tags : 491520 Threshold : 12288 Invalid Tags : 196608 Pr0 Tags : 98304 Pr1 Tags : 196608 num_pr0 : 12288
 SAE Count : 0
 Inter-Core Inteference in Data Store : 15684373
Heartbeat CPU 4 instructions: 80000003 cycles: 57290675 heartbeat IPC: 1.58716 cumulative IPC: 1.39639 (Simulation time: 6 hr 25 min 9 sec) 
 Total Blocks : 196608 Invalid Blocks : 0 Valid Blocks : 196608
 Total Tags : 491520 Threshold : 12288 Invalid Tags : 196608 Pr0 Tags : 98304 Pr1 Tags : 196608 num_pr0 : 12288
 SAE Count : 0
 Inter-Core Inteference in Data Store : 15688342
Heartbeat CPU 6 instructions: 80000003 cycles: 57291610 heartbeat IPC: 1.5869 cumulative IPC: 1.39637 (Simulation time: 6 hr 25 min 9 sec) 
 Total Blocks : 196608 Invalid Blocks : 0 Valid Blocks : 196608
 Total Tags : 491520 Threshold : 12288 Invalid Tags : 196608 Pr0 Tags : 98304 Pr1 Tags : 196608 num_pr0 : 12288
 SAE Count : 0
 Inter-Core Inteference in Data Store : 15688731
Heartbeat CPU 5 instructions: 80000003 cycles: 57303906 heartbeat IPC: 1.58646 cumulative IPC: 1.39607 (Simulation time: 6 hr 25 min 16 sec) 
 Total Blocks : 196608 Invalid Blocks : 0 Valid Blocks : 196608
 Total Tags : 491520 Threshold : 12288 Invalid Tags : 196608 Pr0 Tags : 98304 Pr1 Tags : 196608 num_pr0 : 12288
 SAE Count : 0
 Inter-Core Inteference in Data Store : 15693967
Heartbeat CPU 7 instructions: 80000003 cycles: 57316614 heartbeat IPC: 1.58607 cumulative IPC: 1.39576 (Simulation time: 6 hr 25 min 25 sec) 
 Total Blocks : 196608 Invalid Blocks : 0 Valid Blocks : 196608
 Total Tags : 491520 Threshold : 12288 Invalid Tags : 196609 Pr0 Tags : 98303 Pr1 Tags : 196608 num_pr0 : 12288
 SAE Count : 0
 Inter-Core Inteference in Data Store : 15699445
Heartbeat CPU 0 instructions: 90000001 cycles: 63451981 heartbeat IPC: 1.61386 cumulative IPC: 1.4184 (Simulation time: 7 hr 27 min 53 sec) 
 Total Blocks : 196608 Invalid Blocks : 0 Valid Blocks : 196608
 Total Tags : 491520 Threshold : 12288 Invalid Tags : 196608 Pr0 Tags : 98304 Pr1 Tags : 196608 num_pr0 : 12288
 SAE Count : 0
 Inter-Core Inteference in Data Store : 17966130
Heartbeat CPU 1 instructions: 90000001 cycles: 63464889 heartbeat IPC: 1.61353 cumulative IPC: 1.41811 (Simulation time: 7 hr 28 min 0 sec) 
 Total Blocks : 196608 Invalid Blocks : 0 Valid Blocks : 196608
 Total Tags : 491520 Threshold : 12288 Invalid Tags : 196608 Pr0 Tags : 98304 Pr1 Tags : 196608 num_pr0 : 12288
 SAE Count : 0
 Inter-Core Inteference in Data Store : 17970843
Heartbeat CPU 2 instructions: 90000001 cycles: 63478712 heartbeat IPC: 1.61334 cumulative IPC: 1.4178 (Simulation time: 7 hr 28 min 9 sec) 
 Total Blocks : 196608 Invalid Blocks : 0 Valid Blocks : 196608
 Total Tags : 491520 Threshold : 12288 Invalid Tags : 196608 Pr0 Tags : 98304 Pr1 Tags : 196608 num_pr0 : 12288
 SAE Count : 0
 Inter-Core Inteference in Data Store : 17975416
Heartbeat CPU 3 instructions: 90000001 cycles: 63480281 heartbeat IPC: 1.61321 cumulative IPC: 1.41776 (Simulation time: 7 hr 28 min 10 sec) 
 Total Blocks : 196608 Invalid Blocks : 0 Valid Blocks : 196608
 Total Tags : 491520 Threshold : 12288 Invalid Tags : 196609 Pr0 Tags : 98303 Pr1 Tags : 196608 num_pr0 : 12288
 SAE Count : 0
 Inter-Core Inteference in Data Store : 17975883
Heartbeat CPU 4 instructions: 90000001 cycles: 63490354 heartbeat IPC: 1.61299 cumulative IPC: 1.41754 (Simulation time: 7 hr 28 min 15 sec) 
 Total Blocks : 196608 Invalid Blocks : 0 Valid Blocks : 196608
 Total Tags : 491520 Threshold : 12288 Invalid Tags : 196608 Pr0 Tags : 98304 Pr1 Tags : 196608 num_pr0 : 12288
 SAE Count : 0
 Inter-Core Inteference in Data Store : 17978712
Heartbeat CPU 6 instructions: 90000001 cycles: 63492608 heartbeat IPC: 1.61264 cumulative IPC: 1.41749 (Simulation time: 7 hr 28 min 16 sec) 
 Total Blocks : 196608 Invalid Blocks : 0 Valid Blocks : 196608
 Total Tags : 491520 Threshold : 12288 Invalid Tags : 196608 Pr0 Tags : 98304 Pr1 Tags : 196608 num_pr0 : 12288
 SAE Count : 0
 Inter-Core Inteference in Data Store : 17979335
Heartbeat CPU 5 instructions: 90000001 cycles: 63506468 heartbeat IPC: 1.61224 cumulative IPC: 1.41718 (Simulation time: 7 hr 28 min 23 sec) 
 Total Blocks : 196608 Invalid Blocks : 0 Valid Blocks : 196608
 Total Tags : 491520 Threshold : 12288 Invalid Tags : 196608 Pr0 Tags : 98304 Pr1 Tags : 196608 num_pr0 : 12288
 SAE Count : 0
 Inter-Core Inteference in Data Store : 17982773
Heartbeat CPU 7 instructions: 90000001 cycles: 63520141 heartbeat IPC: 1.61199 cumulative IPC: 1.41687 (Simulation time: 7 hr 28 min 30 sec) 
 Total Blocks : 196608 Invalid Blocks : 0 Valid Blocks : 196608
 Total Tags : 491520 Threshold : 12288 Invalid Tags : 196609 Pr0 Tags : 98303 Pr1 Tags : 196608 num_pr0 : 12288
 SAE Count : 0
 Inter-Core Inteference in Data Store : 17985898
Heartbeat CPU 0 instructions: 100000001 cycles: 69516437 heartbeat IPC: 1.64895 cumulative IPC: 1.43851 (Simulation time: 8 hr 30 min 29 sec) 
 Total Blocks : 196608 Invalid Blocks : 0 Valid Blocks : 196608
 Total Tags : 491520 Threshold : 12288 Invalid Tags : 196608 Pr0 Tags : 98304 Pr1 Tags : 196608 num_pr0 : 12288
 SAE Count : 0
 Inter-Core Inteference in Data Store : 20342745
Heartbeat CPU 1 instructions: 100000001 cycles: 69530412 heartbeat IPC: 1.64866 cumulative IPC: 1.43822 (Simulation time: 8 hr 30 min 35 sec) 
 Total Blocks : 196608 Invalid Blocks : 0 Valid Blocks : 196608
 Total Tags : 491520 Threshold : 12288 Invalid Tags : 196609 Pr0 Tags : 98303 Pr1 Tags : 196608 num_pr0 : 12288
 SAE Count : 0
 Inter-Core Inteference in Data Store : 20345261
Heartbeat CPU 2 instructions: 100000001 cycles: 69545062 heartbeat IPC: 1.64844 cumulative IPC: 1.43792 (Simulation time: 8 hr 30 min 41 sec) 
 Total Blocks : 196608 Invalid Blocks : 0 Valid Blocks : 196608
 Total Tags : 491520 Threshold : 12288 Invalid Tags : 196608 Pr0 Tags : 98304 Pr1 Tags : 196608 num_pr0 : 12288
 SAE Count : 0
 Inter-Core Inteference in Data Store : 20347789
Heartbeat CPU 3 instructions: 100000001 cycles: 69547095 heartbeat IPC: 1.64831 cumulative IPC: 1.43787 (Simulation time: 8 hr 30 min 42 sec) 
 Total Blocks : 196608 Invalid Blocks : 0 Valid Blocks : 196608
 Total Tags : 491520 Threshold : 12288 Invalid Tags : 196608 Pr0 Tags : 98304 Pr1 Tags : 196608 num_pr0 : 12288
 SAE Count : 0
 Inter-Core Inteference in Data Store : 20348143
Heartbeat CPU 4 instructions: 100000001 cycles: 69558264 heartbeat IPC: 1.64801 cumulative IPC: 1.43764 (Simulation time: 8 hr 30 min 47 sec) 
 Total Blocks : 196608 Invalid Blocks : 0 Valid Blocks : 196608
 Total Tags : 491520 Threshold : 12288 Invalid Tags : 196610 Pr0 Tags : 98302 Pr1 Tags : 196608 num_pr0 : 12288
 SAE Count : 0
 Inter-Core Inteference in Data Store : 20349955
Heartbeat CPU 6 instructions: 100000001 cycles: 69561839 heartbeat IPC: 1.64766 cumulative IPC: 1.43757 (Simulation time: 8 hr 30 min 49 sec) 
 Total Blocks : 196608 Invalid Blocks : 0 Valid Blocks : 196608
 Total Tags : 491520 Threshold : 12288 Invalid Tags : 196608 Pr0 Tags : 98304 Pr1 Tags : 196608 num_pr0 : 12288
 SAE Count : 0
 Inter-Core Inteference in Data Store : 20350552
Heartbeat CPU 5 instructions: 100000001 cycles: 69576716 heartbeat IPC: 1.64738 cumulative IPC: 1.43726 (Simulation time: 8 hr 30 min 56 sec) 
 Total Blocks : 196608 Invalid Blocks : 0 Valid Blocks : 196608
 Total Tags : 491520 Threshold : 12288 Invalid Tags : 196608 Pr0 Tags : 98304 Pr1 Tags : 196608 num_pr0 : 12288
 SAE Count : 0
 Inter-Core Inteference in Data Store : 20352852
Heartbeat CPU 7 instructions: 100000001 cycles: 69591560 heartbeat IPC: 1.64706 cumulative IPC: 1.43696 (Simulation time: 8 hr 31 min 1 sec) 
 Total Blocks : 196608 Invalid Blocks : 0 Valid Blocks : 196608
 Total Tags : 491520 Threshold : 12288 Invalid Tags : 196608 Pr0 Tags : 98304 Pr1 Tags : 196608 num_pr0 : 12288
 SAE Count : 0
 Inter-Core Inteference in Data Store : 20355034
Heartbeat CPU 0 instructions: 110000000 cycles: 75534809 heartbeat IPC: 1.66158 cumulative IPC: 1.45628 (Simulation time: 9 hr 33 min 27 sec) 
 Total Blocks : 196608 Invalid Blocks : 0 Valid Blocks : 196608
 Total Tags : 491520 Threshold : 12288 Invalid Tags : 196608 Pr0 Tags : 98304 Pr1 Tags : 196608 num_pr0 : 12288
 SAE Count : 0
 Inter-Core Inteference in Data Store : 22544275
Heartbeat CPU 1 instructions: 110000000 cycles: 75549593 heartbeat IPC: 1.66136 cumulative IPC: 1.456 (Simulation time: 9 hr 33 min 38 sec) 
 Total Blocks : 196608 Invalid Blocks : 0 Valid Blocks : 196608
 Total Tags : 491520 Threshold : 12288 Invalid Tags : 196608 Pr0 Tags : 98304 Pr1 Tags : 196608 num_pr0 : 12288
 SAE Count : 0
 Inter-Core Inteference in Data Store : 22552315
Heartbeat CPU 2 instructions: 110000000 cycles: 75565183 heartbeat IPC: 1.6611 cumulative IPC: 1.4557 (Simulation time: 9 hr 33 min 49 sec) 
 Total Blocks : 196608 Invalid Blocks : 0 Valid Blocks : 196608
 Total Tags : 491520 Threshold : 12288 Invalid Tags : 196608 Pr0 Tags : 98304 Pr1 Tags : 196608 num_pr0 : 12288
 SAE Count : 0
 Inter-Core Inteference in Data Store : 22561467
Heartbeat CPU 3 instructions: 110000000 cycles: 75567549 heartbeat IPC: 1.661 cumulative IPC: 1.45565 (Simulation time: 9 hr 33 min 51 sec) 
 Total Blocks : 196608 Invalid Blocks : 0 Valid Blocks : 196608
 Total Tags : 491520 Threshold : 12288 Invalid Tags : 196608 Pr0 Tags : 98304 Pr1 Tags : 196608 num_pr0 : 12288
 SAE Count : 0
 Inter-Core Inteference in Data Store : 22562905
Heartbeat CPU 4 instructions: 110000000 cycles: 75580048 heartbeat IPC: 1.66064 cumulative IPC: 1.45541 (Simulation time: 9 hr 34 min 2 sec) 
 Total Blocks : 196608 Invalid Blocks : 0 Valid Blocks : 196608
 Total Tags : 491520 Threshold : 12288 Invalid Tags : 196608 Pr0 Tags : 98304 Pr1 Tags : 196608 num_pr0 : 12288
 SAE Count : 0
 Inter-Core Inteference in Data Store : 22570430
Heartbeat CPU 6 instructions: 110000000 cycles: 75584389 heartbeat IPC: 1.66043 cumulative IPC: 1.45533 (Simulation time: 9 hr 34 min 5 sec) 
 Total Blocks : 196608 Invalid Blocks : 0 Valid Blocks : 196608
 Total Tags : 491520 Threshold : 12288 Invalid Tags : 196608 Pr0 Tags : 98304 Pr1 Tags : 196608 num_pr0 : 12288
 SAE Count : 0
 Inter-Core Inteference in Data Store : 22572948
Heartbeat CPU 5 instructions: 110000000 cycles: 75599868 heartbeat IPC: 1.66026 cumulative IPC: 1.45503 (Simulation time: 9 hr 34 min 18 sec) 
 Total Blocks : 196608 Invalid Blocks : 0 Valid Blocks : 196608
 Total Tags : 491520 Threshold : 12288 Invalid Tags : 196608 Pr0 Tags : 98304 Pr1 Tags : 196608 num_pr0 : 12288
 SAE Count : 0
 Inter-Core Inteference in Data Store : 22582140
Heartbeat CPU 7 instructions: 110000000 cycles: 75615730 heartbeat IPC: 1.65998 cumulative IPC: 1.45472 (Simulation time: 9 hr 34 min 32 sec) 
 Total Blocks : 196608 Invalid Blocks : 0 Valid Blocks : 196608
 Total Tags : 491520 Threshold : 12288 Invalid Tags : 196608 Pr0 Tags : 98304 Pr1 Tags : 196608 num_pr0 : 12288
 SAE Count : 0
 Inter-Core Inteference in Data Store : 22591432
Heartbeat CPU 0 instructions: 120000003 cycles: 81407463 heartbeat IPC: 1.70281 cumulative IPC: 1.47407 (Simulation time: 10 hr 46 min 30 sec) 
 Total Blocks : 196608 Invalid Blocks : 0 Valid Blocks : 196608
 Total Tags : 491520 Threshold : 12288 Invalid Tags : 196608 Pr0 Tags : 98304 Pr1 Tags : 196608 num_pr0 : 12288
 SAE Count : 0
 Inter-Core Inteference in Data Store : 25380018
Heartbeat CPU 1 instructions: 120000003 cycles: 81423099 heartbeat IPC: 1.70256 cumulative IPC: 1.47378 (Simulation time: 10 hr 46 min 41 sec) 
 Total Blocks : 196608 Invalid Blocks : 0 Valid Blocks : 196608
 Total Tags : 491520 Threshold : 12288 Invalid Tags : 196608 Pr0 Tags : 98304 Pr1 Tags : 196608 num_pr0 : 12288
 SAE Count : 0
 Inter-Core Inteference in Data Store : 25387641
Heartbeat CPU 2 instructions: 120000003 cycles: 81439720 heartbeat IPC: 1.70226 cumulative IPC: 1.47348 (Simulation time: 10 hr 46 min 56 sec) 
 Total Blocks : 196608 Invalid Blocks : 0 Valid Blocks : 196608
 Total Tags : 491520 Threshold : 12288 Invalid Tags : 196608 Pr0 Tags : 98304 Pr1 Tags : 196608 num_pr0 : 12288
 SAE Count : 0
 Inter-Core Inteference in Data Store : 25395885
Heartbeat CPU 3 instructions: 120000003 cycles: 81442725 heartbeat IPC: 1.70208 cumulative IPC: 1.47343 (Simulation time: 10 hr 46 min 57 sec) 
 Total Blocks : 196608 Invalid Blocks : 0 Valid Blocks : 196608
 Total Tags : 491520 Threshold : 12288 Invalid Tags : 196608 Pr0 Tags : 98304 Pr1 Tags : 196608 num_pr0 : 12288
 SAE Count : 0
 Inter-Core Inteference in Data Store : 25397330
Heartbeat CPU 4 instructions: 120000003 cycles: 81456093 heartbeat IPC: 1.70183 cumulative IPC: 1.47319 (Simulation time: 10 hr 47 min 6 sec) 
 Total Blocks : 196608 Invalid Blocks : 0 Valid Blocks : 196608
 Total Tags : 491520 Threshold : 12288 Invalid Tags : 196608 Pr0 Tags : 98304 Pr1 Tags : 196608 num_pr0 : 12288
 SAE Count : 0
 Inter-Core Inteference in Data Store : 25404186
Heartbeat CPU 6 instructions: 120000003 cycles: 81461530 heartbeat IPC: 1.70151 cumulative IPC: 1.47309 (Simulation time: 10 hr 47 min 10 sec) 
 Total Blocks : 196608 Invalid Blocks : 0 Valid Blocks : 196608
 Total Tags : 491520 Threshold : 12288 Invalid Tags : 196608 Pr0 Tags : 98304 Pr1 Tags : 196608 num_pr0 : 12288
 SAE Count : 0
 Inter-Core Inteference in Data Store : 25406896
Heartbeat CPU 5 instructions: 120000003 cycles: 81477926 heartbeat IPC: 1.70124 cumulative IPC: 1.47279 (Simulation time: 10 hr 47 min 23 sec) 
 Total Blocks : 196608 Invalid Blocks : 0 Valid Blocks : 196608
 Total Tags : 491520 Threshold : 12288 Invalid Tags : 196608 Pr0 Tags : 98304 Pr1 Tags : 196608 num_pr0 : 12288
 SAE Count : 0
 Inter-Core Inteference in Data Store : 25414901
Heartbeat CPU 7 instructions: 120000003 cycles: 81494962 heartbeat IPC: 1.7009 cumulative IPC: 1.47248 (Simulation time: 10 hr 47 min 33 sec) 
 Total Blocks : 196608 Invalid Blocks : 0 Valid Blocks : 196608
 Total Tags : 491520 Threshold : 12288 Invalid Tags : 196608 Pr0 Tags : 98304 Pr1 Tags : 196608 num_pr0 : 12288
 SAE Count : 0
 Inter-Core Inteference in Data Store : 25423211
Heartbeat CPU 0 instructions: 130000001 cycles: 87250178 heartbeat IPC: 1.71153 cumulative IPC: 1.48997 (Simulation time: 12 hr 0 min 42 sec) 
 Total Blocks : 196608 Invalid Blocks : 0 Valid Blocks : 196608
 Total Tags : 491520 Threshold : 12288 Invalid Tags : 196608 Pr0 Tags : 98304 Pr1 Tags : 196608 num_pr0 : 12288
 SAE Count : 0
 Inter-Core Inteference in Data Store : 27995373
Heartbeat CPU 1 instructions: 130000001 cycles: 87266844 heartbeat IPC: 1.71123 cumulative IPC: 1.48968 (Simulation time: 12 hr 0 min 53 sec) 
 Total Blocks : 196608 Invalid Blocks : 0 Valid Blocks : 196608
 Total Tags : 491520 Threshold : 12288 Invalid Tags : 196608 Pr0 Tags : 98304 Pr1 Tags : 196608 num_pr0 : 12288
 SAE Count : 0
 Inter-Core Inteference in Data Store : 28004236
Heartbeat CPU 2 instructions: 130000001 cycles: 87283773 heartbeat IPC: 1.71114 cumulative IPC: 1.48939 (Simulation time: 12 hr 1 min 8 sec) 
 Total Blocks : 196608 Invalid Blocks : 0 Valid Blocks : 196608
 Total Tags : 491520 Threshold : 12288 Invalid Tags : 196609 Pr0 Tags : 98303 Pr1 Tags : 196608 num_pr0 : 12288
 SAE Count : 0
 Inter-Core Inteference in Data Store : 28013354
Heartbeat CPU 3 instructions: 130000001 cycles: 87287908 heartbeat IPC: 1.71081 cumulative IPC: 1.48932 (Simulation time: 12 hr 1 min 11 sec) 
 Total Blocks : 196608 Invalid Blocks : 0 Valid Blocks : 196608
 Total Tags : 491520 Threshold : 12288 Invalid Tags : 196608 Pr0 Tags : 98304 Pr1 Tags : 196608 num_pr0 : 12288
 SAE Count : 0
 Inter-Core Inteference in Data Store : 28015561
Heartbeat CPU 4 instructions: 130000001 cycles: 87301996 heartbeat IPC: 1.7106 cumulative IPC: 1.48908 (Simulation time: 12 hr 1 min 24 sec) 
 Total Blocks : 196608 Invalid Blocks : 0 Valid Blocks : 196608
 Total Tags : 491520 Threshold : 12288 Invalid Tags : 196608 Pr0 Tags : 98304 Pr1 Tags : 196608 num_pr0 : 12288
 SAE Count : 0
 Inter-Core Inteference in Data Store : 28023077
Heartbeat CPU 6 instructions: 130000001 cycles: 87308669 heartbeat IPC: 1.71024 cumulative IPC: 1.48897 (Simulation time: 12 hr 1 min 29 sec) 
 Total Blocks : 196608 Invalid Blocks : 0 Valid Blocks : 196608
 Total Tags : 491520 Threshold : 12288 Invalid Tags : 196608 Pr0 Tags : 98304 Pr1 Tags : 196608 num_pr0 : 12288
 SAE Count : 0
 Inter-Core Inteference in Data Store : 28026590
Heartbeat CPU 5 instructions: 130000001 cycles: 87326052 heartbeat IPC: 1.70995 cumulative IPC: 1.48867 (Simulation time: 12 hr 1 min 44 sec) 
 Total Blocks : 196608 Invalid Blocks : 0 Valid Blocks : 196608
 Total Tags : 491520 Threshold : 12288 Invalid Tags : 196608 Pr0 Tags : 98304 Pr1 Tags : 196608 num_pr0 : 12288
 SAE Count : 0
 Inter-Core Inteference in Data Store : 28035608
Heartbeat CPU 7 instructions: 130000001 cycles: 87344003 heartbeat IPC: 1.70968 cumulative IPC: 1.48837 (Simulation time: 12 hr 2 min 1 sec) 
 Total Blocks : 196608 Invalid Blocks : 0 Valid Blocks : 196608
 Total Tags : 491520 Threshold : 12288 Invalid Tags : 196608 Pr0 Tags : 98304 Pr1 Tags : 196608 num_pr0 : 12288
 SAE Count : 0
 Inter-Core Inteference in Data Store : 28044845
Heartbeat CPU 0 instructions: 140000000 cycles: 92977042 heartbeat IPC: 1.74616 cumulative IPC: 1.50575 (Simulation time: 13 hr 22 min 1 sec) 
 Total Blocks : 196608 Invalid Blocks : 0 Valid Blocks : 196608
 Total Tags : 491520 Threshold : 12288 Invalid Tags : 196608 Pr0 Tags : 98304 Pr1 Tags : 196608 num_pr0 : 12288
 SAE Count : 0
 Inter-Core Inteference in Data Store : 30767665
Heartbeat CPU 1 instructions: 140000000 cycles: 92994850 heartbeat IPC: 1.74581 cumulative IPC: 1.50546 (Simulation time: 13 hr 22 min 12 sec) 
 Total Blocks : 196608 Invalid Blocks : 0 Valid Blocks : 196608
 Total Tags : 491520 Threshold : 12288 Invalid Tags : 196608 Pr0 Tags : 98304 Pr1 Tags : 196608 num_pr0 : 12288
 SAE Count : 0
 Inter-Core Inteference in Data Store : 30771882
Heartbeat CPU 2 instructions: 140000000 cycles: 93012543 heartbeat IPC: 1.74558 cumulative IPC: 1.50517 (Simulation time: 13 hr 22 min 26 sec) 
 Total Blocks : 196608 Invalid Blocks : 0 Valid Blocks : 196608
 Total Tags : 491520 Threshold : 12288 Invalid Tags : 196608 Pr0 Tags : 98304 Pr1 Tags : 196608 num_pr0 : 12288
 SAE Count : 0
 Inter-Core Inteference in Data Store : 30777389
Heartbeat CPU 3 instructions: 140000001 cycles: 93017462 heartbeat IPC: 1.74534 cumulative IPC: 1.50509 (Simulation time: 13 hr 22 min 29 sec) 
 Total Blocks : 196608 Invalid Blocks : 0 Valid Blocks : 196608
 Total Tags : 491520 Threshold : 12288 Invalid Tags : 196608 Pr0 Tags : 98304 Pr1 Tags : 196608 num_pr0 : 12288
 SAE Count : 0
 Inter-Core Inteference in Data Store : 30779081
Heartbeat CPU 4 instructions: 140000000 cycles: 93032381 heartbeat IPC: 1.74508 cumulative IPC: 1.50485 (Simulation time: 13 hr 22 min 40 sec) 
 Total Blocks : 196608 Invalid Blocks : 0 Valid Blocks : 196608
 Total Tags : 491520 Threshold : 12288 Invalid Tags : 196608 Pr0 Tags : 98304 Pr1 Tags : 196608 num_pr0 : 12288
 SAE Count : 0
 Inter-Core Inteference in Data Store : 30784638
Heartbeat CPU 6 instructions: 140000001 cycles: 93039978 heartbeat IPC: 1.7448 cumulative IPC: 1.50473 (Simulation time: 13 hr 22 min 46 sec) 
 Total Blocks : 196608 Invalid Blocks : 0 Valid Blocks : 196608
 Total Tags : 491520 Threshold : 12288 Invalid Tags : 196608 Pr0 Tags : 98304 Pr1 Tags : 196608 num_pr0 : 12288
 SAE Count : 0
 Inter-Core Inteference in Data Store : 30787693
Heartbeat CPU 5 instructions: 140000001 cycles: 93058258 heartbeat IPC: 1.74453 cumulative IPC: 1.50443 (Simulation time: 13 hr 23 min 0 sec) 
 Total Blocks : 196608 Invalid Blocks : 0 Valid Blocks : 196608
 Total Tags : 491520 Threshold : 12288 Invalid Tags : 196608 Pr0 Tags : 98304 Pr1 Tags : 196608 num_pr0 : 12288
 SAE Count : 0
 Inter-Core Inteference in Data Store : 30795840
Heartbeat CPU 7 instructions: 140000001 cycles: 93076908 heartbeat IPC: 1.74432 cumulative IPC: 1.50413 (Simulation time: 13 hr 23 min 14 sec) 
 Total Blocks : 196608 Invalid Blocks : 0 Valid Blocks : 196608
 Total Tags : 491520 Threshold : 12288 Invalid Tags : 196608 Pr0 Tags : 98304 Pr1 Tags : 196608 num_pr0 : 12288
 SAE Count : 0
 Inter-Core Inteference in Data Store : 30804547
Heartbeat CPU 0 instructions: 150000000 cycles: 98679610 heartbeat IPC: 1.7536 cumulative IPC: 1.52007 (Simulation time: 14 hr 35 min 22 sec) 
 Total Blocks : 196608 Invalid Blocks : 0 Valid Blocks : 196608
 Total Tags : 491520 Threshold : 12288 Invalid Tags : 196608 Pr0 Tags : 98304 Pr1 Tags : 196608 num_pr0 : 12288
 SAE Count : 0
 Inter-Core Inteference in Data Store : 33333166
Heartbeat CPU 1 instructions: 150000000 cycles: 98698338 heartbeat IPC: 1.75331 cumulative IPC: 1.51978 (Simulation time: 14 hr 35 min 39 sec) 
 Total Blocks : 196608 Invalid Blocks : 0 Valid Blocks : 196608
 Total Tags : 491520 Threshold : 12288 Invalid Tags : 196608 Pr0 Tags : 98304 Pr1 Tags : 196608 num_pr0 : 12288
 SAE Count : 0
 Inter-Core Inteference in Data Store : 33343234
Heartbeat CPU 2 instructions: 150000000 cycles: 98716820 heartbeat IPC: 1.75307 cumulative IPC: 1.5195 (Simulation time: 14 hr 36 min 2 sec) 
 Total Blocks : 196608 Invalid Blocks : 0 Valid Blocks : 196608
 Total Tags : 491520 Threshold : 12288 Invalid Tags : 196608 Pr0 Tags : 98304 Pr1 Tags : 196608 num_pr0 : 12288
 SAE Count : 0
 Inter-Core Inteference in Data Store : 33353507
Heartbeat CPU 3 instructions: 150000000 cycles: 98722477 heartbeat IPC: 1.75284 cumulative IPC: 1.51941 (Simulation time: 14 hr 36 min 8 sec) 
 Total Blocks : 196608 Invalid Blocks : 0 Valid Blocks : 196608
 Total Tags : 491520 Threshold : 12288 Invalid Tags : 196608 Pr0 Tags : 98304 Pr1 Tags : 196608 num_pr0 : 12288
 SAE Count : 0
 Inter-Core Inteference in Data Store : 33356724
Heartbeat CPU 4 instructions: 150000000 cycles: 98738251 heartbeat IPC: 1.75258 cumulative IPC: 1.51917 (Simulation time: 14 hr 36 min 28 sec) 
 Total Blocks : 196608 Invalid Blocks : 0 Valid Blocks : 196608
 Total Tags : 491520 Threshold : 12288 Invalid Tags : 196608 Pr0 Tags : 98304 Pr1 Tags : 196608 num_pr0 : 12288
 SAE Count : 0
 Inter-Core Inteference in Data Store : 33365376
Heartbeat CPU 6 instructions: 150000000 cycles: 98747126 heartbeat IPC: 1.75219 cumulative IPC: 1.51903 (Simulation time: 14 hr 36 min 38 sec) 
 Total Blocks : 196608 Invalid Blocks : 0 Valid Blocks : 196608
 Total Tags : 491520 Threshold : 12288 Invalid Tags : 196608 Pr0 Tags : 98304 Pr1 Tags : 196608 num_pr0 : 12288
 SAE Count : 0
 Inter-Core Inteference in Data Store : 33370340
Heartbeat CPU 5 instructions: 150000000 cycles: 98765346 heartbeat IPC: 1.75221 cumulative IPC: 1.51875 (Simulation time: 14 hr 36 min 58 sec) 
 Total Blocks : 196608 Invalid Blocks : 0 Valid Blocks : 196608
 Total Tags : 491520 Threshold : 12288 Invalid Tags : 196608 Pr0 Tags : 98304 Pr1 Tags : 196608 num_pr0 : 12288
 SAE Count : 0
 Inter-Core Inteference in Data Store : 33380464
Heartbeat CPU 7 instructions: 150000000 cycles: 98785443 heartbeat IPC: 1.75176 cumulative IPC: 1.51844 (Simulation time: 14 hr 37 min 21 sec) 
 Total Blocks : 196608 Invalid Blocks : 0 Valid Blocks : 196608
 Total Tags : 491520 Threshold : 12288 Invalid Tags : 196608 Pr0 Tags : 98304 Pr1 Tags : 196608 num_pr0 : 12288
 SAE Count : 0
 Inter-Core Inteference in Data Store : 33391625
Heartbeat CPU 0 instructions: 160000000 cycles: 104327646 heartbeat IPC: 1.77053 cumulative IPC: 1.53363 (Simulation time: 15 hr 51 min 32 sec) 
 Total Blocks : 196608 Invalid Blocks : 0 Valid Blocks : 196608
 Total Tags : 491520 Threshold : 12288 Invalid Tags : 196608 Pr0 Tags : 98304 Pr1 Tags : 196608 num_pr0 : 12288
 SAE Count : 0
 Inter-Core Inteference in Data Store : 36099319
Heartbeat CPU 1 instructions: 160000000 cycles: 104348063 heartbeat IPC: 1.77 cumulative IPC: 1.53333 (Simulation time: 15 hr 51 min 46 sec) 
 Total Blocks : 196608 Invalid Blocks : 0 Valid Blocks : 196608
 Total Tags : 491520 Threshold : 12288 Invalid Tags : 196609 Pr0 Tags : 98303 Pr1 Tags : 196608 num_pr0 : 12288
 SAE Count : 0
 Inter-Core Inteference in Data Store : 36110010
Heartbeat CPU 2 instructions: 160000000 cycles: 104367517 heartbeat IPC: 1.76969 cumulative IPC: 1.53304 (Simulation time: 15 hr 52 min 2 sec) 
 Total Blocks : 196608 Invalid Blocks : 0 Valid Blocks : 196608
 Total Tags : 491520 Threshold : 12288 Invalid Tags : 196608 Pr0 Tags : 98304 Pr1 Tags : 196608 num_pr0 : 12288
 SAE Count : 0
 Inter-Core Inteference in Data Store : 36120784
Heartbeat CPU 3 instructions: 160000000 cycles: 104373718 heartbeat IPC: 1.76952 cumulative IPC: 1.53295 (Simulation time: 15 hr 52 min 9 sec) 
 Total Blocks : 196608 Invalid Blocks : 0 Valid Blocks : 196608
 Total Tags : 491520 Threshold : 12288 Invalid Tags : 196608 Pr0 Tags : 98304 Pr1 Tags : 196608 num_pr0 : 12288
 SAE Count : 0
 Inter-Core Inteference in Data Store : 36124354
Heartbeat CPU 4 instructions: 160000000 cycles: 104389888 heartbeat IPC: 1.7694 cumulative IPC: 1.53272 (Simulation time: 15 hr 52 min 22 sec) 
 Total Blocks : 196608 Invalid Blocks : 0 Valid Blocks : 196608
 Total Tags : 491520 Threshold : 12288 Invalid Tags : 196608 Pr0 Tags : 98304 Pr1 Tags : 196608 num_pr0 : 12288
 SAE Count : 0
 Inter-Core Inteference in Data Store : 36133750
Heartbeat CPU 6 instructions: 160000000 cycles: 104400364 heartbeat IPC: 1.7689 cumulative IPC: 1.53256 (Simulation time: 15 hr 52 min 33 sec) 
 Total Blocks : 196608 Invalid Blocks : 0 Valid Blocks : 196608
 Total Tags : 491520 Threshold : 12288 Invalid Tags : 196608 Pr0 Tags : 98304 Pr1 Tags : 196608 num_pr0 : 12288
 SAE Count : 0
 Inter-Core Inteference in Data Store : 36139929
Heartbeat CPU 5 instructions: 160000000 cycles: 104419167 heartbeat IPC: 1.76872 cumulative IPC: 1.53229 (Simulation time: 15 hr 52 min 51 sec) 
 Total Blocks : 196608 Invalid Blocks : 0 Valid Blocks : 196608
 Total Tags : 491520 Threshold : 12288 Invalid Tags : 196608 Pr0 Tags : 98304 Pr1 Tags : 196608 num_pr0 : 12288
 SAE Count : 0
 Inter-Core Inteference in Data Store : 36151407
Heartbeat CPU 7 instructions: 160000000 cycles: 104440067 heartbeat IPC: 1.76846 cumulative IPC: 1.53198 (Simulation time: 15 hr 53 min 11 sec) 
 Total Blocks : 196608 Invalid Blocks : 0 Valid Blocks : 196608
 Total Tags : 491520 Threshold : 12288 Invalid Tags : 196608 Pr0 Tags : 98304 Pr1 Tags : 196608 num_pr0 : 12288
 SAE Count : 0
 Inter-Core Inteference in Data Store : 36163847
Heartbeat CPU 0 instructions: 170000002 cycles: 109929670 heartbeat IPC: 1.78507 cumulative IPC: 1.54644 (Simulation time: 17 hr 7 min 53 sec) 
 Total Blocks : 196608 Invalid Blocks : 0 Valid Blocks : 196608
 Total Tags : 491520 Threshold : 12288 Invalid Tags : 196608 Pr0 Tags : 98304 Pr1 Tags : 196608 num_pr0 : 12288
 SAE Count : 0
 Inter-Core Inteference in Data Store : 39018636
Heartbeat CPU 1 instructions: 170000002 cycles: 109951716 heartbeat IPC: 1.78455 cumulative IPC: 1.54613 (Simulation time: 17 hr 8 min 6 sec) 
 Total Blocks : 196608 Invalid Blocks : 0 Valid Blocks : 196608
 Total Tags : 491520 Threshold : 12288 Invalid Tags : 196608 Pr0 Tags : 98304 Pr1 Tags : 196608 num_pr0 : 12288
 SAE Count : 0
 Inter-Core Inteference in Data Store : 39024829
Heartbeat CPU 2 instructions: 170000002 cycles: 109972203 heartbeat IPC: 1.78422 cumulative IPC: 1.54585 (Simulation time: 17 hr 8 min 17 sec) 
 Total Blocks : 196608 Invalid Blocks : 0 Valid Blocks : 196608
 Total Tags : 491520 Threshold : 12288 Invalid Tags : 196608 Pr0 Tags : 98304 Pr1 Tags : 196608 num_pr0 : 12288
 SAE Count : 0
 Inter-Core Inteference in Data Store : 39030928
Heartbeat CPU 3 instructions: 170000002 cycles: 109979165 heartbeat IPC: 1.78398 cumulative IPC: 1.54575 (Simulation time: 17 hr 8 min 22 sec) 
 Total Blocks : 196608 Invalid Blocks : 0 Valid Blocks : 196608
 Total Tags : 491520 Threshold : 12288 Invalid Tags : 196608 Pr0 Tags : 98304 Pr1 Tags : 196608 num_pr0 : 12288
 SAE Count : 0
 Inter-Core Inteference in Data Store : 39033108
Heartbeat CPU 4 instructions: 170000002 cycles: 109996339 heartbeat IPC: 1.78366 cumulative IPC: 1.54551 (Simulation time: 17 hr 8 min 36 sec) 
 Total Blocks : 196608 Invalid Blocks : 0 Valid Blocks : 196608
 Total Tags : 491520 Threshold : 12288 Invalid Tags : 196608 Pr0 Tags : 98304 Pr1 Tags : 196608 num_pr0 : 12288
 SAE Count : 0
 Inter-Core Inteference in Data Store : 39039366
Heartbeat CPU 6 instructions: 170000002 cycles: 110007519 heartbeat IPC: 1.78344 cumulative IPC: 1.54535 (Simulation time: 17 hr 8 min 45 sec) 
 Total Blocks : 196608 Invalid Blocks : 0 Valid Blocks : 196608
 Total Tags : 491520 Threshold : 12288 Invalid Tags : 196608 Pr0 Tags : 98304 Pr1 Tags : 196608 num_pr0 : 12288
 SAE Count : 0
 Inter-Core Inteference in Data Store : 39043883
Heartbeat CPU 5 instructions: 170000002 cycles: 110026842 heartbeat IPC: 1.78327 cumulative IPC: 1.54508 (Simulation time: 17 hr 9 min 0 sec) 
 Total Blocks : 196608 Invalid Blocks : 0 Valid Blocks : 196608
 Total Tags : 491520 Threshold : 12288 Invalid Tags : 196608 Pr0 Tags : 98304 Pr1 Tags : 196608 num_pr0 : 12288
 SAE Count : 0
 Inter-Core Inteference in Data Store : 39052914
Heartbeat CPU 7 instructions: 170000002 cycles: 110048951 heartbeat IPC: 1.78289 cumulative IPC: 1.54477 (Simulation time: 17 hr 9 min 17 sec) 
 Total Blocks : 196608 Invalid Blocks : 0 Valid Blocks : 196608
 Total Tags : 491520 Threshold : 12288 Invalid Tags : 196608 Pr0 Tags : 98304 Pr1 Tags : 196608 num_pr0 : 12288
 SAE Count : 0
 Inter-Core Inteference in Data Store : 39064458
Heartbeat CPU 0 instructions: 180000001 cycles: 115504645 heartbeat IPC: 1.79373 cumulative IPC: 1.55838 (Simulation time: 18 hr 20 min 16 sec) 
 Total Blocks : 196608 Invalid Blocks : 0 Valid Blocks : 196608
 Total Tags : 491520 Threshold : 12288 Invalid Tags : 196608 Pr0 Tags : 98304 Pr1 Tags : 196608 num_pr0 : 12288
 SAE Count : 0
 Inter-Core Inteference in Data Store : 41772090
Heartbeat CPU 1 instructions: 180000001 cycles: 115528053 heartbeat IPC: 1.79329 cumulative IPC: 1.55806 (Simulation time: 18 hr 20 min 33 sec) 
 Total Blocks : 196608 Invalid Blocks : 0 Valid Blocks : 196608
 Total Tags : 491520 Threshold : 12288 Invalid Tags : 196608 Pr0 Tags : 98304 Pr1 Tags : 196608 num_pr0 : 12288
 SAE Count : 0
 Inter-Core Inteference in Data Store : 41785253
Heartbeat CPU 2 instructions: 180000001 cycles: 115549006 heartbeat IPC: 1.79314 cumulative IPC: 1.55778 (Simulation time: 18 hr 20 min 47 sec) 
 Total Blocks : 196608 Invalid Blocks : 0 Valid Blocks : 196608
 Total Tags : 491520 Threshold : 12288 Invalid Tags : 196608 Pr0 Tags : 98304 Pr1 Tags : 196608 num_pr0 : 12288
 SAE Count : 0
 Inter-Core Inteference in Data Store : 41796901
Heartbeat CPU 3 instructions: 180000001 cycles: 115557226 heartbeat IPC: 1.79274 cumulative IPC: 1.55767 (Simulation time: 18 hr 20 min 53 sec) 
 Total Blocks : 196608 Invalid Blocks : 0 Valid Blocks : 196608
 Total Tags : 491520 Threshold : 12288 Invalid Tags : 196608 Pr0 Tags : 98304 Pr1 Tags : 196608 num_pr0 : 12288
 SAE Count : 0
 Inter-Core Inteference in Data Store : 41801125
Heartbeat CPU 4 instructions: 180000001 cycles: 115574793 heartbeat IPC: 1.79261 cumulative IPC: 1.55743 (Simulation time: 18 hr 21 min 5 sec) 
 Total Blocks : 196608 Invalid Blocks : 0 Valid Blocks : 196608
 Total Tags : 491520 Threshold : 12288 Invalid Tags : 196608 Pr0 Tags : 98304 Pr1 Tags : 196608 num_pr0 : 12288
 SAE Count : 0
 Inter-Core Inteference in Data Store : 41810587
Heartbeat CPU 6 instructions: 180000001 cycles: 115587430 heartbeat IPC: 1.79214 cumulative IPC: 1.55726 (Simulation time: 18 hr 21 min 15 sec) 
 Total Blocks : 196608 Invalid Blocks : 0 Valid Blocks : 196608
 Total Tags : 491520 Threshold : 12288 Invalid Tags : 196608 Pr0 Tags : 98304 Pr1 Tags : 196608 num_pr0 : 12288
 SAE Count : 0
 Inter-Core Inteference in Data Store : 41817367
Heartbeat CPU 5 instructions: 180000001 cycles: 115606529 heartbeat IPC: 1.79221 cumulative IPC: 1.55701 (Simulation time: 18 hr 21 min 27 sec) 
 Total Blocks : 196608 Invalid Blocks : 0 Valid Blocks : 196608
 Total Tags : 491520 Threshold : 12288 Invalid Tags : 196608 Pr0 Tags : 98304 Pr1 Tags : 196608 num_pr0 : 12288
 SAE Count : 0
 Inter-Core Inteference in Data Store : 41827620
Heartbeat CPU 7 instructions: 180000001 cycles: 115630406 heartbeat IPC: 1.79165 cumulative IPC: 1.55668 (Simulation time: 18 hr 21 min 45 sec) 
 Total Blocks : 196608 Invalid Blocks : 0 Valid Blocks : 196608
 Total Tags : 491520 Threshold : 12288 Invalid Tags : 196608 Pr0 Tags : 98304 Pr1 Tags : 196608 num_pr0 : 12288
 SAE Count : 0
 Inter-Core Inteference in Data Store : 41840310
Heartbeat CPU 0 instructions: 190000000 cycles: 121035260 heartbeat IPC: 1.80812 cumulative IPC: 1.56979 (Simulation time: 19 hr 36 min 29 sec) 
 Total Blocks : 196608 Invalid Blocks : 0 Valid Blocks : 196608
 Total Tags : 491520 Threshold : 12288 Invalid Tags : 196609 Pr0 Tags : 98303 Pr1 Tags : 196608 num_pr0 : 12288
 SAE Count : 0
 Inter-Core Inteference in Data Store : 44796759
Heartbeat CPU 1 instructions: 190000000 cycles: 121059309 heartbeat IPC: 1.80791 cumulative IPC: 1.56948 (Simulation time: 19 hr 36 min 51 sec) 
 Total Blocks : 196608 Invalid Blocks : 0 Valid Blocks : 196608
 Total Tags : 491520 Threshold : 12288 Invalid Tags : 196608 Pr0 Tags : 98304 Pr1 Tags : 196608 num_pr0 : 12288
 SAE Count : 0
 Inter-Core Inteference in Data Store : 44811111
Heartbeat CPU 2 instructions: 190000000 cycles: 121081381 heartbeat IPC: 1.80754 cumulative IPC: 1.56919 (Simulation time: 19 hr 37 min 7 sec) 
 Total Blocks : 196608 Invalid Blocks : 0 Valid Blocks : 196608
 Total Tags : 491520 Threshold : 12288 Invalid Tags : 196608 Pr0 Tags : 98304 Pr1 Tags : 196608 num_pr0 : 12288
 SAE Count : 0
 Inter-Core Inteference in Data Store : 44823898
Heartbeat CPU 3 instructions: 190000000 cycles: 121090427 heartbeat IPC: 1.80727 cumulative IPC: 1.56908 (Simulation time: 19 hr 37 min 15 sec) 
 Total Blocks : 196608 Invalid Blocks : 0 Valid Blocks : 196608
 Total Tags : 491520 Threshold : 12288 Invalid Tags : 196608 Pr0 Tags : 98304 Pr1 Tags : 196608 num_pr0 : 12288
 SAE Count : 0
 Inter-Core Inteference in Data Store : 44829154
Heartbeat CPU 4 instructions: 190000000 cycles: 121108943 heartbeat IPC: 1.80696 cumulative IPC: 1.56884 (Simulation time: 19 hr 37 min 29 sec) 
 Total Blocks : 196608 Invalid Blocks : 0 Valid Blocks : 196608
 Total Tags : 491520 Threshold : 12288 Invalid Tags : 196608 Pr0 Tags : 98304 Pr1 Tags : 196608 num_pr0 : 12288
 SAE Count : 0
 Inter-Core Inteference in Data Store : 44839773
Heartbeat CPU 6 instructions: 190000000 cycles: 121122275 heartbeat IPC: 1.80674 cumulative IPC: 1.56866 (Simulation time: 19 hr 37 min 38 sec) 
 Total Blocks : 196608 Invalid Blocks : 0 Valid Blocks : 196608
 Total Tags : 491520 Threshold : 12288 Invalid Tags : 196608 Pr0 Tags : 98304 Pr1 Tags : 196608 num_pr0 : 12288
 SAE Count : 0
 Inter-Core Inteference in Data Store : 44847103
Heartbeat CPU 5 instructions: 190000000 cycles: 121141803 heartbeat IPC: 1.8066 cumulative IPC: 1.56841 (Simulation time: 19 hr 37 min 56 sec) 
 Total Blocks : 196608 Invalid Blocks : 0 Valid Blocks : 196608
 Total Tags : 491520 Threshold : 12288 Invalid Tags : 196608 Pr0 Tags : 98304 Pr1 Tags : 196608 num_pr0 : 12288
 SAE Count : 0
 Inter-Core Inteference in Data Store : 44858140
Heartbeat CPU 7 instructions: 190000000 cycles: 121166877 heartbeat IPC: 1.8062 cumulative IPC: 1.56809 (Simulation time: 19 hr 38 min 15 sec) 
 Total Blocks : 196608 Invalid Blocks : 0 Valid Blocks : 196608
 Total Tags : 491520 Threshold : 12288 Invalid Tags : 196608 Pr0 Tags : 98304 Pr1 Tags : 196608 num_pr0 : 12288
 SAE Count : 0
 Inter-Core Inteference in Data Store : 44871956
Heartbeat CPU 0 instructions: 200000001 cycles: 126538624 heartbeat IPC: 1.81707 cumulative IPC: 1.58055 (Simulation time: 20 hr 49 min 11 sec) 
 Total Blocks : 196608 Invalid Blocks : 0 Valid Blocks : 196608
 Total Tags : 491520 Threshold : 12288 Invalid Tags : 196608 Pr0 Tags : 98304 Pr1 Tags : 196608 num_pr0 : 12288
 SAE Count : 0
 Inter-Core Inteference in Data Store : 47771836
Heartbeat CPU 1 instructions: 200000001 cycles: 126564012 heartbeat IPC: 1.81663 cumulative IPC: 1.58023 (Simulation time: 20 hr 49 min 31 sec) 
 Total Blocks : 196608 Invalid Blocks : 0 Valid Blocks : 196608
 Total Tags : 491520 Threshold : 12288 Invalid Tags : 196608 Pr0 Tags : 98304 Pr1 Tags : 196608 num_pr0 : 12288
 SAE Count : 0
 Inter-Core Inteference in Data Store : 47786055
Heartbeat CPU 2 instructions: 200000001 cycles: 126587126 heartbeat IPC: 1.81628 cumulative IPC: 1.57994 (Simulation time: 20 hr 49 min 49 sec) 
 Total Blocks : 196608 Invalid Blocks : 0 Valid Blocks : 196608
 Total Tags : 491520 Threshold : 12288 Invalid Tags : 196609 Pr0 Tags : 98303 Pr1 Tags : 196608 num_pr0 : 12288
 SAE Count : 0
 Inter-Core Inteference in Data Store : 47798961
Heartbeat CPU 3 instructions: 200000001 cycles: 126596593 heartbeat IPC: 1.81615 cumulative IPC: 1.57982 (Simulation time: 20 hr 49 min 58 sec) 
 Total Blocks : 196608 Invalid Blocks : 0 Valid Blocks : 196608
 Total Tags : 491520 Threshold : 12288 Invalid Tags : 196608 Pr0 Tags : 98304 Pr1 Tags : 196608 num_pr0 : 12288
 SAE Count : 0
 Inter-Core Inteference in Data Store : 47804346
Heartbeat CPU 4 instructions: 200000001 cycles: 126615757 heartbeat IPC: 1.81593 cumulative IPC: 1.57958 (Simulation time: 20 hr 50 min 12 sec) 
 Total Blocks : 196608 Invalid Blocks : 0 Valid Blocks : 196608
 Total Tags : 491520 Threshold : 12288 Invalid Tags : 196608 Pr0 Tags : 98304 Pr1 Tags : 196608 num_pr0 : 12288
 SAE Count : 0
 Inter-Core Inteference in Data Store : 47815204
Heartbeat CPU 6 instructions: 200000001 cycles: 126630987 heartbeat IPC: 1.81531 cumulative IPC: 1.57939 (Simulation time: 20 hr 50 min 24 sec) 
 Total Blocks : 196608 Invalid Blocks : 0 Valid Blocks : 196608
 Total Tags : 491520 Threshold : 12288 Invalid Tags : 196608 Pr0 Tags : 98304 Pr1 Tags : 196608 num_pr0 : 12288
 SAE Count : 0
 Inter-Core Inteference in Data Store : 47824178
Heartbeat CPU 5 instructions: 200000001 cycles: 126650270 heartbeat IPC: 1.81539 cumulative IPC: 1.57915 (Simulation time: 20 hr 50 min 39 sec) 
 Total Blocks : 196608 Invalid Blocks : 0 Valid Blocks : 196608
 Total Tags : 491520 Threshold : 12288 Invalid Tags : 196608 Pr0 Tags : 98304 Pr1 Tags : 196608 num_pr0 : 12288
 SAE Count : 0
 Inter-Core Inteference in Data Store : 47835581
Heartbeat CPU 7 instructions: 200000001 cycles: 126677128 heartbeat IPC: 1.8148 cumulative IPC: 1.57882 (Simulation time: 20 hr 51 min 0 sec) 
 Total Blocks : 196608 Invalid Blocks : 0 Valid Blocks : 196608
 Total Tags : 491520 Threshold : 12288 Invalid Tags : 196608 Pr0 Tags : 98304 Pr1 Tags : 196608 num_pr0 : 12288
 SAE Count : 0
 Inter-Core Inteference in Data Store : 47851312

Warmup complete CPU 0 instructions: 200249896 cycles: 126677128 (Simulation time: 20 hr 51 min 0 sec) 
Warmup complete CPU 1 instructions: 200203994 cycles: 126677128 (Simulation time: 20 hr 51 min 0 sec) 
Warmup complete CPU 2 instructions: 200161655 cycles: 126677128 (Simulation time: 20 hr 51 min 0 sec) 
Warmup complete CPU 3 instructions: 200144955 cycles: 126677128 (Simulation time: 20 hr 51 min 0 sec) 
Warmup complete CPU 4 instructions: 200108844 cycles: 126677128 (Simulation time: 20 hr 51 min 0 sec) 
Warmup complete CPU 5 instructions: 200047246 cycles: 126677128 (Simulation time: 20 hr 51 min 0 sec) 
Warmup complete CPU 6 instructions: 200081941 cycles: 126677128 (Simulation time: 20 hr 51 min 0 sec) 
Warmup complete CPU 7 instructions: 200000001 cycles: 126677128 (Simulation time: 20 hr 51 min 0 sec) 

Heartbeat CPU 0 instructions: 210000003 cycles: 215630393 heartbeat IPC: 0.112244 cumulative IPC: 0.109609 (Simulation time: 23 hr 53 min 56 sec) 
 Total Blocks : 196608 Invalid Blocks : 0 Valid Blocks : 196608
 Total Tags : 491520 Threshold : 12288 Invalid Tags : 196608 Pr0 Tags : 98304 Pr1 Tags : 196608 num_pr0 : 12288
 SAE Count : 0
 Inter-Core Inteference in Data Store : 2652399
Heartbeat CPU 1 instructions: 210000003 cycles: 216220510 heartbeat IPC: 0.111537 cumulative IPC: 0.1094 (Simulation time: 23 hr 54 min 54 sec) 
 Total Blocks : 196608 Invalid Blocks : 0 Valid Blocks : 196608
 Total Tags : 491520 Threshold : 12288 Invalid Tags : 196608 Pr0 Tags : 98304 Pr1 Tags : 196608 num_pr0 : 12288
 SAE Count : 0
 Inter-Core Inteference in Data Store : 2669830
Heartbeat CPU 2 instructions: 210000003 cycles: 216505583 heartbeat IPC: 0.111212 cumulative IPC: 0.109524 (Simulation time: 23 hr 55 min 21 sec) 
 Total Blocks : 196608 Invalid Blocks : 0 Valid Blocks : 196608
 Total Tags : 491520 Threshold : 12288 Invalid Tags : 196608 Pr0 Tags : 98304 Pr1 Tags : 196608 num_pr0 : 12288
 SAE Count : 0
 Inter-Core Inteference in Data Store : 2677374
Heartbeat CPU 3 instructions: 210000003 cycles: 216520383 heartbeat IPC: 0.111205 cumulative IPC: 0.109692 (Simulation time: 23 hr 55 min 22 sec) 
 Total Blocks : 196608 Invalid Blocks : 0 Valid Blocks : 196608
 Total Tags : 491520 Threshold : 12288 Invalid Tags : 196608 Pr0 Tags : 98304 Pr1 Tags : 196608 num_pr0 : 12288
 SAE Count : 0
 Inter-Core Inteference in Data Store : 2677744
Heartbeat CPU 4 instructions: 210000003 cycles: 216659289 heartbeat IPC: 0.111057 cumulative IPC: 0.109924 (Simulation time: 23 hr 55 min 34 sec) 
 Total Blocks : 196608 Invalid Blocks : 0 Valid Blocks : 196608
 Total Tags : 491520 Threshold : 12288 Invalid Tags : 196608 Pr0 Tags : 98304 Pr1 Tags : 196608 num_pr0 : 12288
 SAE Count : 0
 Inter-Core Inteference in Data Store : 2681149
Heartbeat CPU 5 instructions: 210000003 cycles: 216659391 heartbeat IPC: 0.1111 cumulative IPC: 0.110608 (Simulation time: 23 hr 55 min 34 sec) 
 Total Blocks : 196608 Invalid Blocks : 0 Valid Blocks : 196608
 Total Tags : 491520 Threshold : 12288 Invalid Tags : 196608 Pr0 Tags : 98304 Pr1 Tags : 196608 num_pr0 : 12288
 SAE Count : 0
 Inter-Core Inteference in Data Store : 2681152
Heartbeat CPU 6 instructions: 210000003 cycles: 217250070 heartbeat IPC: 0.110352 cumulative IPC: 0.109504 (Simulation time: 23 hr 56 min 23 sec) 
 Total Blocks : 196608 Invalid Blocks : 0 Valid Blocks : 196608
 Total Tags : 491520 Threshold : 12288 Invalid Tags : 196608 Pr0 Tags : 98304 Pr1 Tags : 196608 num_pr0 : 12288
 SAE Count : 0
 Inter-Core Inteference in Data Store : 2693746
Heartbeat CPU 7 instructions: 210000003 cycles: 217303103 heartbeat IPC: 0.110344 cumulative IPC: 0.110344 (Simulation time: 23 hr 56 min 26 sec) 
 Total Blocks : 196608 Invalid Blocks : 0 Valid Blocks : 196608
 Total Tags : 491520 Threshold : 12288 Invalid Tags : 196608 Pr0 Tags : 98304 Pr1 Tags : 196608 num_pr0 : 12288
 SAE Count : 0
 Inter-Core Inteference in Data Store : 2694587
Heartbeat CPU 0 instructions: 220000000 cycles: 306489878 heartbeat IPC: 0.11006 cumulative IPC: 0.109837 (Simulation time: 26 hr 47 min 12 sec) 
 Total Blocks : 196608 Invalid Blocks : 0 Valid Blocks : 196608
 Total Tags : 491520 Threshold : 12288 Invalid Tags : 196608 Pr0 Tags : 98304 Pr1 Tags : 196608 num_pr0 : 12288
 SAE Count : 0
 Inter-Core Inteference in Data Store : 5401326
Heartbeat CPU 5 instructions: 220000000 cycles: 306963712 heartbeat IPC: 0.110737 cumulative IPC: 0.110672 (Simulation time: 26 hr 47 min 48 sec) 
 Total Blocks : 196608 Invalid Blocks : 0 Valid Blocks : 196608
 Total Tags : 491520 Threshold : 12288 Invalid Tags : 196609 Pr0 Tags : 98303 Pr1 Tags : 196608 num_pr0 : 12288
 SAE Count : 0
 Inter-Core Inteference in Data Store : 5410249
Heartbeat CPU 3 instructions: 220000000 cycles: 307013443 heartbeat IPC: 0.110506 cumulative IPC: 0.1101 (Simulation time: 26 hr 47 min 53 sec) 
 Total Blocks : 196608 Invalid Blocks : 0 Valid Blocks : 196608
 Total Tags : 491520 Threshold : 12288 Invalid Tags : 196608 Pr0 Tags : 98304 Pr1 Tags : 196608 num_pr0 : 12288
 SAE Count : 0
 Inter-Core Inteference in Data Store : 5411098
Heartbeat CPU 1 instructions: 220000000 cycles: 307072245 heartbeat IPC: 0.110069 cumulative IPC: 0.109737 (Simulation time: 26 hr 47 min 57 sec) 
 Total Blocks : 196608 Invalid Blocks : 0 Valid Blocks : 196608
 Total Tags : 491520 Threshold : 12288 Invalid Tags : 196609 Pr0 Tags : 98303 Pr1 Tags : 196608 num_pr0 : 12287
 SAE Count : 0
 Inter-Core Inteference in Data Store : 5412145
Heartbeat CPU 2 instructions: 220000000 cycles: 307299212 heartbeat IPC: 0.11014 cumulative IPC: 0.109833 (Simulation time: 26 hr 48 min 17 sec) 
 Total Blocks : 196608 Invalid Blocks : 0 Valid Blocks : 196608
 Total Tags : 491520 Threshold : 12288 Invalid Tags : 196608 Pr0 Tags : 98304 Pr1 Tags : 196608 num_pr0 : 12288
 SAE Count : 0
 Inter-Core Inteference in Data Store : 5416285
Heartbeat CPU 7 instructions: 220000000 cycles: 307420044 heartbeat IPC: 0.110967 cumulative IPC: 0.110654 (Simulation time: 26 hr 48 min 26 sec) 
 Total Blocks : 196608 Invalid Blocks : 0 Valid Blocks : 196608
 Total Tags : 491520 Threshold : 12288 Invalid Tags : 196608 Pr0 Tags : 98304 Pr1 Tags : 196608 num_pr0 : 12288
 SAE Count : 0
 Inter-Core Inteference in Data Store : 5418381
Heartbeat CPU 4 instructions: 220000000 cycles: 307658275 heartbeat IPC: 0.109891 cumulative IPC: 0.109907 (Simulation time: 26 hr 48 min 47 sec) 
 Total Blocks : 196608 Invalid Blocks : 0 Valid Blocks : 196608
 Total Tags : 491520 Threshold : 12288 Invalid Tags : 196608 Pr0 Tags : 98304 Pr1 Tags : 196608 num_pr0 : 12288
 SAE Count : 0
 Inter-Core Inteference in Data Store : 5423082
Heartbeat CPU 6 instructions: 220000000 cycles: 307802600 heartbeat IPC: 0.110433 cumulative IPC: 0.109968 (Simulation time: 26 hr 49 min 2 sec) 
 Total Blocks : 196608 Invalid Blocks : 0 Valid Blocks : 196608
 Total Tags : 491520 Threshold : 12288 Invalid Tags : 196608 Pr0 Tags : 98304 Pr1 Tags : 196608 num_pr0 : 12288
 SAE Count : 0
 Inter-Core Inteference in Data Store : 5426642
Heartbeat CPU 0 instructions: 230000002 cycles: 396375814 heartbeat IPC: 0.111252 cumulative IPC: 0.110309 (Simulation time: 29 hr 28 min 28 sec) 
 Total Blocks : 196608 Invalid Blocks : 0 Valid Blocks : 196608
 Total Tags : 491520 Threshold : 12288 Invalid Tags : 196608 Pr0 Tags : 98304 Pr1 Tags : 196608 num_pr0 : 12288
 SAE Count : 0
 Inter-Core Inteference in Data Store : 8079153
Heartbeat CPU 5 instructions: 230000002 cycles: 396459339 heartbeat IPC: 0.111737 cumulative IPC: 0.111026 (Simulation time: 29 hr 28 min 38 sec) 
 Total Blocks : 196608 Invalid Blocks : 0 Valid Blocks : 196608
 Total Tags : 491520 Threshold : 12288 Invalid Tags : 196608 Pr0 Tags : 98304 Pr1 Tags : 196608 num_pr0 : 12288
 SAE Count : 0
 Inter-Core Inteference in Data Store : 8081902
Heartbeat CPU 7 instructions: 230000002 cycles: 396592350 heartbeat IPC: 0.112142 cumulative IPC: 0.111146 (Simulation time: 29 hr 28 min 56 sec) 
 Total Blocks : 196608 Invalid Blocks : 0 Valid Blocks : 196608
 Total Tags : 491520 Threshold : 12288 Invalid Tags : 196608 Pr0 Tags : 98304 Pr1 Tags : 196608 num_pr0 : 12288
 SAE Count : 0
 Inter-Core Inteference in Data Store : 8086183
Heartbeat CPU 3 instructions: 230000002 cycles: 397234940 heartbeat IPC: 0.110838 cumulative IPC: 0.110346 (Simulation time: 29 hr 30 min 11 sec) 
 Total Blocks : 196608 Invalid Blocks : 0 Valid Blocks : 196608
 Total Tags : 491520 Threshold : 12288 Invalid Tags : 196608 Pr0 Tags : 98304 Pr1 Tags : 196608 num_pr0 : 12288
 SAE Count : 0
 Inter-Core Inteference in Data Store : 8106532
Heartbeat CPU 1 instructions: 230000002 cycles: 397401023 heartbeat IPC: 0.110707 cumulative IPC: 0.110061 (Simulation time: 29 hr 30 min 29 sec) 
 Total Blocks : 196608 Invalid Blocks : 0 Valid Blocks : 196608
 Total Tags : 491520 Threshold : 12288 Invalid Tags : 196608 Pr0 Tags : 98304 Pr1 Tags : 196608 num_pr0 : 12288
 SAE Count : 0
 Inter-Core Inteference in Data Store : 8111827
Heartbeat CPU 2 instructions: 230000002 cycles: 397472696 heartbeat IPC: 0.110897 cumulative IPC: 0.110188 (Simulation time: 29 hr 30 min 37 sec) 
 Total Blocks : 196608 Invalid Blocks : 0 Valid Blocks : 196608
 Total Tags : 491520 Threshold : 12288 Invalid Tags : 196608 Pr0 Tags : 98304 Pr1 Tags : 196608 num_pr0 : 12288
 SAE Count : 0
 Inter-Core Inteference in Data Store : 8114127
Heartbeat CPU 6 instructions: 230000002 cycles: 397791964 heartbeat IPC: 0.111124 cumulative IPC: 0.110352 (Simulation time: 29 hr 31 min 11 sec) 
 Total Blocks : 196608 Invalid Blocks : 0 Valid Blocks : 196608
 Total Tags : 491520 Threshold : 12288 Invalid Tags : 196608 Pr0 Tags : 98304 Pr1 Tags : 196608 num_pr0 : 12288
 SAE Count : 0
 Inter-Core Inteference in Data Store : 8124918
Heartbeat CPU 4 instructions: 230000002 cycles: 397898405 heartbeat IPC: 0.110815 cumulative IPC: 0.110209 (Simulation time: 29 hr 31 min 22 sec) 
 Total Blocks : 196608 Invalid Blocks : 0 Valid Blocks : 196608
 Total Tags : 491520 Threshold : 12288 Invalid Tags : 196608 Pr0 Tags : 98304 Pr1 Tags : 196608 num_pr0 : 12288
 SAE Count : 0
 Inter-Core Inteference in Data Store : 8128616
Heartbeat CPU 7 instructions: 240000003 cycles: 488905300 heartbeat IPC: 0.108327 cumulative IPC: 0.110428 (Simulation time: 36 hr 42 min 5 sec) 
 Total Blocks : 196608 Invalid Blocks : 0 Valid Blocks : 196608
 Total Tags : 491520 Threshold : 12288 Invalid Tags : 196608 Pr0 Tags : 98304 Pr1 Tags : 196608 num_pr0 : 12288
 SAE Count : 0
 Inter-Core Inteference in Data Store : 11007019
Heartbeat CPU 0 instructions: 240000003 cycles: 489022917 heartbeat IPC: 0.107936 cumulative IPC: 0.109702 (Simulation time: 36 hr 56 min 12 sec) 
 Total Blocks : 196608 Invalid Blocks : 0 Valid Blocks : 196608
 Total Tags : 491520 Threshold : 12288 Invalid Tags : 196608 Pr0 Tags : 98304 Pr1 Tags : 196608 num_pr0 : 12288
 SAE Count : 0
 Inter-Core Inteference in Data Store : 11010921
Heartbeat CPU 5 instructions: 240000003 cycles: 489109417 heartbeat IPC: 0.107933 cumulative IPC: 0.110235 (Simulation time: 37 hr 5 min 42 sec) 
 Total Blocks : 196608 Invalid Blocks : 0 Valid Blocks : 196608
 Total Tags : 491520 Threshold : 12288 Invalid Tags : 196608 Pr0 Tags : 98304 Pr1 Tags : 196608 num_pr0 : 12288
 SAE Count : 0
 Inter-Core Inteference in Data Store : 11013820
Heartbeat CPU 1 instructions: 240000003 cycles: 490142876 heartbeat IPC: 0.107826 cumulative IPC: 0.10949 (Simulation time: 38 hr 34 min 9 sec) 
 Total Blocks : 196608 Invalid Blocks : 0 Valid Blocks : 196608
 Total Tags : 491520 Threshold : 12288 Invalid Tags : 196608 Pr0 Tags : 98304 Pr1 Tags : 196608 num_pr0 : 12288
 SAE Count : 0
 Inter-Core Inteference in Data Store : 11046987
Heartbeat CPU 3 instructions: 240000003 cycles: 490330396 heartbeat IPC: 0.107417 cumulative IPC: 0.109596 (Simulation time: 38 hr 49 min 21 sec) 
 Total Blocks : 196608 Invalid Blocks : 0 Valid Blocks : 196608
 Total Tags : 491520 Threshold : 12288 Invalid Tags : 196609 Pr0 Tags : 98303 Pr1 Tags : 196608 num_pr0 : 12288
 SAE Count : 0
 Inter-Core Inteference in Data Store : 11052518
Heartbeat CPU 2 instructions: 240000003 cycles: 490727241 heartbeat IPC: 0.107233 cumulative IPC: 0.109431 (Simulation time: 39 hr 25 min 36 sec) 
 Total Blocks : 196608 Invalid Blocks : 0 Valid Blocks : 196608
 Total Tags : 491520 Threshold : 12288 Invalid Tags : 196608 Pr0 Tags : 98304 Pr1 Tags : 196608 num_pr0 : 12288
 SAE Count : 0
 Inter-Core Inteference in Data Store : 11064976
Heartbeat CPU 6 instructions: 240000003 cycles: 490816249 heartbeat IPC: 0.107499 cumulative IPC: 0.109623 (Simulation time: 39 hr 32 min 36 sec) 
 Total Blocks : 196608 Invalid Blocks : 0 Valid Blocks : 196608
 Total Tags : 491520 Threshold : 12288 Invalid Tags : 196608 Pr0 Tags : 98304 Pr1 Tags : 196608 num_pr0 : 12288
 SAE Count : 0
 Inter-Core Inteference in Data Store : 11068096
Heartbeat CPU 4 instructions: 240000003 cycles: 490903035 heartbeat IPC: 0.107522 cumulative IPC: 0.109523 (Simulation time: 39 hr 39 min 10 sec) 
 Total Blocks : 196608 Invalid Blocks : 0 Valid Blocks : 196608
 Total Tags : 491520 Threshold : 12288 Invalid Tags : 196608 Pr0 Tags : 98304 Pr1 Tags : 196608 num_pr0 : 12288
 SAE Count : 0
 Inter-Core Inteference in Data Store : 11071043
Heartbeat CPU 7 instructions: 250000000 cycles: 580870372 heartbeat IPC: 0.108737 cumulative IPC: 0.110085 (Simulation time: 80 hr 1 min 14 sec) 
 Total Blocks : 196608 Invalid Blocks : 0 Valid Blocks : 196608
 Total Tags : 491520 Threshold : 12288 Invalid Tags : 196608 Pr0 Tags : 98304 Pr1 Tags : 196608 num_pr0 : 12288
 SAE Count : 0
 Inter-Core Inteference in Data Store : 13878946
Heartbeat CPU 5 instructions: 250000000 cycles: 581015298 heartbeat IPC: 0.108807 cumulative IPC: 0.109946 (Simulation time: 80 hr 2 min 47 sec) 
 Total Blocks : 196608 Invalid Blocks : 0 Valid Blocks : 196608
 Total Tags : 491520 Threshold : 12288 Invalid Tags : 196608 Pr0 Tags : 98304 Pr1 Tags : 196608 num_pr0 : 12288
 SAE Count : 0
 Inter-Core Inteference in Data Store : 13883680
Heartbeat CPU 0 instructions: 250000000 cycles: 581041152 heartbeat IPC: 0.108674 cumulative IPC: 0.109494 (Simulation time: 80 hr 3 min 1 sec) 
 Total Blocks : 196608 Invalid Blocks : 0 Valid Blocks : 196608
 Total Tags : 491520 Threshold : 12288 Invalid Tags : 196608 Pr0 Tags : 98304 Pr1 Tags : 196608 num_pr0 : 12288
 SAE Count : 0
 Inter-Core Inteference in Data Store : 13884513
Heartbeat CPU 3 instructions: 250000000 cycles: 582486210 heartbeat IPC: 0.108512 cumulative IPC: 0.109377 (Simulation time: 80 hr 15 min 39 sec) 
 Total Blocks : 196608 Invalid Blocks : 0 Valid Blocks : 196608
 Total Tags : 491520 Threshold : 12288 Invalid Tags : 196608 Pr0 Tags : 98304 Pr1 Tags : 196608 num_pr0 : 12288
 SAE Count : 0
 Inter-Core Inteference in Data Store : 13931341
Heartbeat CPU 1 instructions: 250000000 cycles: 582555094 heartbeat IPC: 0.108211 cumulative IPC: 0.109231 (Simulation time: 80 hr 16 min 7 sec) 
 Total Blocks : 196608 Invalid Blocks : 0 Valid Blocks : 196608
 Total Tags : 491520 Threshold : 12288 Invalid Tags : 196608 Pr0 Tags : 98304 Pr1 Tags : 196608 num_pr0 : 12288
 SAE Count : 0
 Inter-Core Inteference in Data Store : 13933527
Heartbeat CPU 2 instructions: 250000000 cycles: 582895580 heartbeat IPC: 0.108497 cumulative IPC: 0.109242 (Simulation time: 80 hr 18 min 57 sec) 
 Total Blocks : 196608 Invalid Blocks : 0 Valid Blocks : 196608
 Total Tags : 491520 Threshold : 12288 Invalid Tags : 196608 Pr0 Tags : 98304 Pr1 Tags : 196608 num_pr0 : 12288
 SAE Count : 0
 Inter-Core Inteference in Data Store : 13944530
Heartbeat CPU 6 instructions: 250000000 cycles: 583050660 heartbeat IPC: 0.108419 cumulative IPC: 0.10938 (Simulation time: 80 hr 20 min 8 sec) 
 Total Blocks : 196608 Invalid Blocks : 0 Valid Blocks : 196608
[...]
LLC4 RFO       ACCESS: 11785  HIT:  3900  MISS:  7885  HIT %: 33.0929  MISS %: 66.9071  AVERAGE MISS PENALTY: 703.475
LLC4 PREFETCH  ACCESS: 5494842  HIT: 2462351  MISS: 3032491  HIT %: 44.812  MISS %: 55.188  AVERAGE MISS PENALTY: 727.458
LLC4 WRITEBACK ACCESS: 79440  HIT: 49912  MISS: 29528  HIT %: 62.8298  MISS %: 37.1702  AVERAGE MISS PENALTY: 0
LLC4 PREFETCH  REQUESTED:     0  ISSUED:     0  USEFUL: 1433469  USELESS: 5231674
 USEFUL LOAD PREFETCHES:    1433469 PREFETCH ISSUED TO LOWER LEVEL: 1161520839  ACCURACY: 0.123413
 TIMELY PREFETCHES:    1433469 LATE PREFETCHES: 0 DROPPED PREFETCHES: 0
LLC4 AVERAGE MISS LATENCY: 720.255 cycles

LLC4 Set Associative Eviction Count : 0
LLC4 Priority 0 entries : 12288
LLC4 Inter-Core Interference : 7316962
LLC5 TOTAL     ACCESS: 6699440  HIT: 3098314  MISS: 3601126  HIT %: 46.2474  MISS %: 53.7526  AVERAGE MISS PENALTY: 717.336
LLC5 LOAD      ACCESS: 1239730  HIT: 642699  MISS: 597031  HIT %: 51.8419  MISS %: 48.1581  AVERAGE MISS PENALTY: 677.106
LLC5 RFO       ACCESS: 11667  HIT:  3828  MISS:  7839  HIT %: 32.8105  MISS %: 67.1895  AVERAGE MISS PENALTY: 671.003
LLC5 PREFETCH  ACCESS: 5369412  HIT: 2402471  MISS: 2966941  HIT %: 44.7437  MISS %: 55.2563  AVERAGE MISS PENALTY: 732.642
LLC5 WRITEBACK ACCESS: 78631  HIT: 49316  MISS: 29315  HIT %: 62.7183  MISS %: 37.2817  AVERAGE MISS PENALTY: 0
LLC5 PREFETCH  REQUESTED:     0  ISSUED:     0  USEFUL: 1401238  USELESS: 5148633
 USEFUL LOAD PREFETCHES:    1401238 PREFETCH ISSUED TO LOWER LEVEL:  847574909  ACCURACY: 0.165323
 TIMELY PREFETCHES:    1401238 LATE PREFETCHES: 0 DROPPED PREFETCHES: 0
LLC5 AVERAGE MISS LATENCY: 682.159 cycles

LLC5 Set Associative Eviction Count : 0
LLC5 Priority 0 entries : 12288
LLC5 Inter-Core Interference : 7203017
LLC6 TOTAL     ACCESS: 6568966  HIT: 3054287  MISS: 3514679  HIT %: 46.4957  MISS %: 53.5043  AVERAGE MISS PENALTY: 705.747
LLC6 LOAD      ACCESS: 1191687  HIT: 599958  MISS: 591729  HIT %: 50.3453  MISS %: 49.6547  AVERAGE MISS PENALTY: 705.996
LLC6 RFO       ACCESS: 11474  HIT:  3721  MISS:  7753  HIT %: 32.4298  MISS %: 67.5702  AVERAGE MISS PENALTY: 713.451
LLC6 PREFETCH  ACCESS: 5288089  HIT: 2402143  MISS: 2885946  HIT %: 45.4255  MISS %: 54.5745  AVERAGE MISS PENALTY: 712.829
LLC6 WRITEBACK ACCESS: 77716  HIT: 48465  MISS: 29251  HIT %: 62.3617  MISS %: 37.6383  AVERAGE MISS PENALTY: 0
LLC6 PREFETCH  REQUESTED:     0  ISSUED:     0  USEFUL: 1384399  USELESS: 5096512
 USEFUL LOAD PREFETCHES:    1384399 PREFETCH ISSUED TO LOWER LEVEL: 1676386477  ACCURACY: 0.0825823
 TIMELY PREFETCHES:    1384399 LATE PREFETCHES: 0 DROPPED PREFETCHES: 0
LLC6 AVERAGE MISS LATENCY: 705.747 cycles

LLC6 Set Associative Eviction Count : 0
LLC6 Priority 0 entries : 12288
LLC6 Inter-Core Interference : 7136037
LLC7 TOTAL     ACCESS: 6448091  HIT: 3035058  MISS: 3413033  HIT %: 47.0691  MISS %: 52.9309  AVERAGE MISS PENALTY: 674.805
LLC7 LOAD      ACCESS: 1187648  HIT: 597209  MISS: 590439  HIT %: 50.285  MISS %: 49.715  AVERAGE MISS PENALTY: 663.561
LLC7 RFO       ACCESS: 11441  HIT:  3663  MISS:  7778  HIT %: 32.0164  MISS %: 67.9836  AVERAGE MISS PENALTY: 675.563
LLC7 PREFETCH  ACCESS: 5174929  HIT: 2389152  MISS: 2785777  HIT %: 46.1678  MISS %: 53.8322  AVERAGE MISS PENALTY: 684.22
LLC7 WRITEBACK ACCESS: 74073  HIT: 45034  MISS: 29039  HIT %: 60.7968  MISS %: 39.2032  AVERAGE MISS PENALTY: 0
LLC7 PREFETCH  REQUESTED:     0  ISSUED:     0  USEFUL: 1372438  USELESS: 5042729
 USEFUL LOAD PREFETCHES:    1372438 PREFETCH ISSUED TO LOWER LEVEL: 1207339386  ACCURACY: 0.113675
 TIMELY PREFETCHES:    1372438 LATE PREFETCHES: 0 DROPPED PREFETCHES: 0
LLC7 AVERAGE MISS LATENCY: 674.804 cycles

LLC7 Set Associative Eviction Count : 0
LLC7 Priority 0 entries : 12288
LLC7 Inter-Core Interference : 7072829
ROI Average ROB Stall Cycles:	57.038
ROI Total ROB Stalls Cycles:	1806289490
ROI TOTAL ROB counter      :	31668151
ROI Average Load ROB Stall Cycles:	384.609
ROI Total Load ROB Stalls Cycle  :	1695483741
ROI Total Load ROB stalls Counter:	4408330
Major fault: 0 Minor fault: 58235

CPU 7 cumulative IPC: 0.10861 instructions: 200000001 cycles: 1841446537
ITLB TOTAL     ACCESS: 30254682  HIT: 30254682  MISS:     0  HIT %:   100  MISS %:     0  AVERAGE MISS PENALTY: 0
ITLB LOAD      ACCESS: 30254682  HIT: 30254682  MISS:     0  HIT %:   100  MISS %:     0  AVERAGE MISS PENALTY: 0
ITLB RFO       ACCESS:     0  HIT:     0  MISS:     0  HIT %:     0  MISS %:     0  AVERAGE MISS PENALTY: 0
ITLB PREFETCH  ACCESS:     0  HIT:     0  MISS:     0  HIT %:     0  MISS %:     0  AVERAGE MISS PENALTY: 0
ITLB WRITEBACK ACCESS:     0  HIT:     0  MISS:     0  HIT %:     0  MISS %:     0  AVERAGE MISS PENALTY: 0
ITLB PREFETCH  REQUESTED:     0  ISSUED:     0  USEFUL:     0  USELESS:     0
 USEFUL LOAD PREFETCHES:          0 PREFETCH ISSUED TO LOWER LEVEL:          0  ACCURACY: -nan
 TIMELY PREFETCHES:          0 LATE PREFETCHES: 0 DROPPED PREFETCHES: 0
ITLB AVERAGE MISS LATENCY: -nan cycles

ITLB Set Associative Eviction Count : 0
ITLB Priority 0 entries : 0
ITLB Inter-Core Interference : 0
DTLB TOTAL     ACCESS: 55028657  HIT: 48491602  MISS: 6537055  HIT %: 88.1206  MISS %: 11.8794  AVERAGE MISS PENALTY: 11.0335
DTLB LOAD      ACCESS: 53960245  HIT: 47726605  MISS: 6233640  HIT %: 88.4477  MISS %: 11.5523  AVERAGE MISS PENALTY: 10.8491
DTLB RFO       ACCESS: 1068412  HIT: 764997  MISS: 303415  HIT %: 71.6013  MISS %: 28.3987  AVERAGE MISS PENALTY: 14.8231
DTLB PREFETCH  ACCESS:     0  HIT:     0  MISS:     0  HIT %:     0  MISS %:     0  AVERAGE MISS PENALTY: 0
DTLB WRITEBACK ACCESS:     0  HIT:     0  MISS:     0  HIT %:     0  MISS %:     0  AVERAGE MISS PENALTY: 0
DTLB PREFETCH  REQUESTED:     0  ISSUED:     0  USEFUL:     0  USELESS:     0
 USEFUL LOAD PREFETCHES:          0 PREFETCH ISSUED TO LOWER LEVEL:          0  ACCURACY: -nan
 TIMELY PREFETCHES:          0 LATE PREFETCHES: 0 DROPPED PREFETCHES: 0
DTLB AVERAGE MISS LATENCY: 11.0335 cycles

DTLB Set Associative Eviction Count : 0
DTLB Priority 0 entries : 0
DTLB Inter-Core Interference : 0
STLB TOTAL     ACCESS: 6537055  HIT: 6442140  MISS: 94915  HIT %: 98.548  MISS %: 1.45195  AVERAGE MISS PENALTY: 100
STLB LOAD      ACCESS: 6233640  HIT: 6156273  MISS: 77367  HIT %: 98.7589  MISS %: 1.24112  AVERAGE MISS PENALTY: 100
STLB RFO       ACCESS: 303415  HIT: 285867  MISS: 17548  HIT %: 94.2165  MISS %: 5.7835  AVERAGE MISS PENALTY: 100
STLB PREFETCH  ACCESS:     0  HIT:     0  MISS:     0  HIT %:     0  MISS %:     0  AVERAGE MISS PENALTY: 0
STLB WRITEBACK ACCESS:     0  HIT:     0  MISS:     0  HIT %:     0  MISS %:     0  AVERAGE MISS PENALTY: 0
STLB PREFETCH  REQUESTED:     0  ISSUED:     0  USEFUL:     0  USELESS:     0
 USEFUL LOAD PREFETCHES:          0 PREFETCH ISSUED TO LOWER LEVEL:          0  ACCURACY: -nan
 TIMELY PREFETCHES:          0 LATE PREFETCHES: 0 DROPPED PREFETCHES: 0
STLB AVERAGE MISS LATENCY: 100 cycles

STLB Set Associative Eviction Count : 0
STLB Priority 0 entries : 0
STLB Inter-Core Interference : 0
L1D TOTAL     ACCESS: 82811047  HIT: 46780283  MISS: 36030764  HIT %: 56.4904  MISS %: 43.5096  AVERAGE MISS PENALTY: 2.3955e+06
L1D LOAD      ACCESS: 52391684  HIT: 42569094  MISS: 9822590  HIT %: 81.2516  MISS %: 18.7484  AVERAGE MISS PENALTY: 8.78569e+06
L1D RFO       ACCESS: 1070650  HIT: 746374  MISS: 324276  HIT %: 69.7122  MISS %: 30.2878  AVERAGE MISS PENALTY: 723.706
L1D PREFETCH  ACCESS: 29348713  HIT: 3464815  MISS: 25883898  HIT %: 11.8057  MISS %: 88.1943  AVERAGE MISS PENALTY: 507.419
L1D WRITEBACK ACCESS:     0  HIT:     0  MISS:     0  HIT %:     0  MISS %:     0  AVERAGE MISS PENALTY: 0
L1D PREFETCH  REQUESTED: 40832324  ISSUED: 30168948  USEFUL: 1233586  USELESS: 24650341
 USEFUL LOAD PREFETCHES:    1233586 PREFETCH ISSUED TO LOWER LEVEL:  526884653  ACCURACY: 0.234128
 TIMELY PREFETCHES:    1233586 LATE PREFETCHES: 258197 DROPPED PREFETCHES: 10663376
L1D AVERAGE MISS LATENCY: 438.81 cycles

L1D Set Associative Eviction Count : 0
L1D Priority 0 entries : 0
L1D Inter-Core Interference : 0
L1I TOTAL     ACCESS: 44164496  HIT: 44164496  MISS:     0  HIT %:   100  MISS %:     0  AVERAGE MISS PENALTY: 0
L1I LOAD      ACCESS: 44164496  HIT: 44164496  MISS:     0  HIT %:   100  MISS %:     0  AVERAGE MISS PENALTY: 0
L1I RFO       ACCESS:     0  HIT:     0  MISS:     0  HIT %:     0  MISS %:     0  AVERAGE MISS PENALTY: 0
L1I PREFETCH  ACCESS:     0  HIT:     0  MISS:     0  HIT %:     0  MISS %:     0  AVERAGE MISS PENALTY: 0
L1I WRITEBACK ACCESS:     0  HIT:     0  MISS:     0  HIT %:     0  MISS %:     0  AVERAGE MISS PENALTY: 0
L1I PREFETCH  REQUESTED:     0  ISSUED:     0  USEFUL:     0  USELESS:     0
 USEFUL LOAD PREFETCHES:          0 PREFETCH ISSUED TO LOWER LEVEL:          0  ACCURACY: -nan
 TIMELY PREFETCHES:          0 LATE PREFETCHES: 0 DROPPED PREFETCHES: 0
L1I AVERAGE MISS LATENCY: -nan cycles

L1I Set Associative Eviction Count : 0
L1I Priority 0 entries : 0
L1I Inter-Core Interference : 0
L2C TOTAL     ACCESS: 58437839  HIT: 4640341  MISS: 53797498  HIT %: 7.94064  MISS %: 92.0594  AVERAGE MISS PENALTY: 2.00483e+06
L2C LOAD      ACCESS: 9817410  HIT: 184917  MISS: 9632493  HIT %: 1.88356  MISS %: 98.1164  AVERAGE MISS PENALTY: 1.11948e+07
L2C RFO       ACCESS: 324258  HIT: 230460  MISS: 93798  HIT %: 71.073  MISS %: 28.927  AVERAGE MISS PENALTY: 553.439
L2C PREFETCH  ACCESS: 47405383  HIT: 3692989  MISS: 43712394  HIT %: 7.79023  MISS %: 92.2098  AVERAGE MISS PENALTY: 480.798
L2C WRITEBACK ACCESS: 890788  HIT: 531975  MISS: 358813  HIT %: 59.7196  MISS %: 40.2804  AVERAGE MISS PENALTY: 0
L2C PREFETCH  REQUESTED: 59096733  ISSUED: 58477854  USEFUL: 52364  USELESS: 43660572
 USEFUL LOAD PREFETCHES:      52364 PREFETCH ISSUED TO LOWER LEVEL:   60214537  ACCURACY: 0.0869624
 TIMELY PREFETCHES:      52364 LATE PREFETCHES: 508497 DROPPED PREFETCHES: 618879
L2C AVERAGE MISS LATENCY: 460.125 cycles

L2C Set Associative Eviction Count : 0
L2C Priority 0 entries : 0
L2C Inter-Core Interference : 0
LLC0 TOTAL     ACCESS: 6919767  HIT: 3162778  MISS: 3756989  HIT %: 45.7064  MISS %: 54.2936  AVERAGE MISS PENALTY: 833.593
LLC0 LOAD      ACCESS: 1242863  HIT: 622810  MISS: 620053  HIT %: 50.1109  MISS %: 49.8891  AVERAGE MISS PENALTY: 834.825
LLC0 RFO       ACCESS: 11635  HIT:  3687  MISS:  7948  HIT %: 31.6889  MISS %: 68.3111  AVERAGE MISS PENALTY: 812.144
LLC0 PREFETCH  ACCESS: 5585508  HIT: 2485184  MISS: 3100324  HIT %: 44.4934  MISS %: 55.5066  AVERAGE MISS PENALTY: 841.109
LLC0 WRITEBACK ACCESS: 79761  HIT: 51097  MISS: 28664  HIT %: 64.0626  MISS %: 35.9374  AVERAGE MISS PENALTY: 0
LLC0 PREFETCH  REQUESTED:     0  ISSUED:     0  USEFUL: 1436212  USELESS: 5441729
 USEFUL LOAD PREFETCHES:    1436212 PREFETCH ISSUED TO LOWER LEVEL:  475276159  ACCURACY: 0.302185
 TIMELY PREFETCHES:    1436212 LATE PREFETCHES: 0 DROPPED PREFETCHES: 0
LLC0 AVERAGE MISS LATENCY: 833.593 cycles

LLC0 Set Associative Eviction Count : 0
LLC0 Priority 0 entries : 12288
LLC0 Inter-Core Interference : 7505009
LLC1 TOTAL     ACCESS: 6924155  HIT: 3143232  MISS: 3780923  HIT %: 45.3952  MISS %: 54.6048  AVERAGE MISS PENALTY: 814.948
LLC1 LOAD      ACCESS: 1158222  HIT: 570137  MISS: 588085  HIT %: 49.2252  MISS %: 50.7748  AVERAGE MISS PENALTY: 817.26
LLC1 RFO       ACCESS: 11787  HIT:  3791  MISS:  7996  HIT %: 32.1626  MISS %: 67.8374  AVERAGE MISS PENALTY: 794.704
LLC1 PREFETCH  ACCESS: 5677567  HIT: 2521595  MISS: 3155972  HIT %: 44.4133  MISS %: 55.5867  AVERAGE MISS PENALTY: 822.024
LLC1 WRITEBACK ACCESS: 76579  HIT: 47709  MISS: 28870  HIT %: 62.3004  MISS %: 37.6996  AVERAGE MISS PENALTY: 0
LLC1 PREFETCH  REQUESTED:     0  ISSUED:     0  USEFUL: 1415895  USELESS: 5533696
 USEFUL LOAD PREFETCHES:    1415895 PREFETCH ISSUED TO LOWER LEVEL:  368455414  ACCURACY: 0.384279
 TIMELY PREFETCHES:    1415895 LATE PREFETCHES: 0 DROPPED PREFETCHES: 0
LLC1 AVERAGE MISS LATENCY: 814.948 cycles

LLC1 Set Associative Eviction Count : 0
LLC1 Priority 0 entries : 12288
LLC1 Inter-Core Interference : 7524192
LLC2 TOTAL     ACCESS: 6938122  HIT: 3161206  MISS: 3776916  HIT %: 45.5628  MISS %: 54.4372  AVERAGE MISS PENALTY: 825.553
LLC2 LOAD      ACCESS: 1212038  HIT: 612008  MISS: 600030  HIT %: 50.4941  MISS %: 49.5059  AVERAGE MISS PENALTY: 831.854
LLC2 RFO       ACCESS: 11753  HIT:  3772  MISS:  7981  HIT %: 32.0939  MISS %: 67.9061  AVERAGE MISS PENALTY: 827.692
LLC2 PREFETCH  ACCESS: 5639066  HIT: 2499121  MISS: 3139945  HIT %: 44.318  MISS %: 55.682  AVERAGE MISS PENALTY: 831.958
LLC2 WRITEBACK ACCESS: 75265  HIT: 46305  MISS: 28960  HIT %: 61.5226  MISS %: 38.4774  AVERAGE MISS PENALTY: 0
LLC2 PREFETCH  REQUESTED:     0  ISSUED:     0  USEFUL: 1423288  USELESS: 5466251
 USEFUL LOAD PREFETCHES:    1423288 PREFETCH ISSUED TO LOWER LEVEL:  765400340  ACCURACY: 0.185953
 TIMELY PREFETCHES:    1423288 LATE PREFETCHES: 0 DROPPED PREFETCHES: 0
LLC2 AVERAGE MISS LATENCY: 825.553 cycles

LLC2 Set Associative Eviction Count : 0
LLC2 Priority 0 entries : 12288
LLC2 Inter-Core Interference : 7512857
LLC3 TOTAL     ACCESS: 6819937  HIT: 3115535  MISS: 3704402  HIT %: 45.6828  MISS %: 54.3172  AVERAGE MISS PENALTY: 808.24
LLC3 LOAD      ACCESS: 1141119  HIT: 560419  MISS: 580700  HIT %: 49.1114  MISS %: 50.8886  AVERAGE MISS PENALTY: 814.767
LLC3 RFO       ACCESS: 11846  HIT:  3816  MISS:  8030  HIT %: 32.2134  MISS %: 67.7866  AVERAGE MISS PENALTY: 808.922
LLC3 PREFETCH  ACCESS: 5593430  HIT: 2506373  MISS: 3087057  HIT %: 44.8092  MISS %: 55.1908  AVERAGE MISS PENALTY: 814.503
LLC3 WRITEBACK ACCESS: 73542  HIT: 44927  MISS: 28615  HIT %: 61.0903  MISS %: 38.9097  AVERAGE MISS PENALTY: 0
LLC3 PREFETCH  REQUESTED:     0  ISSUED:     0  USEFUL: 1405082  USELESS: 5391092
 USEFUL LOAD PREFETCHES:    1405082 PREFETCH ISSUED TO LOWER LEVEL:  568586590  ACCURACY: 0.247118
 TIMELY PREFETCHES:    1405082 LATE PREFETCHES: 0 DROPPED PREFETCHES: 0
LLC3 AVERAGE MISS LATENCY: 808.24 cycles

LLC3 Set Associative Eviction Count : 0
LLC3 Priority 0 entries : 12288
LLC3 Inter-Core Interference : 7371731
LLC4 TOTAL     ACCESS: 6781196  HIT: 3124313  MISS: 3656883  HIT %: 46.0732  MISS %: 53.9268  AVERAGE MISS PENALTY: 720.947
LLC4 LOAD      ACCESS: 1212818  HIT: 614841  MISS: 597977  HIT %: 50.6952  MISS %: 49.3048  AVERAGE MISS PENALTY: 719.413
LLC4 RFO       ACCESS: 11830  HIT:  3807  MISS:  8023  HIT %: 32.1809  MISS %: 67.8191  AVERAGE MISS PENALTY: 709.168
LLC4 PREFETCH  ACCESS: 5485766  HIT: 2463638  MISS: 3022128  HIT %: 44.9096  MISS %: 55.0904  AVERAGE MISS PENALTY: 728.141
LLC4 WRITEBACK ACCESS: 70782  HIT: 42027  MISS: 28755  HIT %: 59.3753  MISS %: 40.6247  AVERAGE MISS PENALTY: 0
LLC4 PREFETCH  REQUESTED:     0  ISSUED:     0  USEFUL: 1433469  USELESS: 5231674
 USEFUL LOAD PREFETCHES:    1433469 PREFETCH ISSUED TO LOWER LEVEL: 1161520839  ACCURACY: 0.123413
 TIMELY PREFETCHES:    1433469 LATE PREFETCHES: 0 DROPPED PREFETCHES: 0
LLC4 AVERAGE MISS LATENCY: 720.947 cycles

LLC4 Set Associative Eviction Count : 0
LLC4 Priority 0 entries : 12288
LLC4 Inter-Core Interference : 7316962
LLC5 TOTAL     ACCESS: 6672535  HIT: 3085434  MISS: 3587101  HIT %: 46.2408  MISS %: 53.7592  AVERAGE MISS PENALTY: 682.266
LLC5 LOAD      ACCESS: 1230436  HIT: 636833  MISS: 593603  HIT %: 51.7567  MISS %: 48.2433  AVERAGE MISS PENALTY: 676.995
LLC5 RFO       ACCESS: 11723  HIT:  3733  MISS:  7990  HIT %: 31.8434  MISS %: 68.1566  AVERAGE MISS PENALTY: 665.743
LLC5 PREFETCH  ACCESS: 5360247  HIT: 2403456  MISS: 2956791  HIT %: 44.8385  MISS %: 55.1615  AVERAGE MISS PENALTY: 689.995
LLC5 WRITEBACK ACCESS: 70129  HIT: 41412  MISS: 28717  HIT %: 59.0512  MISS %: 40.9488  AVERAGE MISS PENALTY: 0
LLC5 PREFETCH  REQUESTED:     0  ISSUED:     0  USEFUL: 1401238  USELESS: 5148633
 USEFUL LOAD PREFETCHES:    1401238 PREFETCH ISSUED TO LOWER LEVEL:  847574909  ACCURACY: 0.165323
 TIMELY PREFETCHES:    1401238 LATE PREFETCHES: 0 DROPPED PREFETCHES: 0
LLC5 AVERAGE MISS LATENCY: 682.266 cycles

LLC5 Set Associative Eviction Count : 0
LLC5 Priority 0 entries : 12288
LLC5 Inter-Core Interference : 7203017
LLC6 TOTAL     ACCESS: 6542149  HIT: 3036865  MISS: 3505284  HIT %: 46.42  MISS %: 53.58  AVERAGE MISS PENALTY: 706.37
LLC6 LOAD      ACCESS: 1182992  HIT: 593645  MISS: 589347  HIT %: 50.1817  MISS %: 49.8183  AVERAGE MISS PENALTY: 706.374
LLC6 RFO       ACCESS: 11681  HIT:  3761  MISS:  7920  HIT %: 32.1976  MISS %: 67.8024  AVERAGE MISS PENALTY: 715.087
LLC6 PREFETCH  ACCESS: 5278209  HIT: 2398746  MISS: 2879463  HIT %: 45.4462  MISS %: 54.5538  AVERAGE MISS PENALTY: 713.35
LLC6 WRITEBACK ACCESS: 69267  HIT: 40713  MISS: 28554  HIT %: 58.7769  MISS %: 41.2231  AVERAGE MISS PENALTY: 0
LLC6 PREFETCH  REQUESTED:     0  ISSUED:     0  USEFUL: 1384399  USELESS: 5096512
 USEFUL LOAD PREFETCHES:    1384399 PREFETCH ISSUED TO LOWER LEVEL: 1676386477  ACCURACY: 0.0825823
 TIMELY PREFETCHES:    1384399 LATE PREFETCHES: 0 DROPPED PREFETCHES: 0
LLC6 AVERAGE MISS LATENCY: 706.37 cycles

LLC6 Set Associative Eviction Count : 0
LLC6 Priority 0 entries : 12288
LLC6 Inter-Core Interference : 7136037
LLC7 TOTAL     ACCESS: 6422806  HIT: 3026036  MISS: 3396770  HIT %: 47.1139  MISS %: 52.8861  AVERAGE MISS PENALTY: 712.356
LLC7 LOAD      ACCESS: 1179442  HIT: 592717  MISS: 586725  HIT %: 50.254  MISS %: 49.746  AVERAGE MISS PENALTY: 662.992
LLC7 RFO       ACCESS: 11542  HIT:  3606  MISS:  7936  HIT %: 31.2424  MISS %: 68.7576  AVERAGE MISS PENALTY: 663.638
LLC7 PREFETCH  ACCESS: 5165127  HIT: 2391383  MISS: 2773744  HIT %: 46.2986  MISS %: 53.7014  AVERAGE MISS PENALTY: 730.223
LLC7 WRITEBACK ACCESS: 66695  HIT: 38330  MISS: 28365  HIT %: 57.4706  MISS %: 42.5294  AVERAGE MISS PENALTY: 0
LLC7 PREFETCH  REQUESTED:     0  ISSUED:     0  USEFUL: 1372438  USELESS: 5042729
 USEFUL LOAD PREFETCHES:    1372438 PREFETCH ISSUED TO LOWER LEVEL: 1207339386  ACCURACY: 0.113675
 TIMELY PREFETCHES:    1372438 LATE PREFETCHES: 0 DROPPED PREFETCHES: 0
LLC7 AVERAGE MISS LATENCY: 675.063 cycles

LLC7 Set Associative Eviction Count : 0
LLC7 Priority 0 entries : 12288
LLC7 Inter-Core Interference : 7072829
ROI Average ROB Stall Cycles:	56.7027
ROI Total ROB Stalls Cycles:	1798267218
ROI TOTAL ROB counter      :	31713980
ROI Average Load ROB Stall Cycles:	384.148
ROI Total Load ROB Stalls Cycle  :	1701177212
ROI Total Load ROB stalls Counter:	4428445
Major fault: 0 Minor fault: 58342








Interconnect Stats 
LINK 0 BW : 0LINK 1 BW : 0LINK 2 BW : 0LINK 3 BW : 0LINK 4 BW : 0LINK 5 BW : 0LINK 6 BW : 0LINK 7 BW : 0
DRAM Statistics
 CHANNEL 0
 RQ ROW_BUFFER_HIT: 45609039  ROW_BUFFER_MISS: 71403351
 DBUS_CONGESTED: 62450367
 WQ ROW_BUFFER_HIT: 99651  ROW_BUFFER_MISS: 1533649  FULL:     0

 CHANNEL 1
 RQ ROW_BUFFER_HIT: 44403084  ROW_BUFFER_MISS: 70860620
 DBUS_CONGESTED: 62450367
 WQ ROW_BUFFER_HIT: 99316  ROW_BUFFER_MISS: 1532898  FULL:     0

 AVG_CONGESTED_CYCLE: 5
DRAM PAGES: 2097152
Allocated PAGES: 466294
L2C destructor called
L1D destructor called
L1I destructor called
STLB destructor called
DTLB destructor called
ITLB destructor called
L2C destructor called
L1D destructor called
L1I destructor called
STLB destructor called
DTLB destructor called
ITLB destructor called
L2C destructor called
L1D destructor called
L1I destructor called
STLB destructor called
DTLB destructor called
ITLB destructor called
L2C destructor called
L1D destructor called
L1I destructor called
STLB destructor called
DTLB destructor called
ITLB destructor called
L2C destructor called
L1D destructor called
L1I destructor called
STLB destructor called
DTLB destructor called
ITLB destructor called
L2C destructor called
L1D destructor called
L1I destructor called
STLB destructor called
DTLB destructor called
ITLB destructor called
L2C destructor called
L1D destructor called
L1I destructor called
STLB destructor called
DTLB destructor called
ITLB destructor called
L2C destructor called
L1D destructor called
L1I destructor called
STLB destructor called
DTLB destructor called
ITLB destructor called
