
*** ChampSim Multicore Out-of-Order Simulator ***

Warmup Instructions: 200000000
Simulation Instructions: 200000000
Number of CPUs: 8
threads:1

L1I Configuration:
L1I_SET:64
L1I_WAY:8
L1I_RQ_SIZE:64
L1I_WQ_SIZE:64
L1I_PQ_SIZE:8
L1I_MSHR_SIZE:8

L1D Configuration:
L1D_SET:64
L1D_WAY:12
L1D_RQ_SIZE:64
L1D_WQ_SIZE:64
L1D_PQ_SIZE:8
L1D_MSHR_SIZE:16

L2C Configuration:
L2C_SET:1024
L2C_WAY:8
L2C_RQ_SIZE:32
L2C_WQ_SIZE:32
L2C_PQ_SIZE:16
L2C_MSHR_SIZE:32

LLC Configuration:
LLC_SET:2048
LLC_WAY:12
LLC SLICES:8
LLC_RQ_SIZE:64
LLC_WQ_SIZE:64
LLC_PQ_SIZE:32
LLC_MSHR_SIZE:64

Interconnect OFF
Attacker deprioritize is: OFF
Off-chip DRAM Size: 8192 MB Channels: 2 Width: 64-bit Data Rate: 3200 MT/s
PAGE SIZE in KB: 4.000000 
PAGE SIZE in MB: 0.003906 
PAGE offset in bits: 12 
CEASER-S_LLC:0
MIRAGE : 1
CEASER_LATENCY:3
REMAP : OFF
Partitions : 1
Multi-Step : OFF
BFS : OFF

CPU 0 runs /home/anubhav/gap/bfs-10.trace.gz
CPU 1 runs /home/anubhav/gap/bfs-10.trace.gz
CPU 2 runs /home/anubhav/gap/bfs-10.trace.gz
CPU 3 runs /home/anubhav/gap/bfs-10.trace.gz
CPU 4 runs /home/anubhav/gap/bfs-10.trace.gz
CPU 5 runs /home/anubhav/gap/bfs-10.trace.gz
CPU 6 runs /home/anubhav/gap/bfs-10.trace.gz
CPU 7 runs /home/anubhav/gap/bfs-10.trace.gz
CPU 0 Bimodal branch predictor
Initialize Hawkeye state
Initialize Hawkeye state
Initialize Hawkeye state
Initialize Hawkeye state
Initialize Hawkeye state
Initialize Hawkeye state
Initialize Hawkeye state
Initialize Hawkeye state
CPU 1 Bimodal branch predictor
Initialize Hawkeye state
Initialize Hawkeye state
Initialize Hawkeye state
Initialize Hawkeye state
Initialize Hawkeye state
Initialize Hawkeye state
Initialize Hawkeye state
Initialize Hawkeye state
CPU 2 Bimodal branch predictor
Initialize Hawkeye state
Initialize Hawkeye state
Initialize Hawkeye state
Initialize Hawkeye state
Initialize Hawkeye state
Initialize Hawkeye state
Initialize Hawkeye state
Initialize Hawkeye state
CPU 3 Bimodal branch predictor
Initialize Hawkeye state
Initialize Hawkeye state
Initialize Hawkeye state
Initialize Hawkeye state
Initialize Hawkeye state
Initialize Hawkeye state
Initialize Hawkeye state
Initialize Hawkeye state
CPU 4 Bimodal branch predictor
Initialize Hawkeye state
Initialize Hawkeye state
Initialize Hawkeye state
Initialize Hawkeye state
Initialize Hawkeye state
Initialize Hawkeye state
Initialize Hawkeye state
Initialize Hawkeye state
CPU 5 Bimodal branch predictor
Initialize Hawkeye state
Initialize Hawkeye state
Initialize Hawkeye state
Initialize Hawkeye state
Initialize Hawkeye state
Initialize Hawkeye state
Initialize Hawkeye state
Initialize Hawkeye state
CPU 6 Bimodal branch predictor
Initialize Hawkeye state
Initialize Hawkeye state
Initialize Hawkeye state
Initialize Hawkeye state
Initialize Hawkeye state
Initialize Hawkeye state
Initialize Hawkeye state
Initialize Hawkeye state
CPU 7 Bimodal branch predictor
Initialize Hawkeye state
Initialize Hawkeye state
Initialize Hawkeye state
Initialize Hawkeye state
Initialize Hawkeye state
Initialize Hawkeye state
Initialize Hawkeye state
Initialize Hawkeye state
FILL
Heartbeat CPU 0 instructions: 10000001 cycles: 14732918 heartbeat IPC: 0.678752 cumulative IPC: 0.678752 (Simulation time: 0 hr 24 min 17 sec) 
 Total Blocks : 196608 Invalid Blocks : 15112 Valid Blocks : 181496
 Total Tags : 491520 Threshold : 12288 Invalid Tags : 211729 Pr0 Tags : 98295 Pr1 Tags : 181496 num_pr0 : 12287
 SAE Count : 0
 Inter-Core Inteference in Data Store : 283379
Heartbeat CPU 1 instructions: 10000001 cycles: 14732921 heartbeat IPC: 0.678752 cumulative IPC: 0.678752 (Simulation time: 0 hr 24 min 17 sec) 
 Total Blocks : 196608 Invalid Blocks : 15112 Valid Blocks : 181496
 Total Tags : 491520 Threshold : 12288 Invalid Tags : 211729 Pr0 Tags : 98295 Pr1 Tags : 181496 num_pr0 : 12287
 SAE Count : 0
 Inter-Core Inteference in Data Store : 283380
Heartbeat CPU 2 instructions: 10000001 cycles: 14732927 heartbeat IPC: 0.678752 cumulative IPC: 0.678752 (Simulation time: 0 hr 24 min 18 sec) 
 Total Blocks : 196608 Invalid Blocks : 15112 Valid Blocks : 181496
 Total Tags : 491520 Threshold : 12288 Invalid Tags : 211729 Pr0 Tags : 98295 Pr1 Tags : 181496 num_pr0 : 12287
 SAE Count : 0
 Inter-Core Inteference in Data Store : 283381
Heartbeat CPU 3 instructions: 10000001 cycles: 14732931 heartbeat IPC: 0.678752 cumulative IPC: 0.678752 (Simulation time: 0 hr 24 min 18 sec) 
 Total Blocks : 196608 Invalid Blocks : 15112 Valid Blocks : 181496
 Total Tags : 491520 Threshold : 12288 Invalid Tags : 211729 Pr0 Tags : 98295 Pr1 Tags : 181496 num_pr0 : 12287
 SAE Count : 0
 Inter-Core Inteference in Data Store : 283382
Heartbeat CPU 4 instructions: 10000001 cycles: 14732934 heartbeat IPC: 0.678751 cumulative IPC: 0.678751 (Simulation time: 0 hr 24 min 18 sec) 
 Total Blocks : 196608 Invalid Blocks : 15112 Valid Blocks : 181496
 Total Tags : 491520 Threshold : 12288 Invalid Tags : 211729 Pr0 Tags : 98295 Pr1 Tags : 181496 num_pr0 : 12287
 SAE Count : 0
 Inter-Core Inteference in Data Store : 283383
Heartbeat CPU 5 instructions: 10000001 cycles: 14732937 heartbeat IPC: 0.678751 cumulative IPC: 0.678751 (Simulation time: 0 hr 24 min 18 sec) 
 Total Blocks : 196608 Invalid Blocks : 15112 Valid Blocks : 181496
 Total Tags : 491520 Threshold : 12288 Invalid Tags : 211729 Pr0 Tags : 98295 Pr1 Tags : 181496 num_pr0 : 12287
 SAE Count : 0
 Inter-Core Inteference in Data Store : 283384
Heartbeat CPU 6 instructions: 10000001 cycles: 14732940 heartbeat IPC: 0.678751 cumulative IPC: 0.678751 (Simulation time: 0 hr 24 min 18 sec) 
 Total Blocks : 196608 Invalid Blocks : 15112 Valid Blocks : 181496
 Total Tags : 491520 Threshold : 12288 Invalid Tags : 211729 Pr0 Tags : 98295 Pr1 Tags : 181496 num_pr0 : 12287
 SAE Count : 0
 Inter-Core Inteference in Data Store : 283385
Heartbeat CPU 7 instructions: 10000001 cycles: 14732943 heartbeat IPC: 0.678751 cumulative IPC: 0.678751 (Simulation time: 0 hr 24 min 18 sec) 
 Total Blocks : 196608 Invalid Blocks : 15112 Valid Blocks : 181496
 Total Tags : 491520 Threshold : 12288 Invalid Tags : 211729 Pr0 Tags : 98295 Pr1 Tags : 181496 num_pr0 : 12287
 SAE Count : 0
 Inter-Core Inteference in Data Store : 283385
Heartbeat CPU 3 instructions: 20000000 cycles: 25666317 heartbeat IPC: 0.91463 cumulative IPC: 0.779231 (Simulation time: 1 hr 41 min 46 sec) 
 Total Blocks : 196608 Invalid Blocks : 6131 Valid Blocks : 190477
 Total Tags : 491520 Threshold : 12288 Invalid Tags : 202739 Pr0 Tags : 98304 Pr1 Tags : 190477 num_pr0 : 12288
 SAE Count : 0
 Inter-Core Inteference in Data Store : 432835
Heartbeat CPU 4 instructions: 20000000 cycles: 25666418 heartbeat IPC: 0.914621 cumulative IPC: 0.779228 (Simulation time: 1 hr 41 min 46 sec) 
 Total Blocks : 196608 Invalid Blocks : 6131 Valid Blocks : 190477
 Total Tags : 491520 Threshold : 12288 Invalid Tags : 202739 Pr0 Tags : 98304 Pr1 Tags : 190477 num_pr0 : 12288
 SAE Count : 0
 Inter-Core Inteference in Data Store : 432836
Heartbeat CPU 7 instructions: 20000000 cycles: 25666426 heartbeat IPC: 0.914622 cumulative IPC: 0.779228 (Simulation time: 1 hr 41 min 47 sec) 
 Total Blocks : 196608 Invalid Blocks : 6131 Valid Blocks : 190477
 Total Tags : 491520 Threshold : 12288 Invalid Tags : 202739 Pr0 Tags : 98304 Pr1 Tags : 190477 num_pr0 : 12288
 SAE Count : 0
 Inter-Core Inteference in Data Store : 432836
Heartbeat CPU 6 instructions: 20000000 cycles: 25666893 heartbeat IPC: 0.914582 cumulative IPC: 0.779214 (Simulation time: 1 hr 41 min 47 sec) 
 Total Blocks : 196608 Invalid Blocks : 6131 Valid Blocks : 190477
 Total Tags : 491520 Threshold : 12288 Invalid Tags : 202739 Pr0 Tags : 98304 Pr1 Tags : 190477 num_pr0 : 12288
 SAE Count : 0
 Inter-Core Inteference in Data Store : 432837
Heartbeat CPU 5 instructions: 20000000 cycles: 25667924 heartbeat IPC: 0.914496 cumulative IPC: 0.779183 (Simulation time: 1 hr 41 min 47 sec) 
 Total Blocks : 196608 Invalid Blocks : 6130 Valid Blocks : 190478
 Total Tags : 491520 Threshold : 12288 Invalid Tags : 202738 Pr0 Tags : 98304 Pr1 Tags : 190478 num_pr0 : 12288
 SAE Count : 0
 Inter-Core Inteference in Data Store : 432843
Heartbeat CPU 0 instructions: 20000000 cycles: 25674053 heartbeat IPC: 0.913982 cumulative IPC: 0.778997 (Simulation time: 1 hr 41 min 52 sec) 
 Total Blocks : 196608 Invalid Blocks : 6129 Valid Blocks : 190479
 Total Tags : 491520 Threshold : 12288 Invalid Tags : 202737 Pr0 Tags : 98304 Pr1 Tags : 190479 num_pr0 : 12288
 SAE Count : 0
 Inter-Core Inteference in Data Store : 432894
Heartbeat CPU 1 instructions: 20000000 cycles: 25674092 heartbeat IPC: 0.913979 cumulative IPC: 0.778995 (Simulation time: 1 hr 41 min 52 sec) 
 Total Blocks : 196608 Invalid Blocks : 6129 Valid Blocks : 190479
 Total Tags : 491520 Threshold : 12288 Invalid Tags : 202737 Pr0 Tags : 98304 Pr1 Tags : 190479 num_pr0 : 12288
 SAE Count : 0
 Inter-Core Inteference in Data Store : 432894
Heartbeat CPU 2 instructions: 20000000 cycles: 25674112 heartbeat IPC: 0.913978 cumulative IPC: 0.778995 (Simulation time: 1 hr 41 min 52 sec) 
 Total Blocks : 196608 Invalid Blocks : 6129 Valid Blocks : 190479
 Total Tags : 491520 Threshold : 12288 Invalid Tags : 202737 Pr0 Tags : 98304 Pr1 Tags : 190479 num_pr0 : 12288
 SAE Count : 0
 Inter-Core Inteference in Data Store : 432894
Heartbeat CPU 7 instructions: 30000000 cycles: 36521692 heartbeat IPC: 0.921212 cumulative IPC: 0.82143 (Simulation time: 3 hr 37 min 17 sec) 
 Total Blocks : 196608 Invalid Blocks : 3278 Valid Blocks : 193330
 Total Tags : 491520 Threshold : 12288 Invalid Tags : 199888 Pr0 Tags : 98302 Pr1 Tags : 193330 num_pr0 : 12288
 SAE Count : 0
 Inter-Core Inteference in Data Store : 538398
Heartbeat CPU 3 instructions: 30000000 cycles: 36521700 heartbeat IPC: 0.921202 cumulative IPC: 0.821429 (Simulation time: 3 hr 37 min 17 sec) 
 Total Blocks : 196608 Invalid Blocks : 3278 Valid Blocks : 193330
 Total Tags : 491520 Threshold : 12288 Invalid Tags : 199888 Pr0 Tags : 98302 Pr1 Tags : 193330 num_pr0 : 12288
 SAE Count : 0
 Inter-Core Inteference in Data Store : 538398
Heartbeat CPU 4 instructions: 30000000 cycles: 36521897 heartbeat IPC: 0.921194 cumulative IPC: 0.821425 (Simulation time: 3 hr 37 min 17 sec) 
 Total Blocks : 196608 Invalid Blocks : 3278 Valid Blocks : 193330
 Total Tags : 491520 Threshold : 12288 Invalid Tags : 199886 Pr0 Tags : 98304 Pr1 Tags : 193330 num_pr0 : 12288
 SAE Count : 0
 Inter-Core Inteference in Data Store : 538399
Heartbeat CPU 6 instructions: 30000000 cycles: 36522072 heartbeat IPC: 0.921219 cumulative IPC: 0.821421 (Simulation time: 3 hr 37 min 17 sec) 
 Total Blocks : 196608 Invalid Blocks : 3278 Valid Blocks : 193330
 Total Tags : 491520 Threshold : 12288 Invalid Tags : 199886 Pr0 Tags : 98304 Pr1 Tags : 193330 num_pr0 : 12288
 SAE Count : 0
 Inter-Core Inteference in Data Store : 538399
Heartbeat CPU 5 instructions: 30000000 cycles: 36523609 heartbeat IPC: 0.921176 cumulative IPC: 0.821387 (Simulation time: 3 hr 37 min 18 sec) 
 Total Blocks : 196608 Invalid Blocks : 3277 Valid Blocks : 193331
 Total Tags : 491520 Threshold : 12288 Invalid Tags : 199885 Pr0 Tags : 98304 Pr1 Tags : 193331 num_pr0 : 12288
 SAE Count : 0
 Inter-Core Inteference in Data Store : 538403
Heartbeat CPU 0 instructions: 30000000 cycles: 36535861 heartbeat IPC: 0.920657 cumulative IPC: 0.821111 (Simulation time: 3 hr 37 min 26 sec) 
 Total Blocks : 196608 Invalid Blocks : 3273 Valid Blocks : 193335
 Total Tags : 491520 Threshold : 12288 Invalid Tags : 199881 Pr0 Tags : 98304 Pr1 Tags : 193335 num_pr0 : 12288
 SAE Count : 0
 Inter-Core Inteference in Data Store : 538523
Heartbeat CPU 1 instructions: 30000000 cycles: 36536017 heartbeat IPC: 0.920647 cumulative IPC: 0.821108 (Simulation time: 3 hr 37 min 26 sec) 
 Total Blocks : 196608 Invalid Blocks : 3273 Valid Blocks : 193335
 Total Tags : 491520 Threshold : 12288 Invalid Tags : 199882 Pr0 Tags : 98303 Pr1 Tags : 193335 num_pr0 : 12288
 SAE Count : 0
 Inter-Core Inteference in Data Store : 538526
Heartbeat CPU 2 instructions: 30000000 cycles: 36536023 heartbeat IPC: 0.920648 cumulative IPC: 0.821107 (Simulation time: 3 hr 37 min 26 sec) 
 Total Blocks : 196608 Invalid Blocks : 3273 Valid Blocks : 193335
 Total Tags : 491520 Threshold : 12288 Invalid Tags : 199882 Pr0 Tags : 98303 Pr1 Tags : 193335 num_pr0 : 12288
 SAE Count : 0
 Inter-Core Inteference in Data Store : 538526
Heartbeat CPU 3 instructions: 40000002 cycles: 47353936 heartbeat IPC: 0.923171 cumulative IPC: 0.844703 (Simulation time: 6 hr 8 min 44 sec) 
 Total Blocks : 196608 Invalid Blocks : 1712 Valid Blocks : 194896
 Total Tags : 491520 Threshold : 12288 Invalid Tags : 198320 Pr0 Tags : 98304 Pr1 Tags : 194896 num_pr0 : 12288
 SAE Count : 0
 Inter-Core Inteference in Data Store : 645503
Heartbeat CPU 7 instructions: 40000002 cycles: 47353942 heartbeat IPC: 0.923169 cumulative IPC: 0.844703 (Simulation time: 6 hr 8 min 44 sec) 
 Total Blocks : 196608 Invalid Blocks : 1712 Valid Blocks : 194896
 Total Tags : 491520 Threshold : 12288 Invalid Tags : 198320 Pr0 Tags : 98304 Pr1 Tags : 194896 num_pr0 : 12288
 SAE Count : 0
 Inter-Core Inteference in Data Store : 645503
Heartbeat CPU 6 instructions: 40000002 cycles: 47354126 heartbeat IPC: 0.923186 cumulative IPC: 0.844699 (Simulation time: 6 hr 8 min 44 sec) 
 Total Blocks : 196608 Invalid Blocks : 1712 Valid Blocks : 194896
 Total Tags : 491520 Threshold : 12288 Invalid Tags : 198320 Pr0 Tags : 98304 Pr1 Tags : 194896 num_pr0 : 12288
 SAE Count : 0
 Inter-Core Inteference in Data Store : 645506
Heartbeat CPU 4 instructions: 40000002 cycles: 47354157 heartbeat IPC: 0.923169 cumulative IPC: 0.844699 (Simulation time: 6 hr 8 min 44 sec) 
 Total Blocks : 196608 Invalid Blocks : 1712 Valid Blocks : 194896
 Total Tags : 491520 Threshold : 12288 Invalid Tags : 198320 Pr0 Tags : 98304 Pr1 Tags : 194896 num_pr0 : 12288
 SAE Count : 0
 Inter-Core Inteference in Data Store : 645506
Heartbeat CPU 5 instructions: 40000002 cycles: 47356424 heartbeat IPC: 0.923121 cumulative IPC: 0.844658 (Simulation time: 6 hr 8 min 47 sec) 
 Total Blocks : 196608 Invalid Blocks : 1712 Valid Blocks : 194896
 Total Tags : 491520 Threshold : 12288 Invalid Tags : 198322 Pr0 Tags : 98302 Pr1 Tags : 194896 num_pr0 : 12288
 SAE Count : 0
 Inter-Core Inteference in Data Store : 645531
Heartbeat CPU 0 instructions: 40000002 cycles: 47374591 heartbeat IPC: 0.922617 cumulative IPC: 0.844334 (Simulation time: 6 hr 9 min 2 sec) 
 Total Blocks : 196608 Invalid Blocks : 1710 Valid Blocks : 194898
 Total Tags : 491520 Threshold : 12288 Invalid Tags : 198318 Pr0 Tags : 98304 Pr1 Tags : 194898 num_pr0 : 12288
 SAE Count : 0
 Inter-Core Inteference in Data Store : 645760
Heartbeat CPU 2 instructions: 40000002 cycles: 47374771 heartbeat IPC: 0.922616 cumulative IPC: 0.844331 (Simulation time: 6 hr 9 min 2 sec) 
 Total Blocks : 196608 Invalid Blocks : 1710 Valid Blocks : 194898
 Total Tags : 491520 Threshold : 12288 Invalid Tags : 198318 Pr0 Tags : 98304 Pr1 Tags : 194898 num_pr0 : 12288
 SAE Count : 0
 Inter-Core Inteference in Data Store : 645761
Heartbeat CPU 1 instructions: 40000002 cycles: 47374875 heartbeat IPC: 0.922607 cumulative IPC: 0.844329 (Simulation time: 6 hr 9 min 2 sec) 
 Total Blocks : 196608 Invalid Blocks : 1710 Valid Blocks : 194898
 Total Tags : 491520 Threshold : 12288 Invalid Tags : 198318 Pr0 Tags : 98304 Pr1 Tags : 194898 num_pr0 : 12288
 SAE Count : 0
 Inter-Core Inteference in Data Store : 645762
FILL
Heartbeat CPU 3 instructions: 50000001 cycles: 58188104 heartbeat IPC: 0.923006 cumulative IPC: 0.859282 (Simulation time: 9 hr 10 min 26 sec) 
 Total Blocks : 196608 Invalid Blocks : 902 Valid Blocks : 195706
 Total Tags : 491520 Threshold : 12288 Invalid Tags : 197510 Pr0 Tags : 98304 Pr1 Tags : 195706 num_pr0 : 12288
 SAE Count : 0
 Inter-Core Inteference in Data Store : 753992
Heartbeat CPU 7 instructions: 50000001 cycles: 58188138 heartbeat IPC: 0.923003 cumulative IPC: 0.859282 (Simulation time: 9 hr 10 min 26 sec) 
 Total Blocks : 196608 Invalid Blocks : 902 Valid Blocks : 195706
 Total Tags : 491520 Threshold : 12288 Invalid Tags : 197510 Pr0 Tags : 98304 Pr1 Tags : 195706 num_pr0 : 12288
 SAE Count : 0
 Inter-Core Inteference in Data Store : 753993
Heartbeat CPU 6 instructions: 50000001 cycles: 58188413 heartbeat IPC: 0.922996 cumulative IPC: 0.859278 (Simulation time: 9 hr 10 min 26 sec) 
 Total Blocks : 196608 Invalid Blocks : 902 Valid Blocks : 195706
 Total Tags : 491520 Threshold : 12288 Invalid Tags : 197512 Pr0 Tags : 98302 Pr1 Tags : 195706 num_pr0 : 12288
 SAE Count : 0
 Inter-Core Inteference in Data Store : 754001
Heartbeat CPU 4 instructions: 50000001 cycles: 58188421 heartbeat IPC: 0.922998 cumulative IPC: 0.859277 (Simulation time: 9 hr 10 min 26 sec) 
 Total Blocks : 196608 Invalid Blocks : 902 Valid Blocks : 195706
 Total Tags : 491520 Threshold : 12288 Invalid Tags : 197512 Pr0 Tags : 98302 Pr1 Tags : 195706 num_pr0 : 12288
 SAE Count : 0
 Inter-Core Inteference in Data Store : 754001
Heartbeat CPU 5 instructions: 50000001 cycles: 58191227 heartbeat IPC: 0.922952 cumulative IPC: 0.859236 (Simulation time: 9 hr 10 min 28 sec) 
 Total Blocks : 196608 Invalid Blocks : 902 Valid Blocks : 195706
 Total Tags : 491520 Threshold : 12288 Invalid Tags : 197510 Pr0 Tags : 98304 Pr1 Tags : 195706 num_pr0 : 12288
 SAE Count : 0
 Inter-Core Inteference in Data Store : 754031
Heartbeat CPU 0 instructions: 50000001 cycles: 58215257 heartbeat IPC: 0.922452 cumulative IPC: 0.858881 (Simulation time: 9 hr 10 min 53 sec) 
 Total Blocks : 196608 Invalid Blocks : 901 Valid Blocks : 195707
 Total Tags : 491520 Threshold : 12288 Invalid Tags : 197509 Pr0 Tags : 98304 Pr1 Tags : 195707 num_pr0 : 12288
 SAE Count : 0
 Inter-Core Inteference in Data Store : 754259
Heartbeat CPU 1 instructions: 50000001 cycles: 58215450 heartbeat IPC: 0.92246 cumulative IPC: 0.858879 (Simulation time: 9 hr 10 min 53 sec) 
 Total Blocks : 196608 Invalid Blocks : 901 Valid Blocks : 195707
 Total Tags : 491520 Threshold : 12288 Invalid Tags : 197509 Pr0 Tags : 98304 Pr1 Tags : 195707 num_pr0 : 12288
 SAE Count : 0
 Inter-Core Inteference in Data Store : 754259
Heartbeat CPU 2 instructions: 50000001 cycles: 58215463 heartbeat IPC: 0.92245 cumulative IPC: 0.858878 (Simulation time: 9 hr 10 min 53 sec) 
 Total Blocks : 196608 Invalid Blocks : 901 Valid Blocks : 195707
 Total Tags : 491520 Threshold : 12288 Invalid Tags : 197509 Pr0 Tags : 98304 Pr1 Tags : 195707 num_pr0 : 12288
 SAE Count : 0
 Inter-Core Inteference in Data Store : 754259
Heartbeat CPU 7 instructions: 60000000 cycles: 71674221 heartbeat IPC: 0.741505 cumulative IPC: 0.837121 (Simulation time: 11 hr 0 min 0 sec) 
 Total Blocks : 196608 Invalid Blocks : 271 Valid Blocks : 196337
 Total Tags : 491520 Threshold : 12288 Invalid Tags : 196880 Pr0 Tags : 98303 Pr1 Tags : 196337 num_pr0 : 12288
 SAE Count : 0
 Inter-Core Inteference in Data Store : 969255
Heartbeat CPU 6 instructions: 60000000 cycles: 71674838 heartbeat IPC: 0.741486 cumulative IPC: 0.837114 (Simulation time: 11 hr 0 min 0 sec) 
 Total Blocks : 196608 Invalid Blocks : 271 Valid Blocks : 196337
 Total Tags : 491520 Threshold : 12288 Invalid Tags : 196880 Pr0 Tags : 98303 Pr1 Tags : 196337 num_pr0 : 12288
 SAE Count : 0
 Inter-Core Inteference in Data Store : 969271
Heartbeat CPU 3 instructions: 60000000 cycles: 71678283 heartbeat IPC: 0.74128 cumulative IPC: 0.837074 (Simulation time: 11 hr 0 min 1 sec) 
 Total Blocks : 196608 Invalid Blocks : 271 Valid Blocks : 196337
 Total Tags : 491520 Threshold : 12288 Invalid Tags : 196879 Pr0 Tags : 98304 Pr1 Tags : 196337 num_pr0 : 12288
 SAE Count : 0
 Inter-Core Inteference in Data Store : 969321
Heartbeat CPU 4 instructions: 60000000 cycles: 71678547 heartbeat IPC: 0.741283 cumulative IPC: 0.837071 (Simulation time: 11 hr 0 min 1 sec) 
 Total Blocks : 196608 Invalid Blocks : 270 Valid Blocks : 196338
 Total Tags : 491520 Threshold : 12288 Invalid Tags : 196879 Pr0 Tags : 98303 Pr1 Tags : 196338 num_pr0 : 12288
 SAE Count : 0
 Inter-Core Inteference in Data Store : 969329
Heartbeat CPU 5 instructions: 60000000 cycles: 71681450 heartbeat IPC: 0.741278 cumulative IPC: 0.837037 (Simulation time: 11 hr 0 min 1 sec) 
 Total Blocks : 196608 Invalid Blocks : 270 Valid Blocks : 196338
 Total Tags : 491520 Threshold : 12288 Invalid Tags : 196878 Pr0 Tags : 98304 Pr1 Tags : 196338 num_pr0 : 12288
 SAE Count : 0
 Inter-Core Inteference in Data Store : 969375
Heartbeat CPU 0 instructions: 60000000 cycles: 71708140 heartbeat IPC: 0.741131 cumulative IPC: 0.836725 (Simulation time: 11 hr 0 min 3 sec) 
 Total Blocks : 196608 Invalid Blocks : 269 Valid Blocks : 196339
 Total Tags : 491520 Threshold : 12288 Invalid Tags : 196877 Pr0 Tags : 98304 Pr1 Tags : 196339 num_pr0 : 12288
 SAE Count : 0
 Inter-Core Inteference in Data Store : 969899
Heartbeat CPU 2 instructions: 60000000 cycles: 71708421 heartbeat IPC: 0.741127 cumulative IPC: 0.836722 (Simulation time: 11 hr 0 min 3 sec) 
 Total Blocks : 196608 Invalid Blocks : 269 Valid Blocks : 196339
 Total Tags : 491520 Threshold : 12288 Invalid Tags : 196878 Pr0 Tags : 98303 Pr1 Tags : 196339 num_pr0 : 12288
 SAE Count : 0
 Inter-Core Inteference in Data Store : 969904
Heartbeat CPU 1 instructions: 60000000 cycles: 71708425 heartbeat IPC: 0.741126 cumulative IPC: 0.836722 (Simulation time: 11 hr 0 min 3 sec) 
 Total Blocks : 196608 Invalid Blocks : 269 Valid Blocks : 196339
 Total Tags : 491520 Threshold : 12288 Invalid Tags : 196878 Pr0 Tags : 98303 Pr1 Tags : 196339 num_pr0 : 12288
 SAE Count : 0
 Inter-Core Inteference in Data Store : 969904
FILL
Heartbeat CPU 7 instructions: 70000002 cycles: 87653064 heartbeat IPC: 0.625828 cumulative IPC: 0.798603 (Simulation time: 11 hr 18 min 36 sec) 
 Total Blocks : 196608 Invalid Blocks : 48 Valid Blocks : 196560
 Total Tags : 491520 Threshold : 12288 Invalid Tags : 196657 Pr0 Tags : 98303 Pr1 Tags : 196560 num_pr0 : 12288
 SAE Count : 0
 Inter-Core Inteference in Data Store : 1265954
Heartbeat CPU 6 instructions: 70000002 cycles: 87653755 heartbeat IPC: 0.625825 cumulative IPC: 0.798597 (Simulation time: 11 hr 18 min 36 sec) 
 Total Blocks : 196608 Invalid Blocks : 48 Valid Blocks : 196560
 Total Tags : 491520 Threshold : 12288 Invalid Tags : 196658 Pr0 Tags : 98302 Pr1 Tags : 196560 num_pr0 : 12287
 SAE Count : 0
 Inter-Core Inteference in Data Store : 1265966
Heartbeat CPU 3 instructions: 70000002 cycles: 87664324 heartbeat IPC: 0.625546 cumulative IPC: 0.7985 (Simulation time: 11 hr 18 min 37 sec) 
 Total Blocks : 196608 Invalid Blocks : 48 Valid Blocks : 196560
 Total Tags : 491520 Threshold : 12288 Invalid Tags : 196656 Pr0 Tags : 98304 Pr1 Tags : 196560 num_pr0 : 12288
 SAE Count : 0
 Inter-Core Inteference in Data Store : 1266161
Heartbeat CPU 4 instructions: 70000002 cycles: 87664468 heartbeat IPC: 0.625551 cumulative IPC: 0.798499 (Simulation time: 11 hr 18 min 37 sec) 
 Total Blocks : 196608 Invalid Blocks : 48 Valid Blocks : 196560
 Total Tags : 491520 Threshold : 12288 Invalid Tags : 196659 Pr0 Tags : 98301 Pr1 Tags : 196560 num_pr0 : 12288
 SAE Count : 0
 Inter-Core Inteference in Data Store : 1266166
Heartbeat CPU 5 instructions: 70000002 cycles: 87667768 heartbeat IPC: 0.625535 cumulative IPC: 0.798469 (Simulation time: 11 hr 18 min 37 sec) 
 Total Blocks : 196608 Invalid Blocks : 48 Valid Blocks : 196560
 Total Tags : 491520 Threshold : 12288 Invalid Tags : 196658 Pr0 Tags : 98302 Pr1 Tags : 196560 num_pr0 : 12288
 SAE Count : 0
 Inter-Core Inteference in Data Store : 1266244
Heartbeat CPU 0 instructions: 70000002 cycles: 87694084 heartbeat IPC: 0.62555 cumulative IPC: 0.798229 (Simulation time: 11 hr 18 min 40 sec) 
 Total Blocks : 196608 Invalid Blocks : 48 Valid Blocks : 196560
 Total Tags : 491520 Threshold : 12288 Invalid Tags : 196660 Pr0 Tags : 98300 Pr1 Tags : 196560 num_pr0 : 12288
 SAE Count : 0
 Inter-Core Inteference in Data Store : 1266718
Heartbeat CPU 1 instructions: 70000002 cycles: 87694598 heartbeat IPC: 0.625541 cumulative IPC: 0.798225 (Simulation time: 11 hr 18 min 40 sec) 
 Total Blocks : 196608 Invalid Blocks : 48 Valid Blocks : 196560
 Total Tags : 491520 Threshold : 12288 Invalid Tags : 196658 Pr0 Tags : 98302 Pr1 Tags : 196560 num_pr0 : 12287
 SAE Count : 0
 Inter-Core Inteference in Data Store : 1266730
Heartbeat CPU 2 instructions: 70000002 cycles: 87694605 heartbeat IPC: 0.62554 cumulative IPC: 0.798225 (Simulation time: 11 hr 18 min 40 sec) 
 Total Blocks : 196608 Invalid Blocks : 48 Valid Blocks : 196560
 Total Tags : 491520 Threshold : 12288 Invalid Tags : 196658 Pr0 Tags : 98302 Pr1 Tags : 196560 num_pr0 : 12287
 SAE Count : 0
 Inter-Core Inteference in Data Store : 1266730
Heartbeat CPU 7 instructions: 80000001 cycles: 104395753 heartbeat IPC: 0.597276 cumulative IPC: 0.766315 (Simulation time: 11 hr 34 min 8 sec) 
 Total Blocks : 196608 Invalid Blocks : 36 Valid Blocks : 196572
 Total Tags : 491520 Threshold : 12288 Invalid Tags : 196644 Pr0 Tags : 98304 Pr1 Tags : 196572 num_pr0 : 12288
 SAE Count : 0
 Inter-Core Inteference in Data Store : 1326207
Heartbeat CPU 6 instructions: 80000001 cycles: 104396506 heartbeat IPC: 0.597273 cumulative IPC: 0.766309 (Simulation time: 11 hr 34 min 8 sec) 
 Total Blocks : 196608 Invalid Blocks : 36 Valid Blocks : 196572
 Total Tags : 491520 Threshold : 12288 Invalid Tags : 196644 Pr0 Tags : 98304 Pr1 Tags : 196572 num_pr0 : 12288
 SAE Count : 0
 Inter-Core Inteference in Data Store : 1326207
Heartbeat CPU 3 instructions: 80000001 cycles: 104407937 heartbeat IPC: 0.597243 cumulative IPC: 0.766225 (Simulation time: 11 hr 34 min 9 sec) 
 Total Blocks : 196608 Invalid Blocks : 36 Valid Blocks : 196572
 Total Tags : 491520 Threshold : 12288 Invalid Tags : 196644 Pr0 Tags : 98304 Pr1 Tags : 196572 num_pr0 : 12288
 SAE Count : 0
 Inter-Core Inteference in Data Store : 1326221
Heartbeat CPU 4 instructions: 80000001 cycles: 104408151 heartbeat IPC: 0.59724 cumulative IPC: 0.766224 (Simulation time: 11 hr 34 min 9 sec) 
 Total Blocks : 196608 Invalid Blocks : 36 Valid Blocks : 196572
 Total Tags : 491520 Threshold : 12288 Invalid Tags : 196644 Pr0 Tags : 98304 Pr1 Tags : 196572 num_pr0 : 12288
 SAE Count : 0
 Inter-Core Inteference in Data Store : 1326221
Heartbeat CPU 5 instructions: 80000001 cycles: 104411363 heartbeat IPC: 0.597243 cumulative IPC: 0.7662 (Simulation time: 11 hr 34 min 9 sec) 
 Total Blocks : 196608 Invalid Blocks : 36 Valid Blocks : 196572
 Total Tags : 491520 Threshold : 12288 Invalid Tags : 196644 Pr0 Tags : 98304 Pr1 Tags : 196572 num_pr0 : 12288
 SAE Count : 0
 Inter-Core Inteference in Data Store : 1326224
Heartbeat CPU 0 instructions: 80000001 cycles: 104439028 heartbeat IPC: 0.597195 cumulative IPC: 0.765997 (Simulation time: 11 hr 34 min 11 sec) 
 Total Blocks : 196608 Invalid Blocks : 36 Valid Blocks : 196572
 Total Tags : 491520 Threshold : 12288 Invalid Tags : 196644 Pr0 Tags : 98304 Pr1 Tags : 196572 num_pr0 : 12288
 SAE Count : 0
 Inter-Core Inteference in Data Store : 1326254
Heartbeat CPU 1 instructions: 80000001 cycles: 104439559 heartbeat IPC: 0.597195 cumulative IPC: 0.765993 (Simulation time: 11 hr 34 min 11 sec) 
 Total Blocks : 196608 Invalid Blocks : 36 Valid Blocks : 196572
 Total Tags : 491520 Threshold : 12288 Invalid Tags : 196644 Pr0 Tags : 98304 Pr1 Tags : 196572 num_pr0 : 12288
 SAE Count : 0
 Inter-Core Inteference in Data Store : 1326255
Heartbeat CPU 2 instructions: 80000001 cycles: 104439594 heartbeat IPC: 0.597194 cumulative IPC: 0.765993 (Simulation time: 11 hr 34 min 11 sec) 
 Total Blocks : 196608 Invalid Blocks : 36 Valid Blocks : 196572
 Total Tags : 491520 Threshold : 12288 Invalid Tags : 196644 Pr0 Tags : 98304 Pr1 Tags : 196572 num_pr0 : 12288
 SAE Count : 0
 Inter-Core Inteference in Data Store : 1326255
Heartbeat CPU 7 instructions: 90000003 cycles: 108241768 heartbeat IPC: 2.60009 cumulative IPC: 0.831472 (Simulation time: 11 hr 48 min 47 sec) 
 Total Blocks : 196608 Invalid Blocks : 36 Valid Blocks : 196572
 Total Tags : 491520 Threshold : 12288 Invalid Tags : 196644 Pr0 Tags : 98304 Pr1 Tags : 196572 num_pr0 : 12288
 SAE Count : 0
 Inter-Core Inteference in Data Store : 1327317
Heartbeat CPU 6 instructions: 90000003 cycles: 108242613 heartbeat IPC: 2.60003 cumulative IPC: 0.831466 (Simulation time: 11 hr 48 min 48 sec) 
 Total Blocks : 196608 Invalid Blocks : 36 Valid Blocks : 196572
 Total Tags : 491520 Threshold : 12288 Invalid Tags : 196644 Pr0 Tags : 98304 Pr1 Tags : 196572 num_pr0 : 12288
 SAE Count : 0
 Inter-Core Inteference in Data Store : 1327317
Heartbeat CPU 3 instructions: 90000003 cycles: 108253963 heartbeat IPC: 2.60009 cumulative IPC: 0.831378 (Simulation time: 11 hr 48 min 51 sec) 
 Total Blocks : 196608 Invalid Blocks : 36 Valid Blocks : 196572
 Total Tags : 491520 Threshold : 12288 Invalid Tags : 196644 Pr0 Tags : 98304 Pr1 Tags : 196572 num_pr0 : 12288
 SAE Count : 0
 Inter-Core Inteference in Data Store : 1327317
Heartbeat CPU 4 instructions: 90000003 cycles: 108254182 heartbeat IPC: 2.60008 cumulative IPC: 0.831377 (Simulation time: 11 hr 48 min 51 sec) 
 Total Blocks : 196608 Invalid Blocks : 36 Valid Blocks : 196572
 Total Tags : 491520 Threshold : 12288 Invalid Tags : 196644 Pr0 Tags : 98304 Pr1 Tags : 196572 num_pr0 : 12288
 SAE Count : 0
 Inter-Core Inteference in Data Store : 1327317
Heartbeat CPU 5 instructions: 90000003 cycles: 108257498 heartbeat IPC: 2.60001 cumulative IPC: 0.831351 (Simulation time: 11 hr 48 min 52 sec) 
 Total Blocks : 196608 Invalid Blocks : 36 Valid Blocks : 196572
 Total Tags : 491520 Threshold : 12288 Invalid Tags : 196644 Pr0 Tags : 98304 Pr1 Tags : 196572 num_pr0 : 12288
 SAE Count : 0
 Inter-Core Inteference in Data Store : 1327317
Heartbeat CPU 0 instructions: 90000003 cycles: 108285139 heartbeat IPC: 2.60003 cumulative IPC: 0.831139 (Simulation time: 11 hr 48 min 58 sec) 
 Total Blocks : 196608 Invalid Blocks : 36 Valid Blocks : 196572
 Total Tags : 491520 Threshold : 12288 Invalid Tags : 196644 Pr0 Tags : 98304 Pr1 Tags : 196572 num_pr0 : 12288
 SAE Count : 0
 Inter-Core Inteference in Data Store : 1327317
Heartbeat CPU 1 instructions: 90000003 cycles: 108285613 heartbeat IPC: 2.60007 cumulative IPC: 0.831135 (Simulation time: 11 hr 48 min 58 sec) 
 Total Blocks : 196608 Invalid Blocks : 36 Valid Blocks : 196572
 Total Tags : 491520 Threshold : 12288 Invalid Tags : 196644 Pr0 Tags : 98304 Pr1 Tags : 196572 num_pr0 : 12288
 SAE Count : 0
 Inter-Core Inteference in Data Store : 1327317
Heartbeat CPU 2 instructions: 90000003 cycles: 108285684 heartbeat IPC: 2.60004 cumulative IPC: 0.831135 (Simulation time: 11 hr 48 min 58 sec) 
 Total Blocks : 196608 Invalid Blocks : 36 Valid Blocks : 196572
 Total Tags : 491520 Threshold : 12288 Invalid Tags : 196644 Pr0 Tags : 98304 Pr1 Tags : 196572 num_pr0 : 12288
 SAE Count : 0
 Inter-Core Inteference in Data Store : 1327317
Heartbeat CPU 7 instructions: 100000000 cycles: 114810334 heartbeat IPC: 1.5224 cumulative IPC: 0.871002 (Simulation time: 12 hr 8 min 52 sec) 
 Total Blocks : 196608 Invalid Blocks : 16 Valid Blocks : 196592
 Total Tags : 491520 Threshold : 12288 Invalid Tags : 196624 Pr0 Tags : 98304 Pr1 Tags : 196592 num_pr0 : 12288
 SAE Count : 0
 Inter-Core Inteference in Data Store : 1434240
Heartbeat CPU 6 instructions: 100000000 cycles: 114811175 heartbeat IPC: 1.5224 cumulative IPC: 0.870995 (Simulation time: 12 hr 8 min 52 sec) 
 Total Blocks : 196608 Invalid Blocks : 16 Valid Blocks : 196592
 Total Tags : 491520 Threshold : 12288 Invalid Tags : 196626 Pr0 Tags : 98302 Pr1 Tags : 196592 num_pr0 : 12288
 SAE Count : 0
 Inter-Core Inteference in Data Store : 1434259
Heartbeat CPU 3 instructions: 100000000 cycles: 114822503 heartbeat IPC: 1.52241 cumulative IPC: 0.870909 (Simulation time: 12 hr 8 min 53 sec) 
 Total Blocks : 196608 Invalid Blocks : 16 Valid Blocks : 196592
 Total Tags : 491520 Threshold : 12288 Invalid Tags : 196630 Pr0 Tags : 98298 Pr1 Tags : 196592 num_pr0 : 12287
 SAE Count : 0
 Inter-Core Inteference in Data Store : 1434533
Heartbeat CPU 4 instructions: 100000000 cycles: 114822679 heartbeat IPC: 1.52242 cumulative IPC: 0.870908 (Simulation time: 12 hr 8 min 53 sec) 
 Total Blocks : 196608 Invalid Blocks : 16 Valid Blocks : 196592
 Total Tags : 491520 Threshold : 12288 Invalid Tags : 196627 Pr0 Tags : 98301 Pr1 Tags : 196592 num_pr0 : 12287
 SAE Count : 0
 Inter-Core Inteference in Data Store : 1434544
Heartbeat CPU 5 instructions: 100000000 cycles: 114826014 heartbeat IPC: 1.52241 cumulative IPC: 0.870883 (Simulation time: 12 hr 8 min 53 sec) 
 Total Blocks : 196608 Invalid Blocks : 16 Valid Blocks : 196592
 Total Tags : 491520 Threshold : 12288 Invalid Tags : 196626 Pr0 Tags : 98302 Pr1 Tags : 196592 num_pr0 : 12288
 SAE Count : 0
 Inter-Core Inteference in Data Store : 1434669
Heartbeat CPU 0 instructions: 100000000 cycles: 114853477 heartbeat IPC: 1.52245 cumulative IPC: 0.870675 (Simulation time: 12 hr 8 min 54 sec) 
 Total Blocks : 196608 Invalid Blocks : 16 Valid Blocks : 196592
 Total Tags : 491520 Threshold : 12288 Invalid Tags : 196631 Pr0 Tags : 98297 Pr1 Tags : 196592 num_pr0 : 12288
 SAE Count : 0
 Inter-Core Inteference in Data Store : 1435397
Heartbeat CPU 1 instructions: 100000000 cycles: 114854008 heartbeat IPC: 1.52244 cumulative IPC: 0.870671 (Simulation time: 12 hr 8 min 54 sec) 
 Total Blocks : 196608 Invalid Blocks : 16 Valid Blocks : 196592
 Total Tags : 491520 Threshold : 12288 Invalid Tags : 196629 Pr0 Tags : 98299 Pr1 Tags : 196592 num_pr0 : 12287
 SAE Count : 0
 Inter-Core Inteference in Data Store : 1435423
Heartbeat CPU 2 instructions: 100000000 cycles: 114854058 heartbeat IPC: 1.52245 cumulative IPC: 0.87067 (Simulation time: 12 hr 8 min 54 sec) 
 Total Blocks : 196608 Invalid Blocks : 16 Valid Blocks : 196592
 Total Tags : 491520 Threshold : 12288 Invalid Tags : 196630 Pr0 Tags : 98298 Pr1 Tags : 196592 num_pr0 : 12287
 SAE Count : 0
 Inter-Core Inteference in Data Store : 1435425
Heartbeat CPU 7 instructions: 110000000 cycles: 129172081 heartbeat IPC: 0.696294 cumulative IPC: 0.851577 (Simulation time: 12 hr 24 min 29 sec) 
 Total Blocks : 196608 Invalid Blocks : 1 Valid Blocks : 196607
 Total Tags : 491520 Threshold : 12288 Invalid Tags : 196609 Pr0 Tags : 98304 Pr1 Tags : 196607 num_pr0 : 12288
 SAE Count : 0
 Inter-Core Inteference in Data Store : 1886453
Heartbeat CPU 6 instructions: 110000000 cycles: 129173044 heartbeat IPC: 0.696288 cumulative IPC: 0.851571 (Simulation time: 12 hr 24 min 29 sec) 
 Total Blocks : 196608 Invalid Blocks : 1 Valid Blocks : 196607
 Total Tags : 491520 Threshold : 12288 Invalid Tags : 196609 Pr0 Tags : 98304 Pr1 Tags : 196607 num_pr0 : 12288
 SAE Count : 0
 Inter-Core Inteference in Data Store : 1886473
Heartbeat CPU 3 instructions: 110000000 cycles: 129184329 heartbeat IPC: 0.69629 cumulative IPC: 0.851496 (Simulation time: 12 hr 24 min 31 sec) 
 Total Blocks : 196608 Invalid Blocks : 1 Valid Blocks : 196607
 Total Tags : 491520 Threshold : 12288 Invalid Tags : 196609 Pr0 Tags : 98304 Pr1 Tags : 196607 num_pr0 : 12288
 SAE Count : 0
 Inter-Core Inteference in Data Store : 1886637
Heartbeat CPU 4 instructions: 110000000 cycles: 129184665 heartbeat IPC: 0.696283 cumulative IPC: 0.851494 (Simulation time: 12 hr 24 min 31 sec) 
 Total Blocks : 196608 Invalid Blocks : 1 Valid Blocks : 196607
 Total Tags : 491520 Threshold : 12288 Invalid Tags : 196609 Pr0 Tags : 98304 Pr1 Tags : 196607 num_pr0 : 12288
 SAE Count : 0
 Inter-Core Inteference in Data Store : 1886640
Heartbeat CPU 5 instructions: 110000000 cycles: 129188646 heartbeat IPC: 0.696251 cumulative IPC: 0.851468 (Simulation time: 12 hr 24 min 31 sec) 
 Total Blocks : 196608 Invalid Blocks : 1 Valid Blocks : 196607
 Total Tags : 491520 Threshold : 12288 Invalid Tags : 196609 Pr0 Tags : 98304 Pr1 Tags : 196607 num_pr0 : 12288
 SAE Count : 0
 Inter-Core Inteference in Data Store : 1886707
Heartbeat CPU 0 instructions: 110000000 cycles: 129217048 heartbeat IPC: 0.696206 cumulative IPC: 0.851281 (Simulation time: 12 hr 24 min 33 sec) 
 Total Blocks : 196608 Invalid Blocks : 1 Valid Blocks : 196607
 Total Tags : 491520 Threshold : 12288 Invalid Tags : 196609 Pr0 Tags : 98304 Pr1 Tags : 196607 num_pr0 : 12288
 SAE Count : 0
 Inter-Core Inteference in Data Store : 1887081
Heartbeat CPU 1 instructions: 110000000 cycles: 129217638 heartbeat IPC: 0.696203 cumulative IPC: 0.851277 (Simulation time: 12 hr 24 min 33 sec) 
 Total Blocks : 196608 Invalid Blocks : 1 Valid Blocks : 196607
 Total Tags : 491520 Threshold : 12288 Invalid Tags : 196610 Pr0 Tags : 98303 Pr1 Tags : 196607 num_pr0 : 12288
 SAE Count : 0
 Inter-Core Inteference in Data Store : 1887089
Heartbeat CPU 2 instructions: 110000000 cycles: 129217713 heartbeat IPC: 0.696202 cumulative IPC: 0.851276 (Simulation time: 12 hr 24 min 33 sec) 
 Total Blocks : 196608 Invalid Blocks : 1 Valid Blocks : 196607
 Total Tags : 491520 Threshold : 12288 Invalid Tags : 196609 Pr0 Tags : 98304 Pr1 Tags : 196607 num_pr0 : 12288
 SAE Count : 0
 Inter-Core Inteference in Data Store : 1887089
Heartbeat CPU 7 instructions: 120000002 cycles: 144433895 heartbeat IPC: 0.65523 cumulative IPC: 0.83083 (Simulation time: 12 hr 43 min 47 sec) 
 Total Blocks : 196608 Invalid Blocks : 1 Valid Blocks : 196607
 Total Tags : 491520 Threshold : 12288 Invalid Tags : 196609 Pr0 Tags : 98304 Pr1 Tags : 196607 num_pr0 : 12288
 SAE Count : 0
 Inter-Core Inteference in Data Store : 2051330
Heartbeat CPU 6 instructions: 120000002 cycles: 144435661 heartbeat IPC: 0.655196 cumulative IPC: 0.83082 (Simulation time: 12 hr 43 min 47 sec) 
 Total Blocks : 196608 Invalid Blocks : 1 Valid Blocks : 196607
 Total Tags : 491520 Threshold : 12288 Invalid Tags : 196611 Pr0 Tags : 98302 Pr1 Tags : 196607 num_pr0 : 12288
 SAE Count : 0
 Inter-Core Inteference in Data Store : 2051344
Heartbeat CPU 3 instructions: 120000002 cycles: 144446125 heartbeat IPC: 0.655231 cumulative IPC: 0.83076 (Simulation time: 12 hr 43 min 48 sec) 
 Total Blocks : 196608 Invalid Blocks : 1 Valid Blocks : 196607
 Total Tags : 491520 Threshold : 12288 Invalid Tags : 196610 Pr0 Tags : 98303 Pr1 Tags : 196607 num_pr0 : 12288
 SAE Count : 0
 Inter-Core Inteference in Data Store : 2051471
Heartbeat CPU 4 instructions: 120000002 cycles: 144446338 heartbeat IPC: 0.655236 cumulative IPC: 0.830758 (Simulation time: 12 hr 43 min 48 sec) 
 Total Blocks : 196608 Invalid Blocks : 1 Valid Blocks : 196607
 Total Tags : 491520 Threshold : 12288 Invalid Tags : 196610 Pr0 Tags : 98303 Pr1 Tags : 196607 num_pr0 : 12288
 SAE Count : 0
 Inter-Core Inteference in Data Store : 2051475
Heartbeat CPU 5 instructions: 120000002 cycles: 144449927 heartbeat IPC: 0.655253 cumulative IPC: 0.830738 (Simulation time: 12 hr 43 min 49 sec) 
 Total Blocks : 196608 Invalid Blocks : 1 Valid Blocks : 196607
 Total Tags : 491520 Threshold : 12288 Invalid Tags : 196610 Pr0 Tags : 98303 Pr1 Tags : 196607 num_pr0 : 12288
 SAE Count : 0
 Inter-Core Inteference in Data Store : 2051514
Heartbeat CPU 0 instructions: 120000002 cycles: 144488478 heartbeat IPC: 0.654818 cumulative IPC: 0.830516 (Simulation time: 12 hr 43 min 51 sec) 
 Total Blocks : 196608 Invalid Blocks : 1 Valid Blocks : 196607
 Total Tags : 491520 Threshold : 12288 Invalid Tags : 196609 Pr0 Tags : 98304 Pr1 Tags : 196607 num_pr0 : 12288
 SAE Count : 0
 Inter-Core Inteference in Data Store : 2051938
Heartbeat CPU 1 instructions: 120000002 cycles: 144489149 heartbeat IPC: 0.654814 cumulative IPC: 0.830512 (Simulation time: 12 hr 43 min 51 sec) 
 Total Blocks : 196608 Invalid Blocks : 1 Valid Blocks : 196607
 Total Tags : 491520 Threshold : 12288 Invalid Tags : 196610 Pr0 Tags : 98303 Pr1 Tags : 196607 num_pr0 : 12288
 SAE Count : 0
 Inter-Core Inteference in Data Store : 2051943
Heartbeat CPU 2 instructions: 120000002 cycles: 144489202 heartbeat IPC: 0.654815 cumulative IPC: 0.830512 (Simulation time: 12 hr 43 min 51 sec) 
 Total Blocks : 196608 Invalid Blocks : 1 Valid Blocks : 196607
 Total Tags : 491520 Threshold : 12288 Invalid Tags : 196609 Pr0 Tags : 98304 Pr1 Tags : 196607 num_pr0 : 12288
 SAE Count : 0
 Inter-Core Inteference in Data Store : 2051943
FILL
Heartbeat CPU 7 instructions: 130000000 cycles: 159692912 heartbeat IPC: 0.65535 cumulative IPC: 0.814062 (Simulation time: 13 hr 2 min 28 sec) 
 Total Blocks : 196608 Invalid Blocks : 1 Valid Blocks : 196607
 Total Tags : 491520 Threshold : 12288 Invalid Tags : 196609 Pr0 Tags : 98304 Pr1 Tags : 196607 num_pr0 : 12288
 SAE Count : 0
 Inter-Core Inteference in Data Store : 2222419
Heartbeat CPU 6 instructions: 130000000 cycles: 159694611 heartbeat IPC: 0.655353 cumulative IPC: 0.814054 (Simulation time: 13 hr 2 min 29 sec) 
 Total Blocks : 196608 Invalid Blocks : 1 Valid Blocks : 196607
 Total Tags : 491520 Threshold : 12288 Invalid Tags : 196609 Pr0 Tags : 98304 Pr1 Tags : 196607 num_pr0 : 12288
 SAE Count : 0
 Inter-Core Inteference in Data Store : 2222436
Heartbeat CPU 3 instructions: 130000000 cycles: 159705172 heartbeat IPC: 0.655349 cumulative IPC: 0.814 (Simulation time: 13 hr 2 min 29 sec) 
 Total Blocks : 196608 Invalid Blocks : 1 Valid Blocks : 196607
 Total Tags : 491520 Threshold : 12288 Invalid Tags : 196610 Pr0 Tags : 98303 Pr1 Tags : 196607 num_pr0 : 12288
 SAE Count : 0
 Inter-Core Inteference in Data Store : 2222549
Heartbeat CPU 4 instructions: 130000000 cycles: 159705173 heartbeat IPC: 0.655358 cumulative IPC: 0.814 (Simulation time: 13 hr 2 min 29 sec) 
 Total Blocks : 196608 Invalid Blocks : 1 Valid Blocks : 196607
 Total Tags : 491520 Threshold : 12288 Invalid Tags : 196610 Pr0 Tags : 98303 Pr1 Tags : 196607 num_pr0 : 12288
 SAE Count : 0
 Inter-Core Inteference in Data Store : 2222549
Heartbeat CPU 5 instructions: 130000000 cycles: 159709700 heartbeat IPC: 0.655318 cumulative IPC: 0.813977 (Simulation time: 13 hr 2 min 30 sec) 
 Total Blocks : 196608 Invalid Blocks : 1 Valid Blocks : 196607
 Total Tags : 491520 Threshold : 12288 Invalid Tags : 196609 Pr0 Tags : 98304 Pr1 Tags : 196607 num_pr0 : 12288
 SAE Count : 0
 Inter-Core Inteference in Data Store : 2222607
Heartbeat CPU 0 instructions: 130000000 cycles: 159756989 heartbeat IPC: 0.654943 cumulative IPC: 0.813736 (Simulation time: 13 hr 2 min 34 sec) 
 Total Blocks : 196608 Invalid Blocks : 1 Valid Blocks : 196607
 Total Tags : 491520 Threshold : 12288 Invalid Tags : 196609 Pr0 Tags : 98304 Pr1 Tags : 196607 num_pr0 : 12288
 SAE Count : 0
 Inter-Core Inteference in Data Store : 2223119
Heartbeat CPU 1 instructions: 130000000 cycles: 159757827 heartbeat IPC: 0.654935 cumulative IPC: 0.813732 (Simulation time: 13 hr 2 min 34 sec) 
 Total Blocks : 196608 Invalid Blocks : 1 Valid Blocks : 196607
 Total Tags : 491520 Threshold : 12288 Invalid Tags : 196609 Pr0 Tags : 98304 Pr1 Tags : 196607 num_pr0 : 12288
 SAE Count : 0
 Inter-Core Inteference in Data Store : 2223123
Heartbeat CPU 2 instructions: 130000000 cycles: 159757964 heartbeat IPC: 0.654932 cumulative IPC: 0.813731 (Simulation time: 13 hr 2 min 34 sec) 
 Total Blocks : 196608 Invalid Blocks : 1 Valid Blocks : 196607
 Total Tags : 491520 Threshold : 12288 Invalid Tags : 196609 Pr0 Tags : 98304 Pr1 Tags : 196607 num_pr0 : 12288
 SAE Count : 0
 Inter-Core Inteference in Data Store : 2223123
Heartbeat CPU 7 instructions: 140000001 cycles: 175996782 heartbeat IPC: 0.613351 cumulative IPC: 0.795469 (Simulation time: 13 hr 19 min 59 sec) 
 Total Blocks : 196608 Invalid Blocks : 0 Valid Blocks : 196608
 Total Tags : 491520 Threshold : 12288 Invalid Tags : 196612 Pr0 Tags : 98300 Pr1 Tags : 196608 num_pr0 : 12287
 SAE Count : 0
 Inter-Core Inteference in Data Store : 2467876
Heartbeat CPU 6 instructions: 140000001 cycles: 175998504 heartbeat IPC: 0.613351 cumulative IPC: 0.795461 (Simulation time: 13 hr 19 min 59 sec) 
 Total Blocks : 196608 Invalid Blocks : 0 Valid Blocks : 196608
 Total Tags : 491520 Threshold : 12288 Invalid Tags : 196609 Pr0 Tags : 98303 Pr1 Tags : 196608 num_pr0 : 12287
 SAE Count : 0
 Inter-Core Inteference in Data Store : 2467902
Heartbeat CPU 3 instructions: 140000001 cycles: 176012293 heartbeat IPC: 0.613229 cumulative IPC: 0.795399 (Simulation time: 13 hr 20 min 0 sec) 
 Total Blocks : 196608 Invalid Blocks : 0 Valid Blocks : 196608
 Total Tags : 491520 Threshold : 12288 Invalid Tags : 196608 Pr0 Tags : 98304 Pr1 Tags : 196608 num_pr0 : 12288
 SAE Count : 0
 Inter-Core Inteference in Data Store : 2468148
Heartbeat CPU 4 instructions: 140000001 cycles: 176012327 heartbeat IPC: 0.613228 cumulative IPC: 0.795399 (Simulation time: 13 hr 20 min 0 sec) 
 Total Blocks : 196608 Invalid Blocks : 0 Valid Blocks : 196608
 Total Tags : 491520 Threshold : 12288 Invalid Tags : 196608 Pr0 Tags : 98304 Pr1 Tags : 196608 num_pr0 : 12288
 SAE Count : 0
 Inter-Core Inteference in Data Store : 2468148
Heartbeat CPU 5 instructions: 140000001 cycles: 176017027 heartbeat IPC: 0.613221 cumulative IPC: 0.795378 (Simulation time: 13 hr 20 min 0 sec) 
 Total Blocks : 196608 Invalid Blocks : 0 Valid Blocks : 196608
 Total Tags : 491520 Threshold : 12288 Invalid Tags : 196609 Pr0 Tags : 98303 Pr1 Tags : 196608 num_pr0 : 12288
 SAE Count : 0
 Inter-Core Inteference in Data Store : 2468211
Heartbeat CPU 0 instructions: 140000001 cycles: 176070118 heartbeat IPC: 0.613003 cumulative IPC: 0.795138 (Simulation time: 13 hr 20 min 3 sec) 
 Total Blocks : 196608 Invalid Blocks : 0 Valid Blocks : 196608
 Total Tags : 491520 Threshold : 12288 Invalid Tags : 196608 Pr0 Tags : 98304 Pr1 Tags : 196608 num_pr0 : 12288
 SAE Count : 0
 Inter-Core Inteference in Data Store : 2469249
Heartbeat CPU 1 instructions: 140000001 cycles: 176071033 heartbeat IPC: 0.613 cumulative IPC: 0.795134 (Simulation time: 13 hr 20 min 3 sec) 
 Total Blocks : 196608 Invalid Blocks : 0 Valid Blocks : 196608
 Total Tags : 491520 Threshold : 12288 Invalid Tags : 196610 Pr0 Tags : 98302 Pr1 Tags : 196608 num_pr0 : 12288
 SAE Count : 0
 Inter-Core Inteference in Data Store : 2469266
Heartbeat CPU 2 instructions: 140000001 cycles: 176071173 heartbeat IPC: 0.613 cumulative IPC: 0.795133 (Simulation time: 13 hr 20 min 3 sec) 
 Total Blocks : 196608 Invalid Blocks : 0 Valid Blocks : 196608
 Total Tags : 491520 Threshold : 12288 Invalid Tags : 196609 Pr0 Tags : 98303 Pr1 Tags : 196608 num_pr0 : 12288
 SAE Count : 0
 Inter-Core Inteference in Data Store : 2469267
FILL
Heartbeat CPU 7 instructions: 150000001 cycles: 194009684 heartbeat IPC: 0.555158 cumulative IPC: 0.773157 (Simulation time: 13 hr 35 min 57 sec) 
 Total Blocks : 196608 Invalid Blocks : 0 Valid Blocks : 196608
 Total Tags : 491520 Threshold : 12288 Invalid Tags : 196608 Pr0 Tags : 98304 Pr1 Tags : 196608 num_pr0 : 12288
 SAE Count : 0
 Inter-Core Inteference in Data Store : 2767104
Heartbeat CPU 6 instructions: 150000001 cycles: 194011497 heartbeat IPC: 0.555155 cumulative IPC: 0.77315 (Simulation time: 13 hr 35 min 57 sec) 
 Total Blocks : 196608 Invalid Blocks : 0 Valid Blocks : 196608
 Total Tags : 491520 Threshold : 12288 Invalid Tags : 196608 Pr0 Tags : 98304 Pr1 Tags : 196608 num_pr0 : 12288
 SAE Count : 0
 Inter-Core Inteference in Data Store : 2767104
Heartbeat CPU 4 instructions: 150000001 cycles: 194033031 heartbeat IPC: 0.554917 cumulative IPC: 0.773064 (Simulation time: 13 hr 35 min 58 sec) 
 Total Blocks : 196608 Invalid Blocks : 0 Valid Blocks : 196608
 Total Tags : 491520 Threshold : 12288 Invalid Tags : 196608 Pr0 Tags : 98304 Pr1 Tags : 196608 num_pr0 : 12288
 SAE Count : 0
 Inter-Core Inteference in Data Store : 2767113
Heartbeat CPU 3 instructions: 150000001 cycles: 194033158 heartbeat IPC: 0.554912 cumulative IPC: 0.773064 (Simulation time: 13 hr 35 min 59 sec) 
 Total Blocks : 196608 Invalid Blocks : 0 Valid Blocks : 196608
 Total Tags : 491520 Threshold : 12288 Invalid Tags : 196608 Pr0 Tags : 98304 Pr1 Tags : 196608 num_pr0 : 12288
 SAE Count : 0
 Inter-Core Inteference in Data Store : 2767113
Heartbeat CPU 5 instructions: 150000001 cycles: 194037960 heartbeat IPC: 0.55491 cumulative IPC: 0.773045 (Simulation time: 13 hr 35 min 59 sec) 
 Total Blocks : 196608 Invalid Blocks : 0 Valid Blocks : 196608
 Total Tags : 491520 Threshold : 12288 Invalid Tags : 196608 Pr0 Tags : 98304 Pr1 Tags : 196608 num_pr0 : 12288
 SAE Count : 0
 Inter-Core Inteference in Data Store : 2767116
Heartbeat CPU 0 instructions: 150000001 cycles: 194090980 heartbeat IPC: 0.554912 cumulative IPC: 0.772833 (Simulation time: 13 hr 36 min 1 sec) 
 Total Blocks : 196608 Invalid Blocks : 0 Valid Blocks : 196608
 Total Tags : 491520 Threshold : 12288 Invalid Tags : 196608 Pr0 Tags : 98304 Pr1 Tags : 196608 num_pr0 : 12288
 SAE Count : 0
 Inter-Core Inteference in Data Store : 2767152
Heartbeat CPU 1 instructions: 150000001 cycles: 194091997 heartbeat IPC: 0.554909 cumulative IPC: 0.772829 (Simulation time: 13 hr 36 min 1 sec) 
 Total Blocks : 196608 Invalid Blocks : 0 Valid Blocks : 196608
 Total Tags : 491520 Threshold : 12288 Invalid Tags : 196608 Pr0 Tags : 98304 Pr1 Tags : 196608 num_pr0 : 12288
 SAE Count : 0
 Inter-Core Inteference in Data Store : 2767152
Heartbeat CPU 2 instructions: 150000001 cycles: 194092143 heartbeat IPC: 0.554909 cumulative IPC: 0.772829 (Simulation time: 13 hr 36 min 1 sec) 
 Total Blocks : 196608 Invalid Blocks : 0 Valid Blocks : 196608
 Total Tags : 491520 Threshold : 12288 Invalid Tags : 196608 Pr0 Tags : 98304 Pr1 Tags : 196608 num_pr0 : 12288
 SAE Count : 0
 Inter-Core Inteference in Data Store : 2767152
FILL
Heartbeat CPU 7 instructions: 160000000 cycles: 208031604 heartbeat IPC: 0.713169 cumulative IPC: 0.769114 (Simulation time: 13 hr 49 min 50 sec) 
 Total Blocks : 196608 Invalid Blocks : 0 Valid Blocks : 196608
 Total Tags : 491520 Threshold : 12288 Invalid Tags : 196608 Pr0 Tags : 98304 Pr1 Tags : 196608 num_pr0 : 12288
 SAE Count : 0
 Inter-Core Inteference in Data Store : 2771819
Heartbeat CPU 6 instructions: 160000000 cycles: 208033420 heartbeat IPC: 0.713169 cumulative IPC: 0.769107 (Simulation time: 13 hr 49 min 52 sec) 
 Total Blocks : 196608 Invalid Blocks : 0 Valid Blocks : 196608
 Total Tags : 491520 Threshold : 12288 Invalid Tags : 196608 Pr0 Tags : 98304 Pr1 Tags : 196608 num_pr0 : 12288
 SAE Count : 0
 Inter-Core Inteference in Data Store : 2771819
Heartbeat CPU 4 instructions: 160000000 cycles: 208054970 heartbeat IPC: 0.713168 cumulative IPC: 0.769028 (Simulation time: 13 hr 49 min 57 sec) 
 Total Blocks : 196608 Invalid Blocks : 0 Valid Blocks : 196608
 Total Tags : 491520 Threshold : 12288 Invalid Tags : 196608 Pr0 Tags : 98304 Pr1 Tags : 196608 num_pr0 : 12288
 SAE Count : 0
 Inter-Core Inteference in Data Store : 2771819
Heartbeat CPU 3 instructions: 160000000 cycles: 208055083 heartbeat IPC: 0.713169 cumulative IPC: 0.769027 (Simulation time: 13 hr 49 min 57 sec) 
 Total Blocks : 196608 Invalid Blocks : 0 Valid Blocks : 196608
 Total Tags : 491520 Threshold : 12288 Invalid Tags : 196608 Pr0 Tags : 98304 Pr1 Tags : 196608 num_pr0 : 12288
 SAE Count : 0
 Inter-Core Inteference in Data Store : 2771819
Heartbeat CPU 5 instructions: 160000000 cycles: 208059887 heartbeat IPC: 0.713169 cumulative IPC: 0.769009 (Simulation time: 13 hr 49 min 59 sec) 
 Total Blocks : 196608 Invalid Blocks : 0 Valid Blocks : 196608
 Total Tags : 491520 Threshold : 12288 Invalid Tags : 196608 Pr0 Tags : 98304 Pr1 Tags : 196608 num_pr0 : 12288
 SAE Count : 0
 Inter-Core Inteference in Data Store : 2771820
Heartbeat CPU 0 instructions: 160000000 cycles: 208113459 heartbeat IPC: 0.713141 cumulative IPC: 0.768811 (Simulation time: 13 hr 50 min 11 sec) 
 Total Blocks : 196608 Invalid Blocks : 0 Valid Blocks : 196608
 Total Tags : 491520 Threshold : 12288 Invalid Tags : 196608 Pr0 Tags : 98304 Pr1 Tags : 196608 num_pr0 : 12288
 SAE Count : 0
 Inter-Core Inteference in Data Store : 2771821
Heartbeat CPU 1 instructions: 160000000 cycles: 208114466 heartbeat IPC: 0.713141 cumulative IPC: 0.768808 (Simulation time: 13 hr 50 min 11 sec) 
 Total Blocks : 196608 Invalid Blocks : 0 Valid Blocks : 196608
 Total Tags : 491520 Threshold : 12288 Invalid Tags : 196608 Pr0 Tags : 98304 Pr1 Tags : 196608 num_pr0 : 12288
 SAE Count : 0
 Inter-Core Inteference in Data Store : 2771821
Heartbeat CPU 2 instructions: 160000000 cycles: 208114608 heartbeat IPC: 0.713141 cumulative IPC: 0.768807 (Simulation time: 13 hr 50 min 11 sec) 
 Total Blocks : 196608 Invalid Blocks : 0 Valid Blocks : 196608
 Total Tags : 491520 Threshold : 12288 Invalid Tags : 196608 Pr0 Tags : 98304 Pr1 Tags : 196608 num_pr0 : 12288
 SAE Count : 0
 Inter-Core Inteference in Data Store : 2771821
Heartbeat CPU 7 instructions: 170000000 cycles: 211205161 heartbeat IPC: 3.15104 cumulative IPC: 0.804905 (Simulation time: 14 hr 5 min 5 sec) 
 Total Blocks : 196608 Invalid Blocks : 0 Valid Blocks : 196608
 Total Tags : 491520 Threshold : 12288 Invalid Tags : 196608 Pr0 Tags : 98304 Pr1 Tags : 196608 num_pr0 : 12288
 SAE Count : 0
 Inter-Core Inteference in Data Store : 2773308
Heartbeat CPU 6 instructions: 170000000 cycles: 211206989 heartbeat IPC: 3.15103 cumulative IPC: 0.804898 (Simulation time: 14 hr 5 min 6 sec) 
 Total Blocks : 196608 Invalid Blocks : 0 Valid Blocks : 196608
 Total Tags : 491520 Threshold : 12288 Invalid Tags : 196608 Pr0 Tags : 98304 Pr1 Tags : 196608 num_pr0 : 12288
 SAE Count : 0
 Inter-Core Inteference in Data Store : 2773314
Heartbeat CPU 4 instructions: 170000000 cycles: 211228525 heartbeat IPC: 3.15104 cumulative IPC: 0.804816 (Simulation time: 14 hr 5 min 13 sec) 
 Total Blocks : 196608 Invalid Blocks : 0 Valid Blocks : 196608
 Total Tags : 491520 Threshold : 12288 Invalid Tags : 196608 Pr0 Tags : 98304 Pr1 Tags : 196608 num_pr0 : 12288
 SAE Count : 0
 Inter-Core Inteference in Data Store : 2773351
Heartbeat CPU 3 instructions: 170000000 cycles: 211228617 heartbeat IPC: 3.15106 cumulative IPC: 0.804815 (Simulation time: 14 hr 5 min 13 sec) 
 Total Blocks : 196608 Invalid Blocks : 0 Valid Blocks : 196608
 Total Tags : 491520 Threshold : 12288 Invalid Tags : 196608 Pr0 Tags : 98304 Pr1 Tags : 196608 num_pr0 : 12288
 SAE Count : 0
 Inter-Core Inteference in Data Store : 2773351
Heartbeat CPU 5 instructions: 170000000 cycles: 211233411 heartbeat IPC: 3.15107 cumulative IPC: 0.804797 (Simulation time: 14 hr 5 min 15 sec) 
 Total Blocks : 196608 Invalid Blocks : 0 Valid Blocks : 196608
 Total Tags : 491520 Threshold : 12288 Invalid Tags : 196608 Pr0 Tags : 98304 Pr1 Tags : 196608 num_pr0 : 12288
 SAE Count : 0
 Inter-Core Inteference in Data Store : 2773360
Heartbeat CPU 0 instructions: 170000000 cycles: 211286929 heartbeat IPC: 3.15112 cumulative IPC: 0.804593 (Simulation time: 14 hr 5 min 33 sec) 
 Total Blocks : 196608 Invalid Blocks : 0 Valid Blocks : 196608
 Total Tags : 491520 Threshold : 12288 Invalid Tags : 196608 Pr0 Tags : 98304 Pr1 Tags : 196608 num_pr0 : 12288
 SAE Count : 0
 Inter-Core Inteference in Data Store : 2773455
Heartbeat CPU 1 instructions: 170000000 cycles: 211287946 heartbeat IPC: 3.15111 cumulative IPC: 0.804589 (Simulation time: 14 hr 5 min 33 sec) 
 Total Blocks : 196608 Invalid Blocks : 0 Valid Blocks : 196608
 Total Tags : 491520 Threshold : 12288 Invalid Tags : 196608 Pr0 Tags : 98304 Pr1 Tags : 196608 num_pr0 : 12288
 SAE Count : 0
 Inter-Core Inteference in Data Store : 2773458
Heartbeat CPU 2 instructions: 170000000 cycles: 211288100 heartbeat IPC: 3.1511 cumulative IPC: 0.804589 (Simulation time: 14 hr 5 min 33 sec) 
 Total Blocks : 196608 Invalid Blocks : 0 Valid Blocks : 196608
 Total Tags : 491520 Threshold : 12288 Invalid Tags : 196608 Pr0 Tags : 98304 Pr1 Tags : 196608 num_pr0 : 12288
 SAE Count : 0
 Inter-Core Inteference in Data Store : 2773458
FILL
Heartbeat CPU 7 instructions: 180000000 cycles: 220828712 heartbeat IPC: 1.03912 cumulative IPC: 0.815111 (Simulation time: 14 hr 22 min 11 sec) 
 Total Blocks : 196608 Invalid Blocks : 0 Valid Blocks : 196608
 Total Tags : 491520 Threshold : 12288 Invalid Tags : 196612 Pr0 Tags : 98300 Pr1 Tags : 196608 num_pr0 : 12287
 SAE Count : 0
 Inter-Core Inteference in Data Store : 2984636
Heartbeat CPU 6 instructions: 180000000 cycles: 220830520 heartbeat IPC: 1.03912 cumulative IPC: 0.815105 (Simulation time: 14 hr 22 min 11 sec) 
 Total Blocks : 196608 Invalid Blocks : 0 Valid Blocks : 196608
 Total Tags : 491520 Threshold : 12288 Invalid Tags : 196612 Pr0 Tags : 98300 Pr1 Tags : 196608 num_pr0 : 12287
 SAE Count : 0
 Inter-Core Inteference in Data Store : 2984701
Heartbeat CPU 4 instructions: 180000000 cycles: 220852090 heartbeat IPC: 1.03912 cumulative IPC: 0.815025 (Simulation time: 14 hr 22 min 12 sec) 
 Total Blocks : 196608 Invalid Blocks : 0 Valid Blocks : 196608
 Total Tags : 491520 Threshold : 12288 Invalid Tags : 196609 Pr0 Tags : 98303 Pr1 Tags : 196608 num_pr0 : 12288
 SAE Count : 0
 Inter-Core Inteference in Data Store : 2985268
Heartbeat CPU 3 instructions: 180000000 cycles: 220852152 heartbeat IPC: 1.03912 cumulative IPC: 0.815025 (Simulation time: 14 hr 22 min 12 sec) 
 Total Blocks : 196608 Invalid Blocks : 0 Valid Blocks : 196608
 Total Tags : 491520 Threshold : 12288 Invalid Tags : 196608 Pr0 Tags : 98304 Pr1 Tags : 196608 num_pr0 : 12288
 SAE Count : 0
 Inter-Core Inteference in Data Store : 2985268
Heartbeat CPU 5 instructions: 180000000 cycles: 220856951 heartbeat IPC: 1.03912 cumulative IPC: 0.815007 (Simulation time: 14 hr 22 min 12 sec) 
 Total Blocks : 196608 Invalid Blocks : 0 Valid Blocks : 196608
 Total Tags : 491520 Threshold : 12288 Invalid Tags : 196610 Pr0 Tags : 98302 Pr1 Tags : 196608 num_pr0 : 12288
 SAE Count : 0
 Inter-Core Inteference in Data Store : 2985411
Heartbeat CPU 0 instructions: 180000000 cycles: 220910453 heartbeat IPC: 1.03912 cumulative IPC: 0.81481 (Simulation time: 14 hr 22 min 14 sec) 
 Total Blocks : 196608 Invalid Blocks : 0 Valid Blocks : 196608
 Total Tags : 491520 Threshold : 12288 Invalid Tags : 196612 Pr0 Tags : 98300 Pr1 Tags : 196608 num_pr0 : 12288
 SAE Count : 0
 Inter-Core Inteference in Data Store : 2986926
Heartbeat CPU 1 instructions: 180000000 cycles: 220911435 heartbeat IPC: 1.03912 cumulative IPC: 0.814806 (Simulation time: 14 hr 22 min 14 sec) 
 Total Blocks : 196608 Invalid Blocks : 0 Valid Blocks : 196608
 Total Tags : 491520 Threshold : 12288 Invalid Tags : 196612 Pr0 Tags : 98300 Pr1 Tags : 196608 num_pr0 : 12287
 SAE Count : 0
 Inter-Core Inteference in Data Store : 2986952
Heartbeat CPU 2 instructions: 180000000 cycles: 220911613 heartbeat IPC: 1.03912 cumulative IPC: 0.814806 (Simulation time: 14 hr 22 min 14 sec) 
 Total Blocks : 196608 Invalid Blocks : 0 Valid Blocks : 196608
 Total Tags : 491520 Threshold : 12288 Invalid Tags : 196610 Pr0 Tags : 98302 Pr1 Tags : 196608 num_pr0 : 12288
 SAE Count : 0
 Inter-Core Inteference in Data Store : 2986955
FILL
Heartbeat CPU 7 instructions: 190000001 cycles: 235321051 heartbeat IPC: 0.69002 cumulative IPC: 0.807408 (Simulation time: 14 hr 36 min 58 sec) 
 Total Blocks : 196608 Invalid Blocks : 0 Valid Blocks : 196608
 Total Tags : 491520 Threshold : 12288 Invalid Tags : 196608 Pr0 Tags : 98304 Pr1 Tags : 196608 num_pr0 : 12288
 SAE Count : 0
 Inter-Core Inteference in Data Store : 3370576
Heartbeat CPU 6 instructions: 190000001 cycles: 235323358 heartbeat IPC: 0.689996 cumulative IPC: 0.8074 (Simulation time: 14 hr 36 min 58 sec) 
 Total Blocks : 196608 Invalid Blocks : 0 Valid Blocks : 196608
 Total Tags : 491520 Threshold : 12288 Invalid Tags : 196609 Pr0 Tags : 98303 Pr1 Tags : 196608 num_pr0 : 12288
 SAE Count : 0
 Inter-Core Inteference in Data Store : 3370611
Heartbeat CPU 3 instructions: 190000001 cycles: 235344327 heartbeat IPC: 0.690028 cumulative IPC: 0.807328 (Simulation time: 14 hr 37 min 0 sec) 
 Total Blocks : 196608 Invalid Blocks : 0 Valid Blocks : 196608
 Total Tags : 491520 Threshold : 12288 Invalid Tags : 196608 Pr0 Tags : 98304 Pr1 Tags : 196608 num_pr0 : 12288
 SAE Count : 0
 Inter-Core Inteference in Data Store : 3370768
Heartbeat CPU 4 instructions: 190000001 cycles: 235344473 heartbeat IPC: 0.690018 cumulative IPC: 0.807327 (Simulation time: 14 hr 37 min 0 sec) 
 Total Blocks : 196608 Invalid Blocks : 0 Valid Blocks : 196608
 Total Tags : 491520 Threshold : 12288 Invalid Tags : 196608 Pr0 Tags : 98304 Pr1 Tags : 196608 num_pr0 : 12288
 SAE Count : 0
 Inter-Core Inteference in Data Store : 3370768
Heartbeat CPU 5 instructions: 190000001 cycles: 235350105 heartbeat IPC: 0.689981 cumulative IPC: 0.807308 (Simulation time: 14 hr 37 min 0 sec) 
 Total Blocks : 196608 Invalid Blocks : 0 Valid Blocks : 196608
 Total Tags : 491520 Threshold : 12288 Invalid Tags : 196608 Pr0 Tags : 98304 Pr1 Tags : 196608 num_pr0 : 12288
 SAE Count : 0
 Inter-Core Inteference in Data Store : 3370866
Heartbeat CPU 0 instructions: 190000001 cycles: 235407239 heartbeat IPC: 0.689808 cumulative IPC: 0.807112 (Simulation time: 14 hr 37 min 4 sec) 
 Total Blocks : 196608 Invalid Blocks : 0 Valid Blocks : 196608
 Total Tags : 491520 Threshold : 12288 Invalid Tags : 196609 Pr0 Tags : 98303 Pr1 Tags : 196608 num_pr0 : 12288
 SAE Count : 0
 Inter-Core Inteference in Data Store : 3371475
Heartbeat CPU 1 instructions: 190000001 cycles: 235408263 heartbeat IPC: 0.689806 cumulative IPC: 0.807108 (Simulation time: 14 hr 37 min 4 sec) 
 Total Blocks : 196608 Invalid Blocks : 0 Valid Blocks : 196608
 Total Tags : 491520 Threshold : 12288 Invalid Tags : 196609 Pr0 Tags : 98303 Pr1 Tags : 196608 num_pr0 : 12287
 SAE Count : 0
 Inter-Core Inteference in Data Store : 3371484
Heartbeat CPU 2 instructions: 190000001 cycles: 235408575 heartbeat IPC: 0.6898 cumulative IPC: 0.807107 (Simulation time: 14 hr 37 min 4 sec) 
 Total Blocks : 196608 Invalid Blocks : 0 Valid Blocks : 196608
 Total Tags : 491520 Threshold : 12288 Invalid Tags : 196609 Pr0 Tags : 98303 Pr1 Tags : 196608 num_pr0 : 12288
 SAE Count : 0
 Inter-Core Inteference in Data Store : 3371490
Heartbeat CPU 7 instructions: 200000000 cycles: 250529631 heartbeat IPC: 0.657524 cumulative IPC: 0.798309 (Simulation time: 14 hr 53 min 50 sec) 
 Total Blocks : 196608 Invalid Blocks : 0 Valid Blocks : 196608
 Total Tags : 491520 Threshold : 12288 Invalid Tags : 196608 Pr0 Tags : 98304 Pr1 Tags : 196608 num_pr0 : 12288
 SAE Count : 0
 Inter-Core Inteference in Data Store : 3535031
Heartbeat CPU 6 instructions: 200000000 cycles: 250531913 heartbeat IPC: 0.657525 cumulative IPC: 0.798302 (Simulation time: 14 hr 53 min 50 sec) 
 Total Blocks : 196608 Invalid Blocks : 0 Valid Blocks : 196608
 Total Tags : 491520 Threshold : 12288 Invalid Tags : 196610 Pr0 Tags : 98302 Pr1 Tags : 196608 num_pr0 : 12287
 SAE Count : 0
 Inter-Core Inteference in Data Store : 3535050
Heartbeat CPU 4 instructions: 200000000 cycles: 250553058 heartbeat IPC: 0.657523 cumulative IPC: 0.798234 (Simulation time: 14 hr 53 min 52 sec) 
 Total Blocks : 196608 Invalid Blocks : 0 Valid Blocks : 196608
 Total Tags : 491520 Threshold : 12288 Invalid Tags : 196609 Pr0 Tags : 98303 Pr1 Tags : 196608 num_pr0 : 12288
 SAE Count : 0
 Inter-Core Inteference in Data Store : 3535235
Heartbeat CPU 3 instructions: 200000000 cycles: 250553106 heartbeat IPC: 0.657515 cumulative IPC: 0.798234 (Simulation time: 14 hr 53 min 52 sec) 
 Total Blocks : 196608 Invalid Blocks : 0 Valid Blocks : 196608
 Total Tags : 491520 Threshold : 12288 Invalid Tags : 196608 Pr0 Tags : 98304 Pr1 Tags : 196608 num_pr0 : 12288
 SAE Count : 0
 Inter-Core Inteference in Data Store : 3535235
Heartbeat CPU 5 instructions: 200000000 cycles: 250558415 heartbeat IPC: 0.657535 cumulative IPC: 0.798217 (Simulation time: 14 hr 53 min 53 sec) 
 Total Blocks : 196608 Invalid Blocks : 0 Valid Blocks : 196608
 Total Tags : 491520 Threshold : 12288 Invalid Tags : 196608 Pr0 Tags : 98304 Pr1 Tags : 196608 num_pr0 : 12288
 SAE Count : 0
 Inter-Core Inteference in Data Store : 3535300
Heartbeat CPU 0 instructions: 200000000 cycles: 250625029 heartbeat IPC: 0.657126 cumulative IPC: 0.798005 (Simulation time: 14 hr 53 min 57 sec) 
 Total Blocks : 196608 Invalid Blocks : 0 Valid Blocks : 196608
 Total Tags : 491520 Threshold : 12288 Invalid Tags : 196611 Pr0 Tags : 98301 Pr1 Tags : 196608 num_pr0 : 12288
 SAE Count : 0
 Inter-Core Inteference in Data Store : 3536028
Heartbeat CPU 1 instructions: 200000000 cycles: 250626091 heartbeat IPC: 0.657124 cumulative IPC: 0.798002 (Simulation time: 14 hr 53 min 57 sec) 
 Total Blocks : 196608 Invalid Blocks : 0 Valid Blocks : 196608
 Total Tags : 491520 Threshold : 12288 Invalid Tags : 196608 Pr0 Tags : 98304 Pr1 Tags : 196608 num_pr0 : 12288
 SAE Count : 0
 Inter-Core Inteference in Data Store : 3536039
Heartbeat CPU 2 instructions: 200000000 cycles: 250626399 heartbeat IPC: 0.657124 cumulative IPC: 0.798001 (Simulation time: 14 hr 53 min 57 sec) 
 Total Blocks : 196608 Invalid Blocks : 0 Valid Blocks : 196608
 Total Tags : 491520 Threshold : 12288 Invalid Tags : 196609 Pr0 Tags : 98303 Pr1 Tags : 196608 num_pr0 : 12288
 SAE Count : 0
 Inter-Core Inteference in Data Store : 3536044

Warmup complete CPU 0 instructions: 200000962 cycles: 250626400 (Simulation time: 14 hr 53 min 57 sec) 
Warmup complete CPU 1 instructions: 200000239 cycles: 250626400 (Simulation time: 14 hr 53 min 57 sec) 
Warmup complete CPU 2 instructions: 200000002 cycles: 250626400 (Simulation time: 14 hr 53 min 57 sec) 
Warmup complete CPU 3 instructions: 200048003 cycles: 250626399 (Simulation time: 14 hr 53 min 57 sec) 
Warmup complete CPU 4 instructions: 200048022 cycles: 250626399 (Simulation time: 14 hr 53 min 57 sec) 
Warmup complete CPU 5 instructions: 200044363 cycles: 250626399 (Simulation time: 14 hr 53 min 57 sec) 
Warmup complete CPU 6 instructions: 200062174 cycles: 250626399 (Simulation time: 14 hr 53 min 57 sec) 
Warmup complete CPU 7 instructions: 200063769 cycles: 250626399 (Simulation time: 14 hr 53 min 57 sec) 

Heartbeat CPU 3 instructions: 210000001 cycles: 301014857 heartbeat IPC: 0.19817 cumulative IPC: 0.197506 (Simulation time: 15 hr 25 min 10 sec) 
 Total Blocks : 196608 Invalid Blocks : 0 Valid Blocks : 196608
 Total Tags : 491520 Threshold : 12288 Invalid Tags : 196608 Pr0 Tags : 98304 Pr1 Tags : 196608 num_pr0 : 12288
 SAE Count : 0
 Inter-Core Inteference in Data Store : 169639
Heartbeat CPU 7 instructions: 210000001 cycles: 301019646 heartbeat IPC: 0.198059 cumulative IPC: 0.197174 (Simulation time: 15 hr 25 min 10 sec) 
 Total Blocks : 196608 Invalid Blocks : 0 Valid Blocks : 196608
 Total Tags : 491520 Threshold : 12288 Invalid Tags : 196608 Pr0 Tags : 98304 Pr1 Tags : 196608 num_pr0 : 12288
 SAE Count : 0
 Inter-Core Inteference in Data Store : 169650
Heartbeat CPU 6 instructions: 210000001 cycles: 301201744 heartbeat IPC: 0.197356 cumulative IPC: 0.196495 (Simulation time: 15 hr 25 min 17 sec) 
 Total Blocks : 196608 Invalid Blocks : 0 Valid Blocks : 196608
 Total Tags : 491520 Threshold : 12288 Invalid Tags : 196609 Pr0 Tags : 98303 Pr1 Tags : 196608 num_pr0 : 12288
 SAE Count : 0
 Inter-Core Inteference in Data Store : 170202
Heartbeat CPU 4 instructions: 210000001 cycles: 301335111 heartbeat IPC: 0.19692 cumulative IPC: 0.196258 (Simulation time: 15 hr 25 min 22 sec) 
 Total Blocks : 196608 Invalid Blocks : 0 Valid Blocks : 196608
 Total Tags : 491520 Threshold : 12288 Invalid Tags : 196610 Pr0 Tags : 98302 Pr1 Tags : 196608 num_pr0 : 12288
 SAE Count : 0
 Inter-Core Inteference in Data Store : 170682
Heartbeat CPU 5 instructions: 210000001 cycles: 301409425 heartbeat IPC: 0.196653 cumulative IPC: 0.196043 (Simulation time: 15 hr 25 min 25 sec) 
 Total Blocks : 196608 Invalid Blocks : 0 Valid Blocks : 196608
 Total Tags : 491520 Threshold : 12288 Invalid Tags : 196608 Pr0 Tags : 98304 Pr1 Tags : 196608 num_pr0 : 12288
 SAE Count : 0
 Inter-Core Inteference in Data Store : 170940
Heartbeat CPU 2 instructions: 210000001 cycles: 301637876 heartbeat IPC: 0.196034 cumulative IPC: 0.196034 (Simulation time: 15 hr 25 min 33 sec) 
 Total Blocks : 196608 Invalid Blocks : 0 Valid Blocks : 196608
 Total Tags : 491520 Threshold : 12288 Invalid Tags : 196609 Pr0 Tags : 98303 Pr1 Tags : 196608 num_pr0 : 12288
 SAE Count : 0
 Inter-Core Inteference in Data Store : 171773
Heartbeat CPU 1 instructions: 210000001 cycles: 301650461 heartbeat IPC: 0.195985 cumulative IPC: 0.195981 (Simulation time: 15 hr 25 min 33 sec) 
 Total Blocks : 196608 Invalid Blocks : 0 Valid Blocks : 196608
 Total Tags : 491520 Threshold : 12288 Invalid Tags : 196608 Pr0 Tags : 98304 Pr1 Tags : 196608 num_pr0 : 12288
 SAE Count : 0
 Inter-Core Inteference in Data Store : 171803
Heartbeat CPU 0 instructions: 210000001 cycles: 301784051 heartbeat IPC: 0.195469 cumulative IPC: 0.195455 (Simulation time: 15 hr 25 min 38 sec) 
 Total Blocks : 196608 Invalid Blocks : 0 Valid Blocks : 196608
 Total Tags : 491520 Threshold : 12288 Invalid Tags : 196609 Pr0 Tags : 98303 Pr1 Tags : 196608 num_pr0 : 12288
 SAE Count : 0
 Inter-Core Inteference in Data Store : 172268
Heartbeat CPU 7 instructions: 220000000 cycles: 357940982 heartbeat IPC: 0.175681 cumulative IPC: 0.185774 (Simulation time: 15 hr 57 min 22 sec) 
 Total Blocks : 196608 Invalid Blocks : 0 Valid Blocks : 196608
 Total Tags : 491520 Threshold : 12288 Invalid Tags : 196611 Pr0 Tags : 98301 Pr1 Tags : 196608 num_pr0 : 12287
 SAE Count : 0
 Inter-Core Inteference in Data Store : 456707
Heartbeat CPU 3 instructions: 220000000 cycles: 358081806 heartbeat IPC: 0.175233 cumulative IPC: 0.185677 (Simulation time: 15 hr 57 min 26 sec) 
 Total Blocks : 196608 Invalid Blocks : 0 Valid Blocks : 196608
 Total Tags : 491520 Threshold : 12288 Invalid Tags : 196609 Pr0 Tags : 98303 Pr1 Tags : 196608 num_pr0 : 12287
 SAE Count : 0
 Inter-Core Inteference in Data Store : 457544
Heartbeat CPU 6 instructions: 220000000 cycles: 358214405 heartbeat IPC: 0.1754 cumulative IPC: 0.185316 (Simulation time: 15 hr 57 min 31 sec) 
 Total Blocks : 196608 Invalid Blocks : 0 Valid Blocks : 196608
 Total Tags : 491520 Threshold : 12288 Invalid Tags : 196610 Pr0 Tags : 98302 Pr1 Tags : 196608 num_pr0 : 12287
 SAE Count : 0
 Inter-Core Inteference in Data Store : 458248
Heartbeat CPU 4 instructions: 220000000 cycles: 358245740 heartbeat IPC: 0.175714 cumulative IPC: 0.185394 (Simulation time: 15 hr 57 min 32 sec) 
 Total Blocks : 196608 Invalid Blocks : 0 Valid Blocks : 196608
 Total Tags : 491520 Threshold : 12288 Invalid Tags : 196608 Pr0 Tags : 98304 Pr1 Tags : 196608 num_pr0 : 12288
 SAE Count : 0
 Inter-Core Inteference in Data Store : 458414
Heartbeat CPU 5 instructions: 220000000 cycles: 358256763 heartbeat IPC: 0.17591 cumulative IPC: 0.185409 (Simulation time: 15 hr 57 min 32 sec) 
 Total Blocks : 196608 Invalid Blocks : 0 Valid Blocks : 196608
 Total Tags : 491520 Threshold : 12288 Invalid Tags : 196608 Pr0 Tags : 98304 Pr1 Tags : 196608 num_pr0 : 12288
 SAE Count : 0
 Inter-Core Inteference in Data Store : 458487
Heartbeat CPU 2 instructions: 220000000 cycles: 358710818 heartbeat IPC: 0.175214 cumulative IPC: 0.185041 (Simulation time: 15 hr 57 min 49 sec) 
 Total Blocks : 196608 Invalid Blocks : 0 Valid Blocks : 196608
 Total Tags : 491520 Threshold : 12288 Invalid Tags : 196612 Pr0 Tags : 98300 Pr1 Tags : 196608 num_pr0 : 12288
 SAE Count : 0
 Inter-Core Inteference in Data Store : 461030
Heartbeat CPU 1 instructions: 220000000 cycles: 358761494 heartbeat IPC: 0.175097 cumulative IPC: 0.184952 (Simulation time: 15 hr 57 min 50 sec) 
 Total Blocks : 196608 Invalid Blocks : 0 Valid Blocks : 196608
 Total Tags : 491520 Threshold : 12288 Invalid Tags : 196609 Pr0 Tags : 98303 Pr1 Tags : 196608 num_pr0 : 12287
 SAE Count : 0
 Inter-Core Inteference in Data Store : 461294
Heartbeat CPU 0 instructions: 220000000 cycles: 359078528 heartbeat IPC: 0.174537 cumulative IPC: 0.184404 (Simulation time: 15 hr 58 min 1 sec) 
 Total Blocks : 196608 Invalid Blocks : 0 Valid Blocks : 196608
 Total Tags : 491520 Threshold : 12288 Invalid Tags : 196611 Pr0 Tags : 98301 Pr1 Tags : 196608 num_pr0 : 12288
 SAE Count : 0
 Inter-Core Inteference in Data Store : 463202
Heartbeat CPU 7 instructions: 230000002 cycles: 407638809 heartbeat IPC: 0.201216 cumulative IPC: 0.190662 (Simulation time: 16 hr 24 min 27 sec) 
 Total Blocks : 196608 Invalid Blocks : 0 Valid Blocks : 196608
 Total Tags : 491520 Threshold : 12288 Invalid Tags : 196608 Pr0 Tags : 98304 Pr1 Tags : 196608 num_pr0 : 12288
 SAE Count : 0
 Inter-Core Inteference in Data Store : 671087
Heartbeat CPU 6 instructions: 230000002 cycles: 407843943 heartbeat IPC: 0.201493 cumulative IPC: 0.190423 (Simulation time: 16 hr 24 min 36 sec) 
 Total Blocks : 196608 Invalid Blocks : 0 Valid Blocks : 196608
 Total Tags : 491520 Threshold : 12288 Invalid Tags : 196608 Pr0 Tags : 98304 Pr1 Tags : 196608 num_pr0 : 12288
 SAE Count : 0
 Inter-Core Inteference in Data Store : 671129
Heartbeat CPU 3 instructions: 230000002 cycles: 407889144 heartbeat IPC: 0.200774 cumulative IPC: 0.190458 (Simulation time: 16 hr 24 min 37 sec) 
 Total Blocks : 196608 Invalid Blocks : 0 Valid Blocks : 196608
 Total Tags : 491520 Threshold : 12288 Invalid Tags : 196608 Pr0 Tags : 98304 Pr1 Tags : 196608 num_pr0 : 12288
 SAE Count : 0
 Inter-Core Inteference in Data Store : 671140
Heartbeat CPU 5 instructions: 230000002 cycles: 407925860 heartbeat IPC: 0.201332 cumulative IPC: 0.190437 (Simulation time: 16 hr 24 min 39 sec) 
 Total Blocks : 196608 Invalid Blocks : 0 Valid Blocks : 196608
 Total Tags : 491520 Threshold : 12288 Invalid Tags : 196608 Pr0 Tags : 98304 Pr1 Tags : 196608 num_pr0 : 12288
 SAE Count : 0
 Inter-Core Inteference in Data Store : 671149
Heartbeat CPU 4 instructions: 230000002 cycles: 407943857 heartbeat IPC: 0.201215 cumulative IPC: 0.190392 (Simulation time: 16 hr 24 min 40 sec) 
 Total Blocks : 196608 Invalid Blocks : 0 Valid Blocks : 196608
 Total Tags : 491520 Threshold : 12288 Invalid Tags : 196608 Pr0 Tags : 98304 Pr1 Tags : 196608 num_pr0 : 12288
 SAE Count : 0
 Inter-Core Inteference in Data Store : 671154
Heartbeat CPU 2 instructions: 230000002 cycles: 408599686 heartbeat IPC: 0.200446 cumulative IPC: 0.189906 (Simulation time: 16 hr 25 min 2 sec) 
 Total Blocks : 196608 Invalid Blocks : 0 Valid Blocks : 196608
 Total Tags : 491520 Threshold : 12288 Invalid Tags : 196608 Pr0 Tags : 98304 Pr1 Tags : 196608 num_pr0 : 12288
 SAE Count : 0
 Inter-Core Inteference in Data Store : 671289
Heartbeat CPU 1 instructions: 230000002 cycles: 408602478 heartbeat IPC: 0.200638 cumulative IPC: 0.189901 (Simulation time: 16 hr 25 min 3 sec) 
 Total Blocks : 196608 Invalid Blocks : 0 Valid Blocks : 196608
 Total Tags : 491520 Threshold : 12288 Invalid Tags : 196608 Pr0 Tags : 98304 Pr1 Tags : 196608 num_pr0 : 12288
 SAE Count : 0
 Inter-Core Inteference in Data Store : 671289
Heartbeat CPU 0 instructions: 230000002 cycles: 408936442 heartbeat IPC: 0.20057 cumulative IPC: 0.189495 (Simulation time: 16 hr 25 min 16 sec) 
 Total Blocks : 196608 Invalid Blocks : 0 Valid Blocks : 196608
 Total Tags : 491520 Threshold : 12288 Invalid Tags : 196608 Pr0 Tags : 98304 Pr1 Tags : 196608 num_pr0 : 12288
 SAE Count : 0
 Inter-Core Inteference in Data Store : 671332
FILL
Heartbeat CPU 7 instructions: 240000001 cycles: 428574600 heartbeat IPC: 0.477651 cumulative IPC: 0.224426 (Simulation time: 16 hr 44 min 20 sec) 
 Total Blocks : 196608 Invalid Blocks : 0 Valid Blocks : 196608
 Total Tags : 491520 Threshold : 12288 Invalid Tags : 196608 Pr0 Tags : 98304 Pr1 Tags : 196608 num_pr0 : 12288
 SAE Count : 0
 Inter-Core Inteference in Data Store : 674186
Heartbeat CPU 6 instructions: 240000001 cycles: 428760776 heartbeat IPC: 0.478084 cumulative IPC: 0.224201 (Simulation time: 16 hr 45 min 0 sec) 
 Total Blocks : 196608 Invalid Blocks : 0 Valid Blocks : 196608
 Total Tags : 491520 Threshold : 12288 Invalid Tags : 196608 Pr0 Tags : 98304 Pr1 Tags : 196608 num_pr0 : 12288
 SAE Count : 0
 Inter-Core Inteference in Data Store : 674187
Heartbeat CPU 3 instructions: 240000001 cycles: 428795596 heartbeat IPC: 0.478321 cumulative IPC: 0.224236 (Simulation time: 16 hr 45 min 8 sec) 
 Total Blocks : 196608 Invalid Blocks : 0 Valid Blocks : 196608
 Total Tags : 491520 Threshold : 12288 Invalid Tags : 196608 Pr0 Tags : 98304 Pr1 Tags : 196608 num_pr0 : 12288
 SAE Count : 0
 Inter-Core Inteference in Data Store : 674187
Heartbeat CPU 5 instructions: 240000001 cycles: 428827785 heartbeat IPC: 0.478425 cumulative IPC: 0.224216 (Simulation time: 16 hr 45 min 16 sec) 
 Total Blocks : 196608 Invalid Blocks : 0 Valid Blocks : 196608
 Total Tags : 491520 Threshold : 12288 Invalid Tags : 196608 Pr0 Tags : 98304 Pr1 Tags : 196608 num_pr0 : 12288
 SAE Count : 0
 Inter-Core Inteference in Data Store : 674187
Heartbeat CPU 4 instructions: 240000001 cycles: 428848815 heartbeat IPC: 0.478355 cumulative IPC: 0.224169 (Simulation time: 16 hr 45 min 20 sec) 
 Total Blocks : 196608 Invalid Blocks : 0 Valid Blocks : 196608
 Total Tags : 491520 Threshold : 12288 Invalid Tags : 196609 Pr0 Tags : 98303 Pr1 Tags : 196608 num_pr0 : 12288
 SAE Count : 0
 Inter-Core Inteference in Data Store : 674188
Heartbeat CPU 1 instructions: 240000001 cycles: 429537686 heartbeat IPC: 0.477664 cumulative IPC: 0.223573 (Simulation time: 16 hr 47 min 58 sec) 
 Total Blocks : 196608 Invalid Blocks : 0 Valid Blocks : 196608
 Total Tags : 491520 Threshold : 12288 Invalid Tags : 196609 Pr0 Tags : 98303 Pr1 Tags : 196608 num_pr0 : 12288
 SAE Count : 0
 Inter-Core Inteference in Data Store : 674199
Heartbeat CPU 2 instructions: 240000001 cycles: 429543778 heartbeat IPC: 0.477462 cumulative IPC: 0.223567 (Simulation time: 16 hr 48 min 0 sec) 
 Total Blocks : 196608 Invalid Blocks : 0 Valid Blocks : 196608
 Total Tags : 491520 Threshold : 12288 Invalid Tags : 196610 Pr0 Tags : 98302 Pr1 Tags : 196608 num_pr0 : 12287
 SAE Count : 0
 Inter-Core Inteference in Data Store : 674200
Heartbeat CPU 0 instructions: 240000001 cycles: 429893413 heartbeat IPC: 0.477168 cumulative IPC: 0.223125 (Simulation time: 16 hr 49 min 21 sec) 
 Total Blocks : 196608 Invalid Blocks : 0 Valid Blocks : 196608
 Total Tags : 491520 Threshold : 12288 Invalid Tags : 196609 Pr0 Tags : 98303 Pr1 Tags : 196608 num_pr0 : 12288
 SAE Count : 0
 Inter-Core Inteference in Data Store : 674212
Heartbeat CPU 7 instructions: 250000000 cycles: 436036721 heartbeat IPC: 1.3401 cumulative IPC: 0.269328 (Simulation time: 17 hr 10 min 35 sec) 
 Total Blocks : 196608 Invalid Blocks : 0 Valid Blocks : 196608
 Total Tags : 491520 Threshold : 12288 Invalid Tags : 196608 Pr0 Tags : 98304 Pr1 Tags : 196608 num_pr0 : 12288
 SAE Count : 0
 Inter-Core Inteference in Data Store : 676679
Heartbeat CPU 6 instructions: 250000000 cycles: 436236611 heartbeat IPC: 1.33764 cumulative IPC: 0.269047 (Simulation time: 17 hr 11 min 12 sec) 
 Total Blocks : 196608 Invalid Blocks : 0 Valid Blocks : 196608
 Total Tags : 491520 Threshold : 12288 Invalid Tags : 196608 Pr0 Tags : 98304 Pr1 Tags : 196608 num_pr0 : 12288
 SAE Count : 0
 Inter-Core Inteference in Data Store : 676734
Heartbeat CPU 3 instructions: 250000000 cycles: 436261705 heartbeat IPC: 1.33939 cumulative IPC: 0.269087 (Simulation time: 17 hr 11 min 15 sec) 
 Total Blocks : 196608 Invalid Blocks : 0 Valid Blocks : 196608
 Total Tags : 491520 Threshold : 12288 Invalid Tags : 196608 Pr0 Tags : 98304 Pr1 Tags : 196608 num_pr0 : 12288
 SAE Count : 0
 Inter-Core Inteference in Data Store : 676737
Heartbeat CPU 5 instructions: 250000000 cycles: 436294936 heartbeat IPC: 1.3392 cumulative IPC: 0.269058 (Simulation time: 17 hr 11 min 20 sec) 
 Total Blocks : 196608 Invalid Blocks : 0 Valid Blocks : 196608
 Total Tags : 491520 Threshold : 12288 Invalid Tags : 196608 Pr0 Tags : 98304 Pr1 Tags : 196608 num_pr0 : 12288
 SAE Count : 0
 Inter-Core Inteference in Data Store : 676742
Heartbeat CPU 4 instructions: 250000000 cycles: 436321677 heartbeat IPC: 1.33818 cumulative IPC: 0.269 (Simulation time: 17 hr 11 min 25 sec) 
 Total Blocks : 196608 Invalid Blocks : 0 Valid Blocks : 196608
 Total Tags : 491520 Threshold : 12288 Invalid Tags : 196608 Pr0 Tags : 98304 Pr1 Tags : 196608 num_pr0 : 12288
 SAE Count : 0
 Inter-Core Inteference in Data Store : 676748
FILL
Heartbeat CPU 1 instructions: 250000000 cycles: 436993612 heartbeat IPC: 1.34121 cumulative IPC: 0.268286 (Simulation time: 17 hr 13 min 27 sec) 
 Total Blocks : 196608 Invalid Blocks : 0 Valid Blocks : 196608
[...]
LLC4 LOAD      ACCESS: 253231  HIT: 125207  MISS: 128024  HIT %: 49.4438  MISS %: 50.5562  AVERAGE MISS PENALTY: 560.752
LLC4 RFO       ACCESS: 32046  HIT:  3671  MISS: 28375  HIT %: 11.4554  MISS %: 88.5446  AVERAGE MISS PENALTY: 454.926
LLC4 PREFETCH  ACCESS: 1335541  HIT: 594890  MISS: 740651  HIT %: 44.543  MISS %: 55.457  AVERAGE MISS PENALTY: 505.38
LLC4 WRITEBACK ACCESS: 132813  HIT: 46625  MISS: 86188  HIT %: 35.1058  MISS %: 64.8942  AVERAGE MISS PENALTY: 0
LLC4 PREFETCH  REQUESTED:     0  ISSUED:     0  USEFUL: 131685  USELESS: 397252
 USEFUL LOAD PREFETCHES:     131685 PREFETCH ISSUED TO LOWER LEVEL:   60747767  ACCURACY: 0.216773
 TIMELY PREFETCHES:     131685 LATE PREFETCHES: 0 DROPPED PREFETCHES: 0
LLC4 AVERAGE MISS LATENCY: 466.833 cycles

LLC4 Set Associative Eviction Count : 0
LLC4 Priority 0 entries : 12288
LLC4 Inter-Core Interference : 1183100
LLC5 TOTAL     ACCESS: 1740432  HIT: 761076  MISS: 979356  HIT %: 43.7291  MISS %: 56.2709  AVERAGE MISS PENALTY: 457.802
LLC5 LOAD      ACCESS: 248539  HIT: 122574  MISS: 125965  HIT %: 49.3178  MISS %: 50.6822  AVERAGE MISS PENALTY: 548.745
LLC5 RFO       ACCESS: 32028  HIT:  3667  MISS: 28361  HIT %: 11.4494  MISS %: 88.5506  AVERAGE MISS PENALTY: 441.088
LLC5 PREFETCH  ACCESS: 1327019  HIT: 588168  MISS: 738851  HIT %: 44.3225  MISS %: 55.6775  AVERAGE MISS PENALTY: 496.337
LLC5 WRITEBACK ACCESS: 132846  HIT: 46667  MISS: 86179  HIT %: 35.1286  MISS %: 64.8714  AVERAGE MISS PENALTY: 0
LLC5 PREFETCH  REQUESTED:     0  ISSUED:     0  USEFUL: 130748  USELESS: 398606
 USEFUL LOAD PREFETCHES:     130748 PREFETCH ISSUED TO LOWER LEVEL:   55255904  ACCURACY: 0.236623
 TIMELY PREFETCHES:     130748 LATE PREFETCHES: 0 DROPPED PREFETCHES: 0
LLC5 AVERAGE MISS LATENCY: 457.802 cycles

LLC5 Set Associative Eviction Count : 0
LLC5 Priority 0 entries : 12288
LLC5 Inter-Core Interference : 1181253
LLC6 TOTAL     ACCESS: 1725840  HIT: 750793  MISS: 975047  HIT %: 43.503  MISS %: 56.497  AVERAGE MISS PENALTY: 466.402
LLC6 LOAD      ACCESS: 247969  HIT: 122727  MISS: 125242  HIT %: 49.4929  MISS %: 50.5071  AVERAGE MISS PENALTY: 558.119
LLC6 RFO       ACCESS: 32042  HIT:  3672  MISS: 28370  HIT %: 11.46  MISS %: 88.54  AVERAGE MISS PENALTY: 453.473
LLC6 PREFETCH  ACCESS: 1313328  HIT: 577690  MISS: 735638  HIT %: 43.9867  MISS %: 56.0133  AVERAGE MISS PENALTY: 505.682
LLC6 WRITEBACK ACCESS: 132501  HIT: 46704  MISS: 85797  HIT %: 35.248  MISS %: 64.752  AVERAGE MISS PENALTY: 0
LLC6 PREFETCH  REQUESTED:     0  ISSUED:     0  USEFUL: 129851  USELESS: 396194
 USEFUL LOAD PREFETCHES:     129851 PREFETCH ISSUED TO LOWER LEVEL:   76175886  ACCURACY: 0.170462
 TIMELY PREFETCHES:     129851 LATE PREFETCHES: 0 DROPPED PREFETCHES: 0
LLC6 AVERAGE MISS LATENCY: 466.402 cycles

LLC6 Set Associative Eviction Count : 0
LLC6 Priority 0 entries : 12288
LLC6 Inter-Core Interference : 1177216
LLC7 TOTAL     ACCESS: 1711365  HIT: 741686  MISS: 969679  HIT %: 43.3389  MISS %: 56.6611  AVERAGE MISS PENALTY: 456.844
LLC7 LOAD      ACCESS: 249031  HIT: 123318  MISS: 125713  HIT %: 49.5191  MISS %: 50.4809  AVERAGE MISS PENALTY: 545.695
LLC7 RFO       ACCESS: 32072  HIT:  3673  MISS: 28399  HIT %: 11.4524  MISS %: 88.5476  AVERAGE MISS PENALTY: 440.332
LLC7 PREFETCH  ACCESS: 1297379  HIT: 568052  MISS: 729327  HIT %: 43.7846  MISS %: 56.2154  AVERAGE MISS PENALTY: 496.192
LLC7 WRITEBACK ACCESS: 132883  HIT: 46643  MISS: 86240  HIT %: 35.1008  MISS %: 64.8992  AVERAGE MISS PENALTY: 0
LLC7 PREFETCH  REQUESTED:     0  ISSUED:     0  USEFUL: 127684  USELESS: 391713
 USEFUL LOAD PREFETCHES:     127684 PREFETCH ISSUED TO LOWER LEVEL:   69070260  ACCURACY: 0.184861
 TIMELY PREFETCHES:     127684 LATE PREFETCHES: 0 DROPPED PREFETCHES: 0
LLC7 AVERAGE MISS LATENCY: 456.844 cycles

LLC7 Set Associative Eviction Count : 0
LLC7 Priority 0 entries : 12287
LLC7 Inter-Core Interference : 1174210
ROI Average ROB Stall Cycles:	10.726
ROI Total ROB Stalls Cycles:	738071840
ROI TOTAL ROB counter      :	68811334
ROI Average Load ROB Stall Cycles:	43.8808
ROI Total Load ROB Stalls Cycle  :	344539669
ROI Total Load ROB stalls Counter:	7851716
Major fault: 0 Minor fault: 28232

CPU 7 cumulative IPC: 0.225509 instructions: 200000000 cycles: 886883064
ITLB TOTAL     ACCESS: 30331792  HIT: 30331792  MISS:     0  HIT %:   100  MISS %:     0  AVERAGE MISS PENALTY: 0
ITLB LOAD      ACCESS: 30331792  HIT: 30331792  MISS:     0  HIT %:   100  MISS %:     0  AVERAGE MISS PENALTY: 0
ITLB RFO       ACCESS:     0  HIT:     0  MISS:     0  HIT %:     0  MISS %:     0  AVERAGE MISS PENALTY: 0
ITLB PREFETCH  ACCESS:     0  HIT:     0  MISS:     0  HIT %:     0  MISS %:     0  AVERAGE MISS PENALTY: 0
ITLB WRITEBACK ACCESS:     0  HIT:     0  MISS:     0  HIT %:     0  MISS %:     0  AVERAGE MISS PENALTY: 0
ITLB PREFETCH  REQUESTED:     0  ISSUED:     0  USEFUL:     0  USELESS:     0
 USEFUL LOAD PREFETCHES:          0 PREFETCH ISSUED TO LOWER LEVEL:          0  ACCURACY: -nan
 TIMELY PREFETCHES:          0 LATE PREFETCHES: 0 DROPPED PREFETCHES: 0
ITLB AVERAGE MISS LATENCY: -nan cycles

ITLB Set Associative Eviction Count : 0
ITLB Priority 0 entries : 0
ITLB Inter-Core Interference : 0
DTLB TOTAL     ACCESS: 38883910  HIT: 38408454  MISS: 475456  HIT %: 98.7772  MISS %: 1.22276  AVERAGE MISS PENALTY: 46.2138
DTLB LOAD      ACCESS: 31891799  HIT: 31431172  MISS: 460627  HIT %: 98.5557  MISS %: 1.44434  AVERAGE MISS PENALTY: 46.5699
DTLB RFO       ACCESS: 6992111  HIT: 6977282  MISS: 14829  HIT %: 99.7879  MISS %: 0.212082  AVERAGE MISS PENALTY: 35.1531
DTLB PREFETCH  ACCESS:     0  HIT:     0  MISS:     0  HIT %:     0  MISS %:     0  AVERAGE MISS PENALTY: 0
DTLB WRITEBACK ACCESS:     0  HIT:     0  MISS:     0  HIT %:     0  MISS %:     0  AVERAGE MISS PENALTY: 0
DTLB PREFETCH  REQUESTED:     0  ISSUED:     0  USEFUL:     0  USELESS:     0
 USEFUL LOAD PREFETCHES:          0 PREFETCH ISSUED TO LOWER LEVEL:          0  ACCURACY: -nan
 TIMELY PREFETCHES:          0 LATE PREFETCHES: 0 DROPPED PREFETCHES: 0
DTLB AVERAGE MISS LATENCY: 46.2138 cycles

DTLB Set Associative Eviction Count : 0
DTLB Priority 0 entries : 0
DTLB Inter-Core Interference : 0
STLB TOTAL     ACCESS: 475456  HIT: 308563  MISS: 166893  HIT %: 64.8983  MISS %: 35.1017  AVERAGE MISS PENALTY: 100
STLB LOAD      ACCESS: 460627  HIT: 297499  MISS: 163128  HIT %: 64.5857  MISS %: 35.4143  AVERAGE MISS PENALTY: 100
STLB RFO       ACCESS: 14829  HIT: 11064  MISS:  3765  HIT %: 74.6106  MISS %: 25.3894  AVERAGE MISS PENALTY: 100
STLB PREFETCH  ACCESS:     0  HIT:     0  MISS:     0  HIT %:     0  MISS %:     0  AVERAGE MISS PENALTY: 0
STLB WRITEBACK ACCESS:     0  HIT:     0  MISS:     0  HIT %:     0  MISS %:     0  AVERAGE MISS PENALTY: 0
STLB PREFETCH  REQUESTED:     0  ISSUED:     0  USEFUL:     0  USELESS:     0
 USEFUL LOAD PREFETCHES:          0 PREFETCH ISSUED TO LOWER LEVEL:          0  ACCURACY: -nan
 TIMELY PREFETCHES:          0 LATE PREFETCHES: 0 DROPPED PREFETCHES: 0
STLB AVERAGE MISS LATENCY: 100 cycles

STLB Set Associative Eviction Count : 0
STLB Priority 0 entries : 0
STLB Inter-Core Interference : 0
L1D TOTAL     ACCESS: 52580927  HIT: 40720742  MISS: 11860185  HIT %: 77.4439  MISS %: 22.5561  AVERAGE MISS PENALTY: 1.54283e+07
L1D LOAD      ACCESS: 30715928  HIT: 27887552  MISS: 2828376  HIT %: 90.7918  MISS %: 9.20817  AVERAGE MISS PENALTY: 6.4693e+07
L1D RFO       ACCESS: 5313375  HIT: 5038624  MISS: 274751  HIT %: 94.8291  MISS %: 5.17093  AVERAGE MISS PENALTY: 17387.2
L1D PREFETCH  ACCESS: 16551624  HIT: 7794566  MISS: 8757058  HIT %: 47.0925  MISS %: 52.9075  AVERAGE MISS PENALTY: 203.025
L1D WRITEBACK ACCESS:     0  HIT:     0  MISS:     0  HIT %:     0  MISS %:     0  AVERAGE MISS PENALTY: 0
L1D PREFETCH  REQUESTED: 20729300  ISSUED: 19133997  USEFUL: 2719179  USELESS: 6037807
 USEFUL LOAD PREFETCHES:    2719179 PREFETCH ISSUED TO LOWER LEVEL:   47325353  ACCURACY: 5.74571
 TIMELY PREFETCHES:    2719179 LATE PREFETCHES: 481105 DROPPED PREFETCHES: 1595303
L1D AVERAGE MISS LATENCY: 617.333 cycles

L1D Set Associative Eviction Count : 0
L1D Priority 0 entries : 0
L1D Inter-Core Interference : 0
L1I TOTAL     ACCESS: 46756528  HIT: 46756526  MISS:     2  HIT %:   100  MISS %: 4.27748e-06  AVERAGE MISS PENALTY: 119
L1I LOAD      ACCESS: 46756528  HIT: 46756526  MISS:     2  HIT %:   100  MISS %: 4.27748e-06  AVERAGE MISS PENALTY: 119
L1I RFO       ACCESS:     0  HIT:     0  MISS:     0  HIT %:     0  MISS %:     0  AVERAGE MISS PENALTY: 0
L1I PREFETCH  ACCESS:     0  HIT:     0  MISS:     0  HIT %:     0  MISS %:     0  AVERAGE MISS PENALTY: 0
L1I WRITEBACK ACCESS:     0  HIT:     0  MISS:     0  HIT %:     0  MISS %:     0  AVERAGE MISS PENALTY: 0
L1I PREFETCH  REQUESTED:     0  ISSUED:     0  USEFUL:     0  USELESS:     0
 USEFUL LOAD PREFETCHES:          0 PREFETCH ISSUED TO LOWER LEVEL:          0  ACCURACY: -nan
 TIMELY PREFETCHES:          0 LATE PREFETCHES: 0 DROPPED PREFETCHES: 0
L1I AVERAGE MISS LATENCY: 119 cycles

L1I Set Associative Eviction Count : 0
L1I Priority 0 entries : 0
L1I Inter-Core Interference : 2
L2C TOTAL     ACCESS: 20651087  HIT: 7499209  MISS: 13151878  HIT %: 36.3139  MISS %: 63.6861  AVERAGE MISS PENALTY: 1.3115e+07
L2C LOAD      ACCESS: 2812131  HIT: 576624  MISS: 2235507  HIT %: 20.5049  MISS %: 79.4951  AVERAGE MISS PENALTY: 7.71566e+07
L2C RFO       ACCESS: 274745  HIT: 23656  MISS: 251089  HIT %: 8.61017  MISS %: 91.3898  AVERAGE MISS PENALTY: 426.515
L2C PREFETCH  ACCESS: 16470205  HIT: 6029784  MISS: 10440421  HIT %: 36.6103  MISS %: 63.3897  AVERAGE MISS PENALTY: 318.697
L2C WRITEBACK ACCESS: 1094006  HIT: 869145  MISS: 224861  HIT %: 79.4461  MISS %: 20.5539  AVERAGE MISS PENALTY: 0
L2C PREFETCH  REQUESTED: 20043230  ISSUED: 19950566  USEFUL: 421229  USELESS: 10020406
 USEFUL LOAD PREFETCHES:     421229 PREFETCH ISSUED TO LOWER LEVEL:   14132084  ACCURACY: 2.98066
 TIMELY PREFETCHES:     421229 LATE PREFETCHES: 534948 DROPPED PREFETCHES: 92664
L2C AVERAGE MISS LATENCY: 316.166 cycles

L2C Set Associative Eviction Count : 0
L2C Priority 0 entries : 0
L2C Inter-Core Interference : 0
LLC0 TOTAL     ACCESS: 1758418  HIT: 787525  MISS: 970893  HIT %: 44.786  MISS %: 55.214  AVERAGE MISS PENALTY: 483.641
LLC0 LOAD      ACCESS: 293514  HIT: 128038  MISS: 165476  HIT %: 43.6225  MISS %: 56.3775  AVERAGE MISS PENALTY: 515.362
LLC0 RFO       ACCESS: 31402  HIT:  3484  MISS: 27918  HIT %: 11.0948  MISS %: 88.9052  AVERAGE MISS PENALTY: 437.082
LLC0 PREFETCH  ACCESS: 1301370  HIT: 609804  MISS: 691566  HIT %: 46.8586  MISS %: 53.1414  AVERAGE MISS PENALTY: 538.027
LLC0 WRITEBACK ACCESS: 132132  HIT: 46199  MISS: 85933  HIT %: 34.9643  MISS %: 65.0357  AVERAGE MISS PENALTY: 0
LLC0 PREFETCH  REQUESTED:     0  ISSUED:     0  USEFUL: 134856  USELESS: 398737
 USEFUL LOAD PREFETCHES:     134856 PREFETCH ISSUED TO LOWER LEVEL:   37948105  ACCURACY: 0.35537
 TIMELY PREFETCHES:     134856 LATE PREFETCHES: 0 DROPPED PREFETCHES: 0
LLC0 AVERAGE MISS LATENCY: 483.641 cycles

LLC0 Set Associative Eviction Count : 0
LLC0 Priority 0 entries : 12288
LLC0 Inter-Core Interference : 1190187
LLC1 TOTAL     ACCESS: 1778082  HIT: 794585  MISS: 983497  HIT %: 44.6878  MISS %: 55.3122  AVERAGE MISS PENALTY: 483.405
LLC1 LOAD      ACCESS: 254677  HIT: 124724  MISS: 129953  HIT %: 48.9734  MISS %: 51.0266  AVERAGE MISS PENALTY: 569.269
LLC1 RFO       ACCESS: 31382  HIT:  3487  MISS: 27895  HIT %: 11.1115  MISS %: 88.8885  AVERAGE MISS PENALTY: 437.922
LLC1 PREFETCH  ACCESS: 1360291  HIT: 620410  MISS: 739881  HIT %: 45.6086  MISS %: 54.3914  AVERAGE MISS PENALTY: 526.075
LLC1 WRITEBACK ACCESS: 131732  HIT: 45964  MISS: 85768  HIT %: 34.8921  MISS %: 65.1079  AVERAGE MISS PENALTY: 0
LLC1 PREFETCH  REQUESTED:     0  ISSUED:     0  USEFUL: 134901  USELESS: 408524
 USEFUL LOAD PREFETCHES:     134901 PREFETCH ISSUED TO LOWER LEVEL:   35912813  ACCURACY: 0.375635
 TIMELY PREFETCHES:     134901 LATE PREFETCHES: 0 DROPPED PREFETCHES: 0
LLC1 AVERAGE MISS LATENCY: 483.405 cycles

LLC1 Set Associative Eviction Count : 0
LLC1 Priority 0 entries : 12287
LLC1 Inter-Core Interference : 1191026
LLC2 TOTAL     ACCESS: 1777755  HIT: 788855  MISS: 988900  HIT %: 44.3737  MISS %: 55.6263  AVERAGE MISS PENALTY: 486.151
LLC2 LOAD      ACCESS: 247114  HIT: 120298  MISS: 126816  HIT %: 48.6812  MISS %: 51.3188  AVERAGE MISS PENALTY: 575.89
LLC2 RFO       ACCESS: 31367  HIT:  3459  MISS: 27908  HIT %: 11.0275  MISS %: 88.9725  AVERAGE MISS PENALTY: 436.651
LLC2 PREFETCH  ACCESS: 1367074  HIT: 618534  MISS: 748540  HIT %: 45.2451  MISS %: 54.7549  AVERAGE MISS PENALTY: 528.41
LLC2 WRITEBACK ACCESS: 132200  HIT: 46564  MISS: 85636  HIT %: 35.2224  MISS %: 64.7776  AVERAGE MISS PENALTY: 0
LLC2 PREFETCH  REQUESTED:     0  ISSUED:     0  USEFUL: 133848  USELESS: 409852
 USEFUL LOAD PREFETCHES:     133848 PREFETCH ISSUED TO LOWER LEVEL:   48363454  ACCURACY: 0.276754
 TIMELY PREFETCHES:     133848 LATE PREFETCHES: 0 DROPPED PREFETCHES: 0
LLC2 AVERAGE MISS LATENCY: 486.151 cycles

LLC2 Set Associative Eviction Count : 0
LLC2 Priority 0 entries : 12287
LLC2 Inter-Core Interference : 1194053
LLC3 TOTAL     ACCESS: 1758726  HIT: 776407  MISS: 982319  HIT %: 44.146  MISS %: 55.854  AVERAGE MISS PENALTY: 481.875
LLC3 LOAD      ACCESS: 247895  HIT: 121906  MISS: 125989  HIT %: 49.1765  MISS %: 50.8235  AVERAGE MISS PENALTY: 571.804
LLC3 RFO       ACCESS: 31372  HIT:  3591  MISS: 27781  HIT %: 11.4465  MISS %: 88.5535  AVERAGE MISS PENALTY: 438.086
LLC3 PREFETCH  ACCESS: 1346987  HIT: 604537  MISS: 742450  HIT %: 44.8807  MISS %: 55.1193  AVERAGE MISS PENALTY: 524.134
LLC3 WRITEBACK ACCESS: 132472  HIT: 46373  MISS: 86099  HIT %: 35.0059  MISS %: 64.9941  AVERAGE MISS PENALTY: 0
LLC3 PREFETCH  REQUESTED:     0  ISSUED:     0  USEFUL: 132907  USELESS: 404247
 USEFUL LOAD PREFETCHES:     132907 PREFETCH ISSUED TO LOWER LEVEL:   44227587  ACCURACY: 0.300507
 TIMELY PREFETCHES:     132907 LATE PREFETCHES: 0 DROPPED PREFETCHES: 0
LLC3 AVERAGE MISS LATENCY: 481.875 cycles

LLC3 Set Associative Eviction Count : 0
LLC3 Priority 0 entries : 12288
LLC3 Inter-Core Interference : 1188161
LLC4 TOTAL     ACCESS: 1747988  HIT: 766498  MISS: 981490  HIT %: 43.8503  MISS %: 56.1497  AVERAGE MISS PENALTY: 466.383
LLC4 LOAD      ACCESS: 252603  HIT: 125169  MISS: 127434  HIT %: 49.5517  MISS %: 50.4483  AVERAGE MISS PENALTY: 555.339
LLC4 RFO       ACCESS: 31394  HIT:  3479  MISS: 27915  HIT %: 11.0817  MISS %: 88.9183  AVERAGE MISS PENALTY: 438.741
LLC4 PREFETCH  ACCESS: 1331854  HIT: 591762  MISS: 740092  HIT %: 44.4314  MISS %: 55.5686  AVERAGE MISS PENALTY: 506.334
LLC4 WRITEBACK ACCESS: 132137  HIT: 46088  MISS: 86049  HIT %: 34.879  MISS %: 65.121  AVERAGE MISS PENALTY: 0
LLC4 PREFETCH  REQUESTED:     0  ISSUED:     0  USEFUL: 131685  USELESS: 397252
 USEFUL LOAD PREFETCHES:     131685 PREFETCH ISSUED TO LOWER LEVEL:   60747767  ACCURACY: 0.216773
 TIMELY PREFETCHES:     131685 LATE PREFETCHES: 0 DROPPED PREFETCHES: 0
LLC4 AVERAGE MISS LATENCY: 466.383 cycles

LLC4 Set Associative Eviction Count : 0
LLC4 Priority 0 entries : 12288
LLC4 Inter-Core Interference : 1183100
LLC5 TOTAL     ACCESS: 1735138  HIT: 758903  MISS: 976235  HIT %: 43.7373  MISS %: 56.2627  AVERAGE MISS PENALTY: 456.852
LLC5 LOAD      ACCESS: 247778  HIT: 122059  MISS: 125719  HIT %: 49.2614  MISS %: 50.7386  AVERAGE MISS PENALTY: 544.406
LLC5 RFO       ACCESS: 31375  HIT:  3454  MISS: 27921  HIT %: 11.0088  MISS %: 88.9912  AVERAGE MISS PENALTY: 430.094
LLC5 PREFETCH  ACCESS: 1323790  HIT: 587051  MISS: 736739  HIT %: 44.3462  MISS %: 55.6538  AVERAGE MISS PENALTY: 496.165
LLC5 WRITEBACK ACCESS: 132195  HIT: 46339  MISS: 85856  HIT %: 35.0535  MISS %: 64.9465  AVERAGE MISS PENALTY: 0
LLC5 PREFETCH  REQUESTED:     0  ISSUED:     0  USEFUL: 130748  USELESS: 398606
 USEFUL LOAD PREFETCHES:     130748 PREFETCH ISSUED TO LOWER LEVEL:   55255904  ACCURACY: 0.236623
 TIMELY PREFETCHES:     130748 LATE PREFETCHES: 0 DROPPED PREFETCHES: 0
LLC5 AVERAGE MISS LATENCY: 456.852 cycles

LLC5 Set Associative Eviction Count : 0
LLC5 Priority 0 entries : 12288
LLC5 Inter-Core Interference : 1181253
LLC6 TOTAL     ACCESS: 1721050  HIT: 748518  MISS: 972532  HIT %: 43.4919  MISS %: 56.5081  AVERAGE MISS PENALTY: 464.814
LLC6 LOAD      ACCESS: 247145  HIT: 122426  MISS: 124719  HIT %: 49.5361  MISS %: 50.4639  AVERAGE MISS PENALTY: 552.478
LLC6 RFO       ACCESS: 31388  HIT:  3473  MISS: 27915  HIT %: 11.0647  MISS %: 88.9353  AVERAGE MISS PENALTY: 440.842
LLC6 PREFETCH  ACCESS: 1310635  HIT: 576422  MISS: 734213  HIT %: 43.9804  MISS %: 56.0196  AVERAGE MISS PENALTY: 505.08
LLC6 WRITEBACK ACCESS: 131882  HIT: 46197  MISS: 85685  HIT %: 35.029  MISS %: 64.971  AVERAGE MISS PENALTY: 0
LLC6 PREFETCH  REQUESTED:     0  ISSUED:     0  USEFUL: 129851  USELESS: 396194
 USEFUL LOAD PREFETCHES:     129851 PREFETCH ISSUED TO LOWER LEVEL:   76175886  ACCURACY: 0.170462
 TIMELY PREFETCHES:     129851 LATE PREFETCHES: 0 DROPPED PREFETCHES: 0
LLC6 AVERAGE MISS LATENCY: 464.814 cycles

LLC6 Set Associative Eviction Count : 0
LLC6 Priority 0 entries : 12288
LLC6 Inter-Core Interference : 1177216
LLC7 TOTAL     ACCESS: 1706732  HIT: 739457  MISS: 967275  HIT %: 43.3259  MISS %: 56.6741  AVERAGE MISS PENALTY: 456.347
LLC7 LOAD      ACCESS: 248344  HIT: 123090  MISS: 125254  HIT %: 49.5643  MISS %: 50.4357  AVERAGE MISS PENALTY: 543.225
LLC7 RFO       ACCESS: 31409  HIT:  3475  MISS: 27934  HIT %: 11.0637  MISS %: 88.9363  AVERAGE MISS PENALTY: 427.783
LLC7 PREFETCH  ACCESS: 1294706  HIT: 566432  MISS: 728274  HIT %: 43.7499  MISS %: 56.2501  AVERAGE MISS PENALTY: 496.272
LLC7 WRITEBACK ACCESS: 132273  HIT: 46460  MISS: 85813  HIT %: 35.1243  MISS %: 64.8757  AVERAGE MISS PENALTY: 0
LLC7 PREFETCH  REQUESTED:     0  ISSUED:     0  USEFUL: 127684  USELESS: 391713
 USEFUL LOAD PREFETCHES:     127684 PREFETCH ISSUED TO LOWER LEVEL:   69070260  ACCURACY: 0.184861
 TIMELY PREFETCHES:     127684 LATE PREFETCHES: 0 DROPPED PREFETCHES: 0
LLC7 AVERAGE MISS LATENCY: 456.347 cycles

LLC7 Set Associative Eviction Count : 0
LLC7 Priority 0 entries : 12287
LLC7 Inter-Core Interference : 1174210
ROI Average ROB Stall Cycles:	10.721
ROI Total ROB Stalls Cycles:	737834952
ROI TOTAL ROB counter      :	68821266
ROI Average Load ROB Stall Cycles:	43.8612
ROI Total Load ROB Stalls Cycle  :	344510315
ROI Total Load ROB stalls Counter:	7854566
Major fault: 0 Minor fault: 28234








Interconnect Stats 
LINK 0 BW : 0LINK 1 BW : 0LINK 2 BW : 0LINK 3 BW : 0LINK 4 BW : 0LINK 5 BW : 0LINK 6 BW : 0LINK 7 BW : 0
DRAM Statistics
 CHANNEL 0
 RQ ROW_BUFFER_HIT: 7894656  ROW_BUFFER_MISS: 20699442
 DBUS_CONGESTED: 19387944
 WQ ROW_BUFFER_HIT: 98490  ROW_BUFFER_MISS: 3193735  FULL:  1966

 CHANNEL 1
 RQ ROW_BUFFER_HIT: 7807802  ROW_BUFFER_MISS: 20762076
 DBUS_CONGESTED: 19387944
 WQ ROW_BUFFER_HIT: 97727  ROW_BUFFER_MISS: 3197499  FULL:  1111

 AVG_CONGESTED_CYCLE: 5
DRAM PAGES: 2097152
Allocated PAGES: 225846
L2C destructor called
L1D destructor called
L1I destructor called
STLB destructor called
DTLB destructor called
ITLB destructor called
L2C destructor called
L1D destructor called
L1I destructor called
STLB destructor called
DTLB destructor called
ITLB destructor called
L2C destructor called
L1D destructor called
L1I destructor called
STLB destructor called
DTLB destructor called
ITLB destructor called
L2C destructor called
L1D destructor called
L1I destructor called
STLB destructor called
DTLB destructor called
ITLB destructor called
L2C destructor called
L1D destructor called
L1I destructor called
STLB destructor called
DTLB destructor called
ITLB destructor called
L2C destructor called
L1D destructor called
L1I destructor called
STLB destructor called
DTLB destructor called
ITLB destructor called
L2C destructor called
L1D destructor called
L1I destructor called
STLB destructor called
DTLB destructor called
ITLB destructor called
L2C destructor called
L1D destructor called
L1I destructor called
STLB destructor called
DTLB destructor called
ITLB destructor called
