
*** ChampSim Multicore Out-of-Order Simulator ***

Warmup Instructions: 200000000
Simulation Instructions: 200000000
Number of CPUs: 8
threads:1

L1I Configuration:
L1I_SET:64
L1I_WAY:8
L1I_RQ_SIZE:64
L1I_WQ_SIZE:64
L1I_PQ_SIZE:8
L1I_MSHR_SIZE:8

L1D Configuration:
L1D_SET:64
L1D_WAY:12
L1D_RQ_SIZE:64
L1D_WQ_SIZE:64
L1D_PQ_SIZE:8
L1D_MSHR_SIZE:16

L2C Configuration:
L2C_SET:1024
L2C_WAY:8
L2C_RQ_SIZE:32
L2C_WQ_SIZE:32
L2C_PQ_SIZE:16
L2C_MSHR_SIZE:32

LLC Configuration:
LLC_SET:2048
LLC_WAY:12
LLC SLICES:8
LLC_RQ_SIZE:64
LLC_WQ_SIZE:64
LLC_PQ_SIZE:32
LLC_MSHR_SIZE:64

Interconnect OFF
Attacker deprioritize is: OFF
Off-chip DRAM Size: 8192 MB Channels: 2 Width: 64-bit Data Rate: 3200 MT/s
PAGE SIZE in KB: 4.000000 
PAGE SIZE in MB: 0.003906 
PAGE offset in bits: 12 
CEASER-S_LLC:0
MIRAGE : 1
CEASER_LATENCY:3
REMAP : OFF
Partitions : 1
Multi-Step : OFF
BFS : OFF

CPU 0 runs /home/anubhav/gap/bfs-8.trace.gz
CPU 1 runs /home/anubhav/gap/bfs-8.trace.gz
CPU 2 runs /home/anubhav/gap/bfs-8.trace.gz
CPU 3 runs /home/anubhav/gap/bfs-8.trace.gz
CPU 4 runs /home/anubhav/gap/bfs-8.trace.gz
CPU 5 runs /home/anubhav/gap/bfs-8.trace.gz
CPU 6 runs /home/anubhav/gap/bfs-8.trace.gz
CPU 7 runs /home/anubhav/gap/bfs-8.trace.gz
CPU 0 Bimodal branch predictor
Initialize Hawkeye state
Initialize Hawkeye state
Initialize Hawkeye state
Initialize Hawkeye state
Initialize Hawkeye state
Initialize Hawkeye state
Initialize Hawkeye state
Initialize Hawkeye state
CPU 1 Bimodal branch predictor
Initialize Hawkeye state
Initialize Hawkeye state
Initialize Hawkeye state
Initialize Hawkeye state
Initialize Hawkeye state
Initialize Hawkeye state
Initialize Hawkeye state
Initialize Hawkeye state
CPU 2 Bimodal branch predictor
Initialize Hawkeye state
Initialize Hawkeye state
Initialize Hawkeye state
Initialize Hawkeye state
Initialize Hawkeye state
Initialize Hawkeye state
Initialize Hawkeye state
Initialize Hawkeye state
CPU 3 Bimodal branch predictor
Initialize Hawkeye state
Initialize Hawkeye state
Initialize Hawkeye state
Initialize Hawkeye state
Initialize Hawkeye state
Initialize Hawkeye state
Initialize Hawkeye state
Initialize Hawkeye state
CPU 4 Bimodal branch predictor
Initialize Hawkeye state
Initialize Hawkeye state
Initialize Hawkeye state
Initialize Hawkeye state
Initialize Hawkeye state
Initialize Hawkeye state
Initialize Hawkeye state
Initialize Hawkeye state
CPU 5 Bimodal branch predictor
Initialize Hawkeye state
Initialize Hawkeye state
Initialize Hawkeye state
Initialize Hawkeye state
Initialize Hawkeye state
Initialize Hawkeye state
Initialize Hawkeye state
Initialize Hawkeye state
CPU 6 Bimodal branch predictor
Initialize Hawkeye state
Initialize Hawkeye state
Initialize Hawkeye state
Initialize Hawkeye state
Initialize Hawkeye state
Initialize Hawkeye state
Initialize Hawkeye state
Initialize Hawkeye state
CPU 7 Bimodal branch predictor
Initialize Hawkeye state
Initialize Hawkeye state
Initialize Hawkeye state
Initialize Hawkeye state
Initialize Hawkeye state
Initialize Hawkeye state
Initialize Hawkeye state
Initialize Hawkeye state
FILL
Heartbeat CPU 0 instructions: 10000001 cycles: 14705102 heartbeat IPC: 0.680036 cumulative IPC: 0.680036 (Simulation time: 0 hr 24 min 51 sec) 
 Total Blocks : 196608 Invalid Blocks : 14976 Valid Blocks : 181632
 Total Tags : 491520 Threshold : 12288 Invalid Tags : 211592 Pr0 Tags : 98296 Pr1 Tags : 181632 num_pr0 : 12288
 SAE Count : 0
 Inter-Core Inteference in Data Store : 283245
Heartbeat CPU 1 instructions: 10000001 cycles: 14705106 heartbeat IPC: 0.680036 cumulative IPC: 0.680036 (Simulation time: 0 hr 24 min 51 sec) 
 Total Blocks : 196608 Invalid Blocks : 14976 Valid Blocks : 181632
 Total Tags : 491520 Threshold : 12288 Invalid Tags : 211591 Pr0 Tags : 98297 Pr1 Tags : 181632 num_pr0 : 12288
 SAE Count : 0
 Inter-Core Inteference in Data Store : 283246
Heartbeat CPU 2 instructions: 10000001 cycles: 14705114 heartbeat IPC: 0.680036 cumulative IPC: 0.680036 (Simulation time: 0 hr 24 min 51 sec) 
 Total Blocks : 196608 Invalid Blocks : 14976 Valid Blocks : 181632
 Total Tags : 491520 Threshold : 12288 Invalid Tags : 211592 Pr0 Tags : 98296 Pr1 Tags : 181632 num_pr0 : 12288
 SAE Count : 0
 Inter-Core Inteference in Data Store : 283248
Heartbeat CPU 3 instructions: 10000001 cycles: 14705117 heartbeat IPC: 0.680035 cumulative IPC: 0.680035 (Simulation time: 0 hr 24 min 51 sec) 
 Total Blocks : 196608 Invalid Blocks : 14976 Valid Blocks : 181632
 Total Tags : 491520 Threshold : 12288 Invalid Tags : 211592 Pr0 Tags : 98296 Pr1 Tags : 181632 num_pr0 : 12288
 SAE Count : 0
 Inter-Core Inteference in Data Store : 283248
Heartbeat CPU 4 instructions: 10000001 cycles: 14705120 heartbeat IPC: 0.680035 cumulative IPC: 0.680035 (Simulation time: 0 hr 24 min 51 sec) 
 Total Blocks : 196608 Invalid Blocks : 14976 Valid Blocks : 181632
 Total Tags : 491520 Threshold : 12288 Invalid Tags : 211592 Pr0 Tags : 98296 Pr1 Tags : 181632 num_pr0 : 12288
 SAE Count : 0
 Inter-Core Inteference in Data Store : 283248
Heartbeat CPU 5 instructions: 10000001 cycles: 14705124 heartbeat IPC: 0.680035 cumulative IPC: 0.680035 (Simulation time: 0 hr 24 min 51 sec) 
 Total Blocks : 196608 Invalid Blocks : 14976 Valid Blocks : 181632
 Total Tags : 491520 Threshold : 12288 Invalid Tags : 211592 Pr0 Tags : 98296 Pr1 Tags : 181632 num_pr0 : 12288
 SAE Count : 0
 Inter-Core Inteference in Data Store : 283248
Heartbeat CPU 6 instructions: 10000001 cycles: 14705127 heartbeat IPC: 0.680035 cumulative IPC: 0.680035 (Simulation time: 0 hr 24 min 51 sec) 
 Total Blocks : 196608 Invalid Blocks : 14976 Valid Blocks : 181632
 Total Tags : 491520 Threshold : 12288 Invalid Tags : 211592 Pr0 Tags : 98296 Pr1 Tags : 181632 num_pr0 : 12288
 SAE Count : 0
 Inter-Core Inteference in Data Store : 283248
Heartbeat CPU 7 instructions: 10000001 cycles: 14705130 heartbeat IPC: 0.680035 cumulative IPC: 0.680035 (Simulation time: 0 hr 24 min 51 sec) 
 Total Blocks : 196608 Invalid Blocks : 14976 Valid Blocks : 181632
 Total Tags : 491520 Threshold : 12288 Invalid Tags : 211592 Pr0 Tags : 98296 Pr1 Tags : 181632 num_pr0 : 12288
 SAE Count : 0
 Inter-Core Inteference in Data Store : 283248
Heartbeat CPU 6 instructions: 20000001 cycles: 26560603 heartbeat IPC: 0.843492 cumulative IPC: 0.752995 (Simulation time: 2 hr 9 min 43 sec) 
 Total Blocks : 196608 Invalid Blocks : 377 Valid Blocks : 196231
 Total Tags : 491520 Threshold : 12288 Invalid Tags : 196985 Pr0 Tags : 98304 Pr1 Tags : 196231 num_pr0 : 12288
 SAE Count : 0
 Inter-Core Inteference in Data Store : 905037
Heartbeat CPU 3 instructions: 20000001 cycles: 26561123 heartbeat IPC: 0.843454 cumulative IPC: 0.75298 (Simulation time: 2 hr 9 min 43 sec) 
 Total Blocks : 196608 Invalid Blocks : 377 Valid Blocks : 196231
 Total Tags : 491520 Threshold : 12288 Invalid Tags : 196986 Pr0 Tags : 98303 Pr1 Tags : 196231 num_pr0 : 12288
 SAE Count : 0
 Inter-Core Inteference in Data Store : 905044
Heartbeat CPU 4 instructions: 20000001 cycles: 26561700 heartbeat IPC: 0.843414 cumulative IPC: 0.752964 (Simulation time: 2 hr 9 min 44 sec) 
 Total Blocks : 196608 Invalid Blocks : 377 Valid Blocks : 196231
 Total Tags : 491520 Threshold : 12288 Invalid Tags : 196985 Pr0 Tags : 98304 Pr1 Tags : 196231 num_pr0 : 12288
 SAE Count : 0
 Inter-Core Inteference in Data Store : 905055
Heartbeat CPU 7 instructions: 20000001 cycles: 26562133 heartbeat IPC: 0.843383 cumulative IPC: 0.752952 (Simulation time: 2 hr 9 min 44 sec) 
 Total Blocks : 196608 Invalid Blocks : 377 Valid Blocks : 196231
 Total Tags : 491520 Threshold : 12288 Invalid Tags : 196985 Pr0 Tags : 98304 Pr1 Tags : 196231 num_pr0 : 12288
 SAE Count : 0
 Inter-Core Inteference in Data Store : 905062
Heartbeat CPU 5 instructions: 20000001 cycles: 26562269 heartbeat IPC: 0.843373 cumulative IPC: 0.752948 (Simulation time: 2 hr 9 min 45 sec) 
 Total Blocks : 196608 Invalid Blocks : 377 Valid Blocks : 196231
 Total Tags : 491520 Threshold : 12288 Invalid Tags : 196985 Pr0 Tags : 98304 Pr1 Tags : 196231 num_pr0 : 12288
 SAE Count : 0
 Inter-Core Inteference in Data Store : 905062
Heartbeat CPU 2 instructions: 20000001 cycles: 26562618 heartbeat IPC: 0.843348 cumulative IPC: 0.752938 (Simulation time: 2 hr 9 min 45 sec) 
 Total Blocks : 196608 Invalid Blocks : 377 Valid Blocks : 196231
 Total Tags : 491520 Threshold : 12288 Invalid Tags : 196985 Pr0 Tags : 98304 Pr1 Tags : 196231 num_pr0 : 12288
 SAE Count : 0
 Inter-Core Inteference in Data Store : 905064
Heartbeat CPU 0 instructions: 20000001 cycles: 26577744 heartbeat IPC: 0.842273 cumulative IPC: 0.752509 (Simulation time: 2 hr 10 min 0 sec) 
 Total Blocks : 196608 Invalid Blocks : 377 Valid Blocks : 196231
 Total Tags : 491520 Threshold : 12288 Invalid Tags : 196986 Pr0 Tags : 98303 Pr1 Tags : 196231 num_pr0 : 12288
 SAE Count : 0
 Inter-Core Inteference in Data Store : 905269
Heartbeat CPU 1 instructions: 20000001 cycles: 26577949 heartbeat IPC: 0.842258 cumulative IPC: 0.752504 (Simulation time: 2 hr 10 min 1 sec) 
 Total Blocks : 196608 Invalid Blocks : 377 Valid Blocks : 196231
 Total Tags : 491520 Threshold : 12288 Invalid Tags : 196987 Pr0 Tags : 98302 Pr1 Tags : 196231 num_pr0 : 12288
 SAE Count : 0
 Inter-Core Inteference in Data Store : 905272
FILL
Heartbeat CPU 6 instructions: 30000002 cycles: 39456814 heartbeat IPC: 0.775422 cumulative IPC: 0.760325 (Simulation time: 6 hr 36 min 33 sec) 
 Total Blocks : 196608 Invalid Blocks : 115 Valid Blocks : 196493
 Total Tags : 491520 Threshold : 12288 Invalid Tags : 196723 Pr0 Tags : 98304 Pr1 Tags : 196493 num_pr0 : 12288
 SAE Count : 0
 Inter-Core Inteference in Data Store : 1107899
Heartbeat CPU 3 instructions: 30000002 cycles: 39458816 heartbeat IPC: 0.775333 cumulative IPC: 0.760286 (Simulation time: 6 hr 36 min 37 sec) 
 Total Blocks : 196608 Invalid Blocks : 115 Valid Blocks : 196493
 Total Tags : 491520 Threshold : 12288 Invalid Tags : 196725 Pr0 Tags : 98302 Pr1 Tags : 196493 num_pr0 : 12288
 SAE Count : 0
 Inter-Core Inteference in Data Store : 1107937
Heartbeat CPU 7 instructions: 30000002 cycles: 39458993 heartbeat IPC: 0.775383 cumulative IPC: 0.760283 (Simulation time: 6 hr 36 min 37 sec) 
 Total Blocks : 196608 Invalid Blocks : 115 Valid Blocks : 196493
 Total Tags : 491520 Threshold : 12288 Invalid Tags : 196725 Pr0 Tags : 98302 Pr1 Tags : 196493 num_pr0 : 12288
 SAE Count : 0
 Inter-Core Inteference in Data Store : 1107939
Heartbeat CPU 4 instructions: 30000002 cycles: 39459676 heartbeat IPC: 0.775316 cumulative IPC: 0.76027 (Simulation time: 6 hr 36 min 37 sec) 
 Total Blocks : 196608 Invalid Blocks : 115 Valid Blocks : 196493
 Total Tags : 491520 Threshold : 12288 Invalid Tags : 196723 Pr0 Tags : 98304 Pr1 Tags : 196493 num_pr0 : 12288
 SAE Count : 0
 Inter-Core Inteference in Data Store : 1107946
Heartbeat CPU 5 instructions: 30000002 cycles: 39459983 heartbeat IPC: 0.775331 cumulative IPC: 0.760264 (Simulation time: 6 hr 36 min 37 sec) 
 Total Blocks : 196608 Invalid Blocks : 115 Valid Blocks : 196493
 Total Tags : 491520 Threshold : 12288 Invalid Tags : 196724 Pr0 Tags : 98303 Pr1 Tags : 196493 num_pr0 : 12288
 SAE Count : 0
 Inter-Core Inteference in Data Store : 1107951
Heartbeat CPU 2 instructions: 30000002 cycles: 39460028 heartbeat IPC: 0.77535 cumulative IPC: 0.760263 (Simulation time: 6 hr 36 min 38 sec) 
 Total Blocks : 196608 Invalid Blocks : 115 Valid Blocks : 196493
 Total Tags : 491520 Threshold : 12288 Invalid Tags : 196724 Pr0 Tags : 98303 Pr1 Tags : 196493 num_pr0 : 12288
 SAE Count : 0
 Inter-Core Inteference in Data Store : 1107951
Heartbeat CPU 0 instructions: 30000002 cycles: 39500320 heartbeat IPC: 0.77384 cumulative IPC: 0.759488 (Simulation time: 6 hr 37 min 36 sec) 
 Total Blocks : 196608 Invalid Blocks : 114 Valid Blocks : 196494
 Total Tags : 491520 Threshold : 12288 Invalid Tags : 196722 Pr0 Tags : 98304 Pr1 Tags : 196494 num_pr0 : 12288
 SAE Count : 0
 Inter-Core Inteference in Data Store : 1108700
Heartbeat CPU 1 instructions: 30000002 cycles: 39500705 heartbeat IPC: 0.773829 cumulative IPC: 0.75948 (Simulation time: 6 hr 37 min 36 sec) 
 Total Blocks : 196608 Invalid Blocks : 114 Valid Blocks : 196494
 Total Tags : 491520 Threshold : 12288 Invalid Tags : 196723 Pr0 Tags : 98303 Pr1 Tags : 196494 num_pr0 : 12288
 SAE Count : 0
 Inter-Core Inteference in Data Store : 1108707
Heartbeat CPU 6 instructions: 40000000 cycles: 54056719 heartbeat IPC: 0.684936 cumulative IPC: 0.739964 (Simulation time: 10 hr 37 min 6 sec) 
 Total Blocks : 196608 Invalid Blocks : 34 Valid Blocks : 196574
 Total Tags : 491520 Threshold : 12288 Invalid Tags : 196643 Pr0 Tags : 98303 Pr1 Tags : 196574 num_pr0 : 12288
 SAE Count : 0
 Inter-Core Inteference in Data Store : 1329373
Heartbeat CPU 7 instructions: 40000000 cycles: 54059480 heartbeat IPC: 0.684909 cumulative IPC: 0.739926 (Simulation time: 10 hr 37 min 6 sec) 
 Total Blocks : 196608 Invalid Blocks : 34 Valid Blocks : 196574
 Total Tags : 491520 Threshold : 12288 Invalid Tags : 196644 Pr0 Tags : 98302 Pr1 Tags : 196574 num_pr0 : 12287
 SAE Count : 0
 Inter-Core Inteference in Data Store : 1329420
Heartbeat CPU 3 instructions: 40000000 cycles: 54062954 heartbeat IPC: 0.684737 cumulative IPC: 0.739878 (Simulation time: 10 hr 37 min 6 sec) 
 Total Blocks : 196608 Invalid Blocks : 34 Valid Blocks : 196574
 Total Tags : 491520 Threshold : 12288 Invalid Tags : 196643 Pr0 Tags : 98303 Pr1 Tags : 196574 num_pr0 : 12288
 SAE Count : 0
 Inter-Core Inteference in Data Store : 1329476
Heartbeat CPU 2 instructions: 40000000 cycles: 54063305 heartbeat IPC: 0.684778 cumulative IPC: 0.739873 (Simulation time: 10 hr 37 min 6 sec) 
 Total Blocks : 196608 Invalid Blocks : 34 Valid Blocks : 196574
 Total Tags : 491520 Threshold : 12288 Invalid Tags : 196643 Pr0 Tags : 98303 Pr1 Tags : 196574 num_pr0 : 12288
 SAE Count : 0
 Inter-Core Inteference in Data Store : 1329482
Heartbeat CPU 4 instructions: 40000000 cycles: 54063834 heartbeat IPC: 0.684736 cumulative IPC: 0.739866 (Simulation time: 10 hr 37 min 6 sec) 
 Total Blocks : 196608 Invalid Blocks : 34 Valid Blocks : 196574
 Total Tags : 491520 Threshold : 12288 Invalid Tags : 196643 Pr0 Tags : 98303 Pr1 Tags : 196574 num_pr0 : 12287
 SAE Count : 0
 Inter-Core Inteference in Data Store : 1329492
Heartbeat CPU 5 instructions: 40000000 cycles: 54063903 heartbeat IPC: 0.684748 cumulative IPC: 0.739865 (Simulation time: 10 hr 37 min 6 sec) 
 Total Blocks : 196608 Invalid Blocks : 34 Valid Blocks : 196574
 Total Tags : 491520 Threshold : 12288 Invalid Tags : 196645 Pr0 Tags : 98301 Pr1 Tags : 196574 num_pr0 : 12287
 SAE Count : 0
 Inter-Core Inteference in Data Store : 1329494
Heartbeat CPU 0 instructions: 40000000 cycles: 54119925 heartbeat IPC: 0.684013 cumulative IPC: 0.739099 (Simulation time: 10 hr 37 min 9 sec) 
 Total Blocks : 196608 Invalid Blocks : 34 Valid Blocks : 196574
 Total Tags : 491520 Threshold : 12288 Invalid Tags : 196643 Pr0 Tags : 98303 Pr1 Tags : 196574 num_pr0 : 12288
 SAE Count : 0
 Inter-Core Inteference in Data Store : 1330151
Heartbeat CPU 1 instructions: 40000000 cycles: 54120310 heartbeat IPC: 0.684013 cumulative IPC: 0.739094 (Simulation time: 10 hr 37 min 9 sec) 
 Total Blocks : 196608 Invalid Blocks : 34 Valid Blocks : 196574
 Total Tags : 491520 Threshold : 12288 Invalid Tags : 196643 Pr0 Tags : 98303 Pr1 Tags : 196574 num_pr0 : 12287
 SAE Count : 0
 Inter-Core Inteference in Data Store : 1330155
FILL
Heartbeat CPU 6 instructions: 50000000 cycles: 66738699 heartbeat IPC: 0.78852 cumulative IPC: 0.749191 (Simulation time: 10 hr 50 min 34 sec) 
 Total Blocks : 196608 Invalid Blocks : 14 Valid Blocks : 196594
 Total Tags : 491520 Threshold : 12288 Invalid Tags : 196625 Pr0 Tags : 98301 Pr1 Tags : 196594 num_pr0 : 12286
 SAE Count : 0
 Inter-Core Inteference in Data Store : 1454916
Heartbeat CPU 7 instructions: 50000000 cycles: 66741477 heartbeat IPC: 0.788519 cumulative IPC: 0.749159 (Simulation time: 10 hr 50 min 35 sec) 
 Total Blocks : 196608 Invalid Blocks : 14 Valid Blocks : 196594
 Total Tags : 491520 Threshold : 12288 Invalid Tags : 196625 Pr0 Tags : 98301 Pr1 Tags : 196594 num_pr0 : 12287
 SAE Count : 0
 Inter-Core Inteference in Data Store : 1454919
Heartbeat CPU 3 instructions: 50000000 cycles: 66750795 heartbeat IPC: 0.788156 cumulative IPC: 0.749055 (Simulation time: 10 hr 50 min 37 sec) 
 Total Blocks : 196608 Invalid Blocks : 14 Valid Blocks : 196594
 Total Tags : 491520 Threshold : 12288 Invalid Tags : 196624 Pr0 Tags : 98302 Pr1 Tags : 196594 num_pr0 : 12288
 SAE Count : 0
 Inter-Core Inteference in Data Store : 1454932
Heartbeat CPU 2 instructions: 50000000 cycles: 66751192 heartbeat IPC: 0.788153 cumulative IPC: 0.74905 (Simulation time: 10 hr 50 min 37 sec) 
 Total Blocks : 196608 Invalid Blocks : 14 Valid Blocks : 196594
 Total Tags : 491520 Threshold : 12288 Invalid Tags : 196625 Pr0 Tags : 98301 Pr1 Tags : 196594 num_pr0 : 12288
 SAE Count : 0
 Inter-Core Inteference in Data Store : 1454934
Heartbeat CPU 4 instructions: 50000000 cycles: 66751676 heartbeat IPC: 0.788156 cumulative IPC: 0.749045 (Simulation time: 10 hr 50 min 37 sec) 
 Total Blocks : 196608 Invalid Blocks : 14 Valid Blocks : 196594
 Total Tags : 491520 Threshold : 12288 Invalid Tags : 196622 Pr0 Tags : 98304 Pr1 Tags : 196594 num_pr0 : 12288
 SAE Count : 0
 Inter-Core Inteference in Data Store : 1454934
Heartbeat CPU 5 instructions: 50000000 cycles: 66751759 heartbeat IPC: 0.788155 cumulative IPC: 0.749044 (Simulation time: 10 hr 50 min 37 sec) 
 Total Blocks : 196608 Invalid Blocks : 14 Valid Blocks : 196594
 Total Tags : 491520 Threshold : 12288 Invalid Tags : 196623 Pr0 Tags : 98303 Pr1 Tags : 196594 num_pr0 : 12288
 SAE Count : 0
 Inter-Core Inteference in Data Store : 1454935
Heartbeat CPU 0 instructions: 50000000 cycles: 66807793 heartbeat IPC: 0.788154 cumulative IPC: 0.748416 (Simulation time: 10 hr 50 min 46 sec) 
 Total Blocks : 196608 Invalid Blocks : 14 Valid Blocks : 196594
 Total Tags : 491520 Threshold : 12288 Invalid Tags : 196622 Pr0 Tags : 98304 Pr1 Tags : 196594 num_pr0 : 12288
 SAE Count : 0
 Inter-Core Inteference in Data Store : 1455002
Heartbeat CPU 1 instructions: 50000000 cycles: 66808206 heartbeat IPC: 0.788153 cumulative IPC: 0.748411 (Simulation time: 10 hr 50 min 46 sec) 
 Total Blocks : 196608 Invalid Blocks : 14 Valid Blocks : 196594
 Total Tags : 491520 Threshold : 12288 Invalid Tags : 196622 Pr0 Tags : 98304 Pr1 Tags : 196594 num_pr0 : 12288
 SAE Count : 0
 Inter-Core Inteference in Data Store : 1455002
FILL
Heartbeat CPU 6 instructions: 60000001 cycles: 70759558 heartbeat IPC: 2.48703 cumulative IPC: 0.847942 (Simulation time: 11 hr 9 min 19 sec) 
 Total Blocks : 196608 Invalid Blocks : 3 Valid Blocks : 196605
 Total Tags : 491520 Threshold : 12288 Invalid Tags : 196611 Pr0 Tags : 98304 Pr1 Tags : 196605 num_pr0 : 12288
 SAE Count : 0
 Inter-Core Inteference in Data Store : 1706808
Heartbeat CPU 7 instructions: 60000001 cycles: 70763073 heartbeat IPC: 2.48658 cumulative IPC: 0.8479 (Simulation time: 11 hr 9 min 20 sec) 
 Total Blocks : 196608 Invalid Blocks : 3 Valid Blocks : 196605
 Total Tags : 491520 Threshold : 12288 Invalid Tags : 196611 Pr0 Tags : 98304 Pr1 Tags : 196605 num_pr0 : 12288
 SAE Count : 0
 Inter-Core Inteference in Data Store : 1706879
Heartbeat CPU 2 instructions: 60000001 cycles: 70770444 heartbeat IPC: 2.48803 cumulative IPC: 0.847812 (Simulation time: 11 hr 9 min 23 sec) 
 Total Blocks : 196608 Invalid Blocks : 3 Valid Blocks : 196605
 Total Tags : 491520 Threshold : 12288 Invalid Tags : 196611 Pr0 Tags : 98304 Pr1 Tags : 196605 num_pr0 : 12288
 SAE Count : 0
 Inter-Core Inteference in Data Store : 1707033
Heartbeat CPU 3 instructions: 60000001 cycles: 70770633 heartbeat IPC: 2.48766 cumulative IPC: 0.847809 (Simulation time: 11 hr 9 min 23 sec) 
 Total Blocks : 196608 Invalid Blocks : 3 Valid Blocks : 196605
 Total Tags : 491520 Threshold : 12288 Invalid Tags : 196611 Pr0 Tags : 98304 Pr1 Tags : 196605 num_pr0 : 12288
 SAE Count : 0
 Inter-Core Inteference in Data Store : 1707039
Heartbeat CPU 4 instructions: 60000001 cycles: 70771922 heartbeat IPC: 2.48741 cumulative IPC: 0.847794 (Simulation time: 11 hr 9 min 23 sec) 
 Total Blocks : 196608 Invalid Blocks : 3 Valid Blocks : 196605
 Total Tags : 491520 Threshold : 12288 Invalid Tags : 196611 Pr0 Tags : 98304 Pr1 Tags : 196605 num_pr0 : 12288
 SAE Count : 0
 Inter-Core Inteference in Data Store : 1707058
Heartbeat CPU 5 instructions: 60000001 cycles: 70772096 heartbeat IPC: 2.48735 cumulative IPC: 0.847792 (Simulation time: 11 hr 9 min 23 sec) 
 Total Blocks : 196608 Invalid Blocks : 3 Valid Blocks : 196605
 Total Tags : 491520 Threshold : 12288 Invalid Tags : 196611 Pr0 Tags : 98304 Pr1 Tags : 196605 num_pr0 : 12288
 SAE Count : 0
 Inter-Core Inteference in Data Store : 1707060
Heartbeat CPU 0 instructions: 60000001 cycles: 70825845 heartbeat IPC: 2.48877 cumulative IPC: 0.847148 (Simulation time: 11 hr 9 min 45 sec) 
 Total Blocks : 196608 Invalid Blocks : 3 Valid Blocks : 196605
 Total Tags : 491520 Threshold : 12288 Invalid Tags : 196611 Pr0 Tags : 98304 Pr1 Tags : 196605 num_pr0 : 12288
 SAE Count : 0
 Inter-Core Inteference in Data Store : 1708128
Heartbeat CPU 1 instructions: 60000001 cycles: 70826880 heartbeat IPC: 2.48838 cumulative IPC: 0.847136 (Simulation time: 11 hr 9 min 46 sec) 
 Total Blocks : 196608 Invalid Blocks : 3 Valid Blocks : 196605
 Total Tags : 491520 Threshold : 12288 Invalid Tags : 196611 Pr0 Tags : 98304 Pr1 Tags : 196605 num_pr0 : 12288
 SAE Count : 0
 Inter-Core Inteference in Data Store : 1708150
Heartbeat CPU 6 instructions: 70000000 cycles: 80363434 heartbeat IPC: 1.04125 cumulative IPC: 0.871043 (Simulation time: 11 hr 28 min 14 sec) 
 Total Blocks : 196608 Invalid Blocks : 1 Valid Blocks : 196607
 Total Tags : 491520 Threshold : 12288 Invalid Tags : 196611 Pr0 Tags : 98302 Pr1 Tags : 196607 num_pr0 : 12288
 SAE Count : 0
 Inter-Core Inteference in Data Store : 1897763
Heartbeat CPU 7 instructions: 70000000 cycles: 80366953 heartbeat IPC: 1.04125 cumulative IPC: 0.871005 (Simulation time: 11 hr 28 min 14 sec) 
 Total Blocks : 196608 Invalid Blocks : 1 Valid Blocks : 196607
 Total Tags : 491520 Threshold : 12288 Invalid Tags : 196612 Pr0 Tags : 98301 Pr1 Tags : 196607 num_pr0 : 12287
 SAE Count : 0
 Inter-Core Inteference in Data Store : 1897910
Heartbeat CPU 2 instructions: 70000000 cycles: 80374327 heartbeat IPC: 1.04125 cumulative IPC: 0.870925 (Simulation time: 11 hr 28 min 14 sec) 
 Total Blocks : 196608 Invalid Blocks : 1 Valid Blocks : 196607
 Total Tags : 491520 Threshold : 12288 Invalid Tags : 196609 Pr0 Tags : 98304 Pr1 Tags : 196607 num_pr0 : 12288
 SAE Count : 0
 Inter-Core Inteference in Data Store : 1898080
Heartbeat CPU 3 instructions: 70000000 cycles: 80374531 heartbeat IPC: 1.04124 cumulative IPC: 0.870923 (Simulation time: 11 hr 28 min 14 sec) 
 Total Blocks : 196608 Invalid Blocks : 1 Valid Blocks : 196607
 Total Tags : 491520 Threshold : 12288 Invalid Tags : 196610 Pr0 Tags : 98303 Pr1 Tags : 196607 num_pr0 : 12288
 SAE Count : 0
 Inter-Core Inteference in Data Store : 1898083
Heartbeat CPU 4 instructions: 70000000 cycles: 80375871 heartbeat IPC: 1.04124 cumulative IPC: 0.870908 (Simulation time: 11 hr 28 min 14 sec) 
 Total Blocks : 196608 Invalid Blocks : 1 Valid Blocks : 196607
 Total Tags : 491520 Threshold : 12288 Invalid Tags : 196611 Pr0 Tags : 98302 Pr1 Tags : 196607 num_pr0 : 12288
 SAE Count : 0
 Inter-Core Inteference in Data Store : 1898116
Heartbeat CPU 5 instructions: 70000000 cycles: 80376046 heartbeat IPC: 1.04124 cumulative IPC: 0.870906 (Simulation time: 11 hr 28 min 14 sec) 
 Total Blocks : 196608 Invalid Blocks : 1 Valid Blocks : 196607
 Total Tags : 491520 Threshold : 12288 Invalid Tags : 196610 Pr0 Tags : 98303 Pr1 Tags : 196607 num_pr0 : 12288
 SAE Count : 0
 Inter-Core Inteference in Data Store : 1898120
Heartbeat CPU 0 instructions: 70000000 cycles: 80429774 heartbeat IPC: 1.04124 cumulative IPC: 0.870324 (Simulation time: 11 hr 28 min 16 sec) 
 Total Blocks : 196608 Invalid Blocks : 1 Valid Blocks : 196607
 Total Tags : 491520 Threshold : 12288 Invalid Tags : 196611 Pr0 Tags : 98302 Pr1 Tags : 196607 num_pr0 : 12288
 SAE Count : 0
 Inter-Core Inteference in Data Store : 1899526
Heartbeat CPU 1 instructions: 70000000 cycles: 80430844 heartbeat IPC: 1.04124 cumulative IPC: 0.870313 (Simulation time: 11 hr 28 min 17 sec) 
 Total Blocks : 196608 Invalid Blocks : 1 Valid Blocks : 196607
 Total Tags : 491520 Threshold : 12288 Invalid Tags : 196609 Pr0 Tags : 98304 Pr1 Tags : 196607 num_pr0 : 12288
 SAE Count : 0
 Inter-Core Inteference in Data Store : 1899530
FILL
Heartbeat CPU 6 instructions: 80000001 cycles: 93723059 heartbeat IPC: 0.748524 cumulative IPC: 0.853579 (Simulation time: 11 hr 46 min 1 sec) 
 Total Blocks : 196608 Invalid Blocks : 0 Valid Blocks : 196608
 Total Tags : 491520 Threshold : 12288 Invalid Tags : 196608 Pr0 Tags : 98304 Pr1 Tags : 196608 num_pr0 : 12288
 SAE Count : 0
 Inter-Core Inteference in Data Store : 2508786
Heartbeat CPU 7 instructions: 80000001 cycles: 93727939 heartbeat IPC: 0.748448 cumulative IPC: 0.853534 (Simulation time: 11 hr 46 min 2 sec) 
 Total Blocks : 196608 Invalid Blocks : 0 Valid Blocks : 196608
 Total Tags : 491520 Threshold : 12288 Invalid Tags : 196608 Pr0 Tags : 98304 Pr1 Tags : 196608 num_pr0 : 12288
 SAE Count : 0
 Inter-Core Inteference in Data Store : 2508844
Heartbeat CPU 3 instructions: 80000001 cycles: 93734074 heartbeat IPC: 0.748529 cumulative IPC: 0.853478 (Simulation time: 11 hr 46 min 2 sec) 
 Total Blocks : 196608 Invalid Blocks : 0 Valid Blocks : 196608
 Total Tags : 491520 Threshold : 12288 Invalid Tags : 196608 Pr0 Tags : 98304 Pr1 Tags : 196608 num_pr0 : 12288
 SAE Count : 0
 Inter-Core Inteference in Data Store : 2508952
Heartbeat CPU 2 instructions: 80000001 cycles: 93735430 heartbeat IPC: 0.748441 cumulative IPC: 0.853466 (Simulation time: 11 hr 46 min 3 sec) 
 Total Blocks : 196608 Invalid Blocks : 0 Valid Blocks : 196608
 Total Tags : 491520 Threshold : 12288 Invalid Tags : 196608 Pr0 Tags : 98304 Pr1 Tags : 196608 num_pr0 : 12288
 SAE Count : 0
 Inter-Core Inteference in Data Store : 2508974
Heartbeat CPU 4 instructions: 80000001 cycles: 93735778 heartbeat IPC: 0.748508 cumulative IPC: 0.853463 (Simulation time: 11 hr 46 min 3 sec) 
 Total Blocks : 196608 Invalid Blocks : 0 Valid Blocks : 196608
 Total Tags : 491520 Threshold : 12288 Invalid Tags : 196608 Pr0 Tags : 98304 Pr1 Tags : 196608 num_pr0 : 12288
 SAE Count : 0
 Inter-Core Inteference in Data Store : 2508981
Heartbeat CPU 5 instructions: 80000001 cycles: 93736835 heartbeat IPC: 0.748459 cumulative IPC: 0.853453 (Simulation time: 11 hr 46 min 3 sec) 
 Total Blocks : 196608 Invalid Blocks : 0 Valid Blocks : 196608
 Total Tags : 491520 Threshold : 12288 Invalid Tags : 196610 Pr0 Tags : 98302 Pr1 Tags : 196608 num_pr0 : 12288
 SAE Count : 0
 Inter-Core Inteference in Data Store : 2508996
Heartbeat CPU 0 instructions: 80000001 cycles: 93799740 heartbeat IPC: 0.747945 cumulative IPC: 0.852881 (Simulation time: 11 hr 46 min 6 sec) 
 Total Blocks : 196608 Invalid Blocks : 0 Valid Blocks : 196608
 Total Tags : 491520 Threshold : 12288 Invalid Tags : 196608 Pr0 Tags : 98304 Pr1 Tags : 196608 num_pr0 : 12288
 SAE Count : 0
 Inter-Core Inteference in Data Store : 2509756
Heartbeat CPU 1 instructions: 80000001 cycles: 93800832 heartbeat IPC: 0.747944 cumulative IPC: 0.852871 (Simulation time: 11 hr 46 min 6 sec) 
 Total Blocks : 196608 Invalid Blocks : 0 Valid Blocks : 196608
 Total Tags : 491520 Threshold : 12288 Invalid Tags : 196608 Pr0 Tags : 98304 Pr1 Tags : 196608 num_pr0 : 12288
 SAE Count : 0
 Inter-Core Inteference in Data Store : 2509772
Heartbeat CPU 6 instructions: 90000001 cycles: 107980022 heartbeat IPC: 0.701412 cumulative IPC: 0.833488 (Simulation time: 12 hr 3 min 5 sec) 
 Total Blocks : 196608 Invalid Blocks : 0 Valid Blocks : 196608
 Total Tags : 491520 Threshold : 12288 Invalid Tags : 196608 Pr0 Tags : 98304 Pr1 Tags : 196608 num_pr0 : 12288
 SAE Count : 0
 Inter-Core Inteference in Data Store : 2690284
Heartbeat CPU 7 instructions: 90000001 cycles: 107984931 heartbeat IPC: 0.70141 cumulative IPC: 0.83345 (Simulation time: 12 hr 3 min 5 sec) 
 Total Blocks : 196608 Invalid Blocks : 0 Valid Blocks : 196608
 Total Tags : 491520 Threshold : 12288 Invalid Tags : 196609 Pr0 Tags : 98303 Pr1 Tags : 196608 num_pr0 : 12287
 SAE Count : 0
 Inter-Core Inteference in Data Store : 2690332
Heartbeat CPU 3 instructions: 90000001 cycles: 107992805 heartbeat IPC: 0.701325 cumulative IPC: 0.833389 (Simulation time: 12 hr 3 min 6 sec) 
 Total Blocks : 196608 Invalid Blocks : 0 Valid Blocks : 196608
 Total Tags : 491520 Threshold : 12288 Invalid Tags : 196608 Pr0 Tags : 98304 Pr1 Tags : 196608 num_pr0 : 12288
 SAE Count : 0
 Inter-Core Inteference in Data Store : 2690406
Heartbeat CPU 2 instructions: 90000001 cycles: 107993489 heartbeat IPC: 0.701358 cumulative IPC: 0.833384 (Simulation time: 12 hr 3 min 6 sec) 
 Total Blocks : 196608 Invalid Blocks : 0 Valid Blocks : 196608
 Total Tags : 491520 Threshold : 12288 Invalid Tags : 196608 Pr0 Tags : 98304 Pr1 Tags : 196608 num_pr0 : 12288
 SAE Count : 0
 Inter-Core Inteference in Data Store : 2690414
Heartbeat CPU 4 instructions: 90000001 cycles: 107994625 heartbeat IPC: 0.701319 cumulative IPC: 0.833375 (Simulation time: 12 hr 3 min 6 sec) 
 Total Blocks : 196608 Invalid Blocks : 0 Valid Blocks : 196608
 Total Tags : 491520 Threshold : 12288 Invalid Tags : 196610 Pr0 Tags : 98302 Pr1 Tags : 196608 num_pr0 : 12287
 SAE Count : 0
 Inter-Core Inteference in Data Store : 2690428
Heartbeat CPU 5 instructions: 90000001 cycles: 107994658 heartbeat IPC: 0.701369 cumulative IPC: 0.833375 (Simulation time: 12 hr 3 min 6 sec) 
 Total Blocks : 196608 Invalid Blocks : 0 Valid Blocks : 196608
 Total Tags : 491520 Threshold : 12288 Invalid Tags : 196609 Pr0 Tags : 98303 Pr1 Tags : 196608 num_pr0 : 12287
 SAE Count : 0
 Inter-Core Inteference in Data Store : 2690429
Heartbeat CPU 0 instructions: 90000001 cycles: 108085566 heartbeat IPC: 0.699995 cumulative IPC: 0.832674 (Simulation time: 12 hr 3 min 12 sec) 
 Total Blocks : 196608 Invalid Blocks : 0 Valid Blocks : 196608
 Total Tags : 491520 Threshold : 12288 Invalid Tags : 196610 Pr0 Tags : 98302 Pr1 Tags : 196608 num_pr0 : 12288
 SAE Count : 0
 Inter-Core Inteference in Data Store : 2691600
Heartbeat CPU 1 instructions: 90000001 cycles: 108086845 heartbeat IPC: 0.699985 cumulative IPC: 0.832664 (Simulation time: 12 hr 3 min 12 sec) 
 Total Blocks : 196608 Invalid Blocks : 0 Valid Blocks : 196608
 Total Tags : 491520 Threshold : 12288 Invalid Tags : 196608 Pr0 Tags : 98304 Pr1 Tags : 196608 num_pr0 : 12288
 SAE Count : 0
 Inter-Core Inteference in Data Store : 2691623
FILL
Heartbeat CPU 6 instructions: 100000000 cycles: 122266503 heartbeat IPC: 0.699962 cumulative IPC: 0.817886 (Simulation time: 12 hr 19 min 51 sec) 
 Total Blocks : 196608 Invalid Blocks : 0 Valid Blocks : 196608
 Total Tags : 491520 Threshold : 12288 Invalid Tags : 196608 Pr0 Tags : 98304 Pr1 Tags : 196608 num_pr0 : 12288
 SAE Count : 0
 Inter-Core Inteference in Data Store : 2885396
Heartbeat CPU 7 instructions: 100000000 cycles: 122272020 heartbeat IPC: 0.699933 cumulative IPC: 0.817849 (Simulation time: 12 hr 19 min 51 sec) 
 Total Blocks : 196608 Invalid Blocks : 0 Valid Blocks : 196608
 Total Tags : 491520 Threshold : 12288 Invalid Tags : 196608 Pr0 Tags : 98304 Pr1 Tags : 196608 num_pr0 : 12288
 SAE Count : 0
 Inter-Core Inteference in Data Store : 2885443
Heartbeat CPU 3 instructions: 100000000 cycles: 122280648 heartbeat IPC: 0.699896 cumulative IPC: 0.817791 (Simulation time: 12 hr 19 min 52 sec) 
 Total Blocks : 196608 Invalid Blocks : 0 Valid Blocks : 196608
 Total Tags : 491520 Threshold : 12288 Invalid Tags : 196609 Pr0 Tags : 98303 Pr1 Tags : 196608 num_pr0 : 12288
 SAE Count : 0
 Inter-Core Inteference in Data Store : 2885581
Heartbeat CPU 2 instructions: 100000000 cycles: 122281215 heartbeat IPC: 0.699901 cumulative IPC: 0.817787 (Simulation time: 12 hr 19 min 52 sec) 
 Total Blocks : 196608 Invalid Blocks : 0 Valid Blocks : 196608
 Total Tags : 491520 Threshold : 12288 Invalid Tags : 196608 Pr0 Tags : 98304 Pr1 Tags : 196608 num_pr0 : 12288
 SAE Count : 0
 Inter-Core Inteference in Data Store : 2885595
Heartbeat CPU 4 instructions: 100000000 cycles: 122283384 heartbeat IPC: 0.699851 cumulative IPC: 0.817773 (Simulation time: 12 hr 19 min 52 sec) 
 Total Blocks : 196608 Invalid Blocks : 0 Valid Blocks : 196608
 Total Tags : 491520 Threshold : 12288 Invalid Tags : 196609 Pr0 Tags : 98303 Pr1 Tags : 196608 num_pr0 : 12288
 SAE Count : 0
 Inter-Core Inteference in Data Store : 2885648
Heartbeat CPU 5 instructions: 100000000 cycles: 122283437 heartbeat IPC: 0.69985 cumulative IPC: 0.817772 (Simulation time: 12 hr 19 min 52 sec) 
 Total Blocks : 196608 Invalid Blocks : 0 Valid Blocks : 196608
 Total Tags : 491520 Threshold : 12288 Invalid Tags : 196608 Pr0 Tags : 98304 Pr1 Tags : 196608 num_pr0 : 12288
 SAE Count : 0
 Inter-Core Inteference in Data Store : 2885648
Heartbeat CPU 0 instructions: 100000000 cycles: 122402458 heartbeat IPC: 0.698476 cumulative IPC: 0.816977 (Simulation time: 12 hr 20 min 0 sec) 
 Total Blocks : 196608 Invalid Blocks : 0 Valid Blocks : 196608
 Total Tags : 491520 Threshold : 12288 Invalid Tags : 196609 Pr0 Tags : 98303 Pr1 Tags : 196608 num_pr0 : 12288
 SAE Count : 0
 Inter-Core Inteference in Data Store : 2887104
Heartbeat CPU 1 instructions: 100000000 cycles: 122403442 heartbeat IPC: 0.69849 cumulative IPC: 0.81697 (Simulation time: 12 hr 20 min 0 sec) 
 Total Blocks : 196608 Invalid Blocks : 0 Valid Blocks : 196608
 Total Tags : 491520 Threshold : 12288 Invalid Tags : 196610 Pr0 Tags : 98302 Pr1 Tags : 196608 num_pr0 : 12287
 SAE Count : 0
 Inter-Core Inteference in Data Store : 2887117
FILL
Heartbeat CPU 6 instructions: 110000000 cycles: 139625351 heartbeat IPC: 0.576075 cumulative IPC: 0.787823 (Simulation time: 12 hr 35 min 25 sec) 
 Total Blocks : 196608 Invalid Blocks : 0 Valid Blocks : 196608
 Total Tags : 491520 Threshold : 12288 Invalid Tags : 196608 Pr0 Tags : 98304 Pr1 Tags : 196608 num_pr0 : 12288
 SAE Count : 0
 Inter-Core Inteference in Data Store : 3157828
Heartbeat CPU 7 instructions: 110000000 cycles: 139631389 heartbeat IPC: 0.576058 cumulative IPC: 0.787789 (Simulation time: 12 hr 35 min 25 sec) 
 Total Blocks : 196608 Invalid Blocks : 0 Valid Blocks : 196608
 Total Tags : 491520 Threshold : 12288 Invalid Tags : 196608 Pr0 Tags : 98304 Pr1 Tags : 196608 num_pr0 : 12288
 SAE Count : 0
 Inter-Core Inteference in Data Store : 3157929
Heartbeat CPU 2 instructions: 110000000 cycles: 139652936 heartbeat IPC: 0.575648 cumulative IPC: 0.787667 (Simulation time: 12 hr 35 min 26 sec) 
 Total Blocks : 196608 Invalid Blocks : 0 Valid Blocks : 196608
 Total Tags : 491520 Threshold : 12288 Invalid Tags : 196608 Pr0 Tags : 98304 Pr1 Tags : 196608 num_pr0 : 12288
 SAE Count : 0
 Inter-Core Inteference in Data Store : 3158222
Heartbeat CPU 3 instructions: 110000000 cycles: 139653097 heartbeat IPC: 0.575624 cumulative IPC: 0.787666 (Simulation time: 12 hr 35 min 26 sec) 
 Total Blocks : 196608 Invalid Blocks : 0 Valid Blocks : 196608
 Total Tags : 491520 Threshold : 12288 Invalid Tags : 196609 Pr0 Tags : 98303 Pr1 Tags : 196608 num_pr0 : 12288
 SAE Count : 0
 Inter-Core Inteference in Data Store : 3158224
Heartbeat CPU 4 instructions: 110000000 cycles: 139655616 heartbeat IPC: 0.575631 cumulative IPC: 0.787652 (Simulation time: 12 hr 35 min 26 sec) 
 Total Blocks : 196608 Invalid Blocks : 0 Valid Blocks : 196608
 Total Tags : 491520 Threshold : 12288 Invalid Tags : 196608 Pr0 Tags : 98304 Pr1 Tags : 196608 num_pr0 : 12288
 SAE Count : 0
 Inter-Core Inteference in Data Store : 3158254
Heartbeat CPU 5 instructions: 110000000 cycles: 139655723 heartbeat IPC: 0.575629 cumulative IPC: 0.787651 (Simulation time: 12 hr 35 min 26 sec) 
 Total Blocks : 196608 Invalid Blocks : 0 Valid Blocks : 196608
 Total Tags : 491520 Threshold : 12288 Invalid Tags : 196609 Pr0 Tags : 98303 Pr1 Tags : 196608 num_pr0 : 12288
 SAE Count : 0
 Inter-Core Inteference in Data Store : 3158257
Heartbeat CPU 0 instructions: 110000000 cycles: 139778364 heartbeat IPC: 0.57551 cumulative IPC: 0.78696 (Simulation time: 12 hr 35 min 32 sec) 
 Total Blocks : 196608 Invalid Blocks : 0 Valid Blocks : 196608
 Total Tags : 491520 Threshold : 12288 Invalid Tags : 196609 Pr0 Tags : 98303 Pr1 Tags : 196608 num_pr0 : 12288
 SAE Count : 0
 Inter-Core Inteference in Data Store : 3159973
Heartbeat CPU 1 instructions: 110000000 cycles: 139779668 heartbeat IPC: 0.575499 cumulative IPC: 0.786953 (Simulation time: 12 hr 35 min 33 sec) 
 Total Blocks : 196608 Invalid Blocks : 0 Valid Blocks : 196608
 Total Tags : 491520 Threshold : 12288 Invalid Tags : 196608 Pr0 Tags : 98304 Pr1 Tags : 196608 num_pr0 : 12288
 SAE Count : 0
 Inter-Core Inteference in Data Store : 3159993
FILL
Heartbeat CPU 6 instructions: 120000001 cycles: 156600708 heartbeat IPC: 0.589089 cumulative IPC: 0.76628 (Simulation time: 12 hr 50 min 33 sec) 
 Total Blocks : 196608 Invalid Blocks : 0 Valid Blocks : 196608
 Total Tags : 491520 Threshold : 12288 Invalid Tags : 196608 Pr0 Tags : 98304 Pr1 Tags : 196608 num_pr0 : 12288
 SAE Count : 0
 Inter-Core Inteference in Data Store : 3220918
Heartbeat CPU 7 instructions: 120000001 cycles: 156606811 heartbeat IPC: 0.589087 cumulative IPC: 0.76625 (Simulation time: 12 hr 50 min 34 sec) 
 Total Blocks : 196608 Invalid Blocks : 0 Valid Blocks : 196608
 Total Tags : 491520 Threshold : 12288 Invalid Tags : 196608 Pr0 Tags : 98304 Pr1 Tags : 196608 num_pr0 : 12288
 SAE Count : 0
 Inter-Core Inteference in Data Store : 3220919
Heartbeat CPU 2 instructions: 120000001 cycles: 156631719 heartbeat IPC: 0.58897 cumulative IPC: 0.766128 (Simulation time: 12 hr 50 min 35 sec) 
 Total Blocks : 196608 Invalid Blocks : 0 Valid Blocks : 196608
 Total Tags : 491520 Threshold : 12288 Invalid Tags : 196608 Pr0 Tags : 98304 Pr1 Tags : 196608 num_pr0 : 12288
 SAE Count : 0
 Inter-Core Inteference in Data Store : 3220923
Heartbeat CPU 3 instructions: 120000001 cycles: 156631837 heartbeat IPC: 0.588972 cumulative IPC: 0.766128 (Simulation time: 12 hr 50 min 35 sec) 
 Total Blocks : 196608 Invalid Blocks : 0 Valid Blocks : 196608
 Total Tags : 491520 Threshold : 12288 Invalid Tags : 196608 Pr0 Tags : 98304 Pr1 Tags : 196608 num_pr0 : 12288
 SAE Count : 0
 Inter-Core Inteference in Data Store : 3220923
Heartbeat CPU 4 instructions: 120000001 cycles: 156634350 heartbeat IPC: 0.588972 cumulative IPC: 0.766115 (Simulation time: 12 hr 50 min 36 sec) 
 Total Blocks : 196608 Invalid Blocks : 0 Valid Blocks : 196608
 Total Tags : 491520 Threshold : 12288 Invalid Tags : 196608 Pr0 Tags : 98304 Pr1 Tags : 196608 num_pr0 : 12288
 SAE Count : 0
 Inter-Core Inteference in Data Store : 3220925
Heartbeat CPU 5 instructions: 120000001 cycles: 156634521 heartbeat IPC: 0.58897 cumulative IPC: 0.766115 (Simulation time: 12 hr 50 min 36 sec) 
 Total Blocks : 196608 Invalid Blocks : 0 Valid Blocks : 196608
 Total Tags : 491520 Threshold : 12288 Invalid Tags : 196608 Pr0 Tags : 98304 Pr1 Tags : 196608 num_pr0 : 12288
 SAE Count : 0
 Inter-Core Inteference in Data Store : 3220925
Heartbeat CPU 0 instructions: 120000001 cycles: 156757423 heartbeat IPC: 0.588961 cumulative IPC: 0.765514 (Simulation time: 12 hr 50 min 43 sec) 
 Total Blocks : 196608 Invalid Blocks : 0 Valid Blocks : 196608
 Total Tags : 491520 Threshold : 12288 Invalid Tags : 196609 Pr0 Tags : 98303 Pr1 Tags : 196608 num_pr0 : 12287
 SAE Count : 0
 Inter-Core Inteference in Data Store : 3220940
Heartbeat CPU 1 instructions: 120000001 cycles: 156758692 heartbeat IPC: 0.588962 cumulative IPC: 0.765508 (Simulation time: 12 hr 50 min 43 sec) 
 Total Blocks : 196608 Invalid Blocks : 0 Valid Blocks : 196608
 Total Tags : 491520 Threshold : 12288 Invalid Tags : 196608 Pr0 Tags : 98304 Pr1 Tags : 196608 num_pr0 : 12288
 SAE Count : 0
 Inter-Core Inteference in Data Store : 3220940
Heartbeat CPU 6 instructions: 130000000 cycles: 161902586 heartbeat IPC: 1.88612 cumulative IPC: 0.802952 (Simulation time: 13 hr 5 min 12 sec) 
 Total Blocks : 196608 Invalid Blocks : 0 Valid Blocks : 196608
 Total Tags : 491520 Threshold : 12288 Invalid Tags : 196610 Pr0 Tags : 98302 Pr1 Tags : 196608 num_pr0 : 12288
 SAE Count : 0
 Inter-Core Inteference in Data Store : 3221346
Heartbeat CPU 7 instructions: 130000000 cycles: 161908694 heartbeat IPC: 1.88612 cumulative IPC: 0.802922 (Simulation time: 13 hr 5 min 14 sec) 
 Total Blocks : 196608 Invalid Blocks : 0 Valid Blocks : 196608
 Total Tags : 491520 Threshold : 12288 Invalid Tags : 196611 Pr0 Tags : 98301 Pr1 Tags : 196608 num_pr0 : 12288
 SAE Count : 0
 Inter-Core Inteference in Data Store : 3221348
Heartbeat CPU 2 instructions: 130000000 cycles: 161933583 heartbeat IPC: 1.88613 cumulative IPC: 0.802798 (Simulation time: 13 hr 5 min 20 sec) 
 Total Blocks : 196608 Invalid Blocks : 0 Valid Blocks : 196608
 Total Tags : 491520 Threshold : 12288 Invalid Tags : 196611 Pr0 Tags : 98301 Pr1 Tags : 196608 num_pr0 : 12288
 SAE Count : 0
 Inter-Core Inteference in Data Store : 3221348
Heartbeat CPU 3 instructions: 130000000 cycles: 161933718 heartbeat IPC: 1.88612 cumulative IPC: 0.802798 (Simulation time: 13 hr 5 min 20 sec) 
 Total Blocks : 196608 Invalid Blocks : 0 Valid Blocks : 196608
 Total Tags : 491520 Threshold : 12288 Invalid Tags : 196611 Pr0 Tags : 98301 Pr1 Tags : 196608 num_pr0 : 12288
 SAE Count : 0
 Inter-Core Inteference in Data Store : 3221348
Heartbeat CPU 4 instructions: 130000000 cycles: 161936224 heartbeat IPC: 1.88613 cumulative IPC: 0.802785 (Simulation time: 13 hr 5 min 21 sec) 
 Total Blocks : 196608 Invalid Blocks : 0 Valid Blocks : 196608
 Total Tags : 491520 Threshold : 12288 Invalid Tags : 196611 Pr0 Tags : 98301 Pr1 Tags : 196608 num_pr0 : 12288
 SAE Count : 0
 Inter-Core Inteference in Data Store : 3221348
Heartbeat CPU 5 instructions: 130000000 cycles: 161936379 heartbeat IPC: 1.88613 cumulative IPC: 0.802784 (Simulation time: 13 hr 5 min 21 sec) 
 Total Blocks : 196608 Invalid Blocks : 0 Valid Blocks : 196608
 Total Tags : 491520 Threshold : 12288 Invalid Tags : 196611 Pr0 Tags : 98301 Pr1 Tags : 196608 num_pr0 : 12288
 SAE Count : 0
 Inter-Core Inteference in Data Store : 3221348
Heartbeat CPU 0 instructions: 130000000 cycles: 162059364 heartbeat IPC: 1.8861 cumulative IPC: 0.802175 (Simulation time: 13 hr 5 min 50 sec) 
 Total Blocks : 196608 Invalid Blocks : 0 Valid Blocks : 196608
 Total Tags : 491520 Threshold : 12288 Invalid Tags : 196613 Pr0 Tags : 98299 Pr1 Tags : 196608 num_pr0 : 12288
 SAE Count : 0
 Inter-Core Inteference in Data Store : 3221353
Heartbeat CPU 1 instructions: 130000000 cycles: 162060657 heartbeat IPC: 1.88609 cumulative IPC: 0.802169 (Simulation time: 13 hr 5 min 52 sec) 
 Total Blocks : 196608 Invalid Blocks : 0 Valid Blocks : 196608
 Total Tags : 491520 Threshold : 12288 Invalid Tags : 196613 Pr0 Tags : 98299 Pr1 Tags : 196608 num_pr0 : 12288
 SAE Count : 0
 Inter-Core Inteference in Data Store : 3221353
Heartbeat CPU 6 instructions: 140000000 cycles: 167389718 heartbeat IPC: 1.82245 cumulative IPC: 0.836372 (Simulation time: 13 hr 24 min 38 sec) 
 Total Blocks : 196608 Invalid Blocks : 0 Valid Blocks : 196608
 Total Tags : 491520 Threshold : 12288 Invalid Tags : 196611 Pr0 Tags : 98301 Pr1 Tags : 196608 num_pr0 : 12287
 SAE Count : 0
 Inter-Core Inteference in Data Store : 3284754
Heartbeat CPU 7 instructions: 140000000 cycles: 167395819 heartbeat IPC: 1.82245 cumulative IPC: 0.836341 (Simulation time: 13 hr 24 min 39 sec) 
 Total Blocks : 196608 Invalid Blocks : 0 Valid Blocks : 196608
 Total Tags : 491520 Threshold : 12288 Invalid Tags : 196610 Pr0 Tags : 98302 Pr1 Tags : 196608 num_pr0 : 12287
 SAE Count : 0
 Inter-Core Inteference in Data Store : 3284904
Heartbeat CPU 2 instructions: 140000000 cycles: 167420697 heartbeat IPC: 1.82245 cumulative IPC: 0.836217 (Simulation time: 13 hr 24 min 40 sec) 
 Total Blocks : 196608 Invalid Blocks : 0 Valid Blocks : 196608
 Total Tags : 491520 Threshold : 12288 Invalid Tags : 196613 Pr0 Tags : 98299 Pr1 Tags : 196608 num_pr0 : 12288
 SAE Count : 0
 Inter-Core Inteference in Data Store : 3285561
Heartbeat CPU 3 instructions: 140000000 cycles: 167420823 heartbeat IPC: 1.82245 cumulative IPC: 0.836216 (Simulation time: 13 hr 24 min 40 sec) 
 Total Blocks : 196608 Invalid Blocks : 0 Valid Blocks : 196608
 Total Tags : 491520 Threshold : 12288 Invalid Tags : 196610 Pr0 Tags : 98302 Pr1 Tags : 196608 num_pr0 : 12288
 SAE Count : 0
 Inter-Core Inteference in Data Store : 3285565
Heartbeat CPU 4 instructions: 140000000 cycles: 167423338 heartbeat IPC: 1.82245 cumulative IPC: 0.836204 (Simulation time: 13 hr 24 min 40 sec) 
 Total Blocks : 196608 Invalid Blocks : 0 Valid Blocks : 196608
 Total Tags : 491520 Threshold : 12288 Invalid Tags : 196610 Pr0 Tags : 98302 Pr1 Tags : 196608 num_pr0 : 12287
 SAE Count : 0
 Inter-Core Inteference in Data Store : 3285645
Heartbeat CPU 5 instructions: 140000000 cycles: 167423493 heartbeat IPC: 1.82245 cumulative IPC: 0.836203 (Simulation time: 13 hr 24 min 40 sec) 
 Total Blocks : 196608 Invalid Blocks : 0 Valid Blocks : 196608
 Total Tags : 491520 Threshold : 12288 Invalid Tags : 196613 Pr0 Tags : 98299 Pr1 Tags : 196608 num_pr0 : 12287
 SAE Count : 0
 Inter-Core Inteference in Data Store : 3285650
Heartbeat CPU 0 instructions: 140000000 cycles: 167546441 heartbeat IPC: 1.82246 cumulative IPC: 0.835589 (Simulation time: 13 hr 24 min 47 sec) 
 Total Blocks : 196608 Invalid Blocks : 0 Valid Blocks : 196608
 Total Tags : 491520 Threshold : 12288 Invalid Tags : 196613 Pr0 Tags : 98299 Pr1 Tags : 196608 num_pr0 : 12288
 SAE Count : 0
 Inter-Core Inteference in Data Store : 3288888
Heartbeat CPU 1 instructions: 140000000 cycles: 167547928 heartbeat IPC: 1.8224 cumulative IPC: 0.835582 (Simulation time: 13 hr 24 min 47 sec) 
 Total Blocks : 196608 Invalid Blocks : 0 Valid Blocks : 196608
 Total Tags : 491520 Threshold : 12288 Invalid Tags : 196609 Pr0 Tags : 98303 Pr1 Tags : 196608 num_pr0 : 12288
 SAE Count : 0
 Inter-Core Inteference in Data Store : 3288932
FILL
Heartbeat CPU 6 instructions: 150000000 cycles: 181791454 heartbeat IPC: 0.694361 cumulative IPC: 0.825121 (Simulation time: 13 hr 38 min 14 sec) 
 Total Blocks : 196608 Invalid Blocks : 0 Valid Blocks : 196608
 Total Tags : 491520 Threshold : 12288 Invalid Tags : 196609 Pr0 Tags : 98303 Pr1 Tags : 196608 num_pr0 : 12288
 SAE Count : 0
 Inter-Core Inteference in Data Store : 3766877
Heartbeat CPU 7 instructions: 150000000 cycles: 181798077 heartbeat IPC: 0.694336 cumulative IPC: 0.825091 (Simulation time: 13 hr 38 min 14 sec) 
 Total Blocks : 196608 Invalid Blocks : 0 Valid Blocks : 196608
 Total Tags : 491520 Threshold : 12288 Invalid Tags : 196608 Pr0 Tags : 98304 Pr1 Tags : 196608 num_pr0 : 12288
 SAE Count : 0
 Inter-Core Inteference in Data Store : 3766965
Heartbeat CPU 3 instructions: 150000000 cycles: 181822263 heartbeat IPC: 0.694375 cumulative IPC: 0.824982 (Simulation time: 13 hr 38 min 16 sec) 
 Total Blocks : 196608 Invalid Blocks : 0 Valid Blocks : 196608
 Total Tags : 491520 Threshold : 12288 Invalid Tags : 196609 Pr0 Tags : 98303 Pr1 Tags : 196608 num_pr0 : 12288
 SAE Count : 0
 Inter-Core Inteference in Data Store : 3767309
Heartbeat CPU 2 instructions: 150000000 cycles: 181823104 heartbeat IPC: 0.694328 cumulative IPC: 0.824978 (Simulation time: 13 hr 38 min 16 sec) 
 Total Blocks : 196608 Invalid Blocks : 0 Valid Blocks : 196608
 Total Tags : 491520 Threshold : 12288 Invalid Tags : 196608 Pr0 Tags : 98304 Pr1 Tags : 196608 num_pr0 : 12288
 SAE Count : 0
 Inter-Core Inteference in Data Store : 3767319
Heartbeat CPU 4 instructions: 150000000 cycles: 181824941 heartbeat IPC: 0.694367 cumulative IPC: 0.824969 (Simulation time: 13 hr 38 min 16 sec) 
 Total Blocks : 196608 Invalid Blocks : 0 Valid Blocks : 196608
 Total Tags : 491520 Threshold : 12288 Invalid Tags : 196608 Pr0 Tags : 98304 Pr1 Tags : 196608 num_pr0 : 12288
 SAE Count : 0
 Inter-Core Inteference in Data Store : 3767336
Heartbeat CPU 5 instructions: 150000000 cycles: 181825253 heartbeat IPC: 0.69436 cumulative IPC: 0.824968 (Simulation time: 13 hr 38 min 16 sec) 
 Total Blocks : 196608 Invalid Blocks : 0 Valid Blocks : 196608
 Total Tags : 491520 Threshold : 12288 Invalid Tags : 196608 Pr0 Tags : 98304 Pr1 Tags : 196608 num_pr0 : 12288
 SAE Count : 0
 Inter-Core Inteference in Data Store : 3767339
Heartbeat CPU 0 instructions: 150000000 cycles: 181950817 heartbeat IPC: 0.694233 cumulative IPC: 0.824399 (Simulation time: 13 hr 38 min 25 sec) 
 Total Blocks : 196608 Invalid Blocks : 0 Valid Blocks : 196608
 Total Tags : 491520 Threshold : 12288 Invalid Tags : 196608 Pr0 Tags : 98304 Pr1 Tags : 196608 num_pr0 : 12288
 SAE Count : 0
 Inter-Core Inteference in Data Store : 3768754
Heartbeat CPU 1 instructions: 150000000 cycles: 181952194 heartbeat IPC: 0.694239 cumulative IPC: 0.824392 (Simulation time: 13 hr 38 min 25 sec) 
 Total Blocks : 196608 Invalid Blocks : 0 Valid Blocks : 196608
 Total Tags : 491520 Threshold : 12288 Invalid Tags : 196609 Pr0 Tags : 98303 Pr1 Tags : 196608 num_pr0 : 12287
 SAE Count : 0
 Inter-Core Inteference in Data Store : 3768761
Heartbeat CPU 6 instructions: 160000000 cycles: 196455345 heartbeat IPC: 0.681947 cumulative IPC: 0.814434 (Simulation time: 13 hr 54 min 18 sec) 
 Total Blocks : 196608 Invalid Blocks : 0 Valid Blocks : 196608
 Total Tags : 491520 Threshold : 12288 Invalid Tags : 196608 Pr0 Tags : 98304 Pr1 Tags : 196608 num_pr0 : 12288
 SAE Count : 0
 Inter-Core Inteference in Data Store : 3915221
Heartbeat CPU 7 instructions: 160000000 cycles: 196462768 heartbeat IPC: 0.68191 cumulative IPC: 0.814404 (Simulation time: 13 hr 54 min 18 sec) 
 Total Blocks : 196608 Invalid Blocks : 0 Valid Blocks : 196608
 Total Tags : 491520 Threshold : 12288 Invalid Tags : 196610 Pr0 Tags : 98302 Pr1 Tags : 196608 num_pr0 : 12288
 SAE Count : 0
 Inter-Core Inteference in Data Store : 3915307
Heartbeat CPU 3 instructions: 160000000 cycles: 196486864 heartbeat IPC: 0.681914 cumulative IPC: 0.814304 (Simulation time: 13 hr 54 min 19 sec) 
 Total Blocks : 196608 Invalid Blocks : 0 Valid Blocks : 196608
 Total Tags : 491520 Threshold : 12288 Invalid Tags : 196608 Pr0 Tags : 98304 Pr1 Tags : 196608 num_pr0 : 12288
 SAE Count : 0
 Inter-Core Inteference in Data Store : 3915530
Heartbeat CPU 2 instructions: 160000000 cycles: 196488940 heartbeat IPC: 0.681857 cumulative IPC: 0.814295 (Simulation time: 13 hr 54 min 19 sec) 
 Total Blocks : 196608 Invalid Blocks : 0 Valid Blocks : 196608
 Total Tags : 491520 Threshold : 12288 Invalid Tags : 196608 Pr0 Tags : 98304 Pr1 Tags : 196608 num_pr0 : 12288
 SAE Count : 0
 Inter-Core Inteference in Data Store : 3915561
Heartbeat CPU 4 instructions: 160000000 cycles: 196490731 heartbeat IPC: 0.681859 cumulative IPC: 0.814288 (Simulation time: 13 hr 54 min 20 sec) 
 Total Blocks : 196608 Invalid Blocks : 0 Valid Blocks : 196608
 Total Tags : 491520 Threshold : 12288 Invalid Tags : 196608 Pr0 Tags : 98304 Pr1 Tags : 196608 num_pr0 : 12288
 SAE Count : 0
 Inter-Core Inteference in Data Store : 3915590
Heartbeat CPU 5 instructions: 160000000 cycles: 196490943 heartbeat IPC: 0.681864 cumulative IPC: 0.814287 (Simulation time: 13 hr 54 min 20 sec) 
 Total Blocks : 196608 Invalid Blocks : 0 Valid Blocks : 196608
 Total Tags : 491520 Threshold : 12288 Invalid Tags : 196608 Pr0 Tags : 98304 Pr1 Tags : 196608 num_pr0 : 12288
 SAE Count : 0
 Inter-Core Inteference in Data Store : 3915591
Heartbeat CPU 0 instructions: 160000000 cycles: 196640621 heartbeat IPC: 0.680744 cumulative IPC: 0.813667 (Simulation time: 13 hr 54 min 29 sec) 
 Total Blocks : 196608 Invalid Blocks : 0 Valid Blocks : 196608
 Total Tags : 491520 Threshold : 12288 Invalid Tags : 196608 Pr0 Tags : 98304 Pr1 Tags : 196608 num_pr0 : 12288
 SAE Count : 0
 Inter-Core Inteference in Data Store : 3917255
Heartbeat CPU 1 instructions: 160000000 cycles: 196641978 heartbeat IPC: 0.680745 cumulative IPC: 0.813661 (Simulation time: 13 hr 54 min 29 sec) 
 Total Blocks : 196608 Invalid Blocks : 0 Valid Blocks : 196608
 Total Tags : 491520 Threshold : 12288 Invalid Tags : 196609 Pr0 Tags : 98303 Pr1 Tags : 196608 num_pr0 : 12287
 SAE Count : 0
 Inter-Core Inteference in Data Store : 3917264
FILL
Heartbeat CPU 6 instructions: 170000001 cycles: 211121075 heartbeat IPC: 0.681862 cumulative IPC: 0.805225 (Simulation time: 14 hr 10 min 49 sec) 
 Total Blocks : 196608 Invalid Blocks : 0 Valid Blocks : 196608
 Total Tags : 491520 Threshold : 12288 Invalid Tags : 196608 Pr0 Tags : 98304 Pr1 Tags : 196608 num_pr0 : 12288
 SAE Count : 0
 Inter-Core Inteference in Data Store : 4071927
Heartbeat CPU 7 instructions: 170000001 cycles: 211129248 heartbeat IPC: 0.681827 cumulative IPC: 0.805194 (Simulation time: 14 hr 10 min 49 sec) 
 Total Blocks : 196608 Invalid Blocks : 0 Valid Blocks : 196608
 Total Tags : 491520 Threshold : 12288 Invalid Tags : 196610 Pr0 Tags : 98302 Pr1 Tags : 196608 num_pr0 : 12287
 SAE Count : 0
 Inter-Core Inteference in Data Store : 4072043
Heartbeat CPU 3 instructions: 170000001 cycles: 211153951 heartbeat IPC: 0.681799 cumulative IPC: 0.8051 (Simulation time: 14 hr 10 min 50 sec) 
 Total Blocks : 196608 Invalid Blocks : 0 Valid Blocks : 196608
 Total Tags : 491520 Threshold : 12288 Invalid Tags : 196608 Pr0 Tags : 98304 Pr1 Tags : 196608 num_pr0 : 12288
 SAE Count : 0
 Inter-Core Inteference in Data Store : 4072346
Heartbeat CPU 2 instructions: 170000001 cycles: 211155531 heartbeat IPC: 0.681822 cumulative IPC: 0.805094 (Simulation time: 14 hr 10 min 50 sec) 
 Total Blocks : 196608 Invalid Blocks : 0 Valid Blocks : 196608
 Total Tags : 491520 Threshold : 12288 Invalid Tags : 196608 Pr0 Tags : 98304 Pr1 Tags : 196608 num_pr0 : 12288
 SAE Count : 0
 Inter-Core Inteference in Data Store : 4072352
Heartbeat CPU 4 instructions: 170000001 cycles: 211158012 heartbeat IPC: 0.68179 cumulative IPC: 0.805084 (Simulation time: 14 hr 10 min 51 sec) 
 Total Blocks : 196608 Invalid Blocks : 0 Valid Blocks : 196608
 Total Tags : 491520 Threshold : 12288 Invalid Tags : 196608 Pr0 Tags : 98304 Pr1 Tags : 196608 num_pr0 : 12288
 SAE Count : 0
 Inter-Core Inteference in Data Store : 4072375
Heartbeat CPU 5 instructions: 170000001 cycles: 211158463 heartbeat IPC: 0.681779 cumulative IPC: 0.805083 (Simulation time: 14 hr 10 min 51 sec) 
 Total Blocks : 196608 Invalid Blocks : 0 Valid Blocks : 196608
 Total Tags : 491520 Threshold : 12288 Invalid Tags : 196609 Pr0 Tags : 98303 Pr1 Tags : 196608 num_pr0 : 12288
 SAE Count : 0
 Inter-Core Inteference in Data Store : 4072379
Heartbeat CPU 0 instructions: 170000001 cycles: 211334008 heartbeat IPC: 0.680578 cumulative IPC: 0.804414 (Simulation time: 14 hr 11 min 1 sec) 
 Total Blocks : 196608 Invalid Blocks : 0 Valid Blocks : 196608
 Total Tags : 491520 Threshold : 12288 Invalid Tags : 196609 Pr0 Tags : 98303 Pr1 Tags : 196608 num_pr0 : 12288
 SAE Count : 0
 Inter-Core Inteference in Data Store : 4074292
Heartbeat CPU 1 instructions: 170000001 cycles: 211335353 heartbeat IPC: 0.680579 cumulative IPC: 0.804409 (Simulation time: 14 hr 11 min 1 sec) 
 Total Blocks : 196608 Invalid Blocks : 0 Valid Blocks : 196608
 Total Tags : 491520 Threshold : 12288 Invalid Tags : 196609 Pr0 Tags : 98303 Pr1 Tags : 196608 num_pr0 : 12288
 SAE Count : 0
 Inter-Core Inteference in Data Store : 4074306
Heartbeat CPU 6 instructions: 180000002 cycles: 225972120 heartbeat IPC: 0.673353 cumulative IPC: 0.796558 (Simulation time: 14 hr 26 min 36 sec) 
 Total Blocks : 196608 Invalid Blocks : 0 Valid Blocks : 196608
 Total Tags : 491520 Threshold : 12288 Invalid Tags : 196609 Pr0 Tags : 98303 Pr1 Tags : 196608 num_pr0 : 12288
 SAE Count : 0
 Inter-Core Inteference in Data Store : 4248350
Heartbeat CPU 7 instructions: 180000002 cycles: 225981069 heartbeat IPC: 0.673318 cumulative IPC: 0.796527 (Simulation time: 14 hr 26 min 37 sec) 
 Total Blocks : 196608 Invalid Blocks : 0 Valid Blocks : 196608
 Total Tags : 491520 Threshold : 12288 Invalid Tags : 196608 Pr0 Tags : 98304 Pr1 Tags : 196608 num_pr0 : 12288
 SAE Count : 0
 Inter-Core Inteference in Data Store : 4248512
Heartbeat CPU 3 instructions: 180000002 cycles: 226008110 heartbeat IPC: 0.673212 cumulative IPC: 0.796432 (Simulation time: 14 hr 26 min 38 sec) 
 Total Blocks : 196608 Invalid Blocks : 0 Valid Blocks : 196608
 Total Tags : 491520 Threshold : 12288 Invalid Tags : 196612 Pr0 Tags : 98300 Pr1 Tags : 196608 num_pr0 : 12287
 SAE Count : 0
 Inter-Core Inteference in Data Store : 4249135
Heartbeat CPU 2 instructions: 180000002 cycles: 226008710 heartbeat IPC: 0.673257 cumulative IPC: 0.79643 (Simulation time: 14 hr 26 min 38 sec) 
 Total Blocks : 196608 Invalid Blocks : 0 Valid Blocks : 196608
 Total Tags : 491520 Threshold : 12288 Invalid Tags : 196611 Pr0 Tags : 98301 Pr1 Tags : 196608 num_pr0 : 12287
 SAE Count : 0
 Inter-Core Inteference in Data Store : 4249151
Heartbeat CPU 4 instructions: 180000002 cycles: 226012410 heartbeat IPC: 0.673201 cumulative IPC: 0.796416 (Simulation time: 14 hr 26 min 38 sec) 
 Total Blocks : 196608 Invalid Blocks : 0 Valid Blocks : 196608
 Total Tags : 491520 Threshold : 12288 Invalid Tags : 196608 Pr0 Tags : 98304 Pr1 Tags : 196608 num_pr0 : 12288
 SAE Count : 0
 Inter-Core Inteference in Data Store : 4249253
Heartbeat CPU 5 instructions: 180000002 cycles: 226012748 heartbeat IPC: 0.673207 cumulative IPC: 0.796415 (Simulation time: 14 hr 26 min 38 sec) 
 Total Blocks : 196608 Invalid Blocks : 0 Valid Blocks : 196608
 Total Tags : 491520 Threshold : 12288 Invalid Tags : 196608 Pr0 Tags : 98304 Pr1 Tags : 196608 num_pr0 : 12288
 SAE Count : 0
 Inter-Core Inteference in Data Store : 4249261
Heartbeat CPU 0 instructions: 180000002 cycles: 226213195 heartbeat IPC: 0.67208 cumulative IPC: 0.79571 (Simulation time: 14 hr 26 min 49 sec) 
 Total Blocks : 196608 Invalid Blocks : 0 Valid Blocks : 196608
 Total Tags : 491520 Threshold : 12288 Invalid Tags : 196610 Pr0 Tags : 98302 Pr1 Tags : 196608 num_pr0 : 12288
 SAE Count : 0
 Inter-Core Inteference in Data Store : 4253815
Heartbeat CPU 1 instructions: 180000002 cycles: 226214056 heartbeat IPC: 0.672102 cumulative IPC: 0.795707 (Simulation time: 14 hr 26 min 49 sec) 
 Total Blocks : 196608 Invalid Blocks : 0 Valid Blocks : 196608
 Total Tags : 491520 Threshold : 12288 Invalid Tags : 196609 Pr0 Tags : 98303 Pr1 Tags : 196608 num_pr0 : 12288
 SAE Count : 0
 Inter-Core Inteference in Data Store : 4253833
FILL
Heartbeat CPU 6 instructions: 190000000 cycles: 244142745 heartbeat IPC: 0.550339 cumulative IPC: 0.778233 (Simulation time: 14 hr 41 min 14 sec) 
 Total Blocks : 196608 Invalid Blocks : 0 Valid Blocks : 196608
 Total Tags : 491520 Threshold : 12288 Invalid Tags : 196608 Pr0 Tags : 98304 Pr1 Tags : 196608 num_pr0 : 12288
 SAE Count : 0
 Inter-Core Inteference in Data Store : 4594843
Heartbeat CPU 7 instructions: 190000000 cycles: 244151619 heartbeat IPC: 0.550341 cumulative IPC: 0.778205 (Simulation time: 14 hr 41 min 14 sec) 
 Total Blocks : 196608 Invalid Blocks : 0 Valid Blocks : 196608
 Total Tags : 491520 Threshold : 12288 Invalid Tags : 196610 Pr0 Tags : 98302 Pr1 Tags : 196608 num_pr0 : 12288
 SAE Count : 0
 Inter-Core Inteference in Data Store : 4595039
Heartbeat CPU 3 instructions: 190000000 cycles: 244200254 heartbeat IPC: 0.549688 cumulative IPC: 0.77805 (Simulation time: 14 hr 41 min 17 sec) 
 Total Blocks : 196608 Invalid Blocks : 0 Valid Blocks : 196608
 Total Tags : 491520 Threshold : 12288 Invalid Tags : 196609 Pr0 Tags : 98303 Pr1 Tags : 196608 num_pr0 : 12287
 SAE Count : 0
 Inter-Core Inteference in Data Store : 4595969
Heartbeat CPU 2 instructions: 190000000 cycles: 244200391 heartbeat IPC: 0.549702 cumulative IPC: 0.77805 (Simulation time: 14 hr 41 min 17 sec) 
 Total Blocks : 196608 Invalid Blocks : 0 Valid Blocks : 196608
 Total Tags : 491520 Threshold : 12288 Invalid Tags : 196611 Pr0 Tags : 98301 Pr1 Tags : 196608 num_pr0 : 12287
 SAE Count : 0
 Inter-Core Inteference in Data Store : 4595971
Heartbeat CPU 4 instructions: 190000000 cycles: 244204341 heartbeat IPC: 0.549694 cumulative IPC: 0.778037 (Simulation time: 14 hr 41 min 17 sec) 
 Total Blocks : 196608 Invalid Blocks : 0 Valid Blocks : 196608
 Total Tags : 491520 Threshold : 12288 Invalid Tags : 196608 Pr0 Tags : 98304 Pr1 Tags : 196608 num_pr0 : 12288
 SAE Count : 0
 Inter-Core Inteference in Data Store : 4596050
Heartbeat CPU 5 instructions: 190000000 cycles: 244204801 heartbeat IPC: 0.54969 cumulative IPC: 0.778035 (Simulation time: 14 hr 41 min 17 sec) 
 Total Blocks : 196608 Invalid Blocks : 0 Valid Blocks : 196608
 Total Tags : 491520 Threshold : 12288 Invalid Tags : 196612 Pr0 Tags : 98300 Pr1 Tags : 196608 num_pr0 : 12287
 SAE Count : 0
 Inter-Core Inteference in Data Store : 4596063
Heartbeat CPU 0 instructions: 190000000 cycles: 244404994 heartbeat IPC: 0.549698 cumulative IPC: 0.777398 (Simulation time: 14 hr 41 min 29 sec) 
 Total Blocks : 196608 Invalid Blocks : 0 Valid Blocks : 196608
 Total Tags : 491520 Threshold : 12288 Invalid Tags : 196608 Pr0 Tags : 98304 Pr1 Tags : 196608 num_pr0 : 12288
 SAE Count : 0
 Inter-Core Inteference in Data Store : 4599917
Heartbeat CPU 1 instructions: 190000000 cycles: 244405870 heartbeat IPC: 0.549698 cumulative IPC: 0.777395 (Simulation time: 14 hr 41 min 29 sec) 
 Total Blocks : 196608 Invalid Blocks : 0 Valid Blocks : 196608
 Total Tags : 491520 Threshold : 12288 Invalid Tags : 196608 Pr0 Tags : 98304 Pr1 Tags : 196608 num_pr0 : 12288
 SAE Count : 0
 Inter-Core Inteference in Data Store : 4599931
FILL
Heartbeat CPU 6 instructions: 200000000 cycles: 261218006 heartbeat IPC: 0.585643 cumulative IPC: 0.765644 (Simulation time: 14 hr 55 min 6 sec) 
 Total Blocks : 196608 Invalid Blocks : 0 Valid Blocks : 196608
 Total Tags : 491520 Threshold : 12288 Invalid Tags : 196608 Pr0 Tags : 98304 Pr1 Tags : 196608 num_pr0 : 12288
 SAE Count : 0
 Inter-Core Inteference in Data Store : 4683601
Heartbeat CPU 7 instructions: 200000000 cycles: 261226720 heartbeat IPC: 0.585648 cumulative IPC: 0.765618 (Simulation time: 14 hr 55 min 6 sec) 
 Total Blocks : 196608 Invalid Blocks : 0 Valid Blocks : 196608
 Total Tags : 491520 Threshold : 12288 Invalid Tags : 196608 Pr0 Tags : 98304 Pr1 Tags : 196608 num_pr0 : 12288
 SAE Count : 0
 Inter-Core Inteference in Data Store : 4683605
Heartbeat CPU 2 instructions: 200000000 cycles: 261280585 heartbeat IPC: 0.585473 cumulative IPC: 0.765461 (Simulation time: 14 hr 55 min 9 sec) 
 Total Blocks : 196608 Invalid Blocks : 0 Valid Blocks : 196608
 Total Tags : 491520 Threshold : 12288 Invalid Tags : 196608 Pr0 Tags : 98304 Pr1 Tags : 196608 num_pr0 : 12288
 SAE Count : 0
 Inter-Core Inteference in Data Store : 4683625
Heartbeat CPU 3 instructions: 200000000 cycles: 261280602 heartbeat IPC: 0.585468 cumulative IPC: 0.765461 (Simulation time: 14 hr 55 min 9 sec) 
 Total Blocks : 196608 Invalid Blocks : 0 Valid Blocks : 196608
 Total Tags : 491520 Threshold : 12288 Invalid Tags : 196608 Pr0 Tags : 98304 Pr1 Tags : 196608 num_pr0 : 12288
 SAE Count : 0
 Inter-Core Inteference in Data Store : 4683625
Heartbeat CPU 4 instructions: 200000000 cycles: 261284565 heartbeat IPC: 0.585472 cumulative IPC: 0.765449 (Simulation time: 14 hr 55 min 10 sec) 
 Total Blocks : 196608 Invalid Blocks : 0 Valid Blocks : 196608
 Total Tags : 491520 Threshold : 12288 Invalid Tags : 196608 Pr0 Tags : 98304 Pr1 Tags : 196608 num_pr0 : 12288
 SAE Count : 0
 Inter-Core Inteference in Data Store : 4683625
Heartbeat CPU 5 instructions: 200000000 cycles: 261285074 heartbeat IPC: 0.585471 cumulative IPC: 0.765447 (Simulation time: 14 hr 55 min 10 sec) 
 Total Blocks : 196608 Invalid Blocks : 0 Valid Blocks : 196608
 Total Tags : 491520 Threshold : 12288 Invalid Tags : 196608 Pr0 Tags : 98304 Pr1 Tags : 196608 num_pr0 : 12288
 SAE Count : 0
 Inter-Core Inteference in Data Store : 4683625
Heartbeat CPU 0 instructions: 200000000 cycles: 261485825 heartbeat IPC: 0.585452 cumulative IPC: 0.76486 (Simulation time: 14 hr 55 min 20 sec) 
 Total Blocks : 196608 Invalid Blocks : 0 Valid Blocks : 196608
 Total Tags : 491520 Threshold : 12288 Invalid Tags : 196608 Pr0 Tags : 98304 Pr1 Tags : 196608 num_pr0 : 12288
 SAE Count : 0
 Inter-Core Inteference in Data Store : 4683698
Heartbeat CPU 1 instructions: 200000000 cycles: 261486663 heartbeat IPC: 0.585453 cumulative IPC: 0.764857 (Simulation time: 14 hr 55 min 20 sec) 
 Total Blocks : 196608 Invalid Blocks : 0 Valid Blocks : 196608
 Total Tags : 491520 Threshold : 12288 Invalid Tags : 196608 Pr0 Tags : 98304 Pr1 Tags : 196608 num_pr0 : 12288
 SAE Count : 0
 Inter-Core Inteference in Data Store : 4683698

Warmup complete CPU 0 instructions: 200000517 cycles: 261486664 (Simulation time: 14 hr 55 min 20 sec) 
Warmup complete CPU 1 instructions: 200000003 cycles: 261486664 (Simulation time: 14 hr 55 min 20 sec) 
Warmup complete CPU 2 instructions: 200123762 cycles: 261486663 (Simulation time: 14 hr 55 min 20 sec) 
Warmup complete CPU 3 instructions: 200123755 cycles: 261486663 (Simulation time: 14 hr 55 min 20 sec) 
Warmup complete CPU 4 instructions: 200121352 cycles: 261486663 (Simulation time: 14 hr 55 min 20 sec) 
Warmup complete CPU 5 instructions: 200120993 cycles: 261486663 (Simulation time: 14 hr 55 min 20 sec) 
Warmup complete CPU 6 instructions: 200161315 cycles: 261486663 (Simulation time: 14 hr 55 min 20 sec) 
Warmup complete CPU 7 instructions: 200155720 cycles: 261486663 (Simulation time: 14 hr 55 min 20 sec) 

Heartbeat CPU 6 instructions: 210000002 cycles: 271402504 heartbeat IPC: 0.981885 cumulative IPC: 0.992219 (Simulation time: 15 hr 18 min 29 sec) 
 Total Blocks : 196608 Invalid Blocks : 0 Valid Blocks : 196608
 Total Tags : 491520 Threshold : 12288 Invalid Tags : 196618 Pr0 Tags : 98294 Pr1 Tags : 196608 num_pr0 : 12287
 SAE Count : 0
 Inter-Core Inteference in Data Store : 729
Heartbeat CPU 7 instructions: 210000002 cycles: 271415385 heartbeat IPC: 0.981483 cumulative IPC: 0.991495 (Simulation time: 15 hr 18 min 33 sec) 
 Total Blocks : 196608 Invalid Blocks : 0 Valid Blocks : 196608
 Total Tags : 491520 Threshold : 12288 Invalid Tags : 196617 Pr0 Tags : 98295 Pr1 Tags : 196608 num_pr0 : 12287
 SAE Count : 0
 Inter-Core Inteference in Data Store : 729
Heartbeat CPU 3 instructions: 210000002 cycles: 271516526 heartbeat IPC: 0.976952 cumulative IPC: 0.984684 (Simulation time: 15 hr 18 min 56 sec) 
 Total Blocks : 196608 Invalid Blocks : 0 Valid Blocks : 196608
 Total Tags : 491520 Threshold : 12288 Invalid Tags : 196611 Pr0 Tags : 98301 Pr1 Tags : 196608 num_pr0 : 12287
 SAE Count : 0
 Inter-Core Inteference in Data Store : 729
Heartbeat CPU 2 instructions: 210000002 cycles: 271516753 heartbeat IPC: 0.976928 cumulative IPC: 0.984661 (Simulation time: 15 hr 18 min 56 sec) 
 Total Blocks : 196608 Invalid Blocks : 0 Valid Blocks : 196608
 Total Tags : 491520 Threshold : 12288 Invalid Tags : 196611 Pr0 Tags : 98301 Pr1 Tags : 196608 num_pr0 : 12287
 SAE Count : 0
 Inter-Core Inteference in Data Store : 729
Heartbeat CPU 5 instructions: 210000002 cycles: 271528780 heartbeat IPC: 0.976209 cumulative IPC: 0.983758 (Simulation time: 15 hr 18 min 59 sec) 
 Total Blocks : 196608 Invalid Blocks : 0 Valid Blocks : 196608
 Total Tags : 491520 Threshold : 12288 Invalid Tags : 196611 Pr0 Tags : 98301 Pr1 Tags : 196608 num_pr0 : 12287
 SAE Count : 0
 Inter-Core Inteference in Data Store : 729
Heartbeat CPU 4 instructions: 210000002 cycles: 271528909 heartbeat IPC: 0.976149 cumulative IPC: 0.983709 (Simulation time: 15 hr 18 min 59 sec) 
 Total Blocks : 196608 Invalid Blocks : 0 Valid Blocks : 196608
 Total Tags : 491520 Threshold : 12288 Invalid Tags : 196611 Pr0 Tags : 98301 Pr1 Tags : 196608 num_pr0 : 12287
 SAE Count : 0
 Inter-Core Inteference in Data Store : 729
Heartbeat CPU 1 instructions: 210000002 cycles: 271949404 heartbeat IPC: 0.955773 cumulative IPC: 0.955772 (Simulation time: 15 hr 20 min 44 sec) 
 Total Blocks : 196608 Invalid Blocks : 0 Valid Blocks : 196608
 Total Tags : 491520 Threshold : 12288 Invalid Tags : 196613 Pr0 Tags : 98299 Pr1 Tags : 196608 num_pr0 : 12287
 SAE Count : 0
 Inter-Core Inteference in Data Store : 747
Heartbeat CPU 0 instructions: 210000002 cycles: 271955007 heartbeat IPC: 0.955185 cumulative IPC: 0.955212 (Simulation time: 15 hr 20 min 47 sec) 
 Total Blocks : 196608 Invalid Blocks : 0 Valid Blocks : 196608
 Total Tags : 491520 Threshold : 12288 Invalid Tags : 196613 Pr0 Tags : 98299 Pr1 Tags : 196608 num_pr0 : 12287
 SAE Count : 0
 Inter-Core Inteference in Data Store : 747
Heartbeat CPU 6 instructions: 220000000 cycles: 283538910 heartbeat IPC: 0.823967 cumulative IPC: 0.899622 (Simulation time: 15 hr 49 min 20 sec) 
 Total Blocks : 196608 Invalid Blocks : 0 Valid Blocks : 196608
 Total Tags : 491520 Threshold : 12288 Invalid Tags : 196610 Pr0 Tags : 98302 Pr1 Tags : 196608 num_pr0 : 12287
 SAE Count : 0
 Inter-Core Inteference in Data Store : 65161
Heartbeat CPU 7 instructions: 220000000 cycles: 283544997 heartbeat IPC: 0.824428 cumulative IPC: 0.899627 (Simulation time: 15 hr 49 min 20 sec) 
 Total Blocks : 196608 Invalid Blocks : 0 Valid Blocks : 196608
 Total Tags : 491520 Threshold : 12288 Invalid Tags : 196611 Pr0 Tags : 98301 Pr1 Tags : 196608 num_pr0 : 12287
 SAE Count : 0
 Inter-Core Inteference in Data Store : 65225
Heartbeat CPU 2 instructions: 220000000 cycles: 283586707 heartbeat IPC: 0.828503 cumulative IPC: 0.899375 (Simulation time: 15 hr 49 min 22 sec) 
 Total Blocks : 196608 Invalid Blocks : 0 Valid Blocks : 196608
 Total Tags : 491520 Threshold : 12288 Invalid Tags : 196613 Pr0 Tags : 98299 Pr1 Tags : 196608 num_pr0 : 12288
 SAE Count : 0
 Inter-Core Inteference in Data Store : 65818
Heartbeat CPU 3 instructions: 220000000 cycles: 283600203 heartbeat IPC: 0.827563 cumulative IPC: 0.898827 (Simulation time: 15 hr 49 min 22 sec) 
 Total Blocks : 196608 Invalid Blocks : 0 Valid Blocks : 196608
 Total Tags : 491520 Threshold : 12288 Invalid Tags : 196613 Pr0 Tags : 98299 Pr1 Tags : 196608 num_pr0 : 12288
 SAE Count : 0
 Inter-Core Inteference in Data Store : 66004
Heartbeat CPU 4 instructions: 220000000 cycles: 283608065 heartbeat IPC: 0.827872 cumulative IPC: 0.898616 (Simulation time: 15 hr 49 min 22 sec) 
 Total Blocks : 196608 Invalid Blocks : 0 Valid Blocks : 196608
 Total Tags : 491520 Threshold : 12288 Invalid Tags : 196608 Pr0 Tags : 98304 Pr1 Tags : 196608 num_pr0 : 12288
 SAE Count : 0
 Inter-Core Inteference in Data Store : 66104
Heartbeat CPU 5 instructions: 220000000 cycles: 283616631 heartbeat IPC: 0.827277 cumulative IPC: 0.898284 (Simulation time: 15 hr 49 min 23 sec) 
 Total Blocks : 196608 Invalid Blocks : 0 Valid Blocks : 196608
 Total Tags : 491520 Threshold : 12288 Invalid Tags : 196612 Pr0 Tags : 98300 Pr1 Tags : 196608 num_pr0 : 12287
 SAE Count : 0
 Inter-Core Inteference in Data Store : 66263
Heartbeat CPU 0 instructions: 220000000 cycles: 283978093 heartbeat IPC: 0.831733 cumulative IPC: 0.889205 (Simulation time: 15 hr 49 min 38 sec) 
 Total Blocks : 196608 Invalid Blocks : 0 Valid Blocks : 196608
 Total Tags : 491520 Threshold : 12288 Invalid Tags : 196611 Pr0 Tags : 98301 Pr1 Tags : 196608 num_pr0 : 12288
 SAE Count : 0
 Inter-Core Inteference in Data Store : 71416
Heartbeat CPU 1 instructions: 220000000 cycles: 283982202 heartbeat IPC: 0.831062 cumulative IPC: 0.889065 (Simulation time: 15 hr 49 min 38 sec) 
 Total Blocks : 196608 Invalid Blocks : 0 Valid Blocks : 196608
 Total Tags : 491520 Threshold : 12288 Invalid Tags : 196613 Pr0 Tags : 98299 Pr1 Tags : 196608 num_pr0 : 12288
 SAE Count : 0
 Inter-Core Inteference in Data Store : 71496
FILL
Heartbeat CPU 7 instructions: 230000003 cycles: 330576019 heartbeat IPC: 0.212626 cumulative IPC: 0.431966 (Simulation time: 16 hr 32 min 57 sec) 
 Total Blocks : 196608 Invalid Blocks : 0 Valid Blocks : 196608
 Total Tags : 491520 Threshold : 12288 Invalid Tags : 196608 Pr0 Tags : 98304 Pr1 Tags : 196608 num_pr0 : 12288
 SAE Count : 0
 Inter-Core Inteference in Data Store : 892422
Heartbeat CPU 2 instructions: 230000003 cycles: 330603972 heartbeat IPC: 0.212688 cumulative IPC: 0.432254 (Simulation time: 16 hr 32 min 58 sec) 
 Total Blocks : 196608 Invalid Blocks : 0 Valid Blocks : 196608
 Total Tags : 491520 Threshold : 12288 Invalid Tags : 196608 Pr0 Tags : 98304 Pr1 Tags : 196608 num_pr0 : 12288
 SAE Count : 0
 Inter-Core Inteference in Data Store : 892987
Heartbeat CPU 6 instructions: 230000003 cycles: 330817224 heartbeat IPC: 0.211514 cumulative IPC: 0.430383 (Simulation time: 16 hr 33 min 5 sec) 
 Total Blocks : 196608 Invalid Blocks : 0 Valid Blocks : 196608
 Total Tags : 491520 Threshold : 12288 Invalid Tags : 196608 Pr0 Tags : 98304 Pr1 Tags : 196608 num_pr0 : 12288
 SAE Count : 0
 Inter-Core Inteference in Data Store : 897743
Heartbeat CPU 4 instructions: 230000003 cycles: 331154573 heartbeat IPC: 0.21032 cumulative IPC: 0.428872 (Simulation time: 16 hr 33 min 14 sec) 
 Total Blocks : 196608 Invalid Blocks : 0 Valid Blocks : 196608
 Total Tags : 491520 Threshold : 12288 Invalid Tags : 196608 Pr0 Tags : 98304 Pr1 Tags : 196608 num_pr0 : 12288
 SAE Count : 0
 Inter-Core Inteference in Data Store : 905293
Heartbeat CPU 5 instructions: 230000003 cycles: 331161563 heartbeat IPC: 0.210327 cumulative IPC: 0.428835 (Simulation time: 16 hr 33 min 15 sec) 
 Total Blocks : 196608 Invalid Blocks : 0 Valid Blocks : 196608
 Total Tags : 491520 Threshold : 12288 Invalid Tags : 196608 Pr0 Tags : 98304 Pr1 Tags : 196608 num_pr0 : 12288
 SAE Count : 0
 Inter-Core Inteference in Data Store : 905437
Heartbeat CPU 3 instructions: 230000003 cycles: 331204632 heartbeat IPC: 0.210065 cumulative IPC: 0.42853 (Simulation time: 16 hr 33 min 16 sec) 
 Total Blocks : 196608 Invalid Blocks : 0 Valid Blocks : 196608
 Total Tags : 491520 Threshold : 12288 Invalid Tags : 196609 Pr0 Tags : 98303 Pr1 Tags : 196608 num_pr0 : 12288
 SAE Count : 0
 Inter-Core Inteference in Data Store : 906384
Heartbeat CPU 1 instructions: 230000003 cycles: 331500535 heartbeat IPC: 0.210445 cumulative IPC: 0.428487 (Simulation time: 16 hr 33 min 24 sec) 
 Total Blocks : 196608 Invalid Blocks : 0 Valid Blocks : 196608
 Total Tags : 491520 Threshold : 12288 Invalid Tags : 196608 Pr0 Tags : 98304 Pr1 Tags : 196608 num_pr0 : 12288
 SAE Count : 0
 Inter-Core Inteference in Data Store : 913122
Heartbeat CPU 0 instructions: 230000003 cycles: 331701431 heartbeat IPC: 0.209541 cumulative IPC: 0.427253 (Simulation time: 16 hr 33 min 30 sec) 
 Total Blocks : 196608 Invalid Blocks : 0 Valid Blocks : 196608
 Total Tags : 491520 Threshold : 12288 Invalid Tags : 196609 Pr0 Tags : 98303 Pr1 Tags : 196608 num_pr0 : 12288
 SAE Count : 0
 Inter-Core Inteference in Data Store : 917581
Heartbeat CPU 7 instructions: 240000000 cycles: 384641157 heartbeat IPC: 0.184962 cumulative IPC: 0.323531 (Simulation time: 17 hr 5 min 28 sec) 
 Total Blocks : 196608 Invalid Blocks : 0 Valid Blocks : 196608
 Total Tags : 491520 Threshold : 12288 Invalid Tags : 196610 Pr0 Tags : 98302 Pr1 Tags : 196608 num_pr0 : 12288
 SAE Count : 0
 Inter-Core Inteference in Data Store : 1288922
Heartbeat CPU 2 instructions: 240000000 cycles: 384648960 heartbeat IPC: 0.185031 cumulative IPC: 0.32377 (Simulation time: 17 hr 5 min 28 sec) 
 Total Blocks : 196608 Invalid Blocks : 0 Valid Blocks : 196608
 Total Tags : 491520 Threshold : 12288 Invalid Tags : 196608 Pr0 Tags : 98304 Pr1 Tags : 196608 num_pr0 : 12288
 SAE Count : 0
 Inter-Core Inteference in Data Store : 1288954
Heartbeat CPU 6 instructions: 240000000 cycles: 384766889 heartbeat IPC: 0.185358 cumulative IPC: 0.323156 (Simulation time: 17 hr 5 min 33 sec) 
 Total Blocks : 196608 Invalid Blocks : 0 Valid Blocks : 196608
 Total Tags : 491520 Threshold : 12288 Invalid Tags : 196608 Pr0 Tags : 98304 Pr1 Tags : 196608 num_pr0 : 12288
 SAE Count : 0
 Inter-Core Inteference in Data Store : 1289438
Heartbeat CPU 3 instructions: 240000000 cycles: 384805838 heartbeat IPC: 0.186563 cumulative IPC: 0.323358 (Simulation time: 17 hr 5 min 34 sec) 
 Total Blocks : 196608 Invalid Blocks : 0 Valid Blocks : 196608
 Total Tags : 491520 Threshold : 12288 Invalid Tags : 196609 Pr0 Tags : 98303 Pr1 Tags : 196608 num_pr0 : 12287
 SAE Count : 0
 Inter-Core Inteference in Data Store : 1289571
Heartbeat CPU 4 instructions: 240000000 cycles: 384954761 heartbeat IPC: 0.185873 cumulative IPC: 0.322987 (Simulation time: 17 hr 5 min 39 sec) 
 Total Blocks : 196608 Invalid Blocks : 0 Valid Blocks : 196608
 Total Tags : 491520 Threshold : 12288 Invalid Tags : 196608 Pr0 Tags : 98304 Pr1 Tags : 196608 num_pr0 : 12288
 SAE Count : 0
 Inter-Core Inteference in Data Store : 1290138
Heartbeat CPU 5 instructions: 240000000 cycles: 385145727 heartbeat IPC: 0.185239 cumulative IPC: 0.322492 (Simulation time: 17 hr 5 min 45 sec) 
 Total Blocks : 196608 Invalid Blocks : 0 Valid Blocks : 196608
 Total Tags : 491520 Threshold : 12288 Invalid Tags : 196609 Pr0 Tags : 98303 Pr1 Tags : 196608 num_pr0 : 12288
 SAE Count : 0
 Inter-Core Inteference in Data Store : 1290886
Heartbeat CPU 1 instructions: 240000000 cycles: 386224009 heartbeat IPC: 0.182737 cumulative IPC: 0.320674 (Simulation time: 17 hr 6 min 24 sec) 
 Total Blocks : 196608 Invalid Blocks : 0 Valid Blocks : 196608
 Total Tags : 491520 Threshold : 12288 Invalid Tags : 196608 Pr0 Tags : 98304 Pr1 Tags : 196608 num_pr0 : 12288
 SAE Count : 0
 Inter-Core Inteference in Data Store : 1294922
Heartbeat CPU 0 instructions: 240000000 cycles: 386275407 heartbeat IPC: 0.183237 cumulative IPC: 0.320538 (Simulation time: 17 hr 6 min 26 sec) 
 Total Blocks : 196608 Invalid Blocks : 0 Valid Blocks : 196608
 Total Tags : 491520 Threshold : 12288 Invalid Tags : 196609 Pr0 Tags : 98303 Pr1 Tags : 196608 num_pr0 : 12288
 SAE Count : 0
 Inter-Core Inteference in Data Store : 1295127
FILL
Heartbeat CPU 2 instructions: 250000001 cycles: 434695520 heartbeat IPC: 0.199814 cumulative IPC: 0.287954 (Simulation time: 17 hr 33 min 24 sec) 
 Total Blocks : 196608 Invalid Blocks : 0 Valid Blocks : 196608
 Total Tags : 491520 Threshold : 12288 Invalid Tags : 196609 Pr0 Tags : 98303 Pr1 Tags : 196608 num_pr0 : 12288
 SAE Count : 0
 Inter-Core Inteference in Data Store : 1487536
Heartbeat CPU 7 instructions: 250000001 cycles: 434748489 heartbeat IPC: 0.199572 cumulative IPC: 0.287682 (Simulation time: 17 hr 33 min 26 sec) 
 Total Blocks : 196608 Invalid Blocks : 0 Valid Blocks : 196608
 Total Tags : 491520 Threshold : 12288 Invalid Tags : 196610 Pr0 Tags : 98302 Pr1 Tags : 196608 num_pr0 : 12288
 SAE Count : 0
 Inter-Core Inteference in Data Store : 1487778
Heartbeat CPU 6 instructions: 250000001 cycles: 435004882 heartbeat IPC: 0.199053 cumulative IPC: 0.287225 (Simulation time: 17 hr 33 min 35 sec) 
 Total Blocks : 196608 Invalid Blocks : 0 Valid Blocks : 196608
 Total Tags : 491520 Threshold : 12288 Invalid Tags : 196609 Pr0 Tags : 98303 Pr1 Tags : 196608 num_pr0 : 12287
 SAE Count : 0
 Inter-Core Inteference in Data Store : 1488820
Heartbeat CPU 3 instructions: 250000001 cycles: 435074923 heartbeat IPC: 0.198929 cumulative IPC: 0.287325 (Simulation time: 17 hr 33 min 37 sec) 
 Total Blocks : 196608 Invalid Blocks : 0 Valid Blocks : 196608
 Total Tags : 491520 Threshold : 12288 Invalid Tags : 196609 Pr0 Tags : 98303 Pr1 Tags : 196608 num_pr0 : 12288
 SAE Count : 0
 Inter-Core Inteference in Data Store : 1489092
Heartbeat CPU 4 instructions: 250000001 cycles: 435262102 heartbeat IPC: 0.198778 cumulative IPC: 0.287029 (Simulation time: 17 hr 33 min 43 sec) 
 Total Blocks : 196608 Invalid Blocks : 0 Valid Blocks : 196608
 Total Tags : 491520 Threshold : 12288 Invalid Tags : 196609 Pr0 Tags : 98303 Pr1 Tags : 196608 num_pr0 : 12288
 SAE Count : 0
 Inter-Core Inteference in Data Store : 1489795
Heartbeat CPU 5 instructions: 250000001 cycles: 435425704 heartbeat IPC: 0.198886 cumulative IPC: 0.286761 (Simulation time: 17 hr 33 min 49 sec) 
 Total Blocks : 196608 Invalid Blocks : 0 Valid Blocks : 196608
[...]
LLC4 TOTAL     ACCESS: 949655  HIT: 242579  MISS: 707076  HIT %: 25.5439  MISS %: 74.4561  AVERAGE MISS PENALTY: 342.788
LLC4 LOAD      ACCESS: 206689  HIT: 113865  MISS: 92824  HIT %: 55.09  MISS %: 44.91  AVERAGE MISS PENALTY: 382.484
LLC4 RFO       ACCESS: 29759  HIT:  3872  MISS: 25887  HIT %: 13.0112  MISS %: 86.9888  AVERAGE MISS PENALTY: 429.665
LLC4 PREFETCH  ACCESS: 623097  HIT: 104603  MISS: 518494  HIT %: 16.7876  MISS %: 83.2124  AVERAGE MISS PENALTY: 377.537
LLC4 WRITEBACK ACCESS: 90110  HIT: 20239  MISS: 69871  HIT %: 22.4603  MISS %: 77.5397  AVERAGE MISS PENALTY: 0
LLC4 PREFETCH  REQUESTED:     0  ISSUED:     0  USEFUL: 34978  USELESS: 112045
 USEFUL LOAD PREFETCHES:      34978 PREFETCH ISSUED TO LOWER LEVEL:   17732075  ACCURACY: 0.197258
 TIMELY PREFETCHES:      34978 LATE PREFETCHES: 0 DROPPED PREFETCHES: 0
LLC4 AVERAGE MISS LATENCY: 342.788 cycles

LLC4 Set Associative Eviction Count : 0
LLC4 Priority 0 entries : 12288
LLC4 Inter-Core Interference : 656781
LLC5 TOTAL     ACCESS: 946885  HIT: 241458  MISS: 705427  HIT %: 25.5002  MISS %: 74.4998  AVERAGE MISS PENALTY: 337.222
LLC5 LOAD      ACCESS: 206009  HIT: 112545  MISS: 93464  HIT %: 54.6311  MISS %: 45.3689  AVERAGE MISS PENALTY: 376.831
LLC5 RFO       ACCESS: 29741  HIT:  3822  MISS: 25919  HIT %: 12.8509  MISS %: 87.1491  AVERAGE MISS PENALTY: 413.635
LLC5 PREFETCH  ACCESS: 621128  HIT: 104585  MISS: 516543  HIT %: 16.8379  MISS %: 83.1621  AVERAGE MISS PENALTY: 371.594
LLC5 WRITEBACK ACCESS: 90007  HIT: 20506  MISS: 69501  HIT %: 22.7827  MISS %: 77.2173  AVERAGE MISS PENALTY: 0
LLC5 PREFETCH  REQUESTED:     0  ISSUED:     0  USEFUL: 34611  USELESS: 111246
 USEFUL LOAD PREFETCHES:      34611 PREFETCH ISSUED TO LOWER LEVEL:   13698168  ACCURACY: 0.252669
 TIMELY PREFETCHES:      34611 LATE PREFETCHES: 0 DROPPED PREFETCHES: 0
LLC5 AVERAGE MISS LATENCY: 337.222 cycles

LLC5 Set Associative Eviction Count : 0
LLC5 Priority 0 entries : 12288
LLC5 Inter-Core Interference : 655027
LLC6 TOTAL     ACCESS: 948466  HIT: 243110  MISS: 705356  HIT %: 25.6319  MISS %: 74.3681  AVERAGE MISS PENALTY: 342.839
LLC6 LOAD      ACCESS: 209362  HIT: 115300  MISS: 94062  HIT %: 55.0721  MISS %: 44.9279  AVERAGE MISS PENALTY: 384.405
LLC6 RFO       ACCESS: 29752  HIT:  3883  MISS: 25869  HIT %: 13.0512  MISS %: 86.9488  AVERAGE MISS PENALTY: 429.015
LLC6 PREFETCH  ACCESS: 618961  HIT: 103452  MISS: 515509  HIT %: 16.7138  MISS %: 83.2862  AVERAGE MISS PENALTY: 377.428
LLC6 WRITEBACK ACCESS: 90391  HIT: 20475  MISS: 69916  HIT %: 22.6516  MISS %: 77.3484  AVERAGE MISS PENALTY: 0
LLC6 PREFETCH  REQUESTED:     0  ISSUED:     0  USEFUL: 34183  USELESS: 109194
 USEFUL LOAD PREFETCHES:      34183 PREFETCH ISSUED TO LOWER LEVEL:   20525769  ACCURACY: 0.166537
 TIMELY PREFETCHES:      34183 LATE PREFETCHES: 0 DROPPED PREFETCHES: 0
LLC6 AVERAGE MISS LATENCY: 342.839 cycles

LLC6 Set Associative Eviction Count : 0
LLC6 Priority 0 entries : 12288
LLC6 Inter-Core Interference : 655461
LLC7 TOTAL     ACCESS: 942599  HIT: 239227  MISS: 703372  HIT %: 25.3795  MISS %: 74.6205  AVERAGE MISS PENALTY: 337.289
LLC7 LOAD      ACCESS: 204766  HIT: 111475  MISS: 93291  HIT %: 54.4402  MISS %: 45.5598  AVERAGE MISS PENALTY: 375.282
LLC7 RFO       ACCESS: 29753  HIT:  3842  MISS: 25911  HIT %: 12.913  MISS %: 87.087  AVERAGE MISS PENALTY: 413.497
LLC7 PREFETCH  ACCESS: 617745  HIT: 103448  MISS: 514297  HIT %: 16.7461  MISS %: 83.2539  AVERAGE MISS PENALTY: 372.382
LLC7 WRITEBACK ACCESS: 90335  HIT: 20462  MISS: 69873  HIT %: 22.6512  MISS %: 77.3488  AVERAGE MISS PENALTY: 0
LLC7 PREFETCH  REQUESTED:     0  ISSUED:     0  USEFUL: 34150  USELESS: 108799
 USEFUL LOAD PREFETCHES:      34150 PREFETCH ISSUED TO LOWER LEVEL:   15530533  ACCURACY: 0.219889
 TIMELY PREFETCHES:      34150 LATE PREFETCHES: 0 DROPPED PREFETCHES: 0
LLC7 AVERAGE MISS LATENCY: 337.289 cycles

LLC7 Set Associative Eviction Count : 0
LLC7 Priority 0 entries : 12288
LLC7 Inter-Core Interference : 655103
ROI Average ROB Stall Cycles:	8.91598
ROI Total ROB Stalls Cycles:	632795995
ROI TOTAL ROB counter      :	70973245
ROI Average Load ROB Stall Cycles:	25.9853
ROI Total Load ROB Stalls Cycle  :	218794151
ROI Total Load ROB stalls Counter:	8419923
Major fault: 0 Minor fault: 27397

CPU 7 cumulative IPC: 0.253464 instructions: 200000002 cycles: 789067794
ITLB TOTAL     ACCESS: 29951562  HIT: 29951562  MISS:     0  HIT %:   100  MISS %:     0  AVERAGE MISS PENALTY: 0
ITLB LOAD      ACCESS: 29951562  HIT: 29951562  MISS:     0  HIT %:   100  MISS %:     0  AVERAGE MISS PENALTY: 0
ITLB RFO       ACCESS:     0  HIT:     0  MISS:     0  HIT %:     0  MISS %:     0  AVERAGE MISS PENALTY: 0
ITLB PREFETCH  ACCESS:     0  HIT:     0  MISS:     0  HIT %:     0  MISS %:     0  AVERAGE MISS PENALTY: 0
ITLB WRITEBACK ACCESS:     0  HIT:     0  MISS:     0  HIT %:     0  MISS %:     0  AVERAGE MISS PENALTY: 0
ITLB PREFETCH  REQUESTED:     0  ISSUED:     0  USEFUL:     0  USELESS:     0
 USEFUL LOAD PREFETCHES:          0 PREFETCH ISSUED TO LOWER LEVEL:          0  ACCURACY: -nan
 TIMELY PREFETCHES:          0 LATE PREFETCHES: 0 DROPPED PREFETCHES: 0
ITLB AVERAGE MISS LATENCY: -nan cycles

ITLB Set Associative Eviction Count : 0
ITLB Priority 0 entries : 0
ITLB Inter-Core Interference : 0
DTLB TOTAL     ACCESS: 39735848  HIT: 39431332  MISS: 304516  HIT %: 99.2336  MISS %: 0.766351  AVERAGE MISS PENALTY: 71.4411
DTLB LOAD      ACCESS: 32747020  HIT: 32453671  MISS: 293349  HIT %: 99.1042  MISS %: 0.895804  AVERAGE MISS PENALTY: 72.6408
DTLB RFO       ACCESS: 6988828  HIT: 6977661  MISS: 11167  HIT %: 99.8402  MISS %: 0.159784  AVERAGE MISS PENALTY: 39.9254
DTLB PREFETCH  ACCESS:     0  HIT:     0  MISS:     0  HIT %:     0  MISS %:     0  AVERAGE MISS PENALTY: 0
DTLB WRITEBACK ACCESS:     0  HIT:     0  MISS:     0  HIT %:     0  MISS %:     0  AVERAGE MISS PENALTY: 0
DTLB PREFETCH  REQUESTED:     0  ISSUED:     0  USEFUL:     0  USELESS:     0
 USEFUL LOAD PREFETCHES:          0 PREFETCH ISSUED TO LOWER LEVEL:          0  ACCURACY: -nan
 TIMELY PREFETCHES:          0 LATE PREFETCHES: 0 DROPPED PREFETCHES: 0
DTLB AVERAGE MISS LATENCY: 71.4411 cycles

DTLB Set Associative Eviction Count : 0
DTLB Priority 0 entries : 0
DTLB Inter-Core Interference : 0
STLB TOTAL     ACCESS: 304516  HIT: 121179  MISS: 183337  HIT %: 39.794  MISS %: 60.206  AVERAGE MISS PENALTY: 100
STLB LOAD      ACCESS: 293349  HIT: 113363  MISS: 179986  HIT %: 38.6444  MISS %: 61.3556  AVERAGE MISS PENALTY: 100
STLB RFO       ACCESS: 11167  HIT:  7816  MISS:  3351  HIT %: 69.9919  MISS %: 30.0081  AVERAGE MISS PENALTY: 100
STLB PREFETCH  ACCESS:     0  HIT:     0  MISS:     0  HIT %:     0  MISS %:     0  AVERAGE MISS PENALTY: 0
STLB WRITEBACK ACCESS:     0  HIT:     0  MISS:     0  HIT %:     0  MISS %:     0  AVERAGE MISS PENALTY: 0
STLB PREFETCH  REQUESTED:     0  ISSUED:     0  USEFUL:     0  USELESS:     0
 USEFUL LOAD PREFETCHES:          0 PREFETCH ISSUED TO LOWER LEVEL:          0  ACCURACY: -nan
 TIMELY PREFETCHES:          0 LATE PREFETCHES: 0 DROPPED PREFETCHES: 0
STLB AVERAGE MISS LATENCY: 100 cycles

STLB Set Associative Eviction Count : 0
STLB Priority 0 entries : 0
STLB Inter-Core Interference : 0
L1D TOTAL     ACCESS: 45901641  HIT: 39111795  MISS: 6789846  HIT %: 85.2078  MISS %: 14.7922  AVERAGE MISS PENALTY: 1.02902e+07
L1D LOAD      ACCESS: 32301609  HIT: 29463100  MISS: 2838509  HIT %: 91.2125  MISS %: 8.78752  AVERAGE MISS PENALTY: 2.46133e+07
L1D RFO       ACCESS: 5326050  HIT: 5080857  MISS: 245193  HIT %: 95.3963  MISS %: 4.60366  AVERAGE MISS PENALTY: 11330.1
L1D PREFETCH  ACCESS: 8273982  HIT: 4567838  MISS: 3706144  HIT %: 55.2073  MISS %: 44.7927  AVERAGE MISS PENALTY: 202.773
L1D WRITEBACK ACCESS:     0  HIT:     0  MISS:     0  HIT %:     0  MISS %:     0  AVERAGE MISS PENALTY: 0
L1D PREFETCH  REQUESTED: 10091325  ISSUED: 9937812  USEFUL: 2177332  USELESS: 1528678
 USEFUL LOAD PREFETCHES:    2177332 PREFETCH ISSUED TO LOWER LEVEL:   13629334  ACCURACY: 15.9753
 TIMELY PREFETCHES:    2177332 LATE PREFETCHES: 170829 DROPPED PREFETCHES: 153513
L1D AVERAGE MISS LATENCY: 583.663 cycles

L1D Set Associative Eviction Count : 0
L1D Priority 0 entries : 0
L1D Inter-Core Interference : 0
L1I TOTAL     ACCESS: 47162376  HIT: 47162376  MISS:     0  HIT %:   100  MISS %:     0  AVERAGE MISS PENALTY: 0
L1I LOAD      ACCESS: 47162376  HIT: 47162376  MISS:     0  HIT %:   100  MISS %:     0  AVERAGE MISS PENALTY: 0
L1I RFO       ACCESS:     0  HIT:     0  MISS:     0  HIT %:     0  MISS %:     0  AVERAGE MISS PENALTY: 0
L1I PREFETCH  ACCESS:     0  HIT:     0  MISS:     0  HIT %:     0  MISS %:     0  AVERAGE MISS PENALTY: 0
L1I WRITEBACK ACCESS:     0  HIT:     0  MISS:     0  HIT %:     0  MISS %:     0  AVERAGE MISS PENALTY: 0
L1I PREFETCH  REQUESTED:     0  ISSUED:     0  USEFUL:     0  USELESS:     0
 USEFUL LOAD PREFETCHES:          0 PREFETCH ISSUED TO LOWER LEVEL:          0  ACCURACY: -nan
 TIMELY PREFETCHES:          0 LATE PREFETCHES: 0 DROPPED PREFETCHES: 0
L1I AVERAGE MISS LATENCY: -nan cycles

L1I Set Associative Eviction Count : 0
L1I Priority 0 entries : 0
L1I Inter-Core Interference : 0
L2C TOTAL     ACCESS: 11758754  HIT: 4837217  MISS: 6921537  HIT %: 41.1372  MISS %: 58.8628  AVERAGE MISS PENALTY: 1.20431e+07
L2C LOAD      ACCESS: 2829874  HIT: 1018171  MISS: 1811703  HIT %: 35.9794  MISS %: 64.0206  AVERAGE MISS PENALTY: 4.60092e+07
L2C RFO       ACCESS: 245188  HIT:  8170  MISS: 237018  HIT %: 3.33214  MISS %: 96.6679  AVERAGE MISS PENALTY: 394.159
L2C PREFETCH  ACCESS: 7954381  HIT: 3159240  MISS: 4795141  HIT %: 39.717  MISS %: 60.283  AVERAGE MISS PENALTY: 352.147
L2C WRITEBACK ACCESS: 729311  HIT: 651636  MISS: 77675  HIT %: 89.3495  MISS %: 10.6505  AVERAGE MISS PENALTY: 0
L2C PREFETCH  REQUESTED: 7506386  ISSUED: 7489449  USEFUL: 288946  USELESS: 4505070
 USEFUL LOAD PREFETCHES:     288946 PREFETCH ISSUED TO LOWER LEVEL:    5891176  ACCURACY: 4.90473
 TIMELY PREFETCHES:     288946 LATE PREFETCHES: 208633 DROPPED PREFETCHES: 16937
L2C AVERAGE MISS LATENCY: 313.869 cycles

L2C Set Associative Eviction Count : 0
L2C Priority 0 entries : 0
L2C Inter-Core Interference : 0
LLC0 TOTAL     ACCESS: 931680  HIT: 239958  MISS: 691722  HIT %: 25.7554  MISS %: 74.2446  AVERAGE MISS PENALTY: 348.74
LLC0 LOAD      ACCESS: 245090  HIT: 115733  MISS: 129357  HIT %: 47.2206  MISS %: 52.7794  AVERAGE MISS PENALTY: 354.796
LLC0 RFO       ACCESS: 29623  HIT:  3892  MISS: 25731  HIT %: 13.1384  MISS %: 86.8616  AVERAGE MISS PENALTY: 407.735
LLC0 PREFETCH  ACCESS: 566981  HIT: 99921  MISS: 467060  HIT %: 17.6233  MISS %: 82.3767  AVERAGE MISS PENALTY: 395.761
LLC0 WRITEBACK ACCESS: 89986  HIT: 20412  MISS: 69574  HIT %: 22.6835  MISS %: 77.3165  AVERAGE MISS PENALTY: 0
LLC0 PREFETCH  REQUESTED:     0  ISSUED:     0  USEFUL: 36036  USELESS: 113167
 USEFUL LOAD PREFETCHES:      36036 PREFETCH ISSUED TO LOWER LEVEL:   13608790  ACCURACY: 0.264799
 TIMELY PREFETCHES:      36036 LATE PREFETCHES: 0 DROPPED PREFETCHES: 0
LLC0 AVERAGE MISS LATENCY: 348.74 cycles

LLC0 Set Associative Eviction Count : 0
LLC0 Priority 0 entries : 12288
LLC0 Inter-Core Interference : 661691
LLC1 TOTAL     ACCESS: 942181  HIT: 241764  MISS: 700417  HIT %: 25.66  MISS %: 74.34  AVERAGE MISS PENALTY: 348.887
LLC1 LOAD      ACCESS: 210669  HIT: 112957  MISS: 97712  HIT %: 53.6182  MISS %: 46.3818  AVERAGE MISS PENALTY: 384.688
LLC1 RFO       ACCESS: 29644  HIT:  3904  MISS: 25740  HIT %: 13.1696  MISS %: 86.8304  AVERAGE MISS PENALTY: 408.223
LLC1 PREFETCH  ACCESS: 612035  HIT: 104480  MISS: 507555  HIT %: 17.0709  MISS %: 82.9291  AVERAGE MISS PENALTY: 386.697
LLC1 WRITEBACK ACCESS: 89833  HIT: 20423  MISS: 69410  HIT %: 22.7344  MISS %: 77.2656  AVERAGE MISS PENALTY: 0
LLC1 PREFETCH  REQUESTED:     0  ISSUED:     0  USEFUL: 36259  USELESS: 116032
 USEFUL LOAD PREFETCHES:      36259 PREFETCH ISSUED TO LOWER LEVEL:   11249884  ACCURACY: 0.322306
 TIMELY PREFETCHES:      36259 LATE PREFETCHES: 0 DROPPED PREFETCHES: 0
LLC1 AVERAGE MISS LATENCY: 348.887 cycles

LLC1 Set Associative Eviction Count : 0
LLC1 Priority 0 entries : 12287
LLC1 Inter-Core Interference : 662028
LLC2 TOTAL     ACCESS: 951310  HIT: 244245  MISS: 707065  HIT %: 25.6746  MISS %: 74.3254  AVERAGE MISS PENALTY: 350.208
LLC2 LOAD      ACCESS: 208172  HIT: 113381  MISS: 94791  HIT %: 54.4651  MISS %: 45.5349  AVERAGE MISS PENALTY: 385.905
LLC2 RFO       ACCESS: 29632  HIT:  3884  MISS: 25748  HIT %: 13.1075  MISS %: 86.8925  AVERAGE MISS PENALTY: 408.742
LLC2 PREFETCH  ACCESS: 623618  HIT: 106832  MISS: 516786  HIT %: 17.131  MISS %: 82.869  AVERAGE MISS PENALTY: 388.005
LLC2 WRITEBACK ACCESS: 89888  HIT: 20148  MISS: 69740  HIT %: 22.4146  MISS %: 77.5854  AVERAGE MISS PENALTY: 0
LLC2 PREFETCH  REQUESTED:     0  ISSUED:     0  USEFUL: 35591  USELESS: 115159
 USEFUL LOAD PREFETCHES:      35591 PREFETCH ISSUED TO LOWER LEVEL:   15565799  ACCURACY: 0.228649
 TIMELY PREFETCHES:      35591 LATE PREFETCHES: 0 DROPPED PREFETCHES: 0
LLC2 AVERAGE MISS LATENCY: 350.208 cycles

LLC2 Set Associative Eviction Count : 0
LLC2 Priority 0 entries : 12288
LLC2 Inter-Core Interference : 660992
LLC3 TOTAL     ACCESS: 950448  HIT: 243845  MISS: 706603  HIT %: 25.6558  MISS %: 74.3442  AVERAGE MISS PENALTY: 348.312
LLC3 LOAD      ACCESS: 208320  HIT: 114536  MISS: 93784  HIT %: 54.9808  MISS %: 45.0192  AVERAGE MISS PENALTY: 389.738
LLC3 RFO       ACCESS: 29636  HIT:  4009  MISS: 25627  HIT %: 13.5275  MISS %: 86.4725  AVERAGE MISS PENALTY: 411.429
LLC3 PREFETCH  ACCESS: 622443  HIT: 104935  MISS: 517508  HIT %: 16.8586  MISS %: 83.1414  AVERAGE MISS PENALTY: 384.581
LLC3 WRITEBACK ACCESS: 90049  HIT: 20365  MISS: 69684  HIT %: 22.6155  MISS %: 77.3845  AVERAGE MISS PENALTY: 0
LLC3 PREFETCH  REQUESTED:     0  ISSUED:     0  USEFUL: 35789  USELESS: 111938
 USEFUL LOAD PREFETCHES:      35789 PREFETCH ISSUED TO LOWER LEVEL:   12244379  ACCURACY: 0.292289
 TIMELY PREFETCHES:      35789 LATE PREFETCHES: 0 DROPPED PREFETCHES: 0
LLC3 AVERAGE MISS LATENCY: 348.312 cycles

LLC3 Set Associative Eviction Count : 0
LLC3 Priority 0 entries : 12288
LLC3 Inter-Core Interference : 658865
LLC4 TOTAL     ACCESS: 949832  HIT: 244178  MISS: 705654  HIT %: 25.7075  MISS %: 74.2925  AVERAGE MISS PENALTY: 341.92
LLC4 LOAD      ACCESS: 208091  HIT: 115249  MISS: 92842  HIT %: 55.3839  MISS %: 44.6161  AVERAGE MISS PENALTY: 382.285
LLC4 RFO       ACCESS: 29633  HIT:  3901  MISS: 25732  HIT %: 13.1644  MISS %: 86.8356  AVERAGE MISS PENALTY: 413.934
LLC4 PREFETCH  ACCESS: 622169  HIT: 104715  MISS: 517454  HIT %: 16.8306  MISS %: 83.1694  AVERAGE MISS PENALTY: 377.103
LLC4 WRITEBACK ACCESS: 89939  HIT: 20313  MISS: 69626  HIT %: 22.5853  MISS %: 77.4147  AVERAGE MISS PENALTY: 0
LLC4 PREFETCH  REQUESTED:     0  ISSUED:     0  USEFUL: 34978  USELESS: 112045
 USEFUL LOAD PREFETCHES:      34978 PREFETCH ISSUED TO LOWER LEVEL:   17732075  ACCURACY: 0.197258
 TIMELY PREFETCHES:      34978 LATE PREFETCHES: 0 DROPPED PREFETCHES: 0
LLC4 AVERAGE MISS LATENCY: 341.92 cycles

LLC4 Set Associative Eviction Count : 0
LLC4 Priority 0 entries : 12288
LLC4 Inter-Core Interference : 656781
LLC5 TOTAL     ACCESS: 946968  HIT: 243098  MISS: 703870  HIT %: 25.6712  MISS %: 74.3288  AVERAGE MISS PENALTY: 336.146
LLC5 LOAD      ACCESS: 207329  HIT: 113908  MISS: 93421  HIT %: 54.9407  MISS %: 45.0593  AVERAGE MISS PENALTY: 375.133
LLC5 RFO       ACCESS: 29628  HIT:  3836  MISS: 25792  HIT %: 12.9472  MISS %: 87.0528  AVERAGE MISS PENALTY: 404.474
LLC5 PREFETCH  ACCESS: 620167  HIT: 104938  MISS: 515229  HIT %: 16.9209  MISS %: 83.0791  AVERAGE MISS PENALTY: 370.952
LLC5 WRITEBACK ACCESS: 89844  HIT: 20416  MISS: 69428  HIT %: 22.7238  MISS %: 77.2762  AVERAGE MISS PENALTY: 0
LLC5 PREFETCH  REQUESTED:     0  ISSUED:     0  USEFUL: 34611  USELESS: 111246
 USEFUL LOAD PREFETCHES:      34611 PREFETCH ISSUED TO LOWER LEVEL:   13698168  ACCURACY: 0.252669
 TIMELY PREFETCHES:      34611 LATE PREFETCHES: 0 DROPPED PREFETCHES: 0
LLC5 AVERAGE MISS LATENCY: 336.146 cycles

LLC5 Set Associative Eviction Count : 0
LLC5 Priority 0 entries : 12288
LLC5 Inter-Core Interference : 655027
LLC6 TOTAL     ACCESS: 948522  HIT: 244895  MISS: 703627  HIT %: 25.8186  MISS %: 74.1814  AVERAGE MISS PENALTY: 341.572
LLC6 LOAD      ACCESS: 210601  HIT: 116748  MISS: 93853  HIT %: 55.4356  MISS %: 44.5644  AVERAGE MISS PENALTY: 382.874
LLC6 RFO       ACCESS: 29608  HIT:  3837  MISS: 25771  HIT %: 12.9593  MISS %: 87.0407  AVERAGE MISS PENALTY: 411.621
LLC6 PREFETCH  ACCESS: 618087  HIT: 103855  MISS: 514232  HIT %: 16.8027  MISS %: 83.1973  AVERAGE MISS PENALTY: 376.868
LLC6 WRITEBACK ACCESS: 90226  HIT: 20455  MISS: 69771  HIT %: 22.6708  MISS %: 77.3292  AVERAGE MISS PENALTY: 0
LLC6 PREFETCH  REQUESTED:     0  ISSUED:     0  USEFUL: 34183  USELESS: 109194
 USEFUL LOAD PREFETCHES:      34183 PREFETCH ISSUED TO LOWER LEVEL:   20525769  ACCURACY: 0.166537
 TIMELY PREFETCHES:      34183 LATE PREFETCHES: 0 DROPPED PREFETCHES: 0
LLC6 AVERAGE MISS LATENCY: 341.572 cycles

LLC6 Set Associative Eviction Count : 0
LLC6 Priority 0 entries : 12288
LLC6 Inter-Core Interference : 655461
LLC7 TOTAL     ACCESS: 942809  HIT: 241527  MISS: 701282  HIT %: 25.6178  MISS %: 74.3822  AVERAGE MISS PENALTY: 336.429
LLC7 LOAD      ACCESS: 206083  HIT: 112966  MISS: 93117  HIT %: 54.8158  MISS %: 45.1842  AVERAGE MISS PENALTY: 374.445
LLC7 RFO       ACCESS: 29614  HIT:  3905  MISS: 25709  HIT %: 13.1863  MISS %: 86.8137  AVERAGE MISS PENALTY: 405.993
LLC7 PREFETCH  ACCESS: 616965  HIT: 104156  MISS: 512809  HIT %: 16.882  MISS %: 83.118  AVERAGE MISS PENALTY: 371.73
LLC7 WRITEBACK ACCESS: 90147  HIT: 20500  MISS: 69647  HIT %: 22.7406  MISS %: 77.2594  AVERAGE MISS PENALTY: 0
LLC7 PREFETCH  REQUESTED:     0  ISSUED:     0  USEFUL: 34150  USELESS: 108799
 USEFUL LOAD PREFETCHES:      34150 PREFETCH ISSUED TO LOWER LEVEL:   15530533  ACCURACY: 0.219889
 TIMELY PREFETCHES:      34150 LATE PREFETCHES: 0 DROPPED PREFETCHES: 0
LLC7 AVERAGE MISS LATENCY: 336.429 cycles

LLC7 Set Associative Eviction Count : 0
LLC7 Priority 0 entries : 12288
LLC7 Inter-Core Interference : 655103
ROI Average ROB Stall Cycles:	8.91734
ROI Total ROB Stalls Cycles:	632908822
ROI TOTAL ROB counter      :	70975082
ROI Average Load ROB Stall Cycles:	25.9606
ROI Total Load ROB Stalls Cycle  :	218607285
ROI Total Load ROB stalls Counter:	8420742
Major fault: 0 Minor fault: 27397








Interconnect Stats 
LINK 0 BW : 0LINK 1 BW : 0LINK 2 BW : 0LINK 3 BW : 0LINK 4 BW : 0LINK 5 BW : 0LINK 6 BW : 0LINK 7 BW : 0
DRAM Statistics
 CHANNEL 0
 RQ ROW_BUFFER_HIT: 4656127  ROW_BUFFER_MISS: 15652109
 DBUS_CONGESTED: 12719998
 WQ ROW_BUFFER_HIT: 91428  ROW_BUFFER_MISS: 2378109  FULL:   650

 CHANNEL 1
 RQ ROW_BUFFER_HIT: 4640810  ROW_BUFFER_MISS: 15708635
 DBUS_CONGESTED: 12719998
 WQ ROW_BUFFER_HIT: 91205  ROW_BUFFER_MISS: 2376053  FULL:   611

 AVG_CONGESTED_CYCLE: 5
DRAM PAGES: 2097152
Allocated PAGES: 219176
L2C destructor called
L1D destructor called
L1I destructor called
STLB destructor called
DTLB destructor called
ITLB destructor called
L2C destructor called
L1D destructor called
L1I destructor called
STLB destructor called
DTLB destructor called
ITLB destructor called
L2C destructor called
L1D destructor called
L1I destructor called
STLB destructor called
DTLB destructor called
ITLB destructor called
L2C destructor called
L1D destructor called
L1I destructor called
STLB destructor called
DTLB destructor called
ITLB destructor called
L2C destructor called
L1D destructor called
L1I destructor called
STLB destructor called
DTLB destructor called
ITLB destructor called
L2C destructor called
L1D destructor called
L1I destructor called
STLB destructor called
DTLB destructor called
ITLB destructor called
L2C destructor called
L1D destructor called
L1I destructor called
STLB destructor called
DTLB destructor called
ITLB destructor called
L2C destructor called
L1D destructor called
L1I destructor called
STLB destructor called
DTLB destructor called
ITLB destructor called
