
*** ChampSim Multicore Out-of-Order Simulator ***

Warmup Instructions: 200000000
Simulation Instructions: 200000000
Number of CPUs: 8
threads:1

L1I Configuration:
L1I_SET:64
L1I_WAY:8
L1I_RQ_SIZE:64
L1I_WQ_SIZE:64
L1I_PQ_SIZE:8
L1I_MSHR_SIZE:8

L1D Configuration:
L1D_SET:64
L1D_WAY:12
L1D_RQ_SIZE:64
L1D_WQ_SIZE:64
L1D_PQ_SIZE:8
L1D_MSHR_SIZE:16

L2C Configuration:
L2C_SET:1024
L2C_WAY:8
L2C_RQ_SIZE:32
L2C_WQ_SIZE:32
L2C_PQ_SIZE:16
L2C_MSHR_SIZE:32

LLC Configuration:
LLC_SET:2048
LLC_WAY:12
LLC SLICES:8
LLC_RQ_SIZE:64
LLC_WQ_SIZE:64
LLC_PQ_SIZE:32
LLC_MSHR_SIZE:64

Interconnect OFF
Attacker deprioritize is: OFF
Off-chip DRAM Size: 8192 MB Channels: 2 Width: 64-bit Data Rate: 3200 MT/s
PAGE SIZE in KB: 4.000000 
PAGE SIZE in MB: 0.003906 
PAGE offset in bits: 12 
CEASER-S_LLC:0
MIRAGE : 1
CEASER_LATENCY:3
REMAP : OFF
Partitions : 1
Multi-Step : OFF
BFS : OFF

CPU 0 runs /home/anubhav/gap/cc-13.trace.gz
CPU 1 runs /home/anubhav/gap/cc-13.trace.gz
CPU 2 runs /home/anubhav/gap/cc-13.trace.gz
CPU 3 runs /home/anubhav/gap/cc-13.trace.gz
CPU 4 runs /home/anubhav/gap/cc-13.trace.gz
CPU 5 runs /home/anubhav/gap/cc-13.trace.gz
CPU 6 runs /home/anubhav/gap/cc-13.trace.gz
CPU 7 runs /home/anubhav/gap/cc-13.trace.gz
CPU 0 Bimodal branch predictor
Initialize Hawkeye state
Initialize Hawkeye state
Initialize Hawkeye state
Initialize Hawkeye state
Initialize Hawkeye state
Initialize Hawkeye state
Initialize Hawkeye state
Initialize Hawkeye state
CPU 1 Bimodal branch predictor
Initialize Hawkeye state
Initialize Hawkeye state
Initialize Hawkeye state
Initialize Hawkeye state
Initialize Hawkeye state
Initialize Hawkeye state
Initialize Hawkeye state
Initialize Hawkeye state
CPU 2 Bimodal branch predictor
Initialize Hawkeye state
Initialize Hawkeye state
Initialize Hawkeye state
Initialize Hawkeye state
Initialize Hawkeye state
Initialize Hawkeye state
Initialize Hawkeye state
Initialize Hawkeye state
CPU 3 Bimodal branch predictor
Initialize Hawkeye state
Initialize Hawkeye state
Initialize Hawkeye state
Initialize Hawkeye state
Initialize Hawkeye state
Initialize Hawkeye state
Initialize Hawkeye state
Initialize Hawkeye state
CPU 4 Bimodal branch predictor
Initialize Hawkeye state
Initialize Hawkeye state
Initialize Hawkeye state
Initialize Hawkeye state
Initialize Hawkeye state
Initialize Hawkeye state
Initialize Hawkeye state
Initialize Hawkeye state
CPU 5 Bimodal branch predictor
Initialize Hawkeye state
Initialize Hawkeye state
Initialize Hawkeye state
Initialize Hawkeye state
Initialize Hawkeye state
Initialize Hawkeye state
Initialize Hawkeye state
Initialize Hawkeye state
CPU 6 Bimodal branch predictor
Initialize Hawkeye state
Initialize Hawkeye state
Initialize Hawkeye state
Initialize Hawkeye state
Initialize Hawkeye state
Initialize Hawkeye state
Initialize Hawkeye state
Initialize Hawkeye state
CPU 7 Bimodal branch predictor
Initialize Hawkeye state
Initialize Hawkeye state
Initialize Hawkeye state
Initialize Hawkeye state
Initialize Hawkeye state
Initialize Hawkeye state
Initialize Hawkeye state
Initialize Hawkeye state
Heartbeat CPU 0 instructions: 10000000 cycles: 11813494 heartbeat IPC: 0.84649 cumulative IPC: 0.84649 (Simulation time: 0 hr 28 min 28 sec) 
 Total Blocks : 196608 Invalid Blocks : 23 Valid Blocks : 196585
 Total Tags : 491520 Threshold : 12288 Invalid Tags : 196632 Pr0 Tags : 98303 Pr1 Tags : 196585 num_pr0 : 12288
 SAE Count : 0
 Inter-Core Inteference in Data Store : 1361215
Heartbeat CPU 1 instructions: 10000000 cycles: 11813802 heartbeat IPC: 0.846468 cumulative IPC: 0.846468 (Simulation time: 0 hr 28 min 28 sec) 
 Total Blocks : 196608 Invalid Blocks : 23 Valid Blocks : 196585
 Total Tags : 491520 Threshold : 12288 Invalid Tags : 196633 Pr0 Tags : 98302 Pr1 Tags : 196585 num_pr0 : 12288
 SAE Count : 0
 Inter-Core Inteference in Data Store : 1361245
Heartbeat CPU 2 instructions: 10000000 cycles: 11814086 heartbeat IPC: 0.846447 cumulative IPC: 0.846447 (Simulation time: 0 hr 28 min 28 sec) 
 Total Blocks : 196608 Invalid Blocks : 23 Valid Blocks : 196585
 Total Tags : 491520 Threshold : 12288 Invalid Tags : 196631 Pr0 Tags : 98304 Pr1 Tags : 196585 num_pr0 : 12288
 SAE Count : 0
 Inter-Core Inteference in Data Store : 1361272
Heartbeat CPU 3 instructions: 10000000 cycles: 11814480 heartbeat IPC: 0.846419 cumulative IPC: 0.846419 (Simulation time: 0 hr 28 min 28 sec) 
 Total Blocks : 196608 Invalid Blocks : 23 Valid Blocks : 196585
 Total Tags : 491520 Threshold : 12288 Invalid Tags : 196634 Pr0 Tags : 98301 Pr1 Tags : 196585 num_pr0 : 12288
 SAE Count : 0
 Inter-Core Inteference in Data Store : 1361300
Heartbeat CPU 5 instructions: 10000000 cycles: 11814522 heartbeat IPC: 0.846416 cumulative IPC: 0.846416 (Simulation time: 0 hr 28 min 28 sec) 
 Total Blocks : 196608 Invalid Blocks : 23 Valid Blocks : 196585
 Total Tags : 491520 Threshold : 12288 Invalid Tags : 196635 Pr0 Tags : 98300 Pr1 Tags : 196585 num_pr0 : 12287
 SAE Count : 0
 Inter-Core Inteference in Data Store : 1361305
Heartbeat CPU 4 instructions: 10000000 cycles: 11814591 heartbeat IPC: 0.846411 cumulative IPC: 0.846411 (Simulation time: 0 hr 28 min 28 sec) 
 Total Blocks : 196608 Invalid Blocks : 23 Valid Blocks : 196585
 Total Tags : 491520 Threshold : 12288 Invalid Tags : 196635 Pr0 Tags : 98300 Pr1 Tags : 196585 num_pr0 : 12287
 SAE Count : 0
 Inter-Core Inteference in Data Store : 1361313
Heartbeat CPU 6 instructions: 10000000 cycles: 11815301 heartbeat IPC: 0.84636 cumulative IPC: 0.84636 (Simulation time: 0 hr 28 min 28 sec) 
 Total Blocks : 196608 Invalid Blocks : 23 Valid Blocks : 196585
 Total Tags : 491520 Threshold : 12288 Invalid Tags : 196632 Pr0 Tags : 98303 Pr1 Tags : 196585 num_pr0 : 12288
 SAE Count : 0
 Inter-Core Inteference in Data Store : 1361356
Heartbeat CPU 7 instructions: 10000000 cycles: 11815833 heartbeat IPC: 0.846322 cumulative IPC: 0.846322 (Simulation time: 0 hr 28 min 28 sec) 
 Total Blocks : 196608 Invalid Blocks : 23 Valid Blocks : 196585
 Total Tags : 491520 Threshold : 12288 Invalid Tags : 196631 Pr0 Tags : 98304 Pr1 Tags : 196585 num_pr0 : 12288
 SAE Count : 0
 Inter-Core Inteference in Data Store : 1361382
FILL
Heartbeat CPU 0 instructions: 20000003 cycles: 24284373 heartbeat IPC: 0.801868 cumulative IPC: 0.823575 (Simulation time: 0 hr 54 min 39 sec) 
 Total Blocks : 196608 Invalid Blocks : 0 Valid Blocks : 196608
 Total Tags : 491520 Threshold : 12288 Invalid Tags : 196611 Pr0 Tags : 98301 Pr1 Tags : 196608 num_pr0 : 12288
 SAE Count : 0
 Inter-Core Inteference in Data Store : 2290500
Heartbeat CPU 1 instructions: 20000003 cycles: 24285093 heartbeat IPC: 0.801842 cumulative IPC: 0.823551 (Simulation time: 0 hr 54 min 39 sec) 
 Total Blocks : 196608 Invalid Blocks : 0 Valid Blocks : 196608
 Total Tags : 491520 Threshold : 12288 Invalid Tags : 196611 Pr0 Tags : 98301 Pr1 Tags : 196608 num_pr0 : 12288
 SAE Count : 0
 Inter-Core Inteference in Data Store : 2290556
Heartbeat CPU 2 instructions: 20000003 cycles: 24285703 heartbeat IPC: 0.801821 cumulative IPC: 0.82353 (Simulation time: 0 hr 54 min 39 sec) 
 Total Blocks : 196608 Invalid Blocks : 0 Valid Blocks : 196608
 Total Tags : 491520 Threshold : 12288 Invalid Tags : 196608 Pr0 Tags : 98304 Pr1 Tags : 196608 num_pr0 : 12288
 SAE Count : 0
 Inter-Core Inteference in Data Store : 2290632
Heartbeat CPU 3 instructions: 20000003 cycles: 24285835 heartbeat IPC: 0.801838 cumulative IPC: 0.823525 (Simulation time: 0 hr 54 min 39 sec) 
 Total Blocks : 196608 Invalid Blocks : 0 Valid Blocks : 196608
 Total Tags : 491520 Threshold : 12288 Invalid Tags : 196610 Pr0 Tags : 98302 Pr1 Tags : 196608 num_pr0 : 12288
 SAE Count : 0
 Inter-Core Inteference in Data Store : 2290650
Heartbeat CPU 4 instructions: 20000003 cycles: 24285875 heartbeat IPC: 0.801842 cumulative IPC: 0.823524 (Simulation time: 0 hr 54 min 39 sec) 
 Total Blocks : 196608 Invalid Blocks : 0 Valid Blocks : 196608
 Total Tags : 491520 Threshold : 12288 Invalid Tags : 196610 Pr0 Tags : 98302 Pr1 Tags : 196608 num_pr0 : 12288
 SAE Count : 0
 Inter-Core Inteference in Data Store : 2290654
Heartbeat CPU 5 instructions: 20000003 cycles: 24287194 heartbeat IPC: 0.801753 cumulative IPC: 0.823479 (Simulation time: 0 hr 54 min 40 sec) 
 Total Blocks : 196608 Invalid Blocks : 0 Valid Blocks : 196608
 Total Tags : 491520 Threshold : 12288 Invalid Tags : 196609 Pr0 Tags : 98303 Pr1 Tags : 196608 num_pr0 : 12288
 SAE Count : 0
 Inter-Core Inteference in Data Store : 2290798
Heartbeat CPU 6 instructions: 20000003 cycles: 24288065 heartbeat IPC: 0.801747 cumulative IPC: 0.82345 (Simulation time: 0 hr 54 min 40 sec) 
 Total Blocks : 196608 Invalid Blocks : 0 Valid Blocks : 196608
 Total Tags : 491520 Threshold : 12288 Invalid Tags : 196608 Pr0 Tags : 98304 Pr1 Tags : 196608 num_pr0 : 12288
 SAE Count : 0
 Inter-Core Inteference in Data Store : 2290930
Heartbeat CPU 7 instructions: 20000003 cycles: 24289608 heartbeat IPC: 0.801682 cumulative IPC: 0.823398 (Simulation time: 0 hr 54 min 40 sec) 
 Total Blocks : 196608 Invalid Blocks : 0 Valid Blocks : 196608
 Total Tags : 491520 Threshold : 12288 Invalid Tags : 196608 Pr0 Tags : 98304 Pr1 Tags : 196608 num_pr0 : 12288
 SAE Count : 0
 Inter-Core Inteference in Data Store : 2291150
Heartbeat CPU 0 instructions: 30000000 cycles: 35707222 heartbeat IPC: 0.875438 cumulative IPC: 0.840166 (Simulation time: 1 hr 20 min 49 sec) 
 Total Blocks : 196608 Invalid Blocks : 0 Valid Blocks : 196608
 Total Tags : 491520 Threshold : 12288 Invalid Tags : 196609 Pr0 Tags : 98303 Pr1 Tags : 196608 num_pr0 : 12288
 SAE Count : 0
 Inter-Core Inteference in Data Store : 3108985
Heartbeat CPU 1 instructions: 30000000 cycles: 35708903 heartbeat IPC: 0.875364 cumulative IPC: 0.840127 (Simulation time: 1 hr 20 min 49 sec) 
 Total Blocks : 196608 Invalid Blocks : 0 Valid Blocks : 196608
 Total Tags : 491520 Threshold : 12288 Invalid Tags : 196609 Pr0 Tags : 98303 Pr1 Tags : 196608 num_pr0 : 12288
 SAE Count : 0
 Inter-Core Inteference in Data Store : 3109102
Heartbeat CPU 2 instructions: 30000000 cycles: 35709320 heartbeat IPC: 0.875379 cumulative IPC: 0.840117 (Simulation time: 1 hr 20 min 50 sec) 
 Total Blocks : 196608 Invalid Blocks : 0 Valid Blocks : 196608
 Total Tags : 491520 Threshold : 12288 Invalid Tags : 196608 Pr0 Tags : 98304 Pr1 Tags : 196608 num_pr0 : 12288
 SAE Count : 0
 Inter-Core Inteference in Data Store : 3109127
Heartbeat CPU 3 instructions: 30000000 cycles: 35709686 heartbeat IPC: 0.875361 cumulative IPC: 0.840108 (Simulation time: 1 hr 20 min 50 sec) 
 Total Blocks : 196608 Invalid Blocks : 0 Valid Blocks : 196608
 Total Tags : 491520 Threshold : 12288 Invalid Tags : 196610 Pr0 Tags : 98302 Pr1 Tags : 196608 num_pr0 : 12287
 SAE Count : 0
 Inter-Core Inteference in Data Store : 3109156
Heartbeat CPU 4 instructions: 30000000 cycles: 35710112 heartbeat IPC: 0.875332 cumulative IPC: 0.840098 (Simulation time: 1 hr 20 min 50 sec) 
 Total Blocks : 196608 Invalid Blocks : 0 Valid Blocks : 196608
 Total Tags : 491520 Threshold : 12288 Invalid Tags : 196608 Pr0 Tags : 98304 Pr1 Tags : 196608 num_pr0 : 12288
 SAE Count : 0
 Inter-Core Inteference in Data Store : 3109199
Heartbeat CPU 5 instructions: 30000000 cycles: 35711364 heartbeat IPC: 0.875337 cumulative IPC: 0.840069 (Simulation time: 1 hr 20 min 50 sec) 
 Total Blocks : 196608 Invalid Blocks : 0 Valid Blocks : 196608
 Total Tags : 491520 Threshold : 12288 Invalid Tags : 196608 Pr0 Tags : 98304 Pr1 Tags : 196608 num_pr0 : 12288
 SAE Count : 0
 Inter-Core Inteference in Data Store : 3109294
Heartbeat CPU 6 instructions: 30000000 cycles: 35713319 heartbeat IPC: 0.875254 cumulative IPC: 0.840023 (Simulation time: 1 hr 20 min 50 sec) 
 Total Blocks : 196608 Invalid Blocks : 0 Valid Blocks : 196608
 Total Tags : 491520 Threshold : 12288 Invalid Tags : 196609 Pr0 Tags : 98303 Pr1 Tags : 196608 num_pr0 : 12288
 SAE Count : 0
 Inter-Core Inteference in Data Store : 3109431
Heartbeat CPU 7 instructions: 30000000 cycles: 35714722 heartbeat IPC: 0.875265 cumulative IPC: 0.83999 (Simulation time: 1 hr 20 min 50 sec) 
 Total Blocks : 196608 Invalid Blocks : 0 Valid Blocks : 196608
 Total Tags : 491520 Threshold : 12288 Invalid Tags : 196609 Pr0 Tags : 98303 Pr1 Tags : 196608 num_pr0 : 12288
 SAE Count : 0
 Inter-Core Inteference in Data Store : 3109547
Heartbeat CPU 0 instructions: 40000002 cycles: 46830881 heartbeat IPC: 0.898985 cumulative IPC: 0.854137 (Simulation time: 1 hr 59 min 10 sec) 
 Total Blocks : 196608 Invalid Blocks : 0 Valid Blocks : 196608
 Total Tags : 491520 Threshold : 12288 Invalid Tags : 196608 Pr0 Tags : 98304 Pr1 Tags : 196608 num_pr0 : 12288
 SAE Count : 0
 Inter-Core Inteference in Data Store : 5876866
Heartbeat CPU 1 instructions: 40000003 cycles: 46835154 heartbeat IPC: 0.898776 cumulative IPC: 0.854059 (Simulation time: 1 hr 59 min 12 sec) 
 Total Blocks : 196608 Invalid Blocks : 0 Valid Blocks : 196608
 Total Tags : 491520 Threshold : 12288 Invalid Tags : 196608 Pr0 Tags : 98304 Pr1 Tags : 196608 num_pr0 : 12288
 SAE Count : 0
 Inter-Core Inteference in Data Store : 5879145
Heartbeat CPU 2 instructions: 40000003 cycles: 46837087 heartbeat IPC: 0.898653 cumulative IPC: 0.854024 (Simulation time: 1 hr 59 min 12 sec) 
 Total Blocks : 196608 Invalid Blocks : 0 Valid Blocks : 196608
 Total Tags : 491520 Threshold : 12288 Invalid Tags : 196608 Pr0 Tags : 98304 Pr1 Tags : 196608 num_pr0 : 12288
 SAE Count : 0
 Inter-Core Inteference in Data Store : 5880310
Heartbeat CPU 3 instructions: 40000002 cycles: 46839441 heartbeat IPC: 0.898493 cumulative IPC: 0.853981 (Simulation time: 1 hr 59 min 13 sec) 
 Total Blocks : 196608 Invalid Blocks : 0 Valid Blocks : 196608
 Total Tags : 491520 Threshold : 12288 Invalid Tags : 196608 Pr0 Tags : 98304 Pr1 Tags : 196608 num_pr0 : 12288
 SAE Count : 0
 Inter-Core Inteference in Data Store : 5881556
Heartbeat CPU 4 instructions: 40000003 cycles: 46840627 heartbeat IPC: 0.898431 cumulative IPC: 0.85396 (Simulation time: 1 hr 59 min 14 sec) 
 Total Blocks : 196608 Invalid Blocks : 0 Valid Blocks : 196608
 Total Tags : 491520 Threshold : 12288 Invalid Tags : 196608 Pr0 Tags : 98304 Pr1 Tags : 196608 num_pr0 : 12288
 SAE Count : 0
 Inter-Core Inteference in Data Store : 5882217
Heartbeat CPU 5 instructions: 40000003 cycles: 46843435 heartbeat IPC: 0.898306 cumulative IPC: 0.853908 (Simulation time: 1 hr 59 min 16 sec) 
 Total Blocks : 196608 Invalid Blocks : 0 Valid Blocks : 196608
 Total Tags : 491520 Threshold : 12288 Invalid Tags : 196608 Pr0 Tags : 98304 Pr1 Tags : 196608 num_pr0 : 12288
 SAE Count : 0
 Inter-Core Inteference in Data Store : 5883992
Heartbeat CPU 6 instructions: 40000003 cycles: 46846786 heartbeat IPC: 0.898193 cumulative IPC: 0.853847 (Simulation time: 1 hr 59 min 17 sec) 
 Total Blocks : 196608 Invalid Blocks : 0 Valid Blocks : 196608
 Total Tags : 491520 Threshold : 12288 Invalid Tags : 196608 Pr0 Tags : 98304 Pr1 Tags : 196608 num_pr0 : 12288
 SAE Count : 0
 Inter-Core Inteference in Data Store : 5886162
Heartbeat CPU 7 instructions: 40000003 cycles: 46848871 heartbeat IPC: 0.898138 cumulative IPC: 0.853809 (Simulation time: 1 hr 59 min 18 sec) 
 Total Blocks : 196608 Invalid Blocks : 0 Valid Blocks : 196608
 Total Tags : 491520 Threshold : 12288 Invalid Tags : 196608 Pr0 Tags : 98304 Pr1 Tags : 196608 num_pr0 : 12288
 SAE Count : 0
 Inter-Core Inteference in Data Store : 5887516
Heartbeat CPU 0 instructions: 50000000 cycles: 58155669 heartbeat IPC: 0.883019 cumulative IPC: 0.859761 (Simulation time: 2 hr 51 min 22 sec) 
 Total Blocks : 196608 Invalid Blocks : 0 Valid Blocks : 196608
 Total Tags : 491520 Threshold : 12288 Invalid Tags : 196608 Pr0 Tags : 98304 Pr1 Tags : 196608 num_pr0 : 12288
 SAE Count : 0
 Inter-Core Inteference in Data Store : 10836956
Heartbeat CPU 1 instructions: 50000000 cycles: 58164196 heartbeat IPC: 0.882687 cumulative IPC: 0.859635 (Simulation time: 2 hr 51 min 25 sec) 
 Total Blocks : 196608 Invalid Blocks : 0 Valid Blocks : 196608
 Total Tags : 491520 Threshold : 12288 Invalid Tags : 196608 Pr0 Tags : 98304 Pr1 Tags : 196608 num_pr0 : 12288
 SAE Count : 0
 Inter-Core Inteference in Data Store : 10840756
Heartbeat CPU 2 instructions: 50000000 cycles: 58169527 heartbeat IPC: 0.882422 cumulative IPC: 0.859557 (Simulation time: 2 hr 51 min 26 sec) 
 Total Blocks : 196608 Invalid Blocks : 0 Valid Blocks : 196608
 Total Tags : 491520 Threshold : 12288 Invalid Tags : 196608 Pr0 Tags : 98304 Pr1 Tags : 196608 num_pr0 : 12288
 SAE Count : 0
 Inter-Core Inteference in Data Store : 10842975
Heartbeat CPU 3 instructions: 50000000 cycles: 58174472 heartbeat IPC: 0.882221 cumulative IPC: 0.859484 (Simulation time: 2 hr 51 min 28 sec) 
 Total Blocks : 196608 Invalid Blocks : 0 Valid Blocks : 196608
 Total Tags : 491520 Threshold : 12288 Invalid Tags : 196608 Pr0 Tags : 98304 Pr1 Tags : 196608 num_pr0 : 12288
 SAE Count : 0
 Inter-Core Inteference in Data Store : 10845056
Heartbeat CPU 4 instructions: 50000000 cycles: 58178983 heartbeat IPC: 0.881962 cumulative IPC: 0.859417 (Simulation time: 2 hr 51 min 29 sec) 
 Total Blocks : 196608 Invalid Blocks : 0 Valid Blocks : 196608
 Total Tags : 491520 Threshold : 12288 Invalid Tags : 196608 Pr0 Tags : 98304 Pr1 Tags : 196608 num_pr0 : 12288
 SAE Count : 0
 Inter-Core Inteference in Data Store : 10846947
Heartbeat CPU 5 instructions: 50000000 cycles: 58184315 heartbeat IPC: 0.881766 cumulative IPC: 0.859338 (Simulation time: 2 hr 51 min 30 sec) 
 Total Blocks : 196608 Invalid Blocks : 0 Valid Blocks : 196608
 Total Tags : 491520 Threshold : 12288 Invalid Tags : 196608 Pr0 Tags : 98304 Pr1 Tags : 196608 num_pr0 : 12288
 SAE Count : 0
 Inter-Core Inteference in Data Store : 10849172
Heartbeat CPU 6 instructions: 50000000 cycles: 58189618 heartbeat IPC: 0.881614 cumulative IPC: 0.85926 (Simulation time: 2 hr 51 min 32 sec) 
 Total Blocks : 196608 Invalid Blocks : 0 Valid Blocks : 196608
 Total Tags : 491520 Threshold : 12288 Invalid Tags : 196608 Pr0 Tags : 98304 Pr1 Tags : 196608 num_pr0 : 12288
 SAE Count : 0
 Inter-Core Inteference in Data Store : 10851305
Heartbeat CPU 7 instructions: 50000000 cycles: 58194372 heartbeat IPC: 0.881406 cumulative IPC: 0.85919 (Simulation time: 2 hr 51 min 33 sec) 
 Total Blocks : 196608 Invalid Blocks : 0 Valid Blocks : 196608
 Total Tags : 491520 Threshold : 12288 Invalid Tags : 196608 Pr0 Tags : 98304 Pr1 Tags : 196608 num_pr0 : 12288
 SAE Count : 0
 Inter-Core Inteference in Data Store : 10853298
Heartbeat CPU 0 instructions: 60000000 cycles: 69888311 heartbeat IPC: 0.852323 cumulative IPC: 0.858513 (Simulation time: 3 hr 42 min 30 sec) 
 Total Blocks : 196608 Invalid Blocks : 0 Valid Blocks : 196608
 Total Tags : 491520 Threshold : 12288 Invalid Tags : 196609 Pr0 Tags : 98303 Pr1 Tags : 196608 num_pr0 : 12288
 SAE Count : 0
 Inter-Core Inteference in Data Store : 15816542
Heartbeat CPU 1 instructions: 60000000 cycles: 69902081 heartbeat IPC: 0.851942 cumulative IPC: 0.858344 (Simulation time: 3 hr 42 min 34 sec) 
 Total Blocks : 196608 Invalid Blocks : 0 Valid Blocks : 196608
 Total Tags : 491520 Threshold : 12288 Invalid Tags : 196608 Pr0 Tags : 98304 Pr1 Tags : 196608 num_pr0 : 12288
 SAE Count : 0
 Inter-Core Inteference in Data Store : 15822274
Heartbeat CPU 2 instructions: 60000000 cycles: 69909848 heartbeat IPC: 0.851765 cumulative IPC: 0.858248 (Simulation time: 3 hr 42 min 36 sec) 
 Total Blocks : 196608 Invalid Blocks : 0 Valid Blocks : 196608
 Total Tags : 491520 Threshold : 12288 Invalid Tags : 196608 Pr0 Tags : 98304 Pr1 Tags : 196608 num_pr0 : 12288
 SAE Count : 0
 Inter-Core Inteference in Data Store : 15825900
Heartbeat CPU 3 instructions: 60000000 cycles: 69918326 heartbeat IPC: 0.851509 cumulative IPC: 0.858144 (Simulation time: 3 hr 42 min 38 sec) 
 Total Blocks : 196608 Invalid Blocks : 0 Valid Blocks : 196608
 Total Tags : 491520 Threshold : 12288 Invalid Tags : 196608 Pr0 Tags : 98304 Pr1 Tags : 196608 num_pr0 : 12288
 SAE Count : 0
 Inter-Core Inteference in Data Store : 15829674
Heartbeat CPU 4 instructions: 60000000 cycles: 69924803 heartbeat IPC: 0.851367 cumulative IPC: 0.858065 (Simulation time: 3 hr 42 min 40 sec) 
 Total Blocks : 196608 Invalid Blocks : 0 Valid Blocks : 196608
 Total Tags : 491520 Threshold : 12288 Invalid Tags : 196608 Pr0 Tags : 98304 Pr1 Tags : 196608 num_pr0 : 12288
 SAE Count : 0
 Inter-Core Inteference in Data Store : 15832510
Heartbeat CPU 5 instructions: 60000000 cycles: 69933100 heartbeat IPC: 0.851152 cumulative IPC: 0.857963 (Simulation time: 3 hr 42 min 43 sec) 
 Total Blocks : 196608 Invalid Blocks : 0 Valid Blocks : 196608
 Total Tags : 491520 Threshold : 12288 Invalid Tags : 196608 Pr0 Tags : 98304 Pr1 Tags : 196608 num_pr0 : 12288
 SAE Count : 0
 Inter-Core Inteference in Data Store : 15836239
Heartbeat CPU 6 instructions: 60000000 cycles: 69940580 heartbeat IPC: 0.850994 cumulative IPC: 0.857871 (Simulation time: 3 hr 42 min 45 sec) 
 Total Blocks : 196608 Invalid Blocks : 0 Valid Blocks : 196608
 Total Tags : 491520 Threshold : 12288 Invalid Tags : 196608 Pr0 Tags : 98304 Pr1 Tags : 196608 num_pr0 : 12288
 SAE Count : 0
 Inter-Core Inteference in Data Store : 15839643
Heartbeat CPU 7 instructions: 60000000 cycles: 69947024 heartbeat IPC: 0.850872 cumulative IPC: 0.857792 (Simulation time: 3 hr 42 min 46 sec) 
 Total Blocks : 196608 Invalid Blocks : 0 Valid Blocks : 196608
 Total Tags : 491520 Threshold : 12288 Invalid Tags : 196608 Pr0 Tags : 98304 Pr1 Tags : 196608 num_pr0 : 12288
 SAE Count : 0
 Inter-Core Inteference in Data Store : 15842532
Heartbeat CPU 0 instructions: 70000000 cycles: 81145803 heartbeat IPC: 0.888297 cumulative IPC: 0.862645 (Simulation time: 4 hr 33 min 40 sec) 
 Total Blocks : 196608 Invalid Blocks : 0 Valid Blocks : 196608
 Total Tags : 491520 Threshold : 12288 Invalid Tags : 196608 Pr0 Tags : 98304 Pr1 Tags : 196608 num_pr0 : 12288
 SAE Count : 0
 Inter-Core Inteference in Data Store : 20868683
Heartbeat CPU 1 instructions: 70000000 cycles: 81164528 heartbeat IPC: 0.887906 cumulative IPC: 0.862446 (Simulation time: 4 hr 33 min 47 sec) 
 Total Blocks : 196608 Invalid Blocks : 0 Valid Blocks : 196608
 Total Tags : 491520 Threshold : 12288 Invalid Tags : 196608 Pr0 Tags : 98304 Pr1 Tags : 196608 num_pr0 : 12288
 SAE Count : 0
 Inter-Core Inteference in Data Store : 20877317
Heartbeat CPU 2 instructions: 70000000 cycles: 81175286 heartbeat IPC: 0.887671 cumulative IPC: 0.862331 (Simulation time: 4 hr 33 min 50 sec) 
 Total Blocks : 196608 Invalid Blocks : 0 Valid Blocks : 196608
 Total Tags : 491520 Threshold : 12288 Invalid Tags : 196608 Pr0 Tags : 98304 Pr1 Tags : 196608 num_pr0 : 12288
 SAE Count : 0
 Inter-Core Inteference in Data Store : 20882196
Heartbeat CPU 3 instructions: 70000000 cycles: 81187371 heartbeat IPC: 0.887387 cumulative IPC: 0.862203 (Simulation time: 4 hr 33 min 54 sec) 
 Total Blocks : 196608 Invalid Blocks : 0 Valid Blocks : 196608
 Total Tags : 491520 Threshold : 12288 Invalid Tags : 196608 Pr0 Tags : 98304 Pr1 Tags : 196608 num_pr0 : 12288
 SAE Count : 0
 Inter-Core Inteference in Data Store : 20887586
Heartbeat CPU 4 instructions: 70000000 cycles: 81195960 heartbeat IPC: 0.88722 cumulative IPC: 0.862112 (Simulation time: 4 hr 33 min 58 sec) 
 Total Blocks : 196608 Invalid Blocks : 0 Valid Blocks : 196608
 Total Tags : 491520 Threshold : 12288 Invalid Tags : 196608 Pr0 Tags : 98304 Pr1 Tags : 196608 num_pr0 : 12288
 SAE Count : 0
 Inter-Core Inteference in Data Store : 20891950
Heartbeat CPU 5 instructions: 70000000 cycles: 81206721 heartbeat IPC: 0.887026 cumulative IPC: 0.861998 (Simulation time: 4 hr 34 min 2 sec) 
 Total Blocks : 196608 Invalid Blocks : 0 Valid Blocks : 196608
 Total Tags : 491520 Threshold : 12288 Invalid Tags : 196608 Pr0 Tags : 98304 Pr1 Tags : 196608 num_pr0 : 12288
 SAE Count : 0
 Inter-Core Inteference in Data Store : 20897056
Heartbeat CPU 6 instructions: 70000000 cycles: 81217122 heartbeat IPC: 0.886797 cumulative IPC: 0.861887 (Simulation time: 4 hr 34 min 5 sec) 
 Total Blocks : 196608 Invalid Blocks : 0 Valid Blocks : 196608
 Total Tags : 491520 Threshold : 12288 Invalid Tags : 196608 Pr0 Tags : 98304 Pr1 Tags : 196608 num_pr0 : 12288
 SAE Count : 0
 Inter-Core Inteference in Data Store : 20902026
Heartbeat CPU 7 instructions: 70000000 cycles: 81225476 heartbeat IPC: 0.886647 cumulative IPC: 0.861799 (Simulation time: 4 hr 34 min 7 sec) 
 Total Blocks : 196608 Invalid Blocks : 0 Valid Blocks : 196608
 Total Tags : 491520 Threshold : 12288 Invalid Tags : 196608 Pr0 Tags : 98304 Pr1 Tags : 196608 num_pr0 : 12288
 SAE Count : 0
 Inter-Core Inteference in Data Store : 20906159
Heartbeat CPU 0 instructions: 80000003 cycles: 92448693 heartbeat IPC: 0.88473 cumulative IPC: 0.865345 (Simulation time: 5 hr 25 min 57 sec) 
 Total Blocks : 196608 Invalid Blocks : 0 Valid Blocks : 196608
 Total Tags : 491520 Threshold : 12288 Invalid Tags : 196608 Pr0 Tags : 98304 Pr1 Tags : 196608 num_pr0 : 12288
 SAE Count : 0
 Inter-Core Inteference in Data Store : 26011950
Heartbeat CPU 1 instructions: 80000003 cycles: 92471408 heartbeat IPC: 0.884418 cumulative IPC: 0.865132 (Simulation time: 5 hr 26 min 2 sec) 
 Total Blocks : 196608 Invalid Blocks : 0 Valid Blocks : 196608
 Total Tags : 491520 Threshold : 12288 Invalid Tags : 196608 Pr0 Tags : 98304 Pr1 Tags : 196608 num_pr0 : 12288
 SAE Count : 0
 Inter-Core Inteference in Data Store : 26022087
Heartbeat CPU 2 instructions: 80000003 cycles: 92486209 heartbeat IPC: 0.884101 cumulative IPC: 0.864994 (Simulation time: 5 hr 26 min 6 sec) 
 Total Blocks : 196608 Invalid Blocks : 0 Valid Blocks : 196608
 Total Tags : 491520 Threshold : 12288 Invalid Tags : 196608 Pr0 Tags : 98304 Pr1 Tags : 196608 num_pr0 : 12288
 SAE Count : 0
 Inter-Core Inteference in Data Store : 26028478
Heartbeat CPU 3 instructions: 80000003 cycles: 92500642 heartbeat IPC: 0.883918 cumulative IPC: 0.864859 (Simulation time: 5 hr 26 min 10 sec) 
 Total Blocks : 196608 Invalid Blocks : 0 Valid Blocks : 196608
 Total Tags : 491520 Threshold : 12288 Invalid Tags : 196608 Pr0 Tags : 98304 Pr1 Tags : 196608 num_pr0 : 12288
 SAE Count : 0
 Inter-Core Inteference in Data Store : 26034823
Heartbeat CPU 4 instructions: 80000003 cycles: 92511782 heartbeat IPC: 0.883719 cumulative IPC: 0.864755 (Simulation time: 5 hr 26 min 13 sec) 
 Total Blocks : 196608 Invalid Blocks : 0 Valid Blocks : 196608
 Total Tags : 491520 Threshold : 12288 Invalid Tags : 196608 Pr0 Tags : 98304 Pr1 Tags : 196608 num_pr0 : 12288
 SAE Count : 0
 Inter-Core Inteference in Data Store : 26039727
Heartbeat CPU 5 instructions: 80000000 cycles: 92525980 heartbeat IPC: 0.88345 cumulative IPC: 0.864622 (Simulation time: 5 hr 26 min 17 sec) 
 Total Blocks : 196608 Invalid Blocks : 0 Valid Blocks : 196608
 Total Tags : 491520 Threshold : 12288 Invalid Tags : 196608 Pr0 Tags : 98304 Pr1 Tags : 196608 num_pr0 : 12288
 SAE Count : 0
 Inter-Core Inteference in Data Store : 26045913
Heartbeat CPU 6 instructions: 80000003 cycles: 92538124 heartbeat IPC: 0.883314 cumulative IPC: 0.864509 (Simulation time: 5 hr 26 min 20 sec) 
 Total Blocks : 196608 Invalid Blocks : 0 Valid Blocks : 196608
 Total Tags : 491520 Threshold : 12288 Invalid Tags : 196608 Pr0 Tags : 98304 Pr1 Tags : 196608 num_pr0 : 12288
 SAE Count : 0
 Inter-Core Inteference in Data Store : 26051176
Heartbeat CPU 7 instructions: 80000003 cycles: 92549193 heartbeat IPC: 0.883103 cumulative IPC: 0.864405 (Simulation time: 5 hr 26 min 23 sec) 
 Total Blocks : 196608 Invalid Blocks : 0 Valid Blocks : 196608
 Total Tags : 491520 Threshold : 12288 Invalid Tags : 196608 Pr0 Tags : 98304 Pr1 Tags : 196608 num_pr0 : 12288
 SAE Count : 0
 Inter-Core Inteference in Data Store : 26055840
Heartbeat CPU 0 instructions: 90000001 cycles: 103841669 heartbeat IPC: 0.877734 cumulative IPC: 0.866704 (Simulation time: 6 hr 18 min 4 sec) 
 Total Blocks : 196608 Invalid Blocks : 0 Valid Blocks : 196608
 Total Tags : 491520 Threshold : 12288 Invalid Tags : 196608 Pr0 Tags : 98304 Pr1 Tags : 196608 num_pr0 : 12288
 SAE Count : 0
 Inter-Core Inteference in Data Store : 31081002
Heartbeat CPU 1 instructions: 90000001 cycles: 103868900 heartbeat IPC: 0.877386 cumulative IPC: 0.866477 (Simulation time: 6 hr 18 min 13 sec) 
 Total Blocks : 196608 Invalid Blocks : 0 Valid Blocks : 196608
 Total Tags : 491520 Threshold : 12288 Invalid Tags : 196608 Pr0 Tags : 98304 Pr1 Tags : 196608 num_pr0 : 12288
 SAE Count : 0
 Inter-Core Inteference in Data Store : 31093766
Heartbeat CPU 2 instructions: 90000001 cycles: 103886584 heartbeat IPC: 0.877164 cumulative IPC: 0.866329 (Simulation time: 6 hr 18 min 19 sec) 
 Total Blocks : 196608 Invalid Blocks : 0 Valid Blocks : 196608
 Total Tags : 491520 Threshold : 12288 Invalid Tags : 196608 Pr0 Tags : 98304 Pr1 Tags : 196608 num_pr0 : 12288
 SAE Count : 0
 Inter-Core Inteference in Data Store : 31101790
Heartbeat CPU 3 instructions: 90000001 cycles: 103904686 heartbeat IPC: 0.876882 cumulative IPC: 0.866178 (Simulation time: 6 hr 18 min 24 sec) 
 Total Blocks : 196608 Invalid Blocks : 0 Valid Blocks : 196608
 Total Tags : 491520 Threshold : 12288 Invalid Tags : 196608 Pr0 Tags : 98304 Pr1 Tags : 196608 num_pr0 : 12288
 SAE Count : 0
 Inter-Core Inteference in Data Store : 31110705
Heartbeat CPU 4 instructions: 90000001 cycles: 103918104 heartbeat IPC: 0.876707 cumulative IPC: 0.866067 (Simulation time: 6 hr 18 min 28 sec) 
 Total Blocks : 196608 Invalid Blocks : 0 Valid Blocks : 196608
 Total Tags : 491520 Threshold : 12288 Invalid Tags : 196608 Pr0 Tags : 98304 Pr1 Tags : 196608 num_pr0 : 12288
 SAE Count : 0
 Inter-Core Inteference in Data Store : 31117728
Heartbeat CPU 5 instructions: 90000001 cycles: 103934594 heartbeat IPC: 0.876531 cumulative IPC: 0.865929 (Simulation time: 6 hr 18 min 34 sec) 
 Total Blocks : 196608 Invalid Blocks : 0 Valid Blocks : 196608
 Total Tags : 491520 Threshold : 12288 Invalid Tags : 196608 Pr0 Tags : 98304 Pr1 Tags : 196608 num_pr0 : 12288
 SAE Count : 0
 Inter-Core Inteference in Data Store : 31126061
Heartbeat CPU 6 instructions: 90000001 cycles: 103949521 heartbeat IPC: 0.876317 cumulative IPC: 0.865805 (Simulation time: 6 hr 18 min 40 sec) 
 Total Blocks : 196608 Invalid Blocks : 0 Valid Blocks : 196608
 Total Tags : 491520 Threshold : 12288 Invalid Tags : 196608 Pr0 Tags : 98304 Pr1 Tags : 196608 num_pr0 : 12288
 SAE Count : 0
 Inter-Core Inteference in Data Store : 31134047
Heartbeat CPU 7 instructions: 90000002 cycles: 103962410 heartbeat IPC: 0.876177 cumulative IPC: 0.865698 (Simulation time: 6 hr 18 min 46 sec) 
 Total Blocks : 196608 Invalid Blocks : 0 Valid Blocks : 196608
 Total Tags : 491520 Threshold : 12288 Invalid Tags : 196608 Pr0 Tags : 98304 Pr1 Tags : 196608 num_pr0 : 12288
 SAE Count : 0
 Inter-Core Inteference in Data Store : 31140983
Heartbeat CPU 0 instructions: 100000001 cycles: 114566307 heartbeat IPC: 0.932432 cumulative IPC: 0.872857 (Simulation time: 7 hr 7 min 43 sec) 
 Total Blocks : 196608 Invalid Blocks : 0 Valid Blocks : 196608
 Total Tags : 491520 Threshold : 12288 Invalid Tags : 196608 Pr0 Tags : 98304 Pr1 Tags : 196608 num_pr0 : 12288
 SAE Count : 0
 Inter-Core Inteference in Data Store : 35673479
Heartbeat CPU 1 instructions: 100000000 cycles: 114597666 heartbeat IPC: 0.932074 cumulative IPC: 0.872618 (Simulation time: 7 hr 7 min 53 sec) 
 Total Blocks : 196608 Invalid Blocks : 0 Valid Blocks : 196608
 Total Tags : 491520 Threshold : 12288 Invalid Tags : 196608 Pr0 Tags : 98304 Pr1 Tags : 196608 num_pr0 : 12288
 SAE Count : 0
 Inter-Core Inteference in Data Store : 35689246
Heartbeat CPU 2 instructions: 100000002 cycles: 114618922 heartbeat IPC: 0.931764 cumulative IPC: 0.872456 (Simulation time: 7 hr 7 min 59 sec) 
 Total Blocks : 196608 Invalid Blocks : 0 Valid Blocks : 196608
 Total Tags : 491520 Threshold : 12288 Invalid Tags : 196608 Pr0 Tags : 98304 Pr1 Tags : 196608 num_pr0 : 12288
 SAE Count : 0
 Inter-Core Inteference in Data Store : 35700335
Heartbeat CPU 3 instructions: 100000002 cycles: 114639526 heartbeat IPC: 0.931546 cumulative IPC: 0.872299 (Simulation time: 7 hr 8 min 5 sec) 
 Total Blocks : 196608 Invalid Blocks : 0 Valid Blocks : 196608
 Total Tags : 491520 Threshold : 12288 Invalid Tags : 196608 Pr0 Tags : 98304 Pr1 Tags : 196608 num_pr0 : 12288
 SAE Count : 0
 Inter-Core Inteference in Data Store : 35710774
Heartbeat CPU 4 instructions: 100000002 cycles: 114655769 heartbeat IPC: 0.931301 cumulative IPC: 0.872176 (Simulation time: 7 hr 8 min 11 sec) 
 Total Blocks : 196608 Invalid Blocks : 0 Valid Blocks : 196608
 Total Tags : 491520 Threshold : 12288 Invalid Tags : 196608 Pr0 Tags : 98304 Pr1 Tags : 196608 num_pr0 : 12288
 SAE Count : 0
 Inter-Core Inteference in Data Store : 35719116
Heartbeat CPU 5 instructions: 100000002 cycles: 114674144 heartbeat IPC: 0.931138 cumulative IPC: 0.872036 (Simulation time: 7 hr 8 min 16 sec) 
 Total Blocks : 196608 Invalid Blocks : 0 Valid Blocks : 196608
 Total Tags : 491520 Threshold : 12288 Invalid Tags : 196608 Pr0 Tags : 98304 Pr1 Tags : 196608 num_pr0 : 12288
 SAE Count : 0
 Inter-Core Inteference in Data Store : 35728521
Heartbeat CPU 6 instructions: 100000002 cycles: 114691607 heartbeat IPC: 0.930918 cumulative IPC: 0.871903 (Simulation time: 7 hr 8 min 22 sec) 
 Total Blocks : 196608 Invalid Blocks : 0 Valid Blocks : 196608
 Total Tags : 491520 Threshold : 12288 Invalid Tags : 196608 Pr0 Tags : 98304 Pr1 Tags : 196608 num_pr0 : 12288
 SAE Count : 0
 Inter-Core Inteference in Data Store : 35737518
Heartbeat CPU 7 instructions: 100000000 cycles: 114705972 heartbeat IPC: 0.93079 cumulative IPC: 0.871794 (Simulation time: 7 hr 8 min 27 sec) 
 Total Blocks : 196608 Invalid Blocks : 0 Valid Blocks : 196608
 Total Tags : 491520 Threshold : 12288 Invalid Tags : 196608 Pr0 Tags : 98304 Pr1 Tags : 196608 num_pr0 : 12288
 SAE Count : 0
 Inter-Core Inteference in Data Store : 35745099
Heartbeat CPU 0 instructions: 110000000 cycles: 125230005 heartbeat IPC: 0.937761 cumulative IPC: 0.878384 (Simulation time: 7 hr 58 min 31 sec) 
 Total Blocks : 196608 Invalid Blocks : 0 Valid Blocks : 196608
 Total Tags : 491520 Threshold : 12288 Invalid Tags : 196608 Pr0 Tags : 98304 Pr1 Tags : 196608 num_pr0 : 12288
 SAE Count : 0
 Inter-Core Inteference in Data Store : 40416835
Heartbeat CPU 1 instructions: 110000000 cycles: 125265082 heartbeat IPC: 0.937434 cumulative IPC: 0.878138 (Simulation time: 7 hr 58 min 40 sec) 
 Total Blocks : 196608 Invalid Blocks : 0 Valid Blocks : 196608
 Total Tags : 491520 Threshold : 12288 Invalid Tags : 196608 Pr0 Tags : 98304 Pr1 Tags : 196608 num_pr0 : 12288
 SAE Count : 0
 Inter-Core Inteference in Data Store : 40433265
Heartbeat CPU 2 instructions: 110000000 cycles: 125289506 heartbeat IPC: 0.937156 cumulative IPC: 0.877967 (Simulation time: 7 hr 58 min 47 sec) 
 Total Blocks : 196608 Invalid Blocks : 0 Valid Blocks : 196608
 Total Tags : 491520 Threshold : 12288 Invalid Tags : 196608 Pr0 Tags : 98304 Pr1 Tags : 196608 num_pr0 : 12288
 SAE Count : 0
 Inter-Core Inteference in Data Store : 40445171
Heartbeat CPU 3 instructions: 110000000 cycles: 125312940 heartbeat IPC: 0.936907 cumulative IPC: 0.877802 (Simulation time: 7 hr 58 min 54 sec) 
 Total Blocks : 196608 Invalid Blocks : 0 Valid Blocks : 196608
 Total Tags : 491520 Threshold : 12288 Invalid Tags : 196608 Pr0 Tags : 98304 Pr1 Tags : 196608 num_pr0 : 12288
 SAE Count : 0
 Inter-Core Inteference in Data Store : 40457004
Heartbeat CPU 4 instructions: 110000000 cycles: 125332764 heartbeat IPC: 0.936593 cumulative IPC: 0.877664 (Simulation time: 7 hr 59 min 0 sec) 
 Total Blocks : 196608 Invalid Blocks : 0 Valid Blocks : 196608
 Total Tags : 491520 Threshold : 12288 Invalid Tags : 196608 Pr0 Tags : 98304 Pr1 Tags : 196608 num_pr0 : 12288
 SAE Count : 0
 Inter-Core Inteference in Data Store : 40467185
Heartbeat CPU 5 instructions: 110000000 cycles: 125353040 heartbeat IPC: 0.936426 cumulative IPC: 0.877522 (Simulation time: 7 hr 59 min 6 sec) 
 Total Blocks : 196608 Invalid Blocks : 0 Valid Blocks : 196608
 Total Tags : 491520 Threshold : 12288 Invalid Tags : 196608 Pr0 Tags : 98304 Pr1 Tags : 196608 num_pr0 : 12288
 SAE Count : 0
 Inter-Core Inteference in Data Store : 40477996
Heartbeat CPU 6 instructions: 110000000 cycles: 125373264 heartbeat IPC: 0.936184 cumulative IPC: 0.87738 (Simulation time: 7 hr 59 min 13 sec) 
 Total Blocks : 196608 Invalid Blocks : 0 Valid Blocks : 196608
 Total Tags : 491520 Threshold : 12288 Invalid Tags : 196608 Pr0 Tags : 98304 Pr1 Tags : 196608 num_pr0 : 12288
 SAE Count : 0
 Inter-Core Inteference in Data Store : 40489014
Heartbeat CPU 7 instructions: 110000000 cycles: 125389451 heartbeat IPC: 0.936025 cumulative IPC: 0.877267 (Simulation time: 7 hr 59 min 18 sec) 
 Total Blocks : 196608 Invalid Blocks : 0 Valid Blocks : 196608
 Total Tags : 491520 Threshold : 12288 Invalid Tags : 196608 Pr0 Tags : 98304 Pr1 Tags : 196608 num_pr0 : 12288
 SAE Count : 0
 Inter-Core Inteference in Data Store : 40497496
Heartbeat CPU 0 instructions: 120000002 cycles: 136016481 heartbeat IPC: 0.927087 cumulative IPC: 0.882246 (Simulation time: 8 hr 48 min 46 sec) 
 Total Blocks : 196608 Invalid Blocks : 0 Valid Blocks : 196608
 Total Tags : 491520 Threshold : 12288 Invalid Tags : 196608 Pr0 Tags : 98304 Pr1 Tags : 196608 num_pr0 : 12288
 SAE Count : 0
 Inter-Core Inteference in Data Store : 45324785
Heartbeat CPU 1 instructions: 120000002 cycles: 136055456 heartbeat IPC: 0.926752 cumulative IPC: 0.881993 (Simulation time: 8 hr 48 min 56 sec) 
 Total Blocks : 196608 Invalid Blocks : 0 Valid Blocks : 196608
 Total Tags : 491520 Threshold : 12288 Invalid Tags : 196608 Pr0 Tags : 98304 Pr1 Tags : 196608 num_pr0 : 12288
 SAE Count : 0
 Inter-Core Inteference in Data Store : 45343446
Heartbeat CPU 2 instructions: 120000002 cycles: 136082511 heartbeat IPC: 0.926526 cumulative IPC: 0.881818 (Simulation time: 8 hr 49 min 3 sec) 
 Total Blocks : 196608 Invalid Blocks : 0 Valid Blocks : 196608
 Total Tags : 491520 Threshold : 12288 Invalid Tags : 196608 Pr0 Tags : 98304 Pr1 Tags : 196608 num_pr0 : 12288
 SAE Count : 0
 Inter-Core Inteference in Data Store : 45356248
Heartbeat CPU 3 instructions: 120000002 cycles: 136109405 heartbeat IPC: 0.926229 cumulative IPC: 0.881644 (Simulation time: 8 hr 49 min 10 sec) 
 Total Blocks : 196608 Invalid Blocks : 0 Valid Blocks : 196608
 Total Tags : 491520 Threshold : 12288 Invalid Tags : 196608 Pr0 Tags : 98304 Pr1 Tags : 196608 num_pr0 : 12288
 SAE Count : 0
 Inter-Core Inteference in Data Store : 45369409
Heartbeat CPU 4 instructions: 120000002 cycles: 136131481 heartbeat IPC: 0.926036 cumulative IPC: 0.881501 (Simulation time: 8 hr 49 min 16 sec) 
 Total Blocks : 196608 Invalid Blocks : 0 Valid Blocks : 196608
 Total Tags : 491520 Threshold : 12288 Invalid Tags : 196608 Pr0 Tags : 98304 Pr1 Tags : 196608 num_pr0 : 12288
 SAE Count : 0
 Inter-Core Inteference in Data Store : 45380024
Heartbeat CPU 5 instructions: 120000002 cycles: 136153888 heartbeat IPC: 0.925853 cumulative IPC: 0.881356 (Simulation time: 8 hr 49 min 23 sec) 
 Total Blocks : 196608 Invalid Blocks : 0 Valid Blocks : 196608
 Total Tags : 491520 Threshold : 12288 Invalid Tags : 196608 Pr0 Tags : 98304 Pr1 Tags : 196608 num_pr0 : 12288
 SAE Count : 0
 Inter-Core Inteference in Data Store : 45390732
Heartbeat CPU 6 instructions: 120000002 cycles: 136176364 heartbeat IPC: 0.92566 cumulative IPC: 0.88121 (Simulation time: 8 hr 49 min 30 sec) 
 Total Blocks : 196608 Invalid Blocks : 0 Valid Blocks : 196608
 Total Tags : 491520 Threshold : 12288 Invalid Tags : 196608 Pr0 Tags : 98304 Pr1 Tags : 196608 num_pr0 : 12288
 SAE Count : 0
 Inter-Core Inteference in Data Store : 45401536
Heartbeat CPU 7 instructions: 120000002 cycles: 136195353 heartbeat IPC: 0.92542 cumulative IPC: 0.881087 (Simulation time: 8 hr 49 min 36 sec) 
 Total Blocks : 196608 Invalid Blocks : 0 Valid Blocks : 196608
 Total Tags : 491520 Threshold : 12288 Invalid Tags : 196608 Pr0 Tags : 98304 Pr1 Tags : 196608 num_pr0 : 12288
 SAE Count : 0
 Inter-Core Inteference in Data Store : 45410663
Heartbeat CPU 0 instructions: 130000000 cycles: 147320819 heartbeat IPC: 0.884616 cumulative IPC: 0.882428 (Simulation time: 9 hr 38 min 22 sec) 
 Total Blocks : 196608 Invalid Blocks : 0 Valid Blocks : 196608
 Total Tags : 491520 Threshold : 12288 Invalid Tags : 196608 Pr0 Tags : 98304 Pr1 Tags : 196608 num_pr0 : 12288
 SAE Count : 0
 Inter-Core Inteference in Data Store : 50425539
Heartbeat CPU 1 instructions: 130000000 cycles: 147364405 heartbeat IPC: 0.884255 cumulative IPC: 0.882167 (Simulation time: 9 hr 38 min 36 sec) 
 Total Blocks : 196608 Invalid Blocks : 0 Valid Blocks : 196608
 Total Tags : 491520 Threshold : 12288 Invalid Tags : 196608 Pr0 Tags : 98304 Pr1 Tags : 196608 num_pr0 : 12288
 SAE Count : 0
 Inter-Core Inteference in Data Store : 50447417
Heartbeat CPU 2 instructions: 130000000 cycles: 147395171 heartbeat IPC: 0.883965 cumulative IPC: 0.881983 (Simulation time: 9 hr 38 min 47 sec) 
 Total Blocks : 196608 Invalid Blocks : 0 Valid Blocks : 196608
 Total Tags : 491520 Threshold : 12288 Invalid Tags : 196608 Pr0 Tags : 98304 Pr1 Tags : 196608 num_pr0 : 12288
 SAE Count : 0
 Inter-Core Inteference in Data Store : 50463028
Heartbeat CPU 3 instructions: 130000000 cycles: 147424981 heartbeat IPC: 0.883737 cumulative IPC: 0.881804 (Simulation time: 9 hr 38 min 58 sec) 
 Total Blocks : 196608 Invalid Blocks : 0 Valid Blocks : 196608
 Total Tags : 491520 Threshold : 12288 Invalid Tags : 196608 Pr0 Tags : 98304 Pr1 Tags : 196608 num_pr0 : 12288
 SAE Count : 0
 Inter-Core Inteference in Data Store : 50479220
Heartbeat CPU 4 instructions: 130000000 cycles: 147449264 heartbeat IPC: 0.883565 cumulative IPC: 0.881659 (Simulation time: 9 hr 39 min 7 sec) 
 Total Blocks : 196608 Invalid Blocks : 0 Valid Blocks : 196608
 Total Tags : 491520 Threshold : 12288 Invalid Tags : 196608 Pr0 Tags : 98304 Pr1 Tags : 196608 num_pr0 : 12288
 SAE Count : 0
 Inter-Core Inteference in Data Store : 50492625
Heartbeat CPU 5 instructions: 130000000 cycles: 147473609 heartbeat IPC: 0.883414 cumulative IPC: 0.881514 (Simulation time: 9 hr 39 min 15 sec) 
 Total Blocks : 196608 Invalid Blocks : 0 Valid Blocks : 196608
 Total Tags : 491520 Threshold : 12288 Invalid Tags : 196608 Pr0 Tags : 98304 Pr1 Tags : 196608 num_pr0 : 12288
 SAE Count : 0
 Inter-Core Inteference in Data Store : 50504776
Heartbeat CPU 6 instructions: 130000000 cycles: 147499760 heartbeat IPC: 0.883127 cumulative IPC: 0.881357 (Simulation time: 9 hr 39 min 23 sec) 
 Total Blocks : 196608 Invalid Blocks : 0 Valid Blocks : 196608
 Total Tags : 491520 Threshold : 12288 Invalid Tags : 196608 Pr0 Tags : 98304 Pr1 Tags : 196608 num_pr0 : 12288
 SAE Count : 0
 Inter-Core Inteference in Data Store : 50517549
Heartbeat CPU 7 instructions: 130000000 cycles: 147520147 heartbeat IPC: 0.883018 cumulative IPC: 0.881236 (Simulation time: 9 hr 39 min 28 sec) 
 Total Blocks : 196608 Invalid Blocks : 0 Valid Blocks : 196608
 Total Tags : 491520 Threshold : 12288 Invalid Tags : 196608 Pr0 Tags : 98304 Pr1 Tags : 196608 num_pr0 : 12288
 SAE Count : 0
 Inter-Core Inteference in Data Store : 50526797
Heartbeat CPU 0 instructions: 140000001 cycles: 158478763 heartbeat IPC: 0.896223 cumulative IPC: 0.883399 (Simulation time: 10 hr 29 min 25 sec) 
 Total Blocks : 196608 Invalid Blocks : 0 Valid Blocks : 196608
 Total Tags : 491520 Threshold : 12288 Invalid Tags : 196608 Pr0 Tags : 98304 Pr1 Tags : 196608 num_pr0 : 12288
 SAE Count : 0
 Inter-Core Inteference in Data Store : 55392537
Heartbeat CPU 1 instructions: 140000001 cycles: 158526364 heartbeat IPC: 0.8959 cumulative IPC: 0.883134 (Simulation time: 10 hr 29 min 38 sec) 
 Total Blocks : 196608 Invalid Blocks : 0 Valid Blocks : 196608
 Total Tags : 491520 Threshold : 12288 Invalid Tags : 196608 Pr0 Tags : 98304 Pr1 Tags : 196608 num_pr0 : 12288
 SAE Count : 0
 Inter-Core Inteference in Data Store : 55415174
Heartbeat CPU 2 instructions: 140000001 cycles: 158560338 heartbeat IPC: 0.895643 cumulative IPC: 0.882945 (Simulation time: 10 hr 29 min 48 sec) 
 Total Blocks : 196608 Invalid Blocks : 0 Valid Blocks : 196608
 Total Tags : 491520 Threshold : 12288 Invalid Tags : 196608 Pr0 Tags : 98304 Pr1 Tags : 196608 num_pr0 : 12288
 SAE Count : 0
 Inter-Core Inteference in Data Store : 55431542
Heartbeat CPU 3 instructions: 140000001 cycles: 158592482 heartbeat IPC: 0.895456 cumulative IPC: 0.882766 (Simulation time: 10 hr 29 min 58 sec) 
 Total Blocks : 196608 Invalid Blocks : 0 Valid Blocks : 196608
 Total Tags : 491520 Threshold : 12288 Invalid Tags : 196608 Pr0 Tags : 98304 Pr1 Tags : 196608 num_pr0 : 12288
 SAE Count : 0
 Inter-Core Inteference in Data Store : 55447077
Heartbeat CPU 4 instructions: 140000001 cycles: 158619991 heartbeat IPC: 0.895197 cumulative IPC: 0.882613 (Simulation time: 10 hr 30 min 7 sec) 
 Total Blocks : 196608 Invalid Blocks : 0 Valid Blocks : 196608
 Total Tags : 491520 Threshold : 12288 Invalid Tags : 196608 Pr0 Tags : 98304 Pr1 Tags : 196608 num_pr0 : 12288
 SAE Count : 0
 Inter-Core Inteference in Data Store : 55460418
Heartbeat CPU 5 instructions: 140000001 cycles: 158647089 heartbeat IPC: 0.894976 cumulative IPC: 0.882462 (Simulation time: 10 hr 30 min 14 sec) 
 Total Blocks : 196608 Invalid Blocks : 0 Valid Blocks : 196608
 Total Tags : 491520 Threshold : 12288 Invalid Tags : 196608 Pr0 Tags : 98304 Pr1 Tags : 196608 num_pr0 : 12288
 SAE Count : 0
 Inter-Core Inteference in Data Store : 55473817
Heartbeat CPU 6 instructions: 140000001 cycles: 158675330 heartbeat IPC: 0.894809 cumulative IPC: 0.882305 (Simulation time: 10 hr 30 min 21 sec) 
 Total Blocks : 196608 Invalid Blocks : 0 Valid Blocks : 196608
 Total Tags : 491520 Threshold : 12288 Invalid Tags : 196608 Pr0 Tags : 98304 Pr1 Tags : 196608 num_pr0 : 12288
 SAE Count : 0
 Inter-Core Inteference in Data Store : 55487359
Heartbeat CPU 7 instructions: 140000001 cycles: 158697603 heartbeat IPC: 0.894658 cumulative IPC: 0.882181 (Simulation time: 10 hr 30 min 26 sec) 
 Total Blocks : 196608 Invalid Blocks : 0 Valid Blocks : 196608
 Total Tags : 491520 Threshold : 12288 Invalid Tags : 196608 Pr0 Tags : 98304 Pr1 Tags : 196608 num_pr0 : 12288
 SAE Count : 0
 Inter-Core Inteference in Data Store : 55497775
Heartbeat CPU 0 instructions: 150000000 cycles: 168670712 heartbeat IPC: 0.981166 cumulative IPC: 0.889307 (Simulation time: 11 hr 21 min 37 sec) 
 Total Blocks : 196608 Invalid Blocks : 0 Valid Blocks : 196608
 Total Tags : 491520 Threshold : 12288 Invalid Tags : 196608 Pr0 Tags : 98304 Pr1 Tags : 196608 num_pr0 : 12288
 SAE Count : 0
 Inter-Core Inteference in Data Store : 59835446
Heartbeat CPU 1 instructions: 150000000 cycles: 168721590 heartbeat IPC: 0.980851 cumulative IPC: 0.889039 (Simulation time: 11 hr 21 min 50 sec) 
 Total Blocks : 196608 Invalid Blocks : 0 Valid Blocks : 196608
 Total Tags : 491520 Threshold : 12288 Invalid Tags : 196608 Pr0 Tags : 98304 Pr1 Tags : 196608 num_pr0 : 12288
 SAE Count : 0
 Inter-Core Inteference in Data Store : 59855943
Heartbeat CPU 2 instructions: 150000000 cycles: 168758996 heartbeat IPC: 0.980521 cumulative IPC: 0.888842 (Simulation time: 11 hr 22 min 2 sec) 
 Total Blocks : 196608 Invalid Blocks : 0 Valid Blocks : 196608
 Total Tags : 491520 Threshold : 12288 Invalid Tags : 196608 Pr0 Tags : 98304 Pr1 Tags : 196608 num_pr0 : 12288
 SAE Count : 0
 Inter-Core Inteference in Data Store : 59872479
Heartbeat CPU 3 instructions: 150000000 cycles: 168793206 heartbeat IPC: 0.980322 cumulative IPC: 0.888661 (Simulation time: 11 hr 22 min 11 sec) 
 Total Blocks : 196608 Invalid Blocks : 0 Valid Blocks : 196608
 Total Tags : 491520 Threshold : 12288 Invalid Tags : 196608 Pr0 Tags : 98304 Pr1 Tags : 196608 num_pr0 : 12288
 SAE Count : 0
 Inter-Core Inteference in Data Store : 59887252
Heartbeat CPU 4 instructions: 150000000 cycles: 168823391 heartbeat IPC: 0.980065 cumulative IPC: 0.888502 (Simulation time: 11 hr 22 min 18 sec) 
 Total Blocks : 196608 Invalid Blocks : 0 Valid Blocks : 196608
 Total Tags : 491520 Threshold : 12288 Invalid Tags : 196608 Pr0 Tags : 98304 Pr1 Tags : 196608 num_pr0 : 12288
 SAE Count : 0
 Inter-Core Inteference in Data Store : 59900201
Heartbeat CPU 5 instructions: 150000000 cycles: 168852865 heartbeat IPC: 0.979837 cumulative IPC: 0.888347 (Simulation time: 11 hr 22 min 27 sec) 
 Total Blocks : 196608 Invalid Blocks : 0 Valid Blocks : 196608
 Total Tags : 491520 Threshold : 12288 Invalid Tags : 196608 Pr0 Tags : 98304 Pr1 Tags : 196608 num_pr0 : 12288
 SAE Count : 0
 Inter-Core Inteference in Data Store : 59912877
Heartbeat CPU 6 instructions: 150000000 cycles: 168883135 heartbeat IPC: 0.979642 cumulative IPC: 0.888188 (Simulation time: 11 hr 22 min 37 sec) 
 Total Blocks : 196608 Invalid Blocks : 0 Valid Blocks : 196608
 Total Tags : 491520 Threshold : 12288 Invalid Tags : 196608 Pr0 Tags : 98304 Pr1 Tags : 196608 num_pr0 : 12288
 SAE Count : 0
 Inter-Core Inteference in Data Store : 59926145
Heartbeat CPU 7 instructions: 150000000 cycles: 168906728 heartbeat IPC: 0.979516 cumulative IPC: 0.888064 (Simulation time: 11 hr 22 min 43 sec) 
 Total Blocks : 196608 Invalid Blocks : 0 Valid Blocks : 196608
 Total Tags : 491520 Threshold : 12288 Invalid Tags : 196608 Pr0 Tags : 98304 Pr1 Tags : 196608 num_pr0 : 12288
 SAE Count : 0
 Inter-Core Inteference in Data Store : 59936922
Heartbeat CPU 0 instructions: 160000001 cycles: 179526075 heartbeat IPC: 0.921204 cumulative IPC: 0.891235 (Simulation time: 12 hr 14 min 2 sec) 
 Total Blocks : 196608 Invalid Blocks : 0 Valid Blocks : 196608
 Total Tags : 491520 Threshold : 12288 Invalid Tags : 196608 Pr0 Tags : 98304 Pr1 Tags : 196608 num_pr0 : 12288
 SAE Count : 0
 Inter-Core Inteference in Data Store : 64677030
Heartbeat CPU 1 instructions: 160000001 cycles: 179580674 heartbeat IPC: 0.920888 cumulative IPC: 0.890964 (Simulation time: 12 hr 14 min 20 sec) 
 Total Blocks : 196608 Invalid Blocks : 0 Valid Blocks : 196608
 Total Tags : 491520 Threshold : 12288 Invalid Tags : 196608 Pr0 Tags : 98304 Pr1 Tags : 196608 num_pr0 : 12288
 SAE Count : 0
 Inter-Core Inteference in Data Store : 64701370
Heartbeat CPU 2 instructions: 160000001 cycles: 179620915 heartbeat IPC: 0.920648 cumulative IPC: 0.890765 (Simulation time: 12 hr 14 min 32 sec) 
 Total Blocks : 196608 Invalid Blocks : 0 Valid Blocks : 196608
 Total Tags : 491520 Threshold : 12288 Invalid Tags : 196608 Pr0 Tags : 98304 Pr1 Tags : 196608 num_pr0 : 12288
 SAE Count : 0
 Inter-Core Inteference in Data Store : 64719234
Heartbeat CPU 3 instructions: 160000001 cycles: 179657955 heartbeat IPC: 0.920408 cumulative IPC: 0.890581 (Simulation time: 12 hr 14 min 46 sec) 
 Total Blocks : 196608 Invalid Blocks : 0 Valid Blocks : 196608
 Total Tags : 491520 Threshold : 12288 Invalid Tags : 196609 Pr0 Tags : 98303 Pr1 Tags : 196608 num_pr0 : 12288
 SAE Count : 0
 Inter-Core Inteference in Data Store : 64735766
Heartbeat CPU 4 instructions: 160000001 cycles: 179690382 heartbeat IPC: 0.920218 cumulative IPC: 0.89042 (Simulation time: 12 hr 14 min 58 sec) 
 Total Blocks : 196608 Invalid Blocks : 0 Valid Blocks : 196608
 Total Tags : 491520 Threshold : 12288 Invalid Tags : 196608 Pr0 Tags : 98304 Pr1 Tags : 196608 num_pr0 : 12288
 SAE Count : 0
 Inter-Core Inteference in Data Store : 64750214
Heartbeat CPU 5 instructions: 160000001 cycles: 179722244 heartbeat IPC: 0.920016 cumulative IPC: 0.890263 (Simulation time: 12 hr 15 min 9 sec) 
 Total Blocks : 196608 Invalid Blocks : 0 Valid Blocks : 196608
 Total Tags : 491520 Threshold : 12288 Invalid Tags : 196608 Pr0 Tags : 98304 Pr1 Tags : 196608 num_pr0 : 12288
 SAE Count : 0
 Inter-Core Inteference in Data Store : 64764621
Heartbeat CPU 6 instructions: 160000001 cycles: 179754965 heartbeat IPC: 0.919808 cumulative IPC: 0.890101 (Simulation time: 12 hr 15 min 22 sec) 
 Total Blocks : 196608 Invalid Blocks : 0 Valid Blocks : 196608
 Total Tags : 491520 Threshold : 12288 Invalid Tags : 196608 Pr0 Tags : 98304 Pr1 Tags : 196608 num_pr0 : 12288
 SAE Count : 0
 Inter-Core Inteference in Data Store : 64779142
Heartbeat CPU 7 instructions: 160000001 cycles: 179779672 heartbeat IPC: 0.919714 cumulative IPC: 0.889978 (Simulation time: 12 hr 15 min 30 sec) 
 Total Blocks : 196608 Invalid Blocks : 0 Valid Blocks : 196608
 Total Tags : 491520 Threshold : 12288 Invalid Tags : 196608 Pr0 Tags : 98304 Pr1 Tags : 196608 num_pr0 : 12288
 SAE Count : 0
 Inter-Core Inteference in Data Store : 64789347
Heartbeat CPU 0 instructions: 170000002 cycles: 190513243 heartbeat IPC: 0.910153 cumulative IPC: 0.892326 (Simulation time: 13 hr 8 min 7 sec) 
 Total Blocks : 196608 Invalid Blocks : 0 Valid Blocks : 196608
 Total Tags : 491520 Threshold : 12288 Invalid Tags : 196608 Pr0 Tags : 98304 Pr1 Tags : 196608 num_pr0 : 12288
 SAE Count : 0
 Inter-Core Inteference in Data Store : 69622851
Heartbeat CPU 1 instructions: 170000002 cycles: 190571849 heartbeat IPC: 0.909821 cumulative IPC: 0.892052 (Simulation time: 13 hr 8 min 26 sec) 
 Total Blocks : 196608 Invalid Blocks : 0 Valid Blocks : 196608
 Total Tags : 491520 Threshold : 12288 Invalid Tags : 196608 Pr0 Tags : 98304 Pr1 Tags : 196608 num_pr0 : 12288
 SAE Count : 0
 Inter-Core Inteference in Data Store : 69648861
Heartbeat CPU 2 instructions: 170000002 cycles: 190615177 heartbeat IPC: 0.909565 cumulative IPC: 0.891849 (Simulation time: 13 hr 8 min 38 sec) 
 Total Blocks : 196608 Invalid Blocks : 0 Valid Blocks : 196608
 Total Tags : 491520 Threshold : 12288 Invalid Tags : 196608 Pr0 Tags : 98304 Pr1 Tags : 196608 num_pr0 : 12288
 SAE Count : 0
 Inter-Core Inteference in Data Store : 69668161
Heartbeat CPU 3 instructions: 170000003 cycles: 190654533 heartbeat IPC: 0.909374 cumulative IPC: 0.891665 (Simulation time: 13 hr 8 min 49 sec) 
 Total Blocks : 196608 Invalid Blocks : 0 Valid Blocks : 196608
 Total Tags : 491520 Threshold : 12288 Invalid Tags : 196608 Pr0 Tags : 98304 Pr1 Tags : 196608 num_pr0 : 12288
 SAE Count : 0
 Inter-Core Inteference in Data Store : 69685607
Heartbeat CPU 4 instructions: 170000003 cycles: 190689444 heartbeat IPC: 0.909169 cumulative IPC: 0.891502 (Simulation time: 13 hr 8 min 58 sec) 
 Total Blocks : 196608 Invalid Blocks : 0 Valid Blocks : 196608
 Total Tags : 491520 Threshold : 12288 Invalid Tags : 196608 Pr0 Tags : 98304 Pr1 Tags : 196608 num_pr0 : 12288
 SAE Count : 0
 Inter-Core Inteference in Data Store : 69700126
Heartbeat CPU 5 instructions: 170000003 cycles: 190723918 heartbeat IPC: 0.908953 cumulative IPC: 0.891341 (Simulation time: 13 hr 9 min 8 sec) 
 Total Blocks : 196608 Invalid Blocks : 0 Valid Blocks : 196608
 Total Tags : 491520 Threshold : 12288 Invalid Tags : 196608 Pr0 Tags : 98304 Pr1 Tags : 196608 num_pr0 : 12288
 SAE Count : 0
 Inter-Core Inteference in Data Store : 69715917
Heartbeat CPU 6 instructions: 170000003 cycles: 190758603 heartbeat IPC: 0.908791 cumulative IPC: 0.891179 (Simulation time: 13 hr 9 min 20 sec) 
 Total Blocks : 196608 Invalid Blocks : 0 Valid Blocks : 196608
 Total Tags : 491520 Threshold : 12288 Invalid Tags : 196608 Pr0 Tags : 98304 Pr1 Tags : 196608 num_pr0 : 12288
 SAE Count : 0
 Inter-Core Inteference in Data Store : 69731213
Heartbeat CPU 7 instructions: 170000002 cycles: 190785178 heartbeat IPC: 0.908636 cumulative IPC: 0.891055 (Simulation time: 13 hr 9 min 27 sec) 
 Total Blocks : 196608 Invalid Blocks : 0 Valid Blocks : 196608
 Total Tags : 491520 Threshold : 12288 Invalid Tags : 196608 Pr0 Tags : 98304 Pr1 Tags : 196608 num_pr0 : 12288
 SAE Count : 0
 Inter-Core Inteference in Data Store : 69743397
Heartbeat CPU 0 instructions: 180000001 cycles: 201466161 heartbeat IPC: 0.912999 cumulative IPC: 0.89345 (Simulation time: 14 hr 1 min 9 sec) 
 Total Blocks : 196608 Invalid Blocks : 0 Valid Blocks : 196608
 Total Tags : 491520 Threshold : 12288 Invalid Tags : 196608 Pr0 Tags : 98304 Pr1 Tags : 196608 num_pr0 : 12288
 SAE Count : 0
 Inter-Core Inteference in Data Store : 74529305
Heartbeat CPU 1 instructions: 180000001 cycles: 201528964 heartbeat IPC: 0.912649 cumulative IPC: 0.893172 (Simulation time: 14 hr 1 min 32 sec) 
 Total Blocks : 196608 Invalid Blocks : 0 Valid Blocks : 196608
 Total Tags : 491520 Threshold : 12288 Invalid Tags : 196608 Pr0 Tags : 98304 Pr1 Tags : 196608 num_pr0 : 12288
 SAE Count : 0
 Inter-Core Inteference in Data Store : 74555956
Heartbeat CPU 2 instructions: 180000003 cycles: 201575070 heartbeat IPC: 0.912418 cumulative IPC: 0.892968 (Simulation time: 14 hr 1 min 50 sec) 
 Total Blocks : 196608 Invalid Blocks : 0 Valid Blocks : 196608
 Total Tags : 491520 Threshold : 12288 Invalid Tags : 196608 Pr0 Tags : 98304 Pr1 Tags : 196608 num_pr0 : 12288
 SAE Count : 0
 Inter-Core Inteference in Data Store : 74572642
Heartbeat CPU 3 instructions: 180000003 cycles: 201616991 heartbeat IPC: 0.912204 cumulative IPC: 0.892782 (Simulation time: 14 hr 2 min 9 sec) 
 Total Blocks : 196608 Invalid Blocks : 0 Valid Blocks : 196608
 Total Tags : 491520 Threshold : 12288 Invalid Tags : 196608 Pr0 Tags : 98304 Pr1 Tags : 196608 num_pr0 : 12288
 SAE Count : 0
 Inter-Core Inteference in Data Store : 74587448
Heartbeat CPU 4 instructions: 180000001 cycles: 201653856 heartbeat IPC: 0.912041 cumulative IPC: 0.892619 (Simulation time: 14 hr 2 min 28 sec) 
 Total Blocks : 196608 Invalid Blocks : 0 Valid Blocks : 196608
 Total Tags : 491520 Threshold : 12288 Invalid Tags : 196608 Pr0 Tags : 98304 Pr1 Tags : 196608 num_pr0 : 12288
 SAE Count : 0
 Inter-Core Inteference in Data Store : 74599426
Heartbeat CPU 5 instructions: 180000003 cycles: 201690733 heartbeat IPC: 0.911842 cumulative IPC: 0.892456 (Simulation time: 14 hr 2 min 45 sec) 
 Total Blocks : 196608 Invalid Blocks : 0 Valid Blocks : 196608
 Total Tags : 491520 Threshold : 12288 Invalid Tags : 196608 Pr0 Tags : 98304 Pr1 Tags : 196608 num_pr0 : 12288
 SAE Count : 0
 Inter-Core Inteference in Data Store : 74610909
Heartbeat CPU 6 instructions: 180000003 cycles: 201727414 heartbeat IPC: 0.911676 cumulative IPC: 0.892293 (Simulation time: 14 hr 3 min 4 sec) 
 Total Blocks : 196608 Invalid Blocks : 0 Valid Blocks : 196608
 Total Tags : 491520 Threshold : 12288 Invalid Tags : 196608 Pr0 Tags : 98304 Pr1 Tags : 196608 num_pr0 : 12288
 SAE Count : 0
 Inter-Core Inteference in Data Store : 74621933
Heartbeat CPU 7 instructions: 180000001 cycles: 201756356 heartbeat IPC: 0.911479 cumulative IPC: 0.892165 (Simulation time: 14 hr 3 min 18 sec) 
 Total Blocks : 196608 Invalid Blocks : 0 Valid Blocks : 196608
 Total Tags : 491520 Threshold : 12288 Invalid Tags : 196608 Pr0 Tags : 98304 Pr1 Tags : 196608 num_pr0 : 12288
 SAE Count : 0
 Inter-Core Inteference in Data Store : 74630670
Heartbeat CPU 0 instructions: 190000002 cycles: 212315138 heartbeat IPC: 0.921746 cumulative IPC: 0.894896 (Simulation time: 14 hr 53 min 16 sec) 
 Total Blocks : 196608 Invalid Blocks : 0 Valid Blocks : 196608
 Total Tags : 491520 Threshold : 12288 Invalid Tags : 196608 Pr0 Tags : 98304 Pr1 Tags : 196608 num_pr0 : 12288
 SAE Count : 0
 Inter-Core Inteference in Data Store : 79419277
Heartbeat CPU 1 instructions: 190000002 cycles: 212381835 heartbeat IPC: 0.921415 cumulative IPC: 0.894615 (Simulation time: 14 hr 53 min 34 sec) 
 Total Blocks : 196608 Invalid Blocks : 0 Valid Blocks : 196608
 Total Tags : 491520 Threshold : 12288 Invalid Tags : 196608 Pr0 Tags : 98304 Pr1 Tags : 196608 num_pr0 : 12288
 SAE Count : 0
 Inter-Core Inteference in Data Store : 79448834
Heartbeat CPU 2 instructions: 190000002 cycles: 212430579 heartbeat IPC: 0.921191 cumulative IPC: 0.89441 (Simulation time: 14 hr 53 min 48 sec) 
 Total Blocks : 196608 Invalid Blocks : 0 Valid Blocks : 196608
 Total Tags : 491520 Threshold : 12288 Invalid Tags : 196608 Pr0 Tags : 98304 Pr1 Tags : 196608 num_pr0 : 12288
 SAE Count : 0
 Inter-Core Inteference in Data Store : 79471115
Heartbeat CPU 3 instructions: 190000002 cycles: 212475745 heartbeat IPC: 0.920916 cumulative IPC: 0.89422 (Simulation time: 14 hr 53 min 59 sec) 
 Total Blocks : 196608 Invalid Blocks : 0 Valid Blocks : 196608
 Total Tags : 491520 Threshold : 12288 Invalid Tags : 196608 Pr0 Tags : 98304 Pr1 Tags : 196608 num_pr0 : 12288
 SAE Count : 0
 Inter-Core Inteference in Data Store : 79491656
Heartbeat CPU 4 instructions: 190000002 cycles: 212514389 heartbeat IPC: 0.920765 cumulative IPC: 0.894057 (Simulation time: 14 hr 54 min 11 sec) 
 Total Blocks : 196608 Invalid Blocks : 0 Valid Blocks : 196608
 Total Tags : 491520 Threshold : 12288 Invalid Tags : 196608 Pr0 Tags : 98304 Pr1 Tags : 196608 num_pr0 : 12288
 SAE Count : 0
 Inter-Core Inteference in Data Store : 79509075
Heartbeat CPU 5 instructions: 190000003 cycles: 212553772 heartbeat IPC: 0.920553 cumulative IPC: 0.893891 (Simulation time: 14 hr 54 min 21 sec) 
 Total Blocks : 196608 Invalid Blocks : 0 Valid Blocks : 196608
 Total Tags : 491520 Threshold : 12288 Invalid Tags : 196608 Pr0 Tags : 98304 Pr1 Tags : 196608 num_pr0 : 12288
 SAE Count : 0
 Inter-Core Inteference in Data Store : 79527147
Heartbeat CPU 6 instructions: 190000002 cycles: 212592431 heartbeat IPC: 0.920385 cumulative IPC: 0.893729 (Simulation time: 14 hr 54 min 30 sec) 
 Total Blocks : 196608 Invalid Blocks : 0 Valid Blocks : 196608
 Total Tags : 491520 Threshold : 12288 Invalid Tags : 196608 Pr0 Tags : 98304 Pr1 Tags : 196608 num_pr0 : 12288
 SAE Count : 0
 Inter-Core Inteference in Data Store : 79544376
Heartbeat CPU 7 instructions: 190000002 cycles: 212622672 heartbeat IPC: 0.920275 cumulative IPC: 0.893602 (Simulation time: 14 hr 54 min 38 sec) 
 Total Blocks : 196608 Invalid Blocks : 0 Valid Blocks : 196608
 Total Tags : 491520 Threshold : 12288 Invalid Tags : 196608 Pr0 Tags : 98304 Pr1 Tags : 196608 num_pr0 : 12288
 SAE Count : 0
 Inter-Core Inteference in Data Store : 79557973
Heartbeat CPU 0 instructions: 200000000 cycles: 223348533 heartbeat IPC: 0.906339 cumulative IPC: 0.895461 (Simulation time: 15 hr 44 min 22 sec) 
 Total Blocks : 196608 Invalid Blocks : 0 Valid Blocks : 196608
 Total Tags : 491520 Threshold : 12288 Invalid Tags : 196608 Pr0 Tags : 98304 Pr1 Tags : 196608 num_pr0 : 12288
 SAE Count : 0
 Inter-Core Inteference in Data Store : 84371530
Heartbeat CPU 1 instructions: 200000000 cycles: 223418922 heartbeat IPC: 0.906036 cumulative IPC: 0.895179 (Simulation time: 15 hr 44 min 41 sec) 
 Total Blocks : 196608 Invalid Blocks : 0 Valid Blocks : 196608
 Total Tags : 491520 Threshold : 12288 Invalid Tags : 196608 Pr0 Tags : 98304 Pr1 Tags : 196608 num_pr0 : 12288
 SAE Count : 0
 Inter-Core Inteference in Data Store : 84403276
Heartbeat CPU 2 instructions: 200000000 cycles: 223470845 heartbeat IPC: 0.905775 cumulative IPC: 0.894971 (Simulation time: 15 hr 44 min 55 sec) 
 Total Blocks : 196608 Invalid Blocks : 0 Valid Blocks : 196608
 Total Tags : 491520 Threshold : 12288 Invalid Tags : 196608 Pr0 Tags : 98304 Pr1 Tags : 196608 num_pr0 : 12288
 SAE Count : 0
 Inter-Core Inteference in Data Store : 84427309
Heartbeat CPU 3 instructions: 200000000 cycles: 223518304 heartbeat IPC: 0.905587 cumulative IPC: 0.894781 (Simulation time: 15 hr 45 min 10 sec) 
 Total Blocks : 196608 Invalid Blocks : 0 Valid Blocks : 196608
 Total Tags : 491520 Threshold : 12288 Invalid Tags : 196608 Pr0 Tags : 98304 Pr1 Tags : 196608 num_pr0 : 12288
 SAE Count : 0
 Inter-Core Inteference in Data Store : 84448864
Heartbeat CPU 4 instructions: 200000000 cycles: 223559019 heartbeat IPC: 0.905417 cumulative IPC: 0.894618 (Simulation time: 15 hr 45 min 22 sec) 
 Total Blocks : 196608 Invalid Blocks : 0 Valid Blocks : 196608
 Total Tags : 491520 Threshold : 12288 Invalid Tags : 196608 Pr0 Tags : 98304 Pr1 Tags : 196608 num_pr0 : 12288
 SAE Count : 0
 Inter-Core Inteference in Data Store : 84468077
Heartbeat CPU 5 instructions: 200000000 cycles: 223600807 heartbeat IPC: 0.90522 cumulative IPC: 0.894451 (Simulation time: 15 hr 45 min 35 sec) 
 Total Blocks : 196608 Invalid Blocks : 0 Valid Blocks : 196608
 Total Tags : 491520 Threshold : 12288 Invalid Tags : 196608 Pr0 Tags : 98304 Pr1 Tags : 196608 num_pr0 : 12288
 SAE Count : 0
 Inter-Core Inteference in Data Store : 84487453
Heartbeat CPU 6 instructions: 200000000 cycles: 223641595 heartbeat IPC: 0.905046 cumulative IPC: 0.894288 (Simulation time: 15 hr 45 min 49 sec) 
 Total Blocks : 196608 Invalid Blocks : 0 Valid Blocks : 196608
 Total Tags : 491520 Threshold : 12288 Invalid Tags : 196608 Pr0 Tags : 98304 Pr1 Tags : 196608 num_pr0 : 12288
 SAE Count : 0
 Inter-Core Inteference in Data Store : 84506882
Heartbeat CPU 7 instructions: 200000000 cycles: 223673884 heartbeat IPC: 0.904878 cumulative IPC: 0.894159 (Simulation time: 15 hr 45 min 59 sec) 
 Total Blocks : 196608 Invalid Blocks : 0 Valid Blocks : 196608
 Total Tags : 491520 Threshold : 12288 Invalid Tags : 196608 Pr0 Tags : 98304 Pr1 Tags : 196608 num_pr0 : 12288
 SAE Count : 0
 Inter-Core Inteference in Data Store : 84521697

Warmup complete CPU 0 instructions: 200400584 cycles: 223673885 (Simulation time: 15 hr 45 min 59 sec) 
Warmup complete CPU 1 instructions: 200314650 cycles: 223673885 (Simulation time: 15 hr 45 min 59 sec) 
Warmup complete CPU 2 instructions: 200271222 cycles: 223673885 (Simulation time: 15 hr 45 min 59 sec) 
Warmup complete CPU 3 instructions: 200215242 cycles: 223673885 (Simulation time: 15 hr 45 min 59 sec) 
Warmup complete CPU 4 instructions: 200115536 cycles: 223673885 (Simulation time: 15 hr 45 min 59 sec) 
Warmup complete CPU 5 instructions: 200053238 cycles: 223673885 (Simulation time: 15 hr 45 min 59 sec) 
Warmup complete CPU 6 instructions: 200024930 cycles: 223673885 (Simulation time: 15 hr 45 min 59 sec) 
Warmup complete CPU 7 instructions: 200000001 cycles: 223673885 (Simulation time: 15 hr 45 min 59 sec) 

Heartbeat CPU 0 instructions: 210000000 cycles: 367878061 heartbeat IPC: 0.06919 cumulative IPC: 0.0665682 (Simulation time: 17 hr 26 min 13 sec) 
 Total Blocks : 196608 Invalid Blocks : 0 Valid Blocks : 196608
 Total Tags : 491520 Threshold : 12288 Invalid Tags : 196608 Pr0 Tags : 98304 Pr1 Tags : 196608 num_pr0 : 12288
 SAE Count : 0
 Inter-Core Inteference in Data Store : 4545348
Heartbeat CPU 1 instructions: 210000000 cycles: 368635239 heartbeat IPC: 0.0688628 cumulative IPC: 0.0668133 (Simulation time: 17 hr 26 min 40 sec) 
 Total Blocks : 196608 Invalid Blocks : 0 Valid Blocks : 196608
 Total Tags : 491520 Threshold : 12288 Invalid Tags : 196608 Pr0 Tags : 98304 Pr1 Tags : 196608 num_pr0 : 12288
 SAE Count : 0
 Inter-Core Inteference in Data Store : 4569536
Heartbeat CPU 2 instructions: 210000000 cycles: 369835377 heartbeat IPC: 0.0683226 cumulative IPC: 0.0665618 (Simulation time: 17 hr 27 min 30 sec) 
 Total Blocks : 196608 Invalid Blocks : 0 Valid Blocks : 196608
 Total Tags : 491520 Threshold : 12288 Invalid Tags : 196608 Pr0 Tags : 98304 Pr1 Tags : 196608 num_pr0 : 12288
 SAE Count : 0
 Inter-Core Inteference in Data Store : 4607649
Heartbeat CPU 3 instructions: 210000000 cycles: 370623524 heartbeat IPC: 0.0679786 cumulative IPC: 0.0665858 (Simulation time: 17 hr 28 min 5 sec) 
 Total Blocks : 196608 Invalid Blocks : 0 Valid Blocks : 196608
 Total Tags : 491520 Threshold : 12288 Invalid Tags : 196608 Pr0 Tags : 98304 Pr1 Tags : 196608 num_pr0 : 12288
 SAE Count : 0
 Inter-Core Inteference in Data Store : 4633328
Heartbeat CPU 4 instructions: 210000000 cycles: 371098178 heartbeat IPC: 0.0677786 cumulative IPC: 0.0670477 (Simulation time: 17 hr 28 min 26 sec) 
 Total Blocks : 196608 Invalid Blocks : 0 Valid Blocks : 196608
 Total Tags : 491520 Threshold : 12288 Invalid Tags : 196608 Pr0 Tags : 98304 Pr1 Tags : 196608 num_pr0 : 12288
 SAE Count : 0
 Inter-Core Inteference in Data Store : 4647732
Heartbeat CPU 5 instructions: 210000000 cycles: 371441464 heartbeat IPC: 0.0676404 cumulative IPC: 0.0673136 (Simulation time: 17 hr 28 min 42 sec) 
 Total Blocks : 196608 Invalid Blocks : 0 Valid Blocks : 196608
 Total Tags : 491520 Threshold : 12288 Invalid Tags : 196608 Pr0 Tags : 98304 Pr1 Tags : 196608 num_pr0 : 12288
 SAE Count : 0
 Inter-Core Inteference in Data Store : 4657970
Heartbeat CPU 6 instructions: 210000000 cycles: 372192928 heartbeat IPC: 0.0673168 cumulative IPC: 0.0671636 (Simulation time: 17 hr 29 min 15 sec) 
 Total Blocks : 196608 Invalid Blocks : 0 Valid Blocks : 196608
 Total Tags : 491520 Threshold : 12288 Invalid Tags : 196608 Pr0 Tags : 98304 Pr1 Tags : 196608 num_pr0 : 12288
 SAE Count : 0
 Inter-Core Inteference in Data Store : 4680262
Heartbeat CPU 7 instructions: 210000000 cycles: 372710770 heartbeat IPC: 0.0670975 cumulative IPC: 0.0670975 (Simulation time: 17 hr 29 min 36 sec) 
 Total Blocks : 196608 Invalid Blocks : 0 Valid Blocks : 196608
 Total Tags : 491520 Threshold : 12288 Invalid Tags : 196608 Pr0 Tags : 98304 Pr1 Tags : 196608 num_pr0 : 12288
 SAE Count : 0
 Inter-Core Inteference in Data Store : 4696073
Heartbeat CPU 0 instructions: 220000000 cycles: 520002406 heartbeat IPC: 0.0657357 cumulative IPC: 0.0661408 (Simulation time: 19 hr 3 min 29 sec) 
 Total Blocks : 196608 Invalid Blocks : 0 Valid Blocks : 196608
 Total Tags : 491520 Threshold : 12288 Invalid Tags : 196608 Pr0 Tags : 98304 Pr1 Tags : 196608 num_pr0 : 12288
 SAE Count : 0
 Inter-Core Inteference in Data Store : 9223311
Heartbeat CPU 1 instructions: 220000000 cycles: 520209726 heartbeat IPC: 0.0659742 cumulative IPC: 0.0663844 (Simulation time: 19 hr 3 min 36 sec) 
 Total Blocks : 196608 Invalid Blocks : 0 Valid Blocks : 196608
 Total Tags : 491520 Threshold : 12288 Invalid Tags : 196608 Pr0 Tags : 98304 Pr1 Tags : 196608 num_pr0 : 12288
 SAE Count : 0
 Inter-Core Inteference in Data Store : 9229797
Heartbeat CPU 2 instructions: 220000000 cycles: 521816310 heartbeat IPC: 0.0657977 cumulative IPC: 0.0661723 (Simulation time: 19 hr 4 min 33 sec) 
 Total Blocks : 196608 Invalid Blocks : 0 Valid Blocks : 196608
 Total Tags : 491520 Threshold : 12288 Invalid Tags : 196608 Pr0 Tags : 98304 Pr1 Tags : 196608 num_pr0 : 12288
 SAE Count : 0
 Inter-Core Inteference in Data Store : 9281232
Heartbeat CPU 3 instructions: 220000000 cycles: 522242665 heartbeat IPC: 0.0659547 cumulative IPC: 0.0662653 (Simulation time: 19 hr 4 min 47 sec) 
 Total Blocks : 196608 Invalid Blocks : 0 Valid Blocks : 196608
 Total Tags : 491520 Threshold : 12288 Invalid Tags : 196608 Pr0 Tags : 98304 Pr1 Tags : 196608 num_pr0 : 12288
 SAE Count : 0
 Inter-Core Inteference in Data Store : 9295072
Heartbeat CPU 4 instructions: 220000000 cycles: 522602497 heartbeat IPC: 0.0660047 cumulative IPC: 0.0665191 (Simulation time: 19 hr 5 min 2 sec) 
 Total Blocks : 196608 Invalid Blocks : 0 Valid Blocks : 196608
 Total Tags : 491520 Threshold : 12288 Invalid Tags : 196608 Pr0 Tags : 98304 Pr1 Tags : 196608 num_pr0 : 12288
 SAE Count : 0
 Inter-Core Inteference in Data Store : 9306621
Heartbeat CPU 5 instructions: 220000000 cycles: 523196395 heartbeat IPC: 0.0658957 cumulative IPC: 0.0665952 (Simulation time: 19 hr 5 min 21 sec) 
 Total Blocks : 196608 Invalid Blocks : 0 Valid Blocks : 196608
 Total Tags : 491520 Threshold : 12288 Invalid Tags : 196608 Pr0 Tags : 98304 Pr1 Tags : 196608 num_pr0 : 12288
 SAE Count : 0
 Inter-Core Inteference in Data Store : 9325996
Heartbeat CPU 7 instructions: 220000000 cycles: 523649091 heartbeat IPC: 0.0662522 cumulative IPC: 0.0666722 (Simulation time: 19 hr 5 min 36 sec) 
 Total Blocks : 196608 Invalid Blocks : 0 Valid Blocks : 196608
 Total Tags : 491520 Threshold : 12288 Invalid Tags : 196608 Pr0 Tags : 98304 Pr1 Tags : 196608 num_pr0 : 12288
 SAE Count : 0
 Inter-Core Inteference in Data Store : 9340418
Heartbeat CPU 6 instructions: 220000000 cycles: 523810834 heartbeat IPC: 0.0659553 cumulative IPC: 0.0665532 (Simulation time: 19 hr 5 min 42 sec) 
 Total Blocks : 196608 Invalid Blocks : 0 Valid Blocks : 196608
 Total Tags : 491520 Threshold : 12288 Invalid Tags : 196608 Pr0 Tags : 98304 Pr1 Tags : 196608 num_pr0 : 12288
 SAE Count : 0
 Inter-Core Inteference in Data Store : 9345725
Heartbeat CPU 0 instructions: 230000000 cycles: 668488673 heartbeat IPC: 0.0673463 cumulative IPC: 0.0665432 (Simulation time: 20 hr 39 min 27 sec) 
 Total Blocks : 196608 Invalid Blocks : 0 Valid Blocks : 196608
 Total Tags : 491520 Threshold : 12288 Invalid Tags : 196608 Pr0 Tags : 98304 Pr1 Tags : 196608 num_pr0 : 12288
 SAE Count : 0
 Inter-Core Inteference in Data Store : 13844684
Heartbeat CPU 1 instructions: 230000000 cycles: 669095055 heartbeat IPC: 0.0671658 cumulative IPC: 0.0666456 (Simulation time: 20 hr 39 min 48 sec) 
 Total Blocks : 196608 Invalid Blocks : 0 Valid Blocks : 196608
 Total Tags : 491520 Threshold : 12288 Invalid Tags : 196608 Pr0 Tags : 98304 Pr1 Tags : 196608 num_pr0 : 12288
 SAE Count : 0
 Inter-Core Inteference in Data Store : 13864168
Heartbeat CPU 3 instructions: 230000000 cycles: 670716476 heartbeat IPC: 0.0673519 cumulative IPC: 0.0666262 (Simulation time: 20 hr 40 min 44 sec) 
 Total Blocks : 196608 Invalid Blocks : 0 Valid Blocks : 196608
 Total Tags : 491520 Threshold : 12288 Invalid Tags : 196608 Pr0 Tags : 98304 Pr1 Tags : 196608 num_pr0 : 12288
 SAE Count : 0
 Inter-Core Inteference in Data Store : 13917374
Heartbeat CPU 2 instructions: 230000000 cycles: 670962179 heartbeat IPC: 0.0670485 cumulative IPC: 0.0664645 (Simulation time: 20 hr 40 min 53 sec) 
 Total Blocks : 196608 Invalid Blocks : 0 Valid Blocks : 196608
 Total Tags : 491520 Threshold : 12288 Invalid Tags : 196608 Pr0 Tags : 98304 Pr1 Tags : 196608 num_pr0 : 12288
 SAE Count : 0
 Inter-Core Inteference in Data Store : 13925737
Heartbeat CPU 4 instructions: 230000000 cycles: 671596914 heartbeat IPC: 0.0671166 cumulative IPC: 0.0667179 (Simulation time: 20 hr 41 min 17 sec) 
 Total Blocks : 196608 Invalid Blocks : 0 Valid Blocks : 196608
 Total Tags : 491520 Threshold : 12288 Invalid Tags : 196608 Pr0 Tags : 98304 Pr1 Tags : 196608 num_pr0 : 12288
 SAE Count : 0
 Inter-Core Inteference in Data Store : 13946553
Heartbeat CPU 5 instructions: 230000000 cycles: 672123335 heartbeat IPC: 0.067147 cumulative IPC: 0.0667785 (Simulation time: 20 hr 41 min 37 sec) 
 Total Blocks : 196608 Invalid Blocks : 0 Valid Blocks : 196608
 Total Tags : 491520 Threshold : 12288 Invalid Tags : 196608 Pr0 Tags : 98304 Pr1 Tags : 196608 num_pr0 : 12288
 SAE Count : 0
 Inter-Core Inteference in Data Store : 13964052
Heartbeat CPU 7 instructions: 230000000 cycles: 672243068 heartbeat IPC: 0.0672975 cumulative IPC: 0.0668793 (Simulation time: 20 hr 41 min 42 sec) 
 Total Blocks : 196608 Invalid Blocks : 0 Valid Blocks : 196608
 Total Tags : 491520 Threshold : 12288 Invalid Tags : 196608 Pr0 Tags : 98304 Pr1 Tags : 196608 num_pr0 : 12288
 SAE Count : 0
 Inter-Core Inteference in Data Store : 13968092
Heartbeat CPU 6 instructions: 230000000 cycles: 672443100 heartbeat IPC: 0.0672801 cumulative IPC: 0.066794 (Simulation time: 20 hr 41 min 49 sec) 
 Total Blocks : 196608 Invalid Blocks : 0 Valid Blocks : 196608
 Total Tags : 491520 Threshold : 12288 Invalid Tags : 196608 Pr0 Tags : 98304 Pr1 Tags : 196608 num_pr0 : 12288
 SAE Count : 0
 Inter-Core Inteference in Data Store : 13974674
Heartbeat CPU 0 instructions: 240000000 cycles: 821812835 heartbeat IPC: 0.0652213 cumulative IPC: 0.0662044 (Simulation time: 22 hr 14 min 11 sec) 
 Total Blocks : 196608 Invalid Blocks : 0 Valid Blocks : 196608
 Total Tags : 491520 Threshold : 12288 Invalid Tags : 196608 Pr0 Tags : 98304 Pr1 Tags : 196608 num_pr0 : 12288
 SAE Count : 0
 Inter-Core Inteference in Data Store : 18674192
Heartbeat CPU 1 instructions: 240000000 cycles: 822311561 heartbeat IPC: 0.0652671 cumulative IPC: 0.0662928 (Simulation time: 22 hr 14 min 29 sec) 
 Total Blocks : 196608 Invalid Blocks : 0 Valid Blocks : 196608
 Total Tags : 491520 Threshold : 12288 Invalid Tags : 196608 Pr0 Tags : 98304 Pr1 Tags : 196608 num_pr0 : 12288
 SAE Count : 0
 Inter-Core Inteference in Data Store : 18688859
Heartbeat CPU 3 instructions: 240000000 cycles: 824041812 heartbeat IPC: 0.0652208 cumulative IPC: 0.0662673 (Simulation time: 22 hr 15 min 35 sec) 
 Total Blocks : 196608 Invalid Blocks : 0 Valid Blocks : 196608
 Total Tags : 491520 Threshold : 12288 Invalid Tags : 196608 Pr0 Tags : 98304 Pr1 Tags : 196608 num_pr0 : 12288
 SAE Count : 0
 Inter-Core Inteference in Data Store : 18742947
Heartbeat CPU 2 instructions: 240000000 cycles: 824344482 heartbeat IPC: 0.0651966 cumulative IPC: 0.0661407 (Simulation time: 22 hr 15 min 46 sec) 
 Total Blocks : 196608 Invalid Blocks : 0 Valid Blocks : 196608
 Total Tags : 491520 Threshold : 12288 Invalid Tags : 196608 Pr0 Tags : 98304 Pr1 Tags : 196608 num_pr0 : 12288
 SAE Count : 0
 Inter-Core Inteference in Data Store : 18752458
Heartbeat CPU 4 instructions: 240000000 cycles: 824370789 heartbeat IPC: 0.0654562 cumulative IPC: 0.066397 (Simulation time: 22 hr 15 min 47 sec) 
 Total Blocks : 196608 Invalid Blocks : 0 Valid Blocks : 196608
 Total Tags : 491520 Threshold : 12288 Invalid Tags : 196608 Pr0 Tags : 98304 Pr1 Tags : 196608 num_pr0 : 12288
 SAE Count : 0
 Inter-Core Inteference in Data Store : 18753326
Heartbeat CPU 7 instructions: 240000000 cycles: 824989342 heartbeat IPC: 0.065468 cumulative IPC: 0.0665208 (Simulation time: 22 hr 16 min 7 sec) 
 Total Blocks : 196608 Invalid Blocks : 0 Valid Blocks : 196608
 Total Tags : 491520 Threshold : 12288 Invalid Tags : 196608 Pr0 Tags : 98304 Pr1 Tags : 196608 num_pr0 : 12288
 SAE Count : 0
 Inter-Core Inteference in Data Store : 18771588
Heartbeat CPU 5 instructions: 240000000 cycles: 825084018 heartbeat IPC: 0.0653763 cumulative IPC: 0.0664218 (Simulation time: 22 hr 16 min 10 sec) 
 Total Blocks : 196608 Invalid Blocks : 0 Valid Blocks : 196608
 Total Tags : 491520 Threshold : 12288 Invalid Tags : 196608 Pr0 Tags : 98304 Pr1 Tags : 196608 num_pr0 : 12288
 SAE Count : 0
 Inter-Core Inteference in Data Store : 18774524
Heartbeat CPU 6 instructions: 240000000 cycles: 825756634 heartbeat IPC: 0.0652258 cumulative IPC: 0.0663946 (Simulation time: 22 hr 16 min 36 sec) 
 Total Blocks : 196608 Invalid Blocks : 0 Valid Blocks : 196608
 Total Tags : 491520 Threshold : 12288 Invalid Tags : 196608 Pr0 Tags : 98304 Pr1 Tags : 196608 num_pr0 : 12288
 SAE Count : 0
 Inter-Core Inteference in Data Store : 18794766
Heartbeat CPU 0 instructions: 250000000 cycles: 970229742 heartbeat IPC: 0.0673778 cumulative IPC: 0.0664376 (Simulation time: 23 hr 45 min 19 sec) 
 Total Blocks : 196608 Invalid Blocks : 0 Valid Blocks : 196608
 Total Tags : 491520 Threshold : 12288 Invalid Tags : 196608 Pr0 Tags : 98304 Pr1 Tags : 196608 num_pr0 : 12288
 SAE Count : 0
 Inter-Core Inteference in Data Store : 23167869
Heartbeat CPU 1 instructions: 250000000 cycles: 970280122 heartbeat IPC: 0.0675819 cumulative IPC: 0.0665483 (Simulation time: 23 hr 45 min 20 sec) 
 Total Blocks : 196608 Invalid Blocks : 0 Valid Blocks : 196608
 Total Tags : 491520 Threshold : 12288 Invalid Tags : 196608 Pr0 Tags : 98304 Pr1 Tags : 196608 num_pr0 : 12288
 SAE Count : 0
 Inter-Core Inteference in Data Store : 23169455
Heartbeat CPU 3 instructions: 250000000 cycles: 972127756 heartbeat IPC: 0.0675284 cumulative IPC: 0.0665168 (Simulation time: 23 hr 46 min 26 sec) 
 Total Blocks : 196608 Invalid Blocks : 0 Valid Blocks : 196608
 Total Tags : 491520 Threshold : 12288 Invalid Tags : 196608 Pr0 Tags : 98304 Pr1 Tags : 196608 num_pr0 : 12288
 SAE Count : 0
 Inter-Core Inteference in Data Store : 23230369
Heartbeat CPU 4 instructions: 250000000 cycles: 972801017 heartbeat IPC: 0.0673717 cumulative IPC: 0.0665901 (Simulation time: 23 hr 46 min 49 sec) 
 Total Blocks : 196608 Invalid Blocks : 0 Valid Blocks : 196608
 Total Tags : 491520 Threshold : 12288 Invalid Tags : 196608 Pr0 Tags : 98304 Pr1 Tags : 196608 num_pr0 : 12288
 SAE Count : 0
 Inter-Core Inteference in Data Store : 23252273
Heartbeat CPU 2 instructions: 250000000 cycles: 972937913 heartbeat IPC: 0.0672977 cumulative IPC: 0.0663702 (Simulation time: 23 hr 46 min 54 sec) 
 Total Blocks : 196608 Invalid Blocks : 0 Valid Blocks : 196608
 Total Tags : 491520 Threshold : 12288 Invalid Tags : 196608 Pr0 Tags : 98304 Pr1 Tags : 196608 num_pr0 : 12288
 SAE Count : 0
 Inter-Core Inteference in Data Store : 23256437
[...]
LLC4 LOAD      ACCESS: 1835059  HIT: 955378  MISS: 879681  HIT %: 52.0625  MISS %: 47.9375  AVERAGE MISS PENALTY: 515.692
LLC4 RFO       ACCESS:     0  HIT:     0  MISS:     0  HIT %:     0  MISS %:     0  AVERAGE MISS PENALTY: 0
LLC4 PREFETCH  ACCESS: 8911853  HIT: 4338347  MISS: 4573506  HIT %: 48.6806  MISS %: 51.3194  AVERAGE MISS PENALTY: 532.329
LLC4 WRITEBACK ACCESS:  6554  HIT:  4213  MISS:  2341  HIT %: 64.2814  MISS %: 35.7186  AVERAGE MISS PENALTY: 0
LLC4 PREFETCH  REQUESTED:     0  ISSUED:     0  USEFUL: 2242797  USELESS: 8690174
 USEFUL LOAD PREFETCHES:    2242797 PREFETCH ISSUED TO LOWER LEVEL:   77967657  ACCURACY: 2.87657
 TIMELY PREFETCHES:    2242797 LATE PREFETCHES: 0 DROPPED PREFETCHES: 0
LLC4 AVERAGE MISS LATENCY: 529.418 cycles

LLC4 Set Associative Eviction Count : 0
LLC4 Priority 0 entries : 12288
LLC4 Inter-Core Interference : 11555547
LLC5 TOTAL     ACCESS: 10592660  HIT: 5250593  MISS: 5342067  HIT %: 49.5682  MISS %: 50.4318  AVERAGE MISS PENALTY: 508.242
LLC5 LOAD      ACCESS: 1745064  HIT: 895139  MISS: 849925  HIT %: 51.2955  MISS %: 48.7045  AVERAGE MISS PENALTY: 491.744
LLC5 RFO       ACCESS:     0  HIT:     0  MISS:     0  HIT %:     0  MISS %:     0  AVERAGE MISS PENALTY: 0
LLC5 PREFETCH  ACCESS: 8841173  HIT: 4351338  MISS: 4489835  HIT %: 49.2167  MISS %: 50.7833  AVERAGE MISS PENALTY: 511.626
LLC5 WRITEBACK ACCESS:  6423  HIT:  4116  MISS:  2307  HIT %: 64.0822  MISS %: 35.9178  AVERAGE MISS PENALTY: 0
LLC5 PREFETCH  REQUESTED:     0  ISSUED:     0  USEFUL: 2222540  USELESS: 8629113
 USEFUL LOAD PREFETCHES:    2222540 PREFETCH ISSUED TO LOWER LEVEL:   65297669  ACCURACY: 3.4037
 TIMELY PREFETCHES:    2222540 LATE PREFETCHES: 0 DROPPED PREFETCHES: 0
LLC5 AVERAGE MISS LATENCY: 508.242 cycles

LLC5 Set Associative Eviction Count : 0
LLC5 Priority 0 entries : 12288
LLC5 Inter-Core Interference : 11414301
LLC6 TOTAL     ACCESS: 10425405  HIT: 5232606  MISS: 5192799  HIT %: 50.1909  MISS %: 49.8091  AVERAGE MISS PENALTY: 524.745
LLC6 LOAD      ACCESS: 1702874  HIT: 869512  MISS: 833362  HIT %: 51.0614  MISS %: 48.9386  AVERAGE MISS PENALTY: 513.87
LLC6 RFO       ACCESS:     0  HIT:     0  MISS:     0  HIT %:     0  MISS %:     0  AVERAGE MISS PENALTY: 0
LLC6 PREFETCH  ACCESS: 8716025  HIT: 4358948  MISS: 4357077  HIT %: 50.0107  MISS %: 49.9893  AVERAGE MISS PENALTY: 527.109
LLC6 WRITEBACK ACCESS:  6506  HIT:  4146  MISS:  2360  HIT %: 63.7258  MISS %: 36.2742  AVERAGE MISS PENALTY: 0
LLC6 PREFETCH  REQUESTED:     0  ISSUED:     0  USEFUL: 2241254  USELESS: 8521693
 USEFUL LOAD PREFETCHES:    2241254 PREFETCH ISSUED TO LOWER LEVEL:   95523100  ACCURACY: 2.3463
 TIMELY PREFETCHES:    2241254 LATE PREFETCHES: 0 DROPPED PREFETCHES: 0
LLC6 AVERAGE MISS LATENCY: 524.745 cycles

LLC6 Set Associative Eviction Count : 0
LLC6 Priority 0 entries : 12288
LLC6 Inter-Core Interference : 11298279
LLC7 TOTAL     ACCESS: 10308119  HIT: 5253007  MISS: 5055112  HIT %: 50.9599  MISS %: 49.0401  AVERAGE MISS PENALTY: 505.712
LLC7 LOAD      ACCESS: 1769925  HIT: 904215  MISS: 865710  HIT %: 51.0878  MISS %: 48.9122  AVERAGE MISS PENALTY: 490.044
LLC7 RFO       ACCESS:     0  HIT:     0  MISS:     0  HIT %:     0  MISS %:     0  AVERAGE MISS PENALTY: 0
LLC7 PREFETCH  ACCESS: 8531662  HIT: 4344686  MISS: 4186976  HIT %: 50.9243  MISS %: 49.0757  AVERAGE MISS PENALTY: 509.244
LLC7 WRITEBACK ACCESS:  6532  HIT:  4106  MISS:  2426  HIT %: 62.8598  MISS %: 37.1402  AVERAGE MISS PENALTY: 0
LLC7 PREFETCH  REQUESTED:     0  ISSUED:     0  USEFUL: 2225143  USELESS: 8408163
 USEFUL LOAD PREFETCHES:    2225143 PREFETCH ISSUED TO LOWER LEVEL:   75727589  ACCURACY: 2.93835
 TIMELY PREFETCHES:    2225143 LATE PREFETCHES: 0 DROPPED PREFETCHES: 0
LLC7 AVERAGE MISS LATENCY: 505.712 cycles

LLC7 Set Associative Eviction Count : 0
LLC7 Priority 0 entries : 12288
LLC7 Inter-Core Interference : 11276422
ROI Average ROB Stall Cycles:	31.1238
ROI Total ROB Stalls Cycles:	2890269901
ROI TOTAL ROB counter      :	92863760
ROI Average Load ROB Stall Cycles:	189.363
ROI Total Load ROB Stalls Cycle  :	1614271396
ROI Total Load ROB stalls Counter:	8524731
Major fault: 0 Minor fault: 30951

CPU 7 cumulative IPC: 0.0665866 instructions: 200000000 cycles: 3003605979
ITLB TOTAL     ACCESS: 29170695  HIT: 29170695  MISS:     0  HIT %:   100  MISS %:     0  AVERAGE MISS PENALTY: 0
ITLB LOAD      ACCESS: 29170695  HIT: 29170695  MISS:     0  HIT %:   100  MISS %:     0  AVERAGE MISS PENALTY: 0
ITLB RFO       ACCESS:     0  HIT:     0  MISS:     0  HIT %:     0  MISS %:     0  AVERAGE MISS PENALTY: 0
ITLB PREFETCH  ACCESS:     0  HIT:     0  MISS:     0  HIT %:     0  MISS %:     0  AVERAGE MISS PENALTY: 0
ITLB WRITEBACK ACCESS:     0  HIT:     0  MISS:     0  HIT %:     0  MISS %:     0  AVERAGE MISS PENALTY: 0
ITLB PREFETCH  REQUESTED:     0  ISSUED:     0  USEFUL:     0  USELESS:     0
 USEFUL LOAD PREFETCHES:          0 PREFETCH ISSUED TO LOWER LEVEL:          0  ACCURACY: -nan
 TIMELY PREFETCHES:          0 LATE PREFETCHES: 0 DROPPED PREFETCHES: 0
ITLB AVERAGE MISS LATENCY: -nan cycles

ITLB Set Associative Eviction Count : 0
ITLB Priority 0 entries : 0
ITLB Inter-Core Interference : 0
DTLB TOTAL     ACCESS: 47220622  HIT: 37257228  MISS: 9963394  HIT %: 78.9003  MISS %: 21.0997  AVERAGE MISS PENALTY: 9.42926
DTLB LOAD      ACCESS: 47159080  HIT: 37195686  MISS: 9963394  HIT %: 78.8728  MISS %: 21.1272  AVERAGE MISS PENALTY: 9.42926
DTLB RFO       ACCESS: 61542  HIT: 61542  MISS:     0  HIT %:   100  MISS %:     0  AVERAGE MISS PENALTY: 0
DTLB PREFETCH  ACCESS:     0  HIT:     0  MISS:     0  HIT %:     0  MISS %:     0  AVERAGE MISS PENALTY: 0
DTLB WRITEBACK ACCESS:     0  HIT:     0  MISS:     0  HIT %:     0  MISS %:     0  AVERAGE MISS PENALTY: 0
DTLB PREFETCH  REQUESTED:     0  ISSUED:     0  USEFUL:     0  USELESS:     0
 USEFUL LOAD PREFETCHES:          0 PREFETCH ISSUED TO LOWER LEVEL:          0  ACCURACY: -nan
 TIMELY PREFETCHES:          0 LATE PREFETCHES: 0 DROPPED PREFETCHES: 0
DTLB AVERAGE MISS LATENCY: 9.42926 cycles

DTLB Set Associative Eviction Count : 0
DTLB Priority 0 entries : 0
DTLB Inter-Core Interference : 0
STLB TOTAL     ACCESS: 9963394  HIT: 9948265  MISS: 15129  HIT %: 99.8482  MISS %: 0.151846  AVERAGE MISS PENALTY: 100
STLB LOAD      ACCESS: 9963394  HIT: 9948265  MISS: 15129  HIT %: 99.8482  MISS %: 0.151846  AVERAGE MISS PENALTY: 100
STLB RFO       ACCESS:     0  HIT:     0  MISS:     0  HIT %:     0  MISS %:     0  AVERAGE MISS PENALTY: 0
STLB PREFETCH  ACCESS:     0  HIT:     0  MISS:     0  HIT %:     0  MISS %:     0  AVERAGE MISS PENALTY: 0
STLB WRITEBACK ACCESS:     0  HIT:     0  MISS:     0  HIT %:     0  MISS %:     0  AVERAGE MISS PENALTY: 0
STLB PREFETCH  REQUESTED:     0  ISSUED:     0  USEFUL:     0  USELESS:     0
 USEFUL LOAD PREFETCHES:          0 PREFETCH ISSUED TO LOWER LEVEL:          0  ACCURACY: -nan
 TIMELY PREFETCHES:          0 LATE PREFETCHES: 0 DROPPED PREFETCHES: 0
STLB AVERAGE MISS LATENCY: 100 cycles

STLB Set Associative Eviction Count : 0
STLB Priority 0 entries : 0
STLB Inter-Core Interference : 0
L1D TOTAL     ACCESS: 107799477  HIT: 48334460  MISS: 59465017  HIT %: 44.8374  MISS %: 55.1626  AVERAGE MISS PENALTY: 5.579e+06
L1D LOAD      ACCESS: 44677536  HIT: 29908115  MISS: 14769421  HIT %: 66.9422  MISS %: 33.0578  AVERAGE MISS PENALTY: 2.24613e+07
L1D RFO       ACCESS: 61546  HIT: 61546  MISS:     0  HIT %:   100  MISS %:     0  AVERAGE MISS PENALTY: 0
L1D PREFETCH  ACCESS: 63060395  HIT: 18364799  MISS: 44695596  HIT %: 29.1226  MISS %: 70.8774  AVERAGE MISS PENALTY: 330.438
L1D WRITEBACK ACCESS:     0  HIT:     0  MISS:     0  HIT %:     0  MISS %:     0  AVERAGE MISS PENALTY: 0
L1D PREFETCH  REQUESTED: 77992048  ISSUED: 64537428  USEFUL: 1414381  USELESS: 43281230
 USEFUL LOAD PREFETCHES:    1414381 PREFETCH ISSUED TO LOWER LEVEL:  410434425  ACCURACY: 0.344606
 TIMELY PREFETCHES:    1414381 LATE PREFETCHES: 496851 DROPPED PREFETCHES: 13454620
L1D AVERAGE MISS LATENCY: 315.193 cycles

L1D Set Associative Eviction Count : 0
L1D Priority 0 entries : 0
L1D Inter-Core Interference : 0
L1I TOTAL     ACCESS: 42044591  HIT: 42044591  MISS:     0  HIT %:   100  MISS %:     0  AVERAGE MISS PENALTY: 0
L1I LOAD      ACCESS: 42044591  HIT: 42044591  MISS:     0  HIT %:   100  MISS %:     0  AVERAGE MISS PENALTY: 0
L1I RFO       ACCESS:     0  HIT:     0  MISS:     0  HIT %:     0  MISS %:     0  AVERAGE MISS PENALTY: 0
L1I PREFETCH  ACCESS:     0  HIT:     0  MISS:     0  HIT %:     0  MISS %:     0  AVERAGE MISS PENALTY: 0
L1I WRITEBACK ACCESS:     0  HIT:     0  MISS:     0  HIT %:     0  MISS %:     0  AVERAGE MISS PENALTY: 0
L1I PREFETCH  REQUESTED:     0  ISSUED:     0  USEFUL:     0  USELESS:     0
 USEFUL LOAD PREFETCHES:          0 PREFETCH ISSUED TO LOWER LEVEL:          0  ACCURACY: -nan
 TIMELY PREFETCHES:          0 LATE PREFETCHES: 0 DROPPED PREFETCHES: 0
L1I AVERAGE MISS LATENCY: -nan cycles

L1I Set Associative Eviction Count : 0
L1I Priority 0 entries : 0
L1I Inter-Core Interference : 0
L2C TOTAL     ACCESS: 92011200  HIT: 5605245  MISS: 86405955  HIT %: 6.09192  MISS %: 93.9081  AVERAGE MISS PENALTY: 4.07275e+06
L2C LOAD      ACCESS: 14764993  HIT: 269349  MISS: 14495644  HIT %: 1.82424  MISS %: 98.1758  AVERAGE MISS PENALTY: 2.42753e+07
L2C RFO       ACCESS:     0  HIT:     0  MISS:     0  HIT %:     0  MISS %:     0  AVERAGE MISS PENALTY: 0
L2C PREFETCH  ACCESS: 77194234  HIT: 5320925  MISS: 71873309  HIT %: 6.8929  MISS %: 93.1071  AVERAGE MISS PENALTY: 331.78
L2C WRITEBACK ACCESS: 51973  HIT: 14971  MISS: 37002  HIT %: 28.8053  MISS %: 71.1947  AVERAGE MISS PENALTY: 0
L2C PREFETCH  REQUESTED: 105824889  ISSUED: 105530090  USEFUL: 234691  USELESS: 71638621
 USEFUL LOAD PREFETCHES:     234691 PREFETCH ISSUED TO LOWER LEVEL:   82691020  ACCURACY: 0.283817
 TIMELY PREFETCHES:     234691 LATE PREFETCHES: 846530 DROPPED PREFETCHES: 294799
L2C AVERAGE MISS LATENCY: 321.975 cycles

L2C Set Associative Eviction Count : 0
L2C Priority 0 entries : 0
L2C Inter-Core Interference : 0
LLC0 TOTAL     ACCESS: 11112004  HIT: 5467608  MISS: 5644396  HIT %: 49.2045  MISS %: 50.7955  AVERAGE MISS PENALTY: 609.455
LLC0 LOAD      ACCESS: 1787840  HIT: 902181  MISS: 885659  HIT %: 50.4621  MISS %: 49.5379  AVERAGE MISS PENALTY: 598.802
LLC0 RFO       ACCESS:     0  HIT:     0  MISS:     0  HIT %:     0  MISS %:     0  AVERAGE MISS PENALTY: 0
LLC0 PREFETCH  ACCESS: 9317666  HIT: 4561308  MISS: 4756358  HIT %: 48.9533  MISS %: 51.0467  AVERAGE MISS PENALTY: 611.744
LLC0 WRITEBACK ACCESS:  6498  HIT:  4119  MISS:  2379  HIT %: 63.3887  MISS %: 36.6113  AVERAGE MISS PENALTY: 0
LLC0 PREFETCH  REQUESTED:     0  ISSUED:     0  USEFUL: 2293377  USELESS: 9123845
 USEFUL LOAD PREFETCHES:    2293377 PREFETCH ISSUED TO LOWER LEVEL:   53414824  ACCURACY: 4.29352
 TIMELY PREFETCHES:    2293377 LATE PREFETCHES: 0 DROPPED PREFETCHES: 0
LLC0 AVERAGE MISS LATENCY: 609.455 cycles

LLC0 Set Associative Eviction Count : 0
LLC0 Priority 0 entries : 12288
LLC0 Inter-Core Interference : 11942690
LLC1 TOTAL     ACCESS: 11254064  HIT: 5513766  MISS: 5740298  HIT %: 48.9936  MISS %: 51.0064  AVERAGE MISS PENALTY: 606.342
LLC1 LOAD      ACCESS: 1916236  HIT: 1033875  MISS: 882361  HIT %: 53.9534  MISS %: 46.0466  AVERAGE MISS PENALTY: 596.264
LLC1 RFO       ACCESS:     0  HIT:     0  MISS:     0  HIT %:     0  MISS %:     0  AVERAGE MISS PENALTY: 0
LLC1 PREFETCH  ACCESS: 9331385  HIT: 4475788  MISS: 4855597  HIT %: 47.9649  MISS %: 52.0351  AVERAGE MISS PENALTY: 608.465
LLC1 WRITEBACK ACCESS:  6443  HIT:  4103  MISS:  2340  HIT %: 63.6815  MISS %: 36.3185  AVERAGE MISS PENALTY: 0
LLC1 PREFETCH  REQUESTED:     0  ISSUED:     0  USEFUL: 2302046  USELESS: 9238618
 USEFUL LOAD PREFETCHES:    2302046 PREFETCH ISSUED TO LOWER LEVEL:   50090724  ACCURACY: 4.59575
 TIMELY PREFETCHES:    2302046 LATE PREFETCHES: 0 DROPPED PREFETCHES: 0
LLC1 AVERAGE MISS LATENCY: 606.342 cycles

LLC1 Set Associative Eviction Count : 0
LLC1 Priority 0 entries : 12288
LLC1 Inter-Core Interference : 12102697
LLC2 TOTAL     ACCESS: 11065670  HIT: 5379717  MISS: 5685953  HIT %: 48.6163  MISS %: 51.3837  AVERAGE MISS PENALTY: 601.343
LLC2 LOAD      ACCESS: 1786256  HIT: 911272  MISS: 874984  HIT %: 51.0158  MISS %: 48.9842  AVERAGE MISS PENALTY: 598.591
LLC2 RFO       ACCESS:     0  HIT:     0  MISS:     0  HIT %:     0  MISS %:     0  AVERAGE MISS PENALTY: 0
LLC2 PREFETCH  ACCESS: 9272908  HIT: 4464304  MISS: 4808604  HIT %: 48.1435  MISS %: 51.8565  AVERAGE MISS PENALTY: 602.14
LLC2 WRITEBACK ACCESS:  6506  HIT:  4141  MISS:  2365  HIT %: 63.6489  MISS %: 36.3511  AVERAGE MISS PENALTY: 0
LLC2 PREFETCH  REQUESTED:     0  ISSUED:     0  USEFUL: 2298511  USELESS: 9132974
 USEFUL LOAD PREFETCHES:    2298511 PREFETCH ISSUED TO LOWER LEVEL:   65354546  ACCURACY: 3.51699
 TIMELY PREFETCHES:    2298511 LATE PREFETCHES: 0 DROPPED PREFETCHES: 0
LLC2 AVERAGE MISS LATENCY: 601.343 cycles

LLC2 Set Associative Eviction Count : 0
LLC2 Priority 0 entries : 12288
LLC2 Inter-Core Interference : 11958558
LLC3 TOTAL     ACCESS: 10912875  HIT: 5357145  MISS: 5555730  HIT %: 49.0901  MISS %: 50.9099  AVERAGE MISS PENALTY: 638.874
LLC3 LOAD      ACCESS: 1816679  HIT: 944133  MISS: 872546  HIT %: 51.9703  MISS %: 48.0297  AVERAGE MISS PENALTY: 595.947
LLC3 RFO       ACCESS:     0  HIT:     0  MISS:     0  HIT %:     0  MISS %:     0  AVERAGE MISS PENALTY: 0
LLC3 PREFETCH  ACCESS: 9089695  HIT: 4408805  MISS: 4680890  HIT %: 48.5033  MISS %: 51.4967  AVERAGE MISS PENALTY: 647.189
LLC3 WRITEBACK ACCESS:  6501  HIT:  4207  MISS:  2294  HIT %: 64.7131  MISS %: 35.2869  AVERAGE MISS PENALTY: 0
LLC3 PREFETCH  REQUESTED:     0  ISSUED:     0  USEFUL: 2278817  USELESS: 8875636
 USEFUL LOAD PREFETCHES:    2278817 PREFETCH ISSUED TO LOWER LEVEL:   56452901  ACCURACY: 4.03667
 TIMELY PREFETCHES:    2278817 LATE PREFETCHES: 0 DROPPED PREFETCHES: 0
LLC3 AVERAGE MISS LATENCY: 598.614 cycles

LLC3 Set Associative Eviction Count : 0
LLC3 Priority 0 entries : 12288
LLC3 Inter-Core Interference : 11717789
LLC4 TOTAL     ACCESS: 10752756  HIT: 5302154  MISS: 5450602  HIT %: 49.3097  MISS %: 50.6903  AVERAGE MISS PENALTY: 529.349
LLC4 LOAD      ACCESS: 1834847  HIT: 955626  MISS: 879221  HIT %: 52.0821  MISS %: 47.9179  AVERAGE MISS PENALTY: 515.54
LLC4 RFO       ACCESS:     0  HIT:     0  MISS:     0  HIT %:     0  MISS %:     0  AVERAGE MISS PENALTY: 0
LLC4 PREFETCH  ACCESS: 8911353  HIT: 4342289  MISS: 4569064  HIT %: 48.7276  MISS %: 51.2724  AVERAGE MISS PENALTY: 532.275
LLC4 WRITEBACK ACCESS:  6556  HIT:  4239  MISS:  2317  HIT %: 64.6583  MISS %: 35.3417  AVERAGE MISS PENALTY: 0
LLC4 PREFETCH  REQUESTED:     0  ISSUED:     0  USEFUL: 2242797  USELESS: 8690174
 USEFUL LOAD PREFETCHES:    2242797 PREFETCH ISSUED TO LOWER LEVEL:   77967657  ACCURACY: 2.87657
 TIMELY PREFETCHES:    2242797 LATE PREFETCHES: 0 DROPPED PREFETCHES: 0
LLC4 AVERAGE MISS LATENCY: 529.349 cycles

LLC4 Set Associative Eviction Count : 0
LLC4 Priority 0 entries : 12288
LLC4 Inter-Core Interference : 11555547
LLC5 TOTAL     ACCESS: 10592277  HIT: 5246165  MISS: 5346112  HIT %: 49.5282  MISS %: 50.4718  AVERAGE MISS PENALTY: 508.097
LLC5 LOAD      ACCESS: 1745079  HIT: 895476  MISS: 849603  HIT %: 51.3144  MISS %: 48.6856  AVERAGE MISS PENALTY: 491.378
LLC5 RFO       ACCESS:     0  HIT:     0  MISS:     0  HIT %:     0  MISS %:     0  AVERAGE MISS PENALTY: 0
LLC5 PREFETCH  ACCESS: 8840773  HIT: 4346600  MISS: 4494173  HIT %: 49.1654  MISS %: 50.8346  AVERAGE MISS PENALTY: 511.521
LLC5 WRITEBACK ACCESS:  6425  HIT:  4089  MISS:  2336  HIT %: 63.642  MISS %: 36.358  AVERAGE MISS PENALTY: 0
LLC5 PREFETCH  REQUESTED:     0  ISSUED:     0  USEFUL: 2222540  USELESS: 8629113
 USEFUL LOAD PREFETCHES:    2222540 PREFETCH ISSUED TO LOWER LEVEL:   65297669  ACCURACY: 3.4037
 TIMELY PREFETCHES:    2222540 LATE PREFETCHES: 0 DROPPED PREFETCHES: 0
LLC5 AVERAGE MISS LATENCY: 508.097 cycles

LLC5 Set Associative Eviction Count : 0
LLC5 Priority 0 entries : 12288
LLC5 Inter-Core Interference : 11414301
LLC6 TOTAL     ACCESS: 10424424  HIT: 5223625  MISS: 5200799  HIT %: 50.1095  MISS %: 49.8905  AVERAGE MISS PENALTY: 524.974
LLC6 LOAD      ACCESS: 1702652  HIT: 868637  MISS: 834015  HIT %: 51.0167  MISS %: 48.9833  AVERAGE MISS PENALTY: 513.547
LLC6 RFO       ACCESS:     0  HIT:     0  MISS:     0  HIT %:     0  MISS %:     0  AVERAGE MISS PENALTY: 0
LLC6 PREFETCH  ACCESS: 8715262  HIT: 4350858  MISS: 4364404  HIT %: 49.9223  MISS %: 50.0777  AVERAGE MISS PENALTY: 527.444
LLC6 WRITEBACK ACCESS:  6510  HIT:  4130  MISS:  2380  HIT %: 63.4409  MISS %: 36.5591  AVERAGE MISS PENALTY: 0
LLC6 PREFETCH  REQUESTED:     0  ISSUED:     0  USEFUL: 2241254  USELESS: 8521693
 USEFUL LOAD PREFETCHES:    2241254 PREFETCH ISSUED TO LOWER LEVEL:   95523100  ACCURACY: 2.3463
 TIMELY PREFETCHES:    2241254 LATE PREFETCHES: 0 DROPPED PREFETCHES: 0
LLC6 AVERAGE MISS LATENCY: 524.974 cycles

LLC6 Set Associative Eviction Count : 0
LLC6 Priority 0 entries : 12288
LLC6 Inter-Core Interference : 11298279
LLC7 TOTAL     ACCESS: 10306854  HIT: 5249317  MISS: 5057537  HIT %: 50.9304  MISS %: 49.0696  AVERAGE MISS PENALTY: 505.611
LLC7 LOAD      ACCESS: 1770025  HIT: 904941  MISS: 865084  HIT %: 51.1259  MISS %: 48.8741  AVERAGE MISS PENALTY: 489.402
LLC7 RFO       ACCESS:     0  HIT:     0  MISS:     0  HIT %:     0  MISS %:     0  AVERAGE MISS PENALTY: 0
LLC7 PREFETCH  ACCESS: 8530295  HIT: 4340184  MISS: 4190111  HIT %: 50.8796  MISS %: 49.1204  AVERAGE MISS PENALTY: 509.241
LLC7 WRITEBACK ACCESS:  6534  HIT:  4192  MISS:  2342  HIT %: 64.1567  MISS %: 35.8433  AVERAGE MISS PENALTY: 0
LLC7 PREFETCH  REQUESTED:     0  ISSUED:     0  USEFUL: 2225143  USELESS: 8408163
 USEFUL LOAD PREFETCHES:    2225143 PREFETCH ISSUED TO LOWER LEVEL:   75727589  ACCURACY: 2.93835
 TIMELY PREFETCHES:    2225143 LATE PREFETCHES: 0 DROPPED PREFETCHES: 0
LLC7 AVERAGE MISS LATENCY: 505.611 cycles

LLC7 Set Associative Eviction Count : 0
LLC7 Priority 0 entries : 12288
LLC7 Inter-Core Interference : 11276422
ROI Average ROB Stall Cycles:	31.1209
ROI Total ROB Stalls Cycles:	2889944876
ROI TOTAL ROB counter      :	92861978
ROI Average Load ROB Stall Cycles:	189.285
ROI Total Load ROB Stalls Cycle  :	1613571510
ROI Total Load ROB stalls Counter:	8524545
Major fault: 0 Minor fault: 30949








Interconnect Stats 
LINK 0 BW : 0LINK 1 BW : 0LINK 2 BW : 0LINK 3 BW : 0LINK 4 BW : 0LINK 5 BW : 0LINK 6 BW : 0LINK 7 BW : 0
DRAM Statistics
 CHANNEL 0
 RQ ROW_BUFFER_HIT: 58867044  ROW_BUFFER_MISS: 116962880
 DBUS_CONGESTED: 82372955
 WQ ROW_BUFFER_HIT: 32211  ROW_BUFFER_MISS: 176087  FULL:     0

 CHANNEL 1
 RQ ROW_BUFFER_HIT: 57579256  ROW_BUFFER_MISS: 115955386
 DBUS_CONGESTED: 82372955
 WQ ROW_BUFFER_HIT: 32307  ROW_BUFFER_MISS: 174650  FULL:     0

 AVG_CONGESTED_CYCLE: 4
DRAM PAGES: 2097152
Allocated PAGES: 247628
L2C destructor called
L1D destructor called
L1I destructor called
STLB destructor called
DTLB destructor called
ITLB destructor called
L2C destructor called
L1D destructor called
L1I destructor called
STLB destructor called
DTLB destructor called
ITLB destructor called
L2C destructor called
L1D destructor called
L1I destructor called
STLB destructor called
DTLB destructor called
ITLB destructor called
L2C destructor called
L1D destructor called
L1I destructor called
STLB destructor called
DTLB destructor called
ITLB destructor called
L2C destructor called
L1D destructor called
L1I destructor called
STLB destructor called
DTLB destructor called
ITLB destructor called
L2C destructor called
L1D destructor called
L1I destructor called
STLB destructor called
DTLB destructor called
ITLB destructor called
L2C destructor called
L1D destructor called
L1I destructor called
STLB destructor called
DTLB destructor called
ITLB destructor called
L2C destructor called
L1D destructor called
L1I destructor called
STLB destructor called
DTLB destructor called
ITLB destructor called
