
*** ChampSim Multicore Out-of-Order Simulator ***

Warmup Instructions: 200000000
Simulation Instructions: 200000000
Number of CPUs: 8
threads:1

L1I Configuration:
L1I_SET:64
L1I_WAY:8
L1I_RQ_SIZE:64
L1I_WQ_SIZE:64
L1I_PQ_SIZE:8
L1I_MSHR_SIZE:8

L1D Configuration:
L1D_SET:64
L1D_WAY:12
L1D_RQ_SIZE:64
L1D_WQ_SIZE:64
L1D_PQ_SIZE:8
L1D_MSHR_SIZE:16

L2C Configuration:
L2C_SET:1024
L2C_WAY:8
L2C_RQ_SIZE:32
L2C_WQ_SIZE:32
L2C_PQ_SIZE:16
L2C_MSHR_SIZE:32

LLC Configuration:
LLC_SET:2048
LLC_WAY:12
LLC SLICES:8
LLC_RQ_SIZE:64
LLC_WQ_SIZE:64
LLC_PQ_SIZE:32
LLC_MSHR_SIZE:64

Interconnect OFF
Attacker deprioritize is: OFF
Off-chip DRAM Size: 8192 MB Channels: 2 Width: 64-bit Data Rate: 3200 MT/s
PAGE SIZE in KB: 4.000000 
PAGE SIZE in MB: 0.003906 
PAGE offset in bits: 12 
CEASER-S_LLC:0
MIRAGE : 1
CEASER_LATENCY:3
REMAP : OFF
Partitions : 1
Multi-Step : OFF
BFS : OFF

CPU 0 runs /home/anubhav/gap/cc-5.trace.gz
CPU 1 runs /home/anubhav/gap/cc-5.trace.gz
CPU 2 runs /home/anubhav/gap/cc-5.trace.gz
CPU 3 runs /home/anubhav/gap/cc-5.trace.gz
CPU 4 runs /home/anubhav/gap/cc-5.trace.gz
CPU 5 runs /home/anubhav/gap/cc-5.trace.gz
CPU 6 runs /home/anubhav/gap/cc-5.trace.gz
CPU 7 runs /home/anubhav/gap/cc-5.trace.gz
CPU 0 Bimodal branch predictor
Initialize Hawkeye state
Initialize Hawkeye state
Initialize Hawkeye state
Initialize Hawkeye state
Initialize Hawkeye state
Initialize Hawkeye state
Initialize Hawkeye state
Initialize Hawkeye state
CPU 1 Bimodal branch predictor
Initialize Hawkeye state
Initialize Hawkeye state
Initialize Hawkeye state
Initialize Hawkeye state
Initialize Hawkeye state
Initialize Hawkeye state
Initialize Hawkeye state
Initialize Hawkeye state
CPU 2 Bimodal branch predictor
Initialize Hawkeye state
Initialize Hawkeye state
Initialize Hawkeye state
Initialize Hawkeye state
Initialize Hawkeye state
Initialize Hawkeye state
Initialize Hawkeye state
Initialize Hawkeye state
CPU 3 Bimodal branch predictor
Initialize Hawkeye state
Initialize Hawkeye state
Initialize Hawkeye state
Initialize Hawkeye state
Initialize Hawkeye state
Initialize Hawkeye state
Initialize Hawkeye state
Initialize Hawkeye state
CPU 4 Bimodal branch predictor
Initialize Hawkeye state
Initialize Hawkeye state
Initialize Hawkeye state
Initialize Hawkeye state
Initialize Hawkeye state
Initialize Hawkeye state
Initialize Hawkeye state
Initialize Hawkeye state
CPU 5 Bimodal branch predictor
Initialize Hawkeye state
Initialize Hawkeye state
Initialize Hawkeye state
Initialize Hawkeye state
Initialize Hawkeye state
Initialize Hawkeye state
Initialize Hawkeye state
Initialize Hawkeye state
CPU 6 Bimodal branch predictor
Initialize Hawkeye state
Initialize Hawkeye state
Initialize Hawkeye state
Initialize Hawkeye state
Initialize Hawkeye state
Initialize Hawkeye state
Initialize Hawkeye state
Initialize Hawkeye state
CPU 7 Bimodal branch predictor
Initialize Hawkeye state
Initialize Hawkeye state
Initialize Hawkeye state
Initialize Hawkeye state
Initialize Hawkeye state
Initialize Hawkeye state
Initialize Hawkeye state
Initialize Hawkeye state
Heartbeat CPU 0 instructions: 10000000 cycles: 10456670 heartbeat IPC: 0.956327 cumulative IPC: 0.956327 (Simulation time: 0 hr 28 min 50 sec) 
 Total Blocks : 196608 Invalid Blocks : 38 Valid Blocks : 196570
 Total Tags : 491520 Threshold : 12288 Invalid Tags : 196650 Pr0 Tags : 98300 Pr1 Tags : 196570 num_pr0 : 12286
 SAE Count : 0
 Inter-Core Inteference in Data Store : 1325314
Heartbeat CPU 1 instructions: 10000000 cycles: 10456987 heartbeat IPC: 0.956298 cumulative IPC: 0.956298 (Simulation time: 0 hr 28 min 50 sec) 
 Total Blocks : 196608 Invalid Blocks : 38 Valid Blocks : 196570
 Total Tags : 491520 Threshold : 12288 Invalid Tags : 196646 Pr0 Tags : 98304 Pr1 Tags : 196570 num_pr0 : 12288
 SAE Count : 0
 Inter-Core Inteference in Data Store : 1325337
Heartbeat CPU 2 instructions: 10000000 cycles: 10457055 heartbeat IPC: 0.956292 cumulative IPC: 0.956292 (Simulation time: 0 hr 28 min 50 sec) 
 Total Blocks : 196608 Invalid Blocks : 38 Valid Blocks : 196570
 Total Tags : 491520 Threshold : 12288 Invalid Tags : 196649 Pr0 Tags : 98301 Pr1 Tags : 196570 num_pr0 : 12286
 SAE Count : 0
 Inter-Core Inteference in Data Store : 1325344
Heartbeat CPU 3 instructions: 10000000 cycles: 10457341 heartbeat IPC: 0.956266 cumulative IPC: 0.956266 (Simulation time: 0 hr 28 min 50 sec) 
 Total Blocks : 196608 Invalid Blocks : 38 Valid Blocks : 196570
 Total Tags : 491520 Threshold : 12288 Invalid Tags : 196649 Pr0 Tags : 98301 Pr1 Tags : 196570 num_pr0 : 12286
 SAE Count : 0
 Inter-Core Inteference in Data Store : 1325374
Heartbeat CPU 4 instructions: 10000000 cycles: 10457544 heartbeat IPC: 0.956247 cumulative IPC: 0.956247 (Simulation time: 0 hr 28 min 50 sec) 
 Total Blocks : 196608 Invalid Blocks : 38 Valid Blocks : 196570
 Total Tags : 491520 Threshold : 12288 Invalid Tags : 196648 Pr0 Tags : 98302 Pr1 Tags : 196570 num_pr0 : 12286
 SAE Count : 0
 Inter-Core Inteference in Data Store : 1325401
Heartbeat CPU 5 instructions: 10000000 cycles: 10457777 heartbeat IPC: 0.956226 cumulative IPC: 0.956226 (Simulation time: 0 hr 28 min 50 sec) 
 Total Blocks : 196608 Invalid Blocks : 38 Valid Blocks : 196570
 Total Tags : 491520 Threshold : 12288 Invalid Tags : 196648 Pr0 Tags : 98302 Pr1 Tags : 196570 num_pr0 : 12287
 SAE Count : 0
 Inter-Core Inteference in Data Store : 1325426
Heartbeat CPU 6 instructions: 10000000 cycles: 10458223 heartbeat IPC: 0.956185 cumulative IPC: 0.956185 (Simulation time: 0 hr 28 min 51 sec) 
 Total Blocks : 196608 Invalid Blocks : 38 Valid Blocks : 196570
 Total Tags : 491520 Threshold : 12288 Invalid Tags : 196647 Pr0 Tags : 98303 Pr1 Tags : 196570 num_pr0 : 12288
 SAE Count : 0
 Inter-Core Inteference in Data Store : 1325458
Heartbeat CPU 7 instructions: 10000000 cycles: 10458254 heartbeat IPC: 0.956183 cumulative IPC: 0.956183 (Simulation time: 0 hr 28 min 51 sec) 
 Total Blocks : 196608 Invalid Blocks : 38 Valid Blocks : 196570
 Total Tags : 491520 Threshold : 12288 Invalid Tags : 196646 Pr0 Tags : 98304 Pr1 Tags : 196570 num_pr0 : 12288
 SAE Count : 0
 Inter-Core Inteference in Data Store : 1325462
FILL
Heartbeat CPU 0 instructions: 20000000 cycles: 19703048 heartbeat IPC: 1.0815 cumulative IPC: 1.01507 (Simulation time: 0 hr 54 min 48 sec) 
 Total Blocks : 196608 Invalid Blocks : 2 Valid Blocks : 196606
 Total Tags : 491520 Threshold : 12288 Invalid Tags : 196610 Pr0 Tags : 98304 Pr1 Tags : 196606 num_pr0 : 12288
 SAE Count : 0
 Inter-Core Inteference in Data Store : 2213324
Heartbeat CPU 1 instructions: 20000000 cycles: 19703440 heartbeat IPC: 1.0815 cumulative IPC: 1.01505 (Simulation time: 0 hr 54 min 48 sec) 
 Total Blocks : 196608 Invalid Blocks : 2 Valid Blocks : 196606
 Total Tags : 491520 Threshold : 12288 Invalid Tags : 196610 Pr0 Tags : 98304 Pr1 Tags : 196606 num_pr0 : 12288
 SAE Count : 0
 Inter-Core Inteference in Data Store : 2213361
Heartbeat CPU 2 instructions: 20000000 cycles: 19703667 heartbeat IPC: 1.08148 cumulative IPC: 1.01504 (Simulation time: 0 hr 54 min 48 sec) 
 Total Blocks : 196608 Invalid Blocks : 2 Valid Blocks : 196606
 Total Tags : 491520 Threshold : 12288 Invalid Tags : 196610 Pr0 Tags : 98304 Pr1 Tags : 196606 num_pr0 : 12288
 SAE Count : 0
 Inter-Core Inteference in Data Store : 2213388
Heartbeat CPU 3 instructions: 20000000 cycles: 19704813 heartbeat IPC: 1.08138 cumulative IPC: 1.01498 (Simulation time: 0 hr 54 min 48 sec) 
 Total Blocks : 196608 Invalid Blocks : 2 Valid Blocks : 196606
 Total Tags : 491520 Threshold : 12288 Invalid Tags : 196610 Pr0 Tags : 98304 Pr1 Tags : 196606 num_pr0 : 12288
 SAE Count : 0
 Inter-Core Inteference in Data Store : 2213512
Heartbeat CPU 4 instructions: 20000000 cycles: 19704974 heartbeat IPC: 1.08138 cumulative IPC: 1.01497 (Simulation time: 0 hr 54 min 49 sec) 
 Total Blocks : 196608 Invalid Blocks : 2 Valid Blocks : 196606
 Total Tags : 491520 Threshold : 12288 Invalid Tags : 196610 Pr0 Tags : 98304 Pr1 Tags : 196606 num_pr0 : 12288
 SAE Count : 0
 Inter-Core Inteference in Data Store : 2213525
Heartbeat CPU 5 instructions: 20000000 cycles: 19705380 heartbeat IPC: 1.08136 cumulative IPC: 1.01495 (Simulation time: 0 hr 54 min 49 sec) 
 Total Blocks : 196608 Invalid Blocks : 2 Valid Blocks : 196606
 Total Tags : 491520 Threshold : 12288 Invalid Tags : 196611 Pr0 Tags : 98303 Pr1 Tags : 196606 num_pr0 : 12288
 SAE Count : 0
 Inter-Core Inteference in Data Store : 2213554
Heartbeat CPU 6 instructions: 20000000 cycles: 19706691 heartbeat IPC: 1.08126 cumulative IPC: 1.01488 (Simulation time: 0 hr 54 min 49 sec) 
 Total Blocks : 196608 Invalid Blocks : 2 Valid Blocks : 196606
 Total Tags : 491520 Threshold : 12288 Invalid Tags : 196610 Pr0 Tags : 98304 Pr1 Tags : 196606 num_pr0 : 12288
 SAE Count : 0
 Inter-Core Inteference in Data Store : 2213687
Heartbeat CPU 7 instructions: 20000000 cycles: 19707042 heartbeat IPC: 1.08122 cumulative IPC: 1.01487 (Simulation time: 0 hr 54 min 49 sec) 
 Total Blocks : 196608 Invalid Blocks : 2 Valid Blocks : 196606
 Total Tags : 491520 Threshold : 12288 Invalid Tags : 196610 Pr0 Tags : 98304 Pr1 Tags : 196606 num_pr0 : 12288
 SAE Count : 0
 Inter-Core Inteference in Data Store : 2213721
Heartbeat CPU 0 instructions: 30000001 cycles: 28262042 heartbeat IPC: 1.16836 cumulative IPC: 1.06149 (Simulation time: 1 hr 21 min 33 sec) 
 Total Blocks : 196608 Invalid Blocks : 1 Valid Blocks : 196607
 Total Tags : 491520 Threshold : 12288 Invalid Tags : 196610 Pr0 Tags : 98303 Pr1 Tags : 196607 num_pr0 : 12288
 SAE Count : 0
 Inter-Core Inteference in Data Store : 2992775
Heartbeat CPU 1 instructions: 30000001 cycles: 28263114 heartbeat IPC: 1.16827 cumulative IPC: 1.06145 (Simulation time: 1 hr 21 min 33 sec) 
 Total Blocks : 196608 Invalid Blocks : 1 Valid Blocks : 196607
 Total Tags : 491520 Threshold : 12288 Invalid Tags : 196610 Pr0 Tags : 98303 Pr1 Tags : 196607 num_pr0 : 12288
 SAE Count : 0
 Inter-Core Inteference in Data Store : 2992911
Heartbeat CPU 2 instructions: 30000001 cycles: 28263756 heartbeat IPC: 1.16821 cumulative IPC: 1.06143 (Simulation time: 1 hr 21 min 33 sec) 
 Total Blocks : 196608 Invalid Blocks : 1 Valid Blocks : 196607
 Total Tags : 491520 Threshold : 12288 Invalid Tags : 196610 Pr0 Tags : 98303 Pr1 Tags : 196607 num_pr0 : 12288
 SAE Count : 0
 Inter-Core Inteference in Data Store : 2992993
Heartbeat CPU 4 instructions: 30000001 cycles: 28264634 heartbeat IPC: 1.16827 cumulative IPC: 1.0614 (Simulation time: 1 hr 21 min 33 sec) 
 Total Blocks : 196608 Invalid Blocks : 1 Valid Blocks : 196607
 Total Tags : 491520 Threshold : 12288 Invalid Tags : 196611 Pr0 Tags : 98302 Pr1 Tags : 196607 num_pr0 : 12288
 SAE Count : 0
 Inter-Core Inteference in Data Store : 2993077
Heartbeat CPU 3 instructions: 30000001 cycles: 28264883 heartbeat IPC: 1.16821 cumulative IPC: 1.06139 (Simulation time: 1 hr 21 min 33 sec) 
 Total Blocks : 196608 Invalid Blocks : 1 Valid Blocks : 196607
 Total Tags : 491520 Threshold : 12288 Invalid Tags : 196611 Pr0 Tags : 98302 Pr1 Tags : 196607 num_pr0 : 12288
 SAE Count : 0
 Inter-Core Inteference in Data Store : 2993106
Heartbeat CPU 5 instructions: 30000001 cycles: 28266558 heartbeat IPC: 1.16806 cumulative IPC: 1.06132 (Simulation time: 1 hr 21 min 34 sec) 
 Total Blocks : 196608 Invalid Blocks : 1 Valid Blocks : 196607
 Total Tags : 491520 Threshold : 12288 Invalid Tags : 196609 Pr0 Tags : 98304 Pr1 Tags : 196607 num_pr0 : 12288
 SAE Count : 0
 Inter-Core Inteference in Data Store : 2993297
Heartbeat CPU 6 instructions: 30000001 cycles: 28267986 heartbeat IPC: 1.16805 cumulative IPC: 1.06127 (Simulation time: 1 hr 21 min 34 sec) 
 Total Blocks : 196608 Invalid Blocks : 1 Valid Blocks : 196607
 Total Tags : 491520 Threshold : 12288 Invalid Tags : 196609 Pr0 Tags : 98304 Pr1 Tags : 196607 num_pr0 : 12288
 SAE Count : 0
 Inter-Core Inteference in Data Store : 2993476
Heartbeat CPU 7 instructions: 30000001 cycles: 28268744 heartbeat IPC: 1.16799 cumulative IPC: 1.06124 (Simulation time: 1 hr 21 min 34 sec) 
 Total Blocks : 196608 Invalid Blocks : 1 Valid Blocks : 196607
 Total Tags : 491520 Threshold : 12288 Invalid Tags : 196611 Pr0 Tags : 98302 Pr1 Tags : 196607 num_pr0 : 12288
 SAE Count : 0
 Inter-Core Inteference in Data Store : 2993569
Heartbeat CPU 0 instructions: 40000003 cycles: 36593012 heartbeat IPC: 1.20034 cumulative IPC: 1.0931 (Simulation time: 1 hr 48 min 12 sec) 
 Total Blocks : 196608 Invalid Blocks : 0 Valid Blocks : 196608
 Total Tags : 491520 Threshold : 12288 Invalid Tags : 196609 Pr0 Tags : 98303 Pr1 Tags : 196608 num_pr0 : 12288
 SAE Count : 0
 Inter-Core Inteference in Data Store : 3765637
Heartbeat CPU 1 instructions: 40000003 cycles: 36594191 heartbeat IPC: 1.20033 cumulative IPC: 1.09307 (Simulation time: 1 hr 48 min 12 sec) 
 Total Blocks : 196608 Invalid Blocks : 0 Valid Blocks : 196608
 Total Tags : 491520 Threshold : 12288 Invalid Tags : 196609 Pr0 Tags : 98303 Pr1 Tags : 196608 num_pr0 : 12288
 SAE Count : 0
 Inter-Core Inteference in Data Store : 3765725
Heartbeat CPU 2 instructions: 40000003 cycles: 36595668 heartbeat IPC: 1.2002 cumulative IPC: 1.09303 (Simulation time: 1 hr 48 min 12 sec) 
 Total Blocks : 196608 Invalid Blocks : 0 Valid Blocks : 196608
 Total Tags : 491520 Threshold : 12288 Invalid Tags : 196608 Pr0 Tags : 98304 Pr1 Tags : 196608 num_pr0 : 12288
 SAE Count : 0
 Inter-Core Inteference in Data Store : 3765807
Heartbeat CPU 3 instructions: 40000003 cycles: 36596512 heartbeat IPC: 1.20025 cumulative IPC: 1.093 (Simulation time: 1 hr 48 min 13 sec) 
 Total Blocks : 196608 Invalid Blocks : 0 Valid Blocks : 196608
 Total Tags : 491520 Threshold : 12288 Invalid Tags : 196609 Pr0 Tags : 98303 Pr1 Tags : 196608 num_pr0 : 12288
 SAE Count : 0
 Inter-Core Inteference in Data Store : 3765856
Heartbeat CPU 4 instructions: 40000003 cycles: 36596994 heartbeat IPC: 1.20014 cumulative IPC: 1.09299 (Simulation time: 1 hr 48 min 13 sec) 
 Total Blocks : 196608 Invalid Blocks : 0 Valid Blocks : 196608
 Total Tags : 491520 Threshold : 12288 Invalid Tags : 196608 Pr0 Tags : 98304 Pr1 Tags : 196608 num_pr0 : 12288
 SAE Count : 0
 Inter-Core Inteference in Data Store : 3765890
Heartbeat CPU 5 instructions: 40000003 cycles: 36599379 heartbeat IPC: 1.20007 cumulative IPC: 1.09291 (Simulation time: 1 hr 48 min 14 sec) 
 Total Blocks : 196608 Invalid Blocks : 0 Valid Blocks : 196608
 Total Tags : 491520 Threshold : 12288 Invalid Tags : 196609 Pr0 Tags : 98303 Pr1 Tags : 196608 num_pr0 : 12288
 SAE Count : 0
 Inter-Core Inteference in Data Store : 3766042
Heartbeat CPU 6 instructions: 40000003 cycles: 36601435 heartbeat IPC: 1.19998 cumulative IPC: 1.09285 (Simulation time: 1 hr 48 min 14 sec) 
 Total Blocks : 196608 Invalid Blocks : 0 Valid Blocks : 196608
 Total Tags : 491520 Threshold : 12288 Invalid Tags : 196608 Pr0 Tags : 98304 Pr1 Tags : 196608 num_pr0 : 12288
 SAE Count : 0
 Inter-Core Inteference in Data Store : 3766157
Heartbeat CPU 7 instructions: 40000003 cycles: 36601891 heartbeat IPC: 1.20003 cumulative IPC: 1.09284 (Simulation time: 1 hr 48 min 15 sec) 
 Total Blocks : 196608 Invalid Blocks : 0 Valid Blocks : 196608
 Total Tags : 491520 Threshold : 12288 Invalid Tags : 196608 Pr0 Tags : 98304 Pr1 Tags : 196608 num_pr0 : 12288
 SAE Count : 0
 Inter-Core Inteference in Data Store : 3766191
Heartbeat CPU 0 instructions: 50000001 cycles: 44550836 heartbeat IPC: 1.25662 cumulative IPC: 1.12231 (Simulation time: 2 hr 30 min 5 sec) 
 Total Blocks : 196608 Invalid Blocks : 0 Valid Blocks : 196608
 Total Tags : 491520 Threshold : 12288 Invalid Tags : 196608 Pr0 Tags : 98304 Pr1 Tags : 196608 num_pr0 : 12288
 SAE Count : 0
 Inter-Core Inteference in Data Store : 6866140
Heartbeat CPU 1 instructions: 50000001 cycles: 44556186 heartbeat IPC: 1.25597 cumulative IPC: 1.12218 (Simulation time: 2 hr 30 min 7 sec) 
 Total Blocks : 196608 Invalid Blocks : 0 Valid Blocks : 196608
 Total Tags : 491520 Threshold : 12288 Invalid Tags : 196608 Pr0 Tags : 98304 Pr1 Tags : 196608 num_pr0 : 12288
 SAE Count : 0
 Inter-Core Inteference in Data Store : 6869669
Heartbeat CPU 2 instructions: 50000001 cycles: 44559592 heartbeat IPC: 1.25566 cumulative IPC: 1.12209 (Simulation time: 2 hr 30 min 9 sec) 
 Total Blocks : 196608 Invalid Blocks : 0 Valid Blocks : 196608
 Total Tags : 491520 Threshold : 12288 Invalid Tags : 196608 Pr0 Tags : 98304 Pr1 Tags : 196608 num_pr0 : 12288
 SAE Count : 0
 Inter-Core Inteference in Data Store : 6871872
Heartbeat CPU 3 instructions: 50000001 cycles: 44562702 heartbeat IPC: 1.2553 cumulative IPC: 1.12201 (Simulation time: 2 hr 30 min 10 sec) 
 Total Blocks : 196608 Invalid Blocks : 0 Valid Blocks : 196608
 Total Tags : 491520 Threshold : 12288 Invalid Tags : 196608 Pr0 Tags : 98304 Pr1 Tags : 196608 num_pr0 : 12288
 SAE Count : 0
 Inter-Core Inteference in Data Store : 6874006
Heartbeat CPU 4 instructions: 50000001 cycles: 44565326 heartbeat IPC: 1.25497 cumulative IPC: 1.12195 (Simulation time: 2 hr 30 min 11 sec) 
 Total Blocks : 196608 Invalid Blocks : 0 Valid Blocks : 196608
 Total Tags : 491520 Threshold : 12288 Invalid Tags : 196608 Pr0 Tags : 98304 Pr1 Tags : 196608 num_pr0 : 12288
 SAE Count : 0
 Inter-Core Inteference in Data Store : 6875621
Heartbeat CPU 5 instructions: 50000001 cycles: 44569819 heartbeat IPC: 1.25464 cumulative IPC: 1.12184 (Simulation time: 2 hr 30 min 12 sec) 
 Total Blocks : 196608 Invalid Blocks : 0 Valid Blocks : 196608
 Total Tags : 491520 Threshold : 12288 Invalid Tags : 196608 Pr0 Tags : 98304 Pr1 Tags : 196608 num_pr0 : 12288
 SAE Count : 0
 Inter-Core Inteference in Data Store : 6877998
Heartbeat CPU 6 instructions: 50000001 cycles: 44573479 heartbeat IPC: 1.25438 cumulative IPC: 1.12174 (Simulation time: 2 hr 30 min 15 sec) 
 Total Blocks : 196608 Invalid Blocks : 0 Valid Blocks : 196608
 Total Tags : 491520 Threshold : 12288 Invalid Tags : 196608 Pr0 Tags : 98304 Pr1 Tags : 196608 num_pr0 : 12288
 SAE Count : 0
 Inter-Core Inteference in Data Store : 6880427
Heartbeat CPU 7 instructions: 50000001 cycles: 44574854 heartbeat IPC: 1.25424 cumulative IPC: 1.12171 (Simulation time: 2 hr 30 min 15 sec) 
 Total Blocks : 196608 Invalid Blocks : 0 Valid Blocks : 196608
 Total Tags : 491520 Threshold : 12288 Invalid Tags : 196608 Pr0 Tags : 98304 Pr1 Tags : 196608 num_pr0 : 12288
 SAE Count : 0
 Inter-Core Inteference in Data Store : 6881179
Heartbeat CPU 0 instructions: 60000000 cycles: 53008193 heartbeat IPC: 1.1824 cumulative IPC: 1.1319 (Simulation time: 3 hr 21 min 49 sec) 
 Total Blocks : 196608 Invalid Blocks : 0 Valid Blocks : 196608
 Total Tags : 491520 Threshold : 12288 Invalid Tags : 196608 Pr0 Tags : 98304 Pr1 Tags : 196608 num_pr0 : 12288
 SAE Count : 0
 Inter-Core Inteference in Data Store : 11577128
Heartbeat CPU 1 instructions: 60000000 cycles: 53018791 heartbeat IPC: 1.18167 cumulative IPC: 1.13167 (Simulation time: 3 hr 21 min 52 sec) 
 Total Blocks : 196608 Invalid Blocks : 0 Valid Blocks : 196608
 Total Tags : 491520 Threshold : 12288 Invalid Tags : 196608 Pr0 Tags : 98304 Pr1 Tags : 196608 num_pr0 : 12288
 SAE Count : 0
 Inter-Core Inteference in Data Store : 11583647
Heartbeat CPU 2 instructions: 60000000 cycles: 53025537 heartbeat IPC: 1.1812 cumulative IPC: 1.13153 (Simulation time: 3 hr 21 min 54 sec) 
 Total Blocks : 196608 Invalid Blocks : 0 Valid Blocks : 196608
 Total Tags : 491520 Threshold : 12288 Invalid Tags : 196608 Pr0 Tags : 98304 Pr1 Tags : 196608 num_pr0 : 12288
 SAE Count : 0
 Inter-Core Inteference in Data Store : 11587833
Heartbeat CPU 3 instructions: 60000000 cycles: 53032805 heartbeat IPC: 1.18062 cumulative IPC: 1.13138 (Simulation time: 3 hr 21 min 57 sec) 
 Total Blocks : 196608 Invalid Blocks : 0 Valid Blocks : 196608
 Total Tags : 491520 Threshold : 12288 Invalid Tags : 196608 Pr0 Tags : 98304 Pr1 Tags : 196608 num_pr0 : 12288
 SAE Count : 0
 Inter-Core Inteference in Data Store : 11592218
Heartbeat CPU 4 instructions: 60000000 cycles: 53038667 heartbeat IPC: 1.18017 cumulative IPC: 1.13125 (Simulation time: 3 hr 21 min 59 sec) 
 Total Blocks : 196608 Invalid Blocks : 0 Valid Blocks : 196608
 Total Tags : 491520 Threshold : 12288 Invalid Tags : 196608 Pr0 Tags : 98304 Pr1 Tags : 196608 num_pr0 : 12288
 SAE Count : 0
 Inter-Core Inteference in Data Store : 11595688
Heartbeat CPU 5 instructions: 60000000 cycles: 53045430 heartbeat IPC: 1.17986 cumulative IPC: 1.13111 (Simulation time: 3 hr 22 min 1 sec) 
 Total Blocks : 196608 Invalid Blocks : 0 Valid Blocks : 196608
 Total Tags : 491520 Threshold : 12288 Invalid Tags : 196608 Pr0 Tags : 98304 Pr1 Tags : 196608 num_pr0 : 12288
 SAE Count : 0
 Inter-Core Inteference in Data Store : 11599845
Heartbeat CPU 6 instructions: 60000000 cycles: 53050984 heartbeat IPC: 1.17959 cumulative IPC: 1.13099 (Simulation time: 3 hr 22 min 4 sec) 
 Total Blocks : 196608 Invalid Blocks : 0 Valid Blocks : 196608
 Total Tags : 491520 Threshold : 12288 Invalid Tags : 196608 Pr0 Tags : 98304 Pr1 Tags : 196608 num_pr0 : 12288
 SAE Count : 0
 Inter-Core Inteference in Data Store : 11603441
Heartbeat CPU 7 instructions: 60000000 cycles: 53055379 heartbeat IPC: 1.17917 cumulative IPC: 1.13089 (Simulation time: 3 hr 22 min 5 sec) 
 Total Blocks : 196608 Invalid Blocks : 0 Valid Blocks : 196608
 Total Tags : 491520 Threshold : 12288 Invalid Tags : 196608 Pr0 Tags : 98304 Pr1 Tags : 196608 num_pr0 : 12288
 SAE Count : 0
 Inter-Core Inteference in Data Store : 11606394
Heartbeat CPU 0 instructions: 70000001 cycles: 60982601 heartbeat IPC: 1.25401 cumulative IPC: 1.14787 (Simulation time: 4 hr 11 min 37 sec) 
 Total Blocks : 196608 Invalid Blocks : 0 Valid Blocks : 196608
 Total Tags : 491520 Threshold : 12288 Invalid Tags : 196608 Pr0 Tags : 98304 Pr1 Tags : 196608 num_pr0 : 12288
 SAE Count : 0
 Inter-Core Inteference in Data Store : 15890729
Heartbeat CPU 1 instructions: 70000001 cycles: 60997815 heartbeat IPC: 1.25329 cumulative IPC: 1.14758 (Simulation time: 4 hr 11 min 42 sec) 
 Total Blocks : 196608 Invalid Blocks : 0 Valid Blocks : 196608
 Total Tags : 491520 Threshold : 12288 Invalid Tags : 196608 Pr0 Tags : 98304 Pr1 Tags : 196608 num_pr0 : 12288
 SAE Count : 0
 Inter-Core Inteference in Data Store : 15898803
Heartbeat CPU 2 instructions: 70000001 cycles: 61008037 heartbeat IPC: 1.25274 cumulative IPC: 1.14739 (Simulation time: 4 hr 11 min 45 sec) 
 Total Blocks : 196608 Invalid Blocks : 0 Valid Blocks : 196608
 Total Tags : 491520 Threshold : 12288 Invalid Tags : 196609 Pr0 Tags : 98303 Pr1 Tags : 196608 num_pr0 : 12287
 SAE Count : 0
 Inter-Core Inteference in Data Store : 15904060
Heartbeat CPU 3 instructions: 70000001 cycles: 61018337 heartbeat IPC: 1.25226 cumulative IPC: 1.1472 (Simulation time: 4 hr 11 min 49 sec) 
 Total Blocks : 196608 Invalid Blocks : 0 Valid Blocks : 196608
 Total Tags : 491520 Threshold : 12288 Invalid Tags : 196608 Pr0 Tags : 98304 Pr1 Tags : 196608 num_pr0 : 12288
 SAE Count : 0
 Inter-Core Inteference in Data Store : 15909385
Heartbeat CPU 4 instructions: 70000001 cycles: 61027315 heartbeat IPC: 1.25178 cumulative IPC: 1.14703 (Simulation time: 4 hr 11 min 52 sec) 
 Total Blocks : 196608 Invalid Blocks : 0 Valid Blocks : 196608
 Total Tags : 491520 Threshold : 12288 Invalid Tags : 196608 Pr0 Tags : 98304 Pr1 Tags : 196608 num_pr0 : 12288
 SAE Count : 0
 Inter-Core Inteference in Data Store : 15914299
Heartbeat CPU 5 instructions: 70000001 cycles: 61036802 heartbeat IPC: 1.25135 cumulative IPC: 1.14685 (Simulation time: 4 hr 11 min 55 sec) 
 Total Blocks : 196608 Invalid Blocks : 0 Valid Blocks : 196608
 Total Tags : 491520 Threshold : 12288 Invalid Tags : 196608 Pr0 Tags : 98304 Pr1 Tags : 196608 num_pr0 : 12288
 SAE Count : 0
 Inter-Core Inteference in Data Store : 15919448
Heartbeat CPU 6 instructions: 70000001 cycles: 61044431 heartbeat IPC: 1.25102 cumulative IPC: 1.14671 (Simulation time: 4 hr 11 min 58 sec) 
 Total Blocks : 196608 Invalid Blocks : 0 Valid Blocks : 196608
 Total Tags : 491520 Threshold : 12288 Invalid Tags : 196608 Pr0 Tags : 98304 Pr1 Tags : 196608 num_pr0 : 12288
 SAE Count : 0
 Inter-Core Inteference in Data Store : 15923540
Heartbeat CPU 7 instructions: 70000001 cycles: 61051541 heartbeat IPC: 1.2506 cumulative IPC: 1.14657 (Simulation time: 4 hr 11 min 59 sec) 
 Total Blocks : 196608 Invalid Blocks : 0 Valid Blocks : 196608
 Total Tags : 491520 Threshold : 12288 Invalid Tags : 196608 Pr0 Tags : 98304 Pr1 Tags : 196608 num_pr0 : 12288
 SAE Count : 0
 Inter-Core Inteference in Data Store : 15927232
Heartbeat CPU 0 instructions: 80000000 cycles: 69087482 heartbeat IPC: 1.23382 cumulative IPC: 1.15795 (Simulation time: 5 hr 1 min 10 sec) 
 Total Blocks : 196608 Invalid Blocks : 0 Valid Blocks : 196608
 Total Tags : 491520 Threshold : 12288 Invalid Tags : 196608 Pr0 Tags : 98304 Pr1 Tags : 196608 num_pr0 : 12288
 SAE Count : 0
 Inter-Core Inteference in Data Store : 20228823
Heartbeat CPU 1 instructions: 80000000 cycles: 69107242 heartbeat IPC: 1.23313 cumulative IPC: 1.15762 (Simulation time: 5 hr 1 min 16 sec) 
 Total Blocks : 196608 Invalid Blocks : 0 Valid Blocks : 196608
 Total Tags : 491520 Threshold : 12288 Invalid Tags : 196608 Pr0 Tags : 98304 Pr1 Tags : 196608 num_pr0 : 12288
 SAE Count : 0
 Inter-Core Inteference in Data Store : 20239731
Heartbeat CPU 2 instructions: 80000000 cycles: 69120594 heartbeat IPC: 1.23266 cumulative IPC: 1.1574 (Simulation time: 5 hr 1 min 21 sec) 
 Total Blocks : 196608 Invalid Blocks : 0 Valid Blocks : 196608
 Total Tags : 491520 Threshold : 12288 Invalid Tags : 196608 Pr0 Tags : 98304 Pr1 Tags : 196608 num_pr0 : 12288
 SAE Count : 0
 Inter-Core Inteference in Data Store : 20246978
Heartbeat CPU 3 instructions: 80000000 cycles: 69135067 heartbeat IPC: 1.23202 cumulative IPC: 1.15716 (Simulation time: 5 hr 1 min 27 sec) 
 Total Blocks : 196608 Invalid Blocks : 0 Valid Blocks : 196608
 Total Tags : 491520 Threshold : 12288 Invalid Tags : 196608 Pr0 Tags : 98304 Pr1 Tags : 196608 num_pr0 : 12288
 SAE Count : 0
 Inter-Core Inteference in Data Store : 20254768
Heartbeat CPU 4 instructions: 80000000 cycles: 69146468 heartbeat IPC: 1.23166 cumulative IPC: 1.15696 (Simulation time: 5 hr 1 min 33 sec) 
 Total Blocks : 196608 Invalid Blocks : 0 Valid Blocks : 196608
 Total Tags : 491520 Threshold : 12288 Invalid Tags : 196608 Pr0 Tags : 98304 Pr1 Tags : 196608 num_pr0 : 12288
 SAE Count : 0
 Inter-Core Inteference in Data Store : 20261433
Heartbeat CPU 5 instructions: 80000000 cycles: 69158220 heartbeat IPC: 1.23131 cumulative IPC: 1.15677 (Simulation time: 5 hr 1 min 37 sec) 
 Total Blocks : 196608 Invalid Blocks : 0 Valid Blocks : 196608
 Total Tags : 491520 Threshold : 12288 Invalid Tags : 196608 Pr0 Tags : 98304 Pr1 Tags : 196608 num_pr0 : 12288
 SAE Count : 0
 Inter-Core Inteference in Data Store : 20267466
Heartbeat CPU 6 instructions: 80000000 cycles: 69169144 heartbeat IPC: 1.23081 cumulative IPC: 1.15659 (Simulation time: 5 hr 1 min 40 sec) 
 Total Blocks : 196608 Invalid Blocks : 0 Valid Blocks : 196608
 Total Tags : 491520 Threshold : 12288 Invalid Tags : 196608 Pr0 Tags : 98304 Pr1 Tags : 196608 num_pr0 : 12288
 SAE Count : 0
 Inter-Core Inteference in Data Store : 20273270
Heartbeat CPU 7 instructions: 80000000 cycles: 69178591 heartbeat IPC: 1.23046 cumulative IPC: 1.15643 (Simulation time: 5 hr 1 min 44 sec) 
 Total Blocks : 196608 Invalid Blocks : 0 Valid Blocks : 196608
 Total Tags : 491520 Threshold : 12288 Invalid Tags : 196608 Pr0 Tags : 98304 Pr1 Tags : 196608 num_pr0 : 12288
 SAE Count : 0
 Inter-Core Inteference in Data Store : 20278152
Heartbeat CPU 0 instructions: 90000001 cycles: 77376117 heartbeat IPC: 1.20647 cumulative IPC: 1.16315 (Simulation time: 5 hr 51 min 46 sec) 
 Total Blocks : 196608 Invalid Blocks : 0 Valid Blocks : 196608
 Total Tags : 491520 Threshold : 12288 Invalid Tags : 196608 Pr0 Tags : 98304 Pr1 Tags : 196608 num_pr0 : 12288
 SAE Count : 0
 Inter-Core Inteference in Data Store : 24752919
Heartbeat CPU 1 instructions: 90000000 cycles: 77400812 heartbeat IPC: 1.20575 cumulative IPC: 1.16278 (Simulation time: 5 hr 51 min 53 sec) 
 Total Blocks : 196608 Invalid Blocks : 0 Valid Blocks : 196608
 Total Tags : 491520 Threshold : 12288 Invalid Tags : 196608 Pr0 Tags : 98304 Pr1 Tags : 196608 num_pr0 : 12288
 SAE Count : 0
 Inter-Core Inteference in Data Store : 24766825
Heartbeat CPU 2 instructions: 90000001 cycles: 77417863 heartbeat IPC: 1.20522 cumulative IPC: 1.16252 (Simulation time: 5 hr 52 min 0 sec) 
 Total Blocks : 196608 Invalid Blocks : 0 Valid Blocks : 196608
 Total Tags : 491520 Threshold : 12288 Invalid Tags : 196608 Pr0 Tags : 98304 Pr1 Tags : 196608 num_pr0 : 12288
 SAE Count : 0
 Inter-Core Inteference in Data Store : 24776885
Heartbeat CPU 3 instructions: 90000001 cycles: 77436006 heartbeat IPC: 1.20468 cumulative IPC: 1.16225 (Simulation time: 5 hr 52 min 7 sec) 
 Total Blocks : 196608 Invalid Blocks : 0 Valid Blocks : 196608
 Total Tags : 491520 Threshold : 12288 Invalid Tags : 196608 Pr0 Tags : 98304 Pr1 Tags : 196608 num_pr0 : 12288
 SAE Count : 0
 Inter-Core Inteference in Data Store : 24787358
Heartbeat CPU 4 instructions: 90000002 cycles: 77449536 heartbeat IPC: 1.20437 cumulative IPC: 1.16205 (Simulation time: 5 hr 52 min 13 sec) 
 Total Blocks : 196608 Invalid Blocks : 0 Valid Blocks : 196608
 Total Tags : 491520 Threshold : 12288 Invalid Tags : 196608 Pr0 Tags : 98304 Pr1 Tags : 196608 num_pr0 : 12288
 SAE Count : 0
 Inter-Core Inteference in Data Store : 24795429
Heartbeat CPU 5 instructions: 90000003 cycles: 77464168 heartbeat IPC: 1.20396 cumulative IPC: 1.16183 (Simulation time: 5 hr 52 min 18 sec) 
 Total Blocks : 196608 Invalid Blocks : 0 Valid Blocks : 196608
 Total Tags : 491520 Threshold : 12288 Invalid Tags : 196608 Pr0 Tags : 98304 Pr1 Tags : 196608 num_pr0 : 12288
 SAE Count : 0
 Inter-Core Inteference in Data Store : 24803819
Heartbeat CPU 6 instructions: 90000000 cycles: 77477044 heartbeat IPC: 1.20367 cumulative IPC: 1.16163 (Simulation time: 5 hr 52 min 23 sec) 
 Total Blocks : 196608 Invalid Blocks : 0 Valid Blocks : 196608
 Total Tags : 491520 Threshold : 12288 Invalid Tags : 196608 Pr0 Tags : 98304 Pr1 Tags : 196608 num_pr0 : 12288
 SAE Count : 0
 Inter-Core Inteference in Data Store : 24811352
Heartbeat CPU 7 instructions: 90000000 cycles: 77489275 heartbeat IPC: 1.20327 cumulative IPC: 1.16145 (Simulation time: 5 hr 52 min 27 sec) 
 Total Blocks : 196608 Invalid Blocks : 0 Valid Blocks : 196608
 Total Tags : 491520 Threshold : 12288 Invalid Tags : 196608 Pr0 Tags : 98304 Pr1 Tags : 196608 num_pr0 : 12288
 SAE Count : 0
 Inter-Core Inteference in Data Store : 24818614
Heartbeat CPU 0 instructions: 100000002 cycles: 85323593 heartbeat IPC: 1.25826 cumulative IPC: 1.17201 (Simulation time: 6 hr 40 min 24 sec) 
 Total Blocks : 196608 Invalid Blocks : 0 Valid Blocks : 196608
 Total Tags : 491520 Threshold : 12288 Invalid Tags : 196608 Pr0 Tags : 98304 Pr1 Tags : 196608 num_pr0 : 12288
 SAE Count : 0
 Inter-Core Inteference in Data Store : 29016768
Heartbeat CPU 1 instructions: 100000002 cycles: 85352574 heartbeat IPC: 1.25758 cumulative IPC: 1.17161 (Simulation time: 6 hr 40 min 35 sec) 
 Total Blocks : 196608 Invalid Blocks : 0 Valid Blocks : 196608
 Total Tags : 491520 Threshold : 12288 Invalid Tags : 196609 Pr0 Tags : 98303 Pr1 Tags : 196608 num_pr0 : 12288
 SAE Count : 0
 Inter-Core Inteference in Data Store : 29034772
Heartbeat CPU 2 instructions: 100000002 cycles: 85373210 heartbeat IPC: 1.25702 cumulative IPC: 1.17133 (Simulation time: 6 hr 40 min 42 sec) 
 Total Blocks : 196608 Invalid Blocks : 0 Valid Blocks : 196608
 Total Tags : 491520 Threshold : 12288 Invalid Tags : 196608 Pr0 Tags : 98304 Pr1 Tags : 196608 num_pr0 : 12288
 SAE Count : 0
 Inter-Core Inteference in Data Store : 29047161
Heartbeat CPU 3 instructions: 100000002 cycles: 85394552 heartbeat IPC: 1.25651 cumulative IPC: 1.17103 (Simulation time: 6 hr 40 min 50 sec) 
 Total Blocks : 196608 Invalid Blocks : 0 Valid Blocks : 196608
 Total Tags : 491520 Threshold : 12288 Invalid Tags : 196608 Pr0 Tags : 98304 Pr1 Tags : 196608 num_pr0 : 12288
 SAE Count : 0
 Inter-Core Inteference in Data Store : 29060052
Heartbeat CPU 4 instructions: 100000001 cycles: 85410491 heartbeat IPC: 1.25613 cumulative IPC: 1.17082 (Simulation time: 6 hr 40 min 56 sec) 
 Total Blocks : 196608 Invalid Blocks : 0 Valid Blocks : 196608
 Total Tags : 491520 Threshold : 12288 Invalid Tags : 196608 Pr0 Tags : 98304 Pr1 Tags : 196608 num_pr0 : 12288
 SAE Count : 0
 Inter-Core Inteference in Data Store : 29069699
Heartbeat CPU 5 instructions: 100000001 cycles: 85427765 heartbeat IPC: 1.25571 cumulative IPC: 1.17058 (Simulation time: 6 hr 41 min 4 sec) 
 Total Blocks : 196608 Invalid Blocks : 0 Valid Blocks : 196608
 Total Tags : 491520 Threshold : 12288 Invalid Tags : 196608 Pr0 Tags : 98304 Pr1 Tags : 196608 num_pr0 : 12288
 SAE Count : 0
 Inter-Core Inteference in Data Store : 29080956
Heartbeat CPU 6 instructions: 100000001 cycles: 85443297 heartbeat IPC: 1.2553 cumulative IPC: 1.17037 (Simulation time: 6 hr 41 min 10 sec) 
 Total Blocks : 196608 Invalid Blocks : 0 Valid Blocks : 196608
 Total Tags : 491520 Threshold : 12288 Invalid Tags : 196608 Pr0 Tags : 98304 Pr1 Tags : 196608 num_pr0 : 12288
 SAE Count : 0
 Inter-Core Inteference in Data Store : 29091221
Heartbeat CPU 7 instructions: 100000002 cycles: 85457101 heartbeat IPC: 1.25505 cumulative IPC: 1.17018 (Simulation time: 6 hr 41 min 17 sec) 
 Total Blocks : 196608 Invalid Blocks : 0 Valid Blocks : 196608
 Total Tags : 491520 Threshold : 12288 Invalid Tags : 196608 Pr0 Tags : 98304 Pr1 Tags : 196608 num_pr0 : 12288
 SAE Count : 0
 Inter-Core Inteference in Data Store : 29100088
Heartbeat CPU 0 instructions: 110000000 cycles: 93380480 heartbeat IPC: 1.24117 cumulative IPC: 1.17798 (Simulation time: 7 hr 30 min 17 sec) 
 Total Blocks : 196608 Invalid Blocks : 0 Valid Blocks : 196608
 Total Tags : 491520 Threshold : 12288 Invalid Tags : 196609 Pr0 Tags : 98303 Pr1 Tags : 196608 num_pr0 : 12288
 SAE Count : 0
 Inter-Core Inteference in Data Store : 33430546
Heartbeat CPU 1 instructions: 110000000 cycles: 93414370 heartbeat IPC: 1.24042 cumulative IPC: 1.17755 (Simulation time: 7 hr 30 min 29 sec) 
 Total Blocks : 196608 Invalid Blocks : 0 Valid Blocks : 196608
 Total Tags : 491520 Threshold : 12288 Invalid Tags : 196608 Pr0 Tags : 98304 Pr1 Tags : 196608 num_pr0 : 12288
 SAE Count : 0
 Inter-Core Inteference in Data Store : 33446841
Heartbeat CPU 2 instructions: 110000000 cycles: 93438425 heartbeat IPC: 1.23989 cumulative IPC: 1.17725 (Simulation time: 7 hr 30 min 36 sec) 
 Total Blocks : 196608 Invalid Blocks : 0 Valid Blocks : 196608
 Total Tags : 491520 Threshold : 12288 Invalid Tags : 196608 Pr0 Tags : 98304 Pr1 Tags : 196608 num_pr0 : 12288
 SAE Count : 0
 Inter-Core Inteference in Data Store : 33458993
Heartbeat CPU 3 instructions: 110000000 cycles: 93462832 heartbeat IPC: 1.23942 cumulative IPC: 1.17694 (Simulation time: 7 hr 30 min 43 sec) 
 Total Blocks : 196608 Invalid Blocks : 0 Valid Blocks : 196608
 Total Tags : 491520 Threshold : 12288 Invalid Tags : 196608 Pr0 Tags : 98304 Pr1 Tags : 196608 num_pr0 : 12288
 SAE Count : 0
 Inter-Core Inteference in Data Store : 33472082
Heartbeat CPU 4 instructions: 110000000 cycles: 93481904 heartbeat IPC: 1.23894 cumulative IPC: 1.1767 (Simulation time: 7 hr 30 min 50 sec) 
 Total Blocks : 196608 Invalid Blocks : 0 Valid Blocks : 196608
 Total Tags : 491520 Threshold : 12288 Invalid Tags : 196608 Pr0 Tags : 98304 Pr1 Tags : 196608 num_pr0 : 12288
 SAE Count : 0
 Inter-Core Inteference in Data Store : 33482740
Heartbeat CPU 5 instructions: 110000000 cycles: 93501385 heartbeat IPC: 1.2386 cumulative IPC: 1.17645 (Simulation time: 7 hr 30 min 56 sec) 
 Total Blocks : 196608 Invalid Blocks : 0 Valid Blocks : 196608
 Total Tags : 491520 Threshold : 12288 Invalid Tags : 196608 Pr0 Tags : 98304 Pr1 Tags : 196608 num_pr0 : 12288
 SAE Count : 0
 Inter-Core Inteference in Data Store : 33493721
Heartbeat CPU 6 instructions: 110000000 cycles: 93519894 heartbeat IPC: 1.23815 cumulative IPC: 1.17622 (Simulation time: 7 hr 31 min 2 sec) 
 Total Blocks : 196608 Invalid Blocks : 0 Valid Blocks : 196608
 Total Tags : 491520 Threshold : 12288 Invalid Tags : 196608 Pr0 Tags : 98304 Pr1 Tags : 196608 num_pr0 : 12288
 SAE Count : 0
 Inter-Core Inteference in Data Store : 33504080
Heartbeat CPU 7 instructions: 110000000 cycles: 93535669 heartbeat IPC: 1.23784 cumulative IPC: 1.17602 (Simulation time: 7 hr 31 min 7 sec) 
 Total Blocks : 196608 Invalid Blocks : 0 Valid Blocks : 196608
 Total Tags : 491520 Threshold : 12288 Invalid Tags : 196608 Pr0 Tags : 98304 Pr1 Tags : 196608 num_pr0 : 12288
 SAE Count : 0
 Inter-Core Inteference in Data Store : 33513427
Heartbeat CPU 0 instructions: 120000000 cycles: 101413922 heartbeat IPC: 1.2448 cumulative IPC: 1.18327 (Simulation time: 8 hr 18 min 22 sec) 
 Total Blocks : 196608 Invalid Blocks : 0 Valid Blocks : 196608
 Total Tags : 491520 Threshold : 12288 Invalid Tags : 196608 Pr0 Tags : 98304 Pr1 Tags : 196608 num_pr0 : 12288
 SAE Count : 0
 Inter-Core Inteference in Data Store : 37716129
Heartbeat CPU 1 instructions: 120000000 cycles: 101452559 heartbeat IPC: 1.24406 cumulative IPC: 1.18282 (Simulation time: 8 hr 18 min 36 sec) 
 Total Blocks : 196608 Invalid Blocks : 0 Valid Blocks : 196608
 Total Tags : 491520 Threshold : 12288 Invalid Tags : 196608 Pr0 Tags : 98304 Pr1 Tags : 196608 num_pr0 : 12288
 SAE Count : 0
 Inter-Core Inteference in Data Store : 37738145
Heartbeat CPU 2 instructions: 120000000 cycles: 101479975 heartbeat IPC: 1.24354 cumulative IPC: 1.1825 (Simulation time: 8 hr 18 min 47 sec) 
 Total Blocks : 196608 Invalid Blocks : 0 Valid Blocks : 196608
 Total Tags : 491520 Threshold : 12288 Invalid Tags : 196608 Pr0 Tags : 98304 Pr1 Tags : 196608 num_pr0 : 12288
 SAE Count : 0
 Inter-Core Inteference in Data Store : 37753484
Heartbeat CPU 3 instructions: 120000000 cycles: 101507557 heartbeat IPC: 1.24305 cumulative IPC: 1.18218 (Simulation time: 8 hr 18 min 59 sec) 
 Total Blocks : 196608 Invalid Blocks : 0 Valid Blocks : 196608
 Total Tags : 491520 Threshold : 12288 Invalid Tags : 196608 Pr0 Tags : 98304 Pr1 Tags : 196608 num_pr0 : 12288
 SAE Count : 0
 Inter-Core Inteference in Data Store : 37768260
Heartbeat CPU 4 instructions: 120000000 cycles: 101528822 heartbeat IPC: 1.24271 cumulative IPC: 1.18193 (Simulation time: 8 hr 19 min 7 sec) 
 Total Blocks : 196608 Invalid Blocks : 0 Valid Blocks : 196608
 Total Tags : 491520 Threshold : 12288 Invalid Tags : 196608 Pr0 Tags : 98304 Pr1 Tags : 196608 num_pr0 : 12288
 SAE Count : 0
 Inter-Core Inteference in Data Store : 37779246
Heartbeat CPU 5 instructions: 120000000 cycles: 101551367 heartbeat IPC: 1.24224 cumulative IPC: 1.18167 (Simulation time: 8 hr 19 min 18 sec) 
 Total Blocks : 196608 Invalid Blocks : 0 Valid Blocks : 196608
 Total Tags : 491520 Threshold : 12288 Invalid Tags : 196608 Pr0 Tags : 98304 Pr1 Tags : 196608 num_pr0 : 12288
 SAE Count : 0
 Inter-Core Inteference in Data Store : 37790767
Heartbeat CPU 6 instructions: 120000000 cycles: 101572262 heartbeat IPC: 1.24187 cumulative IPC: 1.18142 (Simulation time: 8 hr 19 min 27 sec) 
 Total Blocks : 196608 Invalid Blocks : 0 Valid Blocks : 196608
 Total Tags : 491520 Threshold : 12288 Invalid Tags : 196608 Pr0 Tags : 98304 Pr1 Tags : 196608 num_pr0 : 12288
 SAE Count : 0
 Inter-Core Inteference in Data Store : 37800842
Heartbeat CPU 7 instructions: 120000000 cycles: 101590216 heartbeat IPC: 1.24153 cumulative IPC: 1.18122 (Simulation time: 8 hr 19 min 34 sec) 
 Total Blocks : 196608 Invalid Blocks : 0 Valid Blocks : 196608
 Total Tags : 491520 Threshold : 12288 Invalid Tags : 196609 Pr0 Tags : 98303 Pr1 Tags : 196608 num_pr0 : 12288
 SAE Count : 0
 Inter-Core Inteference in Data Store : 37809575
Heartbeat CPU 0 instructions: 130000002 cycles: 108863875 heartbeat IPC: 1.34229 cumulative IPC: 1.19415 (Simulation time: 9 hr 5 min 15 sec) 
 Total Blocks : 196608 Invalid Blocks : 0 Valid Blocks : 196608
 Total Tags : 491520 Threshold : 12288 Invalid Tags : 196608 Pr0 Tags : 98304 Pr1 Tags : 196608 num_pr0 : 12288
 SAE Count : 0
 Inter-Core Inteference in Data Store : 41568487
Heartbeat CPU 1 instructions: 130000003 cycles: 108905865 heartbeat IPC: 1.34169 cumulative IPC: 1.19369 (Simulation time: 9 hr 5 min 32 sec) 
 Total Blocks : 196608 Invalid Blocks : 0 Valid Blocks : 196608
 Total Tags : 491520 Threshold : 12288 Invalid Tags : 196608 Pr0 Tags : 98304 Pr1 Tags : 196608 num_pr0 : 12288
 SAE Count : 0
 Inter-Core Inteference in Data Store : 41591460
Heartbeat CPU 2 instructions: 130000003 cycles: 108936545 heartbeat IPC: 1.3411 cumulative IPC: 1.19336 (Simulation time: 9 hr 5 min 44 sec) 
 Total Blocks : 196608 Invalid Blocks : 0 Valid Blocks : 196608
 Total Tags : 491520 Threshold : 12288 Invalid Tags : 196608 Pr0 Tags : 98304 Pr1 Tags : 196608 num_pr0 : 12288
 SAE Count : 0
 Inter-Core Inteference in Data Store : 41607646
Heartbeat CPU 3 instructions: 130000003 cycles: 108966628 heartbeat IPC: 1.34065 cumulative IPC: 1.19303 (Simulation time: 9 hr 5 min 52 sec) 
 Total Blocks : 196608 Invalid Blocks : 0 Valid Blocks : 196608
 Total Tags : 491520 Threshold : 12288 Invalid Tags : 196608 Pr0 Tags : 98304 Pr1 Tags : 196608 num_pr0 : 12288
 SAE Count : 0
 Inter-Core Inteference in Data Store : 41622811
Heartbeat CPU 4 instructions: 130000003 cycles: 108989791 heartbeat IPC: 1.34031 cumulative IPC: 1.19277 (Simulation time: 9 hr 5 min 58 sec) 
 Total Blocks : 196608 Invalid Blocks : 0 Valid Blocks : 196608
 Total Tags : 491520 Threshold : 12288 Invalid Tags : 196608 Pr0 Tags : 98304 Pr1 Tags : 196608 num_pr0 : 12288
 SAE Count : 0
 Inter-Core Inteference in Data Store : 41634781
Heartbeat CPU 5 instructions: 130000002 cycles: 109013774 heartbeat IPC: 1.34005 cumulative IPC: 1.19251 (Simulation time: 9 hr 6 min 7 sec) 
 Total Blocks : 196608 Invalid Blocks : 0 Valid Blocks : 196608
 Total Tags : 491520 Threshold : 12288 Invalid Tags : 196608 Pr0 Tags : 98304 Pr1 Tags : 196608 num_pr0 : 12288
 SAE Count : 0
 Inter-Core Inteference in Data Store : 41647511
Heartbeat CPU 6 instructions: 130000003 cycles: 109037023 heartbeat IPC: 1.33963 cumulative IPC: 1.19226 (Simulation time: 9 hr 6 min 15 sec) 
 Total Blocks : 196608 Invalid Blocks : 0 Valid Blocks : 196608
 Total Tags : 491520 Threshold : 12288 Invalid Tags : 196608 Pr0 Tags : 98304 Pr1 Tags : 196608 num_pr0 : 12288
 SAE Count : 0
 Inter-Core Inteference in Data Store : 41659774
Heartbeat CPU 7 instructions: 130000003 cycles: 109057059 heartbeat IPC: 1.33925 cumulative IPC: 1.19204 (Simulation time: 9 hr 6 min 22 sec) 
 Total Blocks : 196608 Invalid Blocks : 0 Valid Blocks : 196608
 Total Tags : 491520 Threshold : 12288 Invalid Tags : 196608 Pr0 Tags : 98304 Pr1 Tags : 196608 num_pr0 : 12288
 SAE Count : 0
 Inter-Core Inteference in Data Store : 41670483
Heartbeat CPU 0 instructions: 140000003 cycles: 116837872 heartbeat IPC: 1.25408 cumulative IPC: 1.19824 (Simulation time: 9 hr 52 min 16 sec) 
 Total Blocks : 196608 Invalid Blocks : 0 Valid Blocks : 196608
 Total Tags : 491520 Threshold : 12288 Invalid Tags : 196608 Pr0 Tags : 98304 Pr1 Tags : 196608 num_pr0 : 12288
 SAE Count : 0
 Inter-Core Inteference in Data Store : 45803388
Heartbeat CPU 1 instructions: 140000002 cycles: 116884052 heartbeat IPC: 1.25342 cumulative IPC: 1.19777 (Simulation time: 9 hr 52 min 35 sec) 
 Total Blocks : 196608 Invalid Blocks : 0 Valid Blocks : 196608
 Total Tags : 491520 Threshold : 12288 Invalid Tags : 196608 Pr0 Tags : 98304 Pr1 Tags : 196608 num_pr0 : 12288
 SAE Count : 0
 Inter-Core Inteference in Data Store : 45831625
Heartbeat CPU 2 instructions: 140000003 cycles: 116918430 heartbeat IPC: 1.25284 cumulative IPC: 1.19742 (Simulation time: 9 hr 52 min 51 sec) 
 Total Blocks : 196608 Invalid Blocks : 0 Valid Blocks : 196608
 Total Tags : 491520 Threshold : 12288 Invalid Tags : 196608 Pr0 Tags : 98304 Pr1 Tags : 196608 num_pr0 : 12288
 SAE Count : 0
 Inter-Core Inteference in Data Store : 45852236
Heartbeat CPU 3 instructions: 140000002 cycles: 116950036 heartbeat IPC: 1.2526 cumulative IPC: 1.19709 (Simulation time: 9 hr 53 min 2 sec) 
 Total Blocks : 196608 Invalid Blocks : 0 Valid Blocks : 196608
 Total Tags : 491520 Threshold : 12288 Invalid Tags : 196608 Pr0 Tags : 98304 Pr1 Tags : 196608 num_pr0 : 12288
 SAE Count : 0
 Inter-Core Inteference in Data Store : 45870087
Heartbeat CPU 4 instructions: 140000003 cycles: 116976502 heartbeat IPC: 1.25208 cumulative IPC: 1.19682 (Simulation time: 9 hr 53 min 12 sec) 
 Total Blocks : 196608 Invalid Blocks : 0 Valid Blocks : 196608
 Total Tags : 491520 Threshold : 12288 Invalid Tags : 196608 Pr0 Tags : 98304 Pr1 Tags : 196608 num_pr0 : 12288
 SAE Count : 0
 Inter-Core Inteference in Data Store : 45884792
Heartbeat CPU 5 instructions: 140000002 cycles: 117002619 heartbeat IPC: 1.25175 cumulative IPC: 1.19655 (Simulation time: 9 hr 53 min 21 sec) 
 Total Blocks : 196608 Invalid Blocks : 0 Valid Blocks : 196608
 Total Tags : 491520 Threshold : 12288 Invalid Tags : 196608 Pr0 Tags : 98304 Pr1 Tags : 196608 num_pr0 : 12288
 SAE Count : 0
 Inter-Core Inteference in Data Store : 45898175
Heartbeat CPU 6 instructions: 140000003 cycles: 117028126 heartbeat IPC: 1.25139 cumulative IPC: 1.19629 (Simulation time: 9 hr 53 min 31 sec) 
 Total Blocks : 196608 Invalid Blocks : 0 Valid Blocks : 196608
 Total Tags : 491520 Threshold : 12288 Invalid Tags : 196608 Pr0 Tags : 98304 Pr1 Tags : 196608 num_pr0 : 12288
 SAE Count : 0
 Inter-Core Inteference in Data Store : 45911008
Heartbeat CPU 7 instructions: 140000001 cycles: 117049281 heartbeat IPC: 1.25122 cumulative IPC: 1.19608 (Simulation time: 9 hr 53 min 40 sec) 
 Total Blocks : 196608 Invalid Blocks : 0 Valid Blocks : 196608
 Total Tags : 491520 Threshold : 12288 Invalid Tags : 196608 Pr0 Tags : 98304 Pr1 Tags : 196608 num_pr0 : 12288
 SAE Count : 0
 Inter-Core Inteference in Data Store : 45921773
Heartbeat CPU 0 instructions: 150000000 cycles: 124730055 heartbeat IPC: 1.26708 cumulative IPC: 1.2026 (Simulation time: 10 hr 41 min 49 sec) 
 Total Blocks : 196608 Invalid Blocks : 0 Valid Blocks : 196608
 Total Tags : 491520 Threshold : 12288 Invalid Tags : 196608 Pr0 Tags : 98304 Pr1 Tags : 196608 num_pr0 : 12288
 SAE Count : 0
 Inter-Core Inteference in Data Store : 50078938
Heartbeat CPU 1 instructions: 150000000 cycles: 124780152 heartbeat IPC: 1.26645 cumulative IPC: 1.20211 (Simulation time: 10 hr 42 min 4 sec) 
 Total Blocks : 196608 Invalid Blocks : 0 Valid Blocks : 196608
 Total Tags : 491520 Threshold : 12288 Invalid Tags : 196608 Pr0 Tags : 98304 Pr1 Tags : 196608 num_pr0 : 12288
 SAE Count : 0
 Inter-Core Inteference in Data Store : 50105377
Heartbeat CPU 2 instructions: 150000000 cycles: 124817309 heartbeat IPC: 1.266 cumulative IPC: 1.20176 (Simulation time: 10 hr 42 min 17 sec) 
 Total Blocks : 196608 Invalid Blocks : 0 Valid Blocks : 196608
 Total Tags : 491520 Threshold : 12288 Invalid Tags : 196608 Pr0 Tags : 98304 Pr1 Tags : 196608 num_pr0 : 12288
 SAE Count : 0
 Inter-Core Inteference in Data Store : 50125640
Heartbeat CPU 3 instructions: 150000000 cycles: 124851602 heartbeat IPC: 1.26557 cumulative IPC: 1.20143 (Simulation time: 10 hr 42 min 29 sec) 
 Total Blocks : 196608 Invalid Blocks : 0 Valid Blocks : 196608
 Total Tags : 491520 Threshold : 12288 Invalid Tags : 196608 Pr0 Tags : 98304 Pr1 Tags : 196608 num_pr0 : 12288
 SAE Count : 0
 Inter-Core Inteference in Data Store : 50143978
Heartbeat CPU 4 instructions: 150000000 cycles: 124880141 heartbeat IPC: 1.26524 cumulative IPC: 1.20115 (Simulation time: 10 hr 42 min 40 sec) 
 Total Blocks : 196608 Invalid Blocks : 0 Valid Blocks : 196608
 Total Tags : 491520 Threshold : 12288 Invalid Tags : 196608 Pr0 Tags : 98304 Pr1 Tags : 196608 num_pr0 : 12288
 SAE Count : 0
 Inter-Core Inteference in Data Store : 50158949
Heartbeat CPU 5 instructions: 150000000 cycles: 124908880 heartbeat IPC: 1.26482 cumulative IPC: 1.20088 (Simulation time: 10 hr 42 min 51 sec) 
 Total Blocks : 196608 Invalid Blocks : 0 Valid Blocks : 196608
 Total Tags : 491520 Threshold : 12288 Invalid Tags : 196608 Pr0 Tags : 98304 Pr1 Tags : 196608 num_pr0 : 12288
 SAE Count : 0
 Inter-Core Inteference in Data Store : 50174056
Heartbeat CPU 6 instructions: 150000000 cycles: 124936337 heartbeat IPC: 1.26451 cumulative IPC: 1.20061 (Simulation time: 10 hr 43 min 4 sec) 
 Total Blocks : 196608 Invalid Blocks : 0 Valid Blocks : 196608
 Total Tags : 491520 Threshold : 12288 Invalid Tags : 196608 Pr0 Tags : 98304 Pr1 Tags : 196608 num_pr0 : 12288
 SAE Count : 0
 Inter-Core Inteference in Data Store : 50188421
Heartbeat CPU 7 instructions: 150000000 cycles: 124959505 heartbeat IPC: 1.26419 cumulative IPC: 1.20039 (Simulation time: 10 hr 43 min 11 sec) 
 Total Blocks : 196608 Invalid Blocks : 0 Valid Blocks : 196608
 Total Tags : 491520 Threshold : 12288 Invalid Tags : 196608 Pr0 Tags : 98304 Pr1 Tags : 196608 num_pr0 : 12288
 SAE Count : 0
 Inter-Core Inteference in Data Store : 50200426
Heartbeat CPU 0 instructions: 160000000 cycles: 132721136 heartbeat IPC: 1.2514 cumulative IPC: 1.20554 (Simulation time: 11 hr 34 min 25 sec) 
 Total Blocks : 196608 Invalid Blocks : 0 Valid Blocks : 196608
 Total Tags : 491520 Threshold : 12288 Invalid Tags : 196608 Pr0 Tags : 98304 Pr1 Tags : 196608 num_pr0 : 12288
 SAE Count : 0
 Inter-Core Inteference in Data Store : 54385425
Heartbeat CPU 1 instructions: 160000000 cycles: 132774882 heartbeat IPC: 1.25082 cumulative IPC: 1.20505 (Simulation time: 11 hr 34 min 45 sec) 
 Total Blocks : 196608 Invalid Blocks : 0 Valid Blocks : 196608
 Total Tags : 491520 Threshold : 12288 Invalid Tags : 196608 Pr0 Tags : 98304 Pr1 Tags : 196608 num_pr0 : 12288
 SAE Count : 0
 Inter-Core Inteference in Data Store : 54411117
Heartbeat CPU 2 instructions: 160000000 cycles: 132815224 heartbeat IPC: 1.25033 cumulative IPC: 1.20468 (Simulation time: 11 hr 35 min 1 sec) 
 Total Blocks : 196608 Invalid Blocks : 0 Valid Blocks : 196608
 Total Tags : 491520 Threshold : 12288 Invalid Tags : 196608 Pr0 Tags : 98304 Pr1 Tags : 196608 num_pr0 : 12288
 SAE Count : 0
 Inter-Core Inteference in Data Store : 54430138
Heartbeat CPU 3 instructions: 160000000 cycles: 132851878 heartbeat IPC: 1.24996 cumulative IPC: 1.20435 (Simulation time: 11 hr 35 min 14 sec) 
 Total Blocks : 196608 Invalid Blocks : 0 Valid Blocks : 196608
 Total Tags : 491520 Threshold : 12288 Invalid Tags : 196608 Pr0 Tags : 98304 Pr1 Tags : 196608 num_pr0 : 12288
 SAE Count : 0
 Inter-Core Inteference in Data Store : 54446067
Heartbeat CPU 4 instructions: 160000000 cycles: 132884066 heartbeat IPC: 1.24939 cumulative IPC: 1.20406 (Simulation time: 11 hr 35 min 26 sec) 
 Total Blocks : 196608 Invalid Blocks : 0 Valid Blocks : 196608
 Total Tags : 491520 Threshold : 12288 Invalid Tags : 196608 Pr0 Tags : 98304 Pr1 Tags : 196608 num_pr0 : 12288
 SAE Count : 0
 Inter-Core Inteference in Data Store : 54460394
Heartbeat CPU 5 instructions: 160000000 cycles: 132914430 heartbeat IPC: 1.24913 cumulative IPC: 1.20378 (Simulation time: 11 hr 35 min 38 sec) 
 Total Blocks : 196608 Invalid Blocks : 0 Valid Blocks : 196608
 Total Tags : 491520 Threshold : 12288 Invalid Tags : 196608 Pr0 Tags : 98304 Pr1 Tags : 196608 num_pr0 : 12288
 SAE Count : 0
 Inter-Core Inteference in Data Store : 54473443
Heartbeat CPU 6 instructions: 160000000 cycles: 132943840 heartbeat IPC: 1.24883 cumulative IPC: 1.20352 (Simulation time: 11 hr 35 min 49 sec) 
 Total Blocks : 196608 Invalid Blocks : 0 Valid Blocks : 196608
 Total Tags : 491520 Threshold : 12288 Invalid Tags : 196608 Pr0 Tags : 98304 Pr1 Tags : 196608 num_pr0 : 12288
 SAE Count : 0
 Inter-Core Inteference in Data Store : 54485843
Heartbeat CPU 7 instructions: 160000000 cycles: 132968374 heartbeat IPC: 1.24862 cumulative IPC: 1.20329 (Simulation time: 11 hr 35 min 57 sec) 
 Total Blocks : 196608 Invalid Blocks : 0 Valid Blocks : 196608
 Total Tags : 491520 Threshold : 12288 Invalid Tags : 196608 Pr0 Tags : 98304 Pr1 Tags : 196608 num_pr0 : 12288
 SAE Count : 0
 Inter-Core Inteference in Data Store : 54496079
Heartbeat CPU 0 instructions: 170000000 cycles: 140652723 heartbeat IPC: 1.26078 cumulative IPC: 1.20865 (Simulation time: 12 hr 24 min 28 sec) 
 Total Blocks : 196608 Invalid Blocks : 0 Valid Blocks : 196608
 Total Tags : 491520 Threshold : 12288 Invalid Tags : 196608 Pr0 Tags : 98304 Pr1 Tags : 196608 num_pr0 : 12288
 SAE Count : 0
 Inter-Core Inteference in Data Store : 58516530
Heartbeat CPU 1 instructions: 170000000 cycles: 140710957 heartbeat IPC: 1.26007 cumulative IPC: 1.20815 (Simulation time: 12 hr 24 min 51 sec) 
 Total Blocks : 196608 Invalid Blocks : 0 Valid Blocks : 196608
 Total Tags : 491520 Threshold : 12288 Invalid Tags : 196608 Pr0 Tags : 98304 Pr1 Tags : 196608 num_pr0 : 12288
 SAE Count : 0
 Inter-Core Inteference in Data Store : 58549737
Heartbeat CPU 2 instructions: 170000000 cycles: 140753474 heartbeat IPC: 1.25972 cumulative IPC: 1.20779 (Simulation time: 12 hr 25 min 9 sec) 
 Total Blocks : 196608 Invalid Blocks : 0 Valid Blocks : 196608
 Total Tags : 491520 Threshold : 12288 Invalid Tags : 196608 Pr0 Tags : 98304 Pr1 Tags : 196608 num_pr0 : 12288
 SAE Count : 0
 Inter-Core Inteference in Data Store : 58573292
Heartbeat CPU 3 instructions: 170000000 cycles: 140793788 heartbeat IPC: 1.25914 cumulative IPC: 1.20744 (Simulation time: 12 hr 25 min 23 sec) 
 Total Blocks : 196608 Invalid Blocks : 0 Valid Blocks : 196608
 Total Tags : 491520 Threshold : 12288 Invalid Tags : 196608 Pr0 Tags : 98304 Pr1 Tags : 196608 num_pr0 : 12288
 SAE Count : 0
 Inter-Core Inteference in Data Store : 58594948
Heartbeat CPU 4 instructions: 170000000 cycles: 140827291 heartbeat IPC: 1.25893 cumulative IPC: 1.20715 (Simulation time: 12 hr 25 min 35 sec) 
 Total Blocks : 196608 Invalid Blocks : 0 Valid Blocks : 196608
 Total Tags : 491520 Threshold : 12288 Invalid Tags : 196608 Pr0 Tags : 98304 Pr1 Tags : 196608 num_pr0 : 12288
 SAE Count : 0
 Inter-Core Inteference in Data Store : 58613075
Heartbeat CPU 5 instructions: 170000000 cycles: 140860997 heartbeat IPC: 1.25841 cumulative IPC: 1.20686 (Simulation time: 12 hr 25 min 48 sec) 
 Total Blocks : 196608 Invalid Blocks : 0 Valid Blocks : 196608
 Total Tags : 491520 Threshold : 12288 Invalid Tags : 196608 Pr0 Tags : 98304 Pr1 Tags : 196608 num_pr0 : 12288
 SAE Count : 0
 Inter-Core Inteference in Data Store : 58631134
Heartbeat CPU 6 instructions: 170000000 cycles: 140892210 heartbeat IPC: 1.25812 cumulative IPC: 1.2066 (Simulation time: 12 hr 25 min 58 sec) 
 Total Blocks : 196608 Invalid Blocks : 0 Valid Blocks : 196608
 Total Tags : 491520 Threshold : 12288 Invalid Tags : 196608 Pr0 Tags : 98304 Pr1 Tags : 196608 num_pr0 : 12288
 SAE Count : 0
 Inter-Core Inteference in Data Store : 58645992
Heartbeat CPU 7 instructions: 170000000 cycles: 140917997 heartbeat IPC: 1.25792 cumulative IPC: 1.20638 (Simulation time: 12 hr 26 min 6 sec) 
 Total Blocks : 196608 Invalid Blocks : 0 Valid Blocks : 196608
 Total Tags : 491520 Threshold : 12288 Invalid Tags : 196608 Pr0 Tags : 98304 Pr1 Tags : 196608 num_pr0 : 12288
 SAE Count : 0
 Inter-Core Inteference in Data Store : 58658713
Heartbeat CPU 0 instructions: 180000001 cycles: 148702783 heartbeat IPC: 1.24223 cumulative IPC: 1.21047 (Simulation time: 13 hr 16 min 19 sec) 
 Total Blocks : 196608 Invalid Blocks : 0 Valid Blocks : 196608
 Total Tags : 491520 Threshold : 12288 Invalid Tags : 196608 Pr0 Tags : 98304 Pr1 Tags : 196608 num_pr0 : 12288
 SAE Count : 0
 Inter-Core Inteference in Data Store : 62788295
Heartbeat CPU 1 instructions: 180000001 cycles: 148764863 heartbeat IPC: 1.24163 cumulative IPC: 1.20996 (Simulation time: 13 hr 16 min 42 sec) 
 Total Blocks : 196608 Invalid Blocks : 0 Valid Blocks : 196608
 Total Tags : 491520 Threshold : 12288 Invalid Tags : 196608 Pr0 Tags : 98304 Pr1 Tags : 196608 num_pr0 : 12288
 SAE Count : 0
 Inter-Core Inteference in Data Store : 62823793
Heartbeat CPU 2 instructions: 180000000 cycles: 148810837 heartbeat IPC: 1.2411 cumulative IPC: 1.20959 (Simulation time: 13 hr 17 min 3 sec) 
 Total Blocks : 196608 Invalid Blocks : 0 Valid Blocks : 196608
 Total Tags : 491520 Threshold : 12288 Invalid Tags : 196608 Pr0 Tags : 98304 Pr1 Tags : 196608 num_pr0 : 12288
 SAE Count : 0
 Inter-Core Inteference in Data Store : 62850711
Heartbeat CPU 3 instructions: 180000000 cycles: 148853679 heartbeat IPC: 1.24071 cumulative IPC: 1.20924 (Simulation time: 13 hr 17 min 23 sec) 
 Total Blocks : 196608 Invalid Blocks : 0 Valid Blocks : 196608
 Total Tags : 491520 Threshold : 12288 Invalid Tags : 196608 Pr0 Tags : 98304 Pr1 Tags : 196608 num_pr0 : 12288
 SAE Count : 0
 Inter-Core Inteference in Data Store : 62877173
Heartbeat CPU 4 instructions: 180000001 cycles: 148889158 heartbeat IPC: 1.24041 cumulative IPC: 1.20895 (Simulation time: 13 hr 17 min 39 sec) 
 Total Blocks : 196608 Invalid Blocks : 0 Valid Blocks : 196608
 Total Tags : 491520 Threshold : 12288 Invalid Tags : 196608 Pr0 Tags : 98304 Pr1 Tags : 196608 num_pr0 : 12288
 SAE Count : 0
 Inter-Core Inteference in Data Store : 62898727
Heartbeat CPU 5 instructions: 180000001 cycles: 148925576 heartbeat IPC: 1.23999 cumulative IPC: 1.20866 (Simulation time: 13 hr 17 min 53 sec) 
 Total Blocks : 196608 Invalid Blocks : 0 Valid Blocks : 196608
 Total Tags : 491520 Threshold : 12288 Invalid Tags : 196608 Pr0 Tags : 98304 Pr1 Tags : 196608 num_pr0 : 12288
 SAE Count : 0
 Inter-Core Inteference in Data Store : 62920035
Heartbeat CPU 6 instructions: 180000001 cycles: 148958934 heartbeat IPC: 1.23966 cumulative IPC: 1.20839 (Simulation time: 13 hr 18 min 7 sec) 
 Total Blocks : 196608 Invalid Blocks : 0 Valid Blocks : 196608
 Total Tags : 491520 Threshold : 12288 Invalid Tags : 196608 Pr0 Tags : 98304 Pr1 Tags : 196608 num_pr0 : 12288
 SAE Count : 0
 Inter-Core Inteference in Data Store : 62939759
Heartbeat CPU 7 instructions: 180000000 cycles: 148986303 heartbeat IPC: 1.23942 cumulative IPC: 1.20816 (Simulation time: 13 hr 18 min 19 sec) 
 Total Blocks : 196608 Invalid Blocks : 0 Valid Blocks : 196608
 Total Tags : 491520 Threshold : 12288 Invalid Tags : 196608 Pr0 Tags : 98304 Pr1 Tags : 196608 num_pr0 : 12288
 SAE Count : 0
 Inter-Core Inteference in Data Store : 62956257
Heartbeat CPU 0 instructions: 190000002 cycles: 156569369 heartbeat IPC: 1.2712 cumulative IPC: 1.21352 (Simulation time: 14 hr 6 min 38 sec) 
 Total Blocks : 196608 Invalid Blocks : 0 Valid Blocks : 196608
 Total Tags : 491520 Threshold : 12288 Invalid Tags : 196608 Pr0 Tags : 98304 Pr1 Tags : 196608 num_pr0 : 12288
 SAE Count : 0
 Inter-Core Inteference in Data Store : 66821578
Heartbeat CPU 1 instructions: 190000002 cycles: 156635723 heartbeat IPC: 1.27051 cumulative IPC: 1.21301 (Simulation time: 14 hr 7 min 4 sec) 
 Total Blocks : 196608 Invalid Blocks : 0 Valid Blocks : 196608
 Total Tags : 491520 Threshold : 12288 Invalid Tags : 196608 Pr0 Tags : 98304 Pr1 Tags : 196608 num_pr0 : 12288
 SAE Count : 0
 Inter-Core Inteference in Data Store : 66858167
Heartbeat CPU 2 instructions: 190000002 cycles: 156684264 heartbeat IPC: 1.2701 cumulative IPC: 1.21263 (Simulation time: 14 hr 7 min 23 sec) 
 Total Blocks : 196608 Invalid Blocks : 0 Valid Blocks : 196608
 Total Tags : 491520 Threshold : 12288 Invalid Tags : 196608 Pr0 Tags : 98304 Pr1 Tags : 196608 num_pr0 : 12288
 SAE Count : 0
 Inter-Core Inteference in Data Store : 66884462
Heartbeat CPU 3 instructions: 190000002 cycles: 156729793 heartbeat IPC: 1.26966 cumulative IPC: 1.21228 (Simulation time: 14 hr 7 min 40 sec) 
 Total Blocks : 196608 Invalid Blocks : 0 Valid Blocks : 196608
 Total Tags : 491520 Threshold : 12288 Invalid Tags : 196608 Pr0 Tags : 98304 Pr1 Tags : 196608 num_pr0 : 12288
 SAE Count : 0
 Inter-Core Inteference in Data Store : 66908635
Heartbeat CPU 4 instructions: 190000002 cycles: 156767602 heartbeat IPC: 1.26929 cumulative IPC: 1.21199 (Simulation time: 14 hr 7 min 57 sec) 
 Total Blocks : 196608 Invalid Blocks : 0 Valid Blocks : 196608
 Total Tags : 491520 Threshold : 12288 Invalid Tags : 196608 Pr0 Tags : 98304 Pr1 Tags : 196608 num_pr0 : 12288
 SAE Count : 0
 Inter-Core Inteference in Data Store : 66929699
Heartbeat CPU 5 instructions: 190000002 cycles: 156806323 heartbeat IPC: 1.26892 cumulative IPC: 1.21169 (Simulation time: 14 hr 8 min 11 sec) 
 Total Blocks : 196608 Invalid Blocks : 0 Valid Blocks : 196608
 Total Tags : 491520 Threshold : 12288 Invalid Tags : 196608 Pr0 Tags : 98304 Pr1 Tags : 196608 num_pr0 : 12288
 SAE Count : 0
 Inter-Core Inteference in Data Store : 66949127
Heartbeat CPU 6 instructions: 190000003 cycles: 156841859 heartbeat IPC: 1.26856 cumulative IPC: 1.21141 (Simulation time: 14 hr 8 min 27 sec) 
 Total Blocks : 196608 Invalid Blocks : 0 Valid Blocks : 196608
 Total Tags : 491520 Threshold : 12288 Invalid Tags : 196608 Pr0 Tags : 98304 Pr1 Tags : 196608 num_pr0 : 12288
 SAE Count : 0
 Inter-Core Inteference in Data Store : 66966274
Heartbeat CPU 7 instructions: 190000002 cycles: 156870513 heartbeat IPC: 1.26836 cumulative IPC: 1.21119 (Simulation time: 14 hr 8 min 38 sec) 
 Total Blocks : 196608 Invalid Blocks : 0 Valid Blocks : 196608
 Total Tags : 491520 Threshold : 12288 Invalid Tags : 196608 Pr0 Tags : 98304 Pr1 Tags : 196608 num_pr0 : 12288
 SAE Count : 0
 Inter-Core Inteference in Data Store : 66980998
Heartbeat CPU 0 instructions: 200000002 cycles: 164445210 heartbeat IPC: 1.26971 cumulative IPC: 1.21621 (Simulation time: 14 hr 55 min 56 sec) 
 Total Blocks : 196608 Invalid Blocks : 0 Valid Blocks : 196608
 Total Tags : 491520 Threshold : 12288 Invalid Tags : 196608 Pr0 Tags : 98304 Pr1 Tags : 196608 num_pr0 : 12288
 SAE Count : 0
 Inter-Core Inteference in Data Store : 71066326
Heartbeat CPU 1 instructions: 200000001 cycles: 164515105 heartbeat IPC: 1.26913 cumulative IPC: 1.21569 (Simulation time: 14 hr 56 min 19 sec) 
 Total Blocks : 196608 Invalid Blocks : 0 Valid Blocks : 196608
 Total Tags : 491520 Threshold : 12288 Invalid Tags : 196608 Pr0 Tags : 98304 Pr1 Tags : 196608 num_pr0 : 12288
 SAE Count : 0
 Inter-Core Inteference in Data Store : 71105375
Heartbeat CPU 2 instructions: 200000001 cycles: 164565850 heartbeat IPC: 1.26878 cumulative IPC: 1.21532 (Simulation time: 14 hr 56 min 38 sec) 
 Total Blocks : 196608 Invalid Blocks : 0 Valid Blocks : 196608
 Total Tags : 491520 Threshold : 12288 Invalid Tags : 196608 Pr0 Tags : 98304 Pr1 Tags : 196608 num_pr0 : 12288
 SAE Count : 0
 Inter-Core Inteference in Data Store : 71132958
Heartbeat CPU 3 instructions: 200000001 cycles: 164614663 heartbeat IPC: 1.26825 cumulative IPC: 1.21496 (Simulation time: 14 hr 56 min 53 sec) 
 Total Blocks : 196608 Invalid Blocks : 0 Valid Blocks : 196608
 Total Tags : 491520 Threshold : 12288 Invalid Tags : 196608 Pr0 Tags : 98304 Pr1 Tags : 196608 num_pr0 : 12288
 SAE Count : 0
 Inter-Core Inteference in Data Store : 71157718
Heartbeat CPU 4 instructions: 200000002 cycles: 164654964 heartbeat IPC: 1.26785 cumulative IPC: 1.21466 (Simulation time: 14 hr 57 min 6 sec) 
 Total Blocks : 196608 Invalid Blocks : 0 Valid Blocks : 196608
 Total Tags : 491520 Threshold : 12288 Invalid Tags : 196608 Pr0 Tags : 98304 Pr1 Tags : 196608 num_pr0 : 12288
 SAE Count : 0
 Inter-Core Inteference in Data Store : 71178712
Heartbeat CPU 5 instructions: 200000001 cycles: 164695834 heartbeat IPC: 1.26751 cumulative IPC: 1.21436 (Simulation time: 14 hr 57 min 21 sec) 
 Total Blocks : 196608 Invalid Blocks : 0 Valid Blocks : 196608
 Total Tags : 491520 Threshold : 12288 Invalid Tags : 196608 Pr0 Tags : 98304 Pr1 Tags : 196608 num_pr0 : 12288
 SAE Count : 0
 Inter-Core Inteference in Data Store : 71199663
Heartbeat CPU 6 instructions: 200000001 cycles: 164733181 heartbeat IPC: 1.26721 cumulative IPC: 1.21408 (Simulation time: 14 hr 57 min 34 sec) 
 Total Blocks : 196608 Invalid Blocks : 0 Valid Blocks : 196608
 Total Tags : 491520 Threshold : 12288 Invalid Tags : 196608 Pr0 Tags : 98304 Pr1 Tags : 196608 num_pr0 : 12288
 SAE Count : 0
 Inter-Core Inteference in Data Store : 71218332
Heartbeat CPU 7 instructions: 200000001 cycles: 164764380 heartbeat IPC: 1.26681 cumulative IPC: 1.21385 (Simulation time: 14 hr 57 min 44 sec) 
 Total Blocks : 196608 Invalid Blocks : 0 Valid Blocks : 196608
 Total Tags : 491520 Threshold : 12288 Invalid Tags : 196608 Pr0 Tags : 98304 Pr1 Tags : 196608 num_pr0 : 12288
 SAE Count : 0
 Inter-Core Inteference in Data Store : 71233260

Warmup complete CPU 0 instructions: 200351132 cycles: 164764380 (Simulation time: 14 hr 57 min 44 sec) 
Warmup complete CPU 1 instructions: 200283574 cycles: 164764380 (Simulation time: 14 hr 57 min 44 sec) 
Warmup complete CPU 2 instructions: 200193604 cycles: 164764380 (Simulation time: 14 hr 57 min 44 sec) 
Warmup complete CPU 3 instructions: 200144260 cycles: 164764380 (Simulation time: 14 hr 57 min 44 sec) 
Warmup complete CPU 4 instructions: 200103631 cycles: 164764380 (Simulation time: 14 hr 57 min 44 sec) 
Warmup complete CPU 5 instructions: 200065475 cycles: 164764380 (Simulation time: 14 hr 57 min 44 sec) 
Warmup complete CPU 6 instructions: 200034692 cycles: 164764380 (Simulation time: 14 hr 57 min 44 sec) 
Warmup complete CPU 7 instructions: 200000001 cycles: 164764380 (Simulation time: 14 hr 57 min 44 sec) 

Heartbeat CPU 0 instructions: 210000002 cycles: 288891505 heartbeat IPC: 0.0803559 cumulative IPC: 0.0777338 (Simulation time: 16 hr 47 min 59 sec) 
 Total Blocks : 196608 Invalid Blocks : 0 Valid Blocks : 196608
 Total Tags : 491520 Threshold : 12288 Invalid Tags : 196608 Pr0 Tags : 98304 Pr1 Tags : 196608 num_pr0 : 12288
 SAE Count : 0
 Inter-Core Inteference in Data Store : 3922620
Heartbeat CPU 1 instructions: 210000002 cycles: 289936751 heartbeat IPC: 0.0797311 cumulative IPC: 0.0776244 (Simulation time: 16 hr 48 min 44 sec) 
 Total Blocks : 196608 Invalid Blocks : 0 Valid Blocks : 196608
 Total Tags : 491520 Threshold : 12288 Invalid Tags : 196608 Pr0 Tags : 98304 Pr1 Tags : 196608 num_pr0 : 12288
 SAE Count : 0
 Inter-Core Inteference in Data Store : 3957707
Heartbeat CPU 2 instructions: 210000002 cycles: 290435505 heartbeat IPC: 0.0794473 cumulative IPC: 0.0780322 (Simulation time: 16 hr 49 min 5 sec) 
 Total Blocks : 196608 Invalid Blocks : 0 Valid Blocks : 196608
 Total Tags : 491520 Threshold : 12288 Invalid Tags : 196608 Pr0 Tags : 98304 Pr1 Tags : 196608 num_pr0 : 12288
 SAE Count : 0
 Inter-Core Inteference in Data Store : 3974536
Heartbeat CPU 3 instructions: 210000002 cycles: 291114031 heartbeat IPC: 0.0790518 cumulative IPC: 0.0780037 (Simulation time: 16 hr 49 min 41 sec) 
 Total Blocks : 196608 Invalid Blocks : 0 Valid Blocks : 196608
 Total Tags : 491520 Threshold : 12288 Invalid Tags : 196608 Pr0 Tags : 98304 Pr1 Tags : 196608 num_pr0 : 12288
 SAE Count : 0
 Inter-Core Inteference in Data Store : 3997772
Heartbeat CPU 4 instructions: 210000002 cycles: 291980648 heartbeat IPC: 0.0785388 cumulative IPC: 0.0777917 (Simulation time: 16 hr 50 min 28 sec) 
 Total Blocks : 196608 Invalid Blocks : 0 Valid Blocks : 196608
 Total Tags : 491520 Threshold : 12288 Invalid Tags : 196608 Pr0 Tags : 98304 Pr1 Tags : 196608 num_pr0 : 12288
 SAE Count : 0
 Inter-Core Inteference in Data Store : 4027585
Heartbeat CPU 5 instructions: 210000002 cycles: 292955164 heartbeat IPC: 0.077967 cumulative IPC: 0.077498 (Simulation time: 16 hr 51 min 16 sec) 
 Total Blocks : 196608 Invalid Blocks : 0 Valid Blocks : 196608
 Total Tags : 491520 Threshold : 12288 Invalid Tags : 196608 Pr0 Tags : 98304 Pr1 Tags : 196608 num_pr0 : 12288
 SAE Count : 0
 Inter-Core Inteference in Data Store : 4060728
Heartbeat CPU 6 instructions: 210000002 cycles: 293244616 heartbeat IPC: 0.0778141 cumulative IPC: 0.077563 (Simulation time: 16 hr 51 min 29 sec) 
 Total Blocks : 196608 Invalid Blocks : 0 Valid Blocks : 196608
 Total Tags : 491520 Threshold : 12288 Invalid Tags : 196608 Pr0 Tags : 98304 Pr1 Tags : 196608 num_pr0 : 12288
 SAE Count : 0
 Inter-Core Inteference in Data Store : 4070599
Heartbeat CPU 7 instructions: 210000002 cycles: 293777138 heartbeat IPC: 0.0775117 cumulative IPC: 0.0775117 (Simulation time: 16 hr 51 min 53 sec) 
 Total Blocks : 196608 Invalid Blocks : 0 Valid Blocks : 196608
 Total Tags : 491520 Threshold : 12288 Invalid Tags : 196608 Pr0 Tags : 98304 Pr1 Tags : 196608 num_pr0 : 12288
 SAE Count : 0
 Inter-Core Inteference in Data Store : 4088692
Heartbeat CPU 0 instructions: 220000000 cycles: 416929594 heartbeat IPC: 0.0781017 cumulative IPC: 0.0779206 (Simulation time: 18 hr 38 min 54 sec) 
 Total Blocks : 196608 Invalid Blocks : 0 Valid Blocks : 196608
 Total Tags : 491520 Threshold : 12288 Invalid Tags : 196608 Pr0 Tags : 98304 Pr1 Tags : 196608 num_pr0 : 12288
 SAE Count : 0
 Inter-Core Inteference in Data Store : 8093853
Heartbeat CPU 1 instructions: 220000000 cycles: 417817320 heartbeat IPC: 0.0781979 cumulative IPC: 0.0779142 (Simulation time: 18 hr 39 min 42 sec) 
 Total Blocks : 196608 Invalid Blocks : 0 Valid Blocks : 196608
 Total Tags : 491520 Threshold : 12288 Invalid Tags : 196608 Pr0 Tags : 98304 Pr1 Tags : 196608 num_pr0 : 12288
 SAE Count : 0
 Inter-Core Inteference in Data Store : 8124003
Heartbeat CPU 2 instructions: 220000000 cycles: 418295855 heartbeat IPC: 0.0782103 cumulative IPC: 0.078122 (Simulation time: 18 hr 40 min 6 sec) 
 Total Blocks : 196608 Invalid Blocks : 0 Valid Blocks : 196608
 Total Tags : 491520 Threshold : 12288 Invalid Tags : 196608 Pr0 Tags : 98304 Pr1 Tags : 196608 num_pr0 : 12288
 SAE Count : 0
 Inter-Core Inteference in Data Store : 8140154
Heartbeat CPU 3 instructions: 220000000 cycles: 419220019 heartbeat IPC: 0.0780604 cumulative IPC: 0.0780322 (Simulation time: 18 hr 40 min 54 sec) 
 Total Blocks : 196608 Invalid Blocks : 0 Valid Blocks : 196608
 Total Tags : 491520 Threshold : 12288 Invalid Tags : 196608 Pr0 Tags : 98304 Pr1 Tags : 196608 num_pr0 : 12288
 SAE Count : 0
 Inter-Core Inteference in Data Store : 8171643
Heartbeat CPU 4 instructions: 220000000 cycles: 420064024 heartbeat IPC: 0.0780741 cumulative IPC: 0.0779334 (Simulation time: 18 hr 41 min 37 sec) 
 Total Blocks : 196608 Invalid Blocks : 0 Valid Blocks : 196608
 Total Tags : 491520 Threshold : 12288 Invalid Tags : 196608 Pr0 Tags : 98304 Pr1 Tags : 196608 num_pr0 : 12288
 SAE Count : 0
 Inter-Core Inteference in Data Store : 8200513
Heartbeat CPU 5 instructions: 220000000 cycles: 420935516 heartbeat IPC: 0.078137 cumulative IPC: 0.0778172 (Simulation time: 18 hr 42 min 15 sec) 
 Total Blocks : 196608 Invalid Blocks : 0 Valid Blocks : 196608
 Total Tags : 491520 Threshold : 12288 Invalid Tags : 196608 Pr0 Tags : 98304 Pr1 Tags : 196608 num_pr0 : 12288
 SAE Count : 0
 Inter-Core Inteference in Data Store : 8229992
Heartbeat CPU 6 instructions: 220000000 cycles: 421298793 heartbeat IPC: 0.0780919 cumulative IPC: 0.077827 (Simulation time: 18 hr 42 min 34 sec) 
 Total Blocks : 196608 Invalid Blocks : 0 Valid Blocks : 196608
 Total Tags : 491520 Threshold : 12288 Invalid Tags : 196608 Pr0 Tags : 98304 Pr1 Tags : 196608 num_pr0 : 12288
 SAE Count : 0
 Inter-Core Inteference in Data Store : 8242247
Heartbeat CPU 7 instructions: 220000000 cycles: 421668340 heartbeat IPC: 0.0781914 cumulative IPC: 0.0778501 (Simulation time: 18 hr 42 min 52 sec) 
 Total Blocks : 196608 Invalid Blocks : 0 Valid Blocks : 196608
 Total Tags : 491520 Threshold : 12288 Invalid Tags : 196608 Pr0 Tags : 98304 Pr1 Tags : 196608 num_pr0 : 12288
 SAE Count : 0
 Inter-Core Inteference in Data Store : 8254768
Heartbeat CPU 0 instructions: 230000000 cycles: 545151100 heartbeat IPC: 0.07799 cumulative IPC: 0.077944 (Simulation time: 20 hr 24 min 12 sec) 
 Total Blocks : 196608 Invalid Blocks : 0 Valid Blocks : 196608
 Total Tags : 491520 Threshold : 12288 Invalid Tags : 196608 Pr0 Tags : 98304 Pr1 Tags : 196608 num_pr0 : 12288
 SAE Count : 0
 Inter-Core Inteference in Data Store : 12294165
Heartbeat CPU 1 instructions: 230000000 cycles: 546224898 heartbeat IPC: 0.077877 cumulative IPC: 0.0779017 (Simulation time: 20 hr 25 min 13 sec) 
 Total Blocks : 196608 Invalid Blocks : 0 Valid Blocks : 196608
 Total Tags : 491520 Threshold : 12288 Invalid Tags : 196608 Pr0 Tags : 98304 Pr1 Tags : 196608 num_pr0 : 12288
 SAE Count : 0
 Inter-Core Inteference in Data Store : 12317105
Heartbeat CPU 2 instructions: 230000000 cycles: 546732171 heartbeat IPC: 0.0778596 cumulative IPC: 0.0780338 (Simulation time: 20 hr 25 min 38 sec) 
 Total Blocks : 196608 Invalid Blocks : 0 Valid Blocks : 196608
 Total Tags : 491520 Threshold : 12288 Invalid Tags : 196608 Pr0 Tags : 98304 Pr1 Tags : 196608 num_pr0 : 12288
 SAE Count : 0
 Inter-Core Inteference in Data Store : 12328570
Heartbeat CPU 3 instructions: 230000000 cycles: 547447603 heartbeat IPC: 0.0779863 cumulative IPC: 0.0780168 (Simulation time: 20 hr 26 min 17 sec) 
 Total Blocks : 196608 Invalid Blocks : 0 Valid Blocks : 196608
 Total Tags : 491520 Threshold : 12288 Invalid Tags : 196608 Pr0 Tags : 98304 Pr1 Tags : 196608 num_pr0 : 12288
 SAE Count : 0
 Inter-Core Inteference in Data Store : 12346851
Heartbeat CPU 4 instructions: 230000000 cycles: 548031600 heartbeat IPC: 0.0781448 cumulative IPC: 0.078004 (Simulation time: 20 hr 26 min 50 sec) 
 Total Blocks : 196608 Invalid Blocks : 0 Valid Blocks : 196608
 Total Tags : 491520 Threshold : 12288 Invalid Tags : 196608 Pr0 Tags : 98304 Pr1 Tags : 196608 num_pr0 : 12288
 SAE Count : 0
 Inter-Core Inteference in Data Store : 12361686
Heartbeat CPU 5 instructions: 230000000 cycles: 548668947 heartbeat IPC: 0.078288 cumulative IPC: 0.0779739 (Simulation time: 20 hr 27 min 25 sec) 
 Total Blocks : 196608 Invalid Blocks : 0 Valid Blocks : 196608
 Total Tags : 491520 Threshold : 12288 Invalid Tags : 196608 Pr0 Tags : 98304 Pr1 Tags : 196608 num_pr0 : 12288
 SAE Count : 0
 Inter-Core Inteference in Data Store : 12381274
Heartbeat CPU 6 instructions: 230000000 cycles: 549773094 heartbeat IPC: 0.0778366 cumulative IPC: 0.0778302 (Simulation time: 20 hr 28 min 28 sec) 
 Total Blocks : 196608 Invalid Blocks : 0 Valid Blocks : 196608
 Total Tags : 491520 Threshold : 12288 Invalid Tags : 196608 Pr0 Tags : 98304 Pr1 Tags : 196608 num_pr0 : 12288
 SAE Count : 0
 Inter-Core Inteference in Data Store : 12417334
Heartbeat CPU 7 instructions: 230000000 cycles: 550053244 heartbeat IPC: 0.0778908 cumulative IPC: 0.0778637 (Simulation time: 20 hr 28 min 42 sec) 
 Total Blocks : 196608 Invalid Blocks : 0 Valid Blocks : 196608
 Total Tags : 491520 Threshold : 12288 Invalid Tags : 196608 Pr0 Tags : 98304 Pr1 Tags : 196608 num_pr0 : 12288
 SAE Count : 0
 Inter-Core Inteference in Data Store : 12426377
Heartbeat CPU 0 instructions: 240000001 cycles: 673497905 heartbeat IPC: 0.0779139 cumulative IPC: 0.0779364 (Simulation time: 22 hr 10 min 37 sec) 
 Total Blocks : 196608 Invalid Blocks : 0 Valid Blocks : 196608
 Total Tags : 491520 Threshold : 12288 Invalid Tags : 196608 Pr0 Tags : 98304 Pr1 Tags : 196608 num_pr0 : 12288
 SAE Count : 0
 Inter-Core Inteference in Data Store : 16403848
Heartbeat CPU 1 instructions: 240000000 cycles: 673952679 heartbeat IPC: 0.0782915 cumulative IPC: 0.0779995 (Simulation time: 22 hr 10 min 58 sec) 
 Total Blocks : 196608 Invalid Blocks : 0 Valid Blocks : 196608
 Total Tags : 491520 Threshold : 12288 Invalid Tags : 196608 Pr0 Tags : 98304 Pr1 Tags : 196608 num_pr0 : 12288
 SAE Count : 0
 Inter-Core Inteference in Data Store : 16418931
Heartbeat CPU 2 instructions: 240000000 cycles: 675074246 heartbeat IPC: 0.0779168 cumulative IPC: 0.0780044 (Simulation time: 22 hr 11 min 50 sec) 
 Total Blocks : 196608 Invalid Blocks : 0 Valid Blocks : 196608
 Total Tags : 491520 Threshold : 12288 Invalid Tags : 196608 Pr0 Tags : 98304 Pr1 Tags : 196608 num_pr0 : 12288
 SAE Count : 0
 Inter-Core Inteference in Data Store : 16455477
Heartbeat CPU 3 instructions: 240000000 cycles: 675604340 heartbeat IPC: 0.0780295 cumulative IPC: 0.07802 (Simulation time: 22 hr 12 min 16 sec) 
 Total Blocks : 196608 Invalid Blocks : 0 Valid Blocks : 196608
 Total Tags : 491520 Threshold : 12288 Invalid Tags : 196608 Pr0 Tags : 98304 Pr1 Tags : 196608 num_pr0 : 12288
 SAE Count : 0
 Inter-Core Inteference in Data Store : 16473170
Heartbeat CPU 4 instructions: 240000001 cycles: 676269790 heartbeat IPC: 0.0779799 cumulative IPC: 0.0779979 (Simulation time: 22 hr 12 min 49 sec) 
 Total Blocks : 196608 Invalid Blocks : 0 Valid Blocks : 196608
 Total Tags : 491520 Threshold : 12288 Invalid Tags : 196608 Pr0 Tags : 98304 Pr1 Tags : 196608 num_pr0 : 12288
 SAE Count : 0
 Inter-Core Inteference in Data Store : 16495169
Heartbeat CPU 5 instructions: 240000001 cycles: 676699722 heartbeat IPC: 0.0781062 cumulative IPC: 0.078007 (Simulation time: 22 hr 13 min 9 sec) 
 Total Blocks : 196608 Invalid Blocks : 0 Valid Blocks : 196608
 Total Tags : 491520 Threshold : 12288 Invalid Tags : 196608 Pr0 Tags : 98304 Pr1 Tags : 196608 num_pr0 : 12288
 SAE Count : 0
 Inter-Core Inteference in Data Store : 16509072
Heartbeat CPU 6 instructions: 240000000 cycles: 677566737 heartbeat IPC: 0.0782512 cumulative IPC: 0.0779351 (Simulation time: 22 hr 13 min 51 sec) 
 Total Blocks : 196608 Invalid Blocks : 0 Valid Blocks : 196608
 Total Tags : 491520 Threshold : 12288 Invalid Tags : 196608 Pr0 Tags : 98304 Pr1 Tags : 196608 num_pr0 : 12288
 SAE Count : 0
 Inter-Core Inteference in Data Store : 16537135
Heartbeat CPU 7 instructions: 240000001 cycles: 678345860 heartbeat IPC: 0.0779468 cumulative IPC: 0.0778844 (Simulation time: 22 hr 14 min 27 sec) 
 Total Blocks : 196608 Invalid Blocks : 0 Valid Blocks : 196608
 Total Tags : 491520 Threshold : 12288 Invalid Tags : 196608 Pr0 Tags : 98304 Pr1 Tags : 196608 num_pr0 : 12288
 SAE Count : 0
 Inter-Core Inteference in Data Store : 16562649
Heartbeat CPU 0 instructions: 250000002 cycles: 800443616 heartbeat IPC: 0.0787738 cumulative IPC: 0.0781037 (Simulation time: 23 hr 54 min 16 sec) 
 Total Blocks : 196608 Invalid Blocks : 0 Valid Blocks : 196608
 Total Tags : 491520 Threshold : 12288 Invalid Tags : 196608 Pr0 Tags : 98304 Pr1 Tags : 196608 num_pr0 : 12288
 SAE Count : 0
 Inter-Core Inteference in Data Store : 20519937
Heartbeat CPU 1 instructions: 250000002 cycles: 801459227 heartbeat IPC: 0.0784274 cumulative IPC: 0.0780852 (Simulation time: 23 hr 55 min 5 sec) 
 Total Blocks : 196608 Invalid Blocks : 0 Valid Blocks : 196608
 Total Tags : 491520 Threshold : 12288 Invalid Tags : 196608 Pr0 Tags : 98304 Pr1 Tags : 196608 num_pr0 : 12288
 SAE Count : 0
 Inter-Core Inteference in Data Store : 20550820
Heartbeat CPU 2 instructions: 250000000 cycles: 802303370 heartbeat IPC: 0.0785984 cumulative IPC: 0.0781229 (Simulation time: 23 hr 55 min 50 sec) 
 Total Blocks : 196608 Invalid Blocks : 0 Valid Blocks : 196608
 Total Tags : 491520 Threshold : 12288 Invalid Tags : 196608 Pr0 Tags : 98304 Pr1 Tags : 196608 num_pr0 : 12288
 SAE Count : 0
 Inter-Core Inteference in Data Store : 20574395
Heartbeat CPU 3 instructions: 250000002 cycles: 803129993 heartbeat IPC: 0.0784156 cumulative IPC: 0.078099 (Simulation time: 23 hr 56 min 30 sec) 
 Total Blocks : 196608 Invalid Blocks : 0 Valid Blocks : 196608
 Total Tags : 491520 Threshold : 12288 Invalid Tags : 196608 Pr0 Tags : 98304 Pr1 Tags : 196608 num_pr0 : 12288
 SAE Count : 0
 Inter-Core Inteference in Data Store : 20596305
Heartbeat CPU 4 instructions: 250000000 cycles: 803602629 heartbeat IPC: 0.0785343 cumulative IPC: 0.0781049 (Simulation time: 23 hr 56 min 52 sec) 
 Total Blocks : 196608 Invalid Blocks : 0 Valid Blocks : 196608
 Total Tags : 491520 Threshold : 12288 Invalid Tags : 196608 Pr0 Tags : 98304 Pr1 Tags : 196608 num_pr0 : 12288
 SAE Count : 0
 Inter-Core Inteference in Data Store : 20608498
Heartbeat CPU 5 instructions: 250000002 cycles: 804323110 heartbeat IPC: 0.0783556 cumulative IPC: 0.0780765 (Simulation time: 23 hr 57 min 27 sec) 
 Total Blocks : 196608 Invalid Blocks : 0 Valid Blocks : 196608
 Total Tags : 491520 Threshold : 12288 Invalid Tags : 196608 Pr0 Tags : 98304 Pr1 Tags : 196608 num_pr0 : 12288
 SAE Count : 0
 Inter-Core Inteference in Data Store : 20626881
[...]
LLC4 LOAD      ACCESS: 1759311  HIT: 933569  MISS: 825742  HIT %: 53.0645  MISS %: 46.9355  AVERAGE MISS PENALTY: 601.513
LLC4 RFO       ACCESS:     0  HIT:     0  MISS:     0  HIT %:     0  MISS %:     0  AVERAGE MISS PENALTY: 0
LLC4 PREFETCH  ACCESS: 7936839  HIT: 3911757  MISS: 4025082  HIT %: 49.2861  MISS %: 50.7139  AVERAGE MISS PENALTY: 613.922
LLC4 WRITEBACK ACCESS:  6987  HIT:  4483  MISS:  2504  HIT %: 64.162  MISS %: 35.838  AVERAGE MISS PENALTY: 0
LLC4 PREFETCH  REQUESTED:     0  ISSUED:     0  USEFUL: 2067570  USELESS: 7631145
 USEFUL LOAD PREFETCHES:    2067570 PREFETCH ISSUED TO LOWER LEVEL:  304876788  ACCURACY: 0.678166
 TIMELY PREFETCHES:    2067570 LATE PREFETCHES: 0 DROPPED PREFETCHES: 0
LLC4 AVERAGE MISS LATENCY: 611.494 cycles

LLC4 Set Associative Eviction Count : 0
LLC4 Priority 0 entries : 12288
LLC4 Inter-Core Interference : 10371091
LLC5 TOTAL     ACCESS: 9531133  HIT: 4779441  MISS: 4751692  HIT %: 50.1456  MISS %: 49.8544  AVERAGE MISS PENALTY: 575.645
LLC5 LOAD      ACCESS: 1740053  HIT: 922661  MISS: 817392  HIT %: 53.0249  MISS %: 46.9751  AVERAGE MISS PENALTY: 563.218
LLC5 RFO       ACCESS:     0  HIT:     0  MISS:     0  HIT %:     0  MISS %:     0  AVERAGE MISS PENALTY: 0
LLC5 PREFETCH  ACCESS: 7784208  HIT: 3852410  MISS: 3931798  HIT %: 49.4901  MISS %: 50.5099  AVERAGE MISS PENALTY: 578.595
LLC5 WRITEBACK ACCESS:  6872  HIT:  4370  MISS:  2502  HIT %: 63.5914  MISS %: 36.4086  AVERAGE MISS PENALTY: 0
LLC5 PREFETCH  REQUESTED:     0  ISSUED:     0  USEFUL: 2064946  USELESS: 7464336
 USEFUL LOAD PREFETCHES:    2064946 PREFETCH ISSUED TO LOWER LEVEL:  209121526  ACCURACY: 0.987438
 TIMELY PREFETCHES:    2064946 LATE PREFETCHES: 0 DROPPED PREFETCHES: 0
LLC5 AVERAGE MISS LATENCY: 575.645 cycles

LLC5 Set Associative Eviction Count : 0
LLC5 Priority 0 entries : 12288
LLC5 Inter-Core Interference : 10213933
LLC6 TOTAL     ACCESS: 9356443  HIT: 4734888  MISS: 4621555  HIT %: 50.6056  MISS %: 49.3944  AVERAGE MISS PENALTY: 606.486
LLC6 LOAD      ACCESS: 1723318  HIT: 904166  MISS: 819152  HIT %: 52.4666  MISS %: 47.5334  AVERAGE MISS PENALTY: 594.59
LLC6 RFO       ACCESS:     0  HIT:     0  MISS:     0  HIT %:     0  MISS %:     0  AVERAGE MISS PENALTY: 0
LLC6 PREFETCH  ACCESS: 7626086  HIT: 3826287  MISS: 3799799  HIT %: 50.1737  MISS %: 49.8263  AVERAGE MISS PENALTY: 609.466
LLC6 WRITEBACK ACCESS:  7039  HIT:  4435  MISS:  2604  HIT %: 63.0061  MISS %: 36.9939  AVERAGE MISS PENALTY: 0
LLC6 PREFETCH  REQUESTED:     0  ISSUED:     0  USEFUL: 2028865  USELESS: 7347113
 USEFUL LOAD PREFETCHES:    2028865 PREFETCH ISSUED TO LOWER LEVEL:  432707258  ACCURACY: 0.468877
 TIMELY PREFETCHES:    2028865 LATE PREFETCHES: 0 DROPPED PREFETCHES: 0
LLC6 AVERAGE MISS LATENCY: 606.486 cycles

LLC6 Set Associative Eviction Count : 0
LLC6 Priority 0 entries : 12288
LLC6 Inter-Core Interference : 10082349
LLC7 TOTAL     ACCESS: 9170326  HIT: 4714479  MISS: 4455847  HIT %: 51.4102  MISS %: 48.5898  AVERAGE MISS PENALTY: 574.367
LLC7 LOAD      ACCESS: 1724850  HIT: 922414  MISS: 802436  HIT %: 53.4779  MISS %: 46.5221  AVERAGE MISS PENALTY: 557.616
LLC7 RFO       ACCESS:     0  HIT:     0  MISS:     0  HIT %:     0  MISS %:     0  AVERAGE MISS PENALTY: 0
LLC7 PREFETCH  ACCESS: 7438539  HIT: 3787660  MISS: 3650879  HIT %: 50.9194  MISS %: 49.0806  AVERAGE MISS PENALTY: 578.447
LLC7 WRITEBACK ACCESS:  6937  HIT:  4405  MISS:  2532  HIT %: 63.5001  MISS %: 36.4999  AVERAGE MISS PENALTY: 0
LLC7 PREFETCH  REQUESTED:     0  ISSUED:     0  USEFUL: 1992609  USELESS: 7282545
 USEFUL LOAD PREFETCHES:    1992609 PREFETCH ISSUED TO LOWER LEVEL:  288689130  ACCURACY: 0.690227
 TIMELY PREFETCHES:    1992609 LATE PREFETCHES: 0 DROPPED PREFETCHES: 0
LLC7 AVERAGE MISS LATENCY: 574.367 cycles

LLC7 Set Associative Eviction Count : 0
LLC7 Priority 0 entries : 12288
LLC7 Inter-Core Interference : 9970399
ROI Average ROB Stall Cycles:	30.8426
ROI Total ROB Stalls Cycles:	2494815619
ROI TOTAL ROB counter      :	80888552
ROI Average Load ROB Stall Cycles:	232.818
ROI Total Load ROB Stalls Cycle  :	1553139142
ROI Total Load ROB stalls Counter:	6671043
Major fault: 0 Minor fault: 29443

CPU 7 cumulative IPC: 0.0778764 instructions: 200000000 cycles: 2568172390
ITLB TOTAL     ACCESS: 31288082  HIT: 31288082  MISS:     0  HIT %:   100  MISS %:     0  AVERAGE MISS PENALTY: 0
ITLB LOAD      ACCESS: 31288082  HIT: 31288082  MISS:     0  HIT %:   100  MISS %:     0  AVERAGE MISS PENALTY: 0
ITLB RFO       ACCESS:     0  HIT:     0  MISS:     0  HIT %:     0  MISS %:     0  AVERAGE MISS PENALTY: 0
ITLB PREFETCH  ACCESS:     0  HIT:     0  MISS:     0  HIT %:     0  MISS %:     0  AVERAGE MISS PENALTY: 0
ITLB WRITEBACK ACCESS:     0  HIT:     0  MISS:     0  HIT %:     0  MISS %:     0  AVERAGE MISS PENALTY: 0
ITLB PREFETCH  REQUESTED:     0  ISSUED:     0  USEFUL:     0  USELESS:     0
 USEFUL LOAD PREFETCHES:          0 PREFETCH ISSUED TO LOWER LEVEL:          0  ACCURACY: -nan
 TIMELY PREFETCHES:          0 LATE PREFETCHES: 0 DROPPED PREFETCHES: 0
ITLB AVERAGE MISS LATENCY: -nan cycles

ITLB Set Associative Eviction Count : 0
ITLB Priority 0 entries : 0
ITLB Inter-Core Interference : 0
DTLB TOTAL     ACCESS: 45965275  HIT: 36439655  MISS: 9525620  HIT %: 79.2765  MISS %: 20.7235  AVERAGE MISS PENALTY: 9.46769
DTLB LOAD      ACCESS: 45898708  HIT: 36373088  MISS: 9525620  HIT %: 79.2464  MISS %: 20.7536  AVERAGE MISS PENALTY: 9.46769
DTLB RFO       ACCESS: 66567  HIT: 66567  MISS:     0  HIT %:   100  MISS %:     0  AVERAGE MISS PENALTY: 0
DTLB PREFETCH  ACCESS:     0  HIT:     0  MISS:     0  HIT %:     0  MISS %:     0  AVERAGE MISS PENALTY: 0
DTLB WRITEBACK ACCESS:     0  HIT:     0  MISS:     0  HIT %:     0  MISS %:     0  AVERAGE MISS PENALTY: 0
DTLB PREFETCH  REQUESTED:     0  ISSUED:     0  USEFUL:     0  USELESS:     0
 USEFUL LOAD PREFETCHES:          0 PREFETCH ISSUED TO LOWER LEVEL:          0  ACCURACY: -nan
 TIMELY PREFETCHES:          0 LATE PREFETCHES: 0 DROPPED PREFETCHES: 0
DTLB AVERAGE MISS LATENCY: 9.46769 cycles

DTLB Set Associative Eviction Count : 0
DTLB Priority 0 entries : 0
DTLB Inter-Core Interference : 0
STLB TOTAL     ACCESS: 9525620  HIT: 9511267  MISS: 14353  HIT %: 99.8493  MISS %: 0.150678  AVERAGE MISS PENALTY: 100
STLB LOAD      ACCESS: 9525620  HIT: 9511267  MISS: 14353  HIT %: 99.8493  MISS %: 0.150678  AVERAGE MISS PENALTY: 100
STLB RFO       ACCESS:     0  HIT:     0  MISS:     0  HIT %:     0  MISS %:     0  AVERAGE MISS PENALTY: 0
STLB PREFETCH  ACCESS:     0  HIT:     0  MISS:     0  HIT %:     0  MISS %:     0  AVERAGE MISS PENALTY: 0
STLB WRITEBACK ACCESS:     0  HIT:     0  MISS:     0  HIT %:     0  MISS %:     0  AVERAGE MISS PENALTY: 0
STLB PREFETCH  REQUESTED:     0  ISSUED:     0  USEFUL:     0  USELESS:     0
 USEFUL LOAD PREFETCHES:          0 PREFETCH ISSUED TO LOWER LEVEL:          0  ACCURACY: -nan
 TIMELY PREFETCHES:          0 LATE PREFETCHES: 0 DROPPED PREFETCHES: 0
STLB AVERAGE MISS LATENCY: 100 cycles

STLB Set Associative Eviction Count : 0
STLB Priority 0 entries : 0
STLB Inter-Core Interference : 0
L1D TOTAL     ACCESS: 104038334  HIT: 51455632  MISS: 52582702  HIT %: 49.4583  MISS %: 50.5417  AVERAGE MISS PENALTY: 4.64083e+06
L1D LOAD      ACCESS: 43163692  HIT: 29042834  MISS: 14120858  HIT %: 67.2853  MISS %: 32.7147  AVERAGE MISS PENALTY: 1.72803e+07
L1D RFO       ACCESS: 66571  HIT: 66571  MISS:     0  HIT %:   100  MISS %:     0  AVERAGE MISS PENALTY: 0
L1D PREFETCH  ACCESS: 60808071  HIT: 22346227  MISS: 38461844  HIT %: 36.7488  MISS %: 63.2512  AVERAGE MISS PENALTY: 388.698
L1D WRITEBACK ACCESS:     0  HIT:     0  MISS:     0  HIT %:     0  MISS %:     0  AVERAGE MISS PENALTY: 0
L1D PREFETCH  REQUESTED: 80833071  ISSUED: 62114059  USEFUL: 1357103  USELESS: 37104735
 USEFUL LOAD PREFETCHES:    1357103 PREFETCH ISSUED TO LOWER LEVEL:  555477841  ACCURACY: 0.244313
 TIMELY PREFETCHES:    1357103 LATE PREFETCHES: 451739 DROPPED PREFETCHES: 18719012
L1D AVERAGE MISS LATENCY: 351.234 cycles

L1D Set Associative Eviction Count : 0
L1D Priority 0 entries : 0
L1D Inter-Core Interference : 0
L1I TOTAL     ACCESS: 42514385  HIT: 42514385  MISS:     0  HIT %:   100  MISS %:     0  AVERAGE MISS PENALTY: 0
L1I LOAD      ACCESS: 42514385  HIT: 42514385  MISS:     0  HIT %:   100  MISS %:     0  AVERAGE MISS PENALTY: 0
L1I RFO       ACCESS:     0  HIT:     0  MISS:     0  HIT %:     0  MISS %:     0  AVERAGE MISS PENALTY: 0
L1I PREFETCH  ACCESS:     0  HIT:     0  MISS:     0  HIT %:     0  MISS %:     0  AVERAGE MISS PENALTY: 0
L1I WRITEBACK ACCESS:     0  HIT:     0  MISS:     0  HIT %:     0  MISS %:     0  AVERAGE MISS PENALTY: 0
L1I PREFETCH  REQUESTED:     0  ISSUED:     0  USEFUL:     0  USELESS:     0
 USEFUL LOAD PREFETCHES:          0 PREFETCH ISSUED TO LOWER LEVEL:          0  ACCURACY: -nan
 TIMELY PREFETCHES:          0 LATE PREFETCHES: 0 DROPPED PREFETCHES: 0
L1I AVERAGE MISS LATENCY: -nan cycles

L1I Set Associative Eviction Count : 0
L1I Priority 0 entries : 0
L1I Inter-Core Interference : 0
L2C TOTAL     ACCESS: 83350585  HIT: 5965198  MISS: 77385387  HIT %: 7.15676  MISS %: 92.8432  AVERAGE MISS PENALTY: 3.39591e+06
L2C LOAD      ACCESS: 14116893  HIT: 250041  MISS: 13866852  HIT %: 1.77122  MISS %: 98.2288  AVERAGE MISS PENALTY: 1.89495e+07
L2C RFO       ACCESS:     0  HIT:     0  MISS:     0  HIT %:     0  MISS %:     0  AVERAGE MISS PENALTY: 0
L2C PREFETCH  ACCESS: 69178016  HIT: 5698311  MISS: 63479705  HIT %: 8.23717  MISS %: 91.7628  AVERAGE MISS PENALTY: 372.125
L2C WRITEBACK ACCESS: 55676  HIT: 16846  MISS: 38830  HIT %: 30.2572  MISS %: 69.7428  AVERAGE MISS PENALTY: 0
L2C PREFETCH  REQUESTED: 90223286  ISSUED: 89806949  USEFUL: 214677  USELESS: 63264840
 USEFUL LOAD PREFETCHES:     214677 PREFETCH ISSUED TO LOWER LEVEL:   81288737  ACCURACY: 0.264092
 TIMELY PREFETCHES:     214677 LATE PREFETCHES: 804618 DROPPED PREFETCHES: 416337
L2C AVERAGE MISS LATENCY: 364.991 cycles

L2C Set Associative Eviction Count : 0
L2C Priority 0 entries : 0
L2C Inter-Core Interference : 0
LLC0 TOTAL     ACCESS: 9905766  HIT: 4902229  MISS: 5003537  HIT %: 49.4886  MISS %: 50.5114  AVERAGE MISS PENALTY: 715.991
LLC0 LOAD      ACCESS: 1737030  HIT: 904831  MISS: 832199  HIT %: 52.0907  MISS %: 47.9093  AVERAGE MISS PENALTY: 708.362
LLC0 RFO       ACCESS:     0  HIT:     0  MISS:     0  HIT %:     0  MISS %:     0  AVERAGE MISS PENALTY: 0
LLC0 PREFETCH  ACCESS: 8161735  HIT: 3992982  MISS: 4168753  HIT %: 48.9232  MISS %: 51.0768  AVERAGE MISS PENALTY: 717.958
LLC0 WRITEBACK ACCESS:  7001  HIT:  4416  MISS:  2585  HIT %: 63.0767  MISS %: 36.9233  AVERAGE MISS PENALTY: 0
LLC0 PREFETCH  REQUESTED:     0  ISSUED:     0  USEFUL: 2107371  USELESS: 7929472
 USEFUL LOAD PREFETCHES:    2107371 PREFETCH ISSUED TO LOWER LEVEL:  128388673  ACCURACY: 1.6414
 TIMELY PREFETCHES:    2107371 LATE PREFETCHES: 0 DROPPED PREFETCHES: 0
LLC0 AVERAGE MISS LATENCY: 715.991 cycles

LLC0 Set Associative Eviction Count : 0
LLC0 Priority 0 entries : 12288
LLC0 Inter-Core Interference : 10649852
LLC1 TOTAL     ACCESS: 10000024  HIT: 4936583  MISS: 5063441  HIT %: 49.3657  MISS %: 50.6343  AVERAGE MISS PENALTY: 705.722
LLC1 LOAD      ACCESS: 1720907  HIT: 886315  MISS: 834592  HIT %: 51.5028  MISS %: 48.4972  AVERAGE MISS PENALTY: 698.395
LLC1 RFO       ACCESS:     0  HIT:     0  MISS:     0  HIT %:     0  MISS %:     0  AVERAGE MISS PENALTY: 0
LLC1 PREFETCH  ACCESS: 8272133  HIT: 4045832  MISS: 4226301  HIT %: 48.9092  MISS %: 51.0908  AVERAGE MISS PENALTY: 707.595
LLC1 WRITEBACK ACCESS:  6984  HIT:  4436  MISS:  2548  HIT %: 63.5166  MISS %: 36.4834  AVERAGE MISS PENALTY: 0
LLC1 PREFETCH  REQUESTED:     0  ISSUED:     0  USEFUL: 2145841  USELESS: 7958098
 USEFUL LOAD PREFETCHES:    2145841 PREFETCH ISSUED TO LOWER LEVEL:   98546985  ACCURACY: 2.17748
 TIMELY PREFETCHES:    2145841 LATE PREFETCHES: 0 DROPPED PREFETCHES: 0
LLC1 AVERAGE MISS LATENCY: 705.722 cycles

LLC1 Set Associative Eviction Count : 0
LLC1 Priority 0 entries : 12288
LLC1 Inter-Core Interference : 10725729
LLC2 TOTAL     ACCESS: 9934200  HIT: 4916781  MISS: 5017419  HIT %: 49.4935  MISS %: 50.5065  AVERAGE MISS PENALTY: 709.074
LLC2 LOAD      ACCESS: 1686729  HIT: 869091  MISS: 817638  HIT %: 51.5252  MISS %: 48.4748  AVERAGE MISS PENALTY: 708.436
LLC2 RFO       ACCESS:     0  HIT:     0  MISS:     0  HIT %:     0  MISS %:     0  AVERAGE MISS PENALTY: 0
LLC2 PREFETCH  ACCESS: 8240448  HIT: 4043181  MISS: 4197267  HIT %: 49.0651  MISS %: 50.9349  AVERAGE MISS PENALTY: 709.623
LLC2 WRITEBACK ACCESS:  7023  HIT:  4509  MISS:  2514  HIT %: 64.2033  MISS %: 35.7967  AVERAGE MISS PENALTY: 0
LLC2 PREFETCH  REQUESTED:     0  ISSUED:     0  USEFUL: 2099882  USELESS: 7949651
 USEFUL LOAD PREFETCHES:    2099882 PREFETCH ISSUED TO LOWER LEVEL:  204633714  ACCURACY: 1.02617
 TIMELY PREFETCHES:    2099882 LATE PREFETCHES: 0 DROPPED PREFETCHES: 0
LLC2 AVERAGE MISS LATENCY: 709.074 cycles

LLC2 Set Associative Eviction Count : 0
LLC2 Priority 0 entries : 12288
LLC2 Inter-Core Interference : 10643181
LLC3 TOTAL     ACCESS: 9800827  HIT: 4880256  MISS: 4920571  HIT %: 49.7943  MISS %: 50.2057  AVERAGE MISS PENALTY: 699.717
LLC3 LOAD      ACCESS: 1673321  HIT: 866117  MISS: 807204  HIT %: 51.7604  MISS %: 48.2396  AVERAGE MISS PENALTY: 699.473
LLC3 RFO       ACCESS:     0  HIT:     0  MISS:     0  HIT %:     0  MISS %:     0  AVERAGE MISS PENALTY: 0
LLC3 PREFETCH  ACCESS: 8120679  HIT: 4009727  MISS: 4110952  HIT %: 49.3767  MISS %: 50.6233  AVERAGE MISS PENALTY: 700.176
LLC3 WRITEBACK ACCESS:  6827  HIT:  4412  MISS:  2415  HIT %: 64.6258  MISS %: 35.3742  AVERAGE MISS PENALTY: 0
LLC3 PREFETCH  REQUESTED:     0  ISSUED:     0  USEFUL: 2117618  USELESS: 7762039
 USEFUL LOAD PREFETCHES:    2117618 PREFETCH ISSUED TO LOWER LEVEL:  145571079  ACCURACY: 1.4547
 TIMELY PREFETCHES:    2117618 LATE PREFETCHES: 0 DROPPED PREFETCHES: 0
LLC3 AVERAGE MISS LATENCY: 699.717 cycles

LLC3 Set Associative Eviction Count : 0
LLC3 Priority 0 entries : 12288
LLC3 Inter-Core Interference : 10467023
LLC4 TOTAL     ACCESS: 9704124  HIT: 4853116  MISS: 4851008  HIT %: 50.0109  MISS %: 49.9891  AVERAGE MISS PENALTY: 611.871
LLC4 LOAD      ACCESS: 1759382  HIT: 934243  MISS: 825139  HIT %: 53.1006  MISS %: 46.8994  AVERAGE MISS PENALTY: 601.959
LLC4 RFO       ACCESS:     0  HIT:     0  MISS:     0  HIT %:     0  MISS %:     0  AVERAGE MISS PENALTY: 0
LLC4 PREFETCH  ACCESS: 7937755  HIT: 3914386  MISS: 4023369  HIT %: 49.3135  MISS %: 50.6865  AVERAGE MISS PENALTY: 614.284
LLC4 WRITEBACK ACCESS:  6987  HIT:  4487  MISS:  2500  HIT %: 64.2193  MISS %: 35.7807  AVERAGE MISS PENALTY: 0
LLC4 PREFETCH  REQUESTED:     0  ISSUED:     0  USEFUL: 2067570  USELESS: 7631145
 USEFUL LOAD PREFETCHES:    2067570 PREFETCH ISSUED TO LOWER LEVEL:  304876788  ACCURACY: 0.678166
 TIMELY PREFETCHES:    2067570 LATE PREFETCHES: 0 DROPPED PREFETCHES: 0
LLC4 AVERAGE MISS LATENCY: 611.871 cycles

LLC4 Set Associative Eviction Count : 0
LLC4 Priority 0 entries : 12288
LLC4 Inter-Core Interference : 10371091
LLC5 TOTAL     ACCESS: 9531044  HIT: 4777872  MISS: 4753172  HIT %: 50.1296  MISS %: 49.8704  AVERAGE MISS PENALTY: 575.855
LLC5 LOAD      ACCESS: 1740052  HIT: 921882  MISS: 818170  HIT %: 52.9801  MISS %: 47.0199  AVERAGE MISS PENALTY: 563.786
LLC5 RFO       ACCESS:     0  HIT:     0  MISS:     0  HIT %:     0  MISS %:     0  AVERAGE MISS PENALTY: 0
LLC5 PREFETCH  ACCESS: 7784119  HIT: 3851566  MISS: 3932553  HIT %: 49.4798  MISS %: 50.5202  AVERAGE MISS PENALTY: 578.724
LLC5 WRITEBACK ACCESS:  6873  HIT:  4424  MISS:  2449  HIT %: 64.3678  MISS %: 35.6322  AVERAGE MISS PENALTY: 0
LLC5 PREFETCH  REQUESTED:     0  ISSUED:     0  USEFUL: 2064946  USELESS: 7464336
 USEFUL LOAD PREFETCHES:    2064946 PREFETCH ISSUED TO LOWER LEVEL:  209121526  ACCURACY: 0.987438
 TIMELY PREFETCHES:    2064946 LATE PREFETCHES: 0 DROPPED PREFETCHES: 0
LLC5 AVERAGE MISS LATENCY: 575.855 cycles

LLC5 Set Associative Eviction Count : 0
LLC5 Priority 0 entries : 12288
LLC5 Inter-Core Interference : 10213933
LLC6 TOTAL     ACCESS: 9356105  HIT: 4734083  MISS: 4622022  HIT %: 50.5989  MISS %: 49.4011  AVERAGE MISS PENALTY: 606.288
LLC6 LOAD      ACCESS: 1723882  HIT: 904097  MISS: 819785  HIT %: 52.4454  MISS %: 47.5546  AVERAGE MISS PENALTY: 594.203
LLC6 RFO       ACCESS:     0  HIT:     0  MISS:     0  HIT %:     0  MISS %:     0  AVERAGE MISS PENALTY: 0
LLC6 PREFETCH  ACCESS: 7625180  HIT: 3825540  MISS: 3799640  HIT %: 50.1698  MISS %: 49.8302  AVERAGE MISS PENALTY: 609.31
LLC6 WRITEBACK ACCESS:  7043  HIT:  4446  MISS:  2597  HIT %: 63.1265  MISS %: 36.8735  AVERAGE MISS PENALTY: 0
LLC6 PREFETCH  REQUESTED:     0  ISSUED:     0  USEFUL: 2028865  USELESS: 7347113
 USEFUL LOAD PREFETCHES:    2028865 PREFETCH ISSUED TO LOWER LEVEL:  432707258  ACCURACY: 0.468877
 TIMELY PREFETCHES:    2028865 LATE PREFETCHES: 0 DROPPED PREFETCHES: 0
LLC6 AVERAGE MISS LATENCY: 606.288 cycles

LLC6 Set Associative Eviction Count : 0
LLC6 Priority 0 entries : 12288
LLC6 Inter-Core Interference : 10082349
LLC7 TOTAL     ACCESS: 9170140  HIT: 4714445  MISS: 4455695  HIT %: 51.4108  MISS %: 48.5892  AVERAGE MISS PENALTY: 574.711
LLC7 LOAD      ACCESS: 1725050  HIT: 921847  MISS: 803203  HIT %: 53.4389  MISS %: 46.5611  AVERAGE MISS PENALTY: 558.559
LLC7 RFO       ACCESS:     0  HIT:     0  MISS:     0  HIT %:     0  MISS %:     0  AVERAGE MISS PENALTY: 0
LLC7 PREFETCH  ACCESS: 7438152  HIT: 3788241  MISS: 3649911  HIT %: 50.9299  MISS %: 49.0701  AVERAGE MISS PENALTY: 578.672
LLC7 WRITEBACK ACCESS:  6938  HIT:  4357  MISS:  2581  HIT %: 62.7991  MISS %: 37.2009  AVERAGE MISS PENALTY: 0
LLC7 PREFETCH  REQUESTED:     0  ISSUED:     0  USEFUL: 1992609  USELESS: 7282545
 USEFUL LOAD PREFETCHES:    1992609 PREFETCH ISSUED TO LOWER LEVEL:  288689130  ACCURACY: 0.690227
 TIMELY PREFETCHES:    1992609 LATE PREFETCHES: 0 DROPPED PREFETCHES: 0
LLC7 AVERAGE MISS LATENCY: 574.711 cycles

LLC7 Set Associative Eviction Count : 0
LLC7 Priority 0 entries : 12288
LLC7 Inter-Core Interference : 9970399
ROI Average ROB Stall Cycles:	30.8281
ROI Total ROB Stalls Cycles:	2493750636
ROI TOTAL ROB counter      :	80892114
ROI Average Load ROB Stall Cycles:	232.857
ROI Total Load ROB Stalls Cycle  :	1553390249
ROI Total Load ROB stalls Counter:	6670997
Major fault: 0 Minor fault: 29446








Interconnect Stats 
LINK 0 BW : 0LINK 1 BW : 0LINK 2 BW : 0LINK 3 BW : 0LINK 4 BW : 0LINK 5 BW : 0LINK 6 BW : 0LINK 7 BW : 0
DRAM Statistics
 CHANNEL 0
 RQ ROW_BUFFER_HIT: 53603458  ROW_BUFFER_MISS: 102456315
 DBUS_CONGESTED: 72767829
 WQ ROW_BUFFER_HIT: 34232  ROW_BUFFER_MISS: 189913  FULL:     0

 CHANNEL 1
 RQ ROW_BUFFER_HIT: 52146018  ROW_BUFFER_MISS: 101437655
 DBUS_CONGESTED: 72767829
 WQ ROW_BUFFER_HIT: 33449  ROW_BUFFER_MISS: 187423  FULL:     0

 AVG_CONGESTED_CYCLE: 4
DRAM PAGES: 2097152
Allocated PAGES: 235595
L2C destructor called
L1D destructor called
L1I destructor called
STLB destructor called
DTLB destructor called
ITLB destructor called
L2C destructor called
L1D destructor called
L1I destructor called
STLB destructor called
DTLB destructor called
ITLB destructor called
L2C destructor called
L1D destructor called
L1I destructor called
STLB destructor called
DTLB destructor called
ITLB destructor called
L2C destructor called
L1D destructor called
L1I destructor called
STLB destructor called
DTLB destructor called
ITLB destructor called
L2C destructor called
L1D destructor called
L1I destructor called
STLB destructor called
DTLB destructor called
ITLB destructor called
L2C destructor called
L1D destructor called
L1I destructor called
STLB destructor called
DTLB destructor called
ITLB destructor called
L2C destructor called
L1D destructor called
L1I destructor called
STLB destructor called
DTLB destructor called
ITLB destructor called
L2C destructor called
L1D destructor called
L1I destructor called
STLB destructor called
DTLB destructor called
ITLB destructor called
