
*** ChampSim Multicore Out-of-Order Simulator ***

Warmup Instructions: 200000000
Simulation Instructions: 200000000
Number of CPUs: 8
threads:1

L1I Configuration:
L1I_SET:64
L1I_WAY:8
L1I_RQ_SIZE:64
L1I_WQ_SIZE:64
L1I_PQ_SIZE:8
L1I_MSHR_SIZE:8

L1D Configuration:
L1D_SET:64
L1D_WAY:12
L1D_RQ_SIZE:64
L1D_WQ_SIZE:64
L1D_PQ_SIZE:8
L1D_MSHR_SIZE:16

L2C Configuration:
L2C_SET:1024
L2C_WAY:8
L2C_RQ_SIZE:32
L2C_WQ_SIZE:32
L2C_PQ_SIZE:16
L2C_MSHR_SIZE:32

LLC Configuration:
LLC_SET:2048
LLC_WAY:12
LLC SLICES:8
LLC_RQ_SIZE:64
LLC_WQ_SIZE:64
LLC_PQ_SIZE:32
LLC_MSHR_SIZE:64

Interconnect OFF
Attacker deprioritize is: OFF
Off-chip DRAM Size: 8192 MB Channels: 2 Width: 64-bit Data Rate: 3200 MT/s
PAGE SIZE in KB: 4.000000 
PAGE SIZE in MB: 0.003906 
PAGE offset in bits: 12 
CEASER-S_LLC:0
MIRAGE : 1
CEASER_LATENCY:3
REMAP : OFF
Partitions : 1
Multi-Step : OFF
BFS : OFF

CPU 0 runs /home/anubhav/gap/pr-14.trace.gz
CPU 1 runs /home/anubhav/gap/pr-14.trace.gz
CPU 2 runs /home/anubhav/gap/pr-14.trace.gz
CPU 3 runs /home/anubhav/gap/pr-14.trace.gz
CPU 4 runs /home/anubhav/gap/pr-14.trace.gz
CPU 5 runs /home/anubhav/gap/pr-14.trace.gz
CPU 6 runs /home/anubhav/gap/pr-14.trace.gz
CPU 7 runs /home/anubhav/gap/pr-14.trace.gz
CPU 0 Bimodal branch predictor
Initialize Hawkeye state
Initialize Hawkeye state
Initialize Hawkeye state
Initialize Hawkeye state
Initialize Hawkeye state
Initialize Hawkeye state
Initialize Hawkeye state
Initialize Hawkeye state
CPU 1 Bimodal branch predictor
Initialize Hawkeye state
Initialize Hawkeye state
Initialize Hawkeye state
Initialize Hawkeye state
Initialize Hawkeye state
Initialize Hawkeye state
Initialize Hawkeye state
Initialize Hawkeye state
CPU 2 Bimodal branch predictor
Initialize Hawkeye state
Initialize Hawkeye state
Initialize Hawkeye state
Initialize Hawkeye state
Initialize Hawkeye state
Initialize Hawkeye state
Initialize Hawkeye state
Initialize Hawkeye state
CPU 3 Bimodal branch predictor
Initialize Hawkeye state
Initialize Hawkeye state
Initialize Hawkeye state
Initialize Hawkeye state
Initialize Hawkeye state
Initialize Hawkeye state
Initialize Hawkeye state
Initialize Hawkeye state
CPU 4 Bimodal branch predictor
Initialize Hawkeye state
Initialize Hawkeye state
Initialize Hawkeye state
Initialize Hawkeye state
Initialize Hawkeye state
Initialize Hawkeye state
Initialize Hawkeye state
Initialize Hawkeye state
CPU 5 Bimodal branch predictor
Initialize Hawkeye state
Initialize Hawkeye state
Initialize Hawkeye state
Initialize Hawkeye state
Initialize Hawkeye state
Initialize Hawkeye state
Initialize Hawkeye state
Initialize Hawkeye state
CPU 6 Bimodal branch predictor
Initialize Hawkeye state
Initialize Hawkeye state
Initialize Hawkeye state
Initialize Hawkeye state
Initialize Hawkeye state
Initialize Hawkeye state
Initialize Hawkeye state
Initialize Hawkeye state
CPU 7 Bimodal branch predictor
Initialize Hawkeye state
Initialize Hawkeye state
Initialize Hawkeye state
Initialize Hawkeye state
Initialize Hawkeye state
Initialize Hawkeye state
Initialize Hawkeye state
Initialize Hawkeye state
FILL
Heartbeat CPU 0 instructions: 10000001 cycles: 3863809 heartbeat IPC: 2.58812 cumulative IPC: 2.58812 (Simulation time: 0 hr 49 min 51 sec) 
 Total Blocks : 196608 Invalid Blocks : 19625 Valid Blocks : 176983
 Total Tags : 491520 Threshold : 12288 Invalid Tags : 216236 Pr0 Tags : 98301 Pr1 Tags : 176983 num_pr0 : 12288
 SAE Count : 0
 Inter-Core Inteference in Data Store : 240958
Heartbeat CPU 1 instructions: 10000001 cycles: 3863812 heartbeat IPC: 2.58812 cumulative IPC: 2.58812 (Simulation time: 0 hr 49 min 52 sec) 
 Total Blocks : 196608 Invalid Blocks : 19625 Valid Blocks : 176983
 Total Tags : 491520 Threshold : 12288 Invalid Tags : 216236 Pr0 Tags : 98301 Pr1 Tags : 176983 num_pr0 : 12288
 SAE Count : 0
 Inter-Core Inteference in Data Store : 240958
Heartbeat CPU 2 instructions: 10000001 cycles: 3863816 heartbeat IPC: 2.58812 cumulative IPC: 2.58812 (Simulation time: 0 hr 49 min 52 sec) 
 Total Blocks : 196608 Invalid Blocks : 19625 Valid Blocks : 176983
 Total Tags : 491520 Threshold : 12288 Invalid Tags : 216236 Pr0 Tags : 98301 Pr1 Tags : 176983 num_pr0 : 12288
 SAE Count : 0
 Inter-Core Inteference in Data Store : 240958
Heartbeat CPU 3 instructions: 10000001 cycles: 3863823 heartbeat IPC: 2.58811 cumulative IPC: 2.58811 (Simulation time: 0 hr 49 min 52 sec) 
 Total Blocks : 196608 Invalid Blocks : 19625 Valid Blocks : 176983
 Total Tags : 491520 Threshold : 12288 Invalid Tags : 216236 Pr0 Tags : 98301 Pr1 Tags : 176983 num_pr0 : 12288
 SAE Count : 0
 Inter-Core Inteference in Data Store : 240959
Heartbeat CPU 4 instructions: 10000001 cycles: 3863827 heartbeat IPC: 2.58811 cumulative IPC: 2.58811 (Simulation time: 0 hr 49 min 52 sec) 
 Total Blocks : 196608 Invalid Blocks : 19625 Valid Blocks : 176983
 Total Tags : 491520 Threshold : 12288 Invalid Tags : 216236 Pr0 Tags : 98301 Pr1 Tags : 176983 num_pr0 : 12288
 SAE Count : 0
 Inter-Core Inteference in Data Store : 240960
Heartbeat CPU 5 instructions: 10000001 cycles: 3863830 heartbeat IPC: 2.58811 cumulative IPC: 2.58811 (Simulation time: 0 hr 49 min 52 sec) 
 Total Blocks : 196608 Invalid Blocks : 19625 Valid Blocks : 176983
 Total Tags : 491520 Threshold : 12288 Invalid Tags : 216237 Pr0 Tags : 98300 Pr1 Tags : 176983 num_pr0 : 12288
 SAE Count : 0
 Inter-Core Inteference in Data Store : 240961
Heartbeat CPU 6 instructions: 10000001 cycles: 3863832 heartbeat IPC: 2.5881 cumulative IPC: 2.5881 (Simulation time: 0 hr 49 min 52 sec) 
 Total Blocks : 196608 Invalid Blocks : 19625 Valid Blocks : 176983
 Total Tags : 491520 Threshold : 12288 Invalid Tags : 216237 Pr0 Tags : 98300 Pr1 Tags : 176983 num_pr0 : 12288
 SAE Count : 0
 Inter-Core Inteference in Data Store : 240961
Heartbeat CPU 7 instructions: 10000001 cycles: 3863834 heartbeat IPC: 2.5881 cumulative IPC: 2.5881 (Simulation time: 0 hr 49 min 52 sec) 
 Total Blocks : 196608 Invalid Blocks : 19625 Valid Blocks : 176983
 Total Tags : 491520 Threshold : 12288 Invalid Tags : 216236 Pr0 Tags : 98301 Pr1 Tags : 176983 num_pr0 : 12288
 SAE Count : 0
 Inter-Core Inteference in Data Store : 240961
Heartbeat CPU 0 instructions: 20000000 cycles: 14615984 heartbeat IPC: 0.930044 cumulative IPC: 1.36836 (Simulation time: 2 hr 41 min 12 sec) 
 Total Blocks : 196608 Invalid Blocks : 0 Valid Blocks : 196608
 Total Tags : 491520 Threshold : 12288 Invalid Tags : 196608 Pr0 Tags : 98304 Pr1 Tags : 196608 num_pr0 : 12288
 SAE Count : 0
 Inter-Core Inteference in Data Store : 8702810
Heartbeat CPU 1 instructions: 20000000 cycles: 14655941 heartbeat IPC: 0.926601 cumulative IPC: 1.36463 (Simulation time: 2 hr 41 min 38 sec) 
 Total Blocks : 196608 Invalid Blocks : 0 Valid Blocks : 196608
 Total Tags : 491520 Threshold : 12288 Invalid Tags : 196608 Pr0 Tags : 98304 Pr1 Tags : 196608 num_pr0 : 12288
 SAE Count : 0
 Inter-Core Inteference in Data Store : 8741322
Heartbeat CPU 2 instructions: 20000000 cycles: 14690828 heartbeat IPC: 0.923616 cumulative IPC: 1.36139 (Simulation time: 2 hr 42 min 4 sec) 
 Total Blocks : 196608 Invalid Blocks : 0 Valid Blocks : 196608
 Total Tags : 491520 Threshold : 12288 Invalid Tags : 196608 Pr0 Tags : 98304 Pr1 Tags : 196608 num_pr0 : 12288
 SAE Count : 0
 Inter-Core Inteference in Data Store : 8774466
Heartbeat CPU 3 instructions: 20000000 cycles: 14720310 heartbeat IPC: 0.921108 cumulative IPC: 1.35867 (Simulation time: 2 hr 42 min 25 sec) 
 Total Blocks : 196608 Invalid Blocks : 0 Valid Blocks : 196608
 Total Tags : 491520 Threshold : 12288 Invalid Tags : 196608 Pr0 Tags : 98304 Pr1 Tags : 196608 num_pr0 : 12288
 SAE Count : 0
 Inter-Core Inteference in Data Store : 8802972
Heartbeat CPU 4 instructions: 20000000 cycles: 14749668 heartbeat IPC: 0.918624 cumulative IPC: 1.35596 (Simulation time: 2 hr 42 min 44 sec) 
 Total Blocks : 196608 Invalid Blocks : 0 Valid Blocks : 196608
 Total Tags : 491520 Threshold : 12288 Invalid Tags : 196608 Pr0 Tags : 98304 Pr1 Tags : 196608 num_pr0 : 12288
 SAE Count : 0
 Inter-Core Inteference in Data Store : 8830573
Heartbeat CPU 5 instructions: 20000000 cycles: 14777655 heartbeat IPC: 0.916269 cumulative IPC: 1.35339 (Simulation time: 2 hr 43 min 1 sec) 
 Total Blocks : 196608 Invalid Blocks : 0 Valid Blocks : 196608
 Total Tags : 491520 Threshold : 12288 Invalid Tags : 196608 Pr0 Tags : 98304 Pr1 Tags : 196608 num_pr0 : 12288
 SAE Count : 0
 Inter-Core Inteference in Data Store : 8856218
Heartbeat CPU 6 instructions: 20000000 cycles: 14804430 heartbeat IPC: 0.914027 cumulative IPC: 1.35095 (Simulation time: 2 hr 43 min 22 sec) 
 Total Blocks : 196608 Invalid Blocks : 0 Valid Blocks : 196608
 Total Tags : 491520 Threshold : 12288 Invalid Tags : 196608 Pr0 Tags : 98304 Pr1 Tags : 196608 num_pr0 : 12288
 SAE Count : 0
 Inter-Core Inteference in Data Store : 8880691
Heartbeat CPU 7 instructions: 20000000 cycles: 14831765 heartbeat IPC: 0.911749 cumulative IPC: 1.34846 (Simulation time: 2 hr 43 min 39 sec) 
 Total Blocks : 196608 Invalid Blocks : 0 Valid Blocks : 196608
 Total Tags : 491520 Threshold : 12288 Invalid Tags : 196608 Pr0 Tags : 98304 Pr1 Tags : 196608 num_pr0 : 12288
 SAE Count : 0
 Inter-Core Inteference in Data Store : 8905635
Heartbeat CPU 0 instructions: 30000002 cycles: 27194945 heartbeat IPC: 0.794978 cumulative IPC: 1.10315 (Simulation time: 4 hr 51 min 16 sec) 
 Total Blocks : 196608 Invalid Blocks : 0 Valid Blocks : 196608
 Total Tags : 491520 Threshold : 12288 Invalid Tags : 196608 Pr0 Tags : 98304 Pr1 Tags : 196608 num_pr0 : 12288
 SAE Count : 0
 Inter-Core Inteference in Data Store : 21319127
Heartbeat CPU 1 instructions: 30000002 cycles: 27290427 heartbeat IPC: 0.791485 cumulative IPC: 1.09929 (Simulation time: 4 hr 52 min 11 sec) 
 Total Blocks : 196608 Invalid Blocks : 0 Valid Blocks : 196608
 Total Tags : 491520 Threshold : 12288 Invalid Tags : 196608 Pr0 Tags : 98304 Pr1 Tags : 196608 num_pr0 : 12288
 SAE Count : 0
 Inter-Core Inteference in Data Store : 21416858
Heartbeat CPU 2 instructions: 30000002 cycles: 27379314 heartbeat IPC: 0.788116 cumulative IPC: 1.09572 (Simulation time: 4 hr 52 min 59 sec) 
 Total Blocks : 196608 Invalid Blocks : 0 Valid Blocks : 196608
 Total Tags : 491520 Threshold : 12288 Invalid Tags : 196608 Pr0 Tags : 98304 Pr1 Tags : 196608 num_pr0 : 12288
 SAE Count : 0
 Inter-Core Inteference in Data Store : 21508230
Heartbeat CPU 3 instructions: 30000002 cycles: 27451389 heartbeat IPC: 0.78548 cumulative IPC: 1.09284 (Simulation time: 4 hr 53 min 40 sec) 
 Total Blocks : 196608 Invalid Blocks : 0 Valid Blocks : 196608
 Total Tags : 491520 Threshold : 12288 Invalid Tags : 196608 Pr0 Tags : 98304 Pr1 Tags : 196608 num_pr0 : 12288
 SAE Count : 0
 Inter-Core Inteference in Data Store : 21582833
Heartbeat CPU 4 instructions: 30000002 cycles: 27528396 heartbeat IPC: 0.782551 cumulative IPC: 1.08978 (Simulation time: 4 hr 54 min 25 sec) 
 Total Blocks : 196608 Invalid Blocks : 0 Valid Blocks : 196608
 Total Tags : 491520 Threshold : 12288 Invalid Tags : 196608 Pr0 Tags : 98304 Pr1 Tags : 196608 num_pr0 : 12288
 SAE Count : 0
 Inter-Core Inteference in Data Store : 21662379
Heartbeat CPU 5 instructions: 30000002 cycles: 27596110 heartbeat IPC: 0.780125 cumulative IPC: 1.08711 (Simulation time: 4 hr 55 min 9 sec) 
 Total Blocks : 196608 Invalid Blocks : 0 Valid Blocks : 196608
 Total Tags : 491520 Threshold : 12288 Invalid Tags : 196608 Pr0 Tags : 98304 Pr1 Tags : 196608 num_pr0 : 12288
 SAE Count : 0
 Inter-Core Inteference in Data Store : 21731956
Heartbeat CPU 6 instructions: 30000002 cycles: 27662062 heartbeat IPC: 0.777748 cumulative IPC: 1.08452 (Simulation time: 4 hr 55 min 47 sec) 
 Total Blocks : 196608 Invalid Blocks : 0 Valid Blocks : 196608
 Total Tags : 491520 Threshold : 12288 Invalid Tags : 196608 Pr0 Tags : 98304 Pr1 Tags : 196608 num_pr0 : 12288
 SAE Count : 0
 Inter-Core Inteference in Data Store : 21799568
Heartbeat CPU 7 instructions: 30000002 cycles: 27726754 heartbeat IPC: 0.775495 cumulative IPC: 1.08199 (Simulation time: 4 hr 56 min 26 sec) 
 Total Blocks : 196608 Invalid Blocks : 0 Valid Blocks : 196608
 Total Tags : 491520 Threshold : 12288 Invalid Tags : 196608 Pr0 Tags : 98304 Pr1 Tags : 196608 num_pr0 : 12288
 SAE Count : 0
 Inter-Core Inteference in Data Store : 21866284
Heartbeat CPU 0 instructions: 40000002 cycles: 39672434 heartbeat IPC: 0.801443 cumulative IPC: 1.00826 (Simulation time: 6 hr 58 min 2 sec) 
 Total Blocks : 196608 Invalid Blocks : 0 Valid Blocks : 196608
 Total Tags : 491520 Threshold : 12288 Invalid Tags : 196608 Pr0 Tags : 98304 Pr1 Tags : 196608 num_pr0 : 12288
 SAE Count : 0
 Inter-Core Inteference in Data Store : 33765149
Heartbeat CPU 1 instructions: 40000002 cycles: 39826598 heartbeat IPC: 0.797692 cumulative IPC: 1.00435 (Simulation time: 6 hr 59 min 33 sec) 
 Total Blocks : 196608 Invalid Blocks : 0 Valid Blocks : 196608
 Total Tags : 491520 Threshold : 12288 Invalid Tags : 196608 Pr0 Tags : 98304 Pr1 Tags : 196608 num_pr0 : 12288
 SAE Count : 0
 Inter-Core Inteference in Data Store : 33919378
Heartbeat CPU 2 instructions: 40000002 cycles: 39966568 heartbeat IPC: 0.794454 cumulative IPC: 1.00084 (Simulation time: 7 hr 0 min 55 sec) 
 Total Blocks : 196608 Invalid Blocks : 0 Valid Blocks : 196608
 Total Tags : 491520 Threshold : 12288 Invalid Tags : 196608 Pr0 Tags : 98304 Pr1 Tags : 196608 num_pr0 : 12288
 SAE Count : 0
 Inter-Core Inteference in Data Store : 34054531
Heartbeat CPU 3 instructions: 40000002 cycles: 40083650 heartbeat IPC: 0.791624 cumulative IPC: 0.997913 (Simulation time: 7 hr 2 min 8 sec) 
 Total Blocks : 196608 Invalid Blocks : 0 Valid Blocks : 196608
 Total Tags : 491520 Threshold : 12288 Invalid Tags : 196608 Pr0 Tags : 98304 Pr1 Tags : 196608 num_pr0 : 12288
 SAE Count : 0
 Inter-Core Inteference in Data Store : 34169349
Heartbeat CPU 4 instructions: 40000002 cycles: 40204313 heartbeat IPC: 0.788898 cumulative IPC: 0.994918 (Simulation time: 7 hr 3 min 18 sec) 
 Total Blocks : 196608 Invalid Blocks : 0 Valid Blocks : 196608
 Total Tags : 491520 Threshold : 12288 Invalid Tags : 196608 Pr0 Tags : 98304 Pr1 Tags : 196608 num_pr0 : 12288
 SAE Count : 0
 Inter-Core Inteference in Data Store : 34287195
Heartbeat CPU 5 instructions: 40000002 cycles: 40312498 heartbeat IPC: 0.786387 cumulative IPC: 0.992248 (Simulation time: 7 hr 4 min 24 sec) 
 Total Blocks : 196608 Invalid Blocks : 0 Valid Blocks : 196608
 Total Tags : 491520 Threshold : 12288 Invalid Tags : 196608 Pr0 Tags : 98304 Pr1 Tags : 196608 num_pr0 : 12288
 SAE Count : 0
 Inter-Core Inteference in Data Store : 34392717
Heartbeat CPU 6 instructions: 40000002 cycles: 40420398 heartbeat IPC: 0.783801 cumulative IPC: 0.989599 (Simulation time: 7 hr 5 min 35 sec) 
 Total Blocks : 196608 Invalid Blocks : 0 Valid Blocks : 196608
 Total Tags : 491520 Threshold : 12288 Invalid Tags : 196608 Pr0 Tags : 98304 Pr1 Tags : 196608 num_pr0 : 12288
 SAE Count : 0
 Inter-Core Inteference in Data Store : 34496351
Heartbeat CPU 7 instructions: 40000002 cycles: 40522201 heartbeat IPC: 0.781528 cumulative IPC: 0.987113 (Simulation time: 7 hr 6 min 38 sec) 
 Total Blocks : 196608 Invalid Blocks : 0 Valid Blocks : 196608
 Total Tags : 491520 Threshold : 12288 Invalid Tags : 196608 Pr0 Tags : 98304 Pr1 Tags : 196608 num_pr0 : 12288
 SAE Count : 0
 Inter-Core Inteference in Data Store : 34596894
Heartbeat CPU 0 instructions: 50000003 cycles: 52131202 heartbeat IPC: 0.802648 cumulative IPC: 0.959119 (Simulation time: 9 hr 1 min 13 sec) 
 Total Blocks : 196608 Invalid Blocks : 0 Valid Blocks : 196608
 Total Tags : 491520 Threshold : 12288 Invalid Tags : 196608 Pr0 Tags : 98304 Pr1 Tags : 196608 num_pr0 : 12288
 SAE Count : 0
 Inter-Core Inteference in Data Store : 46110112
Heartbeat CPU 1 instructions: 50000003 cycles: 52346290 heartbeat IPC: 0.798742 cumulative IPC: 0.955178 (Simulation time: 9 hr 3 min 21 sec) 
 Total Blocks : 196608 Invalid Blocks : 0 Valid Blocks : 196608
 Total Tags : 491520 Threshold : 12288 Invalid Tags : 196608 Pr0 Tags : 98304 Pr1 Tags : 196608 num_pr0 : 12288
 SAE Count : 0
 Inter-Core Inteference in Data Store : 46324597
Heartbeat CPU 2 instructions: 50000003 cycles: 52532501 heartbeat IPC: 0.795803 cumulative IPC: 0.951792 (Simulation time: 9 hr 5 min 20 sec) 
 Total Blocks : 196608 Invalid Blocks : 0 Valid Blocks : 196608
 Total Tags : 491520 Threshold : 12288 Invalid Tags : 196608 Pr0 Tags : 98304 Pr1 Tags : 196608 num_pr0 : 12288
 SAE Count : 0
 Inter-Core Inteference in Data Store : 46505843
Heartbeat CPU 3 instructions: 50000003 cycles: 52695268 heartbeat IPC: 0.79292 cumulative IPC: 0.948852 (Simulation time: 9 hr 6 min 58 sec) 
 Total Blocks : 196608 Invalid Blocks : 0 Valid Blocks : 196608
 Total Tags : 491520 Threshold : 12288 Invalid Tags : 196608 Pr0 Tags : 98304 Pr1 Tags : 196608 num_pr0 : 12288
 SAE Count : 0
 Inter-Core Inteference in Data Store : 46664341
Heartbeat CPU 4 instructions: 50000003 cycles: 52860524 heartbeat IPC: 0.790126 cumulative IPC: 0.945885 (Simulation time: 9 hr 8 min 33 sec) 
 Total Blocks : 196608 Invalid Blocks : 0 Valid Blocks : 196608
 Total Tags : 491520 Threshold : 12288 Invalid Tags : 196608 Pr0 Tags : 98304 Pr1 Tags : 196608 num_pr0 : 12288
 SAE Count : 0
 Inter-Core Inteference in Data Store : 46828407
Heartbeat CPU 5 instructions: 50000003 cycles: 53005958 heartbeat IPC: 0.787807 cumulative IPC: 0.94329 (Simulation time: 9 hr 10 min 5 sec) 
 Total Blocks : 196608 Invalid Blocks : 0 Valid Blocks : 196608
 Total Tags : 491520 Threshold : 12288 Invalid Tags : 196608 Pr0 Tags : 98304 Pr1 Tags : 196608 num_pr0 : 12288
 SAE Count : 0
 Inter-Core Inteference in Data Store : 46973689
Heartbeat CPU 6 instructions: 50000003 cycles: 53153698 heartbeat IPC: 0.785342 cumulative IPC: 0.940668 (Simulation time: 9 hr 11 min 26 sec) 
 Total Blocks : 196608 Invalid Blocks : 0 Valid Blocks : 196608
 Total Tags : 491520 Threshold : 12288 Invalid Tags : 196608 Pr0 Tags : 98304 Pr1 Tags : 196608 num_pr0 : 12288
 SAE Count : 0
 Inter-Core Inteference in Data Store : 47121816
Heartbeat CPU 7 instructions: 50000003 cycles: 53291488 heartbeat IPC: 0.783129 cumulative IPC: 0.938236 (Simulation time: 9 hr 12 min 40 sec) 
 Total Blocks : 196608 Invalid Blocks : 0 Valid Blocks : 196608
 Total Tags : 491520 Threshold : 12288 Invalid Tags : 196608 Pr0 Tags : 98304 Pr1 Tags : 196608 num_pr0 : 12288
 SAE Count : 0
 Inter-Core Inteference in Data Store : 47263561
Heartbeat CPU 0 instructions: 60000000 cycles: 64641857 heartbeat IPC: 0.799318 cumulative IPC: 0.928191 (Simulation time: 11 hr 4 min 16 sec) 
 Total Blocks : 196608 Invalid Blocks : 0 Valid Blocks : 196608
 Total Tags : 491520 Threshold : 12288 Invalid Tags : 196608 Pr0 Tags : 98304 Pr1 Tags : 196608 num_pr0 : 12288
 SAE Count : 0
 Inter-Core Inteference in Data Store : 58578251
Heartbeat CPU 1 instructions: 60000000 cycles: 64911039 heartbeat IPC: 0.795877 cumulative IPC: 0.924342 (Simulation time: 11 hr 7 min 3 sec) 
 Total Blocks : 196608 Invalid Blocks : 0 Valid Blocks : 196608
 Total Tags : 491520 Threshold : 12288 Invalid Tags : 196608 Pr0 Tags : 98304 Pr1 Tags : 196608 num_pr0 : 12288
 SAE Count : 0
 Inter-Core Inteference in Data Store : 58855794
Heartbeat CPU 2 instructions: 60000000 cycles: 65149002 heartbeat IPC: 0.792613 cumulative IPC: 0.920966 (Simulation time: 11 hr 9 min 31 sec) 
 Total Blocks : 196608 Invalid Blocks : 0 Valid Blocks : 196608
 Total Tags : 491520 Threshold : 12288 Invalid Tags : 196608 Pr0 Tags : 98304 Pr1 Tags : 196608 num_pr0 : 12288
 SAE Count : 0
 Inter-Core Inteference in Data Store : 59100301
Heartbeat CPU 3 instructions: 60000000 cycles: 65355130 heartbeat IPC: 0.789898 cumulative IPC: 0.918061 (Simulation time: 11 hr 11 min 44 sec) 
 Total Blocks : 196608 Invalid Blocks : 0 Valid Blocks : 196608
 Total Tags : 491520 Threshold : 12288 Invalid Tags : 196608 Pr0 Tags : 98304 Pr1 Tags : 196608 num_pr0 : 12288
 SAE Count : 0
 Inter-Core Inteference in Data Store : 59312393
Heartbeat CPU 4 instructions: 60000000 cycles: 65566567 heartbeat IPC: 0.787027 cumulative IPC: 0.915101 (Simulation time: 11 hr 13 min 50 sec) 
 Total Blocks : 196608 Invalid Blocks : 0 Valid Blocks : 196608
 Total Tags : 491520 Threshold : 12288 Invalid Tags : 196608 Pr0 Tags : 98304 Pr1 Tags : 196608 num_pr0 : 12288
 SAE Count : 0
 Inter-Core Inteference in Data Store : 59530920
Heartbeat CPU 5 instructions: 60000000 cycles: 65745459 heartbeat IPC: 0.78496 cumulative IPC: 0.912611 (Simulation time: 11 hr 15 min 35 sec) 
 Total Blocks : 196608 Invalid Blocks : 0 Valid Blocks : 196608
 Total Tags : 491520 Threshold : 12288 Invalid Tags : 196608 Pr0 Tags : 98304 Pr1 Tags : 196608 num_pr0 : 12288
 SAE Count : 0
 Inter-Core Inteference in Data Store : 59715585
Heartbeat CPU 6 instructions: 60000000 cycles: 65938247 heartbeat IPC: 0.782194 cumulative IPC: 0.909942 (Simulation time: 11 hr 17 min 37 sec) 
 Total Blocks : 196608 Invalid Blocks : 0 Valid Blocks : 196608
 Total Tags : 491520 Threshold : 12288 Invalid Tags : 196608 Pr0 Tags : 98304 Pr1 Tags : 196608 num_pr0 : 12288
 SAE Count : 0
 Inter-Core Inteference in Data Store : 59915024
Heartbeat CPU 7 instructions: 60000000 cycles: 66111691 heartbeat IPC: 0.780019 cumulative IPC: 0.907555 (Simulation time: 11 hr 19 min 25 sec) 
 Total Blocks : 196608 Invalid Blocks : 0 Valid Blocks : 196608
 Total Tags : 491520 Threshold : 12288 Invalid Tags : 196608 Pr0 Tags : 98304 Pr1 Tags : 196608 num_pr0 : 12288
 SAE Count : 0
 Inter-Core Inteference in Data Store : 60093789
Heartbeat CPU 0 instructions: 70000000 cycles: 77093531 heartbeat IPC: 0.803105 cumulative IPC: 0.907988 (Simulation time: 13 hr 10 min 53 sec) 
 Total Blocks : 196608 Invalid Blocks : 0 Valid Blocks : 196608
 Total Tags : 491520 Threshold : 12288 Invalid Tags : 196608 Pr0 Tags : 98304 Pr1 Tags : 196608 num_pr0 : 12288
 SAE Count : 0
 Inter-Core Inteference in Data Store : 71022840
Heartbeat CPU 1 instructions: 70000000 cycles: 77418301 heartbeat IPC: 0.799536 cumulative IPC: 0.904179 (Simulation time: 13 hr 14 min 12 sec) 
 Total Blocks : 196608 Invalid Blocks : 0 Valid Blocks : 196608
 Total Tags : 491520 Threshold : 12288 Invalid Tags : 196608 Pr0 Tags : 98304 Pr1 Tags : 196608 num_pr0 : 12288
 SAE Count : 0
 Inter-Core Inteference in Data Store : 71349212
Heartbeat CPU 2 instructions: 70000000 cycles: 77705939 heartbeat IPC: 0.796373 cumulative IPC: 0.900832 (Simulation time: 13 hr 16 min 58 sec) 
 Total Blocks : 196608 Invalid Blocks : 0 Valid Blocks : 196608
 Total Tags : 491520 Threshold : 12288 Invalid Tags : 196608 Pr0 Tags : 98304 Pr1 Tags : 196608 num_pr0 : 12288
 SAE Count : 0
 Inter-Core Inteference in Data Store : 71635831
Heartbeat CPU 3 instructions: 70000000 cycles: 77958728 heartbeat IPC: 0.793424 cumulative IPC: 0.897911 (Simulation time: 13 hr 19 min 38 sec) 
 Total Blocks : 196608 Invalid Blocks : 0 Valid Blocks : 196608
 Total Tags : 491520 Threshold : 12288 Invalid Tags : 196608 Pr0 Tags : 98304 Pr1 Tags : 196608 num_pr0 : 12288
 SAE Count : 0
 Inter-Core Inteference in Data Store : 71893308
Heartbeat CPU 4 instructions: 70000000 cycles: 78212595 heartbeat IPC: 0.790762 cumulative IPC: 0.894997 (Simulation time: 13 hr 22 min 15 sec) 
 Total Blocks : 196608 Invalid Blocks : 0 Valid Blocks : 196608
 Total Tags : 491520 Threshold : 12288 Invalid Tags : 196608 Pr0 Tags : 98304 Pr1 Tags : 196608 num_pr0 : 12288
 SAE Count : 0
 Inter-Core Inteference in Data Store : 72151693
Heartbeat CPU 5 instructions: 70000000 cycles: 78434653 heartbeat IPC: 0.788072 cumulative IPC: 0.892463 (Simulation time: 13 hr 24 min 21 sec) 
 Total Blocks : 196608 Invalid Blocks : 0 Valid Blocks : 196608
 Total Tags : 491520 Threshold : 12288 Invalid Tags : 196608 Pr0 Tags : 98304 Pr1 Tags : 196608 num_pr0 : 12288
 SAE Count : 0
 Inter-Core Inteference in Data Store : 72380196
Heartbeat CPU 6 instructions: 70000000 cycles: 78667262 heartbeat IPC: 0.785607 cumulative IPC: 0.889824 (Simulation time: 13 hr 26 min 39 sec) 
 Total Blocks : 196608 Invalid Blocks : 0 Valid Blocks : 196608
 Total Tags : 491520 Threshold : 12288 Invalid Tags : 196608 Pr0 Tags : 98304 Pr1 Tags : 196608 num_pr0 : 12288
 SAE Count : 0
 Inter-Core Inteference in Data Store : 72620787
Heartbeat CPU 7 instructions: 70000000 cycles: 78881089 heartbeat IPC: 0.783122 cumulative IPC: 0.887412 (Simulation time: 13 hr 28 min 45 sec) 
 Total Blocks : 196608 Invalid Blocks : 0 Valid Blocks : 196608
 Total Tags : 491520 Threshold : 12288 Invalid Tags : 196608 Pr0 Tags : 98304 Pr1 Tags : 196608 num_pr0 : 12288
 SAE Count : 0
 Inter-Core Inteference in Data Store : 72843326
Heartbeat CPU 0 instructions: 80000000 cycles: 89627517 heartbeat IPC: 0.797831 cumulative IPC: 0.892583 (Simulation time: 15 hr 13 min 49 sec) 
 Total Blocks : 196608 Invalid Blocks : 0 Valid Blocks : 196608
 Total Tags : 491520 Threshold : 12288 Invalid Tags : 196608 Pr0 Tags : 98304 Pr1 Tags : 196608 num_pr0 : 12288
 SAE Count : 0
 Inter-Core Inteference in Data Store : 83672448
Heartbeat CPU 1 instructions: 80000000 cycles: 90009902 heartbeat IPC: 0.79418 cumulative IPC: 0.888791 (Simulation time: 15 hr 17 min 26 sec) 
 Total Blocks : 196608 Invalid Blocks : 0 Valid Blocks : 196608
 Total Tags : 491520 Threshold : 12288 Invalid Tags : 196608 Pr0 Tags : 98304 Pr1 Tags : 196608 num_pr0 : 12288
 SAE Count : 0
 Inter-Core Inteference in Data Store : 84042092
Heartbeat CPU 2 instructions: 80000000 cycles: 90350743 heartbeat IPC: 0.790839 cumulative IPC: 0.885438 (Simulation time: 15 hr 20 min 48 sec) 
 Total Blocks : 196608 Invalid Blocks : 0 Valid Blocks : 196608
 Total Tags : 491520 Threshold : 12288 Invalid Tags : 196608 Pr0 Tags : 98304 Pr1 Tags : 196608 num_pr0 : 12288
 SAE Count : 0
 Inter-Core Inteference in Data Store : 84377006
Heartbeat CPU 3 instructions: 80000000 cycles: 90648452 heartbeat IPC: 0.788039 cumulative IPC: 0.88253 (Simulation time: 15 hr 23 min 51 sec) 
 Total Blocks : 196608 Invalid Blocks : 0 Valid Blocks : 196608
 Total Tags : 491520 Threshold : 12288 Invalid Tags : 196608 Pr0 Tags : 98304 Pr1 Tags : 196608 num_pr0 : 12288
 SAE Count : 0
 Inter-Core Inteference in Data Store : 84661379
Heartbeat CPU 4 instructions: 80000000 cycles: 90944931 heartbeat IPC: 0.785402 cumulative IPC: 0.879653 (Simulation time: 15 hr 26 min 44 sec) 
 Total Blocks : 196608 Invalid Blocks : 0 Valid Blocks : 196608
 Total Tags : 491520 Threshold : 12288 Invalid Tags : 196608 Pr0 Tags : 98304 Pr1 Tags : 196608 num_pr0 : 12288
 SAE Count : 0
 Inter-Core Inteference in Data Store : 84949583
Heartbeat CPU 5 instructions: 80000000 cycles: 91208752 heartbeat IPC: 0.782834 cumulative IPC: 0.877109 (Simulation time: 15 hr 29 min 13 sec) 
 Total Blocks : 196608 Invalid Blocks : 0 Valid Blocks : 196608
 Total Tags : 491520 Threshold : 12288 Invalid Tags : 196608 Pr0 Tags : 98304 Pr1 Tags : 196608 num_pr0 : 12288
 SAE Count : 0
 Inter-Core Inteference in Data Store : 85208080
Heartbeat CPU 6 instructions: 80000000 cycles: 91483303 heartbeat IPC: 0.780272 cumulative IPC: 0.874476 (Simulation time: 15 hr 31 min 51 sec) 
 Total Blocks : 196608 Invalid Blocks : 0 Valid Blocks : 196608
 Total Tags : 491520 Threshold : 12288 Invalid Tags : 196608 Pr0 Tags : 98304 Pr1 Tags : 196608 num_pr0 : 12288
 SAE Count : 0
 Inter-Core Inteference in Data Store : 85476416
Heartbeat CPU 7 instructions: 80000000 cycles: 91728865 heartbeat IPC: 0.778345 cumulative IPC: 0.872136 (Simulation time: 15 hr 34 min 11 sec) 
 Total Blocks : 196608 Invalid Blocks : 0 Valid Blocks : 196608
 Total Tags : 491520 Threshold : 12288 Invalid Tags : 196608 Pr0 Tags : 98304 Pr1 Tags : 196608 num_pr0 : 12288
 SAE Count : 0
 Inter-Core Inteference in Data Store : 85716922
Heartbeat CPU 0 instructions: 90000003 cycles: 102159987 heartbeat IPC: 0.797928 cumulative IPC: 0.880971 (Simulation time: 17 hr 9 min 14 sec) 
 Total Blocks : 196608 Invalid Blocks : 0 Valid Blocks : 196608
 Total Tags : 491520 Threshold : 12288 Invalid Tags : 196608 Pr0 Tags : 98304 Pr1 Tags : 196608 num_pr0 : 12288
 SAE Count : 0
 Inter-Core Inteference in Data Store : 96149417
Heartbeat CPU 1 instructions: 90000003 cycles: 102598666 heartbeat IPC: 0.794359 cumulative IPC: 0.877204 (Simulation time: 17 hr 13 min 9 sec) 
 Total Blocks : 196608 Invalid Blocks : 0 Valid Blocks : 196608
 Total Tags : 491520 Threshold : 12288 Invalid Tags : 196608 Pr0 Tags : 98304 Pr1 Tags : 196608 num_pr0 : 12288
 SAE Count : 0
 Inter-Core Inteference in Data Store : 96602772
Heartbeat CPU 2 instructions: 90000003 cycles: 102991372 heartbeat IPC: 0.7911 cumulative IPC: 0.87386 (Simulation time: 17 hr 16 min 34 sec) 
 Total Blocks : 196608 Invalid Blocks : 0 Valid Blocks : 196608
 Total Tags : 491520 Threshold : 12288 Invalid Tags : 196608 Pr0 Tags : 98304 Pr1 Tags : 196608 num_pr0 : 12288
 SAE Count : 0
 Inter-Core Inteference in Data Store : 97009886
Heartbeat CPU 3 instructions: 90000003 cycles: 103334689 heartbeat IPC: 0.788256 cumulative IPC: 0.870956 (Simulation time: 17 hr 19 min 37 sec) 
 Total Blocks : 196608 Invalid Blocks : 0 Valid Blocks : 196608
 Total Tags : 491520 Threshold : 12288 Invalid Tags : 196608 Pr0 Tags : 98304 Pr1 Tags : 196608 num_pr0 : 12288
 SAE Count : 0
 Inter-Core Inteference in Data Store : 97364779
Heartbeat CPU 4 instructions: 90000003 cycles: 103676523 heartbeat IPC: 0.785448 cumulative IPC: 0.868085 (Simulation time: 17 hr 22 min 40 sec) 
 Total Blocks : 196608 Invalid Blocks : 0 Valid Blocks : 196608
 Total Tags : 491520 Threshold : 12288 Invalid Tags : 196608 Pr0 Tags : 98304 Pr1 Tags : 196608 num_pr0 : 12288
 SAE Count : 0
 Inter-Core Inteference in Data Store : 97716897
Heartbeat CPU 5 instructions: 90000003 cycles: 103981288 heartbeat IPC: 0.78293 cumulative IPC: 0.86554 (Simulation time: 17 hr 25 min 24 sec) 
 Total Blocks : 196608 Invalid Blocks : 0 Valid Blocks : 196608
 Total Tags : 491520 Threshold : 12288 Invalid Tags : 196608 Pr0 Tags : 98304 Pr1 Tags : 196608 num_pr0 : 12288
 SAE Count : 0
 Inter-Core Inteference in Data Store : 98028370
Heartbeat CPU 6 instructions: 90000003 cycles: 104292816 heartbeat IPC: 0.78067 cumulative IPC: 0.862955 (Simulation time: 17 hr 28 min 14 sec) 
 Total Blocks : 196608 Invalid Blocks : 0 Valid Blocks : 196608
 Total Tags : 491520 Threshold : 12288 Invalid Tags : 196608 Pr0 Tags : 98304 Pr1 Tags : 196608 num_pr0 : 12288
 SAE Count : 0
 Inter-Core Inteference in Data Store : 98333338
Heartbeat CPU 7 instructions: 90000003 cycles: 104580060 heartbeat IPC: 0.778138 cumulative IPC: 0.860585 (Simulation time: 17 hr 30 min 48 sec) 
 Total Blocks : 196608 Invalid Blocks : 0 Valid Blocks : 196608
 Total Tags : 491520 Threshold : 12288 Invalid Tags : 196608 Pr0 Tags : 98304 Pr1 Tags : 196608 num_pr0 : 12288
 SAE Count : 0
 Inter-Core Inteference in Data Store : 98616482
Heartbeat CPU 0 instructions: 100000000 cycles: 114526358 heartbeat IPC: 0.808644 cumulative IPC: 0.873161 (Simulation time: 18 hr 58 min 6 sec) 
 Total Blocks : 196608 Invalid Blocks : 0 Valid Blocks : 196608
 Total Tags : 491520 Threshold : 12288 Invalid Tags : 196608 Pr0 Tags : 98304 Pr1 Tags : 196608 num_pr0 : 12288
 SAE Count : 0
 Inter-Core Inteference in Data Store : 108367980
Heartbeat CPU 1 instructions: 100000000 cycles: 115020940 heartbeat IPC: 0.805005 cumulative IPC: 0.869407 (Simulation time: 19 hr 2 min 15 sec) 
 Total Blocks : 196608 Invalid Blocks : 0 Valid Blocks : 196608
 Total Tags : 491520 Threshold : 12288 Invalid Tags : 196608 Pr0 Tags : 98304 Pr1 Tags : 196608 num_pr0 : 12288
 SAE Count : 0
 Inter-Core Inteference in Data Store : 108876211
Heartbeat CPU 2 instructions: 100000000 cycles: 115465434 heartbeat IPC: 0.801663 cumulative IPC: 0.86606 (Simulation time: 19 hr 5 min 52 sec) 
 Total Blocks : 196608 Invalid Blocks : 0 Valid Blocks : 196608
 Total Tags : 491520 Threshold : 12288 Invalid Tags : 196608 Pr0 Tags : 98304 Pr1 Tags : 196608 num_pr0 : 12288
 SAE Count : 0
 Inter-Core Inteference in Data Store : 109335225
Heartbeat CPU 3 instructions: 100000000 cycles: 115853671 heartbeat IPC: 0.798787 cumulative IPC: 0.863158 (Simulation time: 19 hr 9 min 3 sec) 
 Total Blocks : 196608 Invalid Blocks : 0 Valid Blocks : 196608
 Total Tags : 491520 Threshold : 12288 Invalid Tags : 196608 Pr0 Tags : 98304 Pr1 Tags : 196608 num_pr0 : 12288
 SAE Count : 0
 Inter-Core Inteference in Data Store : 109736081
Heartbeat CPU 4 instructions: 100000000 cycles: 116238328 heartbeat IPC: 0.796064 cumulative IPC: 0.860301 (Simulation time: 19 hr 12 min 18 sec) 
 Total Blocks : 196608 Invalid Blocks : 0 Valid Blocks : 196608
 Total Tags : 491520 Threshold : 12288 Invalid Tags : 196608 Pr0 Tags : 98304 Pr1 Tags : 196608 num_pr0 : 12288
 SAE Count : 0
 Inter-Core Inteference in Data Store : 110128546
Heartbeat CPU 5 instructions: 100000000 cycles: 116583358 heartbeat IPC: 0.79352 cumulative IPC: 0.857755 (Simulation time: 19 hr 15 min 7 sec) 
 Total Blocks : 196608 Invalid Blocks : 0 Valid Blocks : 196608
 Total Tags : 491520 Threshold : 12288 Invalid Tags : 196608 Pr0 Tags : 98304 Pr1 Tags : 196608 num_pr0 : 12288
 SAE Count : 0
 Inter-Core Inteference in Data Store : 110475009
FILL
Heartbeat CPU 6 instructions: 100000000 cycles: 116930898 heartbeat IPC: 0.791259 cumulative IPC: 0.855206 (Simulation time: 19 hr 18 min 4 sec) 
 Total Blocks : 196608 Invalid Blocks : 0 Valid Blocks : 196608
 Total Tags : 491520 Threshold : 12288 Invalid Tags : 196608 Pr0 Tags : 98304 Pr1 Tags : 196608 num_pr0 : 12288
 SAE Count : 0
 Inter-Core Inteference in Data Store : 110827118
Heartbeat CPU 7 instructions: 100000000 cycles: 117257293 heartbeat IPC: 0.788815 cumulative IPC: 0.852825 (Simulation time: 19 hr 20 min 52 sec) 
 Total Blocks : 196608 Invalid Blocks : 0 Valid Blocks : 196608
 Total Tags : 491520 Threshold : 12288 Invalid Tags : 196608 Pr0 Tags : 98304 Pr1 Tags : 196608 num_pr0 : 12288
 SAE Count : 0
 Inter-Core Inteference in Data Store : 111159449
Heartbeat CPU 0 instructions: 110000000 cycles: 127133496 heartbeat IPC: 0.793201 cumulative IPC: 0.865232 (Simulation time: 20 hr 43 min 34 sec) 
 Total Blocks : 196608 Invalid Blocks : 0 Valid Blocks : 196608
 Total Tags : 491520 Threshold : 12288 Invalid Tags : 196608 Pr0 Tags : 98304 Pr1 Tags : 196608 num_pr0 : 12288
 SAE Count : 0
 Inter-Core Inteference in Data Store : 121148736
Heartbeat CPU 1 instructions: 110000000 cycles: 127686581 heartbeat IPC: 0.789538 cumulative IPC: 0.861484 (Simulation time: 20 hr 48 min 8 sec) 
 Total Blocks : 196608 Invalid Blocks : 0 Valid Blocks : 196608
 Total Tags : 491520 Threshold : 12288 Invalid Tags : 196608 Pr0 Tags : 98304 Pr1 Tags : 196608 num_pr0 : 12288
 SAE Count : 0
 Inter-Core Inteference in Data Store : 121710636
Heartbeat CPU 2 instructions: 110000000 cycles: 128180597 heartbeat IPC: 0.786463 cumulative IPC: 0.858164 (Simulation time: 20 hr 52 min 17 sec) 
 Total Blocks : 196608 Invalid Blocks : 0 Valid Blocks : 196608
 Total Tags : 491520 Threshold : 12288 Invalid Tags : 196608 Pr0 Tags : 98304 Pr1 Tags : 196608 num_pr0 : 12288
 SAE Count : 0
 Inter-Core Inteference in Data Store : 122203380
Heartbeat CPU 3 instructions: 110000000 cycles: 128619081 heartbeat IPC: 0.783367 cumulative IPC: 0.855239 (Simulation time: 20 hr 56 min 11 sec) 
 Total Blocks : 196608 Invalid Blocks : 0 Valid Blocks : 196608
 Total Tags : 491520 Threshold : 12288 Invalid Tags : 196608 Pr0 Tags : 98304 Pr1 Tags : 196608 num_pr0 : 12288
 SAE Count : 0
 Inter-Core Inteference in Data Store : 122635384
Heartbeat CPU 4 instructions: 110000000 cycles: 129046930 heartbeat IPC: 0.780725 cumulative IPC: 0.852403 (Simulation time: 20 hr 59 min 43 sec) 
 Total Blocks : 196608 Invalid Blocks : 0 Valid Blocks : 196608
 Total Tags : 491520 Threshold : 12288 Invalid Tags : 196608 Pr0 Tags : 98304 Pr1 Tags : 196608 num_pr0 : 12288
 SAE Count : 0
 Inter-Core Inteference in Data Store : 123063405
Heartbeat CPU 5 instructions: 110000000 cycles: 129433486 heartbeat IPC: 0.778202 cumulative IPC: 0.849857 (Simulation time: 21 hr 3 min 5 sec) 
 Total Blocks : 196608 Invalid Blocks : 0 Valid Blocks : 196608
 Total Tags : 491520 Threshold : 12288 Invalid Tags : 196608 Pr0 Tags : 98304 Pr1 Tags : 196608 num_pr0 : 12288
 SAE Count : 0
 Inter-Core Inteference in Data Store : 123440929
Heartbeat CPU 6 instructions: 110000000 cycles: 129821672 heartbeat IPC: 0.775749 cumulative IPC: 0.847316 (Simulation time: 21 hr 6 min 25 sec) 
 Total Blocks : 196608 Invalid Blocks : 0 Valid Blocks : 196608
 Total Tags : 491520 Threshold : 12288 Invalid Tags : 196608 Pr0 Tags : 98304 Pr1 Tags : 196608 num_pr0 : 12288
 SAE Count : 0
 Inter-Core Inteference in Data Store : 123818695
Heartbeat CPU 7 instructions: 110000000 cycles: 130188819 heartbeat IPC: 0.773304 cumulative IPC: 0.844927 (Simulation time: 21 hr 9 min 38 sec) 
 Total Blocks : 196608 Invalid Blocks : 0 Valid Blocks : 196608
 Total Tags : 491520 Threshold : 12288 Invalid Tags : 196608 Pr0 Tags : 98304 Pr1 Tags : 196608 num_pr0 : 12288
 SAE Count : 0
 Inter-Core Inteference in Data Store : 124173283
Heartbeat CPU 0 instructions: 120000000 cycles: 139626136 heartbeat IPC: 0.800471 cumulative IPC: 0.859438 (Simulation time: 22 hr 28 min 23 sec) 
 Total Blocks : 196608 Invalid Blocks : 0 Valid Blocks : 196608
 Total Tags : 491520 Threshold : 12288 Invalid Tags : 196608 Pr0 Tags : 98304 Pr1 Tags : 196608 num_pr0 : 12288
 SAE Count : 0
 Inter-Core Inteference in Data Store : 133615515
Heartbeat CPU 1 instructions: 120000000 cycles: 140238120 heartbeat IPC: 0.796715 cumulative IPC: 0.855687 (Simulation time: 22 hr 33 min 30 sec) 
 Total Blocks : 196608 Invalid Blocks : 0 Valid Blocks : 196608
 Total Tags : 491520 Threshold : 12288 Invalid Tags : 196608 Pr0 Tags : 98304 Pr1 Tags : 196608 num_pr0 : 12288
 SAE Count : 0
 Inter-Core Inteference in Data Store : 134232543
Heartbeat CPU 2 instructions: 120000000 cycles: 140782171 heartbeat IPC: 0.793552 cumulative IPC: 0.852381 (Simulation time: 22 hr 37 min 55 sec) 
 Total Blocks : 196608 Invalid Blocks : 0 Valid Blocks : 196608
 Total Tags : 491520 Threshold : 12288 Invalid Tags : 196608 Pr0 Tags : 98304 Pr1 Tags : 196608 num_pr0 : 12288
 SAE Count : 0
 Inter-Core Inteference in Data Store : 134784593
Heartbeat CPU 3 instructions: 120000000 cycles: 141265033 heartbeat IPC: 0.790767 cumulative IPC: 0.849467 (Simulation time: 22 hr 41 min 53 sec) 
 Total Blocks : 196608 Invalid Blocks : 0 Valid Blocks : 196608
 Total Tags : 491520 Threshold : 12288 Invalid Tags : 196608 Pr0 Tags : 98304 Pr1 Tags : 196608 num_pr0 : 12288
 SAE Count : 0
 Inter-Core Inteference in Data Store : 135272688
Heartbeat CPU 4 instructions: 120000000 cycles: 141735886 heartbeat IPC: 0.788087 cumulative IPC: 0.846645 (Simulation time: 22 hr 45 min 50 sec) 
 Total Blocks : 196608 Invalid Blocks : 0 Valid Blocks : 196608
 Total Tags : 491520 Threshold : 12288 Invalid Tags : 196608 Pr0 Tags : 98304 Pr1 Tags : 196608 num_pr0 : 12288
 SAE Count : 0
 Inter-Core Inteference in Data Store : 135745196
Heartbeat CPU 5 instructions: 120000000 cycles: 142160310 heartbeat IPC: 0.785742 cumulative IPC: 0.844117 (Simulation time: 22 hr 49 min 26 sec) 
 Total Blocks : 196608 Invalid Blocks : 0 Valid Blocks : 196608
 Total Tags : 491520 Threshold : 12288 Invalid Tags : 196608 Pr0 Tags : 98304 Pr1 Tags : 196608 num_pr0 : 12288
 SAE Count : 0
 Inter-Core Inteference in Data Store : 136169299
Heartbeat CPU 6 instructions: 120000000 cycles: 142590916 heartbeat IPC: 0.783132 cumulative IPC: 0.841568 (Simulation time: 22 hr 52 min 54 sec) 
 Total Blocks : 196608 Invalid Blocks : 0 Valid Blocks : 196608
 Total Tags : 491520 Threshold : 12288 Invalid Tags : 196608 Pr0 Tags : 98304 Pr1 Tags : 196608 num_pr0 : 12288
 SAE Count : 0
 Inter-Core Inteference in Data Store : 136603890
Heartbeat CPU 7 instructions: 120000000 cycles: 142993296 heartbeat IPC: 0.780977 cumulative IPC: 0.8392 (Simulation time: 22 hr 56 min 17 sec) 
 Total Blocks : 196608 Invalid Blocks : 0 Valid Blocks : 196608
 Total Tags : 491520 Threshold : 12288 Invalid Tags : 196608 Pr0 Tags : 98304 Pr1 Tags : 196608 num_pr0 : 12288
 SAE Count : 0
 Inter-Core Inteference in Data Store : 137005047
Heartbeat CPU 0 instructions: 130000003 cycles: 152102041 heartbeat IPC: 0.801545 cumulative IPC: 0.854689 (Simulation time: 24 hr 9 min 46 sec) 
 Total Blocks : 196608 Invalid Blocks : 0 Valid Blocks : 196608
 Total Tags : 491520 Threshold : 12288 Invalid Tags : 196608 Pr0 Tags : 98304 Pr1 Tags : 196608 num_pr0 : 12288
 SAE Count : 0
 Inter-Core Inteference in Data Store : 146177353
Heartbeat CPU 1 instructions: 130000003 cycles: 152773536 heartbeat IPC: 0.79774 cumulative IPC: 0.850933 (Simulation time: 24 hr 15 min 9 sec) 
 Total Blocks : 196608 Invalid Blocks : 0 Valid Blocks : 196608
 Total Tags : 491520 Threshold : 12288 Invalid Tags : 196608 Pr0 Tags : 98304 Pr1 Tags : 196608 num_pr0 : 12288
 SAE Count : 0
 Inter-Core Inteference in Data Store : 146841335
Heartbeat CPU 2 instructions: 130000003 cycles: 153368040 heartbeat IPC: 0.794542 cumulative IPC: 0.847634 (Simulation time: 24 hr 19 min 51 sec) 
 Total Blocks : 196608 Invalid Blocks : 0 Valid Blocks : 196608
 Total Tags : 491520 Threshold : 12288 Invalid Tags : 196608 Pr0 Tags : 98304 Pr1 Tags : 196608 num_pr0 : 12288
 SAE Count : 0
 Inter-Core Inteference in Data Store : 147426342
Heartbeat CPU 3 instructions: 130000003 cycles: 153890409 heartbeat IPC: 0.792056 cumulative IPC: 0.844757 (Simulation time: 24 hr 23 min 59 sec) 
 Total Blocks : 196608 Invalid Blocks : 0 Valid Blocks : 196608
 Total Tags : 491520 Threshold : 12288 Invalid Tags : 196608 Pr0 Tags : 98304 Pr1 Tags : 196608 num_pr0 : 12288
 SAE Count : 0
 Inter-Core Inteference in Data Store : 147930817
Heartbeat CPU 4 instructions: 130000003 cycles: 154406511 heartbeat IPC: 0.789227 cumulative IPC: 0.841933 (Simulation time: 24 hr 28 min 10 sec) 
 Total Blocks : 196608 Invalid Blocks : 0 Valid Blocks : 196608
 Total Tags : 491520 Threshold : 12288 Invalid Tags : 196608 Pr0 Tags : 98304 Pr1 Tags : 196608 num_pr0 : 12288
 SAE Count : 0
 Inter-Core Inteference in Data Store : 148432797
Heartbeat CPU 5 instructions: 130000003 cycles: 154869339 heartbeat IPC: 0.786842 cumulative IPC: 0.839417 (Simulation time: 24 hr 31 min 54 sec) 
 Total Blocks : 196608 Invalid Blocks : 0 Valid Blocks : 196608
 Total Tags : 491520 Threshold : 12288 Invalid Tags : 196608 Pr0 Tags : 98304 Pr1 Tags : 196608 num_pr0 : 12288
 SAE Count : 0
 Inter-Core Inteference in Data Store : 148879798
Heartbeat CPU 6 instructions: 130000003 cycles: 155340327 heartbeat IPC: 0.78435 cumulative IPC: 0.836872 (Simulation time: 24 hr 35 min 44 sec) 
 Total Blocks : 196608 Invalid Blocks : 0 Valid Blocks : 196608
 Total Tags : 491520 Threshold : 12288 Invalid Tags : 196608 Pr0 Tags : 98304 Pr1 Tags : 196608 num_pr0 : 12288
 SAE Count : 0
 Inter-Core Inteference in Data Store : 149333390
Heartbeat CPU 7 instructions: 130000003 cycles: 155778763 heartbeat IPC: 0.782138 cumulative IPC: 0.834517 (Simulation time: 24 hr 39 min 19 sec) 
 Total Blocks : 196608 Invalid Blocks : 0 Valid Blocks : 196608
 Total Tags : 491520 Threshold : 12288 Invalid Tags : 196608 Pr0 Tags : 98304 Pr1 Tags : 196608 num_pr0 : 12288
 SAE Count : 0
 Inter-Core Inteference in Data Store : 149754053
Heartbeat CPU 0 instructions: 140000001 cycles: 164522029 heartbeat IPC: 0.805154 cumulative IPC: 0.85095 (Simulation time: 25 hr 48 min 57 sec) 
 Total Blocks : 196608 Invalid Blocks : 0 Valid Blocks : 196608
 Total Tags : 491520 Threshold : 12288 Invalid Tags : 196608 Pr0 Tags : 98304 Pr1 Tags : 196608 num_pr0 : 12288
 SAE Count : 0
 Inter-Core Inteference in Data Store : 158527904
Heartbeat CPU 1 instructions: 140000001 cycles: 165255204 heartbeat IPC: 0.801175 cumulative IPC: 0.847175 (Simulation time: 25 hr 55 min 0 sec) 
 Total Blocks : 196608 Invalid Blocks : 0 Valid Blocks : 196608
 Total Tags : 491520 Threshold : 12288 Invalid Tags : 196608 Pr0 Tags : 98304 Pr1 Tags : 196608 num_pr0 : 12288
 SAE Count : 0
 Inter-Core Inteference in Data Store : 159254157
Heartbeat CPU 2 instructions: 140000001 cycles: 165903848 heartbeat IPC: 0.797715 cumulative IPC: 0.843862 (Simulation time: 26 hr 0 min 23 sec) 
 Total Blocks : 196608 Invalid Blocks : 0 Valid Blocks : 196608
 Total Tags : 491520 Threshold : 12288 Invalid Tags : 196608 Pr0 Tags : 98304 Pr1 Tags : 196608 num_pr0 : 12288
 SAE Count : 0
 Inter-Core Inteference in Data Store : 159883714
Heartbeat CPU 3 instructions: 140000001 cycles: 166472509 heartbeat IPC: 0.79478 cumulative IPC: 0.84098 (Simulation time: 26 hr 5 min 5 sec) 
 Total Blocks : 196608 Invalid Blocks : 0 Valid Blocks : 196608
 Total Tags : 491520 Threshold : 12288 Invalid Tags : 196608 Pr0 Tags : 98304 Pr1 Tags : 196608 num_pr0 : 12288
 SAE Count : 0
 Inter-Core Inteference in Data Store : 160439848
Heartbeat CPU 4 instructions: 140000001 cycles: 167031736 heartbeat IPC: 0.792065 cumulative IPC: 0.838164 (Simulation time: 26 hr 9 min 40 sec) 
 Total Blocks : 196608 Invalid Blocks : 0 Valid Blocks : 196608
 Total Tags : 491520 Threshold : 12288 Invalid Tags : 196608 Pr0 Tags : 98304 Pr1 Tags : 196608 num_pr0 : 12288
 SAE Count : 0
 Inter-Core Inteference in Data Store : 160987025
Heartbeat CPU 5 instructions: 140000001 cycles: 167538171 heartbeat IPC: 0.789339 cumulative IPC: 0.83563 (Simulation time: 26 hr 13 min 44 sec) 
 Total Blocks : 196608 Invalid Blocks : 0 Valid Blocks : 196608
 Total Tags : 491520 Threshold : 12288 Invalid Tags : 196608 Pr0 Tags : 98304 Pr1 Tags : 196608 num_pr0 : 12288
 SAE Count : 0
 Inter-Core Inteference in Data Store : 161480124
Heartbeat CPU 6 instructions: 140000001 cycles: 168049090 heartbeat IPC: 0.786858 cumulative IPC: 0.83309 (Simulation time: 26 hr 17 min 51 sec) 
 Total Blocks : 196608 Invalid Blocks : 0 Valid Blocks : 196608
 Total Tags : 491520 Threshold : 12288 Invalid Tags : 196608 Pr0 Tags : 98304 Pr1 Tags : 196608 num_pr0 : 12288
 SAE Count : 0
 Inter-Core Inteference in Data Store : 161972780
Heartbeat CPU 7 instructions: 140000001 cycles: 168527054 heartbeat IPC: 0.784419 cumulative IPC: 0.830727 (Simulation time: 26 hr 21 min 39 sec) 
 Total Blocks : 196608 Invalid Blocks : 0 Valid Blocks : 196608
 Total Tags : 491520 Threshold : 12288 Invalid Tags : 196608 Pr0 Tags : 98304 Pr1 Tags : 196608 num_pr0 : 12288
 SAE Count : 0
 Inter-Core Inteference in Data Store : 162436153
Heartbeat CPU 0 instructions: 150000000 cycles: 177017152 heartbeat IPC: 0.800312 cumulative IPC: 0.847376 (Simulation time: 27 hr 28 min 20 sec) 
 Total Blocks : 196608 Invalid Blocks : 0 Valid Blocks : 196608
 Total Tags : 491520 Threshold : 12288 Invalid Tags : 196608 Pr0 Tags : 98304 Pr1 Tags : 196608 num_pr0 : 12288
 SAE Count : 0
 Inter-Core Inteference in Data Store : 170891442
Heartbeat CPU 1 instructions: 150000000 cycles: 177806731 heartbeat IPC: 0.796716 cumulative IPC: 0.843613 (Simulation time: 27 hr 34 min 24 sec) 
 Total Blocks : 196608 Invalid Blocks : 0 Valid Blocks : 196608
 Total Tags : 491520 Threshold : 12288 Invalid Tags : 196608 Pr0 Tags : 98304 Pr1 Tags : 196608 num_pr0 : 12288
 SAE Count : 0
 Inter-Core Inteference in Data Store : 171695721
Heartbeat CPU 2 instructions: 150000000 cycles: 178503176 heartbeat IPC: 0.793693 cumulative IPC: 0.840321 (Simulation time: 27 hr 39 min 46 sec) 
 Total Blocks : 196608 Invalid Blocks : 0 Valid Blocks : 196608
 Total Tags : 491520 Threshold : 12288 Invalid Tags : 196608 Pr0 Tags : 98304 Pr1 Tags : 196608 num_pr0 : 12288
 SAE Count : 0
 Inter-Core Inteference in Data Store : 172388181
Heartbeat CPU 3 instructions: 150000000 cycles: 179115420 heartbeat IPC: 0.790957 cumulative IPC: 0.837449 (Simulation time: 27 hr 44 min 26 sec) 
 Total Blocks : 196608 Invalid Blocks : 0 Valid Blocks : 196608
 Total Tags : 491520 Threshold : 12288 Invalid Tags : 196608 Pr0 Tags : 98304 Pr1 Tags : 196608 num_pr0 : 12288
 SAE Count : 0
 Inter-Core Inteference in Data Store : 173000742
Heartbeat CPU 4 instructions: 150000000 cycles: 179717836 heartbeat IPC: 0.788264 cumulative IPC: 0.834642 (Simulation time: 27 hr 48 min 59 sec) 
 Total Blocks : 196608 Invalid Blocks : 0 Valid Blocks : 196608
 Total Tags : 491520 Threshold : 12288 Invalid Tags : 196608 Pr0 Tags : 98304 Pr1 Tags : 196608 num_pr0 : 12288
 SAE Count : 0
 Inter-Core Inteference in Data Store : 173604770
Heartbeat CPU 5 instructions: 150000000 cycles: 180263137 heartbeat IPC: 0.785857 cumulative IPC: 0.832117 (Simulation time: 27 hr 53 min 3 sec) 
 Total Blocks : 196608 Invalid Blocks : 0 Valid Blocks : 196608
 Total Tags : 491520 Threshold : 12288 Invalid Tags : 196608 Pr0 Tags : 98304 Pr1 Tags : 196608 num_pr0 : 12288
 SAE Count : 0
 Inter-Core Inteference in Data Store : 174151498
Heartbeat CPU 6 instructions: 150000000 cycles: 180813294 heartbeat IPC: 0.783441 cumulative IPC: 0.829585 (Simulation time: 27 hr 57 min 10 sec) 
 Total Blocks : 196608 Invalid Blocks : 0 Valid Blocks : 196608
 Total Tags : 491520 Threshold : 12288 Invalid Tags : 196608 Pr0 Tags : 98304 Pr1 Tags : 196608 num_pr0 : 12288
 SAE Count : 0
 Inter-Core Inteference in Data Store : 174693552
Heartbeat CPU 7 instructions: 150000000 cycles: 181329289 heartbeat IPC: 0.781114 cumulative IPC: 0.827224 (Simulation time: 28 hr 1 min 4 sec) 
 Total Blocks : 196608 Invalid Blocks : 0 Valid Blocks : 196608
 Total Tags : 491520 Threshold : 12288 Invalid Tags : 196608 Pr0 Tags : 98304 Pr1 Tags : 196608 num_pr0 : 12288
 SAE Count : 0
 Inter-Core Inteference in Data Store : 175207784
Heartbeat CPU 0 instructions: 160000000 cycles: 189467426 heartbeat IPC: 0.803195 cumulative IPC: 0.844472 (Simulation time: 29 hr 3 min 4 sec) 
 Total Blocks : 196608 Invalid Blocks : 0 Valid Blocks : 196608
 Total Tags : 491520 Threshold : 12288 Invalid Tags : 196608 Pr0 Tags : 98304 Pr1 Tags : 196608 num_pr0 : 12288
 SAE Count : 0
 Inter-Core Inteference in Data Store : 183245113
Heartbeat CPU 1 instructions: 160000000 cycles: 190313506 heartbeat IPC: 0.799567 cumulative IPC: 0.840718 (Simulation time: 29 hr 9 min 34 sec) 
 Total Blocks : 196608 Invalid Blocks : 0 Valid Blocks : 196608
 Total Tags : 491520 Threshold : 12288 Invalid Tags : 196608 Pr0 Tags : 98304 Pr1 Tags : 196608 num_pr0 : 12288
 SAE Count : 0
 Inter-Core Inteference in Data Store : 184086697
Heartbeat CPU 2 instructions: 160000000 cycles: 191060775 heartbeat IPC: 0.796331 cumulative IPC: 0.83743 (Simulation time: 29 hr 15 min 19 sec) 
 Total Blocks : 196608 Invalid Blocks : 0 Valid Blocks : 196608
 Total Tags : 491520 Threshold : 12288 Invalid Tags : 196608 Pr0 Tags : 98304 Pr1 Tags : 196608 num_pr0 : 12288
 SAE Count : 0
 Inter-Core Inteference in Data Store : 184838204
Heartbeat CPU 3 instructions: 160000000 cycles: 191720624 heartbeat IPC: 0.793323 cumulative IPC: 0.834548 (Simulation time: 29 hr 20 min 29 sec) 
 Total Blocks : 196608 Invalid Blocks : 0 Valid Blocks : 196608
 Total Tags : 491520 Threshold : 12288 Invalid Tags : 196608 Pr0 Tags : 98304 Pr1 Tags : 196608 num_pr0 : 12288
 SAE Count : 0
 Inter-Core Inteference in Data Store : 185506072
Heartbeat CPU 4 instructions: 160000000 cycles: 192363436 heartbeat IPC: 0.790789 cumulative IPC: 0.831759 (Simulation time: 29 hr 25 min 24 sec) 
 Total Blocks : 196608 Invalid Blocks : 0 Valid Blocks : 196608
 Total Tags : 491520 Threshold : 12288 Invalid Tags : 196608 Pr0 Tags : 98304 Pr1 Tags : 196608 num_pr0 : 12288
 SAE Count : 0
 Inter-Core Inteference in Data Store : 186162036
Heartbeat CPU 5 instructions: 160000000 cycles: 192948435 heartbeat IPC: 0.788314 cumulative IPC: 0.829237 (Simulation time: 29 hr 29 min 58 sec) 
 Total Blocks : 196608 Invalid Blocks : 0 Valid Blocks : 196608
 Total Tags : 491520 Threshold : 12288 Invalid Tags : 196608 Pr0 Tags : 98304 Pr1 Tags : 196608 num_pr0 : 12288
 SAE Count : 0
 Inter-Core Inteference in Data Store : 186755544
Heartbeat CPU 6 instructions: 160000000 cycles: 193538273 heartbeat IPC: 0.785856 cumulative IPC: 0.82671 (Simulation time: 29 hr 34 min 34 sec) 
 Total Blocks : 196608 Invalid Blocks : 0 Valid Blocks : 196608
 Total Tags : 491520 Threshold : 12288 Invalid Tags : 196608 Pr0 Tags : 98304 Pr1 Tags : 196608 num_pr0 : 12288
 SAE Count : 0
 Inter-Core Inteference in Data Store : 187355398
Heartbeat CPU 7 instructions: 160000000 cycles: 194093580 heartbeat IPC: 0.783436 cumulative IPC: 0.824345 (Simulation time: 29 hr 38 min 48 sec) 
 Total Blocks : 196608 Invalid Blocks : 0 Valid Blocks : 196608
 Total Tags : 491520 Threshold : 12288 Invalid Tags : 196608 Pr0 Tags : 98304 Pr1 Tags : 196608 num_pr0 : 12288
 SAE Count : 0
 Inter-Core Inteference in Data Store : 187921967
Heartbeat CPU 0 instructions: 170000002 cycles: 202049450 heartbeat IPC: 0.794785 cumulative IPC: 0.841378 (Simulation time: 30 hr 40 min 2 sec) 
 Total Blocks : 196608 Invalid Blocks : 0 Valid Blocks : 196608
 Total Tags : 491520 Threshold : 12288 Invalid Tags : 196608 Pr0 Tags : 98304 Pr1 Tags : 196608 num_pr0 : 12288
 SAE Count : 0
 Inter-Core Inteference in Data Store : 195962502
Heartbeat CPU 1 instructions: 170000002 cycles: 202951888 heartbeat IPC: 0.791241 cumulative IPC: 0.837637 (Simulation time: 30 hr 47 min 5 sec) 
 Total Blocks : 196608 Invalid Blocks : 0 Valid Blocks : 196608
 Total Tags : 491520 Threshold : 12288 Invalid Tags : 196608 Pr0 Tags : 98304 Pr1 Tags : 196608 num_pr0 : 12288
 SAE Count : 0
 Inter-Core Inteference in Data Store : 196853576
Heartbeat CPU 2 instructions: 170000002 cycles: 203747604 heartbeat IPC: 0.788219 cumulative IPC: 0.834366 (Simulation time: 30 hr 53 min 18 sec) 
 Total Blocks : 196608 Invalid Blocks : 0 Valid Blocks : 196608
 Total Tags : 491520 Threshold : 12288 Invalid Tags : 196608 Pr0 Tags : 98304 Pr1 Tags : 196608 num_pr0 : 12288
 SAE Count : 0
 Inter-Core Inteference in Data Store : 197636675
Heartbeat CPU 3 instructions: 170000002 cycles: 204452948 heartbeat IPC: 0.785403 cumulative IPC: 0.831487 (Simulation time: 30 hr 58 min 47 sec) 
 Total Blocks : 196608 Invalid Blocks : 0 Valid Blocks : 196608
 Total Tags : 491520 Threshold : 12288 Invalid Tags : 196608 Pr0 Tags : 98304 Pr1 Tags : 196608 num_pr0 : 12288
 SAE Count : 0
 Inter-Core Inteference in Data Store : 198341537
Heartbeat CPU 4 instructions: 170000002 cycles: 205139977 heartbeat IPC: 0.782685 cumulative IPC: 0.828702 (Simulation time: 31 hr 4 min 9 sec) 
 Total Blocks : 196608 Invalid Blocks : 0 Valid Blocks : 196608
 Total Tags : 491520 Threshold : 12288 Invalid Tags : 196608 Pr0 Tags : 98304 Pr1 Tags : 196608 num_pr0 : 12288
 SAE Count : 0
 Inter-Core Inteference in Data Store : 199027459
Heartbeat CPU 5 instructions: 170000002 cycles: 205766202 heartbeat IPC: 0.780167 cumulative IPC: 0.82618 (Simulation time: 31 hr 9 min 4 sec) 
 Total Blocks : 196608 Invalid Blocks : 0 Valid Blocks : 196608
 Total Tags : 491520 Threshold : 12288 Invalid Tags : 196608 Pr0 Tags : 98304 Pr1 Tags : 196608 num_pr0 : 12288
 SAE Count : 0
 Inter-Core Inteference in Data Store : 199653209
Heartbeat CPU 6 instructions: 170000002 cycles: 206393821 heartbeat IPC: 0.777874 cumulative IPC: 0.823668 (Simulation time: 31 hr 14 min 1 sec) 
 Total Blocks : 196608 Invalid Blocks : 0 Valid Blocks : 196608
 Total Tags : 491520 Threshold : 12288 Invalid Tags : 196608 Pr0 Tags : 98304 Pr1 Tags : 196608 num_pr0 : 12288
 SAE Count : 0
 Inter-Core Inteference in Data Store : 200283496
Heartbeat CPU 7 instructions: 170000002 cycles: 206989237 heartbeat IPC: 0.775455 cumulative IPC: 0.821299 (Simulation time: 31 hr 18 min 41 sec) 
 Total Blocks : 196608 Invalid Blocks : 0 Valid Blocks : 196608
 Total Tags : 491520 Threshold : 12288 Invalid Tags : 196608 Pr0 Tags : 98304 Pr1 Tags : 196608 num_pr0 : 12288
 SAE Count : 0
 Inter-Core Inteference in Data Store : 200871380
Heartbeat CPU 0 instructions: 180000000 cycles: 214503714 heartbeat IPC: 0.802938 cumulative IPC: 0.839146 (Simulation time: 34 hr 13 min 29 sec) 
 Total Blocks : 196608 Invalid Blocks : 0 Valid Blocks : 196608
 Total Tags : 491520 Threshold : 12288 Invalid Tags : 196608 Pr0 Tags : 98304 Pr1 Tags : 196608 num_pr0 : 12288
 SAE Count : 0
 Inter-Core Inteference in Data Store : 208323902
Heartbeat CPU 1 instructions: 180000000 cycles: 215460817 heartbeat IPC: 0.799429 cumulative IPC: 0.835419 (Simulation time: 44 hr 41 min 55 sec) 
 Total Blocks : 196608 Invalid Blocks : 0 Valid Blocks : 196608
 Total Tags : 491520 Threshold : 12288 Invalid Tags : 196608 Pr0 Tags : 98304 Pr1 Tags : 196608 num_pr0 : 12288
 SAE Count : 0
 Inter-Core Inteference in Data Store : 209258349
Heartbeat CPU 2 instructions: 180000000 cycles: 216306552 heartbeat IPC: 0.796245 cumulative IPC: 0.832152 (Simulation time: 50 hr 47 min 51 sec) 
 Total Blocks : 196608 Invalid Blocks : 0 Valid Blocks : 196608
 Total Tags : 491520 Threshold : 12288 Invalid Tags : 196608 Pr0 Tags : 98304 Pr1 Tags : 196608 num_pr0 : 12288
 SAE Count : 0
 Inter-Core Inteference in Data Store : 210105541
Heartbeat CPU 3 instructions: 180000000 cycles: 217055533 heartbeat IPC: 0.793488 cumulative IPC: 0.829281 (Simulation time: 54 hr 42 min 43 sec) 
 Total Blocks : 196608 Invalid Blocks : 0 Valid Blocks : 196608
 Total Tags : 491520 Threshold : 12288 Invalid Tags : 196608 Pr0 Tags : 98304 Pr1 Tags : 196608 num_pr0 : 12288
 SAE Count : 0
 Inter-Core Inteference in Data Store : 210854056
Heartbeat CPU 4 instructions: 180000000 cycles: 217783934 heartbeat IPC: 0.790891 cumulative IPC: 0.826507 (Simulation time: 54 hr 53 min 48 sec) 
 Total Blocks : 196608 Invalid Blocks : 0 Valid Blocks : 196608
 Total Tags : 491520 Threshold : 12288 Invalid Tags : 196608 Pr0 Tags : 98304 Pr1 Tags : 196608 num_pr0 : 12288
 SAE Count : 0
 Inter-Core Inteference in Data Store : 211580961
Heartbeat CPU 5 instructions: 180000000 cycles: 218449756 heartbeat IPC: 0.788422 cumulative IPC: 0.823988 (Simulation time: 55 hr 1 min 36 sec) 
 Total Blocks : 196608 Invalid Blocks : 0 Valid Blocks : 196608
 Total Tags : 491520 Threshold : 12288 Invalid Tags : 196608 Pr0 Tags : 98304 Pr1 Tags : 196608 num_pr0 : 12288
 SAE Count : 0
 Inter-Core Inteference in Data Store : 212252391
Heartbeat CPU 6 instructions: 180000000 cycles: 219115356 heartbeat IPC: 0.786068 cumulative IPC: 0.821485 (Simulation time: 55 hr 9 min 53 sec) 
 Total Blocks : 196608 Invalid Blocks : 0 Valid Blocks : 196608
 Total Tags : 491520 Threshold : 12288 Invalid Tags : 196608 Pr0 Tags : 98304 Pr1 Tags : 196608 num_pr0 : 12288
 SAE Count : 0
 Inter-Core Inteference in Data Store : 212898442
Heartbeat CPU 7 instructions: 180000000 cycles: 219748787 heartbeat IPC: 0.783727 cumulative IPC: 0.819117 (Simulation time: 55 hr 17 min 44 sec) 
 Total Blocks : 196608 Invalid Blocks : 0 Valid Blocks : 196608
 Total Tags : 491520 Threshold : 12288 Invalid Tags : 196608 Pr0 Tags : 98304 Pr1 Tags : 196608 num_pr0 : 12288
 SAE Count : 0
 Inter-Core Inteference in Data Store : 213533080
Heartbeat CPU 0 instructions: 190000003 cycles: 224233347 heartbeat IPC: 1.02779 cumulative IPC: 0.847332 (Simulation time: 56 hr 14 min 33 sec) 
 Total Blocks : 196608 Invalid Blocks : 0 Valid Blocks : 196608
 Total Tags : 491520 Threshold : 12288 Invalid Tags : 196608 Pr0 Tags : 98304 Pr1 Tags : 196608 num_pr0 : 12288
 SAE Count : 0
 Inter-Core Inteference in Data Store : 217789137
Heartbeat CPU 1 instructions: 190000003 cycles: 225211086 heartbeat IPC: 1.02561 cumulative IPC: 0.843653 (Simulation time: 56 hr 26 min 4 sec) 
 Total Blocks : 196608 Invalid Blocks : 0 Valid Blocks : 196608
 Total Tags : 491520 Threshold : 12288 Invalid Tags : 196608 Pr0 Tags : 98304 Pr1 Tags : 196608 num_pr0 : 12288
 SAE Count : 0
 Inter-Core Inteference in Data Store : 218584981
Heartbeat CPU 2 instructions: 190000003 cycles: 226059691 heartbeat IPC: 1.02531 cumulative IPC: 0.840486 (Simulation time: 57 hr 22 min 8 sec) 
 Total Blocks : 196608 Invalid Blocks : 0 Valid Blocks : 196608
 Total Tags : 491520 Threshold : 12288 Invalid Tags : 196608 Pr0 Tags : 98304 Pr1 Tags : 196608 num_pr0 : 12288
 SAE Count : 0
 Inter-Core Inteference in Data Store : 219127584
Heartbeat CPU 3 instructions: 190000003 cycles: 226797878 heartbeat IPC: 1.02645 cumulative IPC: 0.83775 (Simulation time: 59 hr 4 min 20 sec) 
 Total Blocks : 196608 Invalid Blocks : 0 Valid Blocks : 196608
 Total Tags : 491520 Threshold : 12288 Invalid Tags : 196608 Pr0 Tags : 98304 Pr1 Tags : 196608 num_pr0 : 12288
 SAE Count : 0
 Inter-Core Inteference in Data Store : 219428061
Heartbeat CPU 4 instructions: 190000003 cycles: 227503567 heartbeat IPC: 1.02885 cumulative IPC: 0.835152 (Simulation time: 60 hr 20 min 21 sec) 
 Total Blocks : 196608 Invalid Blocks : 0 Valid Blocks : 196608
 Total Tags : 491520 Threshold : 12288 Invalid Tags : 196610 Pr0 Tags : 98302 Pr1 Tags : 196608 num_pr0 : 12288
 SAE Count : 0
 Inter-Core Inteference in Data Store : 219580583
Heartbeat CPU 5 instructions: 190000003 cycles: 228139241 heartbeat IPC: 1.03205 cumulative IPC: 0.832825 (Simulation time: 61 hr 8 min 34 sec) 
 Total Blocks : 196608 Invalid Blocks : 0 Valid Blocks : 196608
 Total Tags : 491520 Threshold : 12288 Invalid Tags : 196608 Pr0 Tags : 98304 Pr1 Tags : 196608 num_pr0 : 12288
 SAE Count : 0
 Inter-Core Inteference in Data Store : 219731999
FILL
Heartbeat CPU 6 instructions: 190000003 cycles: 228763607 heartbeat IPC: 1.03646 cumulative IPC: 0.830552 (Simulation time: 61 hr 25 min 33 sec) 
 Total Blocks : 196608 Invalid Blocks : 0 Valid Blocks : 196608
 Total Tags : 491520 Threshold : 12288 Invalid Tags : 196610 Pr0 Tags : 98302 Pr1 Tags : 196608 num_pr0 : 12288
 SAE Count : 0
 Inter-Core Inteference in Data Store : 219847479
Heartbeat CPU 0 instructions: 200000001 cycles: 229183637 heartbeat IPC: 2.02008 cumulative IPC: 0.872663 (Simulation time: 61 hr 29 min 43 sec) 
 Total Blocks : 196608 Invalid Blocks : 0 Valid Blocks : 196608
 Total Tags : 491520 Threshold : 12288 Invalid Tags : 196610 Pr0 Tags : 98302 Pr1 Tags : 196608 num_pr0 : 12288
 SAE Count : 0
 Inter-Core Inteference in Data Store : 219928154
Heartbeat CPU 7 instructions: 190000003 cycles: 229359803 heartbeat IPC: 1.04047 cumulative IPC: 0.828393 (Simulation time: 61 hr 32 min 11 sec) 
 Total Blocks : 196608 Invalid Blocks : 0 Valid Blocks : 196608
 Total Tags : 491520 Threshold : 12288 Invalid Tags : 196609 Pr0 Tags : 98303 Pr1 Tags : 196608 num_pr0 : 12288
 SAE Count : 0
 Inter-Core Inteference in Data Store : 219958446
Heartbeat CPU 1 instructions: 200000001 cycles: 230174902 heartbeat IPC: 2.01458 cumulative IPC: 0.868904 (Simulation time: 61 hr 38 min 13 sec) 
 Total Blocks : 196608 Invalid Blocks : 0 Valid Blocks : 196608
 Total Tags : 491520 Threshold : 12288 Invalid Tags : 196609 Pr0 Tags : 98303 Pr1 Tags : 196608 num_pr0 : 12288
 SAE Count : 0
 Inter-Core Inteference in Data Store : 220239496
Heartbeat CPU 2 instructions: 200000001 cycles: 231061723 heartbeat IPC: 1.99919 cumulative IPC: 0.86557 (Simulation time: 61 hr 43 min 24 sec) 
 Total Blocks : 196608 Invalid Blocks : 0 Valid Blocks : 196608
 Total Tags : 491520 Threshold : 12288 Invalid Tags : 196608 Pr0 Tags : 98304 Pr1 Tags : 196608 num_pr0 : 12288
 SAE Count : 0
 Inter-Core Inteference in Data Store : 220762070
Heartbeat CPU 3 instructions: 200000001 cycles: 231849616 heartbeat IPC: 1.97952 cumulative IPC: 0.862628 (Simulation time: 61 hr 48 min 16 sec) 
 Total Blocks : 196608 Invalid Blocks : 0 Valid Blocks : 196608
 Total Tags : 491520 Threshold : 12288 Invalid Tags : 196609 Pr0 Tags : 98303 Pr1 Tags : 196608 num_pr0 : 12288
 SAE Count : 0
 Inter-Core Inteference in Data Store : 221397863
Heartbeat CPU 4 instructions: 200000001 cycles: 232601661 heartbeat IPC: 1.96152 cumulative IPC: 0.859839 (Simulation time: 61 hr 53 min 9 sec) 
 Total Blocks : 196608 Invalid Blocks : 0 Valid Blocks : 196608
 Total Tags : 491520 Threshold : 12288 Invalid Tags : 196608 Pr0 Tags : 98304 Pr1 Tags : 196608 num_pr0 : 12288
 SAE Count : 0
 Inter-Core Inteference in Data Store : 222108162
Heartbeat CPU 5 instructions: 200000001 cycles: 233273140 heartbeat IPC: 1.94784 cumulative IPC: 0.857364 (Simulation time: 61 hr 57 min 26 sec) 
 Total Blocks : 196608 Invalid Blocks : 0 Valid Blocks : 196608
 Total Tags : 491520 Threshold : 12288 Invalid Tags : 196608 Pr0 Tags : 98304 Pr1 Tags : 196608 num_pr0 : 12288
 SAE Count : 0
 Inter-Core Inteference in Data Store : 222788201
Heartbeat CPU 6 instructions: 200000001 cycles: 233921428 heartbeat IPC: 1.9388 cumulative IPC: 0.854988 (Simulation time: 62 hr 1 min 34 sec) 
 Total Blocks : 196608 Invalid Blocks : 0 Valid Blocks : 196608
 Total Tags : 491520 Threshold : 12288 Invalid Tags : 196608 Pr0 Tags : 98304 Pr1 Tags : 196608 num_pr0 : 12288
 SAE Count : 0
 Inter-Core Inteference in Data Store : 223434473
Heartbeat CPU 7 instructions: 200000001 cycles: 234532399 heartbeat IPC: 1.93326 cumulative IPC: 0.852761 (Simulation time: 62 hr 5 min 50 sec) 
 Total Blocks : 196608 Invalid Blocks : 0 Valid Blocks : 196608
 Total Tags : 491520 Threshold : 12288 Invalid Tags : 196608 Pr0 Tags : 98304 Pr1 Tags : 196608 num_pr0 : 12288
 SAE Count : 0
 Inter-Core Inteference in Data Store : 224036980

Warmup complete CPU 0 instructions: 204485709 cycles: 234532399 (Simulation time: 62 hr 5 min 50 sec) 
Warmup complete CPU 1 instructions: 203602122 cycles: 234532399 (Simulation time: 62 hr 5 min 50 sec) 
Warmup complete CPU 2 instructions: 202834901 cycles: 234532399 (Simulation time: 62 hr 5 min 50 sec) 
Warmup complete CPU 3 instructions: 202174877 cycles: 234532399 (Simulation time: 62 hr 5 min 50 sec) 
Warmup complete CPU 4 instructions: 201571899 cycles: 234532399 (Simulation time: 62 hr 5 min 50 sec) 
Warmup complete CPU 5 instructions: 201029942 cycles: 234532399 (Simulation time: 62 hr 5 min 50 sec) 
Warmup complete CPU 6 instructions: 200467335 cycles: 234532399 (Simulation time: 62 hr 5 min 50 sec) 
Warmup complete CPU 7 instructions: 200000001 cycles: 234532399 (Simulation time: 62 hr 5 min 50 sec) 

Heartbeat CPU 0 instructions: 210000000 cycles: 506493734 heartbeat IPC: 0.0360607 cumulative IPC: 0.020276 (Simulation time: 72 hr 19 min 5 sec) 
 Total Blocks : 196608 Invalid Blocks : 0 Valid Blocks : 196608
 Total Tags : 491520 Threshold : 12288 Invalid Tags : 196608 Pr0 Tags : 98304 Pr1 Tags : 196608 num_pr0 : 12288
 SAE Count : 0
 Inter-Core Inteference in Data Store : 7396690
Heartbeat CPU 1 instructions: 210000000 cycles: 549980289 heartbeat IPC: 0.031269 cumulative IPC: 0.0202819 (Simulation time: 73 hr 45 min 46 sec) 
 Total Blocks : 196608 Invalid Blocks : 0 Valid Blocks : 196608
 Total Tags : 491520 Threshold : 12288 Invalid Tags : 196608 Pr0 Tags : 98304 Pr1 Tags : 196608 num_pr0 : 12288
 SAE Count : 0
 Inter-Core Inteference in Data Store : 8588394
Heartbeat CPU 2 instructions: 210000000 cycles: 587401694 heartbeat IPC: 0.0280631 cumulative IPC: 0.0203052 (Simulation time: 74 hr 57 min 59 sec) 
 Total Blocks : 196608 Invalid Blocks : 0 Valid Blocks : 196608
 Total Tags : 491520 Threshold : 12288 Invalid Tags : 196608 Pr0 Tags : 98304 Pr1 Tags : 196608 num_pr0 : 12288
 SAE Count : 0
 Inter-Core Inteference in Data Store : 9600028
Heartbeat CPU 3 instructions: 210000000 cycles: 618661669 heartbeat IPC: 0.0258523 cumulative IPC: 0.0203711 (Simulation time: 75 hr 56 min 59 sec) 
 Total Blocks : 196608 Invalid Blocks : 0 Valid Blocks : 196608
 Total Tags : 491520 Threshold : 12288 Invalid Tags : 196608 Pr0 Tags : 98304 Pr1 Tags : 196608 num_pr0 : 12288
 SAE Count : 0
 Inter-Core Inteference in Data Store : 10444514
Heartbeat CPU 4 instructions: 210000000 cycles: 649671170 heartbeat IPC: 0.0239768 cumulative IPC: 0.0203019 (Simulation time: 76 hr 53 min 7 sec) 
 Total Blocks : 196608 Invalid Blocks : 0 Valid Blocks : 196608
 Total Tags : 491520 Threshold : 12288 Invalid Tags : 196608 Pr0 Tags : 98304 Pr1 Tags : 196608 num_pr0 : 12288
 SAE Count : 0
 Inter-Core Inteference in Data Store : 11274326
Heartbeat CPU 5 instructions: 210000000 cycles: 676915019 heartbeat IPC: 0.0225407 cumulative IPC: 0.0202767 (Simulation time: 77 hr 43 min 30 sec) 
 Total Blocks : 196608 Invalid Blocks : 0 Valid Blocks : 196608
 Total Tags : 491520 Threshold : 12288 Invalid Tags : 196608 Pr0 Tags : 98304 Pr1 Tags : 196608 num_pr0 : 12288
 SAE Count : 0
 Inter-Core Inteference in Data Store : 12015305
Heartbeat CPU 6 instructions: 210000000 cycles: 702697936 heartbeat IPC: 0.0213321 cumulative IPC: 0.0203617 (Simulation time: 78 hr 30 min 19 sec) 
 Total Blocks : 196608 Invalid Blocks : 0 Valid Blocks : 196608
 Total Tags : 491520 Threshold : 12288 Invalid Tags : 196608 Pr0 Tags : 98304 Pr1 Tags : 196608 num_pr0 : 12288
 SAE Count : 0
 Inter-Core Inteference in Data Store : 12702607
Heartbeat CPU 7 instructions: 210000000 cycles: 726799824 heartbeat IPC: 0.0203142 cumulative IPC: 0.0203142 (Simulation time: 79 hr 10 min 31 sec) 
 Total Blocks : 196608 Invalid Blocks : 0 Valid Blocks : 196608
 Total Tags : 491520 Threshold : 12288 Invalid Tags : 196608 Pr0 Tags : 98304 Pr1 Tags : 196608 num_pr0 : 12288
 SAE Count : 0
 Inter-Core Inteference in Data Store : 13352386
Heartbeat CPU 0 instructions: 220000000 cycles: 996787909 heartbeat IPC: 0.0203959 cumulative IPC: 0.0203531 (Simulation time: 86 hr 37 min 51 sec) 
 Total Blocks : 196608 Invalid Blocks : 0 Valid Blocks : 196608
 Total Tags : 491520 Threshold : 12288 Invalid Tags : 196608 Pr0 Tags : 98304 Pr1 Tags : 196608 num_pr0 : 12288
 SAE Count : 0
 Inter-Core Inteference in Data Store : 20660207
Heartbeat CPU 1 instructions: 220000000 cycles: 1040536883 heartbeat IPC: 0.020385 cumulative IPC: 0.0203446 (Simulation time: 87 hr 44 min 3 sec) 
 Total Blocks : 196608 Invalid Blocks : 0 Valid Blocks : 196608
 Total Tags : 491520 Threshold : 12288 Invalid Tags : 196608 Pr0 Tags : 98304 Pr1 Tags : 196608 num_pr0 : 12288
 SAE Count : 0
 Inter-Core Inteference in Data Store : 21835293
Heartbeat CPU 2 instructions: 220000000 cycles: 1078990250 heartbeat IPC: 0.0203422 cumulative IPC: 0.0203268 (Simulation time: 88 hr 39 min 59 sec) 
 Total Blocks : 196608 Invalid Blocks : 0 Valid Blocks : 196608
 Total Tags : 491520 Threshold : 12288 Invalid Tags : 196608 Pr0 Tags : 98304 Pr1 Tags : 196608 num_pr0 : 12288
 SAE Count : 0
 Inter-Core Inteference in Data Store : 22864116
Heartbeat CPU 3 instructions: 220000000 cycles: 1109148437 heartbeat IPC: 0.0203879 cumulative IPC: 0.0203805 (Simulation time: 89 hr 16 min 33 sec) 
 Total Blocks : 196608 Invalid Blocks : 0 Valid Blocks : 196608
 Total Tags : 491520 Threshold : 12288 Invalid Tags : 196608 Pr0 Tags : 98304 Pr1 Tags : 196608 num_pr0 : 12288
 SAE Count : 0
 Inter-Core Inteference in Data Store : 23669134
Heartbeat CPU 4 instructions: 220000000 cycles: 1139287901 heartbeat IPC: 0.0204241 cumulative IPC: 0.020368 (Simulation time: 89 hr 52 min 39 sec) 
 Total Blocks : 196608 Invalid Blocks : 0 Valid Blocks : 196608
 Total Tags : 491520 Threshold : 12288 Invalid Tags : 196608 Pr0 Tags : 98304 Pr1 Tags : 196608 num_pr0 : 12288
 SAE Count : 0
 Inter-Core Inteference in Data Store : 24483906
Heartbeat CPU 5 instructions: 220000000 cycles: 1167253102 heartbeat IPC: 0.0203941 cumulative IPC: 0.0203384 (Simulation time: 90 hr 29 min 24 sec) 
 Total Blocks : 196608 Invalid Blocks : 0 Valid Blocks : 196608
 Total Tags : 491520 Threshold : 12288 Invalid Tags : 196608 Pr0 Tags : 98304 Pr1 Tags : 196608 num_pr0 : 12288
 SAE Count : 0
 Inter-Core Inteference in Data Store : 25245947
Heartbeat CPU 6 instructions: 220000000 cycles: 1193247031 heartbeat IPC: 0.0203853 cumulative IPC: 0.0203738 (Simulation time: 90 hr 59 min 54 sec) 
 Total Blocks : 196608 Invalid Blocks : 0 Valid Blocks : 196608
 Total Tags : 491520 Threshold : 12288 Invalid Tags : 196608 Pr0 Tags : 98304 Pr1 Tags : 196608 num_pr0 : 12288
 SAE Count : 0
 Inter-Core Inteference in Data Store : 25938339
Heartbeat CPU 7 instructions: 220000000 cycles: 1216537747 heartbeat IPC: 0.0204191 cumulative IPC: 0.0203665 (Simulation time: 91 hr 28 min 14 sec) 
 Total Blocks : 196608 Invalid Blocks : 0 Valid Blocks : 196608
 Total Tags : 491520 Threshold : 12288 Invalid Tags : 196608 Pr0 Tags : 98304 Pr1 Tags : 196608 num_pr0 : 12288
 SAE Count : 0
 Inter-Core Inteference in Data Store : 26561581
Heartbeat CPU 0 instructions: 230000000 cycles: 1488229837 heartbeat IPC: 0.0203483 cumulative IPC: 0.0203512 (Simulation time: 96 hr 4 min 53 sec) 
 Total Blocks : 196608 Invalid Blocks : 0 Valid Blocks : 196608
 Total Tags : 491520 Threshold : 12288 Invalid Tags : 196608 Pr0 Tags : 98304 Pr1 Tags : 196608 num_pr0 : 12288
 SAE Count : 0
 Inter-Core Inteference in Data Store : 33859959
Heartbeat CPU 1 instructions: 230000000 cycles: 1531757710 heartbeat IPC: 0.0203574 cumulative IPC: 0.0203495 (Simulation time: 96 hr 44 min 16 sec) 
 Total Blocks : 196608 Invalid Blocks : 0 Valid Blocks : 196608
 Total Tags : 491520 Threshold : 12288 Invalid Tags : 196608 Pr0 Tags : 98304 Pr1 Tags : 196608 num_pr0 : 12288
 SAE Count : 0
 Inter-Core Inteference in Data Store : 35050050
Heartbeat CPU 2 instructions: 230000000 cycles: 1570859894 heartbeat IPC: 0.0203306 cumulative IPC: 0.0203282 (Simulation time: 97 hr 17 min 39 sec) 
 Total Blocks : 196608 Invalid Blocks : 0 Valid Blocks : 196608
 Total Tags : 491520 Threshold : 12288 Invalid Tags : 196608 Pr0 Tags : 98304 Pr1 Tags : 196608 num_pr0 : 12288
 SAE Count : 0
 Inter-Core Inteference in Data Store : 36097203
Heartbeat CPU 3 instructions: 230000000 cycles: 1600874707 heartbeat IPC: 0.0203365 cumulative IPC: 0.0203647 (Simulation time: 97 hr 44 min 5 sec) 
 Total Blocks : 196608 Invalid Blocks : 0 Valid Blocks : 196608
 Total Tags : 491520 Threshold : 12288 Invalid Tags : 196608 Pr0 Tags : 98304 Pr1 Tags : 196608 num_pr0 : 12288
 SAE Count : 0
 Inter-Core Inteference in Data Store : 36899529
Heartbeat CPU 4 instructions: 230000000 cycles: 1629391114 heartbeat IPC: 0.0204039 cumulative IPC: 0.0203806 (Simulation time: 98 hr 8 min 58 sec) 
 Total Blocks : 196608 Invalid Blocks : 0 Valid Blocks : 196608
 Total Tags : 491520 Threshold : 12288 Invalid Tags : 196608 Pr0 Tags : 98304 Pr1 Tags : 196608 num_pr0 : 12288
 SAE Count : 0
 Inter-Core Inteference in Data Store : 37666881
Heartbeat CPU 5 instructions: 230000000 cycles: 1658044447 heartbeat IPC: 0.0203753 cumulative IPC: 0.0203511 (Simulation time: 98 hr 34 min 45 sec) 
 Total Blocks : 196608 Invalid Blocks : 0 Valid Blocks : 196608
 Total Tags : 491520 Threshold : 12288 Invalid Tags : 196608 Pr0 Tags : 98304 Pr1 Tags : 196608 num_pr0 : 12288
 SAE Count : 0
 Inter-Core Inteference in Data Store : 38426447
Heartbeat CPU 6 instructions: 230000000 cycles: 1683024038 heartbeat IPC: 0.0204175 cumulative IPC: 0.0203886 (Simulation time: 98 hr 56 min 30 sec) 
 Total Blocks : 196608 Invalid Blocks : 0 Valid Blocks : 196608
 Total Tags : 491520 Threshold : 12288 Invalid Tags : 196608 Pr0 Tags : 98304 Pr1 Tags : 196608 num_pr0 : 12288
 SAE Count : 0
 Inter-Core Inteference in Data Store : 39091120
Heartbeat CPU 7 instructions: 230000000 cycles: 1707218670 heartbeat IPC: 0.0203798 cumulative IPC: 0.0203709 (Simulation time: 99 hr 18 min 14 sec) 
 Total Blocks : 196608 Invalid Blocks : 0 Valid Blocks : 196608
 Total Tags : 491520 Threshold : 12288 Invalid Tags : 196608 Pr0 Tags : 98304 Pr1 Tags : 196608 num_pr0 : 12288
 SAE Count : 0
 Inter-Core Inteference in Data Store : 39729243
Heartbeat CPU 0 instructions: 240000001 cycles: 1972802559 heartbeat IPC: 0.0206367 cumulative IPC: 0.0204308 (Simulation time: 103 hr 3 min 6 sec) 
 Total Blocks : 196608 Invalid Blocks : 0 Valid Blocks : 196608
 Total Tags : 491520 Threshold : 12288 Invalid Tags : 196608 Pr0 Tags : 98304 Pr1 Tags : 196608 num_pr0 : 12288
 SAE Count : 0
 Inter-Core Inteference in Data Store : 46861890
Heartbeat CPU 1 instructions: 240000001 cycles: 2015257607 heartbeat IPC: 0.0206825 cumulative IPC: 0.0204399 (Simulation time: 103 hr 35 min 50 sec) 
 Total Blocks : 196608 Invalid Blocks : 0 Valid Blocks : 196608
 Total Tags : 491520 Threshold : 12288 Invalid Tags : 196608 Pr0 Tags : 98304 Pr1 Tags : 196608 num_pr0 : 12288
 SAE Count : 0
 Inter-Core Inteference in Data Store : 47998478
Heartbeat CPU 2 instructions: 240000001 cycles: 2055705598 heartbeat IPC: 0.0206251 cumulative IPC: 0.0204072 (Simulation time: 104 hr 7 min 40 sec) 
 Total Blocks : 196608 Invalid Blocks : 0 Valid Blocks : 196608
 Total Tags : 491520 Threshold : 12288 Invalid Tags : 196608 Pr0 Tags : 98304 Pr1 Tags : 196608 num_pr0 : 12288
 SAE Count : 0
 Inter-Core Inteference in Data Store : 49076820
Heartbeat CPU 3 instructions: 240000001 cycles: 2084197369 heartbeat IPC: 0.0206901 cumulative IPC: 0.0204497 (Simulation time: 104 hr 29 min 44 sec) 
 Total Blocks : 196608 Invalid Blocks : 0 Valid Blocks : 196608
 Total Tags : 491520 Threshold : 12288 Invalid Tags : 196608 Pr0 Tags : 98304 Pr1 Tags : 196608 num_pr0 : 12288
 SAE Count : 0
 Inter-Core Inteference in Data Store : 49838756
Heartbeat CPU 4 instructions: 240000001 cycles: 2112476399 heartbeat IPC: 0.0207003 cumulative IPC: 0.0204629 (Simulation time: 104 hr 52 min 8 sec) 
 Total Blocks : 196608 Invalid Blocks : 0 Valid Blocks : 196608
 Total Tags : 491520 Threshold : 12288 Invalid Tags : 196608 Pr0 Tags : 98304 Pr1 Tags : 196608 num_pr0 : 12288
 SAE Count : 0
 Inter-Core Inteference in Data Store : 50587824
Heartbeat CPU 5 instructions: 240000001 cycles: 2139599873 heartbeat IPC: 0.020766 cumulative IPC: 0.020456 (Simulation time: 105 hr 13 min 13 sec) 
 Total Blocks : 196608 Invalid Blocks : 0 Valid Blocks : 196608
 Total Tags : 491520 Threshold : 12288 Invalid Tags : 196608 Pr0 Tags : 98304 Pr1 Tags : 196608 num_pr0 : 12288
 SAE Count : 0
 Inter-Core Inteference in Data Store : 51305389
Heartbeat CPU 6 instructions: 240000001 cycles: 2166144650 heartbeat IPC: 0.0206988 cumulative IPC: 0.0204662 (Simulation time: 105 hr 34 min 13 sec) 
 Total Blocks : 196608 Invalid Blocks : 0 Valid Blocks : 196608
 Total Tags : 491520 Threshold : 12288 Invalid Tags : 196608 Pr0 Tags : 98304 Pr1 Tags : 196608 num_pr0 : 12288
 SAE Count : 0
 Inter-Core Inteference in Data Store : 52014699
Heartbeat CPU 7 instructions: 240000001 cycles: 2191294263 heartbeat IPC: 0.0206579 cumulative IPC: 0.0204419 (Simulation time: 105 hr 53 min 49 sec) 
 Total Blocks : 196608 Invalid Blocks : 0 Valid Blocks : 196608
 Total Tags : 491520 Threshold : 12288 Invalid Tags : 196608 Pr0 Tags : 98304 Pr1 Tags : 196608 num_pr0 : 12288
 SAE Count : 0
 Inter-Core Inteference in Data Store : 52684283
Heartbeat CPU 0 instructions: 250000002 cycles: 2462398581 heartbeat IPC: 0.020425 cumulative IPC: 0.0204295 (Simulation time: 109 hr 13 min 44 sec) 
 Total Blocks : 196608 Invalid Blocks : 0 Valid Blocks : 196608
 Total Tags : 491520 Threshold : 12288 Invalid Tags : 196608 Pr0 Tags : 98304 Pr1 Tags : 196608 num_pr0 : 12288
 SAE Count : 0
 Inter-Core Inteference in Data Store : 60090556
Heartbeat CPU 1 instructions: 250000002 cycles: 2506781965 heartbeat IPC: 0.0203449 cumulative IPC: 0.0204194 (Simulation time: 109 hr 46 min 49 sec) 
 Total Blocks : 196608 Invalid Blocks : 0 Valid Blocks : 196608
 Total Tags : 491520 Threshold : 12288 Invalid Tags : 196608 Pr0 Tags : 98304 Pr1 Tags : 196608 num_pr0 : 12288
 SAE Count : 0
 Inter-Core Inteference in Data Store : 61314728
Heartbeat CPU 2 instructions: 250000002 cycles: 2546808437 heartbeat IPC: 0.0203623 cumulative IPC: 0.0203977 (Simulation time: 110 hr 17 min 11 sec) 
 Total Blocks : 196608 Invalid Blocks : 0 Valid Blocks : 196608
 Total Tags : 491520 Threshold : 12288 Invalid Tags : 196608 Pr0 Tags : 98304 Pr1 Tags : 196608 num_pr0 : 12288
 SAE Count : 0
 Inter-Core Inteference in Data Store : 62418764
Heartbeat CPU 3 instructions: 250000002 cycles: 2576830872 heartbeat IPC: 0.0202991 cumulative IPC: 0.020418 (Simulation time: 110 hr 39 min 31 sec) 
 Total Blocks : 196608 Invalid Blocks : 0 Valid Blocks : 196608
 Total Tags : 491520 Threshold : 12288 Invalid Tags : 196608 Pr0 Tags : 98304 Pr1 Tags : 196608 num_pr0 : 12288
 SAE Count : 0
 Inter-Core Inteference in Data Store : 63240445
Heartbeat CPU 4 instructions: 250000002 cycles: 2605112391 heartbeat IPC: 0.020299 cumulative IPC: 0.0204288 (Simulation time: 111 hr 0 min 53 sec) 
 Total Blocks : 196608 Invalid Blocks : 0 Valid Blocks : 196608
 Total Tags : 491520 Threshold : 12288 Invalid Tags : 196608 Pr0 Tags : 98304 Pr1 Tags : 196608 num_pr0 : 12288
 SAE Count : 0
[...]
LLC4 PREFETCH  ACCESS: 23622998  HIT: 10980076  MISS: 12642922  HIT %: 46.4805  MISS %: 53.5195  AVERAGE MISS PENALTY: 419.392
LLC4 WRITEBACK ACCESS: 16991  HIT:  1294  MISS: 15697  HIT %: 7.6158  MISS %: 92.3842  AVERAGE MISS PENALTY: 0
LLC4 PREFETCH  REQUESTED:     0  ISSUED:     0  USEFUL: 5325329  USELESS: 24710740
 USEFUL LOAD PREFETCHES:    5325329 PREFETCH ISSUED TO LOWER LEVEL:  101249650  ACCURACY: 5.2596
 TIMELY PREFETCHES:    5325329 LATE PREFETCHES: 0 DROPPED PREFETCHES: 0
LLC4 AVERAGE MISS LATENCY: 416.293 cycles

LLC4 Set Associative Eviction Count : 0
LLC4 Priority 0 entries : 12288
LLC4 Inter-Core Interference : 30696208
LLC5 TOTAL     ACCESS: 27124358  HIT: 12827354  MISS: 14297004  HIT %: 47.2909  MISS %: 52.7091  AVERAGE MISS PENALTY: 403.686
LLC5 LOAD      ACCESS: 3794555  HIT: 1860881  MISS: 1933674  HIT %: 49.0408  MISS %: 50.9592  AVERAGE MISS PENALTY: 385.793
LLC5 RFO       ACCESS:  8187  HIT:  1051  MISS:  7136  HIT %: 12.8374  MISS %: 87.1626  AVERAGE MISS PENALTY: 376.261
LLC5 PREFETCH  ACCESS: 23304625  HIT: 10964106  MISS: 12340519  HIT %: 47.0469  MISS %: 52.9531  AVERAGE MISS PENALTY: 407.018
LLC5 WRITEBACK ACCESS: 16991  HIT:  1316  MISS: 15675  HIT %: 7.74528  MISS %: 92.2547  AVERAGE MISS PENALTY: 0
LLC5 PREFETCH  REQUESTED:     0  ISSUED:     0  USEFUL: 5335992  USELESS: 24280356
 USEFUL LOAD PREFETCHES:    5335992 PREFETCH ISSUED TO LOWER LEVEL:   98818369  ACCURACY: 5.3998
 TIMELY PREFETCHES:    5335992 LATE PREFETCHES: 0 DROPPED PREFETCHES: 0
LLC5 AVERAGE MISS LATENCY: 403.686 cycles

LLC5 Set Associative Eviction Count : 0
LLC5 Priority 0 entries : 12288
LLC5 Inter-Core Interference : 30296615
LLC6 TOTAL     ACCESS: 26742021  HIT: 12779896  MISS: 13962125  HIT %: 47.7896  MISS %: 52.2104  AVERAGE MISS PENALTY: 407.941
LLC6 LOAD      ACCESS: 3791306  HIT: 1870271  MISS: 1921035  HIT %: 49.3305  MISS %: 50.6695  AVERAGE MISS PENALTY: 398.282
LLC6 RFO       ACCESS:  8187  HIT:  1110  MISS:  7077  HIT %: 13.5581  MISS %: 86.4419  AVERAGE MISS PENALTY: 442.304
LLC6 PREFETCH  ACCESS: 22925536  HIT: 10907120  MISS: 12018416  HIT %: 47.5763  MISS %: 52.4237  AVERAGE MISS PENALTY: 409.994
LLC6 WRITEBACK ACCESS: 16992  HIT:  1395  MISS: 15597  HIT %: 8.20975  MISS %: 91.7903  AVERAGE MISS PENALTY: 0
LLC6 PREFETCH  REQUESTED:     0  ISSUED:     0  USEFUL: 5217960  USELESS: 24108503
 USEFUL LOAD PREFETCHES:    5217960 PREFETCH ISSUED TO LOWER LEVEL:   96233812  ACCURACY: 5.42217
 TIMELY PREFETCHES:    5217960 LATE PREFETCHES: 0 DROPPED PREFETCHES: 0
LLC6 AVERAGE MISS LATENCY: 407.941 cycles

LLC6 Set Associative Eviction Count : 0
LLC6 Priority 0 entries : 12288
LLC6 Inter-Core Interference : 30054486
LLC7 TOTAL     ACCESS: 26365018  HIT: 12771638  MISS: 13593380  HIT %: 48.4416  MISS %: 51.5584  AVERAGE MISS PENALTY: 396.965
LLC7 LOAD      ACCESS: 3797459  HIT: 1893921  MISS: 1903538  HIT %: 49.8734  MISS %: 50.1266  AVERAGE MISS PENALTY: 383.105
LLC7 RFO       ACCESS:  8189  HIT:  1086  MISS:  7103  HIT %: 13.2617  MISS %: 86.7383  AVERAGE MISS PENALTY: 410.342
LLC7 PREFETCH  ACCESS: 22542374  HIT: 10875259  MISS: 11667115  HIT %: 48.2436  MISS %: 51.7564  AVERAGE MISS PENALTY: 399.749
LLC7 WRITEBACK ACCESS: 16996  HIT:  1372  MISS: 15624  HIT %: 8.07249  MISS %: 91.9275  AVERAGE MISS PENALTY: 0
LLC7 PREFETCH  REQUESTED:     0  ISSUED:     0  USEFUL: 5250699  USELESS: 24005606
 USEFUL LOAD PREFETCHES:    5250699 PREFETCH ISSUED TO LOWER LEVEL:   93429378  ACCURACY: 5.61997
 TIMELY PREFETCHES:    5250699 LATE PREFETCHES: 0 DROPPED PREFETCHES: 0
LLC7 AVERAGE MISS LATENCY: 396.965 cycles

LLC7 Set Associative Eviction Count : 0
LLC7 Priority 0 entries : 12288
LLC7 Inter-Core Interference : 29962817
ROI Average ROB Stall Cycles:	214.966
ROI Total ROB Stalls Cycles:	9176150273
ROI TOTAL ROB counter      :	42686596
ROI Average Load ROB Stall Cycles:	256.491
ROI Total Load ROB Stalls Cycle  :	9029347566
ROI Total Load ROB stalls Counter:	35203424
Major fault: 0 Minor fault: 34815

CPU 7 cumulative IPC: 0.0216857 instructions: 200000003 cycles: 9222665478
ITLB TOTAL     ACCESS: 34306281  HIT: 34306281  MISS:     0  HIT %:   100  MISS %:     0  AVERAGE MISS PENALTY: 0
ITLB LOAD      ACCESS: 34306281  HIT: 34306281  MISS:     0  HIT %:   100  MISS %:     0  AVERAGE MISS PENALTY: 0
ITLB RFO       ACCESS:     0  HIT:     0  MISS:     0  HIT %:     0  MISS %:     0  AVERAGE MISS PENALTY: 0
ITLB PREFETCH  ACCESS:     0  HIT:     0  MISS:     0  HIT %:     0  MISS %:     0  AVERAGE MISS PENALTY: 0
ITLB WRITEBACK ACCESS:     0  HIT:     0  MISS:     0  HIT %:     0  MISS %:     0  AVERAGE MISS PENALTY: 0
ITLB PREFETCH  REQUESTED:     0  ISSUED:     0  USEFUL:     0  USELESS:     0
 USEFUL LOAD PREFETCHES:          0 PREFETCH ISSUED TO LOWER LEVEL:          0  ACCURACY: -nan
 TIMELY PREFETCHES:          0 LATE PREFETCHES: 0 DROPPED PREFETCHES: 0
ITLB AVERAGE MISS LATENCY: -nan cycles

ITLB Set Associative Eviction Count : 0
ITLB Priority 0 entries : 0
ITLB Inter-Core Interference : 0
DTLB TOTAL     ACCESS: 78280912  HIT: 55293758  MISS: 22987154  HIT %: 70.635  MISS %: 29.365  AVERAGE MISS PENALTY: 9.18505
DTLB LOAD      ACCESS: 75574680  HIT: 52593188  MISS: 22981492  HIT %: 69.591  MISS %: 30.409  AVERAGE MISS PENALTY: 9.18188
DTLB RFO       ACCESS: 2706232  HIT: 2700570  MISS:  5662  HIT %: 99.7908  MISS %: 0.209221  AVERAGE MISS PENALTY: 22.0872
DTLB PREFETCH  ACCESS:     0  HIT:     0  MISS:     0  HIT %:     0  MISS %:     0  AVERAGE MISS PENALTY: 0
DTLB WRITEBACK ACCESS:     0  HIT:     0  MISS:     0  HIT %:     0  MISS %:     0  AVERAGE MISS PENALTY: 0
DTLB PREFETCH  REQUESTED:     0  ISSUED:     0  USEFUL:     0  USELESS:     0
 USEFUL LOAD PREFETCHES:          0 PREFETCH ISSUED TO LOWER LEVEL:          0  ACCURACY: -nan
 TIMELY PREFETCHES:          0 LATE PREFETCHES: 0 DROPPED PREFETCHES: 0
DTLB AVERAGE MISS LATENCY: 9.18505 cycles

DTLB Set Associative Eviction Count : 0
DTLB Priority 0 entries : 0
DTLB Inter-Core Interference : 0
STLB TOTAL     ACCESS: 22987154  HIT: 22946335  MISS: 40819  HIT %: 99.8224  MISS %: 0.177573  AVERAGE MISS PENALTY: 100
STLB LOAD      ACCESS: 22981492  HIT: 22941414  MISS: 40078  HIT %: 99.8256  MISS %: 0.174393  AVERAGE MISS PENALTY: 100
STLB RFO       ACCESS:  5662  HIT:  4921  MISS:   741  HIT %: 86.9128  MISS %: 13.0872  AVERAGE MISS PENALTY: 100
STLB PREFETCH  ACCESS:     0  HIT:     0  MISS:     0  HIT %:     0  MISS %:     0  AVERAGE MISS PENALTY: 0
STLB WRITEBACK ACCESS:     0  HIT:     0  MISS:     0  HIT %:     0  MISS %:     0  AVERAGE MISS PENALTY: 0
STLB PREFETCH  REQUESTED:     0  ISSUED:     0  USEFUL:     0  USELESS:     0
 USEFUL LOAD PREFETCHES:          0 PREFETCH ISSUED TO LOWER LEVEL:          0  ACCURACY: -nan
 TIMELY PREFETCHES:          0 LATE PREFETCHES: 0 DROPPED PREFETCHES: 0
STLB AVERAGE MISS LATENCY: 100 cycles

STLB Set Associative Eviction Count : 0
STLB Priority 0 entries : 0
STLB Inter-Core Interference : 0
L1D TOTAL     ACCESS: 197647406  HIT: 42041195  MISS: 155606211  HIT %: 21.2708  MISS %: 78.7292  AVERAGE MISS PENALTY: 3.17276e+07
L1D LOAD      ACCESS: 66827009  HIT: 34511074  MISS: 32315935  HIT %: 51.6424  MISS %: 48.3576  AVERAGE MISS PENALTY: 1.52772e+08
L1D RFO       ACCESS: 2485844  HIT: 2420285  MISS: 65559  HIT %: 97.3627  MISS %: 2.63729  AVERAGE MISS PENALTY: 416.844
L1D PREFETCH  ACCESS: 128334553  HIT: 5109836  MISS: 123224717  HIT %: 3.98165  MISS %: 96.0183  AVERAGE MISS PENALTY: 303.571
L1D WRITEBACK ACCESS:     0  HIT:     0  MISS:     0  HIT %:     0  MISS %:     0  AVERAGE MISS PENALTY: 0
L1D PREFETCH  REQUESTED: 131943677  ISSUED: 131788147  USEFUL: 3362776  USELESS: 119861936
 USEFUL LOAD PREFETCHES:    3362776 PREFETCH ISSUED TO LOWER LEVEL:  141026254  ACCURACY: 2.3845
 TIMELY PREFETCHES:    3362776 LATE PREFETCHES: 984730 DROPPED PREFETCHES: 155530
L1D AVERAGE MISS LATENCY: 272.683 cycles

L1D Set Associative Eviction Count : 0
L1D Priority 0 entries : 0
L1D Inter-Core Interference : 0
L1I TOTAL     ACCESS: 36049725  HIT: 36049711  MISS:    14  HIT %:   100  MISS %: 3.88352e-05  AVERAGE MISS PENALTY: 252
L1I LOAD      ACCESS: 36049725  HIT: 36049711  MISS:    14  HIT %:   100  MISS %: 3.88352e-05  AVERAGE MISS PENALTY: 252
L1I RFO       ACCESS:     0  HIT:     0  MISS:     0  HIT %:     0  MISS %:     0  AVERAGE MISS PENALTY: 0
L1I PREFETCH  ACCESS:     0  HIT:     0  MISS:     0  HIT %:     0  MISS %:     0  AVERAGE MISS PENALTY: 0
L1I WRITEBACK ACCESS:     0  HIT:     0  MISS:     0  HIT %:     0  MISS %:     0  AVERAGE MISS PENALTY: 0
L1I PREFETCH  REQUESTED:     0  ISSUED:     0  USEFUL:     0  USELESS:     0
 USEFUL LOAD PREFETCHES:          0 PREFETCH ISSUED TO LOWER LEVEL:          0  ACCURACY: -nan
 TIMELY PREFETCHES:          0 LATE PREFETCHES: 0 DROPPED PREFETCHES: 0
L1I AVERAGE MISS LATENCY: 252 cycles

L1I Set Associative Eviction Count : 0
L1I Priority 0 entries : 0
L1I Inter-Core Interference : 14
L2C TOTAL     ACCESS: 230245584  HIT: 8291699  MISS: 221953885  HIT %: 3.60124  MISS %: 96.3988  AVERAGE MISS PENALTY: 2.60738e+07
L2C LOAD      ACCESS: 32281686  HIT: 689578  MISS: 31592108  HIT %: 2.13613  MISS %: 97.8639  AVERAGE MISS PENALTY: 1.83183e+08
L2C RFO       ACCESS: 65559  HIT:    56  MISS: 65503  HIT %: 0.0854192  MISS %: 99.9146  AVERAGE MISS PENALTY: 401.946
L2C PREFETCH  ACCESS: 197694285  HIT: 7398171  MISS: 190296114  HIT %: 3.74223  MISS %: 96.2578  AVERAGE MISS PENALTY: 274.812
L2C WRITEBACK ACCESS: 204054  HIT: 203894  MISS:   160  HIT %: 99.9216  MISS %: 0.0784106  AVERAGE MISS PENALTY: 0
L2C PREFETCH  REQUESTED: 298897023  ISSUED: 298892190  USEFUL: 547574  USELESS: 189748620
 USEFUL LOAD PREFETCHES:     547574 PREFETCH ISSUED TO LOWER LEVEL:  194624076  ACCURACY: 0.28135
 TIMELY PREFETCHES:     547574 LATE PREFETCHES: 1247137 DROPPED PREFETCHES: 4833
L2C AVERAGE MISS LATENCY: 268.766 cycles

L2C Set Associative Eviction Count : 0
L2C Priority 0 entries : 0
L2C Inter-Core Interference : 0
LLC0 TOTAL     ACCESS: 28586499  HIT: 13286352  MISS: 15300147  HIT %: 46.4777  MISS %: 53.5223  AVERAGE MISS PENALTY: 472.728
LLC0 LOAD      ACCESS: 3910230  HIT: 1891910  MISS: 2018320  HIT %: 48.3836  MISS %: 51.6164  AVERAGE MISS PENALTY: 458.197
LLC0 RFO       ACCESS:  8189  HIT:  1060  MISS:  7129  HIT %: 12.9442  MISS %: 87.0558  AVERAGE MISS PENALTY: 405.099
LLC0 PREFETCH  ACCESS: 24651094  HIT: 11392033  MISS: 13259061  HIT %: 46.2131  MISS %: 53.7869  AVERAGE MISS PENALTY: 475.534
LLC0 WRITEBACK ACCESS: 16986  HIT:  1349  MISS: 15637  HIT %: 7.94183  MISS %: 92.0582  AVERAGE MISS PENALTY: 0
LLC0 PREFETCH  REQUESTED:     0  ISSUED:     0  USEFUL: 5437793  USELESS: 25939811
 USEFUL LOAD PREFETCHES:    5437793 PREFETCH ISSUED TO LOWER LEVEL:  106076936  ACCURACY: 5.12627
 TIMELY PREFETCHES:    5437793 LATE PREFETCHES: 0 DROPPED PREFETCHES: 0
LLC0 AVERAGE MISS LATENCY: 472.728 cycles

LLC0 Set Associative Eviction Count : 0
LLC0 Priority 0 entries : 12288
LLC0 Inter-Core Interference : 31898372
LLC1 TOTAL     ACCESS: 29083924  HIT: 13484540  MISS: 15599384  HIT %: 46.3642  MISS %: 53.6358  AVERAGE MISS PENALTY: 468.555
LLC1 LOAD      ACCESS: 3874339  HIT: 1897447  MISS: 1976892  HIT %: 48.9747  MISS %: 51.0253  AVERAGE MISS PENALTY: 454.55
LLC1 RFO       ACCESS:  8190  HIT:  1079  MISS:  7111  HIT %: 13.1746  MISS %: 86.8254  AVERAGE MISS PENALTY: 408.462
LLC1 PREFETCH  ACCESS: 25184409  HIT: 11584657  MISS: 13599752  HIT %: 45.9993  MISS %: 54.0007  AVERAGE MISS PENALTY: 471.16
LLC1 WRITEBACK ACCESS: 16986  HIT:  1357  MISS: 15629  HIT %: 7.98893  MISS %: 92.0111  AVERAGE MISS PENALTY: 0
LLC1 PREFETCH  REQUESTED:     0  ISSUED:     0  USEFUL: 5459169  USELESS: 26516501
 USEFUL LOAD PREFETCHES:    5459169 PREFETCH ISSUED TO LOWER LEVEL:  108809246  ACCURACY: 5.01719
 TIMELY PREFETCHES:    5459169 LATE PREFETCHES: 0 DROPPED PREFETCHES: 0
LLC1 AVERAGE MISS LATENCY: 468.555 cycles

LLC1 Set Associative Eviction Count : 0
LLC1 Priority 0 entries : 12288
LLC1 Inter-Core Interference : 32415586
LLC2 TOTAL     ACCESS: 28701281  HIT: 13330037  MISS: 15371244  HIT %: 46.444  MISS %: 53.556  AVERAGE MISS PENALTY: 476.218
LLC2 LOAD      ACCESS: 3738871  HIT: 1819703  MISS: 1919168  HIT %: 48.6699  MISS %: 51.3301  AVERAGE MISS PENALTY: 457.802
LLC2 RFO       ACCESS:  8188  HIT:  1089  MISS:  7099  HIT %:  13.3  MISS %:  86.7  AVERAGE MISS PENALTY: 479.847
LLC2 PREFETCH  ACCESS: 24937237  HIT: 11507885  MISS: 13429352  HIT %: 46.1474  MISS %: 53.8526  AVERAGE MISS PENALTY: 479.402
LLC2 WRITEBACK ACCESS: 16985  HIT:  1360  MISS: 15625  HIT %: 8.00707  MISS %: 91.9929  AVERAGE MISS PENALTY: 0
LLC2 PREFETCH  REQUESTED:     0  ISSUED:     0  USEFUL: 5418214  USELESS: 26159673
 USEFUL LOAD PREFETCHES:    5418214 PREFETCH ISSUED TO LOWER LEVEL:  107450079  ACCURACY: 5.04254
 TIMELY PREFETCHES:    5418214 LATE PREFETCHES: 0 DROPPED PREFETCHES: 0
LLC2 AVERAGE MISS LATENCY: 460.96 cycles

LLC2 Set Associative Eviction Count : 0
LLC2 Priority 0 entries : 12288
LLC2 Inter-Core Interference : 31928629
LLC3 TOTAL     ACCESS: 27965458  HIT: 13051303  MISS: 14914155  HIT %: 46.6694  MISS %: 53.3306  AVERAGE MISS PENALTY: 457.24
LLC3 LOAD      ACCESS: 3848761  HIT: 1925116  MISS: 1923645  HIT %: 50.0191  MISS %: 49.9809  AVERAGE MISS PENALTY: 453.672
LLC3 RFO       ACCESS:  8187  HIT:  1105  MISS:  7082  HIT %: 13.497  MISS %: 86.503  AVERAGE MISS PENALTY: 473.888
LLC3 PREFETCH  ACCESS: 24091522  HIT: 11123707  MISS: 12967815  HIT %: 46.1727  MISS %: 53.8273  AVERAGE MISS PENALTY: 458.311
LLC3 WRITEBACK ACCESS: 16988  HIT:  1375  MISS: 15613  HIT %: 8.09395  MISS %: 91.9061  AVERAGE MISS PENALTY: 0
LLC3 PREFETCH  REQUESTED:     0  ISSUED:     0  USEFUL: 5364954  USELESS: 25217248
 USEFUL LOAD PREFETCHES:    5364954 PREFETCH ISSUED TO LOWER LEVEL:  103732966  ACCURACY: 5.17189
 TIMELY PREFETCHES:    5364954 LATE PREFETCHES: 0 DROPPED PREFETCHES: 0
LLC3 AVERAGE MISS LATENCY: 457.24 cycles

LLC3 Set Associative Eviction Count : 0
LLC3 Priority 0 entries : 12288
LLC3 Inter-Core Interference : 31113678
LLC4 TOTAL     ACCESS: 27524286  HIT: 12903585  MISS: 14620701  HIT %: 46.8807  MISS %: 53.1193  AVERAGE MISS PENALTY: 416.387
LLC4 LOAD      ACCESS: 3876689  HIT: 1930467  MISS: 1946222  HIT %: 49.7968  MISS %: 50.2032  AVERAGE MISS PENALTY: 399.692
LLC4 RFO       ACCESS:  8186  HIT:  1060  MISS:  7126  HIT %: 12.9489  MISS %: 87.0511  AVERAGE MISS PENALTY: 379.03
LLC4 PREFETCH  ACCESS: 23622427  HIT: 10970733  MISS: 12651694  HIT %: 46.442  MISS %: 53.558  AVERAGE MISS PENALTY: 419.492
LLC4 WRITEBACK ACCESS: 16984  HIT:  1325  MISS: 15659  HIT %: 7.80146  MISS %: 92.1985  AVERAGE MISS PENALTY: 0
LLC4 PREFETCH  REQUESTED:     0  ISSUED:     0  USEFUL: 5325329  USELESS: 24710740
 USEFUL LOAD PREFETCHES:    5325329 PREFETCH ISSUED TO LOWER LEVEL:  101249650  ACCURACY: 5.2596
 TIMELY PREFETCHES:    5325329 LATE PREFETCHES: 0 DROPPED PREFETCHES: 0
LLC4 AVERAGE MISS LATENCY: 416.387 cycles

LLC4 Set Associative Eviction Count : 0
LLC4 Priority 0 entries : 12288
LLC4 Inter-Core Interference : 30696208
LLC5 TOTAL     ACCESS: 27123315  HIT: 12814556  MISS: 14308759  HIT %: 47.2455  MISS %: 52.7545  AVERAGE MISS PENALTY: 403.76
LLC5 LOAD      ACCESS: 3794570  HIT: 1857916  MISS: 1936654  HIT %: 48.9625  MISS %: 51.0375  AVERAGE MISS PENALTY: 385.804
LLC5 RFO       ACCESS:  8187  HIT:  1103  MISS:  7084  HIT %: 13.4726  MISS %: 86.5274  AVERAGE MISS PENALTY: 370.469
LLC5 PREFETCH  ACCESS: 23303574  HIT: 10954124  MISS: 12349450  HIT %: 47.0062  MISS %: 52.9938  AVERAGE MISS PENALTY: 407.104
LLC5 WRITEBACK ACCESS: 16984  HIT:  1413  MISS: 15571  HIT %: 8.31959  MISS %: 91.6804  AVERAGE MISS PENALTY: 0
LLC5 PREFETCH  REQUESTED:     0  ISSUED:     0  USEFUL: 5335992  USELESS: 24280356
 USEFUL LOAD PREFETCHES:    5335992 PREFETCH ISSUED TO LOWER LEVEL:   98818369  ACCURACY: 5.3998
 TIMELY PREFETCHES:    5335992 LATE PREFETCHES: 0 DROPPED PREFETCHES: 0
LLC5 AVERAGE MISS LATENCY: 403.76 cycles

LLC5 Set Associative Eviction Count : 0
LLC5 Priority 0 entries : 12288
LLC5 Inter-Core Interference : 30296615
LLC6 TOTAL     ACCESS: 26740613  HIT: 12769112  MISS: 13971501  HIT %: 47.7518  MISS %: 52.2482  AVERAGE MISS PENALTY: 407.994
LLC6 LOAD      ACCESS: 3791344  HIT: 1869764  MISS: 1921580  HIT %: 49.3167  MISS %: 50.6833  AVERAGE MISS PENALTY: 398.114
LLC6 RFO       ACCESS:  8187  HIT:  1123  MISS:  7064  HIT %: 13.7169  MISS %: 86.2831  AVERAGE MISS PENALTY: 431.252
LLC6 PREFETCH  ACCESS: 22924096  HIT: 10896824  MISS: 12027272  HIT %: 47.5344  MISS %: 52.4656  AVERAGE MISS PENALTY: 410.088
LLC6 WRITEBACK ACCESS: 16986  HIT:  1401  MISS: 15585  HIT %: 8.24797  MISS %: 91.752  AVERAGE MISS PENALTY: 0
LLC6 PREFETCH  REQUESTED:     0  ISSUED:     0  USEFUL: 5217960  USELESS: 24108503
 USEFUL LOAD PREFETCHES:    5217960 PREFETCH ISSUED TO LOWER LEVEL:   96233812  ACCURACY: 5.42217
 TIMELY PREFETCHES:    5217960 LATE PREFETCHES: 0 DROPPED PREFETCHES: 0
LLC6 AVERAGE MISS LATENCY: 407.994 cycles

LLC6 Set Associative Eviction Count : 0
LLC6 Priority 0 entries : 12288
LLC6 Inter-Core Interference : 30054486
LLC7 TOTAL     ACCESS: 26364240  HIT: 12761202  MISS: 13603038  HIT %: 48.4035  MISS %: 51.5965  AVERAGE MISS PENALTY: 397.175
LLC7 LOAD      ACCESS: 3797566  HIT: 1891359  MISS: 1906207  HIT %: 49.8045  MISS %: 50.1955  AVERAGE MISS PENALTY: 383.172
LLC7 RFO       ACCESS:  8189  HIT:  1122  MISS:  7067  HIT %: 13.7013  MISS %: 86.2987  AVERAGE MISS PENALTY: 398.105
LLC7 PREFETCH  ACCESS: 22541495  HIT: 10867293  MISS: 11674202  HIT %: 48.2102  MISS %: 51.7898  AVERAGE MISS PENALTY: 399.99
LLC7 WRITEBACK ACCESS: 16990  HIT:  1428  MISS: 15562  HIT %: 8.40494  MISS %: 91.5951  AVERAGE MISS PENALTY: 0
LLC7 PREFETCH  REQUESTED:     0  ISSUED:     0  USEFUL: 5250699  USELESS: 24005606
 USEFUL LOAD PREFETCHES:    5250699 PREFETCH ISSUED TO LOWER LEVEL:   93429378  ACCURACY: 5.61997
 TIMELY PREFETCHES:    5250699 LATE PREFETCHES: 0 DROPPED PREFETCHES: 0
LLC7 AVERAGE MISS LATENCY: 397.175 cycles

LLC7 Set Associative Eviction Count : 0
LLC7 Priority 0 entries : 12288
LLC7 Inter-Core Interference : 29962817
ROI Average ROB Stall Cycles:	215.152
ROI Total ROB Stalls Cycles:	9184077099
ROI TOTAL ROB counter      :	42686405
ROI Average Load ROB Stall Cycles:	256.72
ROI Total Load ROB Stalls Cycle  :	9037183236
ROI Total Load ROB stalls Counter:	35202450
Major fault: 0 Minor fault: 34815








Interconnect Stats 
LINK 0 BW : 0LINK 1 BW : 0LINK 2 BW : 0LINK 3 BW : 0LINK 4 BW : 0LINK 5 BW : 0LINK 6 BW : 0LINK 7 BW : 0
DRAM Statistics
 CHANNEL 0
 RQ ROW_BUFFER_HIT: 129062132  ROW_BUFFER_MISS: 344596460
 DBUS_CONGESTED: 204611227
 WQ ROW_BUFFER_HIT: 37020  ROW_BUFFER_MISS: 506903  FULL:     0

 CHANNEL 1
 RQ ROW_BUFFER_HIT: 125572155  ROW_BUFFER_MISS: 341339954
 DBUS_CONGESTED: 204611227
 WQ ROW_BUFFER_HIT: 36817  ROW_BUFFER_MISS: 507125  FULL:     0

 AVG_CONGESTED_CYCLE: 4
DRAM PAGES: 2097152
Allocated PAGES: 278520
L2C destructor called
L1D destructor called
L1I destructor called
STLB destructor called
DTLB destructor called
ITLB destructor called
L2C destructor called
L1D destructor called
L1I destructor called
STLB destructor called
DTLB destructor called
ITLB destructor called
L2C destructor called
L1D destructor called
L1I destructor called
STLB destructor called
DTLB destructor called
ITLB destructor called
L2C destructor called
L1D destructor called
L1I destructor called
STLB destructor called
DTLB destructor called
ITLB destructor called
L2C destructor called
L1D destructor called
L1I destructor called
STLB destructor called
DTLB destructor called
ITLB destructor called
L2C destructor called
L1D destructor called
L1I destructor called
STLB destructor called
DTLB destructor called
ITLB destructor called
L2C destructor called
L1D destructor called
L1I destructor called
STLB destructor called
DTLB destructor called
ITLB destructor called
L2C destructor called
L1D destructor called
L1I destructor called
STLB destructor called
DTLB destructor called
ITLB destructor called
