
*** ChampSim Multicore Out-of-Order Simulator ***

Warmup Instructions: 200000000
Simulation Instructions: 200000000
Number of CPUs: 8
threads:1

L1I Configuration:
L1I_SET:64
L1I_WAY:8
L1I_RQ_SIZE:64
L1I_WQ_SIZE:64
L1I_PQ_SIZE:8
L1I_MSHR_SIZE:8

L1D Configuration:
L1D_SET:64
L1D_WAY:12
L1D_RQ_SIZE:64
L1D_WQ_SIZE:64
L1D_PQ_SIZE:8
L1D_MSHR_SIZE:16

L2C Configuration:
L2C_SET:1024
L2C_WAY:8
L2C_RQ_SIZE:32
L2C_WQ_SIZE:32
L2C_PQ_SIZE:16
L2C_MSHR_SIZE:32

LLC Configuration:
LLC_SET:2048
LLC_WAY:12
LLC SLICES:8
LLC_RQ_SIZE:64
LLC_WQ_SIZE:64
LLC_PQ_SIZE:32
LLC_MSHR_SIZE:64

Interconnect OFF
Attacker deprioritize is: OFF
Off-chip DRAM Size: 8192 MB Channels: 2 Width: 64-bit Data Rate: 3200 MT/s
PAGE SIZE in KB: 4.000000 
PAGE SIZE in MB: 0.003906 
PAGE offset in bits: 12 
CEASER-S_LLC:0
MIRAGE : 1
CEASER_LATENCY:3
REMAP : OFF
Partitions : 1
Multi-Step : OFF
BFS : OFF

CPU 0 runs /home/anubhav/gap/pr-10.trace.gz
CPU 1 runs /home/anubhav/gap/pr-10.trace.gz
CPU 2 runs /home/anubhav/gap/pr-10.trace.gz
CPU 3 runs /home/anubhav/gap/pr-10.trace.gz
CPU 4 runs /home/anubhav/gap/pr-10.trace.gz
CPU 5 runs /home/anubhav/gap/pr-10.trace.gz
CPU 6 runs /home/anubhav/gap/pr-10.trace.gz
CPU 7 runs /home/anubhav/gap/pr-10.trace.gz
CPU 0 Bimodal branch predictor
Initialize Hawkeye state
Initialize Hawkeye state
Initialize Hawkeye state
Initialize Hawkeye state
Initialize Hawkeye state
Initialize Hawkeye state
Initialize Hawkeye state
Initialize Hawkeye state
CPU 1 Bimodal branch predictor
Initialize Hawkeye state
Initialize Hawkeye state
Initialize Hawkeye state
Initialize Hawkeye state
Initialize Hawkeye state
Initialize Hawkeye state
Initialize Hawkeye state
Initialize Hawkeye state
CPU 2 Bimodal branch predictor
Initialize Hawkeye state
Initialize Hawkeye state
Initialize Hawkeye state
Initialize Hawkeye state
Initialize Hawkeye state
Initialize Hawkeye state
Initialize Hawkeye state
Initialize Hawkeye state
CPU 3 Bimodal branch predictor
Initialize Hawkeye state
Initialize Hawkeye state
Initialize Hawkeye state
Initialize Hawkeye state
Initialize Hawkeye state
Initialize Hawkeye state
Initialize Hawkeye state
Initialize Hawkeye state
CPU 4 Bimodal branch predictor
Initialize Hawkeye state
Initialize Hawkeye state
Initialize Hawkeye state
Initialize Hawkeye state
Initialize Hawkeye state
Initialize Hawkeye state
Initialize Hawkeye state
Initialize Hawkeye state
CPU 5 Bimodal branch predictor
Initialize Hawkeye state
Initialize Hawkeye state
Initialize Hawkeye state
Initialize Hawkeye state
Initialize Hawkeye state
Initialize Hawkeye state
Initialize Hawkeye state
Initialize Hawkeye state
CPU 6 Bimodal branch predictor
Initialize Hawkeye state
Initialize Hawkeye state
Initialize Hawkeye state
Initialize Hawkeye state
Initialize Hawkeye state
Initialize Hawkeye state
Initialize Hawkeye state
Initialize Hawkeye state
CPU 7 Bimodal branch predictor
Initialize Hawkeye state
Initialize Hawkeye state
Initialize Hawkeye state
Initialize Hawkeye state
Initialize Hawkeye state
Initialize Hawkeye state
Initialize Hawkeye state
Initialize Hawkeye state
FILL
Heartbeat CPU 0 instructions: 10000001 cycles: 3641890 heartbeat IPC: 2.74583 cumulative IPC: 2.74583 (Simulation time: 0 hr 49 min 30 sec) 
 Total Blocks : 196608 Invalid Blocks : 19633 Valid Blocks : 176975
 Total Tags : 491520 Threshold : 12288 Invalid Tags : 216245 Pr0 Tags : 98300 Pr1 Tags : 176975 num_pr0 : 12288
 SAE Count : 0
 Inter-Core Inteference in Data Store : 240782
Heartbeat CPU 1 instructions: 10000001 cycles: 3641894 heartbeat IPC: 2.74582 cumulative IPC: 2.74582 (Simulation time: 0 hr 49 min 31 sec) 
 Total Blocks : 196608 Invalid Blocks : 19633 Valid Blocks : 176975
 Total Tags : 491520 Threshold : 12288 Invalid Tags : 216245 Pr0 Tags : 98300 Pr1 Tags : 176975 num_pr0 : 12288
 SAE Count : 0
 Inter-Core Inteference in Data Store : 240782
Heartbeat CPU 2 instructions: 10000001 cycles: 3641900 heartbeat IPC: 2.74582 cumulative IPC: 2.74582 (Simulation time: 0 hr 49 min 31 sec) 
 Total Blocks : 196608 Invalid Blocks : 19632 Valid Blocks : 176976
 Total Tags : 491520 Threshold : 12288 Invalid Tags : 216246 Pr0 Tags : 98298 Pr1 Tags : 176976 num_pr0 : 12288
 SAE Count : 0
 Inter-Core Inteference in Data Store : 240782
Heartbeat CPU 3 instructions: 10000001 cycles: 3641902 heartbeat IPC: 2.74582 cumulative IPC: 2.74582 (Simulation time: 0 hr 49 min 31 sec) 
 Total Blocks : 196608 Invalid Blocks : 19632 Valid Blocks : 176976
 Total Tags : 491520 Threshold : 12288 Invalid Tags : 216245 Pr0 Tags : 98299 Pr1 Tags : 176976 num_pr0 : 12288
 SAE Count : 0
 Inter-Core Inteference in Data Store : 240783
Heartbeat CPU 4 instructions: 10000001 cycles: 3641904 heartbeat IPC: 2.74582 cumulative IPC: 2.74582 (Simulation time: 0 hr 49 min 31 sec) 
 Total Blocks : 196608 Invalid Blocks : 19632 Valid Blocks : 176976
 Total Tags : 491520 Threshold : 12288 Invalid Tags : 216245 Pr0 Tags : 98299 Pr1 Tags : 176976 num_pr0 : 12288
 SAE Count : 0
 Inter-Core Inteference in Data Store : 240783
Heartbeat CPU 5 instructions: 10000001 cycles: 3641910 heartbeat IPC: 2.74581 cumulative IPC: 2.74581 (Simulation time: 0 hr 49 min 31 sec) 
 Total Blocks : 196608 Invalid Blocks : 19631 Valid Blocks : 176977
 Total Tags : 491520 Threshold : 12288 Invalid Tags : 216245 Pr0 Tags : 98298 Pr1 Tags : 176977 num_pr0 : 12288
 SAE Count : 0
 Inter-Core Inteference in Data Store : 240784
Heartbeat CPU 6 instructions: 10000001 cycles: 3641913 heartbeat IPC: 2.74581 cumulative IPC: 2.74581 (Simulation time: 0 hr 49 min 31 sec) 
 Total Blocks : 196608 Invalid Blocks : 19630 Valid Blocks : 176978
 Total Tags : 491520 Threshold : 12288 Invalid Tags : 216244 Pr0 Tags : 98298 Pr1 Tags : 176978 num_pr0 : 12288
 SAE Count : 0
 Inter-Core Inteference in Data Store : 240784
Heartbeat CPU 7 instructions: 10000001 cycles: 3641916 heartbeat IPC: 2.74581 cumulative IPC: 2.74581 (Simulation time: 0 hr 49 min 31 sec) 
 Total Blocks : 196608 Invalid Blocks : 19630 Valid Blocks : 176978
 Total Tags : 491520 Threshold : 12288 Invalid Tags : 216244 Pr0 Tags : 98298 Pr1 Tags : 176978 num_pr0 : 12288
 SAE Count : 0
 Inter-Core Inteference in Data Store : 240784
Heartbeat CPU 0 instructions: 20000003 cycles: 13629104 heartbeat IPC: 1.00128 cumulative IPC: 1.46745 (Simulation time: 2 hr 16 min 7 sec) 
 Total Blocks : 196608 Invalid Blocks : 0 Valid Blocks : 196608
 Total Tags : 491520 Threshold : 12288 Invalid Tags : 196608 Pr0 Tags : 98304 Pr1 Tags : 196608 num_pr0 : 12288
 SAE Count : 0
 Inter-Core Inteference in Data Store : 5090416
Heartbeat CPU 1 instructions: 20000003 cycles: 13650323 heartbeat IPC: 0.999158 cumulative IPC: 1.46517 (Simulation time: 2 hr 16 min 23 sec) 
 Total Blocks : 196608 Invalid Blocks : 0 Valid Blocks : 196608
 Total Tags : 491520 Threshold : 12288 Invalid Tags : 196608 Pr0 Tags : 98304 Pr1 Tags : 196608 num_pr0 : 12288
 SAE Count : 0
 Inter-Core Inteference in Data Store : 5112415
Heartbeat CPU 2 instructions: 20000003 cycles: 13670954 heartbeat IPC: 0.997103 cumulative IPC: 1.46296 (Simulation time: 2 hr 16 min 37 sec) 
 Total Blocks : 196608 Invalid Blocks : 0 Valid Blocks : 196608
 Total Tags : 491520 Threshold : 12288 Invalid Tags : 196608 Pr0 Tags : 98304 Pr1 Tags : 196608 num_pr0 : 12288
 SAE Count : 0
 Inter-Core Inteference in Data Store : 5133730
Heartbeat CPU 3 instructions: 20000003 cycles: 13689379 heartbeat IPC: 0.995275 cumulative IPC: 1.46099 (Simulation time: 2 hr 16 min 48 sec) 
 Total Blocks : 196608 Invalid Blocks : 0 Valid Blocks : 196608
 Total Tags : 491520 Threshold : 12288 Invalid Tags : 196608 Pr0 Tags : 98304 Pr1 Tags : 196608 num_pr0 : 12288
 SAE Count : 0
 Inter-Core Inteference in Data Store : 5153047
Heartbeat CPU 4 instructions: 20000003 cycles: 13705397 heartbeat IPC: 0.993691 cumulative IPC: 1.45928 (Simulation time: 2 hr 16 min 58 sec) 
 Total Blocks : 196608 Invalid Blocks : 0 Valid Blocks : 196608
 Total Tags : 491520 Threshold : 12288 Invalid Tags : 196608 Pr0 Tags : 98304 Pr1 Tags : 196608 num_pr0 : 12288
 SAE Count : 0
 Inter-Core Inteference in Data Store : 5169447
Heartbeat CPU 5 instructions: 20000003 cycles: 13720332 heartbeat IPC: 0.992219 cumulative IPC: 1.45769 (Simulation time: 2 hr 17 min 8 sec) 
 Total Blocks : 196608 Invalid Blocks : 0 Valid Blocks : 196608
 Total Tags : 491520 Threshold : 12288 Invalid Tags : 196608 Pr0 Tags : 98304 Pr1 Tags : 196608 num_pr0 : 12288
 SAE Count : 0
 Inter-Core Inteference in Data Store : 5184617
Heartbeat CPU 6 instructions: 20000003 cycles: 13734921 heartbeat IPC: 0.990785 cumulative IPC: 1.45614 (Simulation time: 2 hr 17 min 17 sec) 
 Total Blocks : 196608 Invalid Blocks : 0 Valid Blocks : 196608
 Total Tags : 491520 Threshold : 12288 Invalid Tags : 196608 Pr0 Tags : 98304 Pr1 Tags : 196608 num_pr0 : 12288
 SAE Count : 0
 Inter-Core Inteference in Data Store : 5199576
Heartbeat CPU 7 instructions: 20000003 cycles: 13751129 heartbeat IPC: 0.989197 cumulative IPC: 1.45443 (Simulation time: 2 hr 17 min 28 sec) 
 Total Blocks : 196608 Invalid Blocks : 0 Valid Blocks : 196608
 Total Tags : 491520 Threshold : 12288 Invalid Tags : 196608 Pr0 Tags : 98304 Pr1 Tags : 196608 num_pr0 : 12288
 SAE Count : 0
 Inter-Core Inteference in Data Store : 5216067
Heartbeat CPU 0 instructions: 30000002 cycles: 26111204 heartbeat IPC: 0.801147 cumulative IPC: 1.14893 (Simulation time: 4 hr 28 min 33 sec) 
 Total Blocks : 196608 Invalid Blocks : 0 Valid Blocks : 196608
 Total Tags : 491520 Threshold : 12288 Invalid Tags : 196608 Pr0 Tags : 98304 Pr1 Tags : 196608 num_pr0 : 12288
 SAE Count : 0
 Inter-Core Inteference in Data Store : 17526684
Heartbeat CPU 1 instructions: 30000002 cycles: 26187823 heartbeat IPC: 0.797607 cumulative IPC: 1.14557 (Simulation time: 4 hr 29 min 22 sec) 
 Total Blocks : 196608 Invalid Blocks : 0 Valid Blocks : 196608
 Total Tags : 491520 Threshold : 12288 Invalid Tags : 196608 Pr0 Tags : 98304 Pr1 Tags : 196608 num_pr0 : 12288
 SAE Count : 0
 Inter-Core Inteference in Data Store : 17597862
Heartbeat CPU 2 instructions: 30000002 cycles: 26261448 heartbeat IPC: 0.79425 cumulative IPC: 1.14236 (Simulation time: 4 hr 30 min 10 sec) 
 Total Blocks : 196608 Invalid Blocks : 0 Valid Blocks : 196608
 Total Tags : 491520 Threshold : 12288 Invalid Tags : 196608 Pr0 Tags : 98304 Pr1 Tags : 196608 num_pr0 : 12288
 SAE Count : 0
 Inter-Core Inteference in Data Store : 17664612
Heartbeat CPU 3 instructions: 30000002 cycles: 26323422 heartbeat IPC: 0.791512 cumulative IPC: 1.13967 (Simulation time: 4 hr 30 min 48 sec) 
 Total Blocks : 196608 Invalid Blocks : 0 Valid Blocks : 196608
 Total Tags : 491520 Threshold : 12288 Invalid Tags : 196608 Pr0 Tags : 98304 Pr1 Tags : 196608 num_pr0 : 12288
 SAE Count : 0
 Inter-Core Inteference in Data Store : 17720109
Heartbeat CPU 4 instructions: 30000002 cycles: 26384837 heartbeat IPC: 0.788678 cumulative IPC: 1.13702 (Simulation time: 4 hr 31 min 27 sec) 
 Total Blocks : 196608 Invalid Blocks : 0 Valid Blocks : 196608
 Total Tags : 491520 Threshold : 12288 Invalid Tags : 196608 Pr0 Tags : 98304 Pr1 Tags : 196608 num_pr0 : 12288
 SAE Count : 0
 Inter-Core Inteference in Data Store : 17775718
Heartbeat CPU 5 instructions: 30000002 cycles: 26441039 heartbeat IPC: 0.78612 cumulative IPC: 1.1346 (Simulation time: 4 hr 32 min 3 sec) 
 Total Blocks : 196608 Invalid Blocks : 0 Valid Blocks : 196608
 Total Tags : 491520 Threshold : 12288 Invalid Tags : 196608 Pr0 Tags : 98304 Pr1 Tags : 196608 num_pr0 : 12288
 SAE Count : 0
 Inter-Core Inteference in Data Store : 17828189
Heartbeat CPU 6 instructions: 30000002 cycles: 26496977 heartbeat IPC: 0.783573 cumulative IPC: 1.1322 (Simulation time: 4 hr 32 min 33 sec) 
 Total Blocks : 196608 Invalid Blocks : 0 Valid Blocks : 196608
 Total Tags : 491520 Threshold : 12288 Invalid Tags : 196608 Pr0 Tags : 98304 Pr1 Tags : 196608 num_pr0 : 12288
 SAE Count : 0
 Inter-Core Inteference in Data Store : 17879797
Heartbeat CPU 7 instructions: 30000002 cycles: 26550851 heartbeat IPC: 0.781267 cumulative IPC: 1.12991 (Simulation time: 4 hr 33 min 9 sec) 
 Total Blocks : 196608 Invalid Blocks : 0 Valid Blocks : 196608
 Total Tags : 491520 Threshold : 12288 Invalid Tags : 196608 Pr0 Tags : 98304 Pr1 Tags : 196608 num_pr0 : 12288
 SAE Count : 0
 Inter-Core Inteference in Data Store : 17927941
Heartbeat CPU 0 instructions: 40000000 cycles: 38571413 heartbeat IPC: 0.802555 cumulative IPC: 1.03704 (Simulation time: 6 hr 37 min 34 sec) 
 Total Blocks : 196608 Invalid Blocks : 0 Valid Blocks : 196608
 Total Tags : 491520 Threshold : 12288 Invalid Tags : 196608 Pr0 Tags : 98304 Pr1 Tags : 196608 num_pr0 : 12288
 SAE Count : 0
 Inter-Core Inteference in Data Store : 29841648
Heartbeat CPU 1 instructions: 40000000 cycles: 38702958 heartbeat IPC: 0.799032 cumulative IPC: 1.03351 (Simulation time: 6 hr 38 min 52 sec) 
 Total Blocks : 196608 Invalid Blocks : 0 Valid Blocks : 196608
 Total Tags : 491520 Threshold : 12288 Invalid Tags : 196608 Pr0 Tags : 98304 Pr1 Tags : 196608 num_pr0 : 12288
 SAE Count : 0
 Inter-Core Inteference in Data Store : 29978371
Heartbeat CPU 2 instructions: 40000000 cycles: 38830185 heartbeat IPC: 0.795625 cumulative IPC: 1.03013 (Simulation time: 6 hr 40 min 19 sec) 
 Total Blocks : 196608 Invalid Blocks : 0 Valid Blocks : 196608
 Total Tags : 491520 Threshold : 12288 Invalid Tags : 196608 Pr0 Tags : 98304 Pr1 Tags : 196608 num_pr0 : 12288
 SAE Count : 0
 Inter-Core Inteference in Data Store : 30098120
Heartbeat CPU 3 instructions: 40000000 cycles: 38934537 heartbeat IPC: 0.792951 cumulative IPC: 1.02737 (Simulation time: 6 hr 41 min 26 sec) 
 Total Blocks : 196608 Invalid Blocks : 0 Valid Blocks : 196608
 Total Tags : 491520 Threshold : 12288 Invalid Tags : 196608 Pr0 Tags : 98304 Pr1 Tags : 196608 num_pr0 : 12288
 SAE Count : 0
 Inter-Core Inteference in Data Store : 30193878
Heartbeat CPU 4 instructions: 40000000 cycles: 39041697 heartbeat IPC: 0.790085 cumulative IPC: 1.02455 (Simulation time: 6 hr 42 min 23 sec) 
 Total Blocks : 196608 Invalid Blocks : 0 Valid Blocks : 196608
 Total Tags : 491520 Threshold : 12288 Invalid Tags : 196608 Pr0 Tags : 98304 Pr1 Tags : 196608 num_pr0 : 12288
 SAE Count : 0
 Inter-Core Inteference in Data Store : 30296464
Heartbeat CPU 5 instructions: 40000000 cycles: 39139538 heartbeat IPC: 0.787494 cumulative IPC: 1.02198 (Simulation time: 6 hr 43 min 26 sec) 
 Total Blocks : 196608 Invalid Blocks : 0 Valid Blocks : 196608
 Total Tags : 491520 Threshold : 12288 Invalid Tags : 196608 Pr0 Tags : 98304 Pr1 Tags : 196608 num_pr0 : 12288
 SAE Count : 0
 Inter-Core Inteference in Data Store : 30386025
Heartbeat CPU 6 instructions: 40000000 cycles: 39233650 heartbeat IPC: 0.785134 cumulative IPC: 1.01953 (Simulation time: 6 hr 44 min 26 sec) 
 Total Blocks : 196608 Invalid Blocks : 0 Valid Blocks : 196608
 Total Tags : 491520 Threshold : 12288 Invalid Tags : 196608 Pr0 Tags : 98304 Pr1 Tags : 196608 num_pr0 : 12288
 SAE Count : 0
 Inter-Core Inteference in Data Store : 30471991
Heartbeat CPU 7 instructions: 40000000 cycles: 39324834 heartbeat IPC: 0.782841 cumulative IPC: 1.01717 (Simulation time: 6 hr 45 min 27 sec) 
 Total Blocks : 196608 Invalid Blocks : 0 Valid Blocks : 196608
 Total Tags : 491520 Threshold : 12288 Invalid Tags : 196608 Pr0 Tags : 98304 Pr1 Tags : 196608 num_pr0 : 12288
 SAE Count : 0
 Inter-Core Inteference in Data Store : 30552222
Heartbeat CPU 0 instructions: 50000000 cycles: 50741846 heartbeat IPC: 0.821663 cumulative IPC: 0.98538 (Simulation time: 8 hr 40 min 43 sec) 
 Total Blocks : 196608 Invalid Blocks : 0 Valid Blocks : 196608
 Total Tags : 491520 Threshold : 12288 Invalid Tags : 196608 Pr0 Tags : 98304 Pr1 Tags : 196608 num_pr0 : 12288
 SAE Count : 0
 Inter-Core Inteference in Data Store : 41604459
Heartbeat CPU 1 instructions: 50000000 cycles: 50932252 heartbeat IPC: 0.817709 cumulative IPC: 0.981696 (Simulation time: 8 hr 42 min 40 sec) 
 Total Blocks : 196608 Invalid Blocks : 0 Valid Blocks : 196608
 Total Tags : 491520 Threshold : 12288 Invalid Tags : 196608 Pr0 Tags : 98304 Pr1 Tags : 196608 num_pr0 : 12288
 SAE Count : 0
 Inter-Core Inteference in Data Store : 41801350
Heartbeat CPU 2 instructions: 50000000 cycles: 51108715 heartbeat IPC: 0.81443 cumulative IPC: 0.978307 (Simulation time: 8 hr 44 min 24 sec) 
 Total Blocks : 196608 Invalid Blocks : 0 Valid Blocks : 196608
 Total Tags : 491520 Threshold : 12288 Invalid Tags : 196608 Pr0 Tags : 98304 Pr1 Tags : 196608 num_pr0 : 12288
 SAE Count : 0
 Inter-Core Inteference in Data Store : 41978903
Heartbeat CPU 3 instructions: 50000000 cycles: 51256398 heartbeat IPC: 0.811566 cumulative IPC: 0.975488 (Simulation time: 8 hr 45 min 45 sec) 
 Total Blocks : 196608 Invalid Blocks : 0 Valid Blocks : 196608
 Total Tags : 491520 Threshold : 12288 Invalid Tags : 196608 Pr0 Tags : 98304 Pr1 Tags : 196608 num_pr0 : 12288
 SAE Count : 0
 Inter-Core Inteference in Data Store : 42128931
Heartbeat CPU 4 instructions: 50000000 cycles: 51403867 heartbeat IPC: 0.808919 cumulative IPC: 0.972689 (Simulation time: 8 hr 47 min 15 sec) 
 Total Blocks : 196608 Invalid Blocks : 0 Valid Blocks : 196608
 Total Tags : 491520 Threshold : 12288 Invalid Tags : 196608 Pr0 Tags : 98304 Pr1 Tags : 196608 num_pr0 : 12288
 SAE Count : 0
 Inter-Core Inteference in Data Store : 42279961
Heartbeat CPU 5 instructions: 50000000 cycles: 51542869 heartbeat IPC: 0.806235 cumulative IPC: 0.970066 (Simulation time: 8 hr 48 min 30 sec) 
 Total Blocks : 196608 Invalid Blocks : 0 Valid Blocks : 196608
 Total Tags : 491520 Threshold : 12288 Invalid Tags : 196608 Pr0 Tags : 98304 Pr1 Tags : 196608 num_pr0 : 12288
 SAE Count : 0
 Inter-Core Inteference in Data Store : 42420873
Heartbeat CPU 6 instructions: 50000000 cycles: 51676327 heartbeat IPC: 0.803686 cumulative IPC: 0.967561 (Simulation time: 8 hr 49 min 43 sec) 
 Total Blocks : 196608 Invalid Blocks : 0 Valid Blocks : 196608
 Total Tags : 491520 Threshold : 12288 Invalid Tags : 196608 Pr0 Tags : 98304 Pr1 Tags : 196608 num_pr0 : 12288
 SAE Count : 0
 Inter-Core Inteference in Data Store : 42555568
Heartbeat CPU 7 instructions: 50000000 cycles: 51803947 heartbeat IPC: 0.801339 cumulative IPC: 0.965177 (Simulation time: 8 hr 50 min 55 sec) 
 Total Blocks : 196608 Invalid Blocks : 0 Valid Blocks : 196608
 Total Tags : 491520 Threshold : 12288 Invalid Tags : 196608 Pr0 Tags : 98304 Pr1 Tags : 196608 num_pr0 : 12288
 SAE Count : 0
 Inter-Core Inteference in Data Store : 42684131
Heartbeat CPU 0 instructions: 60000000 cycles: 63322339 heartbeat IPC: 0.794881 cumulative IPC: 0.947533 (Simulation time: 10 hr 44 min 11 sec) 
 Total Blocks : 196608 Invalid Blocks : 0 Valid Blocks : 196608
 Total Tags : 491520 Threshold : 12288 Invalid Tags : 196608 Pr0 Tags : 98304 Pr1 Tags : 196608 num_pr0 : 12288
 SAE Count : 0
 Inter-Core Inteference in Data Store : 54260392
Heartbeat CPU 1 instructions: 60000000 cycles: 63567965 heartbeat IPC: 0.791408 cumulative IPC: 0.943872 (Simulation time: 10 hr 46 min 40 sec) 
 Total Blocks : 196608 Invalid Blocks : 0 Valid Blocks : 196608
 Total Tags : 491520 Threshold : 12288 Invalid Tags : 196608 Pr0 Tags : 98304 Pr1 Tags : 196608 num_pr0 : 12288
 SAE Count : 0
 Inter-Core Inteference in Data Store : 54507693
Heartbeat CPU 2 instructions: 60000000 cycles: 63797086 heartbeat IPC: 0.788123 cumulative IPC: 0.940482 (Simulation time: 10 hr 49 min 0 sec) 
 Total Blocks : 196608 Invalid Blocks : 0 Valid Blocks : 196608
 Total Tags : 491520 Threshold : 12288 Invalid Tags : 196608 Pr0 Tags : 98304 Pr1 Tags : 196608 num_pr0 : 12288
 SAE Count : 0
 Inter-Core Inteference in Data Store : 54745173
Heartbeat CPU 3 instructions: 60000000 cycles: 63990614 heartbeat IPC: 0.785286 cumulative IPC: 0.937638 (Simulation time: 10 hr 50 min 57 sec) 
 Total Blocks : 196608 Invalid Blocks : 0 Valid Blocks : 196608
 Total Tags : 491520 Threshold : 12288 Invalid Tags : 196608 Pr0 Tags : 98304 Pr1 Tags : 196608 num_pr0 : 12288
 SAE Count : 0
 Inter-Core Inteference in Data Store : 54945580
Heartbeat CPU 4 instructions: 60000000 cycles: 64179942 heartbeat IPC: 0.782713 cumulative IPC: 0.934871 (Simulation time: 10 hr 52 min 52 sec) 
 Total Blocks : 196608 Invalid Blocks : 0 Valid Blocks : 196608
 Total Tags : 491520 Threshold : 12288 Invalid Tags : 196608 Pr0 Tags : 98304 Pr1 Tags : 196608 num_pr0 : 12288
 SAE Count : 0
 Inter-Core Inteference in Data Store : 55141710
Heartbeat CPU 5 instructions: 60000000 cycles: 64364690 heartbeat IPC: 0.77992 cumulative IPC: 0.932188 (Simulation time: 10 hr 54 min 48 sec) 
 Total Blocks : 196608 Invalid Blocks : 0 Valid Blocks : 196608
 Total Tags : 491520 Threshold : 12288 Invalid Tags : 196608 Pr0 Tags : 98304 Pr1 Tags : 196608 num_pr0 : 12288
 SAE Count : 0
 Inter-Core Inteference in Data Store : 55334296
Heartbeat CPU 6 instructions: 60000000 cycles: 64533013 heartbeat IPC: 0.777805 cumulative IPC: 0.929757 (Simulation time: 10 hr 56 min 33 sec) 
 Total Blocks : 196608 Invalid Blocks : 0 Valid Blocks : 196608
 Total Tags : 491520 Threshold : 12288 Invalid Tags : 196608 Pr0 Tags : 98304 Pr1 Tags : 196608 num_pr0 : 12288
 SAE Count : 0
 Inter-Core Inteference in Data Store : 55506009
Heartbeat CPU 7 instructions: 60000000 cycles: 64699567 heartbeat IPC: 0.775457 cumulative IPC: 0.927363 (Simulation time: 10 hr 58 min 27 sec) 
 Total Blocks : 196608 Invalid Blocks : 0 Valid Blocks : 196608
 Total Tags : 491520 Threshold : 12288 Invalid Tags : 196608 Pr0 Tags : 98304 Pr1 Tags : 196608 num_pr0 : 12288
 SAE Count : 0
 Inter-Core Inteference in Data Store : 55675503
Heartbeat CPU 0 instructions: 70000000 cycles: 75798866 heartbeat IPC: 0.801505 cumulative IPC: 0.923497 (Simulation time: 12 hr 53 min 10 sec) 
 Total Blocks : 196608 Invalid Blocks : 0 Valid Blocks : 196608
 Total Tags : 491520 Threshold : 12288 Invalid Tags : 196608 Pr0 Tags : 98304 Pr1 Tags : 196608 num_pr0 : 12288
 SAE Count : 0
 Inter-Core Inteference in Data Store : 66754610
Heartbeat CPU 1 instructions: 70000000 cycles: 76104136 heartbeat IPC: 0.797692 cumulative IPC: 0.919792 (Simulation time: 12 hr 56 min 19 sec) 
 Total Blocks : 196608 Invalid Blocks : 0 Valid Blocks : 196608
 Total Tags : 491520 Threshold : 12288 Invalid Tags : 196608 Pr0 Tags : 98304 Pr1 Tags : 196608 num_pr0 : 12288
 SAE Count : 0
 Inter-Core Inteference in Data Store : 67060446
Heartbeat CPU 2 instructions: 70000000 cycles: 76384338 heartbeat IPC: 0.794455 cumulative IPC: 0.916418 (Simulation time: 12 hr 59 min 10 sec) 
 Total Blocks : 196608 Invalid Blocks : 0 Valid Blocks : 196608
 Total Tags : 491520 Threshold : 12288 Invalid Tags : 196608 Pr0 Tags : 98304 Pr1 Tags : 196608 num_pr0 : 12288
 SAE Count : 0
 Inter-Core Inteference in Data Store : 67335942
Heartbeat CPU 3 instructions: 70000000 cycles: 76621458 heartbeat IPC: 0.791713 cumulative IPC: 0.913582 (Simulation time: 13 hr 1 min 31 sec) 
 Total Blocks : 196608 Invalid Blocks : 0 Valid Blocks : 196608
 Total Tags : 491520 Threshold : 12288 Invalid Tags : 196608 Pr0 Tags : 98304 Pr1 Tags : 196608 num_pr0 : 12288
 SAE Count : 0
 Inter-Core Inteference in Data Store : 67565525
Heartbeat CPU 4 instructions: 70000000 cycles: 76856154 heartbeat IPC: 0.788879 cumulative IPC: 0.910792 (Simulation time: 13 hr 3 min 54 sec) 
 Total Blocks : 196608 Invalid Blocks : 0 Valid Blocks : 196608
 Total Tags : 491520 Threshold : 12288 Invalid Tags : 196608 Pr0 Tags : 98304 Pr1 Tags : 196608 num_pr0 : 12288
 SAE Count : 0
 Inter-Core Inteference in Data Store : 67791279
Heartbeat CPU 5 instructions: 70000000 cycles: 77077448 heartbeat IPC: 0.786611 cumulative IPC: 0.908177 (Simulation time: 13 hr 6 min 1 sec) 
 Total Blocks : 196608 Invalid Blocks : 0 Valid Blocks : 196608
 Total Tags : 491520 Threshold : 12288 Invalid Tags : 196608 Pr0 Tags : 98304 Pr1 Tags : 196608 num_pr0 : 12288
 SAE Count : 0
 Inter-Core Inteference in Data Store : 68004491
Heartbeat CPU 6 instructions: 70000000 cycles: 77288747 heartbeat IPC: 0.783961 cumulative IPC: 0.905695 (Simulation time: 13 hr 8 min 18 sec) 
 Total Blocks : 196608 Invalid Blocks : 0 Valid Blocks : 196608
 Total Tags : 491520 Threshold : 12288 Invalid Tags : 196608 Pr0 Tags : 98304 Pr1 Tags : 196608 num_pr0 : 12288
 SAE Count : 0
 Inter-Core Inteference in Data Store : 68205932
Heartbeat CPU 7 instructions: 70000000 cycles: 77493728 heartbeat IPC: 0.781607 cumulative IPC: 0.903299 (Simulation time: 13 hr 10 min 19 sec) 
 Total Blocks : 196608 Invalid Blocks : 0 Valid Blocks : 196608
 Total Tags : 491520 Threshold : 12288 Invalid Tags : 196608 Pr0 Tags : 98304 Pr1 Tags : 196608 num_pr0 : 12288
 SAE Count : 0
 Inter-Core Inteference in Data Store : 68402235
Heartbeat CPU 0 instructions: 80000000 cycles: 88218576 heartbeat IPC: 0.805172 cumulative IPC: 0.906838 (Simulation time: 14 hr 56 min 15 sec) 
 Total Blocks : 196608 Invalid Blocks : 0 Valid Blocks : 196608
 Total Tags : 491520 Threshold : 12288 Invalid Tags : 196608 Pr0 Tags : 98304 Pr1 Tags : 196608 num_pr0 : 12288
 SAE Count : 0
 Inter-Core Inteference in Data Store : 79168723
Heartbeat CPU 1 instructions: 80000000 cycles: 88580292 heartbeat IPC: 0.801529 cumulative IPC: 0.903135 (Simulation time: 14 hr 59 min 43 sec) 
 Total Blocks : 196608 Invalid Blocks : 0 Valid Blocks : 196608
 Total Tags : 491520 Threshold : 12288 Invalid Tags : 196608 Pr0 Tags : 98304 Pr1 Tags : 196608 num_pr0 : 12288
 SAE Count : 0
 Inter-Core Inteference in Data Store : 79527323
Heartbeat CPU 2 instructions: 80000000 cycles: 88907777 heartbeat IPC: 0.798503 cumulative IPC: 0.899809 (Simulation time: 15 hr 2 min 48 sec) 
 Total Blocks : 196608 Invalid Blocks : 0 Valid Blocks : 196608
 Total Tags : 491520 Threshold : 12288 Invalid Tags : 196608 Pr0 Tags : 98304 Pr1 Tags : 196608 num_pr0 : 12288
 SAE Count : 0
 Inter-Core Inteference in Data Store : 79848081
Heartbeat CPU 3 instructions: 80000000 cycles: 89192116 heartbeat IPC: 0.795503 cumulative IPC: 0.89694 (Simulation time: 15 hr 5 min 31 sec) 
 Total Blocks : 196608 Invalid Blocks : 0 Valid Blocks : 196608
 Total Tags : 491520 Threshold : 12288 Invalid Tags : 196608 Pr0 Tags : 98304 Pr1 Tags : 196608 num_pr0 : 12288
 SAE Count : 0
 Inter-Core Inteference in Data Store : 80127970
Heartbeat CPU 4 instructions: 80000000 cycles: 89471305 heartbeat IPC: 0.792698 cumulative IPC: 0.894141 (Simulation time: 15 hr 8 min 7 sec) 
 Total Blocks : 196608 Invalid Blocks : 0 Valid Blocks : 196608
 Total Tags : 491520 Threshold : 12288 Invalid Tags : 196608 Pr0 Tags : 98304 Pr1 Tags : 196608 num_pr0 : 12288
 SAE Count : 0
 Inter-Core Inteference in Data Store : 80399100
Heartbeat CPU 5 instructions: 80000000 cycles: 89730725 heartbeat IPC: 0.790309 cumulative IPC: 0.891556 (Simulation time: 15 hr 10 min 42 sec) 
 Total Blocks : 196608 Invalid Blocks : 0 Valid Blocks : 196608
 Total Tags : 491520 Threshold : 12288 Invalid Tags : 196608 Pr0 Tags : 98304 Pr1 Tags : 196608 num_pr0 : 12288
 SAE Count : 0
 Inter-Core Inteference in Data Store : 80650894
Heartbeat CPU 6 instructions: 80000000 cycles: 89981887 heartbeat IPC: 0.787827 cumulative IPC: 0.889068 (Simulation time: 15 hr 13 min 16 sec) 
 Total Blocks : 196608 Invalid Blocks : 0 Valid Blocks : 196608
 Total Tags : 491520 Threshold : 12288 Invalid Tags : 196608 Pr0 Tags : 98304 Pr1 Tags : 196608 num_pr0 : 12288
 SAE Count : 0
 Inter-Core Inteference in Data Store : 80892162
Heartbeat CPU 7 instructions: 80000000 cycles: 90225621 heartbeat IPC: 0.785429 cumulative IPC: 0.886666 (Simulation time: 15 hr 15 min 37 sec) 
 Total Blocks : 196608 Invalid Blocks : 0 Valid Blocks : 196608
 Total Tags : 491520 Threshold : 12288 Invalid Tags : 196608 Pr0 Tags : 98304 Pr1 Tags : 196608 num_pr0 : 12288
 SAE Count : 0
 Inter-Core Inteference in Data Store : 81130355
Heartbeat CPU 0 instructions: 90000000 cycles: 100837558 heartbeat IPC: 0.792457 cumulative IPC: 0.892525 (Simulation time: 16 hr 53 min 5 sec) 
 Total Blocks : 196608 Invalid Blocks : 0 Valid Blocks : 196608
 Total Tags : 491520 Threshold : 12288 Invalid Tags : 196608 Pr0 Tags : 98304 Pr1 Tags : 196608 num_pr0 : 12288
 SAE Count : 0
 Inter-Core Inteference in Data Store : 91877146
Heartbeat CPU 1 instructions: 90000000 cycles: 101258251 heartbeat IPC: 0.78877 cumulative IPC: 0.888816 (Simulation time: 16 hr 56 min 56 sec) 
 Total Blocks : 196608 Invalid Blocks : 0 Valid Blocks : 196608
 Total Tags : 491520 Threshold : 12288 Invalid Tags : 196608 Pr0 Tags : 98304 Pr1 Tags : 196608 num_pr0 : 12288
 SAE Count : 0
 Inter-Core Inteference in Data Store : 92290895
Heartbeat CPU 2 instructions: 90000000 cycles: 101635936 heartbeat IPC: 0.78566 cumulative IPC: 0.885514 (Simulation time: 17 hr 0 min 26 sec) 
 Total Blocks : 196608 Invalid Blocks : 0 Valid Blocks : 196608
 Total Tags : 491520 Threshold : 12288 Invalid Tags : 196608 Pr0 Tags : 98304 Pr1 Tags : 196608 num_pr0 : 12288
 SAE Count : 0
 Inter-Core Inteference in Data Store : 92675331
Heartbeat CPU 3 instructions: 90000000 cycles: 101968300 heartbeat IPC: 0.782706 cumulative IPC: 0.882627 (Simulation time: 17 hr 3 min 34 sec) 
 Total Blocks : 196608 Invalid Blocks : 0 Valid Blocks : 196608
 Total Tags : 491520 Threshold : 12288 Invalid Tags : 196608 Pr0 Tags : 98304 Pr1 Tags : 196608 num_pr0 : 12288
 SAE Count : 0
 Inter-Core Inteference in Data Store : 93010968
Heartbeat CPU 4 instructions: 90000000 cycles: 102290731 heartbeat IPC: 0.780066 cumulative IPC: 0.879845 (Simulation time: 17 hr 6 min 47 sec) 
 Total Blocks : 196608 Invalid Blocks : 0 Valid Blocks : 196608
 Total Tags : 491520 Threshold : 12288 Invalid Tags : 196608 Pr0 Tags : 98304 Pr1 Tags : 196608 num_pr0 : 12288
 SAE Count : 0
 Inter-Core Inteference in Data Store : 93340861
Heartbeat CPU 5 instructions: 90000000 cycles: 102593169 heartbeat IPC: 0.777457 cumulative IPC: 0.877251 (Simulation time: 17 hr 9 min 36 sec) 
 Total Blocks : 196608 Invalid Blocks : 0 Valid Blocks : 196608
 Total Tags : 491520 Threshold : 12288 Invalid Tags : 196608 Pr0 Tags : 98304 Pr1 Tags : 196608 num_pr0 : 12288
 SAE Count : 0
 Inter-Core Inteference in Data Store : 93645895
Heartbeat CPU 6 instructions: 90000000 cycles: 102883583 heartbeat IPC: 0.775092 cumulative IPC: 0.874775 (Simulation time: 17 hr 12 min 25 sec) 
 Total Blocks : 196608 Invalid Blocks : 0 Valid Blocks : 196608
 Total Tags : 491520 Threshold : 12288 Invalid Tags : 196608 Pr0 Tags : 98304 Pr1 Tags : 196608 num_pr0 : 12288
 SAE Count : 0
 Inter-Core Inteference in Data Store : 93939177
Heartbeat CPU 7 instructions: 90000000 cycles: 103162377 heartbeat IPC: 0.772991 cumulative IPC: 0.872411 (Simulation time: 17 hr 15 min 3 sec) 
 Total Blocks : 196608 Invalid Blocks : 0 Valid Blocks : 196608
 Total Tags : 491520 Threshold : 12288 Invalid Tags : 196608 Pr0 Tags : 98304 Pr1 Tags : 196608 num_pr0 : 12288
 SAE Count : 0
 Inter-Core Inteference in Data Store : 94220059
Heartbeat CPU 0 instructions: 100000001 cycles: 113427198 heartbeat IPC: 0.794304 cumulative IPC: 0.881623 (Simulation time: 18 hr 46 min 7 sec) 
 Total Blocks : 196608 Invalid Blocks : 0 Valid Blocks : 196608
 Total Tags : 491520 Threshold : 12288 Invalid Tags : 196608 Pr0 Tags : 98304 Pr1 Tags : 196608 num_pr0 : 12288
 SAE Count : 0
 Inter-Core Inteference in Data Store : 104547984
Heartbeat CPU 1 instructions: 100000001 cycles: 113906681 heartbeat IPC: 0.790612 cumulative IPC: 0.877912 (Simulation time: 18 hr 50 min 15 sec) 
 Total Blocks : 196608 Invalid Blocks : 0 Valid Blocks : 196608
 Total Tags : 491520 Threshold : 12288 Invalid Tags : 196608 Pr0 Tags : 98304 Pr1 Tags : 196608 num_pr0 : 12288
 SAE Count : 0
 Inter-Core Inteference in Data Store : 105037096
Heartbeat CPU 2 instructions: 100000001 cycles: 114335643 heartbeat IPC: 0.78742 cumulative IPC: 0.874618 (Simulation time: 18 hr 53 min 52 sec) 
 Total Blocks : 196608 Invalid Blocks : 0 Valid Blocks : 196608
 Total Tags : 491520 Threshold : 12288 Invalid Tags : 196608 Pr0 Tags : 98304 Pr1 Tags : 196608 num_pr0 : 12288
 SAE Count : 0
 Inter-Core Inteference in Data Store : 105470642
Heartbeat CPU 3 instructions: 100000001 cycles: 114717098 heartbeat IPC: 0.784388 cumulative IPC: 0.87171 (Simulation time: 18 hr 57 min 13 sec) 
 Total Blocks : 196608 Invalid Blocks : 0 Valid Blocks : 196608
 Total Tags : 491520 Threshold : 12288 Invalid Tags : 196608 Pr0 Tags : 98304 Pr1 Tags : 196608 num_pr0 : 12288
 SAE Count : 0
 Inter-Core Inteference in Data Store : 105859673
Heartbeat CPU 4 instructions: 100000001 cycles: 115085578 heartbeat IPC: 0.781565 cumulative IPC: 0.868919 (Simulation time: 19 hr 0 min 22 sec) 
 Total Blocks : 196608 Invalid Blocks : 0 Valid Blocks : 196608
 Total Tags : 491520 Threshold : 12288 Invalid Tags : 196608 Pr0 Tags : 98304 Pr1 Tags : 196608 num_pr0 : 12288
 SAE Count : 0
 Inter-Core Inteference in Data Store : 106234587
Heartbeat CPU 5 instructions: 100000001 cycles: 115428346 heartbeat IPC: 0.779109 cumulative IPC: 0.866338 (Simulation time: 19 hr 3 min 18 sec) 
 Total Blocks : 196608 Invalid Blocks : 0 Valid Blocks : 196608
 Total Tags : 491520 Threshold : 12288 Invalid Tags : 196608 Pr0 Tags : 98304 Pr1 Tags : 196608 num_pr0 : 12288
 SAE Count : 0
 Inter-Core Inteference in Data Store : 106584194
FILL
Heartbeat CPU 6 instructions: 100000001 cycles: 115760446 heartbeat IPC: 0.776587 cumulative IPC: 0.863853 (Simulation time: 19 hr 6 min 4 sec) 
 Total Blocks : 196608 Invalid Blocks : 0 Valid Blocks : 196608
 Total Tags : 491520 Threshold : 12288 Invalid Tags : 196608 Pr0 Tags : 98304 Pr1 Tags : 196608 num_pr0 : 12288
 SAE Count : 0
 Inter-Core Inteference in Data Store : 106919130
Heartbeat CPU 7 instructions: 100000001 cycles: 116080221 heartbeat IPC: 0.774123 cumulative IPC: 0.861473 (Simulation time: 19 hr 8 min 47 sec) 
 Total Blocks : 196608 Invalid Blocks : 0 Valid Blocks : 196608
 Total Tags : 491520 Threshold : 12288 Invalid Tags : 196608 Pr0 Tags : 98304 Pr1 Tags : 196608 num_pr0 : 12288
 SAE Count : 0
 Inter-Core Inteference in Data Store : 107242633
Heartbeat CPU 0 instructions: 110000000 cycles: 126034412 heartbeat IPC: 0.793197 cumulative IPC: 0.872778 (Simulation time: 20 hr 31 min 35 sec) 
 Total Blocks : 196608 Invalid Blocks : 0 Valid Blocks : 196608
 Total Tags : 491520 Threshold : 12288 Invalid Tags : 196608 Pr0 Tags : 98304 Pr1 Tags : 196608 num_pr0 : 12288
 SAE Count : 0
 Inter-Core Inteference in Data Store : 117261998
Heartbeat CPU 1 instructions: 110000000 cycles: 126571916 heartbeat IPC: 0.789563 cumulative IPC: 0.869071 (Simulation time: 20 hr 35 min 59 sec) 
 Total Blocks : 196608 Invalid Blocks : 0 Valid Blocks : 196608
 Total Tags : 491520 Threshold : 12288 Invalid Tags : 196608 Pr0 Tags : 98304 Pr1 Tags : 196608 num_pr0 : 12288
 SAE Count : 0
 Inter-Core Inteference in Data Store : 117804373
Heartbeat CPU 2 instructions: 110000000 cycles: 127051289 heartbeat IPC: 0.786433 cumulative IPC: 0.865792 (Simulation time: 20 hr 39 min 59 sec) 
 Total Blocks : 196608 Invalid Blocks : 0 Valid Blocks : 196608
 Total Tags : 491520 Threshold : 12288 Invalid Tags : 196608 Pr0 Tags : 98304 Pr1 Tags : 196608 num_pr0 : 12288
 SAE Count : 0
 Inter-Core Inteference in Data Store : 118294967
Heartbeat CPU 3 instructions: 110000000 cycles: 127480583 heartbeat IPC: 0.783485 cumulative IPC: 0.862877 (Simulation time: 20 hr 43 min 38 sec) 
 Total Blocks : 196608 Invalid Blocks : 0 Valid Blocks : 196608
 Total Tags : 491520 Threshold : 12288 Invalid Tags : 196608 Pr0 Tags : 98304 Pr1 Tags : 196608 num_pr0 : 12288
 SAE Count : 0
 Inter-Core Inteference in Data Store : 118734872
Heartbeat CPU 4 instructions: 110000000 cycles: 127890855 heartbeat IPC: 0.780928 cumulative IPC: 0.860108 (Simulation time: 20 hr 46 min 58 sec) 
 Total Blocks : 196608 Invalid Blocks : 0 Valid Blocks : 196608
 Total Tags : 491520 Threshold : 12288 Invalid Tags : 196608 Pr0 Tags : 98304 Pr1 Tags : 196608 num_pr0 : 12288
 SAE Count : 0
 Inter-Core Inteference in Data Store : 119155208
Heartbeat CPU 5 instructions: 110000000 cycles: 128273966 heartbeat IPC: 0.778475 cumulative IPC: 0.85754 (Simulation time: 20 hr 50 min 10 sec) 
 Total Blocks : 196608 Invalid Blocks : 0 Valid Blocks : 196608
 Total Tags : 491520 Threshold : 12288 Invalid Tags : 196608 Pr0 Tags : 98304 Pr1 Tags : 196608 num_pr0 : 12288
 SAE Count : 0
 Inter-Core Inteference in Data Store : 119536310
Heartbeat CPU 6 instructions: 110000000 cycles: 128647266 heartbeat IPC: 0.775987 cumulative IPC: 0.855051 (Simulation time: 20 hr 53 min 23 sec) 
 Total Blocks : 196608 Invalid Blocks : 0 Valid Blocks : 196608
 Total Tags : 491520 Threshold : 12288 Invalid Tags : 196608 Pr0 Tags : 98304 Pr1 Tags : 196608 num_pr0 : 12288
 SAE Count : 0
 Inter-Core Inteference in Data Store : 119907950
Heartbeat CPU 7 instructions: 110000000 cycles: 129005299 heartbeat IPC: 0.77369 cumulative IPC: 0.852678 (Simulation time: 20 hr 56 min 32 sec) 
 Total Blocks : 196608 Invalid Blocks : 0 Valid Blocks : 196608
 Total Tags : 491520 Threshold : 12288 Invalid Tags : 196608 Pr0 Tags : 98304 Pr1 Tags : 196608 num_pr0 : 12288
 SAE Count : 0
 Inter-Core Inteference in Data Store : 120268579
Heartbeat CPU 0 instructions: 120000001 cycles: 138555908 heartbeat IPC: 0.798627 cumulative IPC: 0.866076 (Simulation time: 22 hr 15 min 44 sec) 
 Total Blocks : 196608 Invalid Blocks : 0 Valid Blocks : 196608
 Total Tags : 491520 Threshold : 12288 Invalid Tags : 196608 Pr0 Tags : 98304 Pr1 Tags : 196608 num_pr0 : 12288
 SAE Count : 0
 Inter-Core Inteference in Data Store : 129860140
Heartbeat CPU 1 instructions: 120000001 cycles: 139150006 heartbeat IPC: 0.795033 cumulative IPC: 0.862379 (Simulation time: 22 hr 20 min 41 sec) 
 Total Blocks : 196608 Invalid Blocks : 0 Valid Blocks : 196608
 Total Tags : 491520 Threshold : 12288 Invalid Tags : 196608 Pr0 Tags : 98304 Pr1 Tags : 196608 num_pr0 : 12288
 SAE Count : 0
 Inter-Core Inteference in Data Store : 130456624
Heartbeat CPU 2 instructions: 120000001 cycles: 139679511 heartbeat IPC: 0.791877 cumulative IPC: 0.85911 (Simulation time: 22 hr 25 min 12 sec) 
 Total Blocks : 196608 Invalid Blocks : 0 Valid Blocks : 196608
 Total Tags : 491520 Threshold : 12288 Invalid Tags : 196608 Pr0 Tags : 98304 Pr1 Tags : 196608 num_pr0 : 12288
 SAE Count : 0
 Inter-Core Inteference in Data Store : 130979367
Heartbeat CPU 3 instructions: 120000001 cycles: 140150028 heartbeat IPC: 0.789301 cumulative IPC: 0.856225 (Simulation time: 22 hr 29 min 15 sec) 
 Total Blocks : 196608 Invalid Blocks : 0 Valid Blocks : 196608
 Total Tags : 491520 Threshold : 12288 Invalid Tags : 196608 Pr0 Tags : 98304 Pr1 Tags : 196608 num_pr0 : 12288
 SAE Count : 0
 Inter-Core Inteference in Data Store : 131441455
Heartbeat CPU 4 instructions: 120000001 cycles: 140603183 heartbeat IPC: 0.786638 cumulative IPC: 0.853466 (Simulation time: 22 hr 33 min 10 sec) 
 Total Blocks : 196608 Invalid Blocks : 0 Valid Blocks : 196608
 Total Tags : 491520 Threshold : 12288 Invalid Tags : 196608 Pr0 Tags : 98304 Pr1 Tags : 196608 num_pr0 : 12288
 SAE Count : 0
 Inter-Core Inteference in Data Store : 131883320
Heartbeat CPU 5 instructions: 120000001 cycles: 141026628 heartbeat IPC: 0.78415 cumulative IPC: 0.850903 (Simulation time: 22 hr 36 min 45 sec) 
 Total Blocks : 196608 Invalid Blocks : 0 Valid Blocks : 196608
 Total Tags : 491520 Threshold : 12288 Invalid Tags : 196608 Pr0 Tags : 98304 Pr1 Tags : 196608 num_pr0 : 12288
 SAE Count : 0
 Inter-Core Inteference in Data Store : 132295069
Heartbeat CPU 6 instructions: 120000001 cycles: 141440336 heartbeat IPC: 0.781673 cumulative IPC: 0.848414 (Simulation time: 22 hr 40 min 19 sec) 
 Total Blocks : 196608 Invalid Blocks : 0 Valid Blocks : 196608
 Total Tags : 491520 Threshold : 12288 Invalid Tags : 196608 Pr0 Tags : 98304 Pr1 Tags : 196608 num_pr0 : 12288
 SAE Count : 0
 Inter-Core Inteference in Data Store : 132698652
Heartbeat CPU 7 instructions: 120000001 cycles: 141835442 heartbeat IPC: 0.779415 cumulative IPC: 0.846051 (Simulation time: 22 hr 43 min 45 sec) 
 Total Blocks : 196608 Invalid Blocks : 0 Valid Blocks : 196608
 Total Tags : 491520 Threshold : 12288 Invalid Tags : 196608 Pr0 Tags : 98304 Pr1 Tags : 196608 num_pr0 : 12288
 SAE Count : 0
 Inter-Core Inteference in Data Store : 133083451
Heartbeat CPU 0 instructions: 130000000 cycles: 150773072 heartbeat IPC: 0.81852 cumulative IPC: 0.862223 (Simulation time: 23 hr 59 min 23 sec) 
 Total Blocks : 196608 Invalid Blocks : 0 Valid Blocks : 196608
 Total Tags : 491520 Threshold : 12288 Invalid Tags : 196608 Pr0 Tags : 98304 Pr1 Tags : 196608 num_pr0 : 12288
 SAE Count : 0
 Inter-Core Inteference in Data Store : 141724012
Heartbeat CPU 1 instructions: 130000000 cycles: 151422166 heartbeat IPC: 0.814852 cumulative IPC: 0.858527 (Simulation time: 24 hr 4 min 38 sec) 
 Total Blocks : 196608 Invalid Blocks : 0 Valid Blocks : 196608
 Total Tags : 491520 Threshold : 12288 Invalid Tags : 196608 Pr0 Tags : 98304 Pr1 Tags : 196608 num_pr0 : 12288
 SAE Count : 0
 Inter-Core Inteference in Data Store : 142359659
Heartbeat CPU 2 instructions: 130000000 cycles: 152004336 heartbeat IPC: 0.81137 cumulative IPC: 0.855239 (Simulation time: 24 hr 9 min 9 sec) 
 Total Blocks : 196608 Invalid Blocks : 0 Valid Blocks : 196608
 Total Tags : 491520 Threshold : 12288 Invalid Tags : 196608 Pr0 Tags : 98304 Pr1 Tags : 196608 num_pr0 : 12288
 SAE Count : 0
 Inter-Core Inteference in Data Store : 142948669
Heartbeat CPU 3 instructions: 130000000 cycles: 152518369 heartbeat IPC: 0.808516 cumulative IPC: 0.852356 (Simulation time: 24 hr 13 min 15 sec) 
 Total Blocks : 196608 Invalid Blocks : 0 Valid Blocks : 196608
 Total Tags : 491520 Threshold : 12288 Invalid Tags : 196608 Pr0 Tags : 98304 Pr1 Tags : 196608 num_pr0 : 12288
 SAE Count : 0
 Inter-Core Inteference in Data Store : 143467309
Heartbeat CPU 4 instructions: 130000000 cycles: 153013942 heartbeat IPC: 0.805752 cumulative IPC: 0.849596 (Simulation time: 24 hr 17 min 6 sec) 
 Total Blocks : 196608 Invalid Blocks : 0 Valid Blocks : 196608
 Total Tags : 491520 Threshold : 12288 Invalid Tags : 196608 Pr0 Tags : 98304 Pr1 Tags : 196608 num_pr0 : 12288
 SAE Count : 0
 Inter-Core Inteference in Data Store : 143971943
Heartbeat CPU 5 instructions: 130000000 cycles: 153479053 heartbeat IPC: 0.803056 cumulative IPC: 0.847021 (Simulation time: 24 hr 20 min 52 sec) 
 Total Blocks : 196608 Invalid Blocks : 0 Valid Blocks : 196608
 Total Tags : 491520 Threshold : 12288 Invalid Tags : 196608 Pr0 Tags : 98304 Pr1 Tags : 196608 num_pr0 : 12288
 SAE Count : 0
 Inter-Core Inteference in Data Store : 144425221
Heartbeat CPU 6 instructions: 130000000 cycles: 153932324 heartbeat IPC: 0.800513 cumulative IPC: 0.844527 (Simulation time: 24 hr 24 min 37 sec) 
 Total Blocks : 196608 Invalid Blocks : 0 Valid Blocks : 196608
 Total Tags : 491520 Threshold : 12288 Invalid Tags : 196608 Pr0 Tags : 98304 Pr1 Tags : 196608 num_pr0 : 12288
 SAE Count : 0
 Inter-Core Inteference in Data Store : 144864243
Heartbeat CPU 7 instructions: 130000000 cycles: 154366286 heartbeat IPC: 0.798031 cumulative IPC: 0.842153 (Simulation time: 24 hr 28 min 6 sec) 
 Total Blocks : 196608 Invalid Blocks : 0 Valid Blocks : 196608
 Total Tags : 491520 Threshold : 12288 Invalid Tags : 196608 Pr0 Tags : 98304 Pr1 Tags : 196608 num_pr0 : 12288
 SAE Count : 0
 Inter-Core Inteference in Data Store : 145303023
Heartbeat CPU 0 instructions: 140000003 cycles: 163098780 heartbeat IPC: 0.811313 cumulative IPC: 0.858376 (Simulation time: 25 hr 38 min 8 sec) 
 Total Blocks : 196608 Invalid Blocks : 0 Valid Blocks : 196608
 Total Tags : 491520 Threshold : 12288 Invalid Tags : 196608 Pr0 Tags : 98304 Pr1 Tags : 196608 num_pr0 : 12288
 SAE Count : 0
 Inter-Core Inteference in Data Store : 153934018
Heartbeat CPU 1 instructions: 140000003 cycles: 163803637 heartbeat IPC: 0.807659 cumulative IPC: 0.854682 (Simulation time: 25 hr 43 min 48 sec) 
 Total Blocks : 196608 Invalid Blocks : 0 Valid Blocks : 196608
 Total Tags : 491520 Threshold : 12288 Invalid Tags : 196608 Pr0 Tags : 98304 Pr1 Tags : 196608 num_pr0 : 12288
 SAE Count : 0
 Inter-Core Inteference in Data Store : 154635129
Heartbeat CPU 2 instructions: 140000003 cycles: 164436083 heartbeat IPC: 0.804392 cumulative IPC: 0.851395 (Simulation time: 25 hr 49 min 0 sec) 
 Total Blocks : 196608 Invalid Blocks : 0 Valid Blocks : 196608
 Total Tags : 491520 Threshold : 12288 Invalid Tags : 196608 Pr0 Tags : 98304 Pr1 Tags : 196608 num_pr0 : 12288
 SAE Count : 0
 Inter-Core Inteference in Data Store : 155263822
Heartbeat CPU 3 instructions: 140000003 cycles: 164995867 heartbeat IPC: 0.801443 cumulative IPC: 0.848506 (Simulation time: 25 hr 53 min 29 sec) 
 Total Blocks : 196608 Invalid Blocks : 0 Valid Blocks : 196608
 Total Tags : 491520 Threshold : 12288 Invalid Tags : 196608 Pr0 Tags : 98304 Pr1 Tags : 196608 num_pr0 : 12288
 SAE Count : 0
 Inter-Core Inteference in Data Store : 155822752
Heartbeat CPU 4 instructions: 140000003 cycles: 165533835 heartbeat IPC: 0.798729 cumulative IPC: 0.845749 (Simulation time: 25 hr 57 min 54 sec) 
 Total Blocks : 196608 Invalid Blocks : 0 Valid Blocks : 196608
 Total Tags : 491520 Threshold : 12288 Invalid Tags : 196608 Pr0 Tags : 98304 Pr1 Tags : 196608 num_pr0 : 12288
 SAE Count : 0
 Inter-Core Inteference in Data Store : 156357907
Heartbeat CPU 5 instructions: 140000003 cycles: 166041678 heartbeat IPC: 0.796012 cumulative IPC: 0.843162 (Simulation time: 26 hr 2 min 2 sec) 
 Total Blocks : 196608 Invalid Blocks : 0 Valid Blocks : 196608
 Total Tags : 491520 Threshold : 12288 Invalid Tags : 196608 Pr0 Tags : 98304 Pr1 Tags : 196608 num_pr0 : 12288
 SAE Count : 0
 Inter-Core Inteference in Data Store : 156873056
Heartbeat CPU 6 instructions: 140000003 cycles: 166531075 heartbeat IPC: 0.79373 cumulative IPC: 0.840684 (Simulation time: 26 hr 5 min 57 sec) 
 Total Blocks : 196608 Invalid Blocks : 0 Valid Blocks : 196608
 Total Tags : 491520 Threshold : 12288 Invalid Tags : 196608 Pr0 Tags : 98304 Pr1 Tags : 196608 num_pr0 : 12288
 SAE Count : 0
 Inter-Core Inteference in Data Store : 157371272
Heartbeat CPU 7 instructions: 140000003 cycles: 167003627 heartbeat IPC: 0.791306 cumulative IPC: 0.838305 (Simulation time: 26 hr 9 min 41 sec) 
 Total Blocks : 196608 Invalid Blocks : 0 Valid Blocks : 196608
 Total Tags : 491520 Threshold : 12288 Invalid Tags : 196608 Pr0 Tags : 98304 Pr1 Tags : 196608 num_pr0 : 12288
 SAE Count : 0
 Inter-Core Inteference in Data Store : 157852150
Heartbeat CPU 0 instructions: 150000000 cycles: 175762229 heartbeat IPC: 0.789674 cumulative IPC: 0.853426 (Simulation time: 27 hr 18 min 45 sec) 
 Total Blocks : 196608 Invalid Blocks : 0 Valid Blocks : 196608
 Total Tags : 491520 Threshold : 12288 Invalid Tags : 196608 Pr0 Tags : 98304 Pr1 Tags : 196608 num_pr0 : 12288
 SAE Count : 0
 Inter-Core Inteference in Data Store : 166798309
Heartbeat CPU 1 instructions: 150000000 cycles: 176524693 heartbeat IPC: 0.786098 cumulative IPC: 0.849739 (Simulation time: 27 hr 24 min 36 sec) 
 Total Blocks : 196608 Invalid Blocks : 0 Valid Blocks : 196608
 Total Tags : 491520 Threshold : 12288 Invalid Tags : 196608 Pr0 Tags : 98304 Pr1 Tags : 196608 num_pr0 : 12288
 SAE Count : 0
 Inter-Core Inteference in Data Store : 167583406
Heartbeat CPU 2 instructions: 150000000 cycles: 177201167 heartbeat IPC: 0.783387 cumulative IPC: 0.846496 (Simulation time: 27 hr 29 min 52 sec) 
 Total Blocks : 196608 Invalid Blocks : 0 Valid Blocks : 196608
 Total Tags : 491520 Threshold : 12288 Invalid Tags : 196608 Pr0 Tags : 98304 Pr1 Tags : 196608 num_pr0 : 12288
 SAE Count : 0
 Inter-Core Inteference in Data Store : 168270833
Heartbeat CPU 3 instructions: 150000000 cycles: 177808713 heartbeat IPC: 0.780466 cumulative IPC: 0.843603 (Simulation time: 27 hr 34 min 32 sec) 
 Total Blocks : 196608 Invalid Blocks : 0 Valid Blocks : 196608
 Total Tags : 491520 Threshold : 12288 Invalid Tags : 196608 Pr0 Tags : 98304 Pr1 Tags : 196608 num_pr0 : 12288
 SAE Count : 0
 Inter-Core Inteference in Data Store : 168892279
Heartbeat CPU 4 instructions: 150000000 cycles: 178391168 heartbeat IPC: 0.777766 cumulative IPC: 0.840849 (Simulation time: 27 hr 39 min 3 sec) 
 Total Blocks : 196608 Invalid Blocks : 0 Valid Blocks : 196608
 Total Tags : 491520 Threshold : 12288 Invalid Tags : 196608 Pr0 Tags : 98304 Pr1 Tags : 196608 num_pr0 : 12288
 SAE Count : 0
 Inter-Core Inteference in Data Store : 169487640
Heartbeat CPU 5 instructions: 150000000 cycles: 178942243 heartbeat IPC: 0.77516 cumulative IPC: 0.838259 (Simulation time: 27 hr 43 min 18 sec) 
 Total Blocks : 196608 Invalid Blocks : 0 Valid Blocks : 196608
 Total Tags : 491520 Threshold : 12288 Invalid Tags : 196608 Pr0 Tags : 98304 Pr1 Tags : 196608 num_pr0 : 12288
 SAE Count : 0
 Inter-Core Inteference in Data Store : 170046610
Heartbeat CPU 6 instructions: 150000000 cycles: 179472337 heartbeat IPC: 0.772722 cumulative IPC: 0.835783 (Simulation time: 27 hr 47 min 21 sec) 
 Total Blocks : 196608 Invalid Blocks : 0 Valid Blocks : 196608
 Total Tags : 491520 Threshold : 12288 Invalid Tags : 196608 Pr0 Tags : 98304 Pr1 Tags : 196608 num_pr0 : 12288
 SAE Count : 0
 Inter-Core Inteference in Data Store : 170577422
Heartbeat CPU 7 instructions: 150000000 cycles: 179983785 heartbeat IPC: 0.770406 cumulative IPC: 0.833408 (Simulation time: 27 hr 51 min 13 sec) 
 Total Blocks : 196608 Invalid Blocks : 0 Valid Blocks : 196608
 Total Tags : 491520 Threshold : 12288 Invalid Tags : 196608 Pr0 Tags : 98304 Pr1 Tags : 196608 num_pr0 : 12288
 SAE Count : 0
 Inter-Core Inteference in Data Store : 171093042
Heartbeat CPU 0 instructions: 160000000 cycles: 188292333 heartbeat IPC: 0.798078 cumulative IPC: 0.849743 (Simulation time: 28 hr 54 min 11 sec) 
 Total Blocks : 196608 Invalid Blocks : 0 Valid Blocks : 196608
 Total Tags : 491520 Threshold : 12288 Invalid Tags : 196608 Pr0 Tags : 98304 Pr1 Tags : 196608 num_pr0 : 12288
 SAE Count : 0
 Inter-Core Inteference in Data Store : 179395294
Heartbeat CPU 1 instructions: 160000000 cycles: 189106333 heartbeat IPC: 0.794809 cumulative IPC: 0.846085 (Simulation time: 29 hr 0 min 26 sec) 
 Total Blocks : 196608 Invalid Blocks : 0 Valid Blocks : 196608
 Total Tags : 491520 Threshold : 12288 Invalid Tags : 196608 Pr0 Tags : 98304 Pr1 Tags : 196608 num_pr0 : 12288
 SAE Count : 0
 Inter-Core Inteference in Data Store : 180220573
Heartbeat CPU 2 instructions: 160000000 cycles: 189832161 heartbeat IPC: 0.791703 cumulative IPC: 0.84285 (Simulation time: 29 hr 6 min 0 sec) 
 Total Blocks : 196608 Invalid Blocks : 0 Valid Blocks : 196608
 Total Tags : 491520 Threshold : 12288 Invalid Tags : 196608 Pr0 Tags : 98304 Pr1 Tags : 196608 num_pr0 : 12288
 SAE Count : 0
 Inter-Core Inteference in Data Store : 180962717
Heartbeat CPU 3 instructions: 160000000 cycles: 190486309 heartbeat IPC: 0.788793 cumulative IPC: 0.839955 (Simulation time: 29 hr 11 min 0 sec) 
 Total Blocks : 196608 Invalid Blocks : 0 Valid Blocks : 196608
 Total Tags : 491520 Threshold : 12288 Invalid Tags : 196608 Pr0 Tags : 98304 Pr1 Tags : 196608 num_pr0 : 12288
 SAE Count : 0
 Inter-Core Inteference in Data Store : 181630370
Heartbeat CPU 4 instructions: 160000000 cycles: 191112753 heartbeat IPC: 0.786066 cumulative IPC: 0.837202 (Simulation time: 29 hr 15 min 49 sec) 
 Total Blocks : 196608 Invalid Blocks : 0 Valid Blocks : 196608
 Total Tags : 491520 Threshold : 12288 Invalid Tags : 196608 Pr0 Tags : 98304 Pr1 Tags : 196608 num_pr0 : 12288
 SAE Count : 0
 Inter-Core Inteference in Data Store : 182265035
Heartbeat CPU 5 instructions: 160000000 cycles: 191704578 heartbeat IPC: 0.783556 cumulative IPC: 0.834617 (Simulation time: 29 hr 20 min 19 sec) 
 Total Blocks : 196608 Invalid Blocks : 0 Valid Blocks : 196608
 Total Tags : 491520 Threshold : 12288 Invalid Tags : 196608 Pr0 Tags : 98304 Pr1 Tags : 196608 num_pr0 : 12288
 SAE Count : 0
 Inter-Core Inteference in Data Store : 182859729
Heartbeat CPU 6 instructions: 160000000 cycles: 192272110 heartbeat IPC: 0.781264 cumulative IPC: 0.832154 (Simulation time: 29 hr 24 min 38 sec) 
 Total Blocks : 196608 Invalid Blocks : 0 Valid Blocks : 196608
 Total Tags : 491520 Threshold : 12288 Invalid Tags : 196608 Pr0 Tags : 98304 Pr1 Tags : 196608 num_pr0 : 12288
 SAE Count : 0
 Inter-Core Inteference in Data Store : 183432328
Heartbeat CPU 7 instructions: 160000000 cycles: 192821322 heartbeat IPC: 0.778966 cumulative IPC: 0.829784 (Simulation time: 29 hr 28 min 53 sec) 
 Total Blocks : 196608 Invalid Blocks : 0 Valid Blocks : 196608
 Total Tags : 491520 Threshold : 12288 Invalid Tags : 196608 Pr0 Tags : 98304 Pr1 Tags : 196608 num_pr0 : 12288
 SAE Count : 0
 Inter-Core Inteference in Data Store : 183993185
Heartbeat CPU 0 instructions: 170000000 cycles: 200907222 heartbeat IPC: 0.792714 cumulative IPC: 0.846162 (Simulation time: 30 hr 31 min 47 sec) 
 Total Blocks : 196608 Invalid Blocks : 0 Valid Blocks : 196608
 Total Tags : 491520 Threshold : 12288 Invalid Tags : 196608 Pr0 Tags : 98304 Pr1 Tags : 196608 num_pr0 : 12288
 SAE Count : 0
 Inter-Core Inteference in Data Store : 192105854
Heartbeat CPU 1 instructions: 170000000 cycles: 201780412 heartbeat IPC: 0.789012 cumulative IPC: 0.8425 (Simulation time: 30 hr 38 min 26 sec) 
 Total Blocks : 196608 Invalid Blocks : 0 Valid Blocks : 196608
 Total Tags : 491520 Threshold : 12288 Invalid Tags : 196608 Pr0 Tags : 98304 Pr1 Tags : 196608 num_pr0 : 12288
 SAE Count : 0
 Inter-Core Inteference in Data Store : 192994806
Heartbeat CPU 2 instructions: 170000000 cycles: 202554058 heartbeat IPC: 0.786046 cumulative IPC: 0.839282 (Simulation time: 30 hr 44 min 28 sec) 
 Total Blocks : 196608 Invalid Blocks : 0 Valid Blocks : 196608
 Total Tags : 491520 Threshold : 12288 Invalid Tags : 196608 Pr0 Tags : 98304 Pr1 Tags : 196608 num_pr0 : 12288
 SAE Count : 0
 Inter-Core Inteference in Data Store : 193786989
Heartbeat CPU 3 instructions: 170000000 cycles: 203256603 heartbeat IPC: 0.783067 cumulative IPC: 0.836381 (Simulation time: 30 hr 49 min 59 sec) 
 Total Blocks : 196608 Invalid Blocks : 0 Valid Blocks : 196608
 Total Tags : 491520 Threshold : 12288 Invalid Tags : 196608 Pr0 Tags : 98304 Pr1 Tags : 196608 num_pr0 : 12288
 SAE Count : 0
 Inter-Core Inteference in Data Store : 194511205
Heartbeat CPU 4 instructions: 170000000 cycles: 203925638 heartbeat IPC: 0.780464 cumulative IPC: 0.833637 (Simulation time: 30 hr 55 min 13 sec) 
 Total Blocks : 196608 Invalid Blocks : 0 Valid Blocks : 196608
 Total Tags : 491520 Threshold : 12288 Invalid Tags : 196608 Pr0 Tags : 98304 Pr1 Tags : 196608 num_pr0 : 12288
 SAE Count : 0
 Inter-Core Inteference in Data Store : 195205218
Heartbeat CPU 5 instructions: 170000000 cycles: 204560718 heartbeat IPC: 0.777838 cumulative IPC: 0.831049 (Simulation time: 31 hr 0 min 8 sec) 
 Total Blocks : 196608 Invalid Blocks : 0 Valid Blocks : 196608
 Total Tags : 491520 Threshold : 12288 Invalid Tags : 196608 Pr0 Tags : 98304 Pr1 Tags : 196608 num_pr0 : 12288
 SAE Count : 0
 Inter-Core Inteference in Data Store : 195864571
Heartbeat CPU 6 instructions: 170000000 cycles: 205170178 heartbeat IPC: 0.77531 cumulative IPC: 0.82858 (Simulation time: 31 hr 4 min 51 sec) 
 Total Blocks : 196608 Invalid Blocks : 0 Valid Blocks : 196608
 Total Tags : 491520 Threshold : 12288 Invalid Tags : 196608 Pr0 Tags : 98304 Pr1 Tags : 196608 num_pr0 : 12288
 SAE Count : 0
 Inter-Core Inteference in Data Store : 196490715
Heartbeat CPU 7 instructions: 170000000 cycles: 205757884 heartbeat IPC: 0.773003 cumulative IPC: 0.826214 (Simulation time: 31 hr 9 min 30 sec) 
 Total Blocks : 196608 Invalid Blocks : 0 Valid Blocks : 196608
 Total Tags : 491520 Threshold : 12288 Invalid Tags : 196608 Pr0 Tags : 98304 Pr1 Tags : 196608 num_pr0 : 12288
 SAE Count : 0
 Inter-Core Inteference in Data Store : 197087566
Heartbeat CPU 0 instructions: 180000000 cycles: 213482584 heartbeat IPC: 0.795206 cumulative IPC: 0.84316 (Simulation time: 32 hr 11 min 30 sec) 
 Total Blocks : 196608 Invalid Blocks : 0 Valid Blocks : 196608
 Total Tags : 491520 Threshold : 12288 Invalid Tags : 196608 Pr0 Tags : 98304 Pr1 Tags : 196608 num_pr0 : 12288
 SAE Count : 0
 Inter-Core Inteference in Data Store : 204782261
Heartbeat CPU 1 instructions: 180000000 cycles: 214415369 heartbeat IPC: 0.791455 cumulative IPC: 0.839492 (Simulation time: 35 hr 6 min 11 sec) 
 Total Blocks : 196608 Invalid Blocks : 0 Valid Blocks : 196608
 Total Tags : 491520 Threshold : 12288 Invalid Tags : 196608 Pr0 Tags : 98304 Pr1 Tags : 196608 num_pr0 : 12288
 SAE Count : 0
 Inter-Core Inteference in Data Store : 205705257
Heartbeat CPU 2 instructions: 180000000 cycles: 215242316 heartbeat IPC: 0.78813 cumulative IPC: 0.836267 (Simulation time: 44 hr 0 min 7 sec) 
 Total Blocks : 196608 Invalid Blocks : 0 Valid Blocks : 196608
 Total Tags : 491520 Threshold : 12288 Invalid Tags : 196608 Pr0 Tags : 98304 Pr1 Tags : 196608 num_pr0 : 12288
 SAE Count : 0
 Inter-Core Inteference in Data Store : 206538333
Heartbeat CPU 3 instructions: 180000000 cycles: 215989690 heartbeat IPC: 0.785356 cumulative IPC: 0.833373 (Simulation time: 49 hr 44 min 19 sec) 
 Total Blocks : 196608 Invalid Blocks : 0 Valid Blocks : 196608
 Total Tags : 491520 Threshold : 12288 Invalid Tags : 196608 Pr0 Tags : 98304 Pr1 Tags : 196608 num_pr0 : 12288
 SAE Count : 0
 Inter-Core Inteference in Data Store : 207282880
Heartbeat CPU 4 instructions: 180000000 cycles: 216700610 heartbeat IPC: 0.782781 cumulative IPC: 0.830639 (Simulation time: 52 hr 52 min 41 sec) 
 Total Blocks : 196608 Invalid Blocks : 0 Valid Blocks : 196608
 Total Tags : 491520 Threshold : 12288 Invalid Tags : 196608 Pr0 Tags : 98304 Pr1 Tags : 196608 num_pr0 : 12288
 SAE Count : 0
 Inter-Core Inteference in Data Store : 207981138
Heartbeat CPU 5 instructions: 180000000 cycles: 217377838 heartbeat IPC: 0.780207 cumulative IPC: 0.828051 (Simulation time: 53 hr 1 min 16 sec) 
 Total Blocks : 196608 Invalid Blocks : 0 Valid Blocks : 196608
 Total Tags : 491520 Threshold : 12288 Invalid Tags : 196608 Pr0 Tags : 98304 Pr1 Tags : 196608 num_pr0 : 12288
 SAE Count : 0
 Inter-Core Inteference in Data Store : 208655534
Heartbeat CPU 6 instructions: 180000000 cycles: 218029066 heartbeat IPC: 0.777672 cumulative IPC: 0.825578 (Simulation time: 53 hr 9 min 32 sec) 
 Total Blocks : 196608 Invalid Blocks : 0 Valid Blocks : 196608
 Total Tags : 491520 Threshold : 12288 Invalid Tags : 196608 Pr0 Tags : 98304 Pr1 Tags : 196608 num_pr0 : 12288
 SAE Count : 0
 Inter-Core Inteference in Data Store : 209308189
Heartbeat CPU 7 instructions: 180000000 cycles: 218649447 heartbeat IPC: 0.775701 cumulative IPC: 0.823236 (Simulation time: 53 hr 16 min 52 sec) 
 Total Blocks : 196608 Invalid Blocks : 0 Valid Blocks : 196608
 Total Tags : 491520 Threshold : 12288 Invalid Tags : 196608 Pr0 Tags : 98304 Pr1 Tags : 196608 num_pr0 : 12288
 SAE Count : 0
 Inter-Core Inteference in Data Store : 209928931
Heartbeat CPU 0 instructions: 190000000 cycles: 223406848 heartbeat IPC: 1.00763 cumulative IPC: 0.850466 (Simulation time: 54 hr 14 min 52 sec) 
 Total Blocks : 196608 Invalid Blocks : 0 Valid Blocks : 196608
 Total Tags : 491520 Threshold : 12288 Invalid Tags : 196608 Pr0 Tags : 98304 Pr1 Tags : 196608 num_pr0 : 12288
 SAE Count : 0
 Inter-Core Inteference in Data Store : 214644062
Heartbeat CPU 1 instructions: 190000000 cycles: 224362401 heartbeat IPC: 1.00532 cumulative IPC: 0.846844 (Simulation time: 54 hr 25 min 36 sec) 
 Total Blocks : 196608 Invalid Blocks : 0 Valid Blocks : 196608
 Total Tags : 491520 Threshold : 12288 Invalid Tags : 196608 Pr0 Tags : 98304 Pr1 Tags : 196608 num_pr0 : 12288
 SAE Count : 0
 Inter-Core Inteference in Data Store : 215451587
Heartbeat CPU 2 instructions: 190000000 cycles: 225193229 heartbeat IPC: 1.00493 cumulative IPC: 0.84372 (Simulation time: 54 hr 33 min 39 sec) 
 Total Blocks : 196608 Invalid Blocks : 0 Valid Blocks : 196608
 Total Tags : 491520 Threshold : 12288 Invalid Tags : 196608 Pr0 Tags : 98304 Pr1 Tags : 196608 num_pr0 : 12288
 SAE Count : 0
 Inter-Core Inteference in Data Store : 216004226
Heartbeat CPU 3 instructions: 190000000 cycles: 225932716 heartbeat IPC: 1.00573 cumulative IPC: 0.840958 (Simulation time: 56 hr 10 min 19 sec) 
 Total Blocks : 196608 Invalid Blocks : 0 Valid Blocks : 196608
 Total Tags : 491520 Threshold : 12288 Invalid Tags : 196609 Pr0 Tags : 98303 Pr1 Tags : 196608 num_pr0 : 12288
 SAE Count : 0
 Inter-Core Inteference in Data Store : 216309464
Heartbeat CPU 4 instructions: 190000000 cycles: 226620308 heartbeat IPC: 1.0081 cumulative IPC: 0.838407 (Simulation time: 57 hr 33 min 52 sec) 
 Total Blocks : 196608 Invalid Blocks : 0 Valid Blocks : 196608
 Total Tags : 491520 Threshold : 12288 Invalid Tags : 196608 Pr0 Tags : 98304 Pr1 Tags : 196608 num_pr0 : 12288
 SAE Count : 0
 Inter-Core Inteference in Data Store : 216454966
Heartbeat CPU 5 instructions: 190000000 cycles: 227267311 heartbeat IPC: 1.01118 cumulative IPC: 0.83602 (Simulation time: 58 hr 25 min 58 sec) 
 Total Blocks : 196608 Invalid Blocks : 0 Valid Blocks : 196608
 Total Tags : 491520 Threshold : 12288 Invalid Tags : 196608 Pr0 Tags : 98304 Pr1 Tags : 196608 num_pr0 : 12288
 SAE Count : 0
 Inter-Core Inteference in Data Store : 216601524
FILL
Heartbeat CPU 6 instructions: 190000000 cycles: 227875031 heartbeat IPC: 1.01564 cumulative IPC: 0.83379 (Simulation time: 58 hr 45 min 30 sec) 
 Total Blocks : 196608 Invalid Blocks : 0 Valid Blocks : 196608
 Total Tags : 491520 Threshold : 12288 Invalid Tags : 196609 Pr0 Tags : 98303 Pr1 Tags : 196608 num_pr0 : 12288
 SAE Count : 0
 Inter-Core Inteference in Data Store : 216705007
Heartbeat CPU 0 instructions: 200000002 cycles: 228333020 heartbeat IPC: 2.02997 cumulative IPC: 0.875914 (Simulation time: 58 hr 54 min 13 sec) 
 Total Blocks : 196608 Invalid Blocks : 0 Valid Blocks : 196608
 Total Tags : 491520 Threshold : 12288 Invalid Tags : 196609 Pr0 Tags : 98303 Pr1 Tags : 196608 num_pr0 : 12288
 SAE Count : 0
 Inter-Core Inteference in Data Store : 216799437
Heartbeat CPU 7 instructions: 190000000 cycles: 228452849 heartbeat IPC: 1.02005 cumulative IPC: 0.831681 (Simulation time: 58 hr 55 min 10 sec) 
 Total Blocks : 196608 Invalid Blocks : 0 Valid Blocks : 196608
 Total Tags : 491520 Threshold : 12288 Invalid Tags : 196608 Pr0 Tags : 98304 Pr1 Tags : 196608 num_pr0 : 12288
 SAE Count : 0
 Inter-Core Inteference in Data Store : 216820129
Heartbeat CPU 1 instructions: 200000002 cycles: 229301957 heartbeat IPC: 2.02447 cumulative IPC: 0.872212 (Simulation time: 59 hr 1 min 35 sec) 
 Total Blocks : 196608 Invalid Blocks : 0 Valid Blocks : 196608
 Total Tags : 491520 Threshold : 12288 Invalid Tags : 196608 Pr0 Tags : 98304 Pr1 Tags : 196608 num_pr0 : 12288
 SAE Count : 0
 Inter-Core Inteference in Data Store : 217101915
Heartbeat CPU 2 instructions: 200000002 cycles: 230168189 heartbeat IPC: 2.01007 cumulative IPC: 0.86893 (Simulation time: 59 hr 7 min 12 sec) 
 Total Blocks : 196608 Invalid Blocks : 0 Valid Blocks : 196608
 Total Tags : 491520 Threshold : 12288 Invalid Tags : 196609 Pr0 Tags : 98303 Pr1 Tags : 196608 num_pr0 : 12288
 SAE Count : 0
 Inter-Core Inteference in Data Store : 217606521
Heartbeat CPU 3 instructions: 200000002 cycles: 230956858 heartbeat IPC: 1.99039 cumulative IPC: 0.865963 (Simulation time: 59 hr 11 min 59 sec) 
 Total Blocks : 196608 Invalid Blocks : 0 Valid Blocks : 196608
 Total Tags : 491520 Threshold : 12288 Invalid Tags : 196608 Pr0 Tags : 98304 Pr1 Tags : 196608 num_pr0 : 12288
 SAE Count : 0
 Inter-Core Inteference in Data Store : 218255871
Heartbeat CPU 4 instructions: 200000002 cycles: 231686335 heartbeat IPC: 1.97393 cumulative IPC: 0.863236 (Simulation time: 59 hr 16 min 45 sec) 
 Total Blocks : 196608 Invalid Blocks : 0 Valid Blocks : 196608
 Total Tags : 491520 Threshold : 12288 Invalid Tags : 196608 Pr0 Tags : 98304 Pr1 Tags : 196608 num_pr0 : 12288
 SAE Count : 0
 Inter-Core Inteference in Data Store : 218955301
Heartbeat CPU 5 instructions: 200000002 cycles: 232368414 heartbeat IPC: 1.96036 cumulative IPC: 0.860702 (Simulation time: 59 hr 20 min 45 sec) 
 Total Blocks : 196608 Invalid Blocks : 0 Valid Blocks : 196608
 Total Tags : 491520 Threshold : 12288 Invalid Tags : 196608 Pr0 Tags : 98304 Pr1 Tags : 196608 num_pr0 : 12288
 SAE Count : 0
 Inter-Core Inteference in Data Store : 219641919
Heartbeat CPU 6 instructions: 200000002 cycles: 233000038 heartbeat IPC: 1.95122 cumulative IPC: 0.858369 (Simulation time: 59 hr 25 min 1 sec) 
 Total Blocks : 196608 Invalid Blocks : 0 Valid Blocks : 196608
 Total Tags : 491520 Threshold : 12288 Invalid Tags : 196608 Pr0 Tags : 98304 Pr1 Tags : 196608 num_pr0 : 12288
 SAE Count : 0
 Inter-Core Inteference in Data Store : 220266904
Heartbeat CPU 7 instructions: 200000002 cycles: 233592224 heartbeat IPC: 1.94576 cumulative IPC: 0.856193 (Simulation time: 59 hr 29 min 3 sec) 
 Total Blocks : 196608 Invalid Blocks : 0 Valid Blocks : 196608
 Total Tags : 491520 Threshold : 12288 Invalid Tags : 196608 Pr0 Tags : 98304 Pr1 Tags : 196608 num_pr0 : 12288
 SAE Count : 0
 Inter-Core Inteference in Data Store : 220867493

Warmup complete CPU 0 instructions: 204403479 cycles: 233592224 (Simulation time: 59 hr 29 min 3 sec) 
Warmup complete CPU 1 instructions: 203467447 cycles: 233592224 (Simulation time: 59 hr 29 min 3 sec) 
Warmup complete CPU 2 instructions: 202702550 cycles: 233592224 (Simulation time: 59 hr 29 min 3 sec) 
Warmup complete CPU 3 instructions: 202057152 cycles: 233592224 (Simulation time: 59 hr 29 min 3 sec) 
Warmup complete CPU 4 instructions: 201474914 cycles: 233592224 (Simulation time: 59 hr 29 min 3 sec) 
Warmup complete CPU 5 instructions: 200943402 cycles: 233592224 (Simulation time: 59 hr 29 min 3 sec) 
Warmup complete CPU 6 instructions: 200455144 cycles: 233592224 (Simulation time: 59 hr 29 min 3 sec) 
Warmup complete CPU 7 instructions: 200000002 cycles: 233592224 (Simulation time: 59 hr 29 min 3 sec) 

Heartbeat CPU 0 instructions: 210000003 cycles: 509280242 heartbeat IPC: 0.0355939 cumulative IPC: 0.0203002 (Simulation time: 70 hr 46 min 24 sec) 
 Total Blocks : 196608 Invalid Blocks : 0 Valid Blocks : 196608
 Total Tags : 491520 Threshold : 12288 Invalid Tags : 196608 Pr0 Tags : 98304 Pr1 Tags : 196608 num_pr0 : 12288
 SAE Count : 0
 Inter-Core Inteference in Data Store : 7453709
Heartbeat CPU 1 instructions: 210000003 cycles: 554013310 heartbeat IPC: 0.0307966 cumulative IPC: 0.0203874 (Simulation time: 72 hr 12 min 23 sec) 
 Total Blocks : 196608 Invalid Blocks : 0 Valid Blocks : 196608
 Total Tags : 491520 Threshold : 12288 Invalid Tags : 196608 Pr0 Tags : 98304 Pr1 Tags : 196608 num_pr0 : 12288
 SAE Count : 0
 Inter-Core Inteference in Data Store : 8663318
Heartbeat CPU 2 instructions: 210000003 cycles: 592525921 heartbeat IPC: 0.027597 cumulative IPC: 0.0203309 (Simulation time: 73 hr 24 min 41 sec) 
 Total Blocks : 196608 Invalid Blocks : 0 Valid Blocks : 196608
 Total Tags : 491520 Threshold : 12288 Invalid Tags : 196608 Pr0 Tags : 98304 Pr1 Tags : 196608 num_pr0 : 12288
 SAE Count : 0
 Inter-Core Inteference in Data Store : 9718445
Heartbeat CPU 3 instructions: 210000003 cycles: 624733072 heartbeat IPC: 0.0253951 cumulative IPC: 0.0203069 (Simulation time: 74 hr 33 min 48 sec) 
 Total Blocks : 196608 Invalid Blocks : 0 Valid Blocks : 196608
 Total Tags : 491520 Threshold : 12288 Invalid Tags : 196608 Pr0 Tags : 98304 Pr1 Tags : 196608 num_pr0 : 12288
 SAE Count : 0
 Inter-Core Inteference in Data Store : 10591233
Heartbeat CPU 4 instructions: 210000003 cycles: 653027773 heartbeat IPC: 0.0237337 cumulative IPC: 0.0203251 (Simulation time: 75 hr 24 min 29 sec) 
 Total Blocks : 196608 Invalid Blocks : 0 Valid Blocks : 196608
 Total Tags : 491520 Threshold : 12288 Invalid Tags : 196608 Pr0 Tags : 98304 Pr1 Tags : 196608 num_pr0 : 12288
 SAE Count : 0
 Inter-Core Inteference in Data Store : 11361047
Heartbeat CPU 5 instructions: 210000003 cycles: 679435539 heartbeat IPC: 0.022368 cumulative IPC: 0.0203134 (Simulation time: 76 hr 10 min 22 sec) 
 Total Blocks : 196608 Invalid Blocks : 0 Valid Blocks : 196608
 Total Tags : 491520 Threshold : 12288 Invalid Tags : 196608 Pr0 Tags : 98304 Pr1 Tags : 196608 num_pr0 : 12288
 SAE Count : 0
 Inter-Core Inteference in Data Store : 12056866
Heartbeat CPU 6 instructions: 210000003 cycles: 702183989 heartbeat IPC: 0.0213136 cumulative IPC: 0.0203692 (Simulation time: 76 hr 50 min 42 sec) 
 Total Blocks : 196608 Invalid Blocks : 0 Valid Blocks : 196608
 Total Tags : 491520 Threshold : 12288 Invalid Tags : 196608 Pr0 Tags : 98304 Pr1 Tags : 196608 num_pr0 : 12288
 SAE Count : 0
 Inter-Core Inteference in Data Store : 12663016
Heartbeat CPU 7 instructions: 210000003 cycles: 725406352 heartbeat IPC: 0.0203329 cumulative IPC: 0.0203329 (Simulation time: 77 hr 32 min 57 sec) 
 Total Blocks : 196608 Invalid Blocks : 0 Valid Blocks : 196608
 Total Tags : 491520 Threshold : 12288 Invalid Tags : 196608 Pr0 Tags : 98304 Pr1 Tags : 196608 num_pr0 : 12288
 SAE Count : 0
 Inter-Core Inteference in Data Store : 13294598
Heartbeat CPU 0 instructions: 220000000 cycles: 995646808 heartbeat IPC: 0.0205606 cumulative IPC: 0.0204664 (Simulation time: 85 hr 15 min 1 sec) 
 Total Blocks : 196608 Invalid Blocks : 0 Valid Blocks : 196608
 Total Tags : 491520 Threshold : 12288 Invalid Tags : 196608 Pr0 Tags : 98304 Pr1 Tags : 196608 num_pr0 : 12288
 SAE Count : 0
 Inter-Core Inteference in Data Store : 20472407
Heartbeat CPU 1 instructions: 220000000 cycles: 1039749636 heartbeat IPC: 0.0205873 cumulative IPC: 0.0205078 (Simulation time: 86 hr 19 min 24 sec) 
 Total Blocks : 196608 Invalid Blocks : 0 Valid Blocks : 196608
 Total Tags : 491520 Threshold : 12288 Invalid Tags : 196608 Pr0 Tags : 98304 Pr1 Tags : 196608 num_pr0 : 12288
 SAE Count : 0
 Inter-Core Inteference in Data Store : 21643398
Heartbeat CPU 2 instructions: 220000000 cycles: 1076898367 heartbeat IPC: 0.0206453 cumulative IPC: 0.0205115 (Simulation time: 87 hr 15 min 4 sec) 
 Total Blocks : 196608 Invalid Blocks : 0 Valid Blocks : 196608
 Total Tags : 491520 Threshold : 12288 Invalid Tags : 196608 Pr0 Tags : 98304 Pr1 Tags : 196608 num_pr0 : 12288
 SAE Count : 0
 Inter-Core Inteference in Data Store : 22621612
Heartbeat CPU 3 instructions: 220000000 cycles: 1107866474 heartbeat IPC: 0.0206982 cumulative IPC: 0.0205231 (Simulation time: 87 hr 59 min 58 sec) 
 Total Blocks : 196608 Invalid Blocks : 0 Valid Blocks : 196608
 Total Tags : 491520 Threshold : 12288 Invalid Tags : 196608 Pr0 Tags : 98304 Pr1 Tags : 196608 num_pr0 : 12288
 SAE Count : 0
 Inter-Core Inteference in Data Store : 23448451
Heartbeat CPU 4 instructions: 220000000 cycles: 1137180556 heartbeat IPC: 0.0206546 cumulative IPC: 0.0205017 (Simulation time: 88 hr 42 min 3 sec) 
 Total Blocks : 196608 Invalid Blocks : 0 Valid Blocks : 196608
 Total Tags : 491520 Threshold : 12288 Invalid Tags : 196608 Pr0 Tags : 98304 Pr1 Tags : 196608 num_pr0 : 12288
 SAE Count : 0
 Inter-Core Inteference in Data Store : 24235436
Heartbeat CPU 5 instructions: 220000000 cycles: 1163647401 heartbeat IPC: 0.0206521 cumulative IPC: 0.0204898 (Simulation time: 89 hr 14 min 24 sec) 
 Total Blocks : 196608 Invalid Blocks : 0 Valid Blocks : 196608
 Total Tags : 491520 Threshold : 12288 Invalid Tags : 196608 Pr0 Tags : 98304 Pr1 Tags : 196608 num_pr0 : 12288
 SAE Count : 0
 Inter-Core Inteference in Data Store : 24948141
Heartbeat CPU 6 instructions: 220000000 cycles: 1187485056 heartbeat IPC: 0.0206058 cumulative IPC: 0.0204896 (Simulation time: 89 hr 42 min 12 sec) 
 Total Blocks : 196608 Invalid Blocks : 0 Valid Blocks : 196608
 Total Tags : 491520 Threshold : 12288 Invalid Tags : 196608 Pr0 Tags : 98304 Pr1 Tags : 196608 num_pr0 : 12288
 SAE Count : 0
 Inter-Core Inteference in Data Store : 25576313
Heartbeat CPU 7 instructions: 220000000 cycles: 1210251169 heartbeat IPC: 0.0206251 cumulative IPC: 0.020478 (Simulation time: 90 hr 10 min 3 sec) 
 Total Blocks : 196608 Invalid Blocks : 0 Valid Blocks : 196608
 Total Tags : 491520 Threshold : 12288 Invalid Tags : 196608 Pr0 Tags : 98304 Pr1 Tags : 196608 num_pr0 : 12288
 SAE Count : 0
 Inter-Core Inteference in Data Store : 26185577
Heartbeat CPU 0 instructions: 230000000 cycles: 1484233365 heartbeat IPC: 0.0204672 cumulative IPC: 0.0204667 (Simulation time: 95 hr 6 min 55 sec) 
 Total Blocks : 196608 Invalid Blocks : 0 Valid Blocks : 196608
 Total Tags : 491520 Threshold : 12288 Invalid Tags : 196608 Pr0 Tags : 98304 Pr1 Tags : 196608 num_pr0 : 12288
 SAE Count : 0
 Inter-Core Inteference in Data Store : 33482337
Heartbeat CPU 1 instructions: 230000000 cycles: 1528904378 heartbeat IPC: 0.0204434 cumulative IPC: 0.0204835 (Simulation time: 95 hr 47 min 48 sec) 
 Total Blocks : 196608 Invalid Blocks : 0 Valid Blocks : 196608
 Total Tags : 491520 Threshold : 12288 Invalid Tags : 196608 Pr0 Tags : 98304 Pr1 Tags : 196608 num_pr0 : 12288
 SAE Count : 0
 Inter-Core Inteference in Data Store : 34665206
Heartbeat CPU 2 instructions: 230000000 cycles: 1564176203 heartbeat IPC: 0.0205222 cumulative IPC: 0.0205154 (Simulation time: 96 hr 20 min 20 sec) 
 Total Blocks : 196608 Invalid Blocks : 0 Valid Blocks : 196608
 Total Tags : 491520 Threshold : 12288 Invalid Tags : 196608 Pr0 Tags : 98304 Pr1 Tags : 196608 num_pr0 : 12288
 SAE Count : 0
 Inter-Core Inteference in Data Store : 35597500
Heartbeat CPU 3 instructions: 230000000 cycles: 1595574475 heartbeat IPC: 0.0205041 cumulative IPC: 0.0205163 (Simulation time: 96 hr 48 min 51 sec) 
 Total Blocks : 196608 Invalid Blocks : 0 Valid Blocks : 196608
 Total Tags : 491520 Threshold : 12288 Invalid Tags : 196608 Pr0 Tags : 98304 Pr1 Tags : 196608 num_pr0 : 12288
 SAE Count : 0
 Inter-Core Inteference in Data Store : 36421720
Heartbeat CPU 4 instructions: 230000000 cycles: 1626109041 heartbeat IPC: 0.0204529 cumulative IPC: 0.0204846 (Simulation time: 97 hr 16 min 18 sec) 
 Total Blocks : 196608 Invalid Blocks : 0 Valid Blocks : 196608
 Total Tags : 491520 Threshold : 12288 Invalid Tags : 196608 Pr0 Tags : 98304 Pr1 Tags : 196608 num_pr0 : 12288
 SAE Count : 0
 Inter-Core Inteference in Data Store : 37220163
Heartbeat CPU 5 instructions: 230000000 cycles: 1651721027 heartbeat IPC: 0.0204887 cumulative IPC: 0.0204894 (Simulation time: 97 hr 38 min 27 sec) 
 Total Blocks : 196608 Invalid Blocks : 0 Valid Blocks : 196608
 Total Tags : 491520 Threshold : 12288 Invalid Tags : 196608 Pr0 Tags : 98304 Pr1 Tags : 196608 num_pr0 : 12288
 SAE Count : 0
 Inter-Core Inteference in Data Store : 37903366
Heartbeat CPU 6 instructions: 230000000 cycles: 1673621957 heartbeat IPC: 0.0205703 cumulative IPC: 0.0205168 (Simulation time: 97 hr 58 min 2 sec) 
 Total Blocks : 196608 Invalid Blocks : 0 Valid Blocks : 196608
 Total Tags : 491520 Threshold : 12288 Invalid Tags : 196608 Pr0 Tags : 98304 Pr1 Tags : 196608 num_pr0 : 12288
 SAE Count : 0
 Inter-Core Inteference in Data Store : 38463367
Heartbeat CPU 7 instructions: 230000000 cycles: 1695961658 heartbeat IPC: 0.0205884 cumulative IPC: 0.0205147 (Simulation time: 98 hr 17 min 42 sec) 
 Total Blocks : 196608 Invalid Blocks : 0 Valid Blocks : 196608
 Total Tags : 491520 Threshold : 12288 Invalid Tags : 196608 Pr0 Tags : 98304 Pr1 Tags : 196608 num_pr0 : 12288
 SAE Count : 0
 Inter-Core Inteference in Data Store : 39042168
Heartbeat CPU 0 instructions: 240000000 cycles: 1959942013 heartbeat IPC: 0.0210213 cumulative IPC: 0.0206195 (Simulation time: 102 hr 7 min 46 sec) 
 Total Blocks : 196608 Invalid Blocks : 0 Valid Blocks : 196608
 Total Tags : 491520 Threshold : 12288 Invalid Tags : 196608 Pr0 Tags : 98304 Pr1 Tags : 196608 num_pr0 : 12288
 SAE Count : 0
 Inter-Core Inteference in Data Store : 45998316
Heartbeat CPU 1 instructions: 240000000 cycles: 2005982136 heartbeat IPC: 0.0209609 cumulative IPC: 0.020612 (Simulation time: 102 hr 45 min 58 sec) 
 Total Blocks : 196608 Invalid Blocks : 0 Valid Blocks : 196608
 Total Tags : 491520 Threshold : 12288 Invalid Tags : 196608 Pr0 Tags : 98304 Pr1 Tags : 196608 num_pr0 : 12288
 SAE Count : 0
 Inter-Core Inteference in Data Store : 47246409
Heartbeat CPU 2 instructions: 240000000 cycles: 2040754129 heartbeat IPC: 0.0209829 cumulative IPC: 0.0206387 (Simulation time: 103 hr 12 min 42 sec) 
 Total Blocks : 196608 Invalid Blocks : 0 Valid Blocks : 196608
 Total Tags : 491520 Threshold : 12288 Invalid Tags : 196608 Pr0 Tags : 98304 Pr1 Tags : 196608 num_pr0 : 12288
 SAE Count : 0
 Inter-Core Inteference in Data Store : 48193541
Heartbeat CPU 3 instructions: 240000000 cycles: 2075383407 heartbeat IPC: 0.0208416 cumulative IPC: 0.0206011 (Simulation time: 103 hr 39 min 21 sec) 
 Total Blocks : 196608 Invalid Blocks : 0 Valid Blocks : 196608
 Total Tags : 491520 Threshold : 12288 Invalid Tags : 196608 Pr0 Tags : 98304 Pr1 Tags : 196608 num_pr0 : 12288
 SAE Count : 0
 Inter-Core Inteference in Data Store : 49132387
Heartbeat CPU 4 instructions: 240000000 cycles: 2104676114 heartbeat IPC: 0.0208957 cumulative IPC: 0.0205897 (Simulation time: 104 hr 2 min 7 sec) 
 Total Blocks : 196608 Invalid Blocks : 0 Valid Blocks : 196608
 Total Tags : 491520 Threshold : 12288 Invalid Tags : 196608 Pr0 Tags : 98304 Pr1 Tags : 196608 num_pr0 : 12288
 SAE Count : 0
 Inter-Core Inteference in Data Store : 49930169
Heartbeat CPU 5 instructions: 240000000 cycles: 2130943304 heartbeat IPC: 0.0208671 cumulative IPC: 0.0205848 (Simulation time: 104 hr 22 min 29 sec) 
 Total Blocks : 196608 Invalid Blocks : 0 Valid Blocks : 196608
 Total Tags : 491520 Threshold : 12288 Invalid Tags : 196608 Pr0 Tags : 98304 Pr1 Tags : 196608 num_pr0 : 12288
 SAE Count : 0
 Inter-Core Inteference in Data Store : 50647482
Heartbeat CPU 6 instructions: 240000000 cycles: 2152476020 heartbeat IPC: 0.0208832 cumulative IPC: 0.0206083 (Simulation time: 104 hr 39 min 3 sec) 
 Total Blocks : 196608 Invalid Blocks : 0 Valid Blocks : 196608
 Total Tags : 491520 Threshold : 12288 Invalid Tags : 196608 Pr0 Tags : 98304 Pr1 Tags : 196608 num_pr0 : 12288
 SAE Count : 0
 Inter-Core Inteference in Data Store : 51235364
Heartbeat CPU 7 instructions: 240000000 cycles: 2176592001 heartbeat IPC: 0.020806 cumulative IPC: 0.0205867 (Simulation time: 104 hr 58 min 10 sec) 
 Total Blocks : 196608 Invalid Blocks : 0 Valid Blocks : 196608
 Total Tags : 491520 Threshold : 12288 Invalid Tags : 196608 Pr0 Tags : 98304 Pr1 Tags : 196608 num_pr0 : 12288
 SAE Count : 0
 Inter-Core Inteference in Data Store : 51896918
Heartbeat CPU 0 instructions: 250000000 cycles: 2451696805 heartbeat IPC: 0.0203353 cumulative IPC: 0.0205565 (Simulation time: 108 hr 24 min 56 sec) 
 Total Blocks : 196608 Invalid Blocks : 0 Valid Blocks : 196608
 Total Tags : 491520 Threshold : 12288 Invalid Tags : 196608 Pr0 Tags : 98304 Pr1 Tags : 196608 num_pr0 : 12288
 SAE Count : 0
 Inter-Core Inteference in Data Store : 59321359
Heartbeat CPU 1 instructions: 250000000 cycles: 2498046376 heartbeat IPC: 0.0203226 cumulative IPC: 0.0205491 (Simulation time: 108 hr 59 min 24 sec) 
 Total Blocks : 196608 Invalid Blocks : 0 Valid Blocks : 196608
 Total Tags : 491520 Threshold : 12288 Invalid Tags : 196608 Pr0 Tags : 98304 Pr1 Tags : 196608 num_pr0 : 12288
 SAE Count : 0
 Inter-Core Inteference in Data Store : 60583855
Heartbeat CPU 2 instructions: 250000000 cycles: 2531412297 heartbeat IPC: 0.0203808 cumulative IPC: 0.0205836 (Simulation time: 109 hr 24 min 22 sec) 
 Total Blocks : 196608 Invalid Blocks : 0 Valid Blocks : 196608
 Total Tags : 491520 Threshold : 12288 Invalid Tags : 196608 Pr0 Tags : 98304 Pr1 Tags : 196608 num_pr0 : 12288
 SAE Count : 0
 Inter-Core Inteference in Data Store : 61498286
Heartbeat CPU 3 instructions: 250000000 cycles: 2568531160 heartbeat IPC: 0.0202779 cumulative IPC: 0.0205328 (Simulation time: 109 hr 51 min 55 sec) 
 Total Blocks : 196608 Invalid Blocks : 0 Valid Blocks : 196608
 Total Tags : 491520 Threshold : 12288 Invalid Tags : 196608 Pr0 Tags : 98304 Pr1 Tags : 196608 num_pr0 : 12288
 SAE Count : 0
 Inter-Core Inteference in Data Store : 62496969
Heartbeat CPU 4 instructions: 250000000 cycles: 2596801996 heartbeat IPC: 0.02032 cumulative IPC: 0.0205336 (Simulation time: 110 hr 13 min 14 sec) 
 Total Blocks : 196608 Invalid Blocks : 0 Valid Blocks : 196608
 Total Tags : 491520 Threshold : 12288 Invalid Tags : 196608 Pr0 Tags : 98304 Pr1 Tags : 196608 num_pr0 : 12288
 SAE Count : 0
[...]
LLC4 PREFETCH  ACCESS: 23776665  HIT: 11027516  MISS: 12749149  HIT %: 46.3796  MISS %: 53.6204  AVERAGE MISS PENALTY: 421.967
LLC4 WRITEBACK ACCESS: 16987  HIT:  1474  MISS: 15513  HIT %: 8.67722  MISS %: 91.3228  AVERAGE MISS PENALTY: 0
LLC4 PREFETCH  REQUESTED:     0  ISSUED:     0  USEFUL: 5285977  USELESS: 24873370
 USEFUL LOAD PREFETCHES:    5285977 PREFETCH ISSUED TO LOWER LEVEL:  102067766  ACCURACY: 5.17889
 TIMELY PREFETCHES:    5285977 LATE PREFETCHES: 0 DROPPED PREFETCHES: 0
LLC4 AVERAGE MISS LATENCY: 418.978 cycles

LLC4 Set Associative Eviction Count : 0
LLC4 Priority 0 entries : 12288
LLC4 Inter-Core Interference : 30711596
LLC5 TOTAL     ACCESS: 27298339  HIT: 12887528  MISS: 14410811  HIT %: 47.2099  MISS %: 52.7901  AVERAGE MISS PENALTY: 404.951
LLC5 LOAD      ACCESS: 3730872  HIT: 1821433  MISS: 1909439  HIT %: 48.8206  MISS %: 51.1794  AVERAGE MISS PENALTY: 386.384
LLC5 RFO       ACCESS:  8187  HIT:  1208  MISS:  6979  HIT %: 14.7551  MISS %: 85.2449  AVERAGE MISS PENALTY: 380.705
LLC5 PREFETCH  ACCESS: 23542293  HIT: 11063380  MISS: 12478913  HIT %: 46.9936  MISS %: 53.0064  AVERAGE MISS PENALTY: 408.308
LLC5 WRITEBACK ACCESS: 16987  HIT:  1507  MISS: 15480  HIT %: 8.87149  MISS %: 91.1285  AVERAGE MISS PENALTY: 0
LLC5 PREFETCH  REQUESTED:     0  ISSUED:     0  USEFUL: 5270733  USELESS: 24584380
 USEFUL LOAD PREFETCHES:    5270733 PREFETCH ISSUED TO LOWER LEVEL:   99889240  ACCURACY: 5.27658
 TIMELY PREFETCHES:    5270733 LATE PREFETCHES: 0 DROPPED PREFETCHES: 0
LLC5 AVERAGE MISS LATENCY: 404.951 cycles

LLC5 Set Associative Eviction Count : 0
LLC5 Priority 0 entries : 12288
LLC5 Inter-Core Interference : 30425120
LLC6 TOTAL     ACCESS: 26964200  HIT: 12871964  MISS: 14092236  HIT %: 47.7372  MISS %: 52.2628  AVERAGE MISS PENALTY: 410.258
LLC6 LOAD      ACCESS: 3836903  HIT: 1885402  MISS: 1951501  HIT %: 49.1386  MISS %: 50.8614  AVERAGE MISS PENALTY: 400.002
LLC6 RFO       ACCESS:  8189  HIT:  1212  MISS:  6977  HIT %: 14.8003  MISS %: 85.1997  AVERAGE MISS PENALTY: 435.932
LLC6 PREFETCH  ACCESS: 23102118  HIT: 10983824  MISS: 12118294  HIT %: 47.5447  MISS %: 52.4553  AVERAGE MISS PENALTY: 412.419
LLC6 WRITEBACK ACCESS: 16990  HIT:  1526  MISS: 15464  HIT %: 8.98175  MISS %: 91.0182  AVERAGE MISS PENALTY: 0
LLC6 PREFETCH  REQUESTED:     0  ISSUED:     0  USEFUL: 5239415  USELESS: 24241145
 USEFUL LOAD PREFETCHES:    5239415 PREFETCH ISSUED TO LOWER LEVEL:   96955285  ACCURACY: 5.40395
 TIMELY PREFETCHES:    5239415 LATE PREFETCHES: 0 DROPPED PREFETCHES: 0
LLC6 AVERAGE MISS LATENCY: 410.258 cycles

LLC6 Set Associative Eviction Count : 0
LLC6 Priority 0 entries : 12288
LLC6 Inter-Core Interference : 30215685
LLC7 TOTAL     ACCESS: 26484049  HIT: 12823831  MISS: 13660218  HIT %: 48.421  MISS %: 51.579  AVERAGE MISS PENALTY: 398.199
LLC7 LOAD      ACCESS: 3781847  HIT: 1852979  MISS: 1928868  HIT %: 48.9967  MISS %: 51.0033  AVERAGE MISS PENALTY: 384.597
LLC7 RFO       ACCESS:  8188  HIT:  1179  MISS:  7009  HIT %: 14.3991  MISS %: 85.6009  AVERAGE MISS PENALTY: 411.074
LLC7 PREFETCH  ACCESS: 22677025  HIT: 10968175  MISS: 11708850  HIT %: 48.3669  MISS %: 51.6331  AVERAGE MISS PENALTY: 400.959
LLC7 WRITEBACK ACCESS: 16989  HIT:  1498  MISS: 15491  HIT %: 8.81747  MISS %: 91.1825  AVERAGE MISS PENALTY: 0
LLC7 PREFETCH  REQUESTED:     0  ISSUED:     0  USEFUL: 5243947  USELESS: 24053997
 USEFUL LOAD PREFETCHES:    5243947 PREFETCH ISSUED TO LOWER LEVEL:   93683723  ACCURACY: 5.5975
 TIMELY PREFETCHES:    5243947 LATE PREFETCHES: 0 DROPPED PREFETCHES: 0
LLC7 AVERAGE MISS LATENCY: 398.199 cycles

LLC7 Set Associative Eviction Count : 0
LLC7 Priority 0 entries : 12288
LLC7 Inter-Core Interference : 30039208
ROI Average ROB Stall Cycles:	215.789
ROI Total ROB Stalls Cycles:	9203508412
ROI TOTAL ROB counter      :	42650500
ROI Average Load ROB Stall Cycles:	257.394
ROI Total Load ROB Stalls Cycle  :	9056700347
ROI Total Load ROB stalls Counter:	35186089
Major fault: 0 Minor fault: 34814

CPU 7 cumulative IPC: 0.0216377 instructions: 200000003 cycles: 9243108368
ITLB TOTAL     ACCESS: 34300928  HIT: 34300928  MISS:     0  HIT %:   100  MISS %:     0  AVERAGE MISS PENALTY: 0
ITLB LOAD      ACCESS: 34300928  HIT: 34300928  MISS:     0  HIT %:   100  MISS %:     0  AVERAGE MISS PENALTY: 0
ITLB RFO       ACCESS:     0  HIT:     0  MISS:     0  HIT %:     0  MISS %:     0  AVERAGE MISS PENALTY: 0
ITLB PREFETCH  ACCESS:     0  HIT:     0  MISS:     0  HIT %:     0  MISS %:     0  AVERAGE MISS PENALTY: 0
ITLB WRITEBACK ACCESS:     0  HIT:     0  MISS:     0  HIT %:     0  MISS %:     0  AVERAGE MISS PENALTY: 0
ITLB PREFETCH  REQUESTED:     0  ISSUED:     0  USEFUL:     0  USELESS:     0
 USEFUL LOAD PREFETCHES:          0 PREFETCH ISSUED TO LOWER LEVEL:          0  ACCURACY: -nan
 TIMELY PREFETCHES:          0 LATE PREFETCHES: 0 DROPPED PREFETCHES: 0
ITLB AVERAGE MISS LATENCY: -nan cycles

ITLB Set Associative Eviction Count : 0
ITLB Priority 0 entries : 0
ITLB Inter-Core Interference : 0
DTLB TOTAL     ACCESS: 78214285  HIT: 55256964  MISS: 22957321  HIT %: 70.6482  MISS %: 29.3518  AVERAGE MISS PENALTY: 9.18912
DTLB LOAD      ACCESS: 75518611  HIT: 52566298  MISS: 22952313  HIT %: 69.6071  MISS %: 30.3929  AVERAGE MISS PENALTY: 9.18393
DTLB RFO       ACCESS: 2695674  HIT: 2690666  MISS:  5008  HIT %: 99.8142  MISS %: 0.185779  AVERAGE MISS PENALTY: 32.9808
DTLB PREFETCH  ACCESS:     0  HIT:     0  MISS:     0  HIT %:     0  MISS %:     0  AVERAGE MISS PENALTY: 0
DTLB WRITEBACK ACCESS:     0  HIT:     0  MISS:     0  HIT %:     0  MISS %:     0  AVERAGE MISS PENALTY: 0
DTLB PREFETCH  REQUESTED:     0  ISSUED:     0  USEFUL:     0  USELESS:     0
 USEFUL LOAD PREFETCHES:          0 PREFETCH ISSUED TO LOWER LEVEL:          0  ACCURACY: -nan
 TIMELY PREFETCHES:          0 LATE PREFETCHES: 0 DROPPED PREFETCHES: 0
DTLB AVERAGE MISS LATENCY: 9.18912 cycles

DTLB Set Associative Eviction Count : 0
DTLB Priority 0 entries : 0
DTLB Inter-Core Interference : 0
STLB TOTAL     ACCESS: 22957321  HIT: 22916529  MISS: 40792  HIT %: 99.8223  MISS %: 0.177686  AVERAGE MISS PENALTY: 100
STLB LOAD      ACCESS: 22952313  HIT: 22912244  MISS: 40069  HIT %: 99.8254  MISS %: 0.174575  AVERAGE MISS PENALTY: 100
STLB RFO       ACCESS:  5008  HIT:  4285  MISS:   723  HIT %: 85.5631  MISS %: 14.4369  AVERAGE MISS PENALTY: 100
STLB PREFETCH  ACCESS:     0  HIT:     0  MISS:     0  HIT %:     0  MISS %:     0  AVERAGE MISS PENALTY: 0
STLB WRITEBACK ACCESS:     0  HIT:     0  MISS:     0  HIT %:     0  MISS %:     0  AVERAGE MISS PENALTY: 0
STLB PREFETCH  REQUESTED:     0  ISSUED:     0  USEFUL:     0  USELESS:     0
 USEFUL LOAD PREFETCHES:          0 PREFETCH ISSUED TO LOWER LEVEL:          0  ACCURACY: -nan
 TIMELY PREFETCHES:          0 LATE PREFETCHES: 0 DROPPED PREFETCHES: 0
STLB AVERAGE MISS LATENCY: 100 cycles

STLB Set Associative Eviction Count : 0
STLB Priority 0 entries : 0
STLB Inter-Core Interference : 0
L1D TOTAL     ACCESS: 197817511  HIT: 41971549  MISS: 155845962  HIT %: 21.2173  MISS %: 78.7827  AVERAGE MISS PENALTY: 2.97601e+07
L1D LOAD      ACCESS: 66765667  HIT: 34454019  MISS: 32311648  HIT %: 51.6044  MISS %: 48.3956  AVERAGE MISS PENALTY: 1.43538e+08
L1D RFO       ACCESS: 2485497  HIT: 2419937  MISS: 65560  HIT %: 97.3623  MISS %: 2.6377  AVERAGE MISS PENALTY: 133879
L1D PREFETCH  ACCESS: 128566347  HIT: 5097593  MISS: 123468754  HIT %: 3.96495  MISS %: 96.035  AVERAGE MISS PENALTY: 284.718
L1D WRITEBACK ACCESS:     0  HIT:     0  MISS:     0  HIT %:     0  MISS %:     0  AVERAGE MISS PENALTY: 0
L1D PREFETCH  REQUESTED: 132142861  ISSUED: 131976193  USEFUL: 3350960  USELESS: 120117787
 USEFUL LOAD PREFETCHES:    3350960 PREFETCH ISSUED TO LOWER LEVEL:  141283375  ACCURACY: 2.3718
 TIMELY PREFETCHES:    3350960 LATE PREFETCHES: 976311 DROPPED PREFETCHES: 166668
L1D AVERAGE MISS LATENCY: 329.154 cycles

L1D Set Associative Eviction Count : 0
L1D Priority 0 entries : 0
L1D Inter-Core Interference : 0
L1I TOTAL     ACCESS: 36045251  HIT: 36045236  MISS:    15  HIT %:   100  MISS %: 4.16144e-05  AVERAGE MISS PENALTY: 291.067
L1I LOAD      ACCESS: 36045251  HIT: 36045236  MISS:    15  HIT %:   100  MISS %: 4.16144e-05  AVERAGE MISS PENALTY: 291.067
L1I RFO       ACCESS:     0  HIT:     0  MISS:     0  HIT %:     0  MISS %:     0  AVERAGE MISS PENALTY: 0
L1I PREFETCH  ACCESS:     0  HIT:     0  MISS:     0  HIT %:     0  MISS %:     0  AVERAGE MISS PENALTY: 0
L1I WRITEBACK ACCESS:     0  HIT:     0  MISS:     0  HIT %:     0  MISS %:     0  AVERAGE MISS PENALTY: 0
L1I PREFETCH  REQUESTED:     0  ISSUED:     0  USEFUL:     0  USELESS:     0
 USEFUL LOAD PREFETCHES:          0 PREFETCH ISSUED TO LOWER LEVEL:          0  ACCURACY: -nan
 TIMELY PREFETCHES:          0 LATE PREFETCHES: 0 DROPPED PREFETCHES: 0
L1I AVERAGE MISS LATENCY: 291.067 cycles

L1I Set Associative Eviction Count : 0
L1I Priority 0 entries : 0
L1I Inter-Core Interference : 15
L2C TOTAL     ACCESS: 230624886  HIT: 8151005  MISS: 222473881  HIT %: 3.53431  MISS %: 96.4657  AVERAGE MISS PENALTY: 2.48135e+07
L2C LOAD      ACCESS: 32278028  HIT: 661727  MISS: 31616301  HIT %: 2.05008  MISS %: 97.9499  AVERAGE MISS PENALTY: 1.74603e+08
L2C RFO       ACCESS: 65559  HIT:    53  MISS: 65506  HIT %: 0.0808432  MISS %: 99.9192  AVERAGE MISS PENALTY: 133974
L2C PREFETCH  ACCESS: 198080371  HIT: 7288467  MISS: 190791904  HIT %: 3.67955  MISS %: 96.3204  AVERAGE MISS PENALTY: 273.604
L2C WRITEBACK ACCESS: 200928  HIT: 200758  MISS:   170  HIT %: 99.9154  MISS %: 0.0846074  AVERAGE MISS PENALTY: 0
L2C PREFETCH  REQUESTED: 299851730  ISSUED: 299846977  USEFUL: 540888  USELESS: 190251089
 USEFUL LOAD PREFETCHES:     540888 PREFETCH ISSUED TO LOWER LEVEL:  195083881  ACCURACY: 0.277259
 TIMELY PREFETCHES:     540888 LATE PREFETCHES: 1239065 DROPPED PREFETCHES: 4753
L2C AVERAGE MISS LATENCY: 268.869 cycles

L2C Set Associative Eviction Count : 0
L2C Priority 0 entries : 0
L2C Inter-Core Interference : 0
LLC0 TOTAL     ACCESS: 28583839  HIT: 13319819  MISS: 15264020  HIT %: 46.5991  MISS %: 53.4009  AVERAGE MISS PENALTY: 471.019
LLC0 LOAD      ACCESS: 3985157  HIT: 1975817  MISS: 2009340  HIT %: 49.5794  MISS %: 50.4206  AVERAGE MISS PENALTY: 456.239
LLC0 RFO       ACCESS:  8188  HIT:  1196  MISS:  6992  HIT %: 14.6067  MISS %: 85.3933  AVERAGE MISS PENALTY: 415.886
LLC0 PREFETCH  ACCESS: 24573507  HIT: 11341320  MISS: 13232187  HIT %: 46.1526  MISS %: 53.8474  AVERAGE MISS PENALTY: 473.845
LLC0 WRITEBACK ACCESS: 16987  HIT:  1486  MISS: 15501  HIT %: 8.74787  MISS %: 91.2521  AVERAGE MISS PENALTY: 0
LLC0 PREFETCH  REQUESTED:     0  ISSUED:     0  USEFUL: 5458262  USELESS: 25841243
 USEFUL LOAD PREFETCHES:    5458262 PREFETCH ISSUED TO LOWER LEVEL:  105888400  ACCURACY: 5.15473
 TIMELY PREFETCHES:    5458262 LATE PREFETCHES: 0 DROPPED PREFETCHES: 0
LLC0 AVERAGE MISS LATENCY: 471.019 cycles

LLC0 Set Associative Eviction Count : 0
LLC0 Priority 0 entries : 12288
LLC0 Inter-Core Interference : 31849775
LLC1 TOTAL     ACCESS: 28937520  HIT: 13366643  MISS: 15570877  HIT %: 46.1914  MISS %: 53.8086  AVERAGE MISS PENALTY: 466.678
LLC1 LOAD      ACCESS: 3779276  HIT: 1825152  MISS: 1954124  HIT %: 48.2937  MISS %: 51.7063  AVERAGE MISS PENALTY: 452.913
LLC1 RFO       ACCESS:  8190  HIT:  1156  MISS:  7034  HIT %: 14.1148  MISS %: 85.8852  AVERAGE MISS PENALTY: 420.154
LLC1 PREFETCH  ACCESS: 25133065  HIT: 11538902  MISS: 13594163  HIT %: 45.9112  MISS %: 54.0888  AVERAGE MISS PENALTY: 469.215
LLC1 WRITEBACK ACCESS: 16989  HIT:  1433  MISS: 15556  HIT %: 8.43487  MISS %: 91.5651  AVERAGE MISS PENALTY: 0
LLC1 PREFETCH  REQUESTED:     0  ISSUED:     0  USEFUL: 5410021  USELESS: 26516626
 USEFUL LOAD PREFETCHES:    5410021 PREFETCH ISSUED TO LOWER LEVEL:  108766786  ACCURACY: 4.97396
 TIMELY PREFETCHES:    5410021 LATE PREFETCHES: 0 DROPPED PREFETCHES: 0
LLC1 AVERAGE MISS LATENCY: 466.678 cycles

LLC1 Set Associative Eviction Count : 0
LLC1 Priority 0 entries : 12288
LLC1 Inter-Core Interference : 32292256
LLC2 TOTAL     ACCESS: 28778207  HIT: 13358156  MISS: 15420051  HIT %: 46.4176  MISS %: 53.5824  AVERAGE MISS PENALTY: 459.209
LLC2 LOAD      ACCESS: 3843731  HIT: 1866263  MISS: 1977468  HIT %: 48.5534  MISS %: 51.4466  AVERAGE MISS PENALTY: 456.077
LLC2 RFO       ACCESS:  8189  HIT:  1145  MISS:  7044  HIT %: 13.9822  MISS %: 86.0178  AVERAGE MISS PENALTY: 493.99
LLC2 PREFETCH  ACCESS: 24909297  HIT: 11489332  MISS: 13419965  HIT %: 46.1247  MISS %: 53.8753  AVERAGE MISS PENALTY: 460.185
LLC2 WRITEBACK ACCESS: 16990  HIT:  1416  MISS: 15574  HIT %: 8.33431  MISS %: 91.6657  AVERAGE MISS PENALTY: 0
LLC2 PREFETCH  REQUESTED:     0  ISSUED:     0  USEFUL: 5438590  USELESS: 26057848
 USEFUL LOAD PREFETCHES:    5438590 PREFETCH ISSUED TO LOWER LEVEL:  107390696  ACCURACY: 5.0643
 TIMELY PREFETCHES:    5438590 LATE PREFETCHES: 0 DROPPED PREFETCHES: 0
LLC2 AVERAGE MISS LATENCY: 459.209 cycles

LLC2 Set Associative Eviction Count : 0
LLC2 Priority 0 entries : 12288
LLC2 Inter-Core Interference : 31996106
LLC3 TOTAL     ACCESS: 27982532  HIT: 13031875  MISS: 14950657  HIT %: 46.5715  MISS %: 53.4285  AVERAGE MISS PENALTY: 455.2
LLC3 LOAD      ACCESS: 3928056  HIT: 1983579  MISS: 1944477  HIT %: 50.4977  MISS %: 49.5023  AVERAGE MISS PENALTY: 451.542
LLC3 RFO       ACCESS:  8186  HIT:  1147  MISS:  7039  HIT %: 14.0117  MISS %: 85.9883  AVERAGE MISS PENALTY: 472.716
LLC3 PREFETCH  ACCESS: 24029301  HIT: 11045721  MISS: 12983580  HIT %: 45.9677  MISS %: 54.0323  AVERAGE MISS PENALTY: 456.283
LLC3 WRITEBACK ACCESS: 16989  HIT:  1428  MISS: 15561  HIT %: 8.40544  MISS %: 91.5946  AVERAGE MISS PENALTY: 0
LLC3 PREFETCH  REQUESTED:     0  ISSUED:     0  USEFUL: 5345006  USELESS: 25126211
 USEFUL LOAD PREFETCHES:    5345006 PREFETCH ISSUED TO LOWER LEVEL:  103882672  ACCURACY: 5.14523
 TIMELY PREFETCHES:    5345006 LATE PREFETCHES: 0 DROPPED PREFETCHES: 0
LLC3 AVERAGE MISS LATENCY: 455.2 cycles

LLC3 Set Associative Eviction Count : 0
LLC3 Priority 0 entries : 12288
LLC3 Inter-Core Interference : 31066310
LLC4 TOTAL     ACCESS: 27574993  HIT: 12873624  MISS: 14701369  HIT %: 46.6859  MISS %: 53.3141  AVERAGE MISS PENALTY: 419.03
LLC4 LOAD      ACCESS: 3771175  HIT: 1846640  MISS: 1924535  HIT %: 48.9672  MISS %: 51.0328  AVERAGE MISS PENALTY: 403.007
LLC4 RFO       ACCESS:  8188  HIT:  1188  MISS:  7000  HIT %: 14.509  MISS %: 85.491  AVERAGE MISS PENALTY: 394.074
LLC4 PREFETCH  ACCESS: 23778642  HIT: 11024306  MISS: 12754336  HIT %: 46.3622  MISS %: 53.6378  AVERAGE MISS PENALTY: 421.97
LLC4 WRITEBACK ACCESS: 16988  HIT:  1490  MISS: 15498  HIT %: 8.7709  MISS %: 91.2291  AVERAGE MISS PENALTY: 0
LLC4 PREFETCH  REQUESTED:     0  ISSUED:     0  USEFUL: 5285977  USELESS: 24873370
 USEFUL LOAD PREFETCHES:    5285977 PREFETCH ISSUED TO LOWER LEVEL:  102067766  ACCURACY: 5.17889
 TIMELY PREFETCHES:    5285977 LATE PREFETCHES: 0 DROPPED PREFETCHES: 0
LLC4 AVERAGE MISS LATENCY: 419.03 cycles

LLC4 Set Associative Eviction Count : 0
LLC4 Priority 0 entries : 12288
LLC4 Inter-Core Interference : 30711596
LLC5 TOTAL     ACCESS: 27300403  HIT: 12882323  MISS: 14418080  HIT %: 47.1873  MISS %: 52.8127  AVERAGE MISS PENALTY: 404.985
LLC5 LOAD      ACCESS: 3731532  HIT: 1820423  MISS: 1911109  HIT %: 48.7849  MISS %: 51.2151  AVERAGE MISS PENALTY: 387.043
LLC5 RFO       ACCESS:  8187  HIT:  1229  MISS:  6958  HIT %: 15.0116  MISS %: 84.9884  AVERAGE MISS PENALTY: 380.235
LLC5 PREFETCH  ACCESS: 23543697  HIT: 11059134  MISS: 12484563  HIT %: 46.9728  MISS %: 53.0272  AVERAGE MISS PENALTY: 408.247
LLC5 WRITEBACK ACCESS: 16987  HIT:  1537  MISS: 15450  HIT %: 9.0481  MISS %: 90.9519  AVERAGE MISS PENALTY: 0
LLC5 PREFETCH  REQUESTED:     0  ISSUED:     0  USEFUL: 5270733  USELESS: 24584380
 USEFUL LOAD PREFETCHES:    5270733 PREFETCH ISSUED TO LOWER LEVEL:   99889240  ACCURACY: 5.27658
 TIMELY PREFETCHES:    5270733 LATE PREFETCHES: 0 DROPPED PREFETCHES: 0
LLC5 AVERAGE MISS LATENCY: 404.985 cycles

LLC5 Set Associative Eviction Count : 0
LLC5 Priority 0 entries : 12288
LLC5 Inter-Core Interference : 30425120
LLC6 TOTAL     ACCESS: 26966199  HIT: 12881178  MISS: 14085021  HIT %: 47.7679  MISS %: 52.2321  AVERAGE MISS PENALTY: 410.33
LLC6 LOAD      ACCESS: 3837238  HIT: 1887885  MISS: 1949353  HIT %: 49.1991  MISS %: 50.8009  AVERAGE MISS PENALTY: 399.745
LLC6 RFO       ACCESS:  8189  HIT:  1162  MISS:  7027  HIT %: 14.1898  MISS %: 85.8102  AVERAGE MISS PENALTY: 437.831
LLC6 PREFETCH  ACCESS: 23103781  HIT: 10990681  MISS: 12113100  HIT %: 47.5709  MISS %: 52.4291  AVERAGE MISS PENALTY: 412.544
LLC6 WRITEBACK ACCESS: 16991  HIT:  1450  MISS: 15541  HIT %: 8.53393  MISS %: 91.4661  AVERAGE MISS PENALTY: 0
LLC6 PREFETCH  REQUESTED:     0  ISSUED:     0  USEFUL: 5239415  USELESS: 24241145
 USEFUL LOAD PREFETCHES:    5239415 PREFETCH ISSUED TO LOWER LEVEL:   96955285  ACCURACY: 5.40395
 TIMELY PREFETCHES:    5239415 LATE PREFETCHES: 0 DROPPED PREFETCHES: 0
LLC6 AVERAGE MISS LATENCY: 410.33 cycles

LLC6 Set Associative Eviction Count : 0
LLC6 Priority 0 entries : 12288
LLC6 Inter-Core Interference : 30215685
LLC7 TOTAL     ACCESS: 26485930  HIT: 12829026  MISS: 13656904  HIT %: 48.4371  MISS %: 51.5629  AVERAGE MISS PENALTY: 398.107
LLC7 LOAD      ACCESS: 3782329  HIT: 1856033  MISS: 1926296  HIT %: 49.0712  MISS %: 50.9288  AVERAGE MISS PENALTY: 384.611
LLC7 RFO       ACCESS:  8188  HIT:  1180  MISS:  7008  HIT %: 14.4113  MISS %: 85.5887  AVERAGE MISS PENALTY: 410.687
LLC7 PREFETCH  ACCESS: 22678423  HIT: 10970294  MISS: 11708129  HIT %: 48.3733  MISS %: 51.6267  AVERAGE MISS PENALTY: 400.846
LLC7 WRITEBACK ACCESS: 16990  HIT:  1519  MISS: 15471  HIT %: 8.94055  MISS %: 91.0594  AVERAGE MISS PENALTY: 0
LLC7 PREFETCH  REQUESTED:     0  ISSUED:     0  USEFUL: 5243947  USELESS: 24053997
 USEFUL LOAD PREFETCHES:    5243947 PREFETCH ISSUED TO LOWER LEVEL:   93683723  ACCURACY: 5.5975
 TIMELY PREFETCHES:    5243947 LATE PREFETCHES: 0 DROPPED PREFETCHES: 0
LLC7 AVERAGE MISS LATENCY: 398.107 cycles

LLC7 Set Associative Eviction Count : 0
LLC7 Priority 0 entries : 12288
LLC7 Inter-Core Interference : 30039208
ROI Average ROB Stall Cycles:	215.799
ROI Total ROB Stalls Cycles:	9204347095
ROI TOTAL ROB counter      :	42652484
ROI Average Load ROB Stall Cycles:	257.423
ROI Total Load ROB Stalls Cycle  :	9057489007
ROI Total Load ROB stalls Counter:	35185233
Major fault: 0 Minor fault: 34814








Interconnect Stats 
LINK 0 BW : 0LINK 1 BW : 0LINK 2 BW : 0LINK 3 BW : 0LINK 4 BW : 0LINK 5 BW : 0LINK 6 BW : 0LINK 7 BW : 0
DRAM Statistics
 CHANNEL 0
 RQ ROW_BUFFER_HIT: 129545009  ROW_BUFFER_MISS: 345793180
 DBUS_CONGESTED: 205350238
 WQ ROW_BUFFER_HIT: 36974  ROW_BUFFER_MISS: 506774  FULL:     0

 CHANNEL 1
 RQ ROW_BUFFER_HIT: 126096964  ROW_BUFFER_MISS: 342197251
 DBUS_CONGESTED: 205350238
 WQ ROW_BUFFER_HIT: 36783  ROW_BUFFER_MISS: 506931  FULL:     0

 AVG_CONGESTED_CYCLE: 4
DRAM PAGES: 2097152
Allocated PAGES: 278512
L2C destructor called
L1D destructor called
L1I destructor called
STLB destructor called
DTLB destructor called
ITLB destructor called
L2C destructor called
L1D destructor called
L1I destructor called
STLB destructor called
DTLB destructor called
ITLB destructor called
L2C destructor called
L1D destructor called
L1I destructor called
STLB destructor called
DTLB destructor called
ITLB destructor called
L2C destructor called
L1D destructor called
L1I destructor called
STLB destructor called
DTLB destructor called
ITLB destructor called
L2C destructor called
L1D destructor called
L1I destructor called
STLB destructor called
DTLB destructor called
ITLB destructor called
L2C destructor called
L1D destructor called
L1I destructor called
STLB destructor called
DTLB destructor called
ITLB destructor called
L2C destructor called
L1D destructor called
L1I destructor called
STLB destructor called
DTLB destructor called
ITLB destructor called
L2C destructor called
L1D destructor called
L1I destructor called
STLB destructor called
DTLB destructor called
ITLB destructor called
