
*** ChampSim Multicore Out-of-Order Simulator ***

Warmup Instructions: 200000000
Simulation Instructions: 200000000
Number of CPUs: 8
threads:1

L1I Configuration:
L1I_SET:64
L1I_WAY:8
L1I_RQ_SIZE:64
L1I_WQ_SIZE:64
L1I_PQ_SIZE:8
L1I_MSHR_SIZE:8

L1D Configuration:
L1D_SET:64
L1D_WAY:12
L1D_RQ_SIZE:64
L1D_WQ_SIZE:64
L1D_PQ_SIZE:8
L1D_MSHR_SIZE:16

L2C Configuration:
L2C_SET:1024
L2C_WAY:8
L2C_RQ_SIZE:32
L2C_WQ_SIZE:32
L2C_PQ_SIZE:16
L2C_MSHR_SIZE:32

LLC Configuration:
LLC_SET:2048
LLC_WAY:12
LLC SLICES:8
LLC_RQ_SIZE:64
LLC_WQ_SIZE:64
LLC_PQ_SIZE:32
LLC_MSHR_SIZE:64

Interconnect OFF
Attacker deprioritize is: OFF
Off-chip DRAM Size: 8192 MB Channels: 2 Width: 64-bit Data Rate: 3200 MT/s
PAGE SIZE in KB: 4.000000 
PAGE SIZE in MB: 0.003906 
PAGE offset in bits: 12 
CEASER-S_LLC:0
MIRAGE : 1
CEASER_LATENCY:3
REMAP : OFF
Partitions : 1
Multi-Step : OFF
BFS : OFF

CPU 0 runs /home/anubhav/gap/pr-5.trace.gz
CPU 1 runs /home/anubhav/gap/pr-5.trace.gz
CPU 2 runs /home/anubhav/gap/pr-5.trace.gz
CPU 3 runs /home/anubhav/gap/pr-5.trace.gz
CPU 4 runs /home/anubhav/gap/pr-5.trace.gz
CPU 5 runs /home/anubhav/gap/pr-5.trace.gz
CPU 6 runs /home/anubhav/gap/pr-5.trace.gz
CPU 7 runs /home/anubhav/gap/pr-5.trace.gz
CPU 0 Bimodal branch predictor
Initialize Hawkeye state
Initialize Hawkeye state
Initialize Hawkeye state
Initialize Hawkeye state
Initialize Hawkeye state
Initialize Hawkeye state
Initialize Hawkeye state
Initialize Hawkeye state
CPU 1 Bimodal branch predictor
Initialize Hawkeye state
Initialize Hawkeye state
Initialize Hawkeye state
Initialize Hawkeye state
Initialize Hawkeye state
Initialize Hawkeye state
Initialize Hawkeye state
Initialize Hawkeye state
CPU 2 Bimodal branch predictor
Initialize Hawkeye state
Initialize Hawkeye state
Initialize Hawkeye state
Initialize Hawkeye state
Initialize Hawkeye state
Initialize Hawkeye state
Initialize Hawkeye state
Initialize Hawkeye state
CPU 3 Bimodal branch predictor
Initialize Hawkeye state
Initialize Hawkeye state
Initialize Hawkeye state
Initialize Hawkeye state
Initialize Hawkeye state
Initialize Hawkeye state
Initialize Hawkeye state
Initialize Hawkeye state
CPU 4 Bimodal branch predictor
Initialize Hawkeye state
Initialize Hawkeye state
Initialize Hawkeye state
Initialize Hawkeye state
Initialize Hawkeye state
Initialize Hawkeye state
Initialize Hawkeye state
Initialize Hawkeye state
CPU 5 Bimodal branch predictor
Initialize Hawkeye state
Initialize Hawkeye state
Initialize Hawkeye state
Initialize Hawkeye state
Initialize Hawkeye state
Initialize Hawkeye state
Initialize Hawkeye state
Initialize Hawkeye state
CPU 6 Bimodal branch predictor
Initialize Hawkeye state
Initialize Hawkeye state
Initialize Hawkeye state
Initialize Hawkeye state
Initialize Hawkeye state
Initialize Hawkeye state
Initialize Hawkeye state
Initialize Hawkeye state
CPU 7 Bimodal branch predictor
Initialize Hawkeye state
Initialize Hawkeye state
Initialize Hawkeye state
Initialize Hawkeye state
Initialize Hawkeye state
Initialize Hawkeye state
Initialize Hawkeye state
Initialize Hawkeye state
FILL
Heartbeat CPU 0 instructions: 10000001 cycles: 3863822 heartbeat IPC: 2.58811 cumulative IPC: 2.58811 (Simulation time: 0 hr 49 min 2 sec) 
 Total Blocks : 196608 Invalid Blocks : 19710 Valid Blocks : 176898
 Total Tags : 491520 Threshold : 12288 Invalid Tags : 216322 Pr0 Tags : 98300 Pr1 Tags : 176898 num_pr0 : 12288
 SAE Count : 0
 Inter-Core Inteference in Data Store : 241015
Heartbeat CPU 1 instructions: 10000001 cycles: 3863826 heartbeat IPC: 2.58811 cumulative IPC: 2.58811 (Simulation time: 0 hr 49 min 2 sec) 
 Total Blocks : 196608 Invalid Blocks : 19710 Valid Blocks : 176898
 Total Tags : 491520 Threshold : 12288 Invalid Tags : 216322 Pr0 Tags : 98300 Pr1 Tags : 176898 num_pr0 : 12288
 SAE Count : 0
 Inter-Core Inteference in Data Store : 241015
Heartbeat CPU 2 instructions: 10000001 cycles: 3863831 heartbeat IPC: 2.58811 cumulative IPC: 2.58811 (Simulation time: 0 hr 49 min 3 sec) 
 Total Blocks : 196608 Invalid Blocks : 19710 Valid Blocks : 176898
 Total Tags : 491520 Threshold : 12288 Invalid Tags : 216322 Pr0 Tags : 98300 Pr1 Tags : 176898 num_pr0 : 12288
 SAE Count : 0
 Inter-Core Inteference in Data Store : 241015
Heartbeat CPU 3 instructions: 10000001 cycles: 3863837 heartbeat IPC: 2.5881 cumulative IPC: 2.5881 (Simulation time: 0 hr 49 min 3 sec) 
 Total Blocks : 196608 Invalid Blocks : 19710 Valid Blocks : 176898
 Total Tags : 491520 Threshold : 12288 Invalid Tags : 216322 Pr0 Tags : 98300 Pr1 Tags : 176898 num_pr0 : 12288
 SAE Count : 0
 Inter-Core Inteference in Data Store : 241016
Heartbeat CPU 4 instructions: 10000001 cycles: 3863840 heartbeat IPC: 2.5881 cumulative IPC: 2.5881 (Simulation time: 0 hr 49 min 3 sec) 
 Total Blocks : 196608 Invalid Blocks : 19710 Valid Blocks : 176898
 Total Tags : 491520 Threshold : 12288 Invalid Tags : 216323 Pr0 Tags : 98299 Pr1 Tags : 176898 num_pr0 : 12288
 SAE Count : 0
 Inter-Core Inteference in Data Store : 241017
Heartbeat CPU 5 instructions: 10000001 cycles: 3863844 heartbeat IPC: 2.5881 cumulative IPC: 2.5881 (Simulation time: 0 hr 49 min 3 sec) 
 Total Blocks : 196608 Invalid Blocks : 19710 Valid Blocks : 176898
 Total Tags : 491520 Threshold : 12288 Invalid Tags : 216323 Pr0 Tags : 98299 Pr1 Tags : 176898 num_pr0 : 12288
 SAE Count : 0
 Inter-Core Inteference in Data Store : 241018
Heartbeat CPU 6 instructions: 10000001 cycles: 3863848 heartbeat IPC: 2.58809 cumulative IPC: 2.58809 (Simulation time: 0 hr 49 min 3 sec) 
 Total Blocks : 196608 Invalid Blocks : 19710 Valid Blocks : 176898
 Total Tags : 491520 Threshold : 12288 Invalid Tags : 216322 Pr0 Tags : 98300 Pr1 Tags : 176898 num_pr0 : 12288
 SAE Count : 0
 Inter-Core Inteference in Data Store : 241018
Heartbeat CPU 7 instructions: 10000001 cycles: 3863849 heartbeat IPC: 2.58809 cumulative IPC: 2.58809 (Simulation time: 0 hr 49 min 3 sec) 
 Total Blocks : 196608 Invalid Blocks : 19710 Valid Blocks : 176898
 Total Tags : 491520 Threshold : 12288 Invalid Tags : 216323 Pr0 Tags : 98299 Pr1 Tags : 176898 num_pr0 : 12288
 SAE Count : 0
 Inter-Core Inteference in Data Store : 241019
Heartbeat CPU 0 instructions: 20000000 cycles: 13237170 heartbeat IPC: 1.06685 cumulative IPC: 1.5109 (Simulation time: 1 hr 49 min 3 sec) 
 Total Blocks : 196608 Invalid Blocks : 14 Valid Blocks : 196594
 Total Tags : 491520 Threshold : 12288 Invalid Tags : 196622 Pr0 Tags : 98304 Pr1 Tags : 196594 num_pr0 : 12288
 SAE Count : 0
 Inter-Core Inteference in Data Store : 1503239
Heartbeat CPU 1 instructions: 20000000 cycles: 13241289 heartbeat IPC: 1.06639 cumulative IPC: 1.51043 (Simulation time: 1 hr 49 min 5 sec) 
 Total Blocks : 196608 Invalid Blocks : 14 Valid Blocks : 196594
 Total Tags : 491520 Threshold : 12288 Invalid Tags : 196622 Pr0 Tags : 98304 Pr1 Tags : 196594 num_pr0 : 12288
 SAE Count : 0
 Inter-Core Inteference in Data Store : 1503769
Heartbeat CPU 2 instructions: 20000000 cycles: 13245815 heartbeat IPC: 1.06587 cumulative IPC: 1.50991 (Simulation time: 1 hr 49 min 6 sec) 
 Total Blocks : 196608 Invalid Blocks : 14 Valid Blocks : 196594
 Total Tags : 491520 Threshold : 12288 Invalid Tags : 196622 Pr0 Tags : 98304 Pr1 Tags : 196594 num_pr0 : 12288
 SAE Count : 0
 Inter-Core Inteference in Data Store : 1504318
Heartbeat CPU 3 instructions: 20000000 cycles: 13247114 heartbeat IPC: 1.06573 cumulative IPC: 1.50976 (Simulation time: 1 hr 49 min 7 sec) 
 Total Blocks : 196608 Invalid Blocks : 14 Valid Blocks : 196594
 Total Tags : 491520 Threshold : 12288 Invalid Tags : 196622 Pr0 Tags : 98304 Pr1 Tags : 196594 num_pr0 : 12288
 SAE Count : 0
 Inter-Core Inteference in Data Store : 1504452
Heartbeat CPU 4 instructions: 20000000 cycles: 13251137 heartbeat IPC: 1.06527 cumulative IPC: 1.5093 (Simulation time: 1 hr 49 min 8 sec) 
 Total Blocks : 196608 Invalid Blocks : 14 Valid Blocks : 196594
 Total Tags : 491520 Threshold : 12288 Invalid Tags : 196622 Pr0 Tags : 98304 Pr1 Tags : 196594 num_pr0 : 12288
 SAE Count : 0
 Inter-Core Inteference in Data Store : 1504937
Heartbeat CPU 5 instructions: 20000000 cycles: 13252974 heartbeat IPC: 1.06506 cumulative IPC: 1.5091 (Simulation time: 1 hr 49 min 9 sec) 
 Total Blocks : 196608 Invalid Blocks : 14 Valid Blocks : 196594
 Total Tags : 491520 Threshold : 12288 Invalid Tags : 196622 Pr0 Tags : 98304 Pr1 Tags : 196594 num_pr0 : 12288
 SAE Count : 0
 Inter-Core Inteference in Data Store : 1505140
Heartbeat CPU 6 instructions: 20000000 cycles: 13255794 heartbeat IPC: 1.06474 cumulative IPC: 1.50877 (Simulation time: 1 hr 49 min 9 sec) 
 Total Blocks : 196608 Invalid Blocks : 14 Valid Blocks : 196594
 Total Tags : 491520 Threshold : 12288 Invalid Tags : 196622 Pr0 Tags : 98304 Pr1 Tags : 196594 num_pr0 : 12288
 SAE Count : 0
 Inter-Core Inteference in Data Store : 1505450
Heartbeat CPU 7 instructions: 20000000 cycles: 13258891 heartbeat IPC: 1.06439 cumulative IPC: 1.50842 (Simulation time: 1 hr 49 min 10 sec) 
 Total Blocks : 196608 Invalid Blocks : 14 Valid Blocks : 196594
 Total Tags : 491520 Threshold : 12288 Invalid Tags : 196622 Pr0 Tags : 98304 Pr1 Tags : 196594 num_pr0 : 12288
 SAE Count : 0
 Inter-Core Inteference in Data Store : 1505828
Heartbeat CPU 0 instructions: 30000000 cycles: 24119878 heartbeat IPC: 0.918889 cumulative IPC: 1.24379 (Simulation time: 3 hr 16 min 58 sec) 
 Total Blocks : 196608 Invalid Blocks : 0 Valid Blocks : 196608
 Total Tags : 491520 Threshold : 12288 Invalid Tags : 196608 Pr0 Tags : 98304 Pr1 Tags : 196608 num_pr0 : 12288
 SAE Count : 0
 Inter-Core Inteference in Data Store : 6386767
Heartbeat CPU 1 instructions: 30000000 cycles: 24147841 heartbeat IPC: 0.91688 cumulative IPC: 1.24235 (Simulation time: 3 hr 17 min 18 sec) 
 Total Blocks : 196608 Invalid Blocks : 0 Valid Blocks : 196608
 Total Tags : 491520 Threshold : 12288 Invalid Tags : 196608 Pr0 Tags : 98304 Pr1 Tags : 196608 num_pr0 : 12288
 SAE Count : 0
 Inter-Core Inteference in Data Store : 6413527
Heartbeat CPU 2 instructions: 30000000 cycles: 24169248 heartbeat IPC: 0.915463 cumulative IPC: 1.24125 (Simulation time: 3 hr 17 min 35 sec) 
 Total Blocks : 196608 Invalid Blocks : 0 Valid Blocks : 196608
 Total Tags : 491520 Threshold : 12288 Invalid Tags : 196608 Pr0 Tags : 98304 Pr1 Tags : 196608 num_pr0 : 12288
 SAE Count : 0
 Inter-Core Inteference in Data Store : 6434043
Heartbeat CPU 3 instructions: 30000000 cycles: 24188007 heartbeat IPC: 0.914002 cumulative IPC: 1.24028 (Simulation time: 3 hr 17 min 49 sec) 
 Total Blocks : 196608 Invalid Blocks : 0 Valid Blocks : 196608
 Total Tags : 491520 Threshold : 12288 Invalid Tags : 196608 Pr0 Tags : 98304 Pr1 Tags : 196608 num_pr0 : 12288
 SAE Count : 0
 Inter-Core Inteference in Data Store : 6452121
Heartbeat CPU 4 instructions: 30000000 cycles: 24209167 heartbeat IPC: 0.912573 cumulative IPC: 1.2392 (Simulation time: 3 hr 18 min 6 sec) 
 Total Blocks : 196608 Invalid Blocks : 0 Valid Blocks : 196608
 Total Tags : 491520 Threshold : 12288 Invalid Tags : 196608 Pr0 Tags : 98304 Pr1 Tags : 196608 num_pr0 : 12288
 SAE Count : 0
 Inter-Core Inteference in Data Store : 6472944
Heartbeat CPU 5 instructions: 30000000 cycles: 24226356 heartbeat IPC: 0.911296 cumulative IPC: 1.23832 (Simulation time: 3 hr 18 min 20 sec) 
 Total Blocks : 196608 Invalid Blocks : 0 Valid Blocks : 196608
 Total Tags : 491520 Threshold : 12288 Invalid Tags : 196608 Pr0 Tags : 98304 Pr1 Tags : 196608 num_pr0 : 12288
 SAE Count : 0
 Inter-Core Inteference in Data Store : 6490355
Heartbeat CPU 6 instructions: 30000000 cycles: 24244060 heartbeat IPC: 0.910062 cumulative IPC: 1.23742 (Simulation time: 3 hr 18 min 34 sec) 
 Total Blocks : 196608 Invalid Blocks : 0 Valid Blocks : 196608
 Total Tags : 491520 Threshold : 12288 Invalid Tags : 196608 Pr0 Tags : 98304 Pr1 Tags : 196608 num_pr0 : 12288
 SAE Count : 0
 Inter-Core Inteference in Data Store : 6508236
Heartbeat CPU 7 instructions: 30000000 cycles: 24264187 heartbeat IPC: 0.908653 cumulative IPC: 1.23639 (Simulation time: 3 hr 18 min 47 sec) 
 Total Blocks : 196608 Invalid Blocks : 0 Valid Blocks : 196608
 Total Tags : 491520 Threshold : 12288 Invalid Tags : 196608 Pr0 Tags : 98304 Pr1 Tags : 196608 num_pr0 : 12288
 SAE Count : 0
 Inter-Core Inteference in Data Store : 6528758
Heartbeat CPU 0 instructions: 40000001 cycles: 36644674 heartbeat IPC: 0.798416 cumulative IPC: 1.09156 (Simulation time: 5 hr 28 min 15 sec) 
 Total Blocks : 196608 Invalid Blocks : 0 Valid Blocks : 196608
 Total Tags : 491520 Threshold : 12288 Invalid Tags : 196608 Pr0 Tags : 98304 Pr1 Tags : 196608 num_pr0 : 12288
 SAE Count : 0
 Inter-Core Inteference in Data Store : 18987493
Heartbeat CPU 1 instructions: 40000001 cycles: 36730395 heartbeat IPC: 0.794751 cumulative IPC: 1.08902 (Simulation time: 5 hr 29 min 14 sec) 
 Total Blocks : 196608 Invalid Blocks : 0 Valid Blocks : 196608
 Total Tags : 491520 Threshold : 12288 Invalid Tags : 196608 Pr0 Tags : 98304 Pr1 Tags : 196608 num_pr0 : 12288
 SAE Count : 0
 Inter-Core Inteference in Data Store : 19064886
Heartbeat CPU 2 instructions: 40000001 cycles: 36801513 heartbeat IPC: 0.791624 cumulative IPC: 1.08691 (Simulation time: 5 hr 30 min 1 sec) 
 Total Blocks : 196608 Invalid Blocks : 0 Valid Blocks : 196608
 Total Tags : 491520 Threshold : 12288 Invalid Tags : 196608 Pr0 Tags : 98304 Pr1 Tags : 196608 num_pr0 : 12288
 SAE Count : 0
 Inter-Core Inteference in Data Store : 19126340
Heartbeat CPU 3 instructions: 40000001 cycles: 36865320 heartbeat IPC: 0.788811 cumulative IPC: 1.08503 (Simulation time: 5 hr 30 min 42 sec) 
 Total Blocks : 196608 Invalid Blocks : 0 Valid Blocks : 196608
 Total Tags : 491520 Threshold : 12288 Invalid Tags : 196608 Pr0 Tags : 98304 Pr1 Tags : 196608 num_pr0 : 12288
 SAE Count : 0
 Inter-Core Inteference in Data Store : 19183311
Heartbeat CPU 4 instructions: 40000001 cycles: 36929838 heartbeat IPC: 0.786122 cumulative IPC: 1.08314 (Simulation time: 5 hr 31 min 26 sec) 
 Total Blocks : 196608 Invalid Blocks : 0 Valid Blocks : 196608
 Total Tags : 491520 Threshold : 12288 Invalid Tags : 196608 Pr0 Tags : 98304 Pr1 Tags : 196608 num_pr0 : 12288
 SAE Count : 0
 Inter-Core Inteference in Data Store : 19244452
Heartbeat CPU 5 instructions: 40000001 cycles: 36987110 heartbeat IPC: 0.783653 cumulative IPC: 1.08146 (Simulation time: 5 hr 32 min 5 sec) 
 Total Blocks : 196608 Invalid Blocks : 0 Valid Blocks : 196608
 Total Tags : 491520 Threshold : 12288 Invalid Tags : 196608 Pr0 Tags : 98304 Pr1 Tags : 196608 num_pr0 : 12288
 SAE Count : 0
 Inter-Core Inteference in Data Store : 19300359
Heartbeat CPU 6 instructions: 40000001 cycles: 37046141 heartbeat IPC: 0.781123 cumulative IPC: 1.07973 (Simulation time: 5 hr 32 min 50 sec) 
 Total Blocks : 196608 Invalid Blocks : 0 Valid Blocks : 196608
 Total Tags : 491520 Threshold : 12288 Invalid Tags : 196608 Pr0 Tags : 98304 Pr1 Tags : 196608 num_pr0 : 12288
 SAE Count : 0
 Inter-Core Inteference in Data Store : 19359269
Heartbeat CPU 7 instructions: 40000001 cycles: 37104170 heartbeat IPC: 0.778817 cumulative IPC: 1.07805 (Simulation time: 5 hr 33 min 32 sec) 
 Total Blocks : 196608 Invalid Blocks : 0 Valid Blocks : 196608
 Total Tags : 491520 Threshold : 12288 Invalid Tags : 196608 Pr0 Tags : 98304 Pr1 Tags : 196608 num_pr0 : 12288
 SAE Count : 0
 Inter-Core Inteference in Data Store : 19416121
Heartbeat CPU 0 instructions: 50000002 cycles: 49142646 heartbeat IPC: 0.80013 cumulative IPC: 1.01745 (Simulation time: 7 hr 36 min 46 sec) 
 Total Blocks : 196608 Invalid Blocks : 0 Valid Blocks : 196608
 Total Tags : 491520 Threshold : 12288 Invalid Tags : 196608 Pr0 Tags : 98304 Pr1 Tags : 196608 num_pr0 : 12288
 SAE Count : 0
 Inter-Core Inteference in Data Store : 31547414
Heartbeat CPU 1 instructions: 50000002 cycles: 49284610 heartbeat IPC: 0.796545 cumulative IPC: 1.01452 (Simulation time: 7 hr 38 min 9 sec) 
 Total Blocks : 196608 Invalid Blocks : 0 Valid Blocks : 196608
 Total Tags : 491520 Threshold : 12288 Invalid Tags : 196608 Pr0 Tags : 98304 Pr1 Tags : 196608 num_pr0 : 12288
 SAE Count : 0
 Inter-Core Inteference in Data Store : 31693719
Heartbeat CPU 2 instructions: 50000002 cycles: 49405327 heartbeat IPC: 0.793411 cumulative IPC: 1.01204 (Simulation time: 7 hr 39 min 19 sec) 
 Total Blocks : 196608 Invalid Blocks : 0 Valid Blocks : 196608
 Total Tags : 491520 Threshold : 12288 Invalid Tags : 196608 Pr0 Tags : 98304 Pr1 Tags : 196608 num_pr0 : 12288
 SAE Count : 0
 Inter-Core Inteference in Data Store : 31818492
Heartbeat CPU 3 instructions: 50000002 cycles: 49511612 heartbeat IPC: 0.790746 cumulative IPC: 1.00986 (Simulation time: 7 hr 40 min 23 sec) 
 Total Blocks : 196608 Invalid Blocks : 0 Valid Blocks : 196608
 Total Tags : 491520 Threshold : 12288 Invalid Tags : 196608 Pr0 Tags : 98304 Pr1 Tags : 196608 num_pr0 : 12288
 SAE Count : 0
 Inter-Core Inteference in Data Store : 31927027
Heartbeat CPU 4 instructions: 50000002 cycles: 49619156 heartbeat IPC: 0.788064 cumulative IPC: 1.00768 (Simulation time: 7 hr 41 min 29 sec) 
 Total Blocks : 196608 Invalid Blocks : 0 Valid Blocks : 196608
 Total Tags : 491520 Threshold : 12288 Invalid Tags : 196608 Pr0 Tags : 98304 Pr1 Tags : 196608 num_pr0 : 12288
 SAE Count : 0
 Inter-Core Inteference in Data Store : 32038072
Heartbeat CPU 5 instructions: 50000002 cycles: 49719097 heartbeat IPC: 0.785423 cumulative IPC: 1.00565 (Simulation time: 7 hr 42 min 31 sec) 
 Total Blocks : 196608 Invalid Blocks : 0 Valid Blocks : 196608
 Total Tags : 491520 Threshold : 12288 Invalid Tags : 196608 Pr0 Tags : 98304 Pr1 Tags : 196608 num_pr0 : 12288
 SAE Count : 0
 Inter-Core Inteference in Data Store : 32140710
Heartbeat CPU 6 instructions: 50000002 cycles: 49818058 heartbeat IPC: 0.782968 cumulative IPC: 1.00365 (Simulation time: 7 hr 43 min 32 sec) 
 Total Blocks : 196608 Invalid Blocks : 0 Valid Blocks : 196608
 Total Tags : 491520 Threshold : 12288 Invalid Tags : 196608 Pr0 Tags : 98304 Pr1 Tags : 196608 num_pr0 : 12288
 SAE Count : 0
 Inter-Core Inteference in Data Store : 32242086
Heartbeat CPU 7 instructions: 50000002 cycles: 49914345 heartbeat IPC: 0.78063 cumulative IPC: 1.00172 (Simulation time: 7 hr 44 min 34 sec) 
 Total Blocks : 196608 Invalid Blocks : 0 Valid Blocks : 196608
 Total Tags : 491520 Threshold : 12288 Invalid Tags : 196608 Pr0 Tags : 98304 Pr1 Tags : 196608 num_pr0 : 12288
 SAE Count : 0
 Inter-Core Inteference in Data Store : 32337166
Heartbeat CPU 0 instructions: 60000000 cycles: 61368618 heartbeat IPC: 0.817931 cumulative IPC: 0.977698 (Simulation time: 9 hr 39 min 4 sec) 
 Total Blocks : 196608 Invalid Blocks : 0 Valid Blocks : 196608
 Total Tags : 491520 Threshold : 12288 Invalid Tags : 196608 Pr0 Tags : 98304 Pr1 Tags : 196608 num_pr0 : 12288
 SAE Count : 0
 Inter-Core Inteference in Data Store : 43575025
Heartbeat CPU 1 instructions: 60000000 cycles: 61568583 heartbeat IPC: 0.814069 cumulative IPC: 0.974523 (Simulation time: 9 hr 41 min 7 sec) 
 Total Blocks : 196608 Invalid Blocks : 0 Valid Blocks : 196608
 Total Tags : 491520 Threshold : 12288 Invalid Tags : 196608 Pr0 Tags : 98304 Pr1 Tags : 196608 num_pr0 : 12288
 SAE Count : 0
 Inter-Core Inteference in Data Store : 43774151
Heartbeat CPU 2 instructions: 60000000 cycles: 61737646 heartbeat IPC: 0.810877 cumulative IPC: 0.971854 (Simulation time: 9 hr 42 min 44 sec) 
 Total Blocks : 196608 Invalid Blocks : 0 Valid Blocks : 196608
 Total Tags : 491520 Threshold : 12288 Invalid Tags : 196608 Pr0 Tags : 98304 Pr1 Tags : 196608 num_pr0 : 12288
 SAE Count : 0
 Inter-Core Inteference in Data Store : 43945457
Heartbeat CPU 3 instructions: 60000000 cycles: 61886412 heartbeat IPC: 0.808094 cumulative IPC: 0.969518 (Simulation time: 9 hr 44 min 9 sec) 
 Total Blocks : 196608 Invalid Blocks : 0 Valid Blocks : 196608
 Total Tags : 491520 Threshold : 12288 Invalid Tags : 196608 Pr0 Tags : 98304 Pr1 Tags : 196608 num_pr0 : 12288
 SAE Count : 0
 Inter-Core Inteference in Data Store : 44096313
Heartbeat CPU 4 instructions: 60000000 cycles: 62036706 heartbeat IPC: 0.805312 cumulative IPC: 0.967169 (Simulation time: 9 hr 45 min 40 sec) 
 Total Blocks : 196608 Invalid Blocks : 0 Valid Blocks : 196608
 Total Tags : 491520 Threshold : 12288 Invalid Tags : 196608 Pr0 Tags : 98304 Pr1 Tags : 196608 num_pr0 : 12288
 SAE Count : 0
 Inter-Core Inteference in Data Store : 44246962
Heartbeat CPU 5 instructions: 60000000 cycles: 62175543 heartbeat IPC: 0.802797 cumulative IPC: 0.96501 (Simulation time: 9 hr 47 min 4 sec) 
 Total Blocks : 196608 Invalid Blocks : 0 Valid Blocks : 196608
 Total Tags : 491520 Threshold : 12288 Invalid Tags : 196608 Pr0 Tags : 98304 Pr1 Tags : 196608 num_pr0 : 12288
 SAE Count : 0
 Inter-Core Inteference in Data Store : 44385250
Heartbeat CPU 6 instructions: 60000000 cycles: 62311215 heartbeat IPC: 0.800438 cumulative IPC: 0.962909 (Simulation time: 9 hr 48 min 22 sec) 
 Total Blocks : 196608 Invalid Blocks : 0 Valid Blocks : 196608
 Total Tags : 491520 Threshold : 12288 Invalid Tags : 196608 Pr0 Tags : 98304 Pr1 Tags : 196608 num_pr0 : 12288
 SAE Count : 0
 Inter-Core Inteference in Data Store : 44520961
Heartbeat CPU 7 instructions: 60000000 cycles: 62445569 heartbeat IPC: 0.798006 cumulative IPC: 0.960837 (Simulation time: 9 hr 49 min 41 sec) 
 Total Blocks : 196608 Invalid Blocks : 0 Valid Blocks : 196608
 Total Tags : 491520 Threshold : 12288 Invalid Tags : 196608 Pr0 Tags : 98304 Pr1 Tags : 196608 num_pr0 : 12288
 SAE Count : 0
 Inter-Core Inteference in Data Store : 44650828
Heartbeat CPU 0 instructions: 70000001 cycles: 73957408 heartbeat IPC: 0.794358 cumulative IPC: 0.946491 (Simulation time: 11 hr 46 min 59 sec) 
 Total Blocks : 196608 Invalid Blocks : 0 Valid Blocks : 196608
 Total Tags : 491520 Threshold : 12288 Invalid Tags : 196608 Pr0 Tags : 98304 Pr1 Tags : 196608 num_pr0 : 12288
 SAE Count : 0
 Inter-Core Inteference in Data Store : 56263790
Heartbeat CPU 1 instructions: 70000001 cycles: 74214605 heartbeat IPC: 0.790763 cumulative IPC: 0.943211 (Simulation time: 11 hr 49 min 36 sec) 
 Total Blocks : 196608 Invalid Blocks : 0 Valid Blocks : 196608
 Total Tags : 491520 Threshold : 12288 Invalid Tags : 196608 Pr0 Tags : 98304 Pr1 Tags : 196608 num_pr0 : 12288
 SAE Count : 0
 Inter-Core Inteference in Data Store : 56526547
Heartbeat CPU 2 instructions: 70000001 cycles: 74434270 heartbeat IPC: 0.787611 cumulative IPC: 0.940427 (Simulation time: 11 hr 51 min 56 sec) 
 Total Blocks : 196608 Invalid Blocks : 0 Valid Blocks : 196608
 Total Tags : 491520 Threshold : 12288 Invalid Tags : 196608 Pr0 Tags : 98304 Pr1 Tags : 196608 num_pr0 : 12288
 SAE Count : 0
 Inter-Core Inteference in Data Store : 56749870
Heartbeat CPU 3 instructions: 70000001 cycles: 74627866 heartbeat IPC: 0.78484 cumulative IPC: 0.937987 (Simulation time: 11 hr 54 min 2 sec) 
 Total Blocks : 196608 Invalid Blocks : 0 Valid Blocks : 196608
 Total Tags : 491520 Threshold : 12288 Invalid Tags : 196608 Pr0 Tags : 98304 Pr1 Tags : 196608 num_pr0 : 12288
 SAE Count : 0
 Inter-Core Inteference in Data Store : 56946833
Heartbeat CPU 4 instructions: 70000001 cycles: 74822646 heartbeat IPC: 0.782109 cumulative IPC: 0.935546 (Simulation time: 11 hr 55 min 59 sec) 
 Total Blocks : 196608 Invalid Blocks : 0 Valid Blocks : 196608
 Total Tags : 491520 Threshold : 12288 Invalid Tags : 196608 Pr0 Tags : 98304 Pr1 Tags : 196608 num_pr0 : 12288
 SAE Count : 0
 Inter-Core Inteference in Data Store : 57143290
Heartbeat CPU 5 instructions: 70000001 cycles: 74999836 heartbeat IPC: 0.77977 cumulative IPC: 0.933335 (Simulation time: 11 hr 57 min 55 sec) 
 Total Blocks : 196608 Invalid Blocks : 0 Valid Blocks : 196608
 Total Tags : 491520 Threshold : 12288 Invalid Tags : 196608 Pr0 Tags : 98304 Pr1 Tags : 196608 num_pr0 : 12288
 SAE Count : 0
 Inter-Core Inteference in Data Store : 57322887
Heartbeat CPU 6 instructions: 70000001 cycles: 75176425 heartbeat IPC: 0.77729 cumulative IPC: 0.931143 (Simulation time: 11 hr 59 min 43 sec) 
 Total Blocks : 196608 Invalid Blocks : 0 Valid Blocks : 196608
 Total Tags : 491520 Threshold : 12288 Invalid Tags : 196608 Pr0 Tags : 98304 Pr1 Tags : 196608 num_pr0 : 12288
 SAE Count : 0
 Inter-Core Inteference in Data Store : 57499404
Heartbeat CPU 7 instructions: 70000001 cycles: 75347464 heartbeat IPC: 0.77508 cumulative IPC: 0.929029 (Simulation time: 12 hr 1 min 30 sec) 
 Total Blocks : 196608 Invalid Blocks : 0 Valid Blocks : 196608
 Total Tags : 491520 Threshold : 12288 Invalid Tags : 196608 Pr0 Tags : 98304 Pr1 Tags : 196608 num_pr0 : 12288
 SAE Count : 0
 Inter-Core Inteference in Data Store : 57672096
Heartbeat CPU 0 instructions: 80000000 cycles: 86458445 heartbeat IPC: 0.799934 cumulative IPC: 0.9253 (Simulation time: 13 hr 56 min 2 sec) 
 Total Blocks : 196608 Invalid Blocks : 0 Valid Blocks : 196608
 Total Tags : 491520 Threshold : 12288 Invalid Tags : 196608 Pr0 Tags : 98304 Pr1 Tags : 196608 num_pr0 : 12288
 SAE Count : 0
 Inter-Core Inteference in Data Store : 68769714
Heartbeat CPU 1 instructions: 80000000 cycles: 86771657 heartbeat IPC: 0.796365 cumulative IPC: 0.92196 (Simulation time: 13 hr 59 min 9 sec) 
 Total Blocks : 196608 Invalid Blocks : 0 Valid Blocks : 196608
 Total Tags : 491520 Threshold : 12288 Invalid Tags : 196608 Pr0 Tags : 98304 Pr1 Tags : 196608 num_pr0 : 12288
 SAE Count : 0
 Inter-Core Inteference in Data Store : 69083496
Heartbeat CPU 2 instructions: 80000000 cycles: 87043990 heartbeat IPC: 0.793039 cumulative IPC: 0.919075 (Simulation time: 14 hr 2 min 8 sec) 
 Total Blocks : 196608 Invalid Blocks : 0 Valid Blocks : 196608
 Total Tags : 491520 Threshold : 12288 Invalid Tags : 196608 Pr0 Tags : 98304 Pr1 Tags : 196608 num_pr0 : 12288
 SAE Count : 0
 Inter-Core Inteference in Data Store : 69359175
Heartbeat CPU 3 instructions: 80000000 cycles: 87282066 heartbeat IPC: 0.790251 cumulative IPC: 0.916569 (Simulation time: 14 hr 4 min 39 sec) 
 Total Blocks : 196608 Invalid Blocks : 0 Valid Blocks : 196608
 Total Tags : 491520 Threshold : 12288 Invalid Tags : 196608 Pr0 Tags : 98304 Pr1 Tags : 196608 num_pr0 : 12288
 SAE Count : 0
 Inter-Core Inteference in Data Store : 69597164
Heartbeat CPU 4 instructions: 80000000 cycles: 87518018 heartbeat IPC: 0.787689 cumulative IPC: 0.914097 (Simulation time: 14 hr 7 min 7 sec) 
 Total Blocks : 196608 Invalid Blocks : 0 Valid Blocks : 196608
 Total Tags : 491520 Threshold : 12288 Invalid Tags : 196608 Pr0 Tags : 98304 Pr1 Tags : 196608 num_pr0 : 12288
 SAE Count : 0
 Inter-Core Inteference in Data Store : 69835281
Heartbeat CPU 5 instructions: 80000000 cycles: 87737342 heartbeat IPC: 0.785083 cumulative IPC: 0.911812 (Simulation time: 14 hr 9 min 27 sec) 
 Total Blocks : 196608 Invalid Blocks : 0 Valid Blocks : 196608
 Total Tags : 491520 Threshold : 12288 Invalid Tags : 196608 Pr0 Tags : 98304 Pr1 Tags : 196608 num_pr0 : 12288
 SAE Count : 0
 Inter-Core Inteference in Data Store : 70057217
Heartbeat CPU 6 instructions: 80000000 cycles: 87950360 heartbeat IPC: 0.782844 cumulative IPC: 0.909604 (Simulation time: 14 hr 11 min 43 sec) 
 Total Blocks : 196608 Invalid Blocks : 0 Valid Blocks : 196608
 Total Tags : 491520 Threshold : 12288 Invalid Tags : 196608 Pr0 Tags : 98304 Pr1 Tags : 196608 num_pr0 : 12288
 SAE Count : 0
 Inter-Core Inteference in Data Store : 70262952
Heartbeat CPU 7 instructions: 80000000 cycles: 88159499 heartbeat IPC: 0.780516 cumulative IPC: 0.907446 (Simulation time: 14 hr 13 min 49 sec) 
 Total Blocks : 196608 Invalid Blocks : 0 Valid Blocks : 196608
 Total Tags : 491520 Threshold : 12288 Invalid Tags : 196608 Pr0 Tags : 98304 Pr1 Tags : 196608 num_pr0 : 12288
 SAE Count : 0
 Inter-Core Inteference in Data Store : 70466387
Heartbeat CPU 0 instructions: 90000000 cycles: 98846230 heartbeat IPC: 0.807247 cumulative IPC: 0.910505 (Simulation time: 15 hr 59 min 31 sec) 
 Total Blocks : 196608 Invalid Blocks : 0 Valid Blocks : 196608
 Total Tags : 491520 Threshold : 12288 Invalid Tags : 196608 Pr0 Tags : 98304 Pr1 Tags : 196608 num_pr0 : 12288
 SAE Count : 0
 Inter-Core Inteference in Data Store : 81013555
Heartbeat CPU 1 instructions: 90000000 cycles: 99214543 heartbeat IPC: 0.803672 cumulative IPC: 0.907125 (Simulation time: 16 hr 3 min 1 sec) 
 Total Blocks : 196608 Invalid Blocks : 0 Valid Blocks : 196608
 Total Tags : 491520 Threshold : 12288 Invalid Tags : 196608 Pr0 Tags : 98304 Pr1 Tags : 196608 num_pr0 : 12288
 SAE Count : 0
 Inter-Core Inteference in Data Store : 81375834
Heartbeat CPU 2 instructions: 90000000 cycles: 99538195 heartbeat IPC: 0.800371 cumulative IPC: 0.904176 (Simulation time: 16 hr 6 min 6 sec) 
 Total Blocks : 196608 Invalid Blocks : 0 Valid Blocks : 196608
 Total Tags : 491520 Threshold : 12288 Invalid Tags : 196608 Pr0 Tags : 98304 Pr1 Tags : 196608 num_pr0 : 12288
 SAE Count : 0
 Inter-Core Inteference in Data Store : 81696293
Heartbeat CPU 3 instructions: 90000000 cycles: 99820431 heartbeat IPC: 0.797552 cumulative IPC: 0.901619 (Simulation time: 16 hr 8 min 43 sec) 
 Total Blocks : 196608 Invalid Blocks : 0 Valid Blocks : 196608
 Total Tags : 491520 Threshold : 12288 Invalid Tags : 196608 Pr0 Tags : 98304 Pr1 Tags : 196608 num_pr0 : 12288
 SAE Count : 0
 Inter-Core Inteference in Data Store : 81978275
Heartbeat CPU 4 instructions: 90000000 cycles: 100099901 heartbeat IPC: 0.794794 cumulative IPC: 0.899102 (Simulation time: 16 hr 11 min 14 sec) 
 Total Blocks : 196608 Invalid Blocks : 0 Valid Blocks : 196608
 Total Tags : 491520 Threshold : 12288 Invalid Tags : 196608 Pr0 Tags : 98304 Pr1 Tags : 196608 num_pr0 : 12288
 SAE Count : 0
 Inter-Core Inteference in Data Store : 82259500
Heartbeat CPU 5 instructions: 90000000 cycles: 100356383 heartbeat IPC: 0.792453 cumulative IPC: 0.896804 (Simulation time: 16 hr 13 min 26 sec) 
 Total Blocks : 196608 Invalid Blocks : 0 Valid Blocks : 196608
 Total Tags : 491520 Threshold : 12288 Invalid Tags : 196608 Pr0 Tags : 98304 Pr1 Tags : 196608 num_pr0 : 12288
 SAE Count : 0
 Inter-Core Inteference in Data Store : 82524034
Heartbeat CPU 6 instructions: 90000000 cycles: 100611140 heartbeat IPC: 0.789841 cumulative IPC: 0.894533 (Simulation time: 16 hr 15 min 47 sec) 
 Total Blocks : 196608 Invalid Blocks : 0 Valid Blocks : 196608
 Total Tags : 491520 Threshold : 12288 Invalid Tags : 196608 Pr0 Tags : 98304 Pr1 Tags : 196608 num_pr0 : 12288
 SAE Count : 0
 Inter-Core Inteference in Data Store : 82782632
Heartbeat CPU 7 instructions: 90000000 cycles: 100857909 heartbeat IPC: 0.7875 cumulative IPC: 0.892344 (Simulation time: 16 hr 18 min 1 sec) 
 Total Blocks : 196608 Invalid Blocks : 0 Valid Blocks : 196608
 Total Tags : 491520 Threshold : 12288 Invalid Tags : 196608 Pr0 Tags : 98304 Pr1 Tags : 196608 num_pr0 : 12288
 SAE Count : 0
 Inter-Core Inteference in Data Store : 83033312
Heartbeat CPU 0 instructions: 100000000 cycles: 111299492 heartbeat IPC: 0.803002 cumulative IPC: 0.898477 (Simulation time: 17 hr 53 min 37 sec) 
 Total Blocks : 196608 Invalid Blocks : 0 Valid Blocks : 196608
 Total Tags : 491520 Threshold : 12288 Invalid Tags : 196608 Pr0 Tags : 98304 Pr1 Tags : 196608 num_pr0 : 12288
 SAE Count : 0
 Inter-Core Inteference in Data Store : 93468288
Heartbeat CPU 1 instructions: 100000000 cycles: 111726652 heartbeat IPC: 0.799226 cumulative IPC: 0.895042 (Simulation time: 17 hr 57 min 42 sec) 
 Total Blocks : 196608 Invalid Blocks : 0 Valid Blocks : 196608
 Total Tags : 491520 Threshold : 12288 Invalid Tags : 196608 Pr0 Tags : 98304 Pr1 Tags : 196608 num_pr0 : 12288
 SAE Count : 0
 Inter-Core Inteference in Data Store : 93890029
FILL
Heartbeat CPU 2 instructions: 100000000 cycles: 112099609 heartbeat IPC: 0.796089 cumulative IPC: 0.892064 (Simulation time: 18 hr 1 min 6 sec) 
 Total Blocks : 196608 Invalid Blocks : 0 Valid Blocks : 196608
 Total Tags : 491520 Threshold : 12288 Invalid Tags : 196608 Pr0 Tags : 98304 Pr1 Tags : 196608 num_pr0 : 12288
 SAE Count : 0
 Inter-Core Inteference in Data Store : 94258939
Heartbeat CPU 3 instructions: 100000000 cycles: 112428004 heartbeat IPC: 0.793174 cumulative IPC: 0.889458 (Simulation time: 18 hr 4 min 12 sec) 
 Total Blocks : 196608 Invalid Blocks : 0 Valid Blocks : 196608
 Total Tags : 491520 Threshold : 12288 Invalid Tags : 196608 Pr0 Tags : 98304 Pr1 Tags : 196608 num_pr0 : 12288
 SAE Count : 0
 Inter-Core Inteference in Data Store : 94582971
Heartbeat CPU 4 instructions: 100000000 cycles: 112749698 heartbeat IPC: 0.790527 cumulative IPC: 0.88692 (Simulation time: 18 hr 7 min 6 sec) 
 Total Blocks : 196608 Invalid Blocks : 0 Valid Blocks : 196608
 Total Tags : 491520 Threshold : 12288 Invalid Tags : 196608 Pr0 Tags : 98304 Pr1 Tags : 196608 num_pr0 : 12288
 SAE Count : 0
 Inter-Core Inteference in Data Store : 94902281
Heartbeat CPU 5 instructions: 100000000 cycles: 113047450 heartbeat IPC: 0.787956 cumulative IPC: 0.884584 (Simulation time: 18 hr 9 min 43 sec) 
 Total Blocks : 196608 Invalid Blocks : 0 Valid Blocks : 196608
 Total Tags : 491520 Threshold : 12288 Invalid Tags : 196608 Pr0 Tags : 98304 Pr1 Tags : 196608 num_pr0 : 12288
 SAE Count : 0
 Inter-Core Inteference in Data Store : 95202206
Heartbeat CPU 6 instructions: 100000000 cycles: 113342686 heartbeat IPC: 0.785451 cumulative IPC: 0.88228 (Simulation time: 18 hr 12 min 19 sec) 
 Total Blocks : 196608 Invalid Blocks : 0 Valid Blocks : 196608
 Total Tags : 491520 Threshold : 12288 Invalid Tags : 196608 Pr0 Tags : 98304 Pr1 Tags : 196608 num_pr0 : 12288
 SAE Count : 0
 Inter-Core Inteference in Data Store : 95497158
Heartbeat CPU 7 instructions: 100000000 cycles: 113628058 heartbeat IPC: 0.783076 cumulative IPC: 0.880064 (Simulation time: 18 hr 14 min 56 sec) 
 Total Blocks : 196608 Invalid Blocks : 0 Valid Blocks : 196608
 Total Tags : 491520 Threshold : 12288 Invalid Tags : 196608 Pr0 Tags : 98304 Pr1 Tags : 196608 num_pr0 : 12288
 SAE Count : 0
 Inter-Core Inteference in Data Store : 95781422
Heartbeat CPU 0 instructions: 110000000 cycles: 123822143 heartbeat IPC: 0.798553 cumulative IPC: 0.888371 (Simulation time: 19 hr 43 min 28 sec) 
 Total Blocks : 196608 Invalid Blocks : 0 Valid Blocks : 196608
 Total Tags : 491520 Threshold : 12288 Invalid Tags : 196608 Pr0 Tags : 98304 Pr1 Tags : 196608 num_pr0 : 12288
 SAE Count : 0
 Inter-Core Inteference in Data Store : 105961195
Heartbeat CPU 1 instructions: 110000000 cycles: 124307983 heartbeat IPC: 0.794828 cumulative IPC: 0.884899 (Simulation time: 19 hr 47 min 49 sec) 
 Total Blocks : 196608 Invalid Blocks : 0 Valid Blocks : 196608
 Total Tags : 491520 Threshold : 12288 Invalid Tags : 196608 Pr0 Tags : 98304 Pr1 Tags : 196608 num_pr0 : 12288
 SAE Count : 0
 Inter-Core Inteference in Data Store : 106453256
Heartbeat CPU 2 instructions: 110000000 cycles: 124730678 heartbeat IPC: 0.791699 cumulative IPC: 0.8819 (Simulation time: 19 hr 51 min 28 sec) 
 Total Blocks : 196608 Invalid Blocks : 0 Valid Blocks : 196608
 Total Tags : 491520 Threshold : 12288 Invalid Tags : 196608 Pr0 Tags : 98304 Pr1 Tags : 196608 num_pr0 : 12288
 SAE Count : 0
 Inter-Core Inteference in Data Store : 106875061
Heartbeat CPU 3 instructions: 110000000 cycles: 125104948 heartbeat IPC: 0.788834 cumulative IPC: 0.879262 (Simulation time: 19 hr 54 min 45 sec) 
 Total Blocks : 196608 Invalid Blocks : 0 Valid Blocks : 196608
 Total Tags : 491520 Threshold : 12288 Invalid Tags : 196608 Pr0 Tags : 98304 Pr1 Tags : 196608 num_pr0 : 12288
 SAE Count : 0
 Inter-Core Inteference in Data Store : 107247445
Heartbeat CPU 4 instructions: 110000000 cycles: 125470058 heartbeat IPC: 0.786141 cumulative IPC: 0.876703 (Simulation time: 19 hr 57 min 57 sec) 
 Total Blocks : 196608 Invalid Blocks : 0 Valid Blocks : 196608
 Total Tags : 491520 Threshold : 12288 Invalid Tags : 196608 Pr0 Tags : 98304 Pr1 Tags : 196608 num_pr0 : 12288
 SAE Count : 0
 Inter-Core Inteference in Data Store : 107611151
Heartbeat CPU 5 instructions: 110000000 cycles: 125808539 heartbeat IPC: 0.783632 cumulative IPC: 0.874344 (Simulation time: 20 hr 0 min 59 sec) 
 Total Blocks : 196608 Invalid Blocks : 0 Valid Blocks : 196608
 Total Tags : 491520 Threshold : 12288 Invalid Tags : 196608 Pr0 Tags : 98304 Pr1 Tags : 196608 num_pr0 : 12288
 SAE Count : 0
 Inter-Core Inteference in Data Store : 107943663
Heartbeat CPU 6 instructions: 110000000 cycles: 126144702 heartbeat IPC: 0.781127 cumulative IPC: 0.872014 (Simulation time: 20 hr 3 min 54 sec) 
 Total Blocks : 196608 Invalid Blocks : 0 Valid Blocks : 196608
 Total Tags : 491520 Threshold : 12288 Invalid Tags : 196608 Pr0 Tags : 98304 Pr1 Tags : 196608 num_pr0 : 12288
 SAE Count : 0
 Inter-Core Inteference in Data Store : 108280456
Heartbeat CPU 7 instructions: 110000000 cycles: 126466855 heartbeat IPC: 0.778889 cumulative IPC: 0.869793 (Simulation time: 20 hr 6 min 37 sec) 
 Total Blocks : 196608 Invalid Blocks : 0 Valid Blocks : 196608
 Total Tags : 491520 Threshold : 12288 Invalid Tags : 196608 Pr0 Tags : 98304 Pr1 Tags : 196608 num_pr0 : 12288
 SAE Count : 0
 Inter-Core Inteference in Data Store : 108599786
Heartbeat CPU 0 instructions: 120000001 cycles: 136342658 heartbeat IPC: 0.798689 cumulative IPC: 0.880135 (Simulation time: 21 hr 28 min 49 sec) 
 Total Blocks : 196608 Invalid Blocks : 0 Valid Blocks : 196608
 Total Tags : 491520 Threshold : 12288 Invalid Tags : 196608 Pr0 Tags : 98304 Pr1 Tags : 196608 num_pr0 : 12288
 SAE Count : 0
 Inter-Core Inteference in Data Store : 118592516
Heartbeat CPU 1 instructions: 120000001 cycles: 136883097 heartbeat IPC: 0.795222 cumulative IPC: 0.87666 (Simulation time: 21 hr 33 min 32 sec) 
 Total Blocks : 196608 Invalid Blocks : 0 Valid Blocks : 196608
 Total Tags : 491520 Threshold : 12288 Invalid Tags : 196608 Pr0 Tags : 98304 Pr1 Tags : 196608 num_pr0 : 12288
 SAE Count : 0
 Inter-Core Inteference in Data Store : 119118791
Heartbeat CPU 2 instructions: 120000001 cycles: 137354482 heartbeat IPC: 0.792154 cumulative IPC: 0.873652 (Simulation time: 21 hr 37 min 35 sec) 
 Total Blocks : 196608 Invalid Blocks : 0 Valid Blocks : 196608
 Total Tags : 491520 Threshold : 12288 Invalid Tags : 196608 Pr0 Tags : 98304 Pr1 Tags : 196608 num_pr0 : 12288
 SAE Count : 0
 Inter-Core Inteference in Data Store : 119576562
Heartbeat CPU 3 instructions: 120000001 cycles: 137773271 heartbeat IPC: 0.789371 cumulative IPC: 0.870996 (Simulation time: 21 hr 41 min 23 sec) 
 Total Blocks : 196608 Invalid Blocks : 0 Valid Blocks : 196608
 Total Tags : 491520 Threshold : 12288 Invalid Tags : 196608 Pr0 Tags : 98304 Pr1 Tags : 196608 num_pr0 : 12288
 SAE Count : 0
 Inter-Core Inteference in Data Store : 119983062
Heartbeat CPU 4 instructions: 120000001 cycles: 138178575 heartbeat IPC: 0.786874 cumulative IPC: 0.868441 (Simulation time: 21 hr 44 min 55 sec) 
 Total Blocks : 196608 Invalid Blocks : 0 Valid Blocks : 196608
 Total Tags : 491520 Threshold : 12288 Invalid Tags : 196608 Pr0 Tags : 98304 Pr1 Tags : 196608 num_pr0 : 12288
 SAE Count : 0
 Inter-Core Inteference in Data Store : 120370699
Heartbeat CPU 5 instructions: 120000001 cycles: 138559006 heartbeat IPC: 0.784285 cumulative IPC: 0.866057 (Simulation time: 21 hr 48 min 9 sec) 
 Total Blocks : 196608 Invalid Blocks : 0 Valid Blocks : 196608
 Total Tags : 491520 Threshold : 12288 Invalid Tags : 196608 Pr0 Tags : 98304 Pr1 Tags : 196608 num_pr0 : 12288
 SAE Count : 0
 Inter-Core Inteference in Data Store : 120741786
Heartbeat CPU 6 instructions: 120000001 cycles: 138933167 heartbeat IPC: 0.781955 cumulative IPC: 0.863725 (Simulation time: 21 hr 51 min 27 sec) 
 Total Blocks : 196608 Invalid Blocks : 0 Valid Blocks : 196608
 Total Tags : 491520 Threshold : 12288 Invalid Tags : 196608 Pr0 Tags : 98304 Pr1 Tags : 196608 num_pr0 : 12288
 SAE Count : 0
 Inter-Core Inteference in Data Store : 121102897
Heartbeat CPU 7 instructions: 120000001 cycles: 139293263 heartbeat IPC: 0.779642 cumulative IPC: 0.861492 (Simulation time: 21 hr 54 min 30 sec) 
 Total Blocks : 196608 Invalid Blocks : 0 Valid Blocks : 196608
 Total Tags : 491520 Threshold : 12288 Invalid Tags : 196608 Pr0 Tags : 98304 Pr1 Tags : 196608 num_pr0 : 12288
 SAE Count : 0
 Inter-Core Inteference in Data Store : 121451960
Heartbeat CPU 0 instructions: 130000002 cycles: 148786953 heartbeat IPC: 0.803581 cumulative IPC: 0.873733 (Simulation time: 23 hr 15 min 57 sec) 
 Total Blocks : 196608 Invalid Blocks : 0 Valid Blocks : 196608
 Total Tags : 491520 Threshold : 12288 Invalid Tags : 196608 Pr0 Tags : 98304 Pr1 Tags : 196608 num_pr0 : 12288
 SAE Count : 0
 Inter-Core Inteference in Data Store : 130913861
Heartbeat CPU 1 instructions: 130000002 cycles: 149385564 heartbeat IPC: 0.799842 cumulative IPC: 0.870231 (Simulation time: 23 hr 21 min 6 sec) 
 Total Blocks : 196608 Invalid Blocks : 0 Valid Blocks : 196608
 Total Tags : 491520 Threshold : 12288 Invalid Tags : 196608 Pr0 Tags : 98304 Pr1 Tags : 196608 num_pr0 : 12288
 SAE Count : 0
 Inter-Core Inteference in Data Store : 131499821
Heartbeat CPU 2 instructions: 130000002 cycles: 149904319 heartbeat IPC: 0.796823 cumulative IPC: 0.86722 (Simulation time: 23 hr 25 min 34 sec) 
 Total Blocks : 196608 Invalid Blocks : 0 Valid Blocks : 196608
 Total Tags : 491520 Threshold : 12288 Invalid Tags : 196608 Pr0 Tags : 98304 Pr1 Tags : 196608 num_pr0 : 12288
 SAE Count : 0
 Inter-Core Inteference in Data Store : 132008667
Heartbeat CPU 3 instructions: 130000002 cycles: 150370314 heartbeat IPC: 0.793837 cumulative IPC: 0.864532 (Simulation time: 23 hr 29 min 34 sec) 
 Total Blocks : 196608 Invalid Blocks : 0 Valid Blocks : 196608
 Total Tags : 491520 Threshold : 12288 Invalid Tags : 196608 Pr0 Tags : 98304 Pr1 Tags : 196608 num_pr0 : 12288
 SAE Count : 0
 Inter-Core Inteference in Data Store : 132473706
Heartbeat CPU 4 instructions: 130000002 cycles: 150816261 heartbeat IPC: 0.791284 cumulative IPC: 0.861976 (Simulation time: 23 hr 33 min 20 sec) 
 Total Blocks : 196608 Invalid Blocks : 0 Valid Blocks : 196608
 Total Tags : 491520 Threshold : 12288 Invalid Tags : 196608 Pr0 Tags : 98304 Pr1 Tags : 196608 num_pr0 : 12288
 SAE Count : 0
 Inter-Core Inteference in Data Store : 132913002
Heartbeat CPU 5 instructions: 130000002 cycles: 151238753 heartbeat IPC: 0.788659 cumulative IPC: 0.859568 (Simulation time: 23 hr 36 min 53 sec) 
 Total Blocks : 196608 Invalid Blocks : 0 Valid Blocks : 196608
 Total Tags : 491520 Threshold : 12288 Invalid Tags : 196608 Pr0 Tags : 98304 Pr1 Tags : 196608 num_pr0 : 12288
 SAE Count : 0
 Inter-Core Inteference in Data Store : 133332748
Heartbeat CPU 6 instructions: 130000002 cycles: 151650510 heartbeat IPC: 0.786328 cumulative IPC: 0.857234 (Simulation time: 23 hr 40 min 12 sec) 
 Total Blocks : 196608 Invalid Blocks : 0 Valid Blocks : 196608
 Total Tags : 491520 Threshold : 12288 Invalid Tags : 196608 Pr0 Tags : 98304 Pr1 Tags : 196608 num_pr0 : 12288
 SAE Count : 0
 Inter-Core Inteference in Data Store : 133743140
Heartbeat CPU 7 instructions: 130000002 cycles: 152047930 heartbeat IPC: 0.784027 cumulative IPC: 0.854994 (Simulation time: 23 hr 43 min 28 sec) 
 Total Blocks : 196608 Invalid Blocks : 0 Valid Blocks : 196608
 Total Tags : 491520 Threshold : 12288 Invalid Tags : 196608 Pr0 Tags : 98304 Pr1 Tags : 196608 num_pr0 : 12288
 SAE Count : 0
 Inter-Core Inteference in Data Store : 134137233
Heartbeat CPU 0 instructions: 140000000 cycles: 161248991 heartbeat IPC: 0.802437 cumulative IPC: 0.868222 (Simulation time: 24 hr 57 min 29 sec) 
 Total Blocks : 196608 Invalid Blocks : 0 Valid Blocks : 196608
 Total Tags : 491520 Threshold : 12288 Invalid Tags : 196608 Pr0 Tags : 98304 Pr1 Tags : 196608 num_pr0 : 12288
 SAE Count : 0
 Inter-Core Inteference in Data Store : 143247310
Heartbeat CPU 1 instructions: 140000000 cycles: 161903089 heartbeat IPC: 0.79888 cumulative IPC: 0.864715 (Simulation time: 25 hr 2 min 37 sec) 
 Total Blocks : 196608 Invalid Blocks : 0 Valid Blocks : 196608
 Total Tags : 491520 Threshold : 12288 Invalid Tags : 196608 Pr0 Tags : 98304 Pr1 Tags : 196608 num_pr0 : 12288
 SAE Count : 0
 Inter-Core Inteference in Data Store : 143920433
Heartbeat CPU 2 instructions: 140000000 cycles: 162469924 heartbeat IPC: 0.795823 cumulative IPC: 0.861698 (Simulation time: 25 hr 7 min 2 sec) 
 Total Blocks : 196608 Invalid Blocks : 0 Valid Blocks : 196608
 Total Tags : 491520 Threshold : 12288 Invalid Tags : 196608 Pr0 Tags : 98304 Pr1 Tags : 196608 num_pr0 : 12288
 SAE Count : 0
 Inter-Core Inteference in Data Store : 144502504
Heartbeat CPU 3 instructions: 140000000 cycles: 162983858 heartbeat IPC: 0.792798 cumulative IPC: 0.858981 (Simulation time: 25 hr 11 min 8 sec) 
 Total Blocks : 196608 Invalid Blocks : 0 Valid Blocks : 196608
 Total Tags : 491520 Threshold : 12288 Invalid Tags : 196608 Pr0 Tags : 98304 Pr1 Tags : 196608 num_pr0 : 12288
 SAE Count : 0
 Inter-Core Inteference in Data Store : 145029303
Heartbeat CPU 4 instructions: 140000000 cycles: 163470176 heartbeat IPC: 0.790269 cumulative IPC: 0.856425 (Simulation time: 25 hr 14 min 57 sec) 
 Total Blocks : 196608 Invalid Blocks : 0 Valid Blocks : 196608
 Total Tags : 491520 Threshold : 12288 Invalid Tags : 196608 Pr0 Tags : 98304 Pr1 Tags : 196608 num_pr0 : 12288
 SAE Count : 0
 Inter-Core Inteference in Data Store : 145526649
Heartbeat CPU 5 instructions: 140000000 cycles: 163934802 heartbeat IPC: 0.787646 cumulative IPC: 0.853998 (Simulation time: 25 hr 18 min 41 sec) 
 Total Blocks : 196608 Invalid Blocks : 0 Valid Blocks : 196608
 Total Tags : 491520 Threshold : 12288 Invalid Tags : 196608 Pr0 Tags : 98304 Pr1 Tags : 196608 num_pr0 : 12288
 SAE Count : 0
 Inter-Core Inteference in Data Store : 146002402
Heartbeat CPU 6 instructions: 140000000 cycles: 164384823 heartbeat IPC: 0.78528 cumulative IPC: 0.85166 (Simulation time: 25 hr 22 min 14 sec) 
 Total Blocks : 196608 Invalid Blocks : 0 Valid Blocks : 196608
 Total Tags : 491520 Threshold : 12288 Invalid Tags : 196608 Pr0 Tags : 98304 Pr1 Tags : 196608 num_pr0 : 12288
 SAE Count : 0
 Inter-Core Inteference in Data Store : 146466720
Heartbeat CPU 7 instructions: 140000000 cycles: 164820963 heartbeat IPC: 0.782899 cumulative IPC: 0.849407 (Simulation time: 25 hr 25 min 46 sec) 
 Total Blocks : 196608 Invalid Blocks : 0 Valid Blocks : 196608
 Total Tags : 491520 Threshold : 12288 Invalid Tags : 196608 Pr0 Tags : 98304 Pr1 Tags : 196608 num_pr0 : 12288
 SAE Count : 0
 Inter-Core Inteference in Data Store : 146911313
Heartbeat CPU 0 instructions: 150000000 cycles: 173747750 heartbeat IPC: 0.800079 cumulative IPC: 0.863321 (Simulation time: 26 hr 38 min 6 sec) 
 Total Blocks : 196608 Invalid Blocks : 0 Valid Blocks : 196608
 Total Tags : 491520 Threshold : 12288 Invalid Tags : 196608 Pr0 Tags : 98304 Pr1 Tags : 196608 num_pr0 : 12288
 SAE Count : 0
 Inter-Core Inteference in Data Store : 155843932
Heartbeat CPU 1 instructions: 150000000 cycles: 174459064 heartbeat IPC: 0.796434 cumulative IPC: 0.859801 (Simulation time: 26 hr 43 min 55 sec) 
 Total Blocks : 196608 Invalid Blocks : 0 Valid Blocks : 196608
 Total Tags : 491520 Threshold : 12288 Invalid Tags : 196608 Pr0 Tags : 98304 Pr1 Tags : 196608 num_pr0 : 12288
 SAE Count : 0
 Inter-Core Inteference in Data Store : 156548792
Heartbeat CPU 2 instructions: 150000000 cycles: 175076293 heartbeat IPC: 0.79325 cumulative IPC: 0.856769 (Simulation time: 26 hr 49 min 1 sec) 
 Total Blocks : 196608 Invalid Blocks : 0 Valid Blocks : 196608
 Total Tags : 491520 Threshold : 12288 Invalid Tags : 196608 Pr0 Tags : 98304 Pr1 Tags : 196608 num_pr0 : 12288
 SAE Count : 0
 Inter-Core Inteference in Data Store : 157154238
Heartbeat CPU 3 instructions: 150000000 cycles: 175634932 heartbeat IPC: 0.790447 cumulative IPC: 0.854044 (Simulation time: 26 hr 53 min 36 sec) 
 Total Blocks : 196608 Invalid Blocks : 0 Valid Blocks : 196608
 Total Tags : 491520 Threshold : 12288 Invalid Tags : 196608 Pr0 Tags : 98304 Pr1 Tags : 196608 num_pr0 : 12288
 SAE Count : 0
 Inter-Core Inteference in Data Store : 157703775
Heartbeat CPU 4 instructions: 150000000 cycles: 176167973 heartbeat IPC: 0.787538 cumulative IPC: 0.85146 (Simulation time: 26 hr 58 min 2 sec) 
 Total Blocks : 196608 Invalid Blocks : 0 Valid Blocks : 196608
 Total Tags : 491520 Threshold : 12288 Invalid Tags : 196608 Pr0 Tags : 98304 Pr1 Tags : 196608 num_pr0 : 12288
 SAE Count : 0
 Inter-Core Inteference in Data Store : 158222136
Heartbeat CPU 5 instructions: 150000000 cycles: 176671621 heartbeat IPC: 0.785125 cumulative IPC: 0.849033 (Simulation time: 27 hr 2 min 9 sec) 
 Total Blocks : 196608 Invalid Blocks : 0 Valid Blocks : 196608
 Total Tags : 491520 Threshold : 12288 Invalid Tags : 196608 Pr0 Tags : 98304 Pr1 Tags : 196608 num_pr0 : 12288
 SAE Count : 0
 Inter-Core Inteference in Data Store : 158712211
Heartbeat CPU 6 instructions: 150000000 cycles: 177158004 heartbeat IPC: 0.78289 cumulative IPC: 0.846702 (Simulation time: 27 hr 6 min 8 sec) 
 Total Blocks : 196608 Invalid Blocks : 0 Valid Blocks : 196608
 Total Tags : 491520 Threshold : 12288 Invalid Tags : 196608 Pr0 Tags : 98304 Pr1 Tags : 196608 num_pr0 : 12288
 SAE Count : 0
 Inter-Core Inteference in Data Store : 159184693
Heartbeat CPU 7 instructions: 150000000 cycles: 177634994 heartbeat IPC: 0.780395 cumulative IPC: 0.844428 (Simulation time: 27 hr 10 min 2 sec) 
 Total Blocks : 196608 Invalid Blocks : 0 Valid Blocks : 196608
 Total Tags : 491520 Threshold : 12288 Invalid Tags : 196608 Pr0 Tags : 98304 Pr1 Tags : 196608 num_pr0 : 12288
 SAE Count : 0
 Inter-Core Inteference in Data Store : 159661078
Heartbeat CPU 0 instructions: 160000000 cycles: 186165152 heartbeat IPC: 0.805321 cumulative IPC: 0.859452 (Simulation time: 28 hr 16 min 2 sec) 
 Total Blocks : 196608 Invalid Blocks : 0 Valid Blocks : 196608
 Total Tags : 491520 Threshold : 12288 Invalid Tags : 196608 Pr0 Tags : 98304 Pr1 Tags : 196608 num_pr0 : 12288
 SAE Count : 0
 Inter-Core Inteference in Data Store : 168173116
Heartbeat CPU 1 instructions: 160000000 cycles: 186929370 heartbeat IPC: 0.801905 cumulative IPC: 0.855938 (Simulation time: 28 hr 21 min 48 sec) 
 Total Blocks : 196608 Invalid Blocks : 0 Valid Blocks : 196608
 Total Tags : 491520 Threshold : 12288 Invalid Tags : 196608 Pr0 Tags : 98304 Pr1 Tags : 196608 num_pr0 : 12288
 SAE Count : 0
 Inter-Core Inteference in Data Store : 168933027
Heartbeat CPU 2 instructions: 160000000 cycles: 187594902 heartbeat IPC: 0.798811 cumulative IPC: 0.852902 (Simulation time: 28 hr 26 min 56 sec) 
 Total Blocks : 196608 Invalid Blocks : 0 Valid Blocks : 196608
 Total Tags : 491520 Threshold : 12288 Invalid Tags : 196608 Pr0 Tags : 98304 Pr1 Tags : 196608 num_pr0 : 12288
 SAE Count : 0
 Inter-Core Inteference in Data Store : 169594167
Heartbeat CPU 3 instructions: 160000000 cycles: 188199607 heartbeat IPC: 0.795882 cumulative IPC: 0.850161 (Simulation time: 28 hr 31 min 37 sec) 
 Total Blocks : 196608 Invalid Blocks : 0 Valid Blocks : 196608
 Total Tags : 491520 Threshold : 12288 Invalid Tags : 196608 Pr0 Tags : 98304 Pr1 Tags : 196608 num_pr0 : 12288
 SAE Count : 0
 Inter-Core Inteference in Data Store : 170193905
Heartbeat CPU 4 instructions: 160000000 cycles: 188773718 heartbeat IPC: 0.793289 cumulative IPC: 0.847576 (Simulation time: 28 hr 36 min 4 sec) 
 Total Blocks : 196608 Invalid Blocks : 0 Valid Blocks : 196608
 Total Tags : 491520 Threshold : 12288 Invalid Tags : 196608 Pr0 Tags : 98304 Pr1 Tags : 196608 num_pr0 : 12288
 SAE Count : 0
 Inter-Core Inteference in Data Store : 170757009
Heartbeat CPU 5 instructions: 160000000 cycles: 189319054 heartbeat IPC: 0.790674 cumulative IPC: 0.845134 (Simulation time: 28 hr 40 min 17 sec) 
 Total Blocks : 196608 Invalid Blocks : 0 Valid Blocks : 196608
 Total Tags : 491520 Threshold : 12288 Invalid Tags : 196608 Pr0 Tags : 98304 Pr1 Tags : 196608 num_pr0 : 12288
 SAE Count : 0
 Inter-Core Inteference in Data Store : 171295264
Heartbeat CPU 6 instructions: 160000000 cycles: 189842177 heartbeat IPC: 0.788384 cumulative IPC: 0.842805 (Simulation time: 28 hr 44 min 22 sec) 
 Total Blocks : 196608 Invalid Blocks : 0 Valid Blocks : 196608
 Total Tags : 491520 Threshold : 12288 Invalid Tags : 196608 Pr0 Tags : 98304 Pr1 Tags : 196608 num_pr0 : 12288
 SAE Count : 0
 Inter-Core Inteference in Data Store : 171814508
Heartbeat CPU 7 instructions: 160000000 cycles: 190358063 heartbeat IPC: 0.785974 cumulative IPC: 0.840521 (Simulation time: 28 hr 48 min 18 sec) 
 Total Blocks : 196608 Invalid Blocks : 0 Valid Blocks : 196608
 Total Tags : 491520 Threshold : 12288 Invalid Tags : 196608 Pr0 Tags : 98304 Pr1 Tags : 196608 num_pr0 : 12288
 SAE Count : 0
 Inter-Core Inteference in Data Store : 172343781
Heartbeat CPU 0 instructions: 170000000 cycles: 198670456 heartbeat IPC: 0.799661 cumulative IPC: 0.855688 (Simulation time: 29 hr 53 min 48 sec) 
 Total Blocks : 196608 Invalid Blocks : 0 Valid Blocks : 196608
 Total Tags : 491520 Threshold : 12288 Invalid Tags : 196608 Pr0 Tags : 98304 Pr1 Tags : 196608 num_pr0 : 12288
 SAE Count : 0
 Inter-Core Inteference in Data Store : 180632304
Heartbeat CPU 1 instructions: 170000000 cycles: 199495939 heartbeat IPC: 0.795762 cumulative IPC: 0.852148 (Simulation time: 30 hr 0 min 20 sec) 
 Total Blocks : 196608 Invalid Blocks : 0 Valid Blocks : 196608
 Total Tags : 491520 Threshold : 12288 Invalid Tags : 196608 Pr0 Tags : 98304 Pr1 Tags : 196608 num_pr0 : 12288
 SAE Count : 0
 Inter-Core Inteference in Data Store : 181460393
Heartbeat CPU 2 instructions: 170000000 cycles: 200209645 heartbeat IPC: 0.792723 cumulative IPC: 0.84911 (Simulation time: 30 hr 6 min 1 sec) 
 Total Blocks : 196608 Invalid Blocks : 0 Valid Blocks : 196608
 Total Tags : 491520 Threshold : 12288 Invalid Tags : 196608 Pr0 Tags : 98304 Pr1 Tags : 196608 num_pr0 : 12288
 SAE Count : 0
 Inter-Core Inteference in Data Store : 182180052
Heartbeat CPU 3 instructions: 170000000 cycles: 200860985 heartbeat IPC: 0.789803 cumulative IPC: 0.846357 (Simulation time: 30 hr 11 min 7 sec) 
 Total Blocks : 196608 Invalid Blocks : 0 Valid Blocks : 196608
 Total Tags : 491520 Threshold : 12288 Invalid Tags : 196608 Pr0 Tags : 98304 Pr1 Tags : 196608 num_pr0 : 12288
 SAE Count : 0
 Inter-Core Inteference in Data Store : 182836808
Heartbeat CPU 4 instructions: 170000000 cycles: 201481720 heartbeat IPC: 0.786906 cumulative IPC: 0.843749 (Simulation time: 30 hr 16 min 1 sec) 
 Total Blocks : 196608 Invalid Blocks : 0 Valid Blocks : 196608
 Total Tags : 491520 Threshold : 12288 Invalid Tags : 196608 Pr0 Tags : 98304 Pr1 Tags : 196608 num_pr0 : 12288
 SAE Count : 0
 Inter-Core Inteference in Data Store : 183450112
Heartbeat CPU 5 instructions: 170000000 cycles: 202067238 heartbeat IPC: 0.784425 cumulative IPC: 0.841304 (Simulation time: 30 hr 20 min 38 sec) 
 Total Blocks : 196608 Invalid Blocks : 0 Valid Blocks : 196608
 Total Tags : 491520 Threshold : 12288 Invalid Tags : 196608 Pr0 Tags : 98304 Pr1 Tags : 196608 num_pr0 : 12288
 SAE Count : 0
 Inter-Core Inteference in Data Store : 184031879
Heartbeat CPU 6 instructions: 170000000 cycles: 202631636 heartbeat IPC: 0.781894 cumulative IPC: 0.838961 (Simulation time: 30 hr 25 min 3 sec) 
 Total Blocks : 196608 Invalid Blocks : 0 Valid Blocks : 196608
 Total Tags : 491520 Threshold : 12288 Invalid Tags : 196608 Pr0 Tags : 98304 Pr1 Tags : 196608 num_pr0 : 12288
 SAE Count : 0
 Inter-Core Inteference in Data Store : 184595037
Heartbeat CPU 7 instructions: 170000000 cycles: 203182683 heartbeat IPC: 0.77975 cumulative IPC: 0.836685 (Simulation time: 30 hr 29 min 15 sec) 
 Total Blocks : 196608 Invalid Blocks : 0 Valid Blocks : 196608
 Total Tags : 491520 Threshold : 12288 Invalid Tags : 196608 Pr0 Tags : 98304 Pr1 Tags : 196608 num_pr0 : 12288
 SAE Count : 0
 Inter-Core Inteference in Data Store : 185151953
Heartbeat CPU 0 instructions: 180000000 cycles: 211233302 heartbeat IPC: 0.795998 cumulative IPC: 0.852138 (Simulation time: 31 hr 33 min 11 sec) 
 Total Blocks : 196608 Invalid Blocks : 0 Valid Blocks : 196608
 Total Tags : 491520 Threshold : 12288 Invalid Tags : 196608 Pr0 Tags : 98304 Pr1 Tags : 196608 num_pr0 : 12288
 SAE Count : 0
 Inter-Core Inteference in Data Store : 193255673
Heartbeat CPU 1 instructions: 180000000 cycles: 212115407 heartbeat IPC: 0.792426 cumulative IPC: 0.848595 (Simulation time: 31 hr 40 min 9 sec) 
 Total Blocks : 196608 Invalid Blocks : 0 Valid Blocks : 196608
 Total Tags : 491520 Threshold : 12288 Invalid Tags : 196608 Pr0 Tags : 98304 Pr1 Tags : 196608 num_pr0 : 12288
 SAE Count : 0
 Inter-Core Inteference in Data Store : 194163935
Heartbeat CPU 2 instructions: 180000000 cycles: 212880534 heartbeat IPC: 0.789211 cumulative IPC: 0.845545 (Simulation time: 31 hr 46 min 14 sec) 
 Total Blocks : 196608 Invalid Blocks : 0 Valid Blocks : 196608
 Total Tags : 491520 Threshold : 12288 Invalid Tags : 196608 Pr0 Tags : 98304 Pr1 Tags : 196608 num_pr0 : 12288
 SAE Count : 0
 Inter-Core Inteference in Data Store : 194944877
Heartbeat CPU 3 instructions: 180000000 cycles: 213575837 heartbeat IPC: 0.786482 cumulative IPC: 0.842792 (Simulation time: 31 hr 51 min 44 sec) 
 Total Blocks : 196608 Invalid Blocks : 0 Valid Blocks : 196608
 Total Tags : 491520 Threshold : 12288 Invalid Tags : 196608 Pr0 Tags : 98304 Pr1 Tags : 196608 num_pr0 : 12288
 SAE Count : 0
 Inter-Core Inteference in Data Store : 195658381
Heartbeat CPU 4 instructions: 180000000 cycles: 214240819 heartbeat IPC: 0.783754 cumulative IPC: 0.840176 (Simulation time: 31 hr 57 min 2 sec) 
 Total Blocks : 196608 Invalid Blocks : 0 Valid Blocks : 196608
 Total Tags : 491520 Threshold : 12288 Invalid Tags : 196608 Pr0 Tags : 98304 Pr1 Tags : 196608 num_pr0 : 12288
 SAE Count : 0
 Inter-Core Inteference in Data Store : 196341153
Heartbeat CPU 5 instructions: 180000000 cycles: 214863907 heartbeat IPC: 0.781453 cumulative IPC: 0.83774 (Simulation time: 32 hr 2 min 1 sec) 
 Total Blocks : 196608 Invalid Blocks : 0 Valid Blocks : 196608
 Total Tags : 491520 Threshold : 12288 Invalid Tags : 196608 Pr0 Tags : 98304 Pr1 Tags : 196608 num_pr0 : 12288
 SAE Count : 0
 Inter-Core Inteference in Data Store : 196980830
Heartbeat CPU 6 instructions: 180000000 cycles: 215469446 heartbeat IPC: 0.778949 cumulative IPC: 0.835385 (Simulation time: 32 hr 6 min 50 sec) 
 Total Blocks : 196608 Invalid Blocks : 0 Valid Blocks : 196608
 Total Tags : 491520 Threshold : 12288 Invalid Tags : 196608 Pr0 Tags : 98304 Pr1 Tags : 196608 num_pr0 : 12288
 SAE Count : 0
 Inter-Core Inteference in Data Store : 197599897
Heartbeat CPU 7 instructions: 180000000 cycles: 216057921 heartbeat IPC: 0.776685 cumulative IPC: 0.83311 (Simulation time: 32 hr 11 min 35 sec) 
 Total Blocks : 196608 Invalid Blocks : 0 Valid Blocks : 196608
 Total Tags : 491520 Threshold : 12288 Invalid Tags : 196608 Pr0 Tags : 98304 Pr1 Tags : 196608 num_pr0 : 12288
 SAE Count : 0
 Inter-Core Inteference in Data Store : 198201174
Heartbeat CPU 0 instructions: 190000003 cycles: 221198951 heartbeat IPC: 1.00345 cumulative IPC: 0.858955 (Simulation time: 52 hr 9 min 15 sec) 
 Total Blocks : 196608 Invalid Blocks : 0 Valid Blocks : 196608
 Total Tags : 491520 Threshold : 12288 Invalid Tags : 196608 Pr0 Tags : 98304 Pr1 Tags : 196608 num_pr0 : 12288
 SAE Count : 0
 Inter-Core Inteference in Data Store : 203283839
Heartbeat CPU 1 instructions: 190000003 cycles: 222105380 heartbeat IPC: 1.001 cumulative IPC: 0.85545 (Simulation time: 52 hr 18 min 43 sec) 
 Total Blocks : 196608 Invalid Blocks : 0 Valid Blocks : 196608
 Total Tags : 491520 Threshold : 12288 Invalid Tags : 196608 Pr0 Tags : 98304 Pr1 Tags : 196608 num_pr0 : 12288
 SAE Count : 0
 Inter-Core Inteference in Data Store : 204033980
Heartbeat CPU 2 instructions: 190000003 cycles: 222876794 heartbeat IPC: 1.00037 cumulative IPC: 0.852489 (Simulation time: 52 hr 26 min 3 sec) 
 Total Blocks : 196608 Invalid Blocks : 0 Valid Blocks : 196608
 Total Tags : 491520 Threshold : 12288 Invalid Tags : 196609 Pr0 Tags : 98303 Pr1 Tags : 196608 num_pr0 : 12288
 SAE Count : 0
 Inter-Core Inteference in Data Store : 204516147
Heartbeat CPU 3 instructions: 190000003 cycles: 223567358 heartbeat IPC: 1.00085 cumulative IPC: 0.849856 (Simulation time: 53 hr 40 min 35 sec) 
 Total Blocks : 196608 Invalid Blocks : 0 Valid Blocks : 196608
 Total Tags : 491520 Threshold : 12288 Invalid Tags : 196610 Pr0 Tags : 98302 Pr1 Tags : 196608 num_pr0 : 12288
 SAE Count : 0
 Inter-Core Inteference in Data Store : 204775848
Heartbeat CPU 4 instructions: 190000003 cycles: 224211648 heartbeat IPC: 1.00293 cumulative IPC: 0.847414 (Simulation time: 55 hr 7 min 22 sec) 
 Total Blocks : 196608 Invalid Blocks : 0 Valid Blocks : 196608
 Total Tags : 491520 Threshold : 12288 Invalid Tags : 196612 Pr0 Tags : 98300 Pr1 Tags : 196608 num_pr0 : 12288
 SAE Count : 0
 Inter-Core Inteference in Data Store : 204900490
Heartbeat CPU 5 instructions: 190000003 cycles: 224805852 heartbeat IPC: 1.00584 cumulative IPC: 0.845174 (Simulation time: 55 hr 57 min 10 sec) 
 Total Blocks : 196608 Invalid Blocks : 0 Valid Blocks : 196608
 Total Tags : 491520 Threshold : 12288 Invalid Tags : 196610 Pr0 Tags : 98302 Pr1 Tags : 196608 num_pr0 : 12288
 SAE Count : 0
 Inter-Core Inteference in Data Store : 205012804
FILL
Heartbeat CPU 6 instructions: 190000003 cycles: 225372993 heartbeat IPC: 1.00974 cumulative IPC: 0.843047 (Simulation time: 56 hr 12 min 33 sec) 
 Total Blocks : 196608 Invalid Blocks : 0 Valid Blocks : 196608
 Total Tags : 491520 Threshold : 12288 Invalid Tags : 196610 Pr0 Tags : 98302 Pr1 Tags : 196608 num_pr0 : 12287
 SAE Count : 0
 Inter-Core Inteference in Data Store : 205082097
Heartbeat CPU 7 instructions: 190000003 cycles: 225919129 heartbeat IPC: 1.01407 cumulative IPC: 0.841009 (Simulation time: 56 hr 16 min 10 sec) 
 Total Blocks : 196608 Invalid Blocks : 0 Valid Blocks : 196608
 Total Tags : 491520 Threshold : 12288 Invalid Tags : 196611 Pr0 Tags : 98301 Pr1 Tags : 196608 num_pr0 : 12288
 SAE Count : 0
 Inter-Core Inteference in Data Store : 205206605
Heartbeat CPU 0 instructions: 200000002 cycles: 226158117 heartbeat IPC: 2.01647 cumulative IPC: 0.884337 (Simulation time: 56 hr 17 min 43 sec) 
 Total Blocks : 196608 Invalid Blocks : 0 Valid Blocks : 196608
 Total Tags : 491520 Threshold : 12288 Invalid Tags : 196608 Pr0 Tags : 98304 Pr1 Tags : 196608 num_pr0 : 12288
 SAE Count : 0
 Inter-Core Inteference in Data Store : 205249205
Heartbeat CPU 1 instructions: 200000002 cycles: 227082516 heartbeat IPC: 2.00919 cumulative IPC: 0.880737 (Simulation time: 56 hr 22 min 45 sec) 
 Total Blocks : 196608 Invalid Blocks : 0 Valid Blocks : 196608
 Total Tags : 491520 Threshold : 12288 Invalid Tags : 196609 Pr0 Tags : 98303 Pr1 Tags : 196608 num_pr0 : 12288
 SAE Count : 0
 Inter-Core Inteference in Data Store : 205598091
Heartbeat CPU 2 instructions: 200000002 cycles: 227892555 heartbeat IPC: 1.99372 cumulative IPC: 0.877607 (Simulation time: 56 hr 27 min 47 sec) 
 Total Blocks : 196608 Invalid Blocks : 0 Valid Blocks : 196608
 Total Tags : 491520 Threshold : 12288 Invalid Tags : 196608 Pr0 Tags : 98304 Pr1 Tags : 196608 num_pr0 : 12288
 SAE Count : 0
 Inter-Core Inteference in Data Store : 206104743
Heartbeat CPU 3 instructions: 200000002 cycles: 228634213 heartbeat IPC: 1.97361 cumulative IPC: 0.87476 (Simulation time: 56 hr 31 min 53 sec) 
 Total Blocks : 196608 Invalid Blocks : 0 Valid Blocks : 196608
 Total Tags : 491520 Threshold : 12288 Invalid Tags : 196608 Pr0 Tags : 98304 Pr1 Tags : 196608 num_pr0 : 12288
 SAE Count : 0
 Inter-Core Inteference in Data Store : 206743418
Heartbeat CPU 4 instructions: 200000002 cycles: 229321177 heartbeat IPC: 1.95713 cumulative IPC: 0.872139 (Simulation time: 56 hr 36 min 4 sec) 
 Total Blocks : 196608 Invalid Blocks : 0 Valid Blocks : 196608
 Total Tags : 491520 Threshold : 12288 Invalid Tags : 196608 Pr0 Tags : 98304 Pr1 Tags : 196608 num_pr0 : 12288
 SAE Count : 0
 Inter-Core Inteference in Data Store : 207420412
Heartbeat CPU 5 instructions: 200000002 cycles: 229947877 heartbeat IPC: 1.94476 cumulative IPC: 0.869762 (Simulation time: 56 hr 39 min 49 sec) 
 Total Blocks : 196608 Invalid Blocks : 0 Valid Blocks : 196608
 Total Tags : 491520 Threshold : 12288 Invalid Tags : 196608 Pr0 Tags : 98304 Pr1 Tags : 196608 num_pr0 : 12288
 SAE Count : 0
 Inter-Core Inteference in Data Store : 208057816
Heartbeat CPU 6 instructions: 200000002 cycles: 230538664 heartbeat IPC: 1.93586 cumulative IPC: 0.867533 (Simulation time: 56 hr 43 min 18 sec) 
 Total Blocks : 196608 Invalid Blocks : 0 Valid Blocks : 196608
 Total Tags : 491520 Threshold : 12288 Invalid Tags : 196608 Pr0 Tags : 98304 Pr1 Tags : 196608 num_pr0 : 12288
 SAE Count : 0
 Inter-Core Inteference in Data Store : 208663993
Heartbeat CPU 7 instructions: 200000002 cycles: 231098934 heartbeat IPC: 1.93057 cumulative IPC: 0.86543 (Simulation time: 56 hr 46 min 20 sec) 
 Total Blocks : 196608 Invalid Blocks : 0 Valid Blocks : 196608
 Total Tags : 491520 Threshold : 12288 Invalid Tags : 196608 Pr0 Tags : 98304 Pr1 Tags : 196608 num_pr0 : 12288
 SAE Count : 0
 Inter-Core Inteference in Data Store : 209235406

Warmup complete CPU 0 instructions: 204071568 cycles: 231098934 (Simulation time: 56 hr 46 min 20 sec) 
Warmup complete CPU 1 instructions: 203247940 cycles: 231098934 (Simulation time: 56 hr 46 min 20 sec) 
Warmup complete CPU 2 instructions: 202553238 cycles: 231098934 (Simulation time: 56 hr 46 min 20 sec) 
Warmup complete CPU 3 instructions: 201932090 cycles: 231098934 (Simulation time: 56 hr 46 min 20 sec) 
Warmup complete CPU 4 instructions: 201385395 cycles: 231098934 (Simulation time: 56 hr 46 min 20 sec) 
Warmup complete CPU 5 instructions: 200896377 cycles: 231098934 (Simulation time: 56 hr 46 min 20 sec) 
Warmup complete CPU 6 instructions: 200427347 cycles: 231098934 (Simulation time: 56 hr 46 min 20 sec) 
Warmup complete CPU 7 instructions: 200000002 cycles: 231098934 (Simulation time: 56 hr 46 min 20 sec) 

Heartbeat CPU 0 instructions: 210000000 cycles: 525855268 heartbeat IPC: 0.033367 cumulative IPC: 0.020113 (Simulation time: 69 hr 18 min 41 sec) 
 Total Blocks : 196608 Invalid Blocks : 0 Valid Blocks : 196608
 Total Tags : 491520 Threshold : 12288 Invalid Tags : 196608 Pr0 Tags : 98304 Pr1 Tags : 196608 num_pr0 : 12288
 SAE Count : 0
 Inter-Core Inteference in Data Store : 8082452
Heartbeat CPU 1 instructions: 210000000 cycles: 566950258 heartbeat IPC: 0.0294232 cumulative IPC: 0.0201043 (Simulation time: 70 hr 43 min 49 sec) 
 Total Blocks : 196608 Invalid Blocks : 0 Valid Blocks : 196608
 Total Tags : 491520 Threshold : 12288 Invalid Tags : 196608 Pr0 Tags : 98304 Pr1 Tags : 196608 num_pr0 : 12288
 SAE Count : 0
 Inter-Core Inteference in Data Store : 9189889
Heartbeat CPU 2 instructions: 210000000 cycles: 601011002 heartbeat IPC: 0.0268011 cumulative IPC: 0.0201312 (Simulation time: 71 hr 51 min 50 sec) 
 Total Blocks : 196608 Invalid Blocks : 0 Valid Blocks : 196608
 Total Tags : 491520 Threshold : 12288 Invalid Tags : 196608 Pr0 Tags : 98304 Pr1 Tags : 196608 num_pr0 : 12288
 SAE Count : 0
 Inter-Core Inteference in Data Store : 10090637
Heartbeat CPU 3 instructions: 210000000 cycles: 631482627 heartbeat IPC: 0.0248232 cumulative IPC: 0.0201504 (Simulation time: 72 hr 50 min 31 sec) 
 Total Blocks : 196608 Invalid Blocks : 0 Valid Blocks : 196608
 Total Tags : 491520 Threshold : 12288 Invalid Tags : 196608 Pr0 Tags : 98304 Pr1 Tags : 196608 num_pr0 : 12288
 SAE Count : 0
 Inter-Core Inteference in Data Store : 10890822
Heartbeat CPU 4 instructions: 210000000 cycles: 657830350 heartbeat IPC: 0.0233367 cumulative IPC: 0.0201874 (Simulation time: 73 hr 44 min 0 sec) 
 Total Blocks : 196608 Invalid Blocks : 0 Valid Blocks : 196608
 Total Tags : 491520 Threshold : 12288 Invalid Tags : 196608 Pr0 Tags : 98304 Pr1 Tags : 196608 num_pr0 : 12288
 SAE Count : 0
 Inter-Core Inteference in Data Store : 11575411
Heartbeat CPU 5 instructions: 210000000 cycles: 679858194 heartbeat IPC: 0.0222266 cumulative IPC: 0.0202862 (Simulation time: 74 hr 28 min 1 sec) 
 Total Blocks : 196608 Invalid Blocks : 0 Valid Blocks : 196608
 Total Tags : 491520 Threshold : 12288 Invalid Tags : 196608 Pr0 Tags : 98304 Pr1 Tags : 196608 num_pr0 : 12288
 SAE Count : 0
 Inter-Core Inteference in Data Store : 12148565
Heartbeat CPU 6 instructions: 210000000 cycles: 703166450 heartbeat IPC: 0.0211583 cumulative IPC: 0.0202781 (Simulation time: 75 hr 10 min 19 sec) 
 Total Blocks : 196608 Invalid Blocks : 0 Valid Blocks : 196608
 Total Tags : 491520 Threshold : 12288 Invalid Tags : 196608 Pr0 Tags : 98304 Pr1 Tags : 196608 num_pr0 : 12288
 SAE Count : 0
 Inter-Core Inteference in Data Store : 12755725
Heartbeat CPU 7 instructions: 210000000 cycles: 725070438 heartbeat IPC: 0.0202441 cumulative IPC: 0.0202441 (Simulation time: 75 hr 52 min 53 sec) 
 Total Blocks : 196608 Invalid Blocks : 0 Valid Blocks : 196608
 Total Tags : 491520 Threshold : 12288 Invalid Tags : 196608 Pr0 Tags : 98304 Pr1 Tags : 196608 num_pr0 : 12288
 SAE Count : 0
 Inter-Core Inteference in Data Store : 13308805
Heartbeat CPU 0 instructions: 220000000 cycles: 1009802909 heartbeat IPC: 0.0206634 cumulative IPC: 0.0204551 (Simulation time: 84 hr 1 min 1 sec) 
 Total Blocks : 196608 Invalid Blocks : 0 Valid Blocks : 196608
 Total Tags : 491520 Threshold : 12288 Invalid Tags : 196608 Pr0 Tags : 98304 Pr1 Tags : 196608 num_pr0 : 12288
 SAE Count : 0
 Inter-Core Inteference in Data Store : 20844133
Heartbeat CPU 1 instructions: 220000000 cycles: 1051644117 heartbeat IPC: 0.0206316 cumulative IPC: 0.0204158 (Simulation time: 85 hr 6 min 20 sec) 
 Total Blocks : 196608 Invalid Blocks : 0 Valid Blocks : 196608
 Total Tags : 491520 Threshold : 12288 Invalid Tags : 196608 Pr0 Tags : 98304 Pr1 Tags : 196608 num_pr0 : 12288
 SAE Count : 0
 Inter-Core Inteference in Data Store : 22013122
Heartbeat CPU 2 instructions: 220000000 cycles: 1086346872 heartbeat IPC: 0.0206043 cumulative IPC: 0.0203997 (Simulation time: 85 hr 57 min 14 sec) 
 Total Blocks : 196608 Invalid Blocks : 0 Valid Blocks : 196608
 Total Tags : 491520 Threshold : 12288 Invalid Tags : 196608 Pr0 Tags : 98304 Pr1 Tags : 196608 num_pr0 : 12288
 SAE Count : 0
 Inter-Core Inteference in Data Store : 22979935
Heartbeat CPU 3 instructions: 220000000 cycles: 1116716366 heartbeat IPC: 0.0206086 cumulative IPC: 0.0204015 (Simulation time: 86 hr 42 min 54 sec) 
 Total Blocks : 196608 Invalid Blocks : 0 Valid Blocks : 196608
 Total Tags : 491520 Threshold : 12288 Invalid Tags : 196608 Pr0 Tags : 98304 Pr1 Tags : 196608 num_pr0 : 12288
 SAE Count : 0
 Inter-Core Inteference in Data Store : 23811028
Heartbeat CPU 4 instructions: 220000000 cycles: 1143826763 heartbeat IPC: 0.0205763 cumulative IPC: 0.0203945 (Simulation time: 87 hr 23 min 18 sec) 
 Total Blocks : 196608 Invalid Blocks : 0 Valid Blocks : 196608
 Total Tags : 491520 Threshold : 12288 Invalid Tags : 196608 Pr0 Tags : 98304 Pr1 Tags : 196608 num_pr0 : 12288
 SAE Count : 0
 Inter-Core Inteference in Data Store : 24550081
Heartbeat CPU 5 instructions: 220000000 cycles: 1165292495 heartbeat IPC: 0.0206001 cumulative IPC: 0.0204493 (Simulation time: 87 hr 55 min 4 sec) 
 Total Blocks : 196608 Invalid Blocks : 0 Valid Blocks : 196608
 Total Tags : 491520 Threshold : 12288 Invalid Tags : 196608 Pr0 Tags : 98304 Pr1 Tags : 196608 num_pr0 : 12288
 SAE Count : 0
 Inter-Core Inteference in Data Store : 25136639
Heartbeat CPU 6 instructions: 220000000 cycles: 1189029726 heartbeat IPC: 0.0205819 cumulative IPC: 0.0204322 (Simulation time: 88 hr 27 min 31 sec) 
 Total Blocks : 196608 Invalid Blocks : 0 Valid Blocks : 196608
 Total Tags : 491520 Threshold : 12288 Invalid Tags : 196608 Pr0 Tags : 98304 Pr1 Tags : 196608 num_pr0 : 12288
 SAE Count : 0
 Inter-Core Inteference in Data Store : 25778589
Heartbeat CPU 7 instructions: 220000000 cycles: 1212680881 heartbeat IPC: 0.0205082 cumulative IPC: 0.0203753 (Simulation time: 88 hr 58 min 48 sec) 
 Total Blocks : 196608 Invalid Blocks : 0 Valid Blocks : 196608
 Total Tags : 491520 Threshold : 12288 Invalid Tags : 196608 Pr0 Tags : 98304 Pr1 Tags : 196608 num_pr0 : 12288
 SAE Count : 0
 Inter-Core Inteference in Data Store : 26406303
Heartbeat CPU 0 instructions: 230000000 cycles: 1501040418 heartbeat IPC: 0.0203568 cumulative IPC: 0.020417 (Simulation time: 94 hr 27 min 54 sec) 
 Total Blocks : 196608 Invalid Blocks : 0 Valid Blocks : 196608
 Total Tags : 491520 Threshold : 12288 Invalid Tags : 196608 Pr0 Tags : 98304 Pr1 Tags : 196608 num_pr0 : 12288
 SAE Count : 0
 Inter-Core Inteference in Data Store : 34080413
Heartbeat CPU 1 instructions: 230000000 cycles: 1541874833 heartbeat IPC: 0.0203986 cumulative IPC: 0.0204093 (Simulation time: 95 hr 5 min 20 sec) 
 Total Blocks : 196608 Invalid Blocks : 0 Valid Blocks : 196608
 Total Tags : 491520 Threshold : 12288 Invalid Tags : 196608 Pr0 Tags : 98304 Pr1 Tags : 196608 num_pr0 : 12288
 SAE Count : 0
 Inter-Core Inteference in Data Store : 35181923
Heartbeat CPU 2 instructions: 230000000 cycles: 1576214185 heartbeat IPC: 0.0204137 cumulative IPC: 0.0204048 (Simulation time: 95 hr 36 min 57 sec) 
 Total Blocks : 196608 Invalid Blocks : 0 Valid Blocks : 196608
 Total Tags : 491520 Threshold : 12288 Invalid Tags : 196608 Pr0 Tags : 98304 Pr1 Tags : 196608 num_pr0 : 12288
 SAE Count : 0
 Inter-Core Inteference in Data Store : 36119099
Heartbeat CPU 3 instructions: 230000000 cycles: 1608047346 heartbeat IPC: 0.0203529 cumulative IPC: 0.0203841 (Simulation time: 96 hr 5 min 22 sec) 
 Total Blocks : 196608 Invalid Blocks : 0 Valid Blocks : 196608
 Total Tags : 491520 Threshold : 12288 Invalid Tags : 196608 Pr0 Tags : 98304 Pr1 Tags : 196608 num_pr0 : 12288
 SAE Count : 0
 Inter-Core Inteference in Data Store : 36990375
Heartbeat CPU 4 instructions: 230000000 cycles: 1634943237 heartbeat IPC: 0.0203618 cumulative IPC: 0.020383 (Simulation time: 96 hr 30 min 7 sec) 
 Total Blocks : 196608 Invalid Blocks : 0 Valid Blocks : 196608
 Total Tags : 491520 Threshold : 12288 Invalid Tags : 196608 Pr0 Tags : 98304 Pr1 Tags : 196608 num_pr0 : 12288
 SAE Count : 0
 Inter-Core Inteference in Data Store : 37713186
Heartbeat CPU 5 instructions: 230000000 cycles: 1656442951 heartbeat IPC: 0.0203604 cumulative IPC: 0.0204187 (Simulation time: 96 hr 49 min 30 sec) 
 Total Blocks : 196608 Invalid Blocks : 0 Valid Blocks : 196608
 Total Tags : 491520 Threshold : 12288 Invalid Tags : 196608 Pr0 Tags : 98304 Pr1 Tags : 196608 num_pr0 : 12288
 SAE Count : 0
 Inter-Core Inteference in Data Store : 38297678
Heartbeat CPU 6 instructions: 230000000 cycles: 1679458166 heartbeat IPC: 0.0203903 cumulative IPC: 0.020418 (Simulation time: 97 hr 9 min 13 sec) 
 Total Blocks : 196608 Invalid Blocks : 0 Valid Blocks : 196608
 Total Tags : 491520 Threshold : 12288 Invalid Tags : 196608 Pr0 Tags : 98304 Pr1 Tags : 196608 num_pr0 : 12288
 SAE Count : 0
 Inter-Core Inteference in Data Store : 38929370
Heartbeat CPU 7 instructions: 230000000 cycles: 1703513336 heartbeat IPC: 0.0203736 cumulative IPC: 0.0203747 (Simulation time: 97 hr 29 min 57 sec) 
 Total Blocks : 196608 Invalid Blocks : 0 Valid Blocks : 196608
 Total Tags : 491520 Threshold : 12288 Invalid Tags : 196608 Pr0 Tags : 98304 Pr1 Tags : 196608 num_pr0 : 12288
 SAE Count : 0
 Inter-Core Inteference in Data Store : 39583833
Heartbeat CPU 0 instructions: 240000000 cycles: 1988339107 heartbeat IPC: 0.0205213 cumulative IPC: 0.0204459 (Simulation time: 101 hr 37 min 5 sec) 
 Total Blocks : 196608 Invalid Blocks : 0 Valid Blocks : 196608
 Total Tags : 491520 Threshold : 12288 Invalid Tags : 196608 Pr0 Tags : 98304 Pr1 Tags : 196608 num_pr0 : 12288
 SAE Count : 0
 Inter-Core Inteference in Data Store : 47308583
Heartbeat CPU 1 instructions: 240000000 cycles: 2028985542 heartbeat IPC: 0.0205292 cumulative IPC: 0.0204418 (Simulation time: 102 hr 12 min 15 sec) 
 Total Blocks : 196608 Invalid Blocks : 0 Valid Blocks : 196608
 Total Tags : 491520 Threshold : 12288 Invalid Tags : 196608 Pr0 Tags : 98304 Pr1 Tags : 196608 num_pr0 : 12288
 SAE Count : 0
 Inter-Core Inteference in Data Store : 48403880
Heartbeat CPU 2 instructions: 240000000 cycles: 2064259671 heartbeat IPC: 0.0204899 cumulative IPC: 0.0204274 (Simulation time: 102 hr 42 min 0 sec) 
 Total Blocks : 196608 Invalid Blocks : 0 Valid Blocks : 196608
 Total Tags : 491520 Threshold : 12288 Invalid Tags : 196608 Pr0 Tags : 98304 Pr1 Tags : 196608 num_pr0 : 12288
 SAE Count : 0
 Inter-Core Inteference in Data Store : 49353702
Heartbeat CPU 3 instructions: 240000000 cycles: 2096077266 heartbeat IPC: 0.0204905 cumulative IPC: 0.020412 (Simulation time: 103 hr 7 min 24 sec) 
 Total Blocks : 196608 Invalid Blocks : 0 Valid Blocks : 196608
 Total Tags : 491520 Threshold : 12288 Invalid Tags : 196608 Pr0 Tags : 98304 Pr1 Tags : 196608 num_pr0 : 12288
 SAE Count : 0
 Inter-Core Inteference in Data Store : 50198374
Heartbeat CPU 4 instructions: 240000000 cycles: 2122540919 heartbeat IPC: 0.0205087 cumulative IPC: 0.0204154 (Simulation time: 103 hr 27 min 32 sec) 
 Total Blocks : 196608 Invalid Blocks : 0 Valid Blocks : 196608
 Total Tags : 491520 Threshold : 12288 Invalid Tags : 196608 Pr0 Tags : 98304 Pr1 Tags : 196608 num_pr0 : 12288
 SAE Count : 0
 Inter-Core Inteference in Data Store : 50901311
Heartbeat CPU 5 instructions: 240000000 cycles: 2142770736 heartbeat IPC: 0.0205623 cumulative IPC: 0.0204552 (Simulation time: 103 hr 43 min 29 sec) 
 Total Blocks : 196608 Invalid Blocks : 0 Valid Blocks : 196608
 Total Tags : 491520 Threshold : 12288 Invalid Tags : 196608 Pr0 Tags : 98304 Pr1 Tags : 196608 num_pr0 : 12288
 SAE Count : 0
 Inter-Core Inteference in Data Store : 51444514
Heartbeat CPU 6 instructions: 240000000 cycles: 2166513574 heartbeat IPC: 0.0205315 cumulative IPC: 0.0204466 (Simulation time: 104 hr 1 min 56 sec) 
 Total Blocks : 196608 Invalid Blocks : 0 Valid Blocks : 196608
 Total Tags : 491520 Threshold : 12288 Invalid Tags : 196608 Pr0 Tags : 98304 Pr1 Tags : 196608 num_pr0 : 12288
 SAE Count : 0
 Inter-Core Inteference in Data Store : 52065393
Heartbeat CPU 7 instructions: 240000000 cycles: 2190949622 heartbeat IPC: 0.0205155 cumulative IPC: 0.0204097 (Simulation time: 104 hr 21 min 0 sec) 
 Total Blocks : 196608 Invalid Blocks : 0 Valid Blocks : 196608
 Total Tags : 491520 Threshold : 12288 Invalid Tags : 196608 Pr0 Tags : 98304 Pr1 Tags : 196608 num_pr0 : 12288
 SAE Count : 0
 Inter-Core Inteference in Data Store : 52718215
Heartbeat CPU 0 instructions: 250000002 cycles: 2463997944 heartbeat IPC: 0.0210235 cumulative IPC: 0.020569 (Simulation time: 107 hr 47 min 55 sec) 
 Total Blocks : 196608 Invalid Blocks : 0 Valid Blocks : 196608
 Total Tags : 491520 Threshold : 12288 Invalid Tags : 196608 Pr0 Tags : 98304 Pr1 Tags : 196608 num_pr0 : 12288
 SAE Count : 0
 Inter-Core Inteference in Data Store : 59987754
Heartbeat CPU 1 instructions: 250000002 cycles: 2504589150 heartbeat IPC: 0.0210259 cumulative IPC: 0.020564 (Simulation time: 108 hr 17 min 51 sec) 
 Total Blocks : 196608 Invalid Blocks : 0 Valid Blocks : 196608
 Total Tags : 491520 Threshold : 12288 Invalid Tags : 196608 Pr0 Tags : 98304 Pr1 Tags : 196608 num_pr0 : 12288
 SAE Count : 0
 Inter-Core Inteference in Data Store : 61083993
Heartbeat CPU 2 instructions: 250000002 cycles: 2538014150 heartbeat IPC: 0.021108 cumulative IPC: 0.0205672 (Simulation time: 108 hr 42 min 15 sec) 
 Total Blocks : 196608 Invalid Blocks : 0 Valid Blocks : 196608
 Total Tags : 491520 Threshold : 12288 Invalid Tags : 196608 Pr0 Tags : 98304 Pr1 Tags : 196608 num_pr0 : 12288
 SAE Count : 0
 Inter-Core Inteference in Data Store : 61974520
Heartbeat CPU 3 instructions: 250000002 cycles: 2570391299 heartbeat IPC: 0.0210831 cumulative IPC: 0.0205481 (Simulation time: 109 hr 6 min 41 sec) 
 Total Blocks : 196608 Invalid Blocks : 0 Valid Blocks : 196608
 Total Tags : 491520 Threshold : 12288 Invalid Tags : 196608 Pr0 Tags : 98304 Pr1 Tags : 196608 num_pr0 : 12288
 SAE Count : 0
 Inter-Core Inteference in Data Store : 62856726
Heartbeat CPU 4 instructions: 250000002 cycles: 2596497166 heartbeat IPC: 0.021099 cumulative IPC: 0.0205524 (Simulation time: 109 hr 25 min 56 sec) 
 Total Blocks : 196608 Invalid Blocks : 0 Valid Blocks : 196608
 Total Tags : 491520 Threshold : 12288 Invalid Tags : 196608 Pr0 Tags : 98304 Pr1 Tags : 196608 num_pr0 : 12288
 SAE Count : 0
 Inter-Core Inteference in Data Store : 63575928
[...]
LLC4 PREFETCH  ACCESS: 23618446  HIT: 10931787  MISS: 12686659  HIT %: 46.285  MISS %: 53.715  AVERAGE MISS PENALTY: 420.175
LLC4 WRITEBACK ACCESS: 16988  HIT:  1395  MISS: 15593  HIT %: 8.21168  MISS %: 91.7883  AVERAGE MISS PENALTY: 0
LLC4 PREFETCH  REQUESTED:     0  ISSUED:     0  USEFUL: 5317800  USELESS: 24700953
 USEFUL LOAD PREFETCHES:    5317800 PREFETCH ISSUED TO LOWER LEVEL:  101587947  ACCURACY: 5.23468
 TIMELY PREFETCHES:    5317800 LATE PREFETCHES: 0 DROPPED PREFETCHES: 0
LLC4 AVERAGE MISS LATENCY: 417.133 cycles

LLC4 Set Associative Eviction Count : 0
LLC4 Priority 0 entries : 12288
LLC4 Inter-Core Interference : 30667449
LLC5 TOTAL     ACCESS: 27111543  HIT: 12741534  MISS: 14370009  HIT %: 46.9967  MISS %: 53.0033  AVERAGE MISS PENALTY: 402.557
LLC5 LOAD      ACCESS: 3710647  HIT: 1798296  MISS: 1912351  HIT %: 48.4631  MISS %: 51.5369  AVERAGE MISS PENALTY: 384.424
LLC5 RFO       ACCESS:  8188  HIT:  1182  MISS:  7006  HIT %: 14.4358  MISS %: 85.5642  AVERAGE MISS PENALTY: 393.312
LLC5 PREFETCH  ACCESS: 23375721  HIT: 10940565  MISS: 12435156  HIT %: 46.8031  MISS %: 53.1969  AVERAGE MISS PENALTY: 405.853
LLC5 WRITEBACK ACCESS: 16987  HIT:  1491  MISS: 15496  HIT %: 8.7773  MISS %: 91.2227  AVERAGE MISS PENALTY: 0
LLC5 PREFETCH  REQUESTED:     0  ISSUED:     0  USEFUL: 5207286  USELESS: 24549335
 USEFUL LOAD PREFETCHES:    5207286 PREFETCH ISSUED TO LOWER LEVEL:   99532460  ACCURACY: 5.23175
 TIMELY PREFETCHES:    5207286 LATE PREFETCHES: 0 DROPPED PREFETCHES: 0
LLC5 AVERAGE MISS LATENCY: 402.557 cycles

LLC5 Set Associative Eviction Count : 0
LLC5 Priority 0 entries : 12288
LLC5 Inter-Core Interference : 30321519
LLC6 TOTAL     ACCESS: 26750914  HIT: 12726917  MISS: 14023997  HIT %: 47.5756  MISS %: 52.4244  AVERAGE MISS PENALTY: 408.691
LLC6 LOAD      ACCESS: 3952596  HIT: 1984563  MISS: 1968033  HIT %: 50.2091  MISS %: 49.7909  AVERAGE MISS PENALTY: 399.118
LLC6 RFO       ACCESS:  8187  HIT:  1073  MISS:  7114  HIT %: 13.1061  MISS %: 86.8939  AVERAGE MISS PENALTY: 423.34
LLC6 PREFETCH  ACCESS: 22773144  HIT: 10739864  MISS: 12033280  HIT %: 47.1602  MISS %: 52.8398  AVERAGE MISS PENALTY: 410.776
LLC6 WRITEBACK ACCESS: 16987  HIT:  1417  MISS: 15570  HIT %: 8.34167  MISS %: 91.6583  AVERAGE MISS PENALTY: 0
LLC6 PREFETCH  REQUESTED:     0  ISSUED:     0  USEFUL: 5257087  USELESS: 24046168
 USEFUL LOAD PREFETCHES:    5257087 PREFETCH ISSUED TO LOWER LEVEL:   96384061  ACCURACY: 5.45431
 TIMELY PREFETCHES:    5257087 LATE PREFETCHES: 0 DROPPED PREFETCHES: 0
LLC6 AVERAGE MISS LATENCY: 408.691 cycles

LLC6 Set Associative Eviction Count : 0
LLC6 Priority 0 entries : 12288
LLC6 Inter-Core Interference : 30148794
LLC7 TOTAL     ACCESS: 26146430  HIT: 12563332  MISS: 13583098  HIT %: 48.0499  MISS %: 51.9501  AVERAGE MISS PENALTY: 412.858
LLC7 LOAD      ACCESS: 3765049  HIT: 1845184  MISS: 1919865  HIT %: 49.0082  MISS %: 50.9918  AVERAGE MISS PENALTY: 504.215
LLC7 RFO       ACCESS:  8187  HIT:  1125  MISS:  7062  HIT %: 13.7413  MISS %: 86.2587  AVERAGE MISS PENALTY: 398.459
LLC7 PREFETCH  ACCESS: 22356208  HIT: 10715555  MISS: 11640653  HIT %: 47.931  MISS %: 52.069  AVERAGE MISS PENALTY: 398.35
LLC7 WRITEBACK ACCESS: 16986  HIT:  1468  MISS: 15518  HIT %: 8.64241  MISS %: 91.3576  AVERAGE MISS PENALTY: 0
LLC7 PREFETCH  REQUESTED:     0  ISSUED:     0  USEFUL: 5245738  USELESS: 23854166
 USEFUL LOAD PREFETCHES:    5245738 PREFETCH ISSUED TO LOWER LEVEL:   93237637  ACCURACY: 5.6262
 TIMELY PREFETCHES:    5245738 LATE PREFETCHES: 0 DROPPED PREFETCHES: 0
LLC7 AVERAGE MISS LATENCY: 395.845 cycles

LLC7 Set Associative Eviction Count : 0
LLC7 Priority 0 entries : 12288
LLC7 Inter-Core Interference : 29861437
ROI Average ROB Stall Cycles:	215.414
ROI Total ROB Stalls Cycles:	9199477371
ROI TOTAL ROB counter      :	42706095
ROI Average Load ROB Stall Cycles:	257.226
ROI Total Load ROB Stalls Cycle  :	9052338234
ROI Total Load ROB stalls Counter:	35192155
Major fault: 0 Minor fault: 34808

CPU 7 cumulative IPC: 0.0216284 instructions: 200000003 cycles: 9247087453
ITLB TOTAL     ACCESS: 34333862  HIT: 34333862  MISS:     0  HIT %:   100  MISS %:     0  AVERAGE MISS PENALTY: 0
ITLB LOAD      ACCESS: 34333862  HIT: 34333862  MISS:     0  HIT %:   100  MISS %:     0  AVERAGE MISS PENALTY: 0
ITLB RFO       ACCESS:     0  HIT:     0  MISS:     0  HIT %:     0  MISS %:     0  AVERAGE MISS PENALTY: 0
ITLB PREFETCH  ACCESS:     0  HIT:     0  MISS:     0  HIT %:     0  MISS %:     0  AVERAGE MISS PENALTY: 0
ITLB WRITEBACK ACCESS:     0  HIT:     0  MISS:     0  HIT %:     0  MISS %:     0  AVERAGE MISS PENALTY: 0
ITLB PREFETCH  REQUESTED:     0  ISSUED:     0  USEFUL:     0  USELESS:     0
 USEFUL LOAD PREFETCHES:          0 PREFETCH ISSUED TO LOWER LEVEL:          0  ACCURACY: -nan
 TIMELY PREFETCHES:          0 LATE PREFETCHES: 0 DROPPED PREFETCHES: 0
ITLB AVERAGE MISS LATENCY: -nan cycles

ITLB Set Associative Eviction Count : 0
ITLB Priority 0 entries : 0
ITLB Inter-Core Interference : 0
DTLB TOTAL     ACCESS: 78282621  HIT: 55335713  MISS: 22946908  HIT %: 70.6871  MISS %: 29.3129  AVERAGE MISS PENALTY: 9.18605
DTLB LOAD      ACCESS: 75584063  HIT: 52642189  MISS: 22941874  HIT %: 69.6472  MISS %: 30.3528  AVERAGE MISS PENALTY: 9.18255
DTLB RFO       ACCESS: 2698558  HIT: 2693524  MISS:  5034  HIT %: 99.8135  MISS %: 0.186544  AVERAGE MISS PENALTY: 25.1492
DTLB PREFETCH  ACCESS:     0  HIT:     0  MISS:     0  HIT %:     0  MISS %:     0  AVERAGE MISS PENALTY: 0
DTLB WRITEBACK ACCESS:     0  HIT:     0  MISS:     0  HIT %:     0  MISS %:     0  AVERAGE MISS PENALTY: 0
DTLB PREFETCH  REQUESTED:     0  ISSUED:     0  USEFUL:     0  USELESS:     0
 USEFUL LOAD PREFETCHES:          0 PREFETCH ISSUED TO LOWER LEVEL:          0  ACCURACY: -nan
 TIMELY PREFETCHES:          0 LATE PREFETCHES: 0 DROPPED PREFETCHES: 0
DTLB AVERAGE MISS LATENCY: 9.18605 cycles

DTLB Set Associative Eviction Count : 0
DTLB Priority 0 entries : 0
DTLB Inter-Core Interference : 0
STLB TOTAL     ACCESS: 22946908  HIT: 22906095  MISS: 40813  HIT %: 99.8221  MISS %: 0.177858  AVERAGE MISS PENALTY: 100
STLB LOAD      ACCESS: 22941874  HIT: 22901808  MISS: 40066  HIT %: 99.8254  MISS %: 0.174641  AVERAGE MISS PENALTY: 100
STLB RFO       ACCESS:  5034  HIT:  4287  MISS:   747  HIT %: 85.1609  MISS %: 14.8391  AVERAGE MISS PENALTY: 100
STLB PREFETCH  ACCESS:     0  HIT:     0  MISS:     0  HIT %:     0  MISS %:     0  AVERAGE MISS PENALTY: 0
STLB WRITEBACK ACCESS:     0  HIT:     0  MISS:     0  HIT %:     0  MISS %:     0  AVERAGE MISS PENALTY: 0
STLB PREFETCH  REQUESTED:     0  ISSUED:     0  USEFUL:     0  USELESS:     0
 USEFUL LOAD PREFETCHES:          0 PREFETCH ISSUED TO LOWER LEVEL:          0  ACCURACY: -nan
 TIMELY PREFETCHES:          0 LATE PREFETCHES: 0 DROPPED PREFETCHES: 0
STLB AVERAGE MISS LATENCY: 100 cycles

STLB Set Associative Eviction Count : 0
STLB Priority 0 entries : 0
STLB Inter-Core Interference : 0
L1D TOTAL     ACCESS: 197127343  HIT: 41816637  MISS: 155310706  HIT %: 21.213  MISS %: 78.787  AVERAGE MISS PENALTY: 3.06838e+07
L1D LOAD      ACCESS: 66728596  HIT: 34416567  MISS: 32312029  HIT %: 51.5769  MISS %: 48.4231  AVERAGE MISS PENALTY: 1.47483e+08
L1D RFO       ACCESS: 2443543  HIT: 2377982  MISS: 65561  HIT %: 97.317  MISS %: 2.68303  AVERAGE MISS PENALTY: 419.121
L1D PREFETCH  ACCESS: 127955204  HIT: 5022088  MISS: 122933116  HIT %: 3.92488  MISS %: 96.0751  AVERAGE MISS PENALTY: 283.531
L1D WRITEBACK ACCESS:     0  HIT:     0  MISS:     0  HIT %:     0  MISS %:     0  AVERAGE MISS PENALTY: 0
L1D PREFETCH  REQUESTED: 131511799  ISSUED: 131349148  USEFUL: 3346150  USELESS: 119586960
 USEFUL LOAD PREFETCHES:    3346150 PREFETCH ISSUED TO LOWER LEVEL:  140490456  ACCURACY: 2.38176
 TIMELY PREFETCHES:    3346150 LATE PREFETCHES: 989522 DROPPED PREFETCHES: 162651
L1D AVERAGE MISS LATENCY: 273.626 cycles

L1D Set Associative Eviction Count : 0
L1D Priority 0 entries : 0
L1D Inter-Core Interference : 0
L1I TOTAL     ACCESS: 36077611  HIT: 36077598  MISS:    13  HIT %:   100  MISS %: 3.60334e-05  AVERAGE MISS PENALTY: 408.154
L1I LOAD      ACCESS: 36077611  HIT: 36077598  MISS:    13  HIT %:   100  MISS %: 3.60334e-05  AVERAGE MISS PENALTY: 408.154
L1I RFO       ACCESS:     0  HIT:     0  MISS:     0  HIT %:     0  MISS %:     0  AVERAGE MISS PENALTY: 0
L1I PREFETCH  ACCESS:     0  HIT:     0  MISS:     0  HIT %:     0  MISS %:     0  AVERAGE MISS PENALTY: 0
L1I WRITEBACK ACCESS:     0  HIT:     0  MISS:     0  HIT %:     0  MISS %:     0  AVERAGE MISS PENALTY: 0
L1I PREFETCH  REQUESTED:     0  ISSUED:     0  USEFUL:     0  USELESS:     0
 USEFUL LOAD PREFETCHES:          0 PREFETCH ISSUED TO LOWER LEVEL:          0  ACCURACY: -nan
 TIMELY PREFETCHES:          0 LATE PREFETCHES: 0 DROPPED PREFETCHES: 0
L1I AVERAGE MISS LATENCY: 408.154 cycles

L1I Set Associative Eviction Count : 0
L1I Priority 0 entries : 0
L1I Inter-Core Interference : 13
L2C TOTAL     ACCESS: 229792872  HIT: 8187023  MISS: 221605849  HIT %: 3.56278  MISS %: 96.4372  AVERAGE MISS PENALTY: 2.55486e+07
L2C LOAD      ACCESS: 32278618  HIT: 671817  MISS: 31606801  HIT %: 2.08131  MISS %: 97.9187  AVERAGE MISS PENALTY: 1.79128e+08
L2C RFO       ACCESS: 65561  HIT:    55  MISS: 65506  HIT %: 0.0838913  MISS %: 99.9161  AVERAGE MISS PENALTY: 404.239
L2C PREFETCH  ACCESS: 197244905  HIT: 7311531  MISS: 189933374  HIT %: 3.70683  MISS %: 96.2932  AVERAGE MISS PENALTY: 275.702
L2C WRITEBACK ACCESS: 203788  HIT: 203620  MISS:   168  HIT %: 99.9176  MISS %: 0.0824386  AVERAGE MISS PENALTY: 0
L2C PREFETCH  REQUESTED: 298009288  ISSUED: 298003357  USEFUL: 542053  USELESS: 189391421
 USEFUL LOAD PREFETCHES:     542053 PREFETCH ISSUED TO LOWER LEVEL:  194248678  ACCURACY: 0.279051
 TIMELY PREFETCHES:     542053 LATE PREFETCHES: 1245344 DROPPED PREFETCHES: 5931
L2C AVERAGE MISS LATENCY: 269.658 cycles

L2C Set Associative Eviction Count : 0
L2C Priority 0 entries : 0
L2C Inter-Core Interference : 0
LLC0 TOTAL     ACCESS: 28616086  HIT: 13276876  MISS: 15339210  HIT %: 46.3965  MISS %: 53.6035  AVERAGE MISS PENALTY: 472.416
LLC0 LOAD      ACCESS: 3960132  HIT: 1961421  MISS: 1998711  HIT %: 49.5292  MISS %: 50.4708  AVERAGE MISS PENALTY: 458.32
LLC0 RFO       ACCESS:  8188  HIT:  1122  MISS:  7066  HIT %: 13.703  MISS %: 86.297  AVERAGE MISS PENALTY: 402.974
LLC0 PREFETCH  ACCESS: 24630785  HIT: 11312906  MISS: 13317879  HIT %: 45.9299  MISS %: 54.0701  AVERAGE MISS PENALTY: 475.12
LLC0 WRITEBACK ACCESS: 16981  HIT:  1427  MISS: 15554  HIT %: 8.40351  MISS %: 91.5965  AVERAGE MISS PENALTY: 0
LLC0 PREFETCH  REQUESTED:     0  ISSUED:     0  USEFUL: 5422331  USELESS: 25934286
 USEFUL LOAD PREFETCHES:    5422331 PREFETCH ISSUED TO LOWER LEVEL:  106591292  ACCURACY: 5.08703
 TIMELY PREFETCHES:    5422331 LATE PREFETCHES: 0 DROPPED PREFETCHES: 0
LLC0 AVERAGE MISS LATENCY: 472.416 cycles

LLC0 Set Associative Eviction Count : 0
LLC0 Priority 0 entries : 12288
LLC0 Inter-Core Interference : 31827780
LLC1 TOTAL     ACCESS: 29082364  HIT: 13451506  MISS: 15630858  HIT %: 46.2531  MISS %: 53.7469  AVERAGE MISS PENALTY: 467.997
LLC1 LOAD      ACCESS: 3898978  HIT: 1912163  MISS: 1986815  HIT %: 49.0427  MISS %: 50.9573  AVERAGE MISS PENALTY: 453.676
LLC1 RFO       ACCESS:  8191  HIT:  1044  MISS:  7147  HIT %: 12.7457  MISS %: 87.2543  AVERAGE MISS PENALTY: 415.409
LLC1 PREFETCH  ACCESS: 25158209  HIT: 11536960  MISS: 13621249  HIT %: 45.8576  MISS %: 54.1424  AVERAGE MISS PENALTY: 470.651
LLC1 WRITEBACK ACCESS: 16986  HIT:  1339  MISS: 15647  HIT %: 7.88296  MISS %: 92.117  AVERAGE MISS PENALTY: 0
LLC1 PREFETCH  REQUESTED:     0  ISSUED:     0  USEFUL: 5380797  USELESS: 26529649
 USEFUL LOAD PREFETCHES:    5380797 PREFETCH ISSUED TO LOWER LEVEL:  109022934  ACCURACY: 4.93547
 TIMELY PREFETCHES:    5380797 LATE PREFETCHES: 0 DROPPED PREFETCHES: 0
LLC1 AVERAGE MISS LATENCY: 467.997 cycles

LLC1 Set Associative Eviction Count : 0
LLC1 Priority 0 entries : 12288
LLC1 Inter-Core Interference : 32364120
LLC2 TOTAL     ACCESS: 28680949  HIT: 13259928  MISS: 15421021  HIT %: 46.2325  MISS %: 53.7675  AVERAGE MISS PENALTY: 475.712
LLC2 LOAD      ACCESS: 3713006  HIT: 1796450  MISS: 1916556  HIT %: 48.3826  MISS %: 51.6174  AVERAGE MISS PENALTY: 457.315
LLC2 RFO       ACCESS:  8189  HIT:  1112  MISS:  7077  HIT %: 13.5792  MISS %: 86.4208  AVERAGE MISS PENALTY: 488.158
LLC2 PREFETCH  ACCESS: 24942769  HIT: 11460952  MISS: 13481817  HIT %: 45.949  MISS %: 54.051  AVERAGE MISS PENALTY: 478.87
LLC2 WRITEBACK ACCESS: 16985  HIT:  1414  MISS: 15571  HIT %: 8.32499  MISS %: 91.675  AVERAGE MISS PENALTY: 0
LLC2 PREFETCH  REQUESTED:     0  ISSUED:     0  USEFUL: 5344541  USELESS: 26192430
 USEFUL LOAD PREFETCHES:    5344541 PREFETCH ISSUED TO LOWER LEVEL:  107887897  ACCURACY: 4.95379
 TIMELY PREFETCHES:    5344541 LATE PREFETCHES: 0 DROPPED PREFETCHES: 0
LLC2 AVERAGE MISS LATENCY: 460.726 cycles

LLC2 Set Associative Eviction Count : 0
LLC2 Priority 0 entries : 12288
LLC2 Inter-Core Interference : 31888695
LLC3 TOTAL     ACCESS: 27883276  HIT: 12917283  MISS: 14965993  HIT %: 46.3263  MISS %: 53.6737  AVERAGE MISS PENALTY: 456.547
LLC3 LOAD      ACCESS: 3822949  HIT: 1880452  MISS: 1942497  HIT %: 49.1885  MISS %: 50.8115  AVERAGE MISS PENALTY: 452.809
LLC3 RFO       ACCESS:  8188  HIT:  1152  MISS:  7036  HIT %: 14.0694  MISS %: 85.9306  AVERAGE MISS PENALTY: 466.152
LLC3 PREFETCH  ACCESS: 24035154  HIT: 11034281  MISS: 13000873  HIT %: 45.9089  MISS %: 54.0911  AVERAGE MISS PENALTY: 457.648
LLC3 WRITEBACK ACCESS: 16985  HIT:  1398  MISS: 15587  HIT %: 8.23079  MISS %: 91.7692  AVERAGE MISS PENALTY: 0
LLC3 PREFETCH  REQUESTED:     0  ISSUED:     0  USEFUL: 5336280  USELESS: 25165207
 USEFUL LOAD PREFETCHES:    5336280 PREFETCH ISSUED TO LOWER LEVEL:  104021079  ACCURACY: 5.13
 TIMELY PREFETCHES:    5336280 LATE PREFETCHES: 0 DROPPED PREFETCHES: 0
LLC3 AVERAGE MISS LATENCY: 456.547 cycles

LLC3 Set Associative Eviction Count : 0
LLC3 Priority 0 entries : 12288
LLC3 Inter-Core Interference : 31068065
LLC4 TOTAL     ACCESS: 27464843  HIT: 12781029  MISS: 14683814  HIT %: 46.536  MISS %: 53.464  AVERAGE MISS PENALTY: 417.261
LLC4 LOAD      ACCESS: 3819395  HIT: 1855583  MISS: 1963812  HIT %: 48.5832  MISS %: 51.4168  AVERAGE MISS PENALTY: 400.952
LLC4 RFO       ACCESS:  8188  HIT:  1161  MISS:  7027  HIT %: 14.1793  MISS %: 85.8207  AVERAGE MISS PENALTY: 386.28
LLC4 PREFETCH  ACCESS: 23620275  HIT: 10922835  MISS: 12697440  HIT %: 46.2435  MISS %: 53.7565  AVERAGE MISS PENALTY: 420.311
LLC4 WRITEBACK ACCESS: 16985  HIT:  1450  MISS: 15535  HIT %: 8.53694  MISS %: 91.4631  AVERAGE MISS PENALTY: 0
LLC4 PREFETCH  REQUESTED:     0  ISSUED:     0  USEFUL: 5317800  USELESS: 24700953
 USEFUL LOAD PREFETCHES:    5317800 PREFETCH ISSUED TO LOWER LEVEL:  101587947  ACCURACY: 5.23468
 TIMELY PREFETCHES:    5317800 LATE PREFETCHES: 0 DROPPED PREFETCHES: 0
LLC4 AVERAGE MISS LATENCY: 417.261 cycles

LLC4 Set Associative Eviction Count : 0
LLC4 Priority 0 entries : 12288
LLC4 Inter-Core Interference : 30667449
LLC5 TOTAL     ACCESS: 27113454  HIT: 12744806  MISS: 14368648  HIT %: 47.0055  MISS %: 52.9945  AVERAGE MISS PENALTY: 418.721
LLC5 LOAD      ACCESS: 3710905  HIT: 1798322  MISS: 1912583  HIT %: 48.4605  MISS %: 51.5395  AVERAGE MISS PENALTY: 384.293
LLC5 RFO       ACCESS:  8188  HIT:  1065  MISS:  7123  HIT %: 13.0068  MISS %: 86.9932  AVERAGE MISS PENALTY: 395.686
LLC5 PREFETCH  ACCESS: 23377376  HIT: 10944050  MISS: 12433326  HIT %: 46.8147  MISS %: 53.1853  AVERAGE MISS PENALTY: 424.556
LLC5 WRITEBACK ACCESS: 16985  HIT:  1369  MISS: 15616  HIT %: 8.06005  MISS %: 91.9399  AVERAGE MISS PENALTY: 0
LLC5 PREFETCH  REQUESTED:     0  ISSUED:     0  USEFUL: 5207286  USELESS: 24549335
 USEFUL LOAD PREFETCHES:    5207286 PREFETCH ISSUED TO LOWER LEVEL:   99532460  ACCURACY: 5.23175
 TIMELY PREFETCHES:    5207286 LATE PREFETCHES: 0 DROPPED PREFETCHES: 0
LLC5 AVERAGE MISS LATENCY: 402.637 cycles

LLC5 Set Associative Eviction Count : 0
LLC5 Priority 0 entries : 12288
LLC5 Inter-Core Interference : 30321519
LLC6 TOTAL     ACCESS: 26752366  HIT: 12712141  MISS: 14040225  HIT %: 47.5178  MISS %: 52.4822  AVERAGE MISS PENALTY: 408.875
LLC6 LOAD      ACCESS: 3952908  HIT: 1981292  MISS: 1971616  HIT %: 50.1224  MISS %: 49.8776  AVERAGE MISS PENALTY: 399.601
LLC6 RFO       ACCESS:  8187  HIT:  1107  MISS:  7080  HIT %: 13.5214  MISS %: 86.4786  AVERAGE MISS PENALTY: 423.009
LLC6 PREFETCH  ACCESS: 22774287  HIT: 10728315  MISS: 12045972  HIT %: 47.1071  MISS %: 52.8929  AVERAGE MISS PENALTY: 410.913
LLC6 WRITEBACK ACCESS: 16984  HIT:  1427  MISS: 15557  HIT %: 8.40203  MISS %: 91.598  AVERAGE MISS PENALTY: 0
LLC6 PREFETCH  REQUESTED:     0  ISSUED:     0  USEFUL: 5257087  USELESS: 24046168
 USEFUL LOAD PREFETCHES:    5257087 PREFETCH ISSUED TO LOWER LEVEL:   96384061  ACCURACY: 5.45431
 TIMELY PREFETCHES:    5257087 LATE PREFETCHES: 0 DROPPED PREFETCHES: 0
LLC6 AVERAGE MISS LATENCY: 408.875 cycles

LLC6 Set Associative Eviction Count : 0
LLC6 Priority 0 entries : 12288
LLC6 Inter-Core Interference : 30148794
LLC7 TOTAL     ACCESS: 26148218  HIT: 12553466  MISS: 13594752  HIT %: 48.0089  MISS %: 51.9911  AVERAGE MISS PENALTY: 395.888
LLC7 LOAD      ACCESS: 3765513  HIT: 1844445  MISS: 1921068  HIT %: 48.9826  MISS %: 51.0174  AVERAGE MISS PENALTY: 383.766
LLC7 RFO       ACCESS:  8187  HIT:  1175  MISS:  7012  HIT %: 14.352  MISS %: 85.648  AVERAGE MISS PENALTY: 401.381
LLC7 PREFETCH  ACCESS: 22357534  HIT: 10706377  MISS: 11651157  HIT %: 47.8871  MISS %: 52.1129  AVERAGE MISS PENALTY: 398.41
LLC7 WRITEBACK ACCESS: 16984  HIT:  1469  MISS: 15515  HIT %: 8.64932  MISS %: 91.3507  AVERAGE MISS PENALTY: 0
LLC7 PREFETCH  REQUESTED:     0  ISSUED:     0  USEFUL: 5245738  USELESS: 23854166
 USEFUL LOAD PREFETCHES:    5245738 PREFETCH ISSUED TO LOWER LEVEL:   93237637  ACCURACY: 5.6262
 TIMELY PREFETCHES:    5245738 LATE PREFETCHES: 0 DROPPED PREFETCHES: 0
LLC7 AVERAGE MISS LATENCY: 395.888 cycles

LLC7 Set Associative Eviction Count : 0
LLC7 Priority 0 entries : 12288
LLC7 Inter-Core Interference : 29861437
ROI Average ROB Stall Cycles:	215.632
ROI Total ROB Stalls Cycles:	9208466599
ROI TOTAL ROB counter      :	42704644
ROI Average Load ROB Stall Cycles:	257.482
ROI Total Load ROB Stalls Cycle  :	9061568872
ROI Total Load ROB stalls Counter:	35193002
Major fault: 0 Minor fault: 34808








Interconnect Stats 
LINK 0 BW : 0LINK 1 BW : 0LINK 2 BW : 0LINK 3 BW : 0LINK 4 BW : 0LINK 5 BW : 0LINK 6 BW : 0LINK 7 BW : 0
DRAM Statistics
 CHANNEL 0
 RQ ROW_BUFFER_HIT: 129639606  ROW_BUFFER_MISS: 345767658
 DBUS_CONGESTED: 205349750
 WQ ROW_BUFFER_HIT: 37191  ROW_BUFFER_MISS: 506533  FULL:     0

 CHANNEL 1
 RQ ROW_BUFFER_HIT: 126091272  ROW_BUFFER_MISS: 342012492
 DBUS_CONGESTED: 205349750
 WQ ROW_BUFFER_HIT: 36952  ROW_BUFFER_MISS: 506854  FULL:     0

 AVG_CONGESTED_CYCLE: 4
DRAM PAGES: 2097152
Allocated PAGES: 278464
L2C destructor called
L1D destructor called
L1I destructor called
STLB destructor called
DTLB destructor called
ITLB destructor called
L2C destructor called
L1D destructor called
L1I destructor called
STLB destructor called
DTLB destructor called
ITLB destructor called
L2C destructor called
L1D destructor called
L1I destructor called
STLB destructor called
DTLB destructor called
ITLB destructor called
L2C destructor called
L1D destructor called
L1I destructor called
STLB destructor called
DTLB destructor called
ITLB destructor called
L2C destructor called
L1D destructor called
L1I destructor called
STLB destructor called
DTLB destructor called
ITLB destructor called
L2C destructor called
L1D destructor called
L1I destructor called
STLB destructor called
DTLB destructor called
ITLB destructor called
L2C destructor called
L1D destructor called
L1I destructor called
STLB destructor called
DTLB destructor called
ITLB destructor called
L2C destructor called
L1D destructor called
L1I destructor called
STLB destructor called
DTLB destructor called
ITLB destructor called
