
*** ChampSim Multicore Out-of-Order Simulator ***

Warmup Instructions: 200000000
Simulation Instructions: 200000000
Number of CPUs: 8
threads:1

L1I Configuration:
L1I_SET:64
L1I_WAY:8
L1I_RQ_SIZE:64
L1I_WQ_SIZE:64
L1I_PQ_SIZE:8
L1I_MSHR_SIZE:8

L1D Configuration:
L1D_SET:64
L1D_WAY:12
L1D_RQ_SIZE:64
L1D_WQ_SIZE:64
L1D_PQ_SIZE:8
L1D_MSHR_SIZE:16

L2C Configuration:
L2C_SET:1024
L2C_WAY:8
L2C_RQ_SIZE:32
L2C_WQ_SIZE:32
L2C_PQ_SIZE:16
L2C_MSHR_SIZE:32

LLC Configuration:
LLC_SET:2048
LLC_WAY:12
LLC SLICES:8
LLC_RQ_SIZE:64
LLC_WQ_SIZE:64
LLC_PQ_SIZE:32
LLC_MSHR_SIZE:64

Interconnect OFF
Attacker deprioritize is: OFF
Off-chip DRAM Size: 8192 MB Channels: 2 Width: 64-bit Data Rate: 3200 MT/s
PAGE SIZE in KB: 4.000000 
PAGE SIZE in MB: 0.003906 
PAGE offset in bits: 12 
CEASER-S_LLC:0
MIRAGE : 1
CEASER_LATENCY:3
REMAP : OFF
Partitions : 1
Multi-Step : OFF
BFS : OFF

CPU 0 runs /home/anubhav/gap/sssp-14.trace.gz
CPU 1 runs /home/anubhav/gap/sssp-14.trace.gz
CPU 2 runs /home/anubhav/gap/sssp-14.trace.gz
CPU 3 runs /home/anubhav/gap/sssp-14.trace.gz
CPU 4 runs /home/anubhav/gap/sssp-14.trace.gz
CPU 5 runs /home/anubhav/gap/sssp-14.trace.gz
CPU 6 runs /home/anubhav/gap/sssp-14.trace.gz
CPU 7 runs /home/anubhav/gap/sssp-14.trace.gz
CPU 0 Bimodal branch predictor
Initialize Hawkeye state
Initialize Hawkeye state
Initialize Hawkeye state
Initialize Hawkeye state
Initialize Hawkeye state
Initialize Hawkeye state
Initialize Hawkeye state
Initialize Hawkeye state
CPU 1 Bimodal branch predictor
Initialize Hawkeye state
Initialize Hawkeye state
Initialize Hawkeye state
Initialize Hawkeye state
Initialize Hawkeye state
Initialize Hawkeye state
Initialize Hawkeye state
Initialize Hawkeye state
CPU 2 Bimodal branch predictor
Initialize Hawkeye state
Initialize Hawkeye state
Initialize Hawkeye state
Initialize Hawkeye state
Initialize Hawkeye state
Initialize Hawkeye state
Initialize Hawkeye state
Initialize Hawkeye state
CPU 3 Bimodal branch predictor
Initialize Hawkeye state
Initialize Hawkeye state
Initialize Hawkeye state
Initialize Hawkeye state
Initialize Hawkeye state
Initialize Hawkeye state
Initialize Hawkeye state
Initialize Hawkeye state
CPU 4 Bimodal branch predictor
Initialize Hawkeye state
Initialize Hawkeye state
Initialize Hawkeye state
Initialize Hawkeye state
Initialize Hawkeye state
Initialize Hawkeye state
Initialize Hawkeye state
Initialize Hawkeye state
CPU 5 Bimodal branch predictor
Initialize Hawkeye state
Initialize Hawkeye state
Initialize Hawkeye state
Initialize Hawkeye state
Initialize Hawkeye state
Initialize Hawkeye state
Initialize Hawkeye state
Initialize Hawkeye state
CPU 6 Bimodal branch predictor
Initialize Hawkeye state
Initialize Hawkeye state
Initialize Hawkeye state
Initialize Hawkeye state
Initialize Hawkeye state
Initialize Hawkeye state
Initialize Hawkeye state
Initialize Hawkeye state
CPU 7 Bimodal branch predictor
Initialize Hawkeye state
Initialize Hawkeye state
Initialize Hawkeye state
Initialize Hawkeye state
Initialize Hawkeye state
Initialize Hawkeye state
Initialize Hawkeye state
Initialize Hawkeye state
FILL
Heartbeat CPU 0 instructions: 10000000 cycles: 7265353 heartbeat IPC: 1.3764 cumulative IPC: 1.3764 (Simulation time: 0 hr 33 min 13 sec) 
 Total Blocks : 196608 Invalid Blocks : 117 Valid Blocks : 196491
 Total Tags : 491520 Threshold : 12288 Invalid Tags : 196728 Pr0 Tags : 98301 Pr1 Tags : 196491 num_pr0 : 12287
 SAE Count : 0
 Inter-Core Inteference in Data Store : 1107515
Heartbeat CPU 1 instructions: 10000000 cycles: 7266497 heartbeat IPC: 1.37618 cumulative IPC: 1.37618 (Simulation time: 0 hr 33 min 14 sec) 
 Total Blocks : 196608 Invalid Blocks : 117 Valid Blocks : 196491
 Total Tags : 491520 Threshold : 12288 Invalid Tags : 196730 Pr0 Tags : 98299 Pr1 Tags : 196491 num_pr0 : 12287
 SAE Count : 0
 Inter-Core Inteference in Data Store : 1107640
Heartbeat CPU 2 instructions: 10000000 cycles: 7268429 heartbeat IPC: 1.37581 cumulative IPC: 1.37581 (Simulation time: 0 hr 33 min 14 sec) 
 Total Blocks : 196608 Invalid Blocks : 116 Valid Blocks : 196492
 Total Tags : 491520 Threshold : 12288 Invalid Tags : 196726 Pr0 Tags : 98302 Pr1 Tags : 196492 num_pr0 : 12288
 SAE Count : 0
 Inter-Core Inteference in Data Store : 1107801
Heartbeat CPU 3 instructions: 10000000 cycles: 7268532 heartbeat IPC: 1.37579 cumulative IPC: 1.37579 (Simulation time: 0 hr 33 min 14 sec) 
 Total Blocks : 196608 Invalid Blocks : 116 Valid Blocks : 196492
 Total Tags : 491520 Threshold : 12288 Invalid Tags : 196726 Pr0 Tags : 98302 Pr1 Tags : 196492 num_pr0 : 12288
 SAE Count : 0
 Inter-Core Inteference in Data Store : 1107810
Heartbeat CPU 5 instructions: 10000000 cycles: 7268664 heartbeat IPC: 1.37577 cumulative IPC: 1.37577 (Simulation time: 0 hr 33 min 14 sec) 
 Total Blocks : 196608 Invalid Blocks : 116 Valid Blocks : 196492
 Total Tags : 491520 Threshold : 12288 Invalid Tags : 196727 Pr0 Tags : 98301 Pr1 Tags : 196492 num_pr0 : 12288
 SAE Count : 0
 Inter-Core Inteference in Data Store : 1107828
Heartbeat CPU 6 instructions: 10000000 cycles: 7268746 heartbeat IPC: 1.37575 cumulative IPC: 1.37575 (Simulation time: 0 hr 33 min 14 sec) 
 Total Blocks : 196608 Invalid Blocks : 116 Valid Blocks : 196492
 Total Tags : 491520 Threshold : 12288 Invalid Tags : 196727 Pr0 Tags : 98301 Pr1 Tags : 196492 num_pr0 : 12288
 SAE Count : 0
 Inter-Core Inteference in Data Store : 1107833
Heartbeat CPU 4 instructions: 10000000 cycles: 7268753 heartbeat IPC: 1.37575 cumulative IPC: 1.37575 (Simulation time: 0 hr 33 min 14 sec) 
 Total Blocks : 196608 Invalid Blocks : 116 Valid Blocks : 196492
 Total Tags : 491520 Threshold : 12288 Invalid Tags : 196727 Pr0 Tags : 98301 Pr1 Tags : 196492 num_pr0 : 12288
 SAE Count : 0
 Inter-Core Inteference in Data Store : 1107835
Heartbeat CPU 7 instructions: 10000000 cycles: 7269045 heartbeat IPC: 1.3757 cumulative IPC: 1.3757 (Simulation time: 0 hr 33 min 14 sec) 
 Total Blocks : 196608 Invalid Blocks : 116 Valid Blocks : 196492
 Total Tags : 491520 Threshold : 12288 Invalid Tags : 196727 Pr0 Tags : 98301 Pr1 Tags : 196492 num_pr0 : 12288
 SAE Count : 0
 Inter-Core Inteference in Data Store : 1107865
Heartbeat CPU 0 instructions: 20000002 cycles: 15638605 heartbeat IPC: 1.19428 cumulative IPC: 1.27889 (Simulation time: 1 hr 11 min 19 sec) 
 Total Blocks : 196608 Invalid Blocks : 0 Valid Blocks : 196608
 Total Tags : 491520 Threshold : 12288 Invalid Tags : 196609 Pr0 Tags : 98303 Pr1 Tags : 196608 num_pr0 : 12288
 SAE Count : 0
 Inter-Core Inteference in Data Store : 2797478
Heartbeat CPU 1 instructions: 20000002 cycles: 15643707 heartbeat IPC: 1.19372 cumulative IPC: 1.27847 (Simulation time: 1 hr 11 min 20 sec) 
 Total Blocks : 196608 Invalid Blocks : 0 Valid Blocks : 196608
 Total Tags : 491520 Threshold : 12288 Invalid Tags : 196608 Pr0 Tags : 98304 Pr1 Tags : 196608 num_pr0 : 12288
 SAE Count : 0
 Inter-Core Inteference in Data Store : 2799636
Heartbeat CPU 2 instructions: 20000002 cycles: 15649362 heartbeat IPC: 1.19318 cumulative IPC: 1.27801 (Simulation time: 1 hr 11 min 22 sec) 
 Total Blocks : 196608 Invalid Blocks : 0 Valid Blocks : 196608
 Total Tags : 491520 Threshold : 12288 Invalid Tags : 196608 Pr0 Tags : 98304 Pr1 Tags : 196608 num_pr0 : 12288
 SAE Count : 0
 Inter-Core Inteference in Data Store : 2802356
Heartbeat CPU 3 instructions: 20000002 cycles: 15650004 heartbeat IPC: 1.19311 cumulative IPC: 1.27796 (Simulation time: 1 hr 11 min 23 sec) 
 Total Blocks : 196608 Invalid Blocks : 0 Valid Blocks : 196608
 Total Tags : 491520 Threshold : 12288 Invalid Tags : 196608 Pr0 Tags : 98304 Pr1 Tags : 196608 num_pr0 : 12288
 SAE Count : 0
 Inter-Core Inteference in Data Store : 2802696
Heartbeat CPU 4 instructions: 20000002 cycles: 15650952 heartbeat IPC: 1.193 cumulative IPC: 1.27788 (Simulation time: 1 hr 11 min 23 sec) 
 Total Blocks : 196608 Invalid Blocks : 0 Valid Blocks : 196608
 Total Tags : 491520 Threshold : 12288 Invalid Tags : 196608 Pr0 Tags : 98304 Pr1 Tags : 196608 num_pr0 : 12288
 SAE Count : 0
 Inter-Core Inteference in Data Store : 2803140
Heartbeat CPU 5 instructions: 20000002 cycles: 15651574 heartbeat IPC: 1.1929 cumulative IPC: 1.27783 (Simulation time: 1 hr 11 min 24 sec) 
 Total Blocks : 196608 Invalid Blocks : 0 Valid Blocks : 196608
 Total Tags : 491520 Threshold : 12288 Invalid Tags : 196609 Pr0 Tags : 98303 Pr1 Tags : 196608 num_pr0 : 12288
 SAE Count : 0
 Inter-Core Inteference in Data Store : 2803467
Heartbeat CPU 6 instructions: 20000002 cycles: 15652960 heartbeat IPC: 1.19272 cumulative IPC: 1.27771 (Simulation time: 1 hr 11 min 24 sec) 
 Total Blocks : 196608 Invalid Blocks : 0 Valid Blocks : 196608
 Total Tags : 491520 Threshold : 12288 Invalid Tags : 196608 Pr0 Tags : 98304 Pr1 Tags : 196608 num_pr0 : 12288
 SAE Count : 0
 Inter-Core Inteference in Data Store : 2804094
Heartbeat CPU 7 instructions: 20000002 cycles: 15653945 heartbeat IPC: 1.19262 cumulative IPC: 1.27763 (Simulation time: 1 hr 11 min 25 sec) 
 Total Blocks : 196608 Invalid Blocks : 0 Valid Blocks : 196608
 Total Tags : 491520 Threshold : 12288 Invalid Tags : 196608 Pr0 Tags : 98304 Pr1 Tags : 196608 num_pr0 : 12288
 SAE Count : 0
 Inter-Core Inteference in Data Store : 2804509
Heartbeat CPU 0 instructions: 30000000 cycles: 23240959 heartbeat IPC: 1.31538 cumulative IPC: 1.29082 (Simulation time: 1 hr 58 min 22 sec) 
 Total Blocks : 196608 Invalid Blocks : 0 Valid Blocks : 196608
 Total Tags : 491520 Threshold : 12288 Invalid Tags : 196608 Pr0 Tags : 98304 Pr1 Tags : 196608 num_pr0 : 12288
 SAE Count : 0
 Inter-Core Inteference in Data Store : 5050442
Heartbeat CPU 1 instructions: 30000000 cycles: 23252464 heartbeat IPC: 1.31427 cumulative IPC: 1.29019 (Simulation time: 1 hr 58 min 26 sec) 
 Total Blocks : 196608 Invalid Blocks : 0 Valid Blocks : 196608
 Total Tags : 491520 Threshold : 12288 Invalid Tags : 196608 Pr0 Tags : 98304 Pr1 Tags : 196608 num_pr0 : 12288
 SAE Count : 0
 Inter-Core Inteference in Data Store : 5053295
Heartbeat CPU 2 instructions: 30000000 cycles: 23260024 heartbeat IPC: 1.31395 cumulative IPC: 1.28977 (Simulation time: 1 hr 58 min 30 sec) 
 Total Blocks : 196608 Invalid Blocks : 0 Valid Blocks : 196608
 Total Tags : 491520 Threshold : 12288 Invalid Tags : 196609 Pr0 Tags : 98303 Pr1 Tags : 196608 num_pr0 : 12288
 SAE Count : 0
 Inter-Core Inteference in Data Store : 5055788
Heartbeat CPU 3 instructions: 30000000 cycles: 23261416 heartbeat IPC: 1.31382 cumulative IPC: 1.28969 (Simulation time: 1 hr 58 min 31 sec) 
 Total Blocks : 196608 Invalid Blocks : 0 Valid Blocks : 196608
 Total Tags : 491520 Threshold : 12288 Invalid Tags : 196608 Pr0 Tags : 98304 Pr1 Tags : 196608 num_pr0 : 12288
 SAE Count : 0
 Inter-Core Inteference in Data Store : 5056268
Heartbeat CPU 4 instructions: 30000000 cycles: 23262658 heartbeat IPC: 1.31377 cumulative IPC: 1.28962 (Simulation time: 1 hr 58 min 31 sec) 
 Total Blocks : 196608 Invalid Blocks : 0 Valid Blocks : 196608
 Total Tags : 491520 Threshold : 12288 Invalid Tags : 196608 Pr0 Tags : 98304 Pr1 Tags : 196608 num_pr0 : 12288
 SAE Count : 0
 Inter-Core Inteference in Data Store : 5056765
Heartbeat CPU 5 instructions: 30000000 cycles: 23266809 heartbeat IPC: 1.31316 cumulative IPC: 1.28939 (Simulation time: 1 hr 58 min 33 sec) 
 Total Blocks : 196608 Invalid Blocks : 0 Valid Blocks : 196608
 Total Tags : 491520 Threshold : 12288 Invalid Tags : 196609 Pr0 Tags : 98303 Pr1 Tags : 196608 num_pr0 : 12288
 SAE Count : 0
 Inter-Core Inteference in Data Store : 5058764
Heartbeat CPU 6 instructions: 30000000 cycles: 23270099 heartbeat IPC: 1.31283 cumulative IPC: 1.28921 (Simulation time: 1 hr 58 min 35 sec) 
 Total Blocks : 196608 Invalid Blocks : 0 Valid Blocks : 196608
 Total Tags : 491520 Threshold : 12288 Invalid Tags : 196608 Pr0 Tags : 98304 Pr1 Tags : 196608 num_pr0 : 12288
 SAE Count : 0
 Inter-Core Inteference in Data Store : 5060430
Heartbeat CPU 7 instructions: 30000000 cycles: 23270580 heartbeat IPC: 1.31292 cumulative IPC: 1.28918 (Simulation time: 1 hr 58 min 35 sec) 
 Total Blocks : 196608 Invalid Blocks : 0 Valid Blocks : 196608
 Total Tags : 491520 Threshold : 12288 Invalid Tags : 196608 Pr0 Tags : 98304 Pr1 Tags : 196608 num_pr0 : 12288
 SAE Count : 0
 Inter-Core Inteference in Data Store : 5060648
Heartbeat CPU 0 instructions: 40000002 cycles: 30376462 heartbeat IPC: 1.40144 cumulative IPC: 1.31681 (Simulation time: 2 hr 47 min 54 sec) 
 Total Blocks : 196608 Invalid Blocks : 0 Valid Blocks : 196608
 Total Tags : 491520 Threshold : 12288 Invalid Tags : 196608 Pr0 Tags : 98304 Pr1 Tags : 196608 num_pr0 : 12288
 SAE Count : 0
 Inter-Core Inteference in Data Store : 7333670
Heartbeat CPU 1 instructions: 40000002 cycles: 30394795 heartbeat IPC: 1.4001 cumulative IPC: 1.31601 (Simulation time: 2 hr 48 min 3 sec) 
 Total Blocks : 196608 Invalid Blocks : 0 Valid Blocks : 196608
 Total Tags : 491520 Threshold : 12288 Invalid Tags : 196608 Pr0 Tags : 98304 Pr1 Tags : 196608 num_pr0 : 12288
 SAE Count : 0
 Inter-Core Inteference in Data Store : 7340639
Heartbeat CPU 2 instructions: 40000002 cycles: 30403052 heartbeat IPC: 1.39997 cumulative IPC: 1.31566 (Simulation time: 2 hr 48 min 7 sec) 
 Total Blocks : 196608 Invalid Blocks : 0 Valid Blocks : 196608
 Total Tags : 491520 Threshold : 12288 Invalid Tags : 196608 Pr0 Tags : 98304 Pr1 Tags : 196608 num_pr0 : 12288
 SAE Count : 0
 Inter-Core Inteference in Data Store : 7343716
Heartbeat CPU 3 instructions: 40000002 cycles: 30405184 heartbeat IPC: 1.39982 cumulative IPC: 1.31557 (Simulation time: 2 hr 48 min 8 sec) 
 Total Blocks : 196608 Invalid Blocks : 0 Valid Blocks : 196608
 Total Tags : 491520 Threshold : 12288 Invalid Tags : 196608 Pr0 Tags : 98304 Pr1 Tags : 196608 num_pr0 : 12288
 SAE Count : 0
 Inter-Core Inteference in Data Store : 7344584
Heartbeat CPU 4 instructions: 40000002 cycles: 30407359 heartbeat IPC: 1.39964 cumulative IPC: 1.31547 (Simulation time: 2 hr 48 min 9 sec) 
 Total Blocks : 196608 Invalid Blocks : 0 Valid Blocks : 196608
 Total Tags : 491520 Threshold : 12288 Invalid Tags : 196608 Pr0 Tags : 98304 Pr1 Tags : 196608 num_pr0 : 12288
 SAE Count : 0
 Inter-Core Inteference in Data Store : 7345459
Heartbeat CPU 5 instructions: 40000002 cycles: 30414671 heartbeat IPC: 1.39902 cumulative IPC: 1.31515 (Simulation time: 2 hr 48 min 14 sec) 
 Total Blocks : 196608 Invalid Blocks : 0 Valid Blocks : 196608
 Total Tags : 491520 Threshold : 12288 Invalid Tags : 196608 Pr0 Tags : 98304 Pr1 Tags : 196608 num_pr0 : 12288
 SAE Count : 0
 Inter-Core Inteference in Data Store : 7348412
Heartbeat CPU 6 instructions: 40000002 cycles: 30419556 heartbeat IPC: 1.39871 cumulative IPC: 1.31494 (Simulation time: 2 hr 48 min 17 sec) 
 Total Blocks : 196608 Invalid Blocks : 0 Valid Blocks : 196608
 Total Tags : 491520 Threshold : 12288 Invalid Tags : 196608 Pr0 Tags : 98304 Pr1 Tags : 196608 num_pr0 : 12288
 SAE Count : 0
 Inter-Core Inteference in Data Store : 7350166
Heartbeat CPU 7 instructions: 40000002 cycles: 30419781 heartbeat IPC: 1.39876 cumulative IPC: 1.31493 (Simulation time: 2 hr 48 min 17 sec) 
 Total Blocks : 196608 Invalid Blocks : 0 Valid Blocks : 196608
 Total Tags : 491520 Threshold : 12288 Invalid Tags : 196608 Pr0 Tags : 98304 Pr1 Tags : 196608 num_pr0 : 12288
 SAE Count : 0
 Inter-Core Inteference in Data Store : 7350245
Heartbeat CPU 0 instructions: 50000003 cycles: 37113062 heartbeat IPC: 1.48443 cumulative IPC: 1.34723 (Simulation time: 3 hr 42 min 43 sec) 
 Total Blocks : 196608 Invalid Blocks : 0 Valid Blocks : 196608
 Total Tags : 491520 Threshold : 12288 Invalid Tags : 196608 Pr0 Tags : 98304 Pr1 Tags : 196608 num_pr0 : 12288
 SAE Count : 0
 Inter-Core Inteference in Data Store : 9853596
Heartbeat CPU 1 instructions: 50000003 cycles: 37138566 heartbeat IPC: 1.48285 cumulative IPC: 1.34631 (Simulation time: 3 hr 42 min 53 sec) 
 Total Blocks : 196608 Invalid Blocks : 0 Valid Blocks : 196608
 Total Tags : 491520 Threshold : 12288 Invalid Tags : 196608 Pr0 Tags : 98304 Pr1 Tags : 196608 num_pr0 : 12288
 SAE Count : 0
 Inter-Core Inteference in Data Store : 9864314
Heartbeat CPU 2 instructions: 50000003 cycles: 37147079 heartbeat IPC: 1.48279 cumulative IPC: 1.346 (Simulation time: 3 hr 42 min 56 sec) 
 Total Blocks : 196608 Invalid Blocks : 0 Valid Blocks : 196608
 Total Tags : 491520 Threshold : 12288 Invalid Tags : 196610 Pr0 Tags : 98302 Pr1 Tags : 196608 num_pr0 : 12287
 SAE Count : 0
 Inter-Core Inteference in Data Store : 9867507
Heartbeat CPU 3 instructions: 50000003 cycles: 37149683 heartbeat IPC: 1.48269 cumulative IPC: 1.34591 (Simulation time: 3 hr 42 min 57 sec) 
 Total Blocks : 196608 Invalid Blocks : 0 Valid Blocks : 196608
 Total Tags : 491520 Threshold : 12288 Invalid Tags : 196608 Pr0 Tags : 98304 Pr1 Tags : 196608 num_pr0 : 12288
 SAE Count : 0
 Inter-Core Inteference in Data Store : 9868498
Heartbeat CPU 4 instructions: 50000003 cycles: 37153377 heartbeat IPC: 1.48236 cumulative IPC: 1.34577 (Simulation time: 3 hr 42 min 58 sec) 
 Total Blocks : 196608 Invalid Blocks : 0 Valid Blocks : 196608
 Total Tags : 491520 Threshold : 12288 Invalid Tags : 196608 Pr0 Tags : 98304 Pr1 Tags : 196608 num_pr0 : 12288
 SAE Count : 0
 Inter-Core Inteference in Data Store : 9869779
Heartbeat CPU 5 instructions: 50000003 cycles: 37164306 heartbeat IPC: 1.48156 cumulative IPC: 1.34538 (Simulation time: 3 hr 43 min 2 sec) 
 Total Blocks : 196608 Invalid Blocks : 0 Valid Blocks : 196608
 Total Tags : 491520 Threshold : 12288 Invalid Tags : 196608 Pr0 Tags : 98304 Pr1 Tags : 196608 num_pr0 : 12288
 SAE Count : 0
 Inter-Core Inteference in Data Store : 9873020
Heartbeat CPU 6 instructions: 50000003 cycles: 37169762 heartbeat IPC: 1.48144 cumulative IPC: 1.34518 (Simulation time: 3 hr 43 min 4 sec) 
 Total Blocks : 196608 Invalid Blocks : 0 Valid Blocks : 196608
 Total Tags : 491520 Threshold : 12288 Invalid Tags : 196608 Pr0 Tags : 98304 Pr1 Tags : 196608 num_pr0 : 12288
 SAE Count : 0
 Inter-Core Inteference in Data Store : 9874565
Heartbeat CPU 7 instructions: 50000003 cycles: 37170923 heartbeat IPC: 1.48123 cumulative IPC: 1.34514 (Simulation time: 3 hr 43 min 4 sec) 
 Total Blocks : 196608 Invalid Blocks : 0 Valid Blocks : 196608
 Total Tags : 491520 Threshold : 12288 Invalid Tags : 196608 Pr0 Tags : 98304 Pr1 Tags : 196608 num_pr0 : 12288
 SAE Count : 0
 Inter-Core Inteference in Data Store : 9874894
Heartbeat CPU 0 instructions: 60000001 cycles: 43727930 heartbeat IPC: 1.51175 cumulative IPC: 1.37212 (Simulation time: 4 hr 33 min 18 sec) 
 Total Blocks : 196608 Invalid Blocks : 0 Valid Blocks : 196608
 Total Tags : 491520 Threshold : 12288 Invalid Tags : 196608 Pr0 Tags : 98304 Pr1 Tags : 196608 num_pr0 : 12288
 SAE Count : 0
 Inter-Core Inteference in Data Store : 11888433
Heartbeat CPU 1 instructions: 60000001 cycles: 43759253 heartbeat IPC: 1.51042 cumulative IPC: 1.37114 (Simulation time: 4 hr 33 min 35 sec) 
 Total Blocks : 196608 Invalid Blocks : 0 Valid Blocks : 196608
 Total Tags : 491520 Threshold : 12288 Invalid Tags : 196609 Pr0 Tags : 98303 Pr1 Tags : 196608 num_pr0 : 12288
 SAE Count : 0
 Inter-Core Inteference in Data Store : 11900234
Heartbeat CPU 2 instructions: 60000001 cycles: 43767666 heartbeat IPC: 1.51044 cumulative IPC: 1.37088 (Simulation time: 4 hr 33 min 41 sec) 
 Total Blocks : 196608 Invalid Blocks : 0 Valid Blocks : 196608
 Total Tags : 491520 Threshold : 12288 Invalid Tags : 196608 Pr0 Tags : 98304 Pr1 Tags : 196608 num_pr0 : 12288
 SAE Count : 0
 Inter-Core Inteference in Data Store : 11904110
Heartbeat CPU 3 instructions: 60000001 cycles: 43771391 heartbeat IPC: 1.51018 cumulative IPC: 1.37076 (Simulation time: 4 hr 33 min 43 sec) 
 Total Blocks : 196608 Invalid Blocks : 0 Valid Blocks : 196608
 Total Tags : 491520 Threshold : 12288 Invalid Tags : 196608 Pr0 Tags : 98304 Pr1 Tags : 196608 num_pr0 : 12288
 SAE Count : 0
 Inter-Core Inteference in Data Store : 11905756
Heartbeat CPU 4 instructions: 60000001 cycles: 43775545 heartbeat IPC: 1.51008 cumulative IPC: 1.37063 (Simulation time: 4 hr 33 min 45 sec) 
 Total Blocks : 196608 Invalid Blocks : 0 Valid Blocks : 196608
 Total Tags : 491520 Threshold : 12288 Invalid Tags : 196608 Pr0 Tags : 98304 Pr1 Tags : 196608 num_pr0 : 12288
 SAE Count : 0
 Inter-Core Inteference in Data Store : 11907936
Heartbeat CPU 5 instructions: 60000001 cycles: 43789699 heartbeat IPC: 1.50934 cumulative IPC: 1.37019 (Simulation time: 4 hr 33 min 55 sec) 
 Total Blocks : 196608 Invalid Blocks : 0 Valid Blocks : 196608
 Total Tags : 491520 Threshold : 12288 Invalid Tags : 196608 Pr0 Tags : 98304 Pr1 Tags : 196608 num_pr0 : 12288
 SAE Count : 0
 Inter-Core Inteference in Data Store : 11915322
Heartbeat CPU 6 instructions: 60000001 cycles: 43795709 heartbeat IPC: 1.50922 cumulative IPC: 1.37 (Simulation time: 4 hr 33 min 59 sec) 
 Total Blocks : 196608 Invalid Blocks : 0 Valid Blocks : 196608
 Total Tags : 491520 Threshold : 12288 Invalid Tags : 196608 Pr0 Tags : 98304 Pr1 Tags : 196608 num_pr0 : 12288
 SAE Count : 0
 Inter-Core Inteference in Data Store : 11918488
Heartbeat CPU 7 instructions: 60000001 cycles: 43797440 heartbeat IPC: 1.50909 cumulative IPC: 1.36994 (Simulation time: 4 hr 33 min 59 sec) 
 Total Blocks : 196608 Invalid Blocks : 0 Valid Blocks : 196608
 Total Tags : 491520 Threshold : 12288 Invalid Tags : 196608 Pr0 Tags : 98304 Pr1 Tags : 196608 num_pr0 : 12288
 SAE Count : 0
 Inter-Core Inteference in Data Store : 11919469
Heartbeat CPU 0 instructions: 70000000 cycles: 50097758 heartbeat IPC: 1.5699 cumulative IPC: 1.39727 (Simulation time: 5 hr 28 min 40 sec) 
 Total Blocks : 196608 Invalid Blocks : 0 Valid Blocks : 196608
 Total Tags : 491520 Threshold : 12288 Invalid Tags : 196608 Pr0 Tags : 98304 Pr1 Tags : 196608 num_pr0 : 12288
 SAE Count : 0
 Inter-Core Inteference in Data Store : 14064021
Heartbeat CPU 1 instructions: 70000000 cycles: 50135677 heartbeat IPC: 1.56828 cumulative IPC: 1.39621 (Simulation time: 5 hr 29 min 8 sec) 
 Total Blocks : 196608 Invalid Blocks : 0 Valid Blocks : 196608
 Total Tags : 491520 Threshold : 12288 Invalid Tags : 196608 Pr0 Tags : 98304 Pr1 Tags : 196608 num_pr0 : 12288
 SAE Count : 0
 Inter-Core Inteference in Data Store : 14084109
Heartbeat CPU 2 instructions: 70000000 cycles: 50144639 heartbeat IPC: 1.56814 cumulative IPC: 1.39596 (Simulation time: 5 hr 29 min 16 sec) 
 Total Blocks : 196608 Invalid Blocks : 0 Valid Blocks : 196608
 Total Tags : 491520 Threshold : 12288 Invalid Tags : 196608 Pr0 Tags : 98304 Pr1 Tags : 196608 num_pr0 : 12288
 SAE Count : 0
 Inter-Core Inteference in Data Store : 14088555
Heartbeat CPU 3 instructions: 70000000 cycles: 50148587 heartbeat IPC: 1.56809 cumulative IPC: 1.39585 (Simulation time: 5 hr 29 min 19 sec) 
 Total Blocks : 196608 Invalid Blocks : 0 Valid Blocks : 196608
 Total Tags : 491520 Threshold : 12288 Invalid Tags : 196608 Pr0 Tags : 98304 Pr1 Tags : 196608 num_pr0 : 12288
 SAE Count : 0
 Inter-Core Inteference in Data Store : 14090423
Heartbeat CPU 4 instructions: 70000000 cycles: 50153255 heartbeat IPC: 1.56796 cumulative IPC: 1.39572 (Simulation time: 5 hr 29 min 21 sec) 
 Total Blocks : 196608 Invalid Blocks : 0 Valid Blocks : 196608
 Total Tags : 491520 Threshold : 12288 Invalid Tags : 196608 Pr0 Tags : 98304 Pr1 Tags : 196608 num_pr0 : 12288
 SAE Count : 0
 Inter-Core Inteference in Data Store : 14092616
Heartbeat CPU 5 instructions: 70000000 cycles: 50170107 heartbeat IPC: 1.5673 cumulative IPC: 1.39525 (Simulation time: 5 hr 29 min 31 sec) 
 Total Blocks : 196608 Invalid Blocks : 0 Valid Blocks : 196608
 Total Tags : 491520 Threshold : 12288 Invalid Tags : 196608 Pr0 Tags : 98304 Pr1 Tags : 196608 num_pr0 : 12288
 SAE Count : 0
 Inter-Core Inteference in Data Store : 14100232
Heartbeat CPU 6 instructions: 70000000 cycles: 50177122 heartbeat IPC: 1.56705 cumulative IPC: 1.39506 (Simulation time: 5 hr 29 min 36 sec) 
 Total Blocks : 196608 Invalid Blocks : 0 Valid Blocks : 196608
 Total Tags : 491520 Threshold : 12288 Invalid Tags : 196608 Pr0 Tags : 98304 Pr1 Tags : 196608 num_pr0 : 12288
 SAE Count : 0
 Inter-Core Inteference in Data Store : 14103448
Heartbeat CPU 7 instructions: 70000000 cycles: 50179255 heartbeat IPC: 1.56695 cumulative IPC: 1.395 (Simulation time: 5 hr 29 min 38 sec) 
 Total Blocks : 196608 Invalid Blocks : 0 Valid Blocks : 196608
 Total Tags : 491520 Threshold : 12288 Invalid Tags : 196608 Pr0 Tags : 98304 Pr1 Tags : 196608 num_pr0 : 12288
 SAE Count : 0
 Inter-Core Inteference in Data Store : 14104479
Heartbeat CPU 0 instructions: 80000002 cycles: 56213344 heartbeat IPC: 1.63517 cumulative IPC: 1.42315 (Simulation time: 6 hr 31 min 47 sec) 
 Total Blocks : 196608 Invalid Blocks : 0 Valid Blocks : 196608
 Total Tags : 491520 Threshold : 12288 Invalid Tags : 196608 Pr0 Tags : 98304 Pr1 Tags : 196608 num_pr0 : 12288
 SAE Count : 0
 Inter-Core Inteference in Data Store : 16699583
Heartbeat CPU 1 instructions: 80000002 cycles: 56257870 heartbeat IPC: 1.6334 cumulative IPC: 1.42202 (Simulation time: 6 hr 32 min 11 sec) 
 Total Blocks : 196608 Invalid Blocks : 0 Valid Blocks : 196608
 Total Tags : 491520 Threshold : 12288 Invalid Tags : 196608 Pr0 Tags : 98304 Pr1 Tags : 196608 num_pr0 : 12288
 SAE Count : 0
 Inter-Core Inteference in Data Store : 16718549
Heartbeat CPU 2 instructions: 80000002 cycles: 56267354 heartbeat IPC: 1.63326 cumulative IPC: 1.42178 (Simulation time: 6 hr 32 min 18 sec) 
 Total Blocks : 196608 Invalid Blocks : 0 Valid Blocks : 196608
 Total Tags : 491520 Threshold : 12288 Invalid Tags : 196608 Pr0 Tags : 98304 Pr1 Tags : 196608 num_pr0 : 12288
 SAE Count : 0
 Inter-Core Inteference in Data Store : 16722782
Heartbeat CPU 3 instructions: 80000002 cycles: 56272404 heartbeat IPC: 1.63297 cumulative IPC: 1.42166 (Simulation time: 6 hr 32 min 21 sec) 
 Total Blocks : 196608 Invalid Blocks : 0 Valid Blocks : 196608
 Total Tags : 491520 Threshold : 12288 Invalid Tags : 196608 Pr0 Tags : 98304 Pr1 Tags : 196608 num_pr0 : 12288
 SAE Count : 0
 Inter-Core Inteference in Data Store : 16724927
Heartbeat CPU 4 instructions: 80000002 cycles: 56277499 heartbeat IPC: 1.63285 cumulative IPC: 1.42153 (Simulation time: 6 hr 32 min 24 sec) 
 Total Blocks : 196608 Invalid Blocks : 0 Valid Blocks : 196608
 Total Tags : 491520 Threshold : 12288 Invalid Tags : 196608 Pr0 Tags : 98304 Pr1 Tags : 196608 num_pr0 : 12288
 SAE Count : 0
 Inter-Core Inteference in Data Store : 16726952
Heartbeat CPU 5 instructions: 80000002 cycles: 56296996 heartbeat IPC: 1.63215 cumulative IPC: 1.42104 (Simulation time: 6 hr 32 min 36 sec) 
 Total Blocks : 196608 Invalid Blocks : 0 Valid Blocks : 196608
 Total Tags : 491520 Threshold : 12288 Invalid Tags : 196608 Pr0 Tags : 98304 Pr1 Tags : 196608 num_pr0 : 12288
 SAE Count : 0
 Inter-Core Inteference in Data Store : 16734112
Heartbeat CPU 6 instructions: 80000002 cycles: 56304750 heartbeat IPC: 1.63195 cumulative IPC: 1.42084 (Simulation time: 6 hr 32 min 40 sec) 
 Total Blocks : 196608 Invalid Blocks : 0 Valid Blocks : 196608
 Total Tags : 491520 Threshold : 12288 Invalid Tags : 196609 Pr0 Tags : 98303 Pr1 Tags : 196608 num_pr0 : 12288
 SAE Count : 0
 Inter-Core Inteference in Data Store : 16736939
Heartbeat CPU 7 instructions: 80000002 cycles: 56307470 heartbeat IPC: 1.6318 cumulative IPC: 1.42077 (Simulation time: 6 hr 32 min 41 sec) 
 Total Blocks : 196608 Invalid Blocks : 0 Valid Blocks : 196608
 Total Tags : 491520 Threshold : 12288 Invalid Tags : 196608 Pr0 Tags : 98304 Pr1 Tags : 196608 num_pr0 : 12288
 SAE Count : 0
 Inter-Core Inteference in Data Store : 16737736
Heartbeat CPU 0 instructions: 90000002 cycles: 62201499 heartbeat IPC: 1.66996 cumulative IPC: 1.44691 (Simulation time: 7 hr 35 min 44 sec) 
 Total Blocks : 196608 Invalid Blocks : 0 Valid Blocks : 196608
 Total Tags : 491520 Threshold : 12288 Invalid Tags : 196608 Pr0 Tags : 98304 Pr1 Tags : 196608 num_pr0 : 12288
 SAE Count : 0
 Inter-Core Inteference in Data Store : 19165116
Heartbeat CPU 1 instructions: 90000002 cycles: 62251775 heartbeat IPC: 1.66836 cumulative IPC: 1.44574 (Simulation time: 7 hr 36 min 12 sec) 
 Total Blocks : 196608 Invalid Blocks : 0 Valid Blocks : 196608
 Total Tags : 491520 Threshold : 12288 Invalid Tags : 196608 Pr0 Tags : 98304 Pr1 Tags : 196608 num_pr0 : 12288
 SAE Count : 0
 Inter-Core Inteference in Data Store : 19177839
Heartbeat CPU 2 instructions: 90000002 cycles: 62261783 heartbeat IPC: 1.66822 cumulative IPC: 1.44551 (Simulation time: 7 hr 36 min 18 sec) 
 Total Blocks : 196608 Invalid Blocks : 0 Valid Blocks : 196608
 Total Tags : 491520 Threshold : 12288 Invalid Tags : 196608 Pr0 Tags : 98304 Pr1 Tags : 196608 num_pr0 : 12288
 SAE Count : 0
 Inter-Core Inteference in Data Store : 19181655
Heartbeat CPU 3 instructions: 90000002 cycles: 62267935 heartbeat IPC: 1.66791 cumulative IPC: 1.44537 (Simulation time: 7 hr 36 min 22 sec) 
 Total Blocks : 196608 Invalid Blocks : 0 Valid Blocks : 196608
 Total Tags : 491520 Threshold : 12288 Invalid Tags : 196608 Pr0 Tags : 98304 Pr1 Tags : 196608 num_pr0 : 12288
 SAE Count : 0
 Inter-Core Inteference in Data Store : 19183900
Heartbeat CPU 4 instructions: 90000002 cycles: 62273525 heartbeat IPC: 1.66777 cumulative IPC: 1.44524 (Simulation time: 7 hr 36 min 24 sec) 
 Total Blocks : 196608 Invalid Blocks : 0 Valid Blocks : 196608
 Total Tags : 491520 Threshold : 12288 Invalid Tags : 196608 Pr0 Tags : 98304 Pr1 Tags : 196608 num_pr0 : 12288
 SAE Count : 0
 Inter-Core Inteference in Data Store : 19186041
Heartbeat CPU 5 instructions: 90000002 cycles: 62295190 heartbeat IPC: 1.66717 cumulative IPC: 1.44473 (Simulation time: 7 hr 36 min 41 sec) 
 Total Blocks : 196608 Invalid Blocks : 0 Valid Blocks : 196608
 Total Tags : 491520 Threshold : 12288 Invalid Tags : 196608 Pr0 Tags : 98304 Pr1 Tags : 196608 num_pr0 : 12288
 SAE Count : 0
 Inter-Core Inteference in Data Store : 19196041
Heartbeat CPU 6 instructions: 90000002 cycles: 62303780 heartbeat IPC: 1.66694 cumulative IPC: 1.44454 (Simulation time: 7 hr 36 min 48 sec) 
 Total Blocks : 196608 Invalid Blocks : 0 Valid Blocks : 196608
 Total Tags : 491520 Threshold : 12288 Invalid Tags : 196608 Pr0 Tags : 98304 Pr1 Tags : 196608 num_pr0 : 12288
 SAE Count : 0
 Inter-Core Inteference in Data Store : 19200651
Heartbeat CPU 7 instructions: 90000002 cycles: 62307164 heartbeat IPC: 1.66675 cumulative IPC: 1.44446 (Simulation time: 7 hr 36 min 50 sec) 
 Total Blocks : 196608 Invalid Blocks : 0 Valid Blocks : 196608
 Total Tags : 491520 Threshold : 12288 Invalid Tags : 196608 Pr0 Tags : 98304 Pr1 Tags : 196608 num_pr0 : 12288
 SAE Count : 0
 Inter-Core Inteference in Data Store : 19202419
Heartbeat CPU 0 instructions: 100000001 cycles: 68103824 heartbeat IPC: 1.69425 cumulative IPC: 1.46835 (Simulation time: 8 hr 41 min 6 sec) 
 Total Blocks : 196608 Invalid Blocks : 0 Valid Blocks : 196608
 Total Tags : 491520 Threshold : 12288 Invalid Tags : 196608 Pr0 Tags : 98304 Pr1 Tags : 196608 num_pr0 : 12288
 SAE Count : 0
 Inter-Core Inteference in Data Store : 21723657
Heartbeat CPU 1 instructions: 100000001 cycles: 68159298 heartbeat IPC: 1.69276 cumulative IPC: 1.46715 (Simulation time: 8 hr 41 min 48 sec) 
 Total Blocks : 196608 Invalid Blocks : 0 Valid Blocks : 196608
 Total Tags : 491520 Threshold : 12288 Invalid Tags : 196608 Pr0 Tags : 98304 Pr1 Tags : 196608 num_pr0 : 12288
 SAE Count : 0
 Inter-Core Inteference in Data Store : 21752330
Heartbeat CPU 2 instructions: 100000001 cycles: 68170449 heartbeat IPC: 1.69243 cumulative IPC: 1.46691 (Simulation time: 8 hr 41 min 56 sec) 
 Total Blocks : 196608 Invalid Blocks : 0 Valid Blocks : 196608
 Total Tags : 491520 Threshold : 12288 Invalid Tags : 196609 Pr0 Tags : 98303 Pr1 Tags : 196608 num_pr0 : 12288
 SAE Count : 0
 Inter-Core Inteference in Data Store : 21757995
Heartbeat CPU 3 instructions: 100000001 cycles: 68177439 heartbeat IPC: 1.69219 cumulative IPC: 1.46676 (Simulation time: 8 hr 42 min 2 sec) 
 Total Blocks : 196608 Invalid Blocks : 0 Valid Blocks : 196608
 Total Tags : 491520 Threshold : 12288 Invalid Tags : 196608 Pr0 Tags : 98304 Pr1 Tags : 196608 num_pr0 : 12288
 SAE Count : 0
 Inter-Core Inteference in Data Store : 21761627
Heartbeat CPU 4 instructions: 100000001 cycles: 68183231 heartbeat IPC: 1.69213 cumulative IPC: 1.46664 (Simulation time: 8 hr 42 min 5 sec) 
 Total Blocks : 196608 Invalid Blocks : 0 Valid Blocks : 196608
 Total Tags : 491520 Threshold : 12288 Invalid Tags : 196608 Pr0 Tags : 98304 Pr1 Tags : 196608 num_pr0 : 12288
 SAE Count : 0
 Inter-Core Inteference in Data Store : 21764623
Heartbeat CPU 5 instructions: 100000001 cycles: 68207799 heartbeat IPC: 1.6913 cumulative IPC: 1.46611 (Simulation time: 8 hr 42 min 25 sec) 
 Total Blocks : 196608 Invalid Blocks : 0 Valid Blocks : 196608
 Total Tags : 491520 Threshold : 12288 Invalid Tags : 196608 Pr0 Tags : 98304 Pr1 Tags : 196608 num_pr0 : 12288
 SAE Count : 0
 Inter-Core Inteference in Data Store : 21777551
Heartbeat CPU 6 instructions: 100000001 cycles: 68216940 heartbeat IPC: 1.69114 cumulative IPC: 1.46591 (Simulation time: 8 hr 42 min 32 sec) 
 Total Blocks : 196608 Invalid Blocks : 0 Valid Blocks : 196608
 Total Tags : 491520 Threshold : 12288 Invalid Tags : 196608 Pr0 Tags : 98304 Pr1 Tags : 196608 num_pr0 : 12288
 SAE Count : 0
 Inter-Core Inteference in Data Store : 21782822
Heartbeat CPU 7 instructions: 100000001 cycles: 68220679 heartbeat IPC: 1.69104 cumulative IPC: 1.46583 (Simulation time: 8 hr 42 min 35 sec) 
 Total Blocks : 196608 Invalid Blocks : 0 Valid Blocks : 196608
 Total Tags : 491520 Threshold : 12288 Invalid Tags : 196608 Pr0 Tags : 98304 Pr1 Tags : 196608 num_pr0 : 12288
 SAE Count : 0
 Inter-Core Inteference in Data Store : 21784913
Heartbeat CPU 0 instructions: 110000000 cycles: 73955166 heartbeat IPC: 1.70901 cumulative IPC: 1.48739 (Simulation time: 9 hr 45 min 4 sec) 
 Total Blocks : 196608 Invalid Blocks : 0 Valid Blocks : 196608
 Total Tags : 491520 Threshold : 12288 Invalid Tags : 196608 Pr0 Tags : 98304 Pr1 Tags : 196608 num_pr0 : 12288
 SAE Count : 0
 Inter-Core Inteference in Data Store : 24109802
Heartbeat CPU 1 instructions: 110000000 cycles: 74015519 heartbeat IPC: 1.70759 cumulative IPC: 1.48617 (Simulation time: 9 hr 45 min 49 sec) 
 Total Blocks : 196608 Invalid Blocks : 0 Valid Blocks : 196608
 Total Tags : 491520 Threshold : 12288 Invalid Tags : 196608 Pr0 Tags : 98304 Pr1 Tags : 196608 num_pr0 : 12288
 SAE Count : 0
 Inter-Core Inteference in Data Store : 24139020
Heartbeat CPU 2 instructions: 110000000 cycles: 74027727 heartbeat IPC: 1.70728 cumulative IPC: 1.48593 (Simulation time: 9 hr 45 min 56 sec) 
 Total Blocks : 196608 Invalid Blocks : 0 Valid Blocks : 196608
 Total Tags : 491520 Threshold : 12288 Invalid Tags : 196608 Pr0 Tags : 98304 Pr1 Tags : 196608 num_pr0 : 12288
 SAE Count : 0
 Inter-Core Inteference in Data Store : 24144414
Heartbeat CPU 3 instructions: 110000000 cycles: 74035443 heartbeat IPC: 1.70707 cumulative IPC: 1.48577 (Simulation time: 9 hr 46 min 1 sec) 
 Total Blocks : 196608 Invalid Blocks : 0 Valid Blocks : 196608
 Total Tags : 491520 Threshold : 12288 Invalid Tags : 196608 Pr0 Tags : 98304 Pr1 Tags : 196608 num_pr0 : 12288
 SAE Count : 0
 Inter-Core Inteference in Data Store : 24147430
Heartbeat CPU 4 instructions: 110000000 cycles: 74041923 heartbeat IPC: 1.70687 cumulative IPC: 1.48564 (Simulation time: 9 hr 46 min 4 sec) 
 Total Blocks : 196608 Invalid Blocks : 0 Valid Blocks : 196608
 Total Tags : 491520 Threshold : 12288 Invalid Tags : 196608 Pr0 Tags : 98304 Pr1 Tags : 196608 num_pr0 : 12288
 SAE Count : 0
 Inter-Core Inteference in Data Store : 24149843
Heartbeat CPU 5 instructions: 110000000 cycles: 74068253 heartbeat IPC: 1.70635 cumulative IPC: 1.48512 (Simulation time: 9 hr 46 min 20 sec) 
 Total Blocks : 196608 Invalid Blocks : 0 Valid Blocks : 196608
 Total Tags : 491520 Threshold : 12288 Invalid Tags : 196608 Pr0 Tags : 98304 Pr1 Tags : 196608 num_pr0 : 12288
 SAE Count : 0
 Inter-Core Inteference in Data Store : 24159901
Heartbeat CPU 6 instructions: 110000000 cycles: 74077810 heartbeat IPC: 1.70623 cumulative IPC: 1.48493 (Simulation time: 9 hr 46 min 26 sec) 
 Total Blocks : 196608 Invalid Blocks : 0 Valid Blocks : 196608
 Total Tags : 491520 Threshold : 12288 Invalid Tags : 196608 Pr0 Tags : 98304 Pr1 Tags : 196608 num_pr0 : 12288
 SAE Count : 0
 Inter-Core Inteference in Data Store : 24162883
Heartbeat CPU 7 instructions: 110000000 cycles: 74081948 heartbeat IPC: 1.70612 cumulative IPC: 1.48484 (Simulation time: 9 hr 46 min 28 sec) 
 Total Blocks : 196608 Invalid Blocks : 0 Valid Blocks : 196608
 Total Tags : 491520 Threshold : 12288 Invalid Tags : 196608 Pr0 Tags : 98304 Pr1 Tags : 196608 num_pr0 : 12288
 SAE Count : 0
 Inter-Core Inteference in Data Store : 24164026
Heartbeat CPU 0 instructions: 120000001 cycles: 79703796 heartbeat IPC: 1.73955 cumulative IPC: 1.50557 (Simulation time: 10 hr 56 min 14 sec) 
 Total Blocks : 196608 Invalid Blocks : 0 Valid Blocks : 196608
 Total Tags : 491520 Threshold : 12288 Invalid Tags : 196609 Pr0 Tags : 98303 Pr1 Tags : 196608 num_pr0 : 12288
 SAE Count : 0
 Inter-Core Inteference in Data Store : 26741458
Heartbeat CPU 1 instructions: 120000001 cycles: 79769746 heartbeat IPC: 1.73785 cumulative IPC: 1.50433 (Simulation time: 10 hr 56 min 59 sec) 
 Total Blocks : 196608 Invalid Blocks : 0 Valid Blocks : 196608
 Total Tags : 491520 Threshold : 12288 Invalid Tags : 196608 Pr0 Tags : 98304 Pr1 Tags : 196608 num_pr0 : 12288
 SAE Count : 0
 Inter-Core Inteference in Data Store : 26762840
Heartbeat CPU 2 instructions: 120000001 cycles: 79782870 heartbeat IPC: 1.73758 cumulative IPC: 1.50408 (Simulation time: 10 hr 57 min 10 sec) 
 Total Blocks : 196608 Invalid Blocks : 0 Valid Blocks : 196608
 Total Tags : 491520 Threshold : 12288 Invalid Tags : 196608 Pr0 Tags : 98304 Pr1 Tags : 196608 num_pr0 : 12288
 SAE Count : 0
 Inter-Core Inteference in Data Store : 26768238
Heartbeat CPU 3 instructions: 120000001 cycles: 79791524 heartbeat IPC: 1.73729 cumulative IPC: 1.50392 (Simulation time: 10 hr 57 min 15 sec) 
 Total Blocks : 196608 Invalid Blocks : 0 Valid Blocks : 196608
 Total Tags : 491520 Threshold : 12288 Invalid Tags : 196610 Pr0 Tags : 98302 Pr1 Tags : 196608 num_pr0 : 12288
 SAE Count : 0
 Inter-Core Inteference in Data Store : 26772140
Heartbeat CPU 4 instructions: 120000001 cycles: 79798475 heartbeat IPC: 1.73715 cumulative IPC: 1.50379 (Simulation time: 10 hr 57 min 20 sec) 
 Total Blocks : 196608 Invalid Blocks : 0 Valid Blocks : 196608
 Total Tags : 491520 Threshold : 12288 Invalid Tags : 196608 Pr0 Tags : 98304 Pr1 Tags : 196608 num_pr0 : 12288
 SAE Count : 0
 Inter-Core Inteference in Data Store : 26775620
Heartbeat CPU 5 instructions: 120000001 cycles: 79826699 heartbeat IPC: 1.73658 cumulative IPC: 1.50326 (Simulation time: 10 hr 57 min 40 sec) 
 Total Blocks : 196608 Invalid Blocks : 0 Valid Blocks : 196608
 Total Tags : 491520 Threshold : 12288 Invalid Tags : 196608 Pr0 Tags : 98304 Pr1 Tags : 196608 num_pr0 : 12288
 SAE Count : 0
 Inter-Core Inteference in Data Store : 26790403
Heartbeat CPU 6 instructions: 120000001 cycles: 79836637 heartbeat IPC: 1.73646 cumulative IPC: 1.50307 (Simulation time: 10 hr 57 min 48 sec) 
 Total Blocks : 196608 Invalid Blocks : 0 Valid Blocks : 196608
 Total Tags : 491520 Threshold : 12288 Invalid Tags : 196608 Pr0 Tags : 98304 Pr1 Tags : 196608 num_pr0 : 12288
 SAE Count : 0
 Inter-Core Inteference in Data Store : 26795598
Heartbeat CPU 7 instructions: 120000001 cycles: 79841153 heartbeat IPC: 1.73635 cumulative IPC: 1.50298 (Simulation time: 10 hr 57 min 53 sec) 
 Total Blocks : 196608 Invalid Blocks : 0 Valid Blocks : 196608
 Total Tags : 491520 Threshold : 12288 Invalid Tags : 196608 Pr0 Tags : 98304 Pr1 Tags : 196608 num_pr0 : 12288
 SAE Count : 0
 Inter-Core Inteference in Data Store : 26797922
Heartbeat CPU 0 instructions: 130000002 cycles: 85354909 heartbeat IPC: 1.76956 cumulative IPC: 1.52305 (Simulation time: 12 hr 15 min 17 sec) 
 Total Blocks : 196608 Invalid Blocks : 0 Valid Blocks : 196608
 Total Tags : 491520 Threshold : 12288 Invalid Tags : 196608 Pr0 Tags : 98304 Pr1 Tags : 196608 num_pr0 : 12288
 SAE Count : 0
 Inter-Core Inteference in Data Store : 29684851
Heartbeat CPU 1 instructions: 130000002 cycles: 85426616 heartbeat IPC: 1.76776 cumulative IPC: 1.52177 (Simulation time: 12 hr 16 min 25 sec) 
 Total Blocks : 196608 Invalid Blocks : 0 Valid Blocks : 196608
 Total Tags : 491520 Threshold : 12288 Invalid Tags : 196608 Pr0 Tags : 98304 Pr1 Tags : 196608 num_pr0 : 12288
 SAE Count : 0
 Inter-Core Inteference in Data Store : 29724681
Heartbeat CPU 2 instructions: 130000002 cycles: 85440506 heartbeat IPC: 1.76752 cumulative IPC: 1.52153 (Simulation time: 12 hr 16 min 37 sec) 
 Total Blocks : 196608 Invalid Blocks : 0 Valid Blocks : 196608
 Total Tags : 491520 Threshold : 12288 Invalid Tags : 196608 Pr0 Tags : 98304 Pr1 Tags : 196608 num_pr0 : 12288
 SAE Count : 0
 Inter-Core Inteference in Data Store : 29732159
Heartbeat CPU 3 instructions: 130000002 cycles: 85449785 heartbeat IPC: 1.76733 cumulative IPC: 1.52136 (Simulation time: 12 hr 16 min 44 sec) 
 Total Blocks : 196608 Invalid Blocks : 0 Valid Blocks : 196608
 Total Tags : 491520 Threshold : 12288 Invalid Tags : 196608 Pr0 Tags : 98304 Pr1 Tags : 196608 num_pr0 : 12288
 SAE Count : 0
 Inter-Core Inteference in Data Store : 29736788
Heartbeat CPU 4 instructions: 130000002 cycles: 85457615 heartbeat IPC: 1.76705 cumulative IPC: 1.52122 (Simulation time: 12 hr 16 min 49 sec) 
 Total Blocks : 196608 Invalid Blocks : 0 Valid Blocks : 196608
 Total Tags : 491520 Threshold : 12288 Invalid Tags : 196608 Pr0 Tags : 98304 Pr1 Tags : 196608 num_pr0 : 12288
 SAE Count : 0
 Inter-Core Inteference in Data Store : 29740621
Heartbeat CPU 5 instructions: 130000002 cycles: 85487778 heartbeat IPC: 1.76645 cumulative IPC: 1.52069 (Simulation time: 12 hr 17 min 19 sec) 
 Total Blocks : 196608 Invalid Blocks : 0 Valid Blocks : 196608
 Total Tags : 491520 Threshold : 12288 Invalid Tags : 196608 Pr0 Tags : 98304 Pr1 Tags : 196608 num_pr0 : 12288
 SAE Count : 0
 Inter-Core Inteference in Data Store : 29757128
Heartbeat CPU 6 instructions: 130000002 cycles: 85498498 heartbeat IPC: 1.7662 cumulative IPC: 1.52049 (Simulation time: 12 hr 17 min 31 sec) 
 Total Blocks : 196608 Invalid Blocks : 0 Valid Blocks : 196608
 Total Tags : 491520 Threshold : 12288 Invalid Tags : 196608 Pr0 Tags : 98304 Pr1 Tags : 196608 num_pr0 : 12288
 SAE Count : 0
 Inter-Core Inteference in Data Store : 29763247
Heartbeat CPU 7 instructions: 130000002 cycles: 85503444 heartbeat IPC: 1.76607 cumulative IPC: 1.52041 (Simulation time: 12 hr 17 min 36 sec) 
 Total Blocks : 196608 Invalid Blocks : 0 Valid Blocks : 196608
 Total Tags : 491520 Threshold : 12288 Invalid Tags : 196608 Pr0 Tags : 98304 Pr1 Tags : 196608 num_pr0 : 12288
 SAE Count : 0
 Inter-Core Inteference in Data Store : 29766052
Heartbeat CPU 0 instructions: 140000002 cycles: 91028481 heartbeat IPC: 1.76256 cumulative IPC: 1.53798 (Simulation time: 13 hr 27 min 31 sec) 
 Total Blocks : 196608 Invalid Blocks : 0 Valid Blocks : 196608
 Total Tags : 491520 Threshold : 12288 Invalid Tags : 196608 Pr0 Tags : 98304 Pr1 Tags : 196608 num_pr0 : 12288
 SAE Count : 0
 Inter-Core Inteference in Data Store : 32039011
Heartbeat CPU 1 instructions: 140000002 cycles: 91104205 heartbeat IPC: 1.76131 cumulative IPC: 1.5367 (Simulation time: 13 hr 28 min 25 sec) 
 Total Blocks : 196608 Invalid Blocks : 0 Valid Blocks : 196608
 Total Tags : 491520 Threshold : 12288 Invalid Tags : 196608 Pr0 Tags : 98304 Pr1 Tags : 196608 num_pr0 : 12288
 SAE Count : 0
 Inter-Core Inteference in Data Store : 32077527
Heartbeat CPU 2 instructions: 140000002 cycles: 91119182 heartbeat IPC: 1.76097 cumulative IPC: 1.53645 (Simulation time: 13 hr 28 min 37 sec) 
 Total Blocks : 196608 Invalid Blocks : 0 Valid Blocks : 196608
 Total Tags : 491520 Threshold : 12288 Invalid Tags : 196608 Pr0 Tags : 98304 Pr1 Tags : 196608 num_pr0 : 12288
 SAE Count : 0
 Inter-Core Inteference in Data Store : 32084439
Heartbeat CPU 3 instructions: 140000002 cycles: 91129019 heartbeat IPC: 1.7608 cumulative IPC: 1.53628 (Simulation time: 13 hr 28 min 44 sec) 
 Total Blocks : 196608 Invalid Blocks : 0 Valid Blocks : 196608
 Total Tags : 491520 Threshold : 12288 Invalid Tags : 196608 Pr0 Tags : 98304 Pr1 Tags : 196608 num_pr0 : 12288
 SAE Count : 0
 Inter-Core Inteference in Data Store : 32088996
Heartbeat CPU 4 instructions: 140000002 cycles: 91137518 heartbeat IPC: 1.76059 cumulative IPC: 1.53614 (Simulation time: 13 hr 28 min 51 sec) 
 Total Blocks : 196608 Invalid Blocks : 0 Valid Blocks : 196608
 Total Tags : 491520 Threshold : 12288 Invalid Tags : 196608 Pr0 Tags : 98304 Pr1 Tags : 196608 num_pr0 : 12288
 SAE Count : 0
 Inter-Core Inteference in Data Store : 32092785
Heartbeat CPU 5 instructions: 140000002 cycles: 91169107 heartbeat IPC: 1.76015 cumulative IPC: 1.53561 (Simulation time: 13 hr 29 min 13 sec) 
 Total Blocks : 196608 Invalid Blocks : 0 Valid Blocks : 196608
 Total Tags : 491520 Threshold : 12288 Invalid Tags : 196608 Pr0 Tags : 98304 Pr1 Tags : 196608 num_pr0 : 12288
 SAE Count : 0
 Inter-Core Inteference in Data Store : 32106819
Heartbeat CPU 6 instructions: 140000002 cycles: 91180459 heartbeat IPC: 1.75996 cumulative IPC: 1.53542 (Simulation time: 13 hr 29 min 23 sec) 
 Total Blocks : 196608 Invalid Blocks : 0 Valid Blocks : 196608
 Total Tags : 491520 Threshold : 12288 Invalid Tags : 196608 Pr0 Tags : 98304 Pr1 Tags : 196608 num_pr0 : 12288
 SAE Count : 0
 Inter-Core Inteference in Data Store : 32111544
Heartbeat CPU 7 instructions: 140000002 cycles: 91185496 heartbeat IPC: 1.75993 cumulative IPC: 1.53533 (Simulation time: 13 hr 29 min 27 sec) 
 Total Blocks : 196608 Invalid Blocks : 0 Valid Blocks : 196608
 Total Tags : 491520 Threshold : 12288 Invalid Tags : 196608 Pr0 Tags : 98304 Pr1 Tags : 196608 num_pr0 : 12288
 SAE Count : 0
 Inter-Core Inteference in Data Store : 32113589
Heartbeat CPU 0 instructions: 150000003 cycles: 96606143 heartbeat IPC: 1.79287 cumulative IPC: 1.5527 (Simulation time: 14 hr 50 min 36 sec) 
 Total Blocks : 196608 Invalid Blocks : 0 Valid Blocks : 196608
 Total Tags : 491520 Threshold : 12288 Invalid Tags : 196608 Pr0 Tags : 98304 Pr1 Tags : 196608 num_pr0 : 12288
 SAE Count : 0
 Inter-Core Inteference in Data Store : 34772093
Heartbeat CPU 1 instructions: 150000003 cycles: 96686073 heartbeat IPC: 1.79152 cumulative IPC: 1.55141 (Simulation time: 14 hr 51 min 30 sec) 
 Total Blocks : 196608 Invalid Blocks : 0 Valid Blocks : 196608
 Total Tags : 491520 Threshold : 12288 Invalid Tags : 196608 Pr0 Tags : 98304 Pr1 Tags : 196608 num_pr0 : 12288
 SAE Count : 0
 Inter-Core Inteference in Data Store : 34796394
Heartbeat CPU 2 instructions: 150000003 cycles: 96701935 heartbeat IPC: 1.79123 cumulative IPC: 1.55116 (Simulation time: 14 hr 51 min 41 sec) 
 Total Blocks : 196608 Invalid Blocks : 0 Valid Blocks : 196608
 Total Tags : 491520 Threshold : 12288 Invalid Tags : 196608 Pr0 Tags : 98304 Pr1 Tags : 196608 num_pr0 : 12288
 SAE Count : 0
 Inter-Core Inteference in Data Store : 34803070
Heartbeat CPU 3 instructions: 150000003 cycles: 96712309 heartbeat IPC: 1.79106 cumulative IPC: 1.55099 (Simulation time: 14 hr 51 min 48 sec) 
 Total Blocks : 196608 Invalid Blocks : 0 Valid Blocks : 196608
 Total Tags : 491520 Threshold : 12288 Invalid Tags : 196608 Pr0 Tags : 98304 Pr1 Tags : 196608 num_pr0 : 12288
 SAE Count : 0
 Inter-Core Inteference in Data Store : 34807676
Heartbeat CPU 4 instructions: 150000003 cycles: 96721356 heartbeat IPC: 1.79088 cumulative IPC: 1.55085 (Simulation time: 14 hr 51 min 55 sec) 
 Total Blocks : 196608 Invalid Blocks : 0 Valid Blocks : 196608
 Total Tags : 491520 Threshold : 12288 Invalid Tags : 196608 Pr0 Tags : 98304 Pr1 Tags : 196608 num_pr0 : 12288
 SAE Count : 0
 Inter-Core Inteference in Data Store : 34812332
Heartbeat CPU 5 instructions: 150000003 cycles: 96754740 heartbeat IPC: 1.79031 cumulative IPC: 1.55031 (Simulation time: 14 hr 52 min 19 sec) 
 Total Blocks : 196608 Invalid Blocks : 0 Valid Blocks : 196608
 Total Tags : 491520 Threshold : 12288 Invalid Tags : 196608 Pr0 Tags : 98304 Pr1 Tags : 196608 num_pr0 : 12288
 SAE Count : 0
 Inter-Core Inteference in Data Store : 34829415
Heartbeat CPU 6 instructions: 150000003 cycles: 96767104 heartbeat IPC: 1.78998 cumulative IPC: 1.55011 (Simulation time: 14 hr 52 min 29 sec) 
 Total Blocks : 196608 Invalid Blocks : 0 Valid Blocks : 196608
 Total Tags : 491520 Threshold : 12288 Invalid Tags : 196608 Pr0 Tags : 98304 Pr1 Tags : 196608 num_pr0 : 12288
 SAE Count : 0
 Inter-Core Inteference in Data Store : 34836098
Heartbeat CPU 7 instructions: 150000003 cycles: 96772368 heartbeat IPC: 1.78991 cumulative IPC: 1.55003 (Simulation time: 14 hr 52 min 33 sec) 
 Total Blocks : 196608 Invalid Blocks : 0 Valid Blocks : 196608
 Total Tags : 491520 Threshold : 12288 Invalid Tags : 196608 Pr0 Tags : 98304 Pr1 Tags : 196608 num_pr0 : 12288
 SAE Count : 0
 Inter-Core Inteference in Data Store : 34839035
Heartbeat CPU 0 instructions: 160000001 cycles: 102144754 heartbeat IPC: 1.80551 cumulative IPC: 1.5664 (Simulation time: 16 hr 3 min 28 sec) 
 Total Blocks : 196608 Invalid Blocks : 0 Valid Blocks : 196608
 Total Tags : 491520 Threshold : 12288 Invalid Tags : 196608 Pr0 Tags : 98304 Pr1 Tags : 196608 num_pr0 : 12288
 SAE Count : 0
 Inter-Core Inteference in Data Store : 37480228
Heartbeat CPU 1 instructions: 160000001 cycles: 102229420 heartbeat IPC: 1.80396 cumulative IPC: 1.56511 (Simulation time: 16 hr 4 min 28 sec) 
 Total Blocks : 196608 Invalid Blocks : 0 Valid Blocks : 196608
 Total Tags : 491520 Threshold : 12288 Invalid Tags : 196608 Pr0 Tags : 98304 Pr1 Tags : 196608 num_pr0 : 12288
 SAE Count : 0
 Inter-Core Inteference in Data Store : 37519005
Heartbeat CPU 2 instructions: 160000001 cycles: 102245844 heartbeat IPC: 1.80378 cumulative IPC: 1.56486 (Simulation time: 16 hr 4 min 42 sec) 
 Total Blocks : 196608 Invalid Blocks : 0 Valid Blocks : 196608
 Total Tags : 491520 Threshold : 12288 Invalid Tags : 196608 Pr0 Tags : 98304 Pr1 Tags : 196608 num_pr0 : 12288
 SAE Count : 0
 Inter-Core Inteference in Data Store : 37525582
Heartbeat CPU 3 instructions: 160000001 cycles: 102256790 heartbeat IPC: 1.80359 cumulative IPC: 1.56469 (Simulation time: 16 hr 4 min 48 sec) 
 Total Blocks : 196608 Invalid Blocks : 0 Valid Blocks : 196608
 Total Tags : 491520 Threshold : 12288 Invalid Tags : 196608 Pr0 Tags : 98304 Pr1 Tags : 196608 num_pr0 : 12288
 SAE Count : 0
 Inter-Core Inteference in Data Store : 37529774
Heartbeat CPU 4 instructions: 160000001 cycles: 102266348 heartbeat IPC: 1.80343 cumulative IPC: 1.56454 (Simulation time: 16 hr 4 min 53 sec) 
 Total Blocks : 196608 Invalid Blocks : 0 Valid Blocks : 196608
 Total Tags : 491520 Threshold : 12288 Invalid Tags : 196609 Pr0 Tags : 98303 Pr1 Tags : 196608 num_pr0 : 12288
 SAE Count : 0
 Inter-Core Inteference in Data Store : 37533186
Heartbeat CPU 5 instructions: 160000001 cycles: 102301714 heartbeat IPC: 1.80278 cumulative IPC: 1.564 (Simulation time: 16 hr 5 min 19 sec) 
 Total Blocks : 196608 Invalid Blocks : 0 Valid Blocks : 196608
 Total Tags : 491520 Threshold : 12288 Invalid Tags : 196610 Pr0 Tags : 98302 Pr1 Tags : 196608 num_pr0 : 12288
 SAE Count : 0
 Inter-Core Inteference in Data Store : 37545105
Heartbeat CPU 6 instructions: 160000001 cycles: 102315077 heartbeat IPC: 1.80246 cumulative IPC: 1.5638 (Simulation time: 16 hr 5 min 26 sec) 
 Total Blocks : 196608 Invalid Blocks : 0 Valid Blocks : 196608
 Total Tags : 491520 Threshold : 12288 Invalid Tags : 196608 Pr0 Tags : 98304 Pr1 Tags : 196608 num_pr0 : 12288
 SAE Count : 0
 Inter-Core Inteference in Data Store : 37548787
Heartbeat CPU 7 instructions: 160000001 cycles: 102320263 heartbeat IPC: 1.80249 cumulative IPC: 1.56372 (Simulation time: 16 hr 5 min 29 sec) 
 Total Blocks : 196608 Invalid Blocks : 0 Valid Blocks : 196608
 Total Tags : 491520 Threshold : 12288 Invalid Tags : 196608 Pr0 Tags : 98304 Pr1 Tags : 196608 num_pr0 : 12288
 SAE Count : 0
 Inter-Core Inteference in Data Store : 37550109
Heartbeat CPU 0 instructions: 170000001 cycles: 107653629 heartbeat IPC: 1.81525 cumulative IPC: 1.57914 (Simulation time: 17 hr 17 min 29 sec) 
 Total Blocks : 196608 Invalid Blocks : 0 Valid Blocks : 196608
 Total Tags : 491520 Threshold : 12288 Invalid Tags : 196608 Pr0 Tags : 98304 Pr1 Tags : 196608 num_pr0 : 12288
 SAE Count : 0
 Inter-Core Inteference in Data Store : 40191861
Heartbeat CPU 1 instructions: 170000001 cycles: 107742707 heartbeat IPC: 1.8138 cumulative IPC: 1.57783 (Simulation time: 17 hr 18 min 34 sec) 
 Total Blocks : 196608 Invalid Blocks : 0 Valid Blocks : 196608
 Total Tags : 491520 Threshold : 12288 Invalid Tags : 196608 Pr0 Tags : 98304 Pr1 Tags : 196608 num_pr0 : 12288
 SAE Count : 0
 Inter-Core Inteference in Data Store : 40225316
Heartbeat CPU 2 instructions: 170000002 cycles: 107760092 heartbeat IPC: 1.81348 cumulative IPC: 1.57758 (Simulation time: 17 hr 18 min 48 sec) 
 Total Blocks : 196608 Invalid Blocks : 0 Valid Blocks : 196608
 Total Tags : 491520 Threshold : 12288 Invalid Tags : 196608 Pr0 Tags : 98304 Pr1 Tags : 196608 num_pr0 : 12288
 SAE Count : 0
 Inter-Core Inteference in Data Store : 40234210
Heartbeat CPU 3 instructions: 170000001 cycles: 107771732 heartbeat IPC: 1.81326 cumulative IPC: 1.57741 (Simulation time: 17 hr 18 min 58 sec) 
 Total Blocks : 196608 Invalid Blocks : 0 Valid Blocks : 196608
 Total Tags : 491520 Threshold : 12288 Invalid Tags : 196608 Pr0 Tags : 98304 Pr1 Tags : 196608 num_pr0 : 12288
 SAE Count : 0
 Inter-Core Inteference in Data Store : 40240675
Heartbeat CPU 4 instructions: 170000001 cycles: 107782519 heartbeat IPC: 1.81285 cumulative IPC: 1.57725 (Simulation time: 17 hr 19 min 6 sec) 
 Total Blocks : 196608 Invalid Blocks : 0 Valid Blocks : 196608
 Total Tags : 491520 Threshold : 12288 Invalid Tags : 196608 Pr0 Tags : 98304 Pr1 Tags : 196608 num_pr0 : 12288
 SAE Count : 0
 Inter-Core Inteference in Data Store : 40246959
Heartbeat CPU 5 instructions: 170000001 cycles: 107819180 heartbeat IPC: 1.81243 cumulative IPC: 1.57671 (Simulation time: 17 hr 19 min 40 sec) 
 Total Blocks : 196608 Invalid Blocks : 0 Valid Blocks : 196608
 Total Tags : 491520 Threshold : 12288 Invalid Tags : 196608 Pr0 Tags : 98304 Pr1 Tags : 196608 num_pr0 : 12288
 SAE Count : 0
 Inter-Core Inteference in Data Store : 40268388
Heartbeat CPU 6 instructions: 170000001 cycles: 107832868 heartbeat IPC: 1.81232 cumulative IPC: 1.57651 (Simulation time: 17 hr 19 min 50 sec) 
 Total Blocks : 196608 Invalid Blocks : 0 Valid Blocks : 196608
 Total Tags : 491520 Threshold : 12288 Invalid Tags : 196608 Pr0 Tags : 98304 Pr1 Tags : 196608 num_pr0 : 12288
 SAE Count : 0
 Inter-Core Inteference in Data Store : 40276525
Heartbeat CPU 7 instructions: 170000001 cycles: 107838268 heartbeat IPC: 1.81225 cumulative IPC: 1.57643 (Simulation time: 17 hr 19 min 54 sec) 
 Total Blocks : 196608 Invalid Blocks : 0 Valid Blocks : 196608
 Total Tags : 491520 Threshold : 12288 Invalid Tags : 196608 Pr0 Tags : 98304 Pr1 Tags : 196608 num_pr0 : 12288
 SAE Count : 0
 Inter-Core Inteference in Data Store : 40279736
Heartbeat CPU 0 instructions: 180000002 cycles: 113116303 heartbeat IPC: 1.83061 cumulative IPC: 1.59128 (Simulation time: 18 hr 29 min 26 sec) 
 Total Blocks : 196608 Invalid Blocks : 0 Valid Blocks : 196608
 Total Tags : 491520 Threshold : 12288 Invalid Tags : 196608 Pr0 Tags : 98304 Pr1 Tags : 196608 num_pr0 : 12288
 SAE Count : 0
 Inter-Core Inteference in Data Store : 42977986
Heartbeat CPU 1 instructions: 180000002 cycles: 113209663 heartbeat IPC: 1.82917 cumulative IPC: 1.58997 (Simulation time: 18 hr 30 min 38 sec) 
 Total Blocks : 196608 Invalid Blocks : 0 Valid Blocks : 196608
 Total Tags : 491520 Threshold : 12288 Invalid Tags : 196608 Pr0 Tags : 98304 Pr1 Tags : 196608 num_pr0 : 12288
 SAE Count : 0
 Inter-Core Inteference in Data Store : 43027874
Heartbeat CPU 2 instructions: 180000002 cycles: 113227970 heartbeat IPC: 1.82886 cumulative IPC: 1.58971 (Simulation time: 18 hr 30 min 54 sec) 
 Total Blocks : 196608 Invalid Blocks : 0 Valid Blocks : 196608
 Total Tags : 491520 Threshold : 12288 Invalid Tags : 196608 Pr0 Tags : 98304 Pr1 Tags : 196608 num_pr0 : 12288
 SAE Count : 0
 Inter-Core Inteference in Data Store : 43038033
Heartbeat CPU 3 instructions: 180000002 cycles: 113240251 heartbeat IPC: 1.82865 cumulative IPC: 1.58954 (Simulation time: 18 hr 31 min 3 sec) 
 Total Blocks : 196608 Invalid Blocks : 0 Valid Blocks : 196608
 Total Tags : 491520 Threshold : 12288 Invalid Tags : 196608 Pr0 Tags : 98304 Pr1 Tags : 196608 num_pr0 : 12288
 SAE Count : 0
 Inter-Core Inteference in Data Store : 43044816
Heartbeat CPU 4 instructions: 180000002 cycles: 113251799 heartbeat IPC: 1.82839 cumulative IPC: 1.58938 (Simulation time: 18 hr 31 min 13 sec) 
 Total Blocks : 196608 Invalid Blocks : 0 Valid Blocks : 196608
 Total Tags : 491520 Threshold : 12288 Invalid Tags : 196608 Pr0 Tags : 98304 Pr1 Tags : 196608 num_pr0 : 12288
 SAE Count : 0
 Inter-Core Inteference in Data Store : 43051104
Heartbeat CPU 5 instructions: 180000002 cycles: 113289808 heartbeat IPC: 1.82794 cumulative IPC: 1.58885 (Simulation time: 18 hr 31 min 43 sec) 
 Total Blocks : 196608 Invalid Blocks : 0 Valid Blocks : 196608
 Total Tags : 491520 Threshold : 12288 Invalid Tags : 196608 Pr0 Tags : 98304 Pr1 Tags : 196608 num_pr0 : 12288
 SAE Count : 0
 Inter-Core Inteference in Data Store : 43070497
Heartbeat CPU 6 instructions: 180000002 cycles: 113304259 heartbeat IPC: 1.82769 cumulative IPC: 1.58864 (Simulation time: 18 hr 31 min 53 sec) 
 Total Blocks : 196608 Invalid Blocks : 0 Valid Blocks : 196608
 Total Tags : 491520 Threshold : 12288 Invalid Tags : 196608 Pr0 Tags : 98304 Pr1 Tags : 196608 num_pr0 : 12288
 SAE Count : 0
 Inter-Core Inteference in Data Store : 43077364
Heartbeat CPU 7 instructions: 180000002 cycles: 113310447 heartbeat IPC: 1.82743 cumulative IPC: 1.58856 (Simulation time: 18 hr 31 min 59 sec) 
 Total Blocks : 196608 Invalid Blocks : 0 Valid Blocks : 196608
 Total Tags : 491520 Threshold : 12288 Invalid Tags : 196608 Pr0 Tags : 98304 Pr1 Tags : 196608 num_pr0 : 12288
 SAE Count : 0
 Inter-Core Inteference in Data Store : 43080293
Heartbeat CPU 0 instructions: 190000000 cycles: 118552635 heartbeat IPC: 1.83948 cumulative IPC: 1.60266 (Simulation time: 19 hr 40 min 14 sec) 
 Total Blocks : 196608 Invalid Blocks : 0 Valid Blocks : 196608
 Total Tags : 491520 Threshold : 12288 Invalid Tags : 196608 Pr0 Tags : 98304 Pr1 Tags : 196608 num_pr0 : 12288
 SAE Count : 0
 Inter-Core Inteference in Data Store : 45731589
Heartbeat CPU 1 instructions: 190000000 cycles: 118649820 heartbeat IPC: 1.83818 cumulative IPC: 1.60135 (Simulation time: 19 hr 41 min 38 sec) 
 Total Blocks : 196608 Invalid Blocks : 0 Valid Blocks : 196608
 Total Tags : 491520 Threshold : 12288 Invalid Tags : 196608 Pr0 Tags : 98304 Pr1 Tags : 196608 num_pr0 : 12288
 SAE Count : 0
 Inter-Core Inteference in Data Store : 45789658
Heartbeat CPU 2 instructions: 190000000 cycles: 118669607 heartbeat IPC: 1.83768 cumulative IPC: 1.60108 (Simulation time: 19 hr 41 min 55 sec) 
 Total Blocks : 196608 Invalid Blocks : 0 Valid Blocks : 196608
 Total Tags : 491520 Threshold : 12288 Invalid Tags : 196608 Pr0 Tags : 98304 Pr1 Tags : 196608 num_pr0 : 12288
 SAE Count : 0
 Inter-Core Inteference in Data Store : 45801939
Heartbeat CPU 3 instructions: 190000000 cycles: 118682084 heartbeat IPC: 1.83762 cumulative IPC: 1.60092 (Simulation time: 19 hr 42 min 3 sec) 
 Total Blocks : 196608 Invalid Blocks : 0 Valid Blocks : 196608
 Total Tags : 491520 Threshold : 12288 Invalid Tags : 196608 Pr0 Tags : 98304 Pr1 Tags : 196608 num_pr0 : 12288
 SAE Count : 0
 Inter-Core Inteference in Data Store : 45809755
Heartbeat CPU 4 instructions: 190000000 cycles: 118694522 heartbeat IPC: 1.83732 cumulative IPC: 1.60075 (Simulation time: 19 hr 42 min 14 sec) 
 Total Blocks : 196608 Invalid Blocks : 0 Valid Blocks : 196608
 Total Tags : 491520 Threshold : 12288 Invalid Tags : 196608 Pr0 Tags : 98304 Pr1 Tags : 196608 num_pr0 : 12288
 SAE Count : 0
 Inter-Core Inteference in Data Store : 45817555
Heartbeat CPU 5 instructions: 190000000 cycles: 118733840 heartbeat IPC: 1.83687 cumulative IPC: 1.60022 (Simulation time: 19 hr 42 min 53 sec) 
 Total Blocks : 196608 Invalid Blocks : 0 Valid Blocks : 196608
 Total Tags : 491520 Threshold : 12288 Invalid Tags : 196609 Pr0 Tags : 98303 Pr1 Tags : 196608 num_pr0 : 12287
 SAE Count : 0
 Inter-Core Inteference in Data Store : 45842373
Heartbeat CPU 6 instructions: 190000000 cycles: 118748814 heartbeat IPC: 1.8367 cumulative IPC: 1.60002 (Simulation time: 19 hr 43 min 5 sec) 
 Total Blocks : 196608 Invalid Blocks : 0 Valid Blocks : 196608
 Total Tags : 491520 Threshold : 12288 Invalid Tags : 196608 Pr0 Tags : 98304 Pr1 Tags : 196608 num_pr0 : 12288
 SAE Count : 0
 Inter-Core Inteference in Data Store : 45851872
Heartbeat CPU 7 instructions: 190000000 cycles: 118755187 heartbeat IPC: 1.83663 cumulative IPC: 1.59993 (Simulation time: 19 hr 43 min 14 sec) 
 Total Blocks : 196608 Invalid Blocks : 0 Valid Blocks : 196608
 Total Tags : 491520 Threshold : 12288 Invalid Tags : 196608 Pr0 Tags : 98304 Pr1 Tags : 196608 num_pr0 : 12288
 SAE Count : 0
 Inter-Core Inteference in Data Store : 45855991
Heartbeat CPU 0 instructions: 200000000 cycles: 123966254 heartbeat IPC: 1.84719 cumulative IPC: 1.61334 (Simulation time: 20 hr 51 min 28 sec) 
 Total Blocks : 196608 Invalid Blocks : 0 Valid Blocks : 196608
 Total Tags : 491520 Threshold : 12288 Invalid Tags : 196608 Pr0 Tags : 98304 Pr1 Tags : 196608 num_pr0 : 12288
 SAE Count : 0
 Inter-Core Inteference in Data Store : 48548817
Heartbeat CPU 1 instructions: 200000000 cycles: 124067398 heartbeat IPC: 1.84584 cumulative IPC: 1.61203 (Simulation time: 20 hr 53 min 17 sec) 
 Total Blocks : 196608 Invalid Blocks : 0 Valid Blocks : 196608
 Total Tags : 491520 Threshold : 12288 Invalid Tags : 196608 Pr0 Tags : 98304 Pr1 Tags : 196608 num_pr0 : 12288
 SAE Count : 0
 Inter-Core Inteference in Data Store : 48611131
Heartbeat CPU 2 instructions: 200000000 cycles: 124088131 heartbeat IPC: 1.84552 cumulative IPC: 1.61176 (Simulation time: 20 hr 53 min 40 sec) 
 Total Blocks : 196608 Invalid Blocks : 0 Valid Blocks : 196608
 Total Tags : 491520 Threshold : 12288 Invalid Tags : 196608 Pr0 Tags : 98304 Pr1 Tags : 196608 num_pr0 : 12288
 SAE Count : 0
 Inter-Core Inteference in Data Store : 48624046
Heartbeat CPU 3 instructions: 200000000 cycles: 124100800 heartbeat IPC: 1.84546 cumulative IPC: 1.61159 (Simulation time: 20 hr 53 min 52 sec) 
 Total Blocks : 196608 Invalid Blocks : 0 Valid Blocks : 196608
 Total Tags : 491520 Threshold : 12288 Invalid Tags : 196608 Pr0 Tags : 98304 Pr1 Tags : 196608 num_pr0 : 12288
 SAE Count : 0
 Inter-Core Inteference in Data Store : 48631719
Heartbeat CPU 4 instructions: 200000000 cycles: 124114095 heartbeat IPC: 1.84516 cumulative IPC: 1.61142 (Simulation time: 20 hr 54 min 7 sec) 
 Total Blocks : 196608 Invalid Blocks : 0 Valid Blocks : 196608
 Total Tags : 491520 Threshold : 12288 Invalid Tags : 196608 Pr0 Tags : 98304 Pr1 Tags : 196608 num_pr0 : 12288
 SAE Count : 0
 Inter-Core Inteference in Data Store : 48639805
Heartbeat CPU 5 instructions: 200000000 cycles: 124154692 heartbeat IPC: 1.84473 cumulative IPC: 1.61089 (Simulation time: 20 hr 54 min 44 sec) 
 Total Blocks : 196608 Invalid Blocks : 0 Valid Blocks : 196608
 Total Tags : 491520 Threshold : 12288 Invalid Tags : 196608 Pr0 Tags : 98304 Pr1 Tags : 196608 num_pr0 : 12288
 SAE Count : 0
 Inter-Core Inteference in Data Store : 48664003
Heartbeat CPU 6 instructions: 200000000 cycles: 124170171 heartbeat IPC: 1.84456 cumulative IPC: 1.61069 (Simulation time: 20 hr 54 min 57 sec) 
 Total Blocks : 196608 Invalid Blocks : 0 Valid Blocks : 196608
 Total Tags : 491520 Threshold : 12288 Invalid Tags : 196608 Pr0 Tags : 98304 Pr1 Tags : 196608 num_pr0 : 12288
 SAE Count : 0
 Inter-Core Inteference in Data Store : 48672880
Heartbeat CPU 7 instructions: 200000000 cycles: 124176760 heartbeat IPC: 1.84448 cumulative IPC: 1.61061 (Simulation time: 20 hr 55 min 4 sec) 
 Total Blocks : 196608 Invalid Blocks : 0 Valid Blocks : 196608
 Total Tags : 491520 Threshold : 12288 Invalid Tags : 196608 Pr0 Tags : 98304 Pr1 Tags : 196608 num_pr0 : 12288
 SAE Count : 0
 Inter-Core Inteference in Data Store : 48676593

Warmup complete CPU 0 instructions: 200392680 cycles: 124176761 (Simulation time: 20 hr 55 min 4 sec) 
Warmup complete CPU 1 instructions: 200202954 cycles: 124176761 (Simulation time: 20 hr 55 min 4 sec) 
Warmup complete CPU 2 instructions: 200164109 cycles: 124176761 (Simulation time: 20 hr 55 min 4 sec) 
Warmup complete CPU 3 instructions: 200141011 cycles: 124176761 (Simulation time: 20 hr 55 min 4 sec) 
Warmup complete CPU 4 instructions: 200116386 cycles: 124176761 (Simulation time: 20 hr 55 min 4 sec) 
Warmup complete CPU 5 instructions: 200040905 cycles: 124176761 (Simulation time: 20 hr 55 min 4 sec) 
Warmup complete CPU 6 instructions: 200011885 cycles: 124176761 (Simulation time: 20 hr 55 min 4 sec) 
Warmup complete CPU 7 instructions: 200000004 cycles: 124176761 (Simulation time: 20 hr 55 min 4 sec) 

Heartbeat CPU 0 instructions: 210000002 cycles: 208534355 heartbeat IPC: 0.118248 cumulative IPC: 0.113888 (Simulation time: 23 hr 47 min 29 sec) 
 Total Blocks : 196608 Invalid Blocks : 0 Valid Blocks : 196608
 Total Tags : 491520 Threshold : 12288 Invalid Tags : 196608 Pr0 Tags : 98304 Pr1 Tags : 196608 num_pr0 : 12288
 SAE Count : 0
 Inter-Core Inteference in Data Store : 2456605
Heartbeat CPU 2 instructions: 210000002 cycles: 210281984 heartbeat IPC: 0.116018 cumulative IPC: 0.114231 (Simulation time: 23 hr 51 min 9 sec) 
 Total Blocks : 196608 Invalid Blocks : 0 Valid Blocks : 196608
 Total Tags : 491520 Threshold : 12288 Invalid Tags : 196608 Pr0 Tags : 98304 Pr1 Tags : 196608 num_pr0 : 12288
 SAE Count : 0
 Inter-Core Inteference in Data Store : 2508961
Heartbeat CPU 1 instructions: 210000002 cycles: 210554679 heartbeat IPC: 0.115624 cumulative IPC: 0.113421 (Simulation time: 23 hr 51 min 39 sec) 
 Total Blocks : 196608 Invalid Blocks : 0 Valid Blocks : 196608
 Total Tags : 491520 Threshold : 12288 Invalid Tags : 196608 Pr0 Tags : 98304 Pr1 Tags : 196608 num_pr0 : 12288
 SAE Count : 0
 Inter-Core Inteference in Data Store : 2517674
Heartbeat CPU 3 instructions: 210000002 cycles: 210835594 heartbeat IPC: 0.115294 cumulative IPC: 0.113768 (Simulation time: 23 hr 52 min 12 sec) 
 Total Blocks : 196608 Invalid Blocks : 0 Valid Blocks : 196608
 Total Tags : 491520 Threshold : 12288 Invalid Tags : 196608 Pr0 Tags : 98304 Pr1 Tags : 196608 num_pr0 : 12288
 SAE Count : 0
 Inter-Core Inteference in Data Store : 2526853
Heartbeat CPU 5 instructions: 210000002 cycles: 211036056 heartbeat IPC: 0.1151 cumulative IPC: 0.114658 (Simulation time: 23 hr 52 min 34 sec) 
 Total Blocks : 196608 Invalid Blocks : 0 Valid Blocks : 196608
 Total Tags : 491520 Threshold : 12288 Invalid Tags : 196608 Pr0 Tags : 98304 Pr1 Tags : 196608 num_pr0 : 12288
 SAE Count : 0
 Inter-Core Inteference in Data Store : 2533252
Heartbeat CPU 7 instructions: 210000002 cycles: 211293885 heartbeat IPC: 0.114788 cumulative IPC: 0.114788 (Simulation time: 23 hr 53 min 3 sec) 
 Total Blocks : 196608 Invalid Blocks : 0 Valid Blocks : 196608
 Total Tags : 491520 Threshold : 12288 Invalid Tags : 196608 Pr0 Tags : 98304 Pr1 Tags : 196608 num_pr0 : 12288
 SAE Count : 0
 Inter-Core Inteference in Data Store : 2541670
Heartbeat CPU 4 instructions: 210000002 cycles: 211310523 heartbeat IPC: 0.114684 cumulative IPC: 0.11343 (Simulation time: 23 hr 53 min 5 sec) 
 Total Blocks : 196608 Invalid Blocks : 0 Valid Blocks : 196608
 Total Tags : 491520 Threshold : 12288 Invalid Tags : 196608 Pr0 Tags : 98304 Pr1 Tags : 196608 num_pr0 : 12288
 SAE Count : 0
 Inter-Core Inteference in Data Store : 2542206
Heartbeat CPU 6 instructions: 210000002 cycles: 211375955 heartbeat IPC: 0.114671 cumulative IPC: 0.114544 (Simulation time: 23 hr 53 min 11 sec) 
 Total Blocks : 196608 Invalid Blocks : 0 Valid Blocks : 196608
 Total Tags : 491520 Threshold : 12288 Invalid Tags : 196608 Pr0 Tags : 98304 Pr1 Tags : 196608 num_pr0 : 12288
 SAE Count : 0
 Inter-Core Inteference in Data Store : 2544330
Heartbeat CPU 0 instructions: 220000000 cycles: 299929218 heartbeat IPC: 0.109415 cumulative IPC: 0.111562 (Simulation time: 26 hr 39 min 6 sec) 
 Total Blocks : 196608 Invalid Blocks : 0 Valid Blocks : 196608
 Total Tags : 491520 Threshold : 12288 Invalid Tags : 196608 Pr0 Tags : 98304 Pr1 Tags : 196608 num_pr0 : 12288
 SAE Count : 0
 Inter-Core Inteference in Data Store : 5230973
Heartbeat CPU 2 instructions: 220000000 cycles: 301650366 heartbeat IPC: 0.109447 cumulative IPC: 0.111768 (Simulation time: 26 hr 42 min 35 sec) 
 Total Blocks : 196608 Invalid Blocks : 0 Valid Blocks : 196608
 Total Tags : 491520 Threshold : 12288 Invalid Tags : 196608 Pr0 Tags : 98304 Pr1 Tags : 196608 num_pr0 : 12288
 SAE Count : 0
 Inter-Core Inteference in Data Store : 5283648
Heartbeat CPU 6 instructions: 220000000 cycles: 301784544 heartbeat IPC: 0.110609 cumulative IPC: 0.112541 (Simulation time: 26 hr 42 min 52 sec) 
 Total Blocks : 196608 Invalid Blocks : 0 Valid Blocks : 196608
 Total Tags : 491520 Threshold : 12288 Invalid Tags : 196608 Pr0 Tags : 98304 Pr1 Tags : 196608 num_pr0 : 12288
 SAE Count : 0
 Inter-Core Inteference in Data Store : 5288193
Heartbeat CPU 5 instructions: 220000000 cycles: 301800921 heartbeat IPC: 0.110175 cumulative IPC: 0.112367 (Simulation time: 26 hr 42 min 54 sec) 
 Total Blocks : 196608 Invalid Blocks : 0 Valid Blocks : 196608
 Total Tags : 491520 Threshold : 12288 Invalid Tags : 196608 Pr0 Tags : 98304 Pr1 Tags : 196608 num_pr0 : 12288
 SAE Count : 0
 Inter-Core Inteference in Data Store : 5288788
Heartbeat CPU 7 instructions: 220000000 cycles: 301903834 heartbeat IPC: 0.110363 cumulative IPC: 0.112532 (Simulation time: 26 hr 43 min 7 sec) 
 Total Blocks : 196608 Invalid Blocks : 0 Valid Blocks : 196608
 Total Tags : 491520 Threshold : 12288 Invalid Tags : 196608 Pr0 Tags : 98304 Pr1 Tags : 196608 num_pr0 : 12288
 SAE Count : 0
 Inter-Core Inteference in Data Store : 5292255
Heartbeat CPU 3 instructions: 220000000 cycles: 302104922 heartbeat IPC: 0.109566 cumulative IPC: 0.111612 (Simulation time: 26 hr 43 min 28 sec) 
 Total Blocks : 196608 Invalid Blocks : 0 Valid Blocks : 196608
 Total Tags : 491520 Threshold : 12288 Invalid Tags : 196608 Pr0 Tags : 98304 Pr1 Tags : 196608 num_pr0 : 12288
 SAE Count : 0
 Inter-Core Inteference in Data Store : 5298968
Heartbeat CPU 1 instructions: 220000000 cycles: 302111098 heartbeat IPC: 0.109222 cumulative IPC: 0.11126 (Simulation time: 26 hr 43 min 29 sec) 
 Total Blocks : 196608 Invalid Blocks : 0 Valid Blocks : 196608
 Total Tags : 491520 Threshold : 12288 Invalid Tags : 196608 Pr0 Tags : 98304 Pr1 Tags : 196608 num_pr0 : 12288
 SAE Count : 0
 Inter-Core Inteference in Data Store : 5299190
Heartbeat CPU 4 instructions: 220000000 cycles: 302567726 heartbeat IPC: 0.10958 cumulative IPC: 0.111461 (Simulation time: 26 hr 44 min 21 sec) 
 Total Blocks : 196608 Invalid Blocks : 0 Valid Blocks : 196608
 Total Tags : 491520 Threshold : 12288 Invalid Tags : 196608 Pr0 Tags : 98304 Pr1 Tags : 196608 num_pr0 : 12288
 SAE Count : 0
 Inter-Core Inteference in Data Store : 5314308
Heartbeat CPU 0 instructions: 230000000 cycles: 390749378 heartbeat IPC: 0.110108 cumulative IPC: 0.111067 (Simulation time: 29 hr 22 min 2 sec) 
 Total Blocks : 196608 Invalid Blocks : 0 Valid Blocks : 196608
 Total Tags : 491520 Threshold : 12288 Invalid Tags : 196608 Pr0 Tags : 98304 Pr1 Tags : 196608 num_pr0 : 12288
 SAE Count : 0
 Inter-Core Inteference in Data Store : 7982763
Heartbeat CPU 6 instructions: 230000000 cycles: 391622560 heartbeat IPC: 0.111311 cumulative IPC: 0.112128 (Simulation time: 29 hr 23 min 39 sec) 
 Total Blocks : 196608 Invalid Blocks : 0 Valid Blocks : 196608
 Total Tags : 491520 Threshold : 12288 Invalid Tags : 196608 Pr0 Tags : 98304 Pr1 Tags : 196608 num_pr0 : 12288
 SAE Count : 0
 Inter-Core Inteference in Data Store : 8009489
Heartbeat CPU 5 instructions: 230000000 cycles: 391734936 heartbeat IPC: 0.111193 cumulative IPC: 0.111972 (Simulation time: 29 hr 23 min 51 sec) 
 Total Blocks : 196608 Invalid Blocks : 0 Valid Blocks : 196608
 Total Tags : 491520 Threshold : 12288 Invalid Tags : 196608 Pr0 Tags : 98304 Pr1 Tags : 196608 num_pr0 : 12288
 SAE Count : 0
 Inter-Core Inteference in Data Store : 8012921
Heartbeat CPU 2 instructions: 230000000 cycles: 392098108 heartbeat IPC: 0.110561 cumulative IPC: 0.111361 (Simulation time: 29 hr 24 min 33 sec) 
 Total Blocks : 196608 Invalid Blocks : 0 Valid Blocks : 196608
 Total Tags : 491520 Threshold : 12288 Invalid Tags : 196608 Pr0 Tags : 98304 Pr1 Tags : 196608 num_pr0 : 12288
 SAE Count : 0
 Inter-Core Inteference in Data Store : 8023746
Heartbeat CPU 1 instructions: 230000000 cycles: 392244274 heartbeat IPC: 0.110947 cumulative IPC: 0.111155 (Simulation time: 29 hr 24 min 50 sec) 
 Total Blocks : 196608 Invalid Blocks : 0 Valid Blocks : 196608
 Total Tags : 491520 Threshold : 12288 Invalid Tags : 196608 Pr0 Tags : 98304 Pr1 Tags : 196608 num_pr0 : 12288
 SAE Count : 0
 Inter-Core Inteference in Data Store : 8028250
Heartbeat CPU 7 instructions: 230000000 cycles: 392423119 heartbeat IPC: 0.110474 cumulative IPC: 0.111837 (Simulation time: 29 hr 25 min 10 sec) 
 Total Blocks : 196608 Invalid Blocks : 0 Valid Blocks : 196608
 Total Tags : 491520 Threshold : 12288 Invalid Tags : 196608 Pr0 Tags : 98304 Pr1 Tags : 196608 num_pr0 : 12288
 SAE Count : 0
 Inter-Core Inteference in Data Store : 8033798
Heartbeat CPU 3 instructions: 230000000 cycles: 392635242 heartbeat IPC: 0.11046 cumulative IPC: 0.111224 (Simulation time: 29 hr 25 min 36 sec) 
 Total Blocks : 196608 Invalid Blocks : 0 Valid Blocks : 196608
 Total Tags : 491520 Threshold : 12288 Invalid Tags : 196608 Pr0 Tags : 98304 Pr1 Tags : 196608 num_pr0 : 12288
 SAE Count : 0
 Inter-Core Inteference in Data Store : 8040206
Heartbeat CPU 4 instructions: 230000000 cycles: 392663128 heartbeat IPC: 0.110993 cumulative IPC: 0.111304 (Simulation time: 29 hr 25 min 39 sec) 
 Total Blocks : 196608 Invalid Blocks : 0 Valid Blocks : 196608
 Total Tags : 491520 Threshold : 12288 Invalid Tags : 196608 Pr0 Tags : 98304 Pr1 Tags : 196608 num_pr0 : 12288
 SAE Count : 0
 Inter-Core Inteference in Data Store : 8041017
Heartbeat CPU 0 instructions: 240000003 cycles: 482885949 heartbeat IPC: 0.108535 cumulative IPC: 0.110416 (Simulation time: 32 hr 13 min 56 sec) 
 Total Blocks : 196608 Invalid Blocks : 0 Valid Blocks : 196608
 Total Tags : 491520 Threshold : 12288 Invalid Tags : 196609 Pr0 Tags : 98303 Pr1 Tags : 196608 num_pr0 : 12288
 SAE Count : 0
 Inter-Core Inteference in Data Store : 10817398
Heartbeat CPU 6 instructions: 240000003 cycles: 483514101 heartbeat IPC: 0.108824 cumulative IPC: 0.111283 (Simulation time: 32 hr 17 min 3 sec) 
 Total Blocks : 196608 Invalid Blocks : 0 Valid Blocks : 196608
 Total Tags : 491520 Threshold : 12288 Invalid Tags : 196608 Pr0 Tags : 98304 Pr1 Tags : 196608 num_pr0 : 12288
 SAE Count : 0
 Inter-Core Inteference in Data Store : 10837907
Heartbeat CPU 5 instructions: 240000003 cycles: 483586364 heartbeat IPC: 0.108872 cumulative IPC: 0.11118 (Simulation time: 32 hr 17 min 21 sec) 
 Total Blocks : 196608 Invalid Blocks : 0 Valid Blocks : 196608
 Total Tags : 491520 Threshold : 12288 Invalid Tags : 196608 Pr0 Tags : 98304 Pr1 Tags : 196608 num_pr0 : 12288
 SAE Count : 0
 Inter-Core Inteference in Data Store : 10840329
Heartbeat CPU 1 instructions: 240000003 cycles: 483960697 heartbeat IPC: 0.109032 cumulative IPC: 0.110614 (Simulation time: 32 hr 18 min 52 sec) 
 Total Blocks : 196608 Invalid Blocks : 0 Valid Blocks : 196608
 Total Tags : 491520 Threshold : 12288 Invalid Tags : 196608 Pr0 Tags : 98304 Pr1 Tags : 196608 num_pr0 : 12288
 SAE Count : 0
 Inter-Core Inteference in Data Store : 10852914
Heartbeat CPU 7 instructions: 240000003 cycles: 483984147 heartbeat IPC: 0.109217 cumulative IPC: 0.111171 (Simulation time: 32 hr 18 min 58 sec) 
 Total Blocks : 196608 Invalid Blocks : 0 Valid Blocks : 196608
 Total Tags : 491520 Threshold : 12288 Invalid Tags : 196608 Pr0 Tags : 98304 Pr1 Tags : 196608 num_pr0 : 12288
 SAE Count : 0
 Inter-Core Inteference in Data Store : 10853739
Heartbeat CPU 4 instructions: 240000003 cycles: 484057750 heartbeat IPC: 0.109416 cumulative IPC: 0.110824 (Simulation time: 32 hr 19 min 14 sec) 
 Total Blocks : 196608 Invalid Blocks : 0 Valid Blocks : 196608
 Total Tags : 491520 Threshold : 12288 Invalid Tags : 196608 Pr0 Tags : 98304 Pr1 Tags : 196608 num_pr0 : 12288
 SAE Count : 0
 Inter-Core Inteference in Data Store : 10856169
Heartbeat CPU 2 instructions: 240000003 cycles: 484327544 heartbeat IPC: 0.108425 cumulative IPC: 0.110609 (Simulation time: 32 hr 21 min 39 sec) 
 Total Blocks : 196608 Invalid Blocks : 0 Valid Blocks : 196608
 Total Tags : 491520 Threshold : 12288 Invalid Tags : 196608 Pr0 Tags : 98304 Pr1 Tags : 196608 num_pr0 : 12288
 SAE Count : 0
 Inter-Core Inteference in Data Store : 10865028
Heartbeat CPU 3 instructions: 240000003 cycles: 484385153 heartbeat IPC: 0.108992 cumulative IPC: 0.110655 (Simulation time: 32 hr 22 min 56 sec) 
 Total Blocks : 196608 Invalid Blocks : 0 Valid Blocks : 196608
 Total Tags : 491520 Threshold : 12288 Invalid Tags : 196608 Pr0 Tags : 98304 Pr1 Tags : 196608 num_pr0 : 12288
 SAE Count : 0
 Inter-Core Inteference in Data Store : 10866915
Heartbeat CPU 0 instructions: 250000000 cycles: 575298366 heartbeat IPC: 0.108211 cumulative IPC: 0.109964 (Simulation time: 80 hr 21 min 2 sec) 
 Total Blocks : 196608 Invalid Blocks : 0 Valid Blocks : 196608
 Total Tags : 491520 Threshold : 12288 Invalid Tags : 196608 Pr0 Tags : 98304 Pr1 Tags : 196608 num_pr0 : 12288
 SAE Count : 0
 Inter-Core Inteference in Data Store : 13737702
Heartbeat CPU 5 instructions: 250000000 cycles: 575777310 heartbeat IPC: 0.10847 cumulative IPC: 0.110627 (Simulation time: 80 hr 27 min 6 sec) 
 Total Blocks : 196608 Invalid Blocks : 0 Valid Blocks : 196608
 Total Tags : 491520 Threshold : 12288 Invalid Tags : 196608 Pr0 Tags : 98304 Pr1 Tags : 196608 num_pr0 : 12288
 SAE Count : 0
 Inter-Core Inteference in Data Store : 13753747
Heartbeat CPU 7 instructions: 250000000 cycles: 575791111 heartbeat IPC: 0.108924 cumulative IPC: 0.110714 (Simulation time: 80 hr 27 min 9 sec) 
 Total Blocks : 196608 Invalid Blocks : 0 Valid Blocks : 196608
 Total Tags : 491520 Threshold : 12288 Invalid Tags : 196608 Pr0 Tags : 98304 Pr1 Tags : 196608 num_pr0 : 12288
 SAE Count : 0
 Inter-Core Inteference in Data Store : 13754214
Heartbeat CPU 6 instructions: 250000000 cycles: 576008590 heartbeat IPC: 0.108115 cumulative IPC: 0.110634 (Simulation time: 80 hr 29 min 57 sec) 
 Total Blocks : 196608 Invalid Blocks : 0 Valid Blocks : 196608
 Total Tags : 491520 Threshold : 12288 Invalid Tags : 196608 Pr0 Tags : 98304 Pr1 Tags : 196608 num_pr0 : 12288
 SAE Count : 0
 Inter-Core Inteference in Data Store : 13761476
Heartbeat CPU 1 instructions: 250000000 cycles: 576013145 heartbeat IPC: 0.108634 cumulative IPC: 0.11021 (Simulation time: 80 hr 29 min 58 sec) 
 Total Blocks : 196608 Invalid Blocks : 0 Valid Blocks : 196608
 Total Tags : 491520 Threshold : 12288 Invalid Tags : 196608 Pr0 Tags : 98304 Pr1 Tags : 196608 num_pr0 : 12288
 SAE Count : 0
 Inter-Core Inteference in Data Store : 13761637
Heartbeat CPU 3 instructions: 250000000 cycles: 576064036 heartbeat IPC: 0.109076 cumulative IPC: 0.110335 (Simulation time: 80 hr 30 min 40 sec) 
 Total Blocks : 196608 Invalid Blocks : 0 Valid Blocks : 196608
 Total Tags : 491520 Threshold : 12288 Invalid Tags : 196608 Pr0 Tags : 98304 Pr1 Tags : 196608 num_pr0 : 12288
 SAE Count : 0
 Inter-Core Inteference in Data Store : 13763331
Heartbeat CPU 4 instructions: 250000000 cycles: 576419600 heartbeat IPC: 0.10827 cumulative IPC: 0.110303 (Simulation time: 80 hr 35 min 23 sec) 
[...]
LLC4 RFO       ACCESS: 11722  HIT:  4199  MISS:  7523  HIT %: 35.8215  MISS %: 64.1785  AVERAGE MISS PENALTY: 690.925
LLC4 PREFETCH  ACCESS: 5454383  HIT: 2439680  MISS: 3014703  HIT %: 44.7288  MISS %: 55.2712  AVERAGE MISS PENALTY: 727.552
LLC4 WRITEBACK ACCESS: 52682  HIT: 24859  MISS: 27823  HIT %: 47.1869  MISS %: 52.8131  AVERAGE MISS PENALTY: 0
LLC4 PREFETCH  REQUESTED:     0  ISSUED:     0  USEFUL: 1416958  USELESS: 5246215
 USEFUL LOAD PREFETCHES:    1416958 PREFETCH ISSUED TO LOWER LEVEL: 1137323872  ACCURACY: 0.124587
 TIMELY PREFETCHES:    1416958 LATE PREFETCHES: 0 DROPPED PREFETCHES: 0
LLC4 AVERAGE MISS LATENCY: 720.678 cycles

LLC4 Set Associative Eviction Count : 0
LLC4 Priority 0 entries : 12288
LLC4 Inter-Core Interference : 7283960
LLC5 TOTAL     ACCESS: 6618391  HIT: 3027086  MISS: 3591305  HIT %: 45.7375  MISS %: 54.2625  AVERAGE MISS PENALTY: 688.056
LLC5 LOAD      ACCESS: 1169467  HIT: 580770  MISS: 588697  HIT %: 49.6611  MISS %: 50.3389  AVERAGE MISS PENALTY: 681.839
LLC5 RFO       ACCESS: 11674  HIT:  4100  MISS:  7574  HIT %: 35.1208  MISS %: 64.8792  AVERAGE MISS PENALTY: 651.538
LLC5 PREFETCH  ACCESS: 5384839  HIT: 2417435  MISS: 2967404  HIT %: 44.8934  MISS %: 55.1066  AVERAGE MISS PENALTY: 695.789
LLC5 WRITEBACK ACCESS: 52411  HIT: 24781  MISS: 27630  HIT %: 47.2821  MISS %: 52.7179  AVERAGE MISS PENALTY: 0
LLC5 PREFETCH  REQUESTED:     0  ISSUED:     0  USEFUL: 1386032  USELESS: 5201732
 USEFUL LOAD PREFETCHES:    1386032 PREFETCH ISSUED TO LOWER LEVEL:  875827074  ACCURACY: 0.158254
 TIMELY PREFETCHES:    1386032 LATE PREFETCHES: 0 DROPPED PREFETCHES: 0
LLC5 AVERAGE MISS LATENCY: 688.056 cycles

LLC5 Set Associative Eviction Count : 0
LLC5 Priority 0 entries : 12288
LLC5 Inter-Core Interference : 7218173
LLC6 TOTAL     ACCESS: 6519523  HIT: 3014184  MISS: 3505339  HIT %: 46.2332  MISS %: 53.7668  AVERAGE MISS PENALTY: 706.467
LLC6 LOAD      ACCESS: 1181981  HIT: 596593  MISS: 585388  HIT %: 50.474  MISS %: 49.526  AVERAGE MISS PENALTY: 705.892
LLC6 RFO       ACCESS: 11533  HIT:  4132  MISS:  7401  HIT %: 35.8276  MISS %: 64.1724  AVERAGE MISS PENALTY: 697.764
LLC6 PREFETCH  ACCESS: 5273246  HIT: 2388405  MISS: 2884841  HIT %: 45.2929  MISS %: 54.7071  AVERAGE MISS PENALTY: 713.391
LLC6 WRITEBACK ACCESS: 52763  HIT: 25054  MISS: 27709  HIT %: 47.484  MISS %: 52.516  AVERAGE MISS PENALTY: 0
LLC6 PREFETCH  REQUESTED:     0  ISSUED:     0  USEFUL: 1392236  USELESS: 5094242
 USEFUL LOAD PREFETCHES:    1392236 PREFETCH ISSUED TO LOWER LEVEL: 1644321116  ACCURACY: 0.0846693
 TIMELY PREFETCHES:    1392236 LATE PREFETCHES: 0 DROPPED PREFETCHES: 0
LLC6 AVERAGE MISS LATENCY: 706.467 cycles

LLC6 Set Associative Eviction Count : 0
LLC6 Priority 0 entries : 12288
LLC6 Inter-Core Interference : 7125494
LLC7 TOTAL     ACCESS: 6393151  HIT: 2990373  MISS: 3402778  HIT %: 46.7746  MISS %: 53.2254  AVERAGE MISS PENALTY: 680.889
LLC7 LOAD      ACCESS: 1174400  HIT: 582769  MISS: 591631  HIT %: 49.6227  MISS %: 50.3773  AVERAGE MISS PENALTY: 668.873
LLC7 RFO       ACCESS: 11551  HIT:  4135  MISS:  7416  HIT %: 35.7978  MISS %: 64.2022  AVERAGE MISS PENALTY: 657.589
LLC7 PREFETCH  ACCESS: 5154574  HIT: 2378563  MISS: 2776011  HIT %: 46.1447  MISS %: 53.8553  AVERAGE MISS PENALTY: 690.312
LLC7 WRITEBACK ACCESS: 52626  HIT: 24906  MISS: 27720  HIT %: 47.3264  MISS %: 52.6736  AVERAGE MISS PENALTY: 0
LLC7 PREFETCH  REQUESTED:     0  ISSUED:     0  USEFUL: 1368259  USELESS: 5045582
 USEFUL LOAD PREFETCHES:    1368259 PREFETCH ISSUED TO LOWER LEVEL: 1250007096  ACCURACY: 0.10946
 TIMELY PREFETCHES:    1368259 LATE PREFETCHES: 0 DROPPED PREFETCHES: 0
LLC7 AVERAGE MISS LATENCY: 680.889 cycles

LLC7 Set Associative Eviction Count : 0
LLC7 Priority 0 entries : 12288
LLC7 Inter-Core Interference : 7074049
ROI Average ROB Stall Cycles:	56.6503
ROI Total ROB Stalls Cycles:	1795170677
ROI TOTAL ROB counter      :	31688646
ROI Average Load ROB Stall Cycles:	387.605
ROI Total Load ROB Stalls Cycle  :	1703641689
ROI Total Load ROB stalls Counter:	4395299
Major fault: 0 Minor fault: 58242

CPU 7 cumulative IPC: 0.108916 instructions: 200000002 cycles: 1836283210
ITLB TOTAL     ACCESS: 30228017  HIT: 30228017  MISS:     0  HIT %:   100  MISS %:     0  AVERAGE MISS PENALTY: 0
ITLB LOAD      ACCESS: 30228017  HIT: 30228017  MISS:     0  HIT %:   100  MISS %:     0  AVERAGE MISS PENALTY: 0
ITLB RFO       ACCESS:     0  HIT:     0  MISS:     0  HIT %:     0  MISS %:     0  AVERAGE MISS PENALTY: 0
ITLB PREFETCH  ACCESS:     0  HIT:     0  MISS:     0  HIT %:     0  MISS %:     0  AVERAGE MISS PENALTY: 0
ITLB WRITEBACK ACCESS:     0  HIT:     0  MISS:     0  HIT %:     0  MISS %:     0  AVERAGE MISS PENALTY: 0
ITLB PREFETCH  REQUESTED:     0  ISSUED:     0  USEFUL:     0  USELESS:     0
 USEFUL LOAD PREFETCHES:          0 PREFETCH ISSUED TO LOWER LEVEL:          0  ACCURACY: -nan
 TIMELY PREFETCHES:          0 LATE PREFETCHES: 0 DROPPED PREFETCHES: 0
ITLB AVERAGE MISS LATENCY: -nan cycles

ITLB Set Associative Eviction Count : 0
ITLB Priority 0 entries : 0
ITLB Inter-Core Interference : 0
DTLB TOTAL     ACCESS: 55632105  HIT: 49106737  MISS: 6525368  HIT %: 88.2705  MISS %: 11.7295  AVERAGE MISS PENALTY: 11.0439
DTLB LOAD      ACCESS: 54569682  HIT: 48346419  MISS: 6223263  HIT %: 88.5957  MISS %: 11.4043  AVERAGE MISS PENALTY: 10.859
DTLB RFO       ACCESS: 1062423  HIT: 760318  MISS: 302105  HIT %: 71.5645  MISS %: 28.4355  AVERAGE MISS PENALTY: 14.8535
DTLB PREFETCH  ACCESS:     0  HIT:     0  MISS:     0  HIT %:     0  MISS %:     0  AVERAGE MISS PENALTY: 0
DTLB WRITEBACK ACCESS:     0  HIT:     0  MISS:     0  HIT %:     0  MISS %:     0  AVERAGE MISS PENALTY: 0
DTLB PREFETCH  REQUESTED:     0  ISSUED:     0  USEFUL:     0  USELESS:     0
 USEFUL LOAD PREFETCHES:          0 PREFETCH ISSUED TO LOWER LEVEL:          0  ACCURACY: -nan
 TIMELY PREFETCHES:          0 LATE PREFETCHES: 0 DROPPED PREFETCHES: 0
DTLB AVERAGE MISS LATENCY: 11.0439 cycles

DTLB Set Associative Eviction Count : 0
DTLB Priority 0 entries : 0
DTLB Inter-Core Interference : 0
STLB TOTAL     ACCESS: 6525368  HIT: 6430893  MISS: 94475  HIT %: 98.5522  MISS %: 1.44781  AVERAGE MISS PENALTY: 100
STLB LOAD      ACCESS: 6223263  HIT: 6146360  MISS: 76903  HIT %: 98.7643  MISS %: 1.23573  AVERAGE MISS PENALTY: 100
STLB RFO       ACCESS: 302105  HIT: 284533  MISS: 17572  HIT %: 94.1835  MISS %: 5.81652  AVERAGE MISS PENALTY: 100
STLB PREFETCH  ACCESS:     0  HIT:     0  MISS:     0  HIT %:     0  MISS %:     0  AVERAGE MISS PENALTY: 0
STLB WRITEBACK ACCESS:     0  HIT:     0  MISS:     0  HIT %:     0  MISS %:     0  AVERAGE MISS PENALTY: 0
STLB PREFETCH  REQUESTED:     0  ISSUED:     0  USEFUL:     0  USELESS:     0
 USEFUL LOAD PREFETCHES:          0 PREFETCH ISSUED TO LOWER LEVEL:          0  ACCURACY: -nan
 TIMELY PREFETCHES:          0 LATE PREFETCHES: 0 DROPPED PREFETCHES: 0
STLB AVERAGE MISS LATENCY: 100 cycles

STLB Set Associative Eviction Count : 0
STLB Priority 0 entries : 0
STLB Inter-Core Interference : 0
L1D TOTAL     ACCESS: 77131595  HIT: 41194972  MISS: 35936623  HIT %: 53.4087  MISS %: 46.5913  AVERAGE MISS PENALTY: 2.28565e+06
L1D LOAD      ACCESS: 46789080  HIT: 36972242  MISS: 9816838  HIT %: 79.019  MISS %: 20.981  AVERAGE MISS PENALTY: 8.36583e+06
L1D RFO       ACCESS: 1064244  HIT: 744055  MISS: 320189  HIT %: 69.9139  MISS %: 30.0861  AVERAGE MISS PENALTY: 163.115
L1D PREFETCH  ACCESS: 29278271  HIT: 3478675  MISS: 25799596  HIT %: 11.8814  MISS %: 88.1186  AVERAGE MISS PENALTY: 487.179
L1D WRITEBACK ACCESS:     0  HIT:     0  MISS:     0  HIT %:     0  MISS %:     0  AVERAGE MISS PENALTY: 0
L1D PREFETCH  REQUESTED: 40888092  ISSUED: 30119196  USEFUL: 1237724  USELESS: 24561892
 USEFUL LOAD PREFETCHES:    1237724 PREFETCH ISSUED TO LOWER LEVEL:  524557900  ACCURACY: 0.235956
 TIMELY PREFETCHES:    1237724 LATE PREFETCHES: 264040 DROPPED PREFETCHES: 10768896
L1D AVERAGE MISS LATENCY: 433.571 cycles

L1D Set Associative Eviction Count : 0
L1D Priority 0 entries : 0
L1D Inter-Core Interference : 0
L1I TOTAL     ACCESS: 44174792  HIT: 44174792  MISS:     0  HIT %:   100  MISS %:     0  AVERAGE MISS PENALTY: 0
L1I LOAD      ACCESS: 44174792  HIT: 44174792  MISS:     0  HIT %:   100  MISS %:     0  AVERAGE MISS PENALTY: 0
L1I RFO       ACCESS:     0  HIT:     0  MISS:     0  HIT %:     0  MISS %:     0  AVERAGE MISS PENALTY: 0
L1I PREFETCH  ACCESS:     0  HIT:     0  MISS:     0  HIT %:     0  MISS %:     0  AVERAGE MISS PENALTY: 0
L1I WRITEBACK ACCESS:     0  HIT:     0  MISS:     0  HIT %:     0  MISS %:     0  AVERAGE MISS PENALTY: 0
L1I PREFETCH  REQUESTED:     0  ISSUED:     0  USEFUL:     0  USELESS:     0
 USEFUL LOAD PREFETCHES:          0 PREFETCH ISSUED TO LOWER LEVEL:          0  ACCURACY: -nan
 TIMELY PREFETCHES:          0 LATE PREFETCHES: 0 DROPPED PREFETCHES: 0
L1I AVERAGE MISS LATENCY: -nan cycles

L1I Set Associative Eviction Count : 0
L1I Priority 0 entries : 0
L1I Inter-Core Interference : 0
L2C TOTAL     ACCESS: 58326967  HIT: 4930078  MISS: 53396889  HIT %: 8.45248  MISS %: 91.5475  AVERAGE MISS PENALTY: 1.89938e+06
L2C LOAD      ACCESS: 9811306  HIT: 320699  MISS: 9490607  HIT %: 3.26867  MISS %: 96.7313  AVERAGE MISS PENALTY: 1.06843e+07
L2C RFO       ACCESS: 320176  HIT: 225459  MISS: 94717  HIT %: 70.4172  MISS %: 29.5828  AVERAGE MISS PENALTY: 500.196
L2C PREFETCH  ACCESS: 47308112  HIT: 3730724  MISS: 43577388  HIT %: 7.88601  MISS %: 92.114  AVERAGE MISS PENALTY: 478.582
L2C WRITEBACK ACCESS: 887373  HIT: 653196  MISS: 234177  HIT %: 73.6101  MISS %: 26.3899  AVERAGE MISS PENALTY: 0
L2C PREFETCH  REQUESTED: 58933857  ISSUED: 58293902  USEFUL: 49437  USELESS: 43528186
 USEFUL LOAD PREFETCHES:      49437 PREFETCH ISSUED TO LOWER LEVEL:   60371254  ACCURACY: 0.0818883
 TIMELY PREFETCHES:      49437 LATE PREFETCHES: 507864 DROPPED PREFETCHES: 639955
L2C AVERAGE MISS LATENCY: 462.675 cycles

L2C Set Associative Eviction Count : 0
L2C Priority 0 entries : 0
L2C Inter-Core Interference : 0
LLC0 TOTAL     ACCESS: 6843816  HIT: 3106149  MISS: 3737667  HIT %: 45.3862  MISS %: 54.6138  AVERAGE MISS PENALTY: 830.459
LLC0 LOAD      ACCESS: 1206832  HIT: 591112  MISS: 615720  HIT %: 48.9805  MISS %: 51.0195  AVERAGE MISS PENALTY: 831.037
LLC0 RFO       ACCESS: 11858  HIT:  4380  MISS:  7478  HIT %: 36.9371  MISS %: 63.0629  AVERAGE MISS PENALTY: 779.13
LLC0 PREFETCH  ACCESS: 5572769  HIT: 2485673  MISS: 3087096  HIT %: 44.6039  MISS %: 55.3961  AVERAGE MISS PENALTY: 837.831
LLC0 WRITEBACK ACCESS: 52357  HIT: 24984  MISS: 27373  HIT %: 47.7185  MISS %: 52.2815  AVERAGE MISS PENALTY: 0
LLC0 PREFETCH  REQUESTED:     0  ISSUED:     0  USEFUL: 1425152  USELESS: 5437709
 USEFUL LOAD PREFETCHES:    1425152 PREFETCH ISSUED TO LOWER LEVEL:  463414705  ACCURACY: 0.307533
 TIMELY PREFETCHES:    1425152 LATE PREFETCHES: 0 DROPPED PREFETCHES: 0
LLC0 AVERAGE MISS LATENCY: 830.459 cycles

LLC0 Set Associative Eviction Count : 0
LLC0 Priority 0 entries : 12288
LLC0 Inter-Core Interference : 7475517
LLC1 TOTAL     ACCESS: 6875573  HIT: 3111207  MISS: 3764366  HIT %: 45.2501  MISS %: 54.7499  AVERAGE MISS PENALTY: 815.747
LLC1 LOAD      ACCESS: 1148496  HIT: 563444  MISS: 585052  HIT %: 49.0593  MISS %: 50.9407  AVERAGE MISS PENALTY: 817.365
LLC1 RFO       ACCESS: 11857  HIT:  4384  MISS:  7473  HIT %: 36.9739  MISS %: 63.0261  AVERAGE MISS PENALTY: 766.387
LLC1 PREFETCH  ACCESS: 5662363  HIT: 2518378  MISS: 3143985  HIT %: 44.4757  MISS %: 55.5243  AVERAGE MISS PENALTY: 822.79
LLC1 WRITEBACK ACCESS: 52857  HIT: 25001  MISS: 27856  HIT %: 47.2993  MISS %: 52.7007  AVERAGE MISS PENALTY: 0
LLC1 PREFETCH  REQUESTED:     0  ISSUED:     0  USEFUL: 1429425  USELESS: 5508966
 USEFUL LOAD PREFETCHES:    1429425 PREFETCH ISSUED TO LOWER LEVEL:  375463997  ACCURACY: 0.380709
 TIMELY PREFETCHES:    1429425 LATE PREFETCHES: 0 DROPPED PREFETCHES: 0
LLC1 AVERAGE MISS LATENCY: 815.746 cycles

LLC1 Set Associative Eviction Count : 0
LLC1 Priority 0 entries : 12288
LLC1 Inter-Core Interference : 7505044
LLC2 TOTAL     ACCESS: 6869716  HIT: 3109526  MISS: 3760190  HIT %: 45.2643  MISS %: 54.7357  AVERAGE MISS PENALTY: 822.416
LLC2 LOAD      ACCESS: 1177134  HIT: 588372  MISS: 588762  HIT %: 49.9834  MISS %: 50.0166  AVERAGE MISS PENALTY: 829.876
LLC2 RFO       ACCESS: 11869  HIT:  4336  MISS:  7533  HIT %: 36.5321  MISS %: 63.4679  AVERAGE MISS PENALTY: 799.187
LLC2 PREFETCH  ACCESS: 5627576  HIT: 2491537  MISS: 3136039  HIT %: 44.2737  MISS %: 55.7263  AVERAGE MISS PENALTY: 828.376
LLC2 WRITEBACK ACCESS: 53137  HIT: 25281  MISS: 27856  HIT %: 47.577  MISS %: 52.423  AVERAGE MISS PENALTY: 0
LLC2 PREFETCH  REQUESTED:     0  ISSUED:     0  USEFUL: 1419787  USELESS: 5484874
 USEFUL LOAD PREFETCHES:    1419787 PREFETCH ISSUED TO LOWER LEVEL:  749640682  ACCURACY: 0.189396
 TIMELY PREFETCHES:    1419787 LATE PREFETCHES: 0 DROPPED PREFETCHES: 0
LLC2 AVERAGE MISS LATENCY: 822.416 cycles

LLC2 Set Associative Eviction Count : 0
LLC2 Priority 0 entries : 12288
LLC2 Inter-Core Interference : 7492154
LLC3 TOTAL     ACCESS: 6775823  HIT: 3073302  MISS: 3702521  HIT %: 45.3569  MISS %: 54.6431  AVERAGE MISS PENALTY: 808.815
LLC3 LOAD      ACCESS: 1188740  HIT: 591324  MISS: 597416  HIT %: 49.7438  MISS %: 50.2562  AVERAGE MISS PENALTY: 814.255
LLC3 RFO       ACCESS: 11813  HIT:  4325  MISS:  7488  HIT %: 36.6122  MISS %: 63.3878  AVERAGE MISS PENALTY: 781.059
LLC3 PREFETCH  ACCESS: 5522531  HIT: 2452816  MISS: 3069715  HIT %: 44.4147  MISS %: 55.5853  AVERAGE MISS PENALTY: 815.175
LLC3 WRITEBACK ACCESS: 52739  HIT: 24837  MISS: 27902  HIT %: 47.0942  MISS %: 52.9058  AVERAGE MISS PENALTY: 0
LLC3 PREFETCH  REQUESTED:     0  ISSUED:     0  USEFUL: 1412128  USELESS: 5357265
 USEFUL LOAD PREFETCHES:    1412128 PREFETCH ISSUED TO LOWER LEVEL:  583649527  ACCURACY: 0.241948
 TIMELY PREFETCHES:    1412128 LATE PREFETCHES: 0 DROPPED PREFETCHES: 0
LLC3 AVERAGE MISS LATENCY: 808.815 cycles

LLC3 Set Associative Eviction Count : 0
LLC3 Priority 0 entries : 12288
LLC3 Inter-Core Interference : 7390653
LLC4 TOTAL     ACCESS: 6688713  HIT: 3048217  MISS: 3640496  HIT %: 45.5725  MISS %: 54.4275  AVERAGE MISS PENALTY: 720.455
LLC4 LOAD      ACCESS: 1168945  HIT: 576280  MISS: 592665  HIT %: 49.2992  MISS %: 50.7008  AVERAGE MISS PENALTY: 720.279
LLC4 RFO       ACCESS: 11889  HIT:  4399  MISS:  7490  HIT %: 37.0006  MISS %: 62.9994  AVERAGE MISS PENALTY: 677.774
LLC4 PREFETCH  ACCESS: 5455019  HIT: 2442425  MISS: 3012594  HIT %: 44.7739  MISS %: 55.2261  AVERAGE MISS PENALTY: 727.231
LLC4 WRITEBACK ACCESS: 52860  HIT: 25113  MISS: 27747  HIT %: 47.5085  MISS %: 52.4915  AVERAGE MISS PENALTY: 0
LLC4 PREFETCH  REQUESTED:     0  ISSUED:     0  USEFUL: 1416958  USELESS: 5246215
 USEFUL LOAD PREFETCHES:    1416958 PREFETCH ISSUED TO LOWER LEVEL: 1137323872  ACCURACY: 0.124587
 TIMELY PREFETCHES:    1416958 LATE PREFETCHES: 0 DROPPED PREFETCHES: 0
LLC4 AVERAGE MISS LATENCY: 720.455 cycles

LLC4 Set Associative Eviction Count : 0
LLC4 Priority 0 entries : 12288
LLC4 Inter-Core Interference : 7283960
LLC5 TOTAL     ACCESS: 6618638  HIT: 3032201  MISS: 3586437  HIT %: 45.8131  MISS %: 54.1869  AVERAGE MISS PENALTY: 688.57
LLC5 LOAD      ACCESS: 1169645  HIT: 581405  MISS: 588240  HIT %: 49.7078  MISS %: 50.2922  AVERAGE MISS PENALTY: 682.536
LLC5 RFO       ACCESS: 11874  HIT:  4348  MISS:  7526  HIT %: 36.6178  MISS %: 63.3822  AVERAGE MISS PENALTY: 648.024
LLC5 PREFETCH  ACCESS: 5384466  HIT: 2421344  MISS: 2963122  HIT %: 44.9691  MISS %: 55.0309  AVERAGE MISS PENALTY: 696.272
LLC5 WRITEBACK ACCESS: 52653  HIT: 25104  MISS: 27549  HIT %: 47.6782  MISS %: 52.3218  AVERAGE MISS PENALTY: 0
LLC5 PREFETCH  REQUESTED:     0  ISSUED:     0  USEFUL: 1386032  USELESS: 5201732
 USEFUL LOAD PREFETCHES:    1386032 PREFETCH ISSUED TO LOWER LEVEL:  875827074  ACCURACY: 0.158254
 TIMELY PREFETCHES:    1386032 LATE PREFETCHES: 0 DROPPED PREFETCHES: 0
LLC5 AVERAGE MISS LATENCY: 688.57 cycles

LLC5 Set Associative Eviction Count : 0
LLC5 Priority 0 entries : 12288
LLC5 Inter-Core Interference : 7218173
LLC6 TOTAL     ACCESS: 6519005  HIT: 3020420  MISS: 3498585  HIT %: 46.3325  MISS %: 53.6675  AVERAGE MISS PENALTY: 706.795
LLC6 LOAD      ACCESS: 1182116  HIT: 597946  MISS: 584170  HIT %: 50.5827  MISS %: 49.4173  AVERAGE MISS PENALTY: 705.613
LLC6 RFO       ACCESS: 11746  HIT:  4293  MISS:  7453  HIT %: 36.5486  MISS %: 63.4514  AVERAGE MISS PENALTY: 679.391
LLC6 PREFETCH  ACCESS: 5272179  HIT: 2392938  MISS: 2879241  HIT %: 45.388  MISS %: 54.612  AVERAGE MISS PENALTY: 713.911
LLC6 WRITEBACK ACCESS: 52964  HIT: 25243  MISS: 27721  HIT %: 47.6607  MISS %: 52.3393  AVERAGE MISS PENALTY: 0
LLC6 PREFETCH  REQUESTED:     0  ISSUED:     0  USEFUL: 1392236  USELESS: 5094242
 USEFUL LOAD PREFETCHES:    1392236 PREFETCH ISSUED TO LOWER LEVEL: 1644321116  ACCURACY: 0.0846693
 TIMELY PREFETCHES:    1392236 LATE PREFETCHES: 0 DROPPED PREFETCHES: 0
LLC6 AVERAGE MISS LATENCY: 706.795 cycles

LLC6 Set Associative Eviction Count : 0
LLC6 Priority 0 entries : 12288
LLC6 Inter-Core Interference : 7125494
LLC7 TOTAL     ACCESS: 6393896  HIT: 2996290  MISS: 3397606  HIT %: 46.8617  MISS %: 53.1383  AVERAGE MISS PENALTY: 680.977
LLC7 LOAD      ACCESS: 1174733  HIT: 584263  MISS: 590470  HIT %: 49.7358  MISS %: 50.2642  AVERAGE MISS PENALTY: 667.95
LLC7 RFO       ACCESS: 11809  HIT:  4357  MISS:  7452  HIT %: 36.8956  MISS %: 63.1044  AVERAGE MISS PENALTY: 659.37
LLC7 PREFETCH  ACCESS: 5154447  HIT: 2382519  MISS: 2771928  HIT %: 46.2226  MISS %: 53.7774  AVERAGE MISS PENALTY: 690.629
LLC7 WRITEBACK ACCESS: 52907  HIT: 25151  MISS: 27756  HIT %: 47.5381  MISS %: 52.4619  AVERAGE MISS PENALTY: 0
LLC7 PREFETCH  REQUESTED:     0  ISSUED:     0  USEFUL: 1368259  USELESS: 5045582
 USEFUL LOAD PREFETCHES:    1368259 PREFETCH ISSUED TO LOWER LEVEL: 1250007096  ACCURACY: 0.10946
 TIMELY PREFETCHES:    1368259 LATE PREFETCHES: 0 DROPPED PREFETCHES: 0
LLC7 AVERAGE MISS LATENCY: 680.977 cycles

LLC7 Set Associative Eviction Count : 0
LLC7 Priority 0 entries : 12288
LLC7 Inter-Core Interference : 7074049
ROI Average ROB Stall Cycles:	56.5855
ROI Total ROB Stalls Cycles:	1793162792
ROI TOTAL ROB counter      :	31689419
ROI Average Load ROB Stall Cycles:	387.143
ROI Total Load ROB Stalls Cycle  :	1701625955
ROI Total Load ROB stalls Counter:	4395338
Major fault: 0 Minor fault: 58269








Interconnect Stats 
LINK 0 BW : 0LINK 1 BW : 0LINK 2 BW : 0LINK 3 BW : 0LINK 4 BW : 0LINK 5 BW : 0LINK 6 BW : 0LINK 7 BW : 0
DRAM Statistics
 CHANNEL 0
 RQ ROW_BUFFER_HIT: 45403972  ROW_BUFFER_MISS: 71267336
 DBUS_CONGESTED: 62133314
 WQ ROW_BUFFER_HIT: 95116  ROW_BUFFER_MISS: 1477525  FULL:     0

 CHANNEL 1
 RQ ROW_BUFFER_HIT: 44448044  ROW_BUFFER_MISS: 70762825
 DBUS_CONGESTED: 62133314
 WQ ROW_BUFFER_HIT: 95103  ROW_BUFFER_MISS: 1475422  FULL:     0

 AVG_CONGESTED_CYCLE: 5
DRAM PAGES: 2097152
Allocated PAGES: 465772
L2C destructor called
L1D destructor called
L1I destructor called
STLB destructor called
DTLB destructor called
ITLB destructor called
L2C destructor called
L1D destructor called
L1I destructor called
STLB destructor called
DTLB destructor called
ITLB destructor called
L2C destructor called
L1D destructor called
L1I destructor called
STLB destructor called
DTLB destructor called
ITLB destructor called
L2C destructor called
L1D destructor called
L1I destructor called
STLB destructor called
DTLB destructor called
ITLB destructor called
L2C destructor called
L1D destructor called
L1I destructor called
STLB destructor called
DTLB destructor called
ITLB destructor called
L2C destructor called
L1D destructor called
L1I destructor called
STLB destructor called
DTLB destructor called
ITLB destructor called
L2C destructor called
L1D destructor called
L1I destructor called
STLB destructor called
DTLB destructor called
ITLB destructor called
L2C destructor called
L1D destructor called
L1I destructor called
STLB destructor called
DTLB destructor called
ITLB destructor called
